data_Molecule from HDF5

_cell_length_a		16.314893
_cell_length_b		16.296157
_cell_length_c		16.229664
_cell_angle_alpha	89.775452
_cell_angle_beta	90.075228
_cell_angle_gamma	89.572615
_symmetry_space_group_name_H-M	'P 1'
_symmetry_Int_Tables_number		1

loop_
	_symmetry_equiv_pos_as_xyz
	x,y,z

loop_
	_atom_site_label
	_atom_site_type_symbol
	_atom_site_fract_x
	_atom_site_fract_y
	_atom_site_fract_z
	H0	H	0.396413	0.836993	0.711630
	H1	H	0.590108	0.164021	0.711200
	H2	H	0.592368	0.835947	0.284892
	H3	H	0.391773	0.162918	0.280594
	H4	H	0.709543	0.401674	0.833835
	H5	H	0.706408	0.596693	0.162159
	H6	H	0.275926	0.601779	0.835185
	H7	H	0.281530	0.401157	0.162891
	H8	H	0.830733	0.717708	0.399218
	H9	H	0.157618	0.713444	0.598103
	H10	H	0.829940	0.287240	0.599514
	H11	H	0.156600	0.285418	0.401157
	H12	H	0.829486	0.404680	0.713778
	H13	H	0.157012	0.597603	0.714103
	H14	H	0.830306	0.601638	0.283743
	H15	H	0.156505	0.400905	0.284424
	H16	H	0.393449	0.715379	0.834043
	H17	H	0.590941	0.713529	0.161499
	H18	H	0.593210	0.287321	0.831767
	H19	H	0.396318	0.284458	0.160579
	H20	H	0.711831	0.838186	0.397980
	H21	H	0.704977	0.164865	0.594877
	H22	H	0.279025	0.837558	0.596859
	H23	H	0.274932	0.163014	0.394777
	H24	H	0.896055	0.337225	0.215452
	H25	H	0.089286	0.664753	0.212343
	H26	H	0.091922	0.336670	0.786779
	H27	H	0.894158	0.664770	0.784631
	H28	H	0.208028	0.901571	0.333347
	H29	H	0.209658	0.099791	0.660831
	H30	H	0.778918	0.101548	0.332566
	H31	H	0.779271	0.903529	0.661350
	H32	H	0.330467	0.218250	0.895191
	H33	H	0.657213	0.213483	0.095398
	H34	H	0.330046	0.785649	0.097196
	H35	H	0.655548	0.784302	0.898490
	H36	H	0.329907	0.901810	0.211813
	H37	H	0.656392	0.096354	0.211966
	H38	H	0.329639	0.100057	0.781859
	H39	H	0.656758	0.901144	0.783552
	H40	H	0.893581	0.219256	0.334916
	H41	H	0.089844	0.211550	0.663321
	H42	H	0.093120	0.785118	0.334759
	H43	H	0.895861	0.788231	0.662363
	H44	H	0.209472	0.337164	0.901608
	H45	H	0.207908	0.663547	0.098991
	H46	H	0.779542	0.336238	0.098773
	H47	H	0.776769	0.664074	0.899365
	H48	H	0.398828	0.116144	0.587247
	H49	H	0.590613	0.882381	0.594138
	H50	H	0.582515	0.114192	0.408865
	H51	H	0.417841	0.888909	0.403013
	H52	H	0.585285	0.407596	0.112541
	H53	H	0.590485	0.594618	0.879152
	H54	H	0.407160	0.590888	0.112097
	H55	H	0.396347	0.410511	0.879913
	H56	H	0.108159	0.586457	0.406211
	H57	H	0.879312	0.592757	0.590234
	H58	H	0.110678	0.409763	0.601484
	H59	H	0.876828	0.414746	0.400308
	H60	H	0.111802	0.396921	0.591576
	H61	H	0.875997	0.595973	0.596114
	H62	H	0.112085	0.596787	0.399620
	H63	H	0.875575	0.402093	0.408298
	H64	H	0.400609	0.599867	0.116940
	H65	H	0.584482	0.587263	0.882646
	H66	H	0.585331	0.402797	0.113217
	H67	H	0.403096	0.412227	0.883418
	H68	H	0.589720	0.117383	0.403342
	H69	H	0.582109	0.885883	0.590996
	H70	H	0.399235	0.116976	0.589255
	H71	H	0.392183	0.886718	0.421424
	H72	H	0.893491	0.620443	0.099492
	H73	H	0.078180	0.390154	0.084688
	H74	H	0.077180	0.612258	0.911749
	H75	H	0.908153	0.389202	0.915273
	H76	H	0.087301	0.913020	0.612800
	H77	H	0.084398	0.085868	0.383396
	H78	H	0.896057	0.094412	0.615737
	H79	H	0.907575	0.904801	0.380632
	H80	H	0.605522	0.087885	0.909083
	H81	H	0.375756	0.097095	0.090579
	H82	H	0.605752	0.915788	0.090125
	H83	H	0.377351	0.911066	0.905056
	H84	H	0.613094	0.901719	0.098834
	H85	H	0.378185	0.094877	0.083262
	H86	H	0.611099	0.090674	0.895836
	H87	H	0.374934	0.907117	0.899346
	H88	H	0.897940	0.092913	0.614046
	H89	H	0.076426	0.097195	0.382468
	H90	H	0.081889	0.905863	0.613757
	H91	H	0.894883	0.907908	0.378783
	H92	H	0.094869	0.617653	0.911665
	H93	H	0.099510	0.382301	0.088010
	H94	H	0.908100	0.613364	0.091719
	H95	H	0.891704	0.382592	0.909051
	H96	H	0.400777	0.115976	0.587907
	H97	H	0.589682	0.885284	0.584903
	H98	H	0.581155	0.116813	0.399626
	H99	H	0.391908	0.877266	0.391045
	H100	H	0.588685	0.405106	0.115318
	H101	H	0.581401	0.596216	0.880580
	H102	H	0.395159	0.589149	0.115351
	H103	H	0.401761	0.405661	0.880055
	H104	H	0.109437	0.596948	0.412301
	H105	H	0.876296	0.599684	0.589609
	H106	H	0.105754	0.410561	0.586091
	H107	H	0.881384	0.414664	0.415324
	H108	H	0.892783	0.615945	0.082201
	H109	H	0.084199	0.381287	0.104317
	H110	H	0.084181	0.620024	0.896384
	H111	H	0.905854	0.382984	0.897398
	H112	H	0.090559	0.905751	0.616283
	H113	H	0.090109	0.097287	0.378839
	H114	H	0.899138	0.095470	0.614511
	H115	H	0.903016	0.916896	0.383641
	H116	H	0.611539	0.101118	0.905406
	H117	H	0.378864	0.089382	0.089151
	H118	H	0.608678	0.900111	0.081599
	H119	H	0.375389	0.903795	0.905358
	C120	C	0.371439	0.008902	0.617945
	C121	C	0.614842	0.992456	0.618618
	C122	C	0.614551	0.008627	0.375643
	C123	C	0.370882	0.991861	0.375146
	C124	C	0.615496	0.377873	0.005259
	C125	C	0.613760	0.620831	0.989250
	C126	C	0.371408	0.622125	0.006514
	C127	C	0.372350	0.379608	0.989288
	C128	C	0.001908	0.622906	0.377065
	C129	C	0.985344	0.623102	0.620949
	C130	C	0.001554	0.378678	0.621615
	C131	C	0.985221	0.380067	0.378422
	C132	C	0.871022	0.508498	0.120621
	C133	C	0.114933	0.492543	0.120771
	C134	C	0.114888	0.508732	0.878270
	C135	C	0.872178	0.492826	0.877817
	C136	C	0.115583	0.879282	0.506313
	C137	C	0.113200	0.121640	0.489914
	C138	C	0.869584	0.123934	0.506113
	C139	C	0.872847	0.880641	0.489183
	C140	C	0.501395	0.122587	0.874479
	C141	C	0.485282	0.121586	0.117451
	C142	C	0.501458	0.877799	0.118675
	C143	C	0.484329	0.878525	0.875213
	C144	C	0.375398	0.885836	0.673528
	C145	C	0.611285	0.115266	0.673791
	C146	C	0.613259	0.885325	0.321334
	C147	C	0.372041	0.114302	0.318737
	C148	C	0.671821	0.380533	0.882499
	C149	C	0.668308	0.617454	0.113207
	C150	C	0.314703	0.621018	0.883739
	C151	C	0.318413	0.381014	0.113219
	C152	C	0.879407	0.679427	0.378768
	C153	C	0.108422	0.676680	0.618808
	C154	C	0.878680	0.324976	0.619671
	C155	C	0.107599	0.322865	0.380039
	C156	C	0.878384	0.383251	0.676345
	C157	C	0.108341	0.618547	0.675920
	C158	C	0.879315	0.621730	0.321330
	C159	C	0.107965	0.381000	0.322704
	C160	C	0.372925	0.677565	0.883043
	C161	C	0.611556	0.675894	0.112644
	C162	C	0.613611	0.324150	0.881373
	C163	C	0.375523	0.323021	0.112103
	C164	C	0.672205	0.886146	0.377845
	C165	C	0.668442	0.115662	0.615945
	C166	C	0.317128	0.886139	0.616295
	C167	C	0.314152	0.114510	0.375850
	C168	C	0.875237	0.385686	0.176897
	C169	C	0.110896	0.615777	0.175155
	C170	C	0.112939	0.385597	0.823732
	C171	C	0.873798	0.615895	0.822392
	C172	C	0.170659	0.880984	0.382709
	C173	C	0.170270	0.119441	0.612673
	C174	C	0.815647	0.122512	0.382400
	C175	C	0.817397	0.883101	0.612597
	C176	C	0.378874	0.179198	0.876090
	C177	C	0.608348	0.175732	0.115657
	C178	C	0.378693	0.823328	0.116942
	C179	C	0.607099	0.822778	0.878005
	C180	C	0.378617	0.880844	0.174130
	C181	C	0.607729	0.117749	0.173777
	C182	C	0.378539	0.120641	0.819594
	C183	C	0.607741	0.880946	0.821014
	C184	C	0.872555	0.180847	0.383422
	C185	C	0.110758	0.174990	0.613919
	C186	C	0.113580	0.823333	0.383428
	C187	C	0.875221	0.825752	0.613113
	C188	C	0.171067	0.385745	0.881004
	C189	C	0.169574	0.615253	0.118888
	C190	C	0.817317	0.385163	0.119117
	C191	C	0.815681	0.615540	0.879597
	C192	C	0.393158	0.094387	0.595007
	C193	C	0.593658	0.906637	0.596418
	C194	C	0.591332	0.094032	0.397630
	C195	C	0.393716	0.906420	0.398476
	C196	C	0.593168	0.398968	0.091477
	C197	C	0.591732	0.599122	0.903079
	C198	C	0.394307	0.599726	0.092669
	C199	C	0.393905	0.402850	0.903296
	C200	C	0.087870	0.600064	0.399486
	C201	C	0.899489	0.602258	0.598828
	C202	C	0.087303	0.399594	0.599596
	C203	C	0.900099	0.403596	0.401296
	C204	C	0.891918	0.594434	0.097761
	C205	C	0.093556	0.406785	0.098790
	C206	C	0.092003	0.594595	0.900193
	C207	C	0.895142	0.407072	0.900550
	C208	C	0.093482	0.901729	0.592198
	C209	C	0.090435	0.099860	0.403862
	C210	C	0.891246	0.100909	0.592500
	C211	C	0.895213	0.903289	0.403244
	C212	C	0.587375	0.099827	0.896951
	C213	C	0.399715	0.100098	0.094430
	C214	C	0.586951	0.899493	0.096577
	C215	C	0.398171	0.900771	0.896762
	Zn216	Zn	0.493107	0.000206	0.746889
	Zn217	Zn	0.492714	-0.000862	0.246888
	Zn218	Zn	0.742731	0.499654	-0.001534
	Zn219	Zn	0.243818	0.500783	-0.000343
	Zn220	Zn	-0.005936	0.751659	0.498477
	Zn221	Zn	-0.007448	0.250860	0.499518
	Zn222	Zn	-0.006289	0.500915	0.748946
	Zn223	Zn	-0.006520	0.501061	0.249119
	Zn224	Zn	0.492848	0.750018	-0.002716
	Zn225	Zn	0.493851	0.250869	-0.004408
	Zn226	Zn	0.743072	0.001380	0.496935
	Zn227	Zn	0.242587	0.001077	0.496951
	N228	N	0.408625	0.963177	0.674426
	N229	N	0.578713	0.037665	0.675555
	N230	N	0.577923	0.962320	0.319913
	N231	N	0.406880	0.037092	0.318447
	N232	N	0.673041	0.413196	0.960632
	N233	N	0.669921	0.584086	0.035581
	N234	N	0.313814	0.587260	0.961636
	N235	N	0.316512	0.415621	0.035791
	N236	N	0.956806	0.680253	0.412735
	N237	N	0.031012	0.679551	0.585048
	N238	N	0.956010	0.322190	0.586328
	N239	N	0.030379	0.322474	0.414179
	N240	N	0.955925	0.415944	0.677793
	N241	N	0.030863	0.585958	0.677453
	N242	N	0.956498	0.587389	0.320105
	N243	N	0.030920	0.415826	0.321474
	N244	N	0.407532	0.678422	0.960395
	N245	N	0.578371	0.678207	0.034638
	N246	N	0.579369	0.322141	0.958816
	N247	N	0.408454	0.322124	0.034232
	N248	N	0.673153	0.963684	0.410631
	N249	N	0.670992	0.038229	0.582406
	N250	N	0.314614	0.963610	0.582488
	N251	N	0.313193	0.037323	0.410146
	N252	N	0.907993	0.463316	0.177775
	N253	N	0.077636	0.538486	0.176488
	N254	N	0.078882	0.463114	0.821702
	N255	N	0.908423	0.538606	0.821254
	N256	N	0.172036	0.915183	0.460120
	N257	N	0.171524	0.086692	0.534687
	N258	N	0.813692	0.088092	0.459914
	N259	N	0.815762	0.916519	0.534643
	N260	N	0.456672	0.180644	0.909285
	N261	N	0.531162	0.178207	0.081433
	N262	N	0.455961	0.821293	0.083200
	N263	N	0.529405	0.821255	0.911040
	N264	N	0.455796	0.914297	0.175288
	N265	N	0.530106	0.085286	0.175407
	N266	N	0.455671	0.086373	0.818390
	N267	N	0.530328	0.915054	0.819305
	N268	N	0.905390	0.181793	0.461538
	N269	N	0.076024	0.176555	0.536596
	N270	N	0.080090	0.822184	0.461151
	N271	N	0.908792	0.823992	0.535316
	N272	N	0.172310	0.463268	0.914158
	N273	N	0.172270	0.537654	0.085786
	N274	N	0.814580	0.462542	0.084953
	N275	N	0.814619	0.537926	0.913278
	O276	O	0.447484	0.525178	0.438296
	H277	H	0.442176	0.531749	0.434942
	H278	H	0.439907	0.524770	0.439359
	O279	O	0.531727	0.418173	0.476488
	H280	H	0.531874	0.424543	0.477741
	H281	H	0.529211	0.417703	0.473247
	O282	O	0.439009	0.488867	0.516805
	H283	H	0.436589	0.491565	0.509168
	H284	H	0.441047	0.486488	0.520233
	O285	O	0.003579	1.024723	0.980079
	H286	H	0.003067	1.030731	0.974655
	H287	H	0.002695	1.022851	0.979844
	O288	O	0.542253	0.442300	0.520600
	H289	H	0.549752	0.443448	0.524398
	H290	H	0.531992	0.435744	0.527020
	O291	O	-0.025261	0.002515	0.979083
	H292	H	-0.017629	0.006071	0.980574
	H293	H	-0.019054	-0.004160	0.972124
	O294	O	0.573272	0.479652	0.408710
	H295	H	0.580666	0.485610	0.403113
	H296	H	0.560103	0.470176	0.406701
	O297	O	0.497798	0.558984	0.462668
	H298	H	0.491407	0.557282	0.457404
	H299	H	0.498409	0.556160	0.451930
	O300	O	1.020751	0.994553	1.028370
	H301	H	1.019396	0.996810	1.025553
	H302	H	1.025709	0.994699	1.025052
	O303	O	0.490586	0.495509	0.424069
	H304	H	0.489318	0.504500	0.417623
	H305	H	0.489198	0.485531	0.432292
	O306	O	1.007905	-0.014296	1.032475
	H307	H	1.009405	-0.018300	1.032716
	H308	H	1.003133	-0.009765	1.039274
	O309	O	0.517450	0.544138	0.471902
	H310	H	0.532595	0.542574	0.472308
	H311	H	0.508284	0.543698	0.460819
	O312	O	0.477381	0.505171	0.475518
	H313	H	0.485777	0.498653	0.478734
	H314	H	0.481837	0.506565	0.469271
	O315	O	0.981225	0.044586	0.991414
	H316	H	0.972850	0.041981	0.995498
	H317	H	0.978705	0.046340	0.987714
	O318	O	0.008151	-0.027717	0.005793
	H319	H	0.002160	-0.028183	0.010219
	H320	H	0.008818	-0.033960	0.001082
	O321	O	0.534559	0.405049	0.478816
	H322	H	0.536322	0.413850	0.484856
	H323	H	0.537172	0.401280	0.477003
	O324	O	1.003557	0.016022	0.026857
	H325	H	0.995737	0.016117	0.016492
	H326	H	1.009159	0.012427	0.031842
	O327	O	1.033157	1.021227	-0.012719
	H328	H	1.038660	1.023411	-0.016776
	H329	H	1.031182	1.026561	-0.010992
	O330	O	0.508054	0.375193	0.439170
	H331	H	0.515908	0.369623	0.444169
	H332	H	0.505905	0.366200	0.441178
	O333	O	0.497953	0.477052	0.421360
	H334	H	0.505343	0.469199	0.420173
	H335	H	0.498022	0.479264	0.413524
