data_Molecule from HDF5

_cell_length_a		16.215080
_cell_length_b		16.312531
_cell_length_c		16.236920
_cell_angle_alpha	90.533381
_cell_angle_beta	90.766020
_cell_angle_gamma	90.976641
_symmetry_space_group_name_H-M	'P 1'
_symmetry_Int_Tables_number		1

loop_
	_symmetry_equiv_pos_as_xyz
	x,y,z

loop_
	_atom_site_label
	_atom_site_type_symbol
	_atom_site_fract_x
	_atom_site_fract_y
	_atom_site_fract_z
	H0	H	0.407076	0.833953	0.713528
	H1	H	0.613782	0.160847	0.722869
	H2	H	0.602365	0.835435	0.285626
	H3	H	0.409439	0.161478	0.288041
	H4	H	0.714707	0.402474	0.838983
	H5	H	0.728144	0.602742	0.167532
	H6	H	0.289894	0.595290	0.841783
	H7	H	0.293786	0.398544	0.168902
	H8	H	0.844656	0.709232	0.401250
	H9	H	0.171577	0.717115	0.610535
	H10	H	0.845332	0.277682	0.601231
	H11	H	0.173643	0.285786	0.408536
	H12	H	0.841469	0.396879	0.711557
	H13	H	0.170291	0.600625	0.725695
	H14	H	0.844248	0.590496	0.287516
	H15	H	0.171726	0.395616	0.289627
	H16	H	0.407097	0.710112	0.840426
	H17	H	0.613810	0.719917	0.166832
	H18	H	0.604210	0.282178	0.841408
	H19	H	0.405048	0.279475	0.166870
	H20	H	0.717704	0.833568	0.402694
	H21	H	0.728174	0.161172	0.605275
	H22	H	0.289645	0.835742	0.600054
	H23	H	0.294929	0.162335	0.404136
	H24	H	0.906531	0.332695	0.214321
	H25	H	0.112328	0.659016	0.224500
	H26	H	0.099792	0.333309	0.790499
	H27	H	0.907985	0.659856	0.788136
	H28	H	0.216101	0.900187	0.337527
	H29	H	0.229503	0.100586	0.665884
	H30	H	0.793516	0.093081	0.339643
	H31	H	0.793050	0.896811	0.666943
	H32	H	0.341909	0.208317	0.902094
	H33	H	0.670601	0.218685	0.106635
	H34	H	0.345773	0.780486	0.101770
	H35	H	0.671611	0.785234	0.904701
	H36	H	0.343444	0.898400	0.211734
	H37	H	0.670852	0.104002	0.222842
	H38	H	0.344042	0.092842	0.784588
	H39	H	0.672340	0.901824	0.790746
	H40	H	0.909135	0.209012	0.339484
	H41	H	0.113953	0.215898	0.667394
	H42	H	0.105728	0.779178	0.341435
	H43	H	0.907623	0.780387	0.667110
	H44	H	0.217237	0.333674	0.906266
	H45	H	0.228267	0.659630	0.109705
	H46	H	0.788764	0.335316	0.098736
	H47	H	0.796661	0.662727	0.906557
	H48	H	0.422946	0.111211	0.588642
	H49	H	0.603365	0.883056	0.587647
	H50	H	0.598248	0.109207	0.424229
	H51	H	0.415176	0.883844	0.408981
	H52	H	0.593039	0.401832	0.121173
	H53	H	0.597153	0.583191	0.890447
	H54	H	0.423125	0.594126	0.120485
	H55	H	0.406405	0.402365	0.886006
	H56	H	0.126618	0.595395	0.412571
	H57	H	0.889729	0.587721	0.599740
	H58	H	0.122943	0.406229	0.591657
	H59	H	0.895050	0.408186	0.414733
	H60	H	0.123391	0.414493	0.601911
	H61	H	0.890607	0.593309	0.592680
	H62	H	0.122073	0.590228	0.423850
	H63	H	0.888797	0.401754	0.400417
	H64	H	0.416937	0.592428	0.122489
	H65	H	0.592632	0.601637	0.886942
	H66	H	0.609877	0.408374	0.123759
	H67	H	0.413581	0.409885	0.890680
	H68	H	0.614354	0.117842	0.411716
	H69	H	0.605499	0.878416	0.602153
	H70	H	0.414416	0.114903	0.595156
	H71	H	0.406031	0.881349	0.408792
	H72	H	0.914664	0.613389	0.093997
	H73	H	0.093491	0.381532	0.100458
	H74	H	0.103998	0.614885	0.914347
	H75	H	0.907307	0.378392	0.900854
	H76	H	0.088265	0.899754	0.618924
	H77	H	0.102092	0.090511	0.386150
	H78	H	0.922569	0.092632	0.621156
	H79	H	0.911902	0.901925	0.386922
	H80	H	0.619567	0.089304	0.923482
	H81	H	0.391274	0.090773	0.093884
	H82	H	0.623003	0.914997	0.092889
	H83	H	0.392143	0.910385	0.905985
	H84	H	0.626665	0.913037	0.101537
	H85	H	0.391150	0.088131	0.093594
	H86	H	0.624085	0.086678	0.906894
	H87	H	0.388229	0.897808	0.903262
	H88	H	0.915747	0.090305	0.621601
	H89	H	0.098231	0.090480	0.387205
	H90	H	0.114543	0.903898	0.625223
	H91	H	0.914382	0.904298	0.388012
	H92	H	0.098386	0.613666	0.911148
	H93	H	0.099724	0.382400	0.090971
	H94	H	0.920193	0.615017	0.104075
	H95	H	0.916360	0.383832	0.909700
	H96	H	0.424690	0.114372	0.600031
	H97	H	0.592576	0.884395	0.598108
	H98	H	0.594260	0.114620	0.403929
	H99	H	0.411251	0.880645	0.400830
	H100	H	0.596274	0.419229	0.117297
	H101	H	0.610476	0.595446	0.883810
	H102	H	0.420393	0.588467	0.119829
	H103	H	0.416002	0.400188	0.888143
	H104	H	0.123736	0.582773	0.414046
	H105	H	0.893383	0.584847	0.592177
	H106	H	0.127798	0.401420	0.603724
	H107	H	0.890732	0.392771	0.413802
	H108	H	0.924830	0.610784	0.094347
	H109	H	0.104230	0.378550	0.099895
	H110	H	0.099142	0.611634	0.917611
	H111	H	0.902832	0.380796	0.913640
	H112	H	0.099567	0.923185	0.614688
	H113	H	0.100447	0.094510	0.385713
	H114	H	0.920722	0.085949	0.617995
	H115	H	0.914332	0.900991	0.387188
	H116	H	0.626868	0.102008	0.914269
	H117	H	0.390448	0.089507	0.096360
	H118	H	0.626157	0.905419	0.095855
	H119	H	0.392435	0.900882	0.915580
	C120	C	0.388753	0.006030	0.622628
	C121	C	0.631570	0.989661	0.626345
	C122	C	0.628817	0.006278	0.382281
	C123	C	0.384354	0.990186	0.379216
	C124	C	0.626711	0.379892	0.012578
	C125	C	0.631629	0.623648	0.995202
	C126	C	0.388404	0.619394	0.013338
	C127	C	0.384208	0.375154	0.996316
	C128	C	0.016535	0.616695	0.384531
	C129	C	0.998985	0.620137	0.627310
	C130	C	0.016373	0.376188	0.625650
	C131	C	1.000214	0.373717	0.382326
	C132	C	0.887709	0.505575	0.124725
	C133	C	0.130987	0.488309	0.128332
	C134	C	0.127237	0.505383	0.884671
	C135	C	0.882813	0.489146	0.880976
	C136	C	0.128284	0.878446	0.511545
	C137	C	0.131969	0.121530	0.494672
	C138	C	0.889165	0.117664	0.512120
	C139	C	0.884845	0.873555	0.495175
	C140	C	0.515364	0.119425	0.882915
	C141	C	0.498676	0.121777	0.126131
	C142	C	0.516938	0.879430	0.123875
	C143	C	0.499570	0.876099	0.880897
	C144	C	0.387636	0.883286	0.676670
	C145	C	0.632581	0.112084	0.683922
	C146	C	0.623675	0.883834	0.324628
	C147	C	0.388006	0.112798	0.324969
	C148	C	0.678769	0.381844	0.888573
	C149	C	0.689974	0.622989	0.118218
	C150	C	0.329531	0.616054	0.890369
	C151	C	0.330373	0.377463	0.119606
	C152	C	0.893510	0.671052	0.382861
	C153	C	0.122380	0.678172	0.628836
	C154	C	0.893798	0.317147	0.621920
	C155	C	0.124108	0.321593	0.386973
	C156	C	0.891817	0.376186	0.677043
	C157	C	0.121798	0.620230	0.686312
	C158	C	0.893293	0.612151	0.326185
	C159	C	0.123145	0.376461	0.327768
	C160	C	0.387935	0.673319	0.889583
	C161	C	0.632619	0.680721	0.118124
	C162	C	0.623525	0.322121	0.889809
	C163	C	0.386097	0.318519	0.118540
	C164	C	0.681132	0.882920	0.382827
	C165	C	0.689769	0.112209	0.625572
	C166	C	0.329467	0.884063	0.619965
	C167	C	0.331146	0.113096	0.382910
	C168	C	0.886767	0.382179	0.177707
	C169	C	0.132128	0.610339	0.186210
	C170	C	0.121968	0.382415	0.828292
	C171	C	0.887485	0.611650	0.826276
	C172	C	0.180558	0.879477	0.387477
	C173	C	0.190726	0.120674	0.617297
	C174	C	0.832259	0.113767	0.388513
	C175	C	0.830126	0.876032	0.618116
	C176	C	0.391594	0.171783	0.882526
	C177	C	0.621657	0.179990	0.126428
	C178	C	0.394212	0.820426	0.121102
	C179	C	0.622834	0.822772	0.884378
	C180	C	0.392869	0.879188	0.175860
	C181	C	0.621759	0.122936	0.184306
	C182	C	0.392543	0.114642	0.823930
	C183	C	0.623051	0.880329	0.827406
	C184	C	0.889755	0.171495	0.388598
	C185	C	0.133086	0.177905	0.617954
	C186	C	0.125645	0.819317	0.389388
	C187	C	0.887560	0.818350	0.618190
	C188	C	0.180254	0.382536	0.886060
	C189	C	0.189552	0.610647	0.128618
	C190	C	0.828141	0.383404	0.120335
	C191	C	0.832108	0.613051	0.885155
	C192	C	0.413563	0.091378	0.600899
	C193	C	0.607441	0.904033	0.602895
	C194	C	0.608419	0.091737	0.406267
	C195	C	0.404643	0.904311	0.400091
	C196	C	0.605859	0.402948	0.098548
	C197	C	0.607345	0.600300	0.909552
	C198	C	0.412998	0.598116	0.098725
	C199	C	0.405678	0.397548	0.910665
	C200	C	0.101939	0.595669	0.409606
	C201	C	0.913443	0.595914	0.602246
	C202	C	0.102494	0.400340	0.605343
	C203	C	0.913818	0.394602	0.403384
	C204	C	0.912488	0.590886	0.103758
	C205	C	0.106494	0.402902	0.104152
	C206	C	0.106609	0.591276	0.907666
	C207	C	0.902861	0.403285	0.901845
	C208	C	0.107088	0.902098	0.597333
	C209	C	0.107474	0.098646	0.408658
	C210	C	0.912852	0.095999	0.598077
	C211	C	0.906971	0.895746	0.409649
	C212	C	0.601259	0.098698	0.907561
	C213	C	0.413078	0.096868	0.101813
	C214	C	0.602972	0.903883	0.102885
	C215	C	0.413319	0.896870	0.901951
	Zn216	Zn	0.508450	-0.002592	0.753578
	Zn217	Zn	0.506559	-0.001036	0.252485
	Zn218	Zn	0.756926	0.499943	0.003278
	Zn219	Zn	0.258056	0.497578	0.005693
	Zn220	Zn	0.008434	0.747624	0.504579
	Zn221	Zn	0.009226	0.247756	0.503735
	Zn222	Zn	0.005788	0.497256	0.754048
	Zn223	Zn	0.009127	0.495309	0.255193
	Zn224	Zn	0.508656	0.749977	0.004165
	Zn225	Zn	0.506383	0.248865	0.004464
	Zn226	Zn	0.758828	-0.002869	0.503837
	Zn227	Zn	0.257938	-0.001268	0.501928
	N228	N	0.423995	0.960201	0.678511
	N229	N	0.597276	0.034712	0.684813
	N230	N	0.591880	0.961556	0.324045
	N231	N	0.420200	0.035456	0.322466
	N232	N	0.681157	0.416964	0.965957
	N233	N	0.689333	0.588012	0.040805
	N234	N	0.329593	0.583330	0.968144
	N235	N	0.328906	0.411995	0.042643
	N236	N	0.970875	0.673922	0.418528
	N237	N	0.044817	0.678026	0.592645
	N238	N	0.972291	0.316862	0.590979
	N239	N	0.046614	0.319903	0.420019
	N240	N	0.969113	0.412605	0.679494
	N241	N	0.044216	0.584934	0.685531
	N242	N	0.970836	0.579063	0.327011
	N243	N	0.044948	0.408269	0.324797
	N244	N	0.423963	0.675418	0.966948
	N245	N	0.597301	0.681542	0.040597
	N246	N	0.591796	0.320763	0.967883
	N247	N	0.418601	0.316863	0.040757
	N248	N	0.684710	0.960075	0.417863
	N249	N	0.689442	0.034950	0.590786
	N250	N	0.329946	0.961492	0.587081
	N251	N	0.328609	0.035775	0.415773
	N252	N	0.923116	0.458985	0.180551
	N253	N	0.096726	0.533174	0.186382
	N254	N	0.089698	0.459917	0.827453
	N255	N	0.918114	0.533571	0.823166
	N256	N	0.182240	0.915628	0.464498
	N257	N	0.190088	0.086280	0.539652
	N258	N	0.831787	0.080965	0.466387
	N259	N	0.828146	0.909553	0.540734
	N260	N	0.469055	0.174911	0.918404
	N261	N	0.544210	0.179401	0.091208
	N262	N	0.472293	0.820623	0.089377
	N263	N	0.544970	0.819844	0.916872
	N264	N	0.470218	0.915478	0.177685
	N265	N	0.544093	0.087336	0.184310
	N266	N	0.470618	0.082893	0.823984
	N267	N	0.545269	0.912713	0.825318
	N268	N	0.924374	0.173876	0.466372
	N269	N	0.097453	0.178730	0.540560
	N270	N	0.093943	0.818621	0.467577
	N271	N	0.920652	0.816459	0.540553
	N272	N	0.183803	0.460164	0.920222
	N273	N	0.188998	0.533477	0.093540
	N274	N	0.828489	0.461144	0.088192
	N275	N	0.828747	0.535824	0.918068
	O276	O	0.912324	0.163352	0.864273
	H277	H	0.909518	0.175404	0.857297
	H278	H	0.914181	0.152864	0.872856
	O279	O	-0.061437	0.933862	0.066076
	H280	H	-0.070891	0.923358	0.073066
	H281	H	-0.065875	0.931925	0.089866
	O282	O	0.519015	0.444247	0.419221
	H283	H	0.529498	0.436095	0.415972
	H284	H	0.510538	0.452176	0.407762
	O285	O	0.660504	0.649343	0.621398
	H286	H	0.667727	0.653504	0.600418
	H287	H	0.643381	0.656940	0.625958
	O288	O	0.450234	0.560752	0.549411
	H289	H	0.465722	0.563879	0.546030
	H290	H	0.446710	0.552800	0.555829
	O291	O	-0.095610	-0.003443	1.034878
	H292	H	-0.087972	-0.002474	1.043548
	H293	H	-0.088860	0.006184	1.037488
	O294	O	0.455995	1.605408	0.429277
	H295	H	0.465832	1.595486	0.443935
	H296	H	0.453057	1.596214	0.431062
	O297	O	1.110775	0.951872	0.049219
	H298	H	1.115830	0.953048	0.055048
	H299	H	1.116063	0.962839	0.058213
	O300	O	0.674297	0.526657	0.666498
	H301	H	0.681145	0.535677	0.662763
	H302	H	0.683310	0.545789	0.672935
	O303	O	0.042614	-0.048962	0.951799
	H304	H	0.041599	-0.049388	0.940041
	H305	H	0.042846	-0.045938	0.959131
	O306	O	0.519892	0.579430	0.476188
	H307	H	0.504803	0.572578	0.476285
	H308	H	0.520786	0.573548	0.489705
	O309	O	0.458695	0.486590	0.494380
	H310	H	0.450961	0.480117	0.494102
	H311	H	0.468640	0.478024	0.496939
	O312	O	1.444804	0.563909	1.427069
	H313	H	1.449211	0.580800	1.438253
	H314	H	1.440322	0.568194	1.427417
	O315	O	0.928904	0.952147	0.068841
	H316	H	0.921854	0.934378	0.079815
	H317	H	0.928457	0.952416	0.067693
	O318	O	0.606366	0.417443	0.387779
	H319	H	0.624341	0.428328	0.385058
	H320	H	0.603471	0.408338	0.377206
	O321	O	0.571629	0.388456	0.549918
	H322	H	0.580313	0.391639	0.553593
	H323	H	0.557174	0.386294	0.543376
	O324	O	-0.048719	1.030174	1.142441
	H325	H	-0.038266	1.037141	1.143241
	H326	H	-0.054161	1.032730	1.138659
	O327	O	-0.068804	1.008106	1.089519
	H328	H	-0.061347	1.020432	1.086119
	H329	H	-0.061867	1.005048	1.088686
	O330	O	-0.065073	-0.016122	-0.092725
	H331	H	-0.071136	-0.009443	-0.089263
	H332	H	-0.074291	-0.011265	-0.100945
	O333	O	0.438614	0.413417	0.478797
	H334	H	0.436912	0.406056	0.469959
	H335	H	0.441560	0.412892	0.474297
	O336	O	0.076587	-0.046436	-0.030678
	H337	H	0.092938	-0.041118	-0.022468
	H338	H	0.084681	-0.056898	-0.035263
	O339	O	-0.265291	-0.240290	0.412772
	H340	H	-0.275904	-0.242666	0.405323
	H341	H	-0.255130	-0.249831	0.397190
	O342	O	0.063022	0.928234	0.048455
	H343	H	0.050993	0.915653	0.035470
	H344	H	0.063684	0.924108	0.065090
	O345	O	0.068238	0.918984	1.019448
	H346	H	0.068283	0.925941	1.022612
	H347	H	0.063098	0.911492	1.025920
	O348	O	0.119636	1.016282	0.006246
	H349	H	0.113406	0.998929	-0.007372
	H350	H	0.113597	1.004371	0.004793
	O351	O	0.488632	0.548088	0.605121
	H352	H	0.474752	0.536614	0.607137
	H353	H	0.488791	0.550801	0.609808
	O354	O	-0.008757	1.000030	-0.070835
	H355	H	-0.011612	0.998638	-0.073797
	H356	H	-0.018570	0.991961	-0.061932
	O357	O	0.539929	0.413207	0.590314
	H358	H	0.552967	0.416151	0.600136
	H359	H	0.538096	0.408498	0.590991
	O360	O	0.558210	0.422984	0.369149
	H361	H	0.561125	0.433080	0.380677
	H362	H	0.542597	0.433014	0.365616
	O363	O	0.384006	0.598555	0.479137
	H364	H	0.387959	0.591125	0.485226
	H365	H	0.368697	0.594106	0.486751
	O366	O	0.452598	0.580568	0.579711
	H367	H	0.452875	0.577390	0.599248
	H368	H	0.438810	0.571016	0.573716
	O369	O	1.036610	-0.011874	-0.076501
	H370	H	1.026680	-0.023784	-0.074602
	H371	H	1.055078	-0.007751	-0.080045
	O372	O	0.416271	0.528322	0.405317
	H373	H	0.428389	0.528697	0.406710
	H374	H	0.421639	0.534002	0.405166
	O375	O	1.127304	0.019814	0.946217
	H376	H	1.123427	0.026224	0.941281
	H377	H	1.127078	0.026286	0.948452
	O378	O	-0.063228	1.016186	-0.094219
	H379	H	-0.060084	1.026244	-0.102814
	H380	H	-0.070860	1.018114	-0.108517
	O381	O	0.493967	0.438516	0.658372
	H382	H	0.494716	0.435744	0.667033
	H383	H	0.500796	0.436577	0.658929
	O384	O	1.105689	1.061967	0.013783
	H385	H	1.091768	1.053782	0.008148
	H386	H	1.114144	1.062628	0.012146
	O387	O	0.963161	0.078516	0.958314
	H388	H	0.970273	0.079834	0.963579
	H389	H	0.962363	0.091923	0.953652
	O390	O	1.592475	0.385417	-0.577652
	H391	H	1.582735	0.379676	-0.580780
	H392	H	1.575605	0.378235	-0.575817
	O393	O	0.366871	0.438682	0.538548
	H394	H	0.362004	0.431364	0.535971
	H395	H	0.367213	0.449416	0.540591
