data_Molecule from HDF5

_cell_length_a		16.439008
_cell_length_b		16.543367
_cell_length_c		16.482990
_cell_angle_alpha	89.974872
_cell_angle_beta	89.967302
_cell_angle_gamma	89.800235
_symmetry_space_group_name_H-M	'P 1'
_symmetry_Int_Tables_number		1

loop_
	_symmetry_equiv_pos_as_xyz
	x,y,z

loop_
	_atom_site_label
	_atom_site_type_symbol
	_atom_site_fract_x
	_atom_site_fract_y
	_atom_site_fract_z
	H0	H	0.382359	0.857638	0.711055
	H1	H	0.595783	0.170813	0.712662
	H2	H	0.597767	0.856835	0.264665
	H3	H	0.383636	0.170150	0.266599
	H4	H	0.713356	0.403023	0.832507
	H5	H	0.711413	0.620555	0.145322
	H6	H	0.264417	0.620207	0.832189
	H7	H	0.267803	0.411163	0.146328
	H8	H	0.831437	0.742660	0.376365
	H9	H	0.143468	0.733527	0.593872
	H10	H	0.830437	0.286764	0.601298
	H11	H	0.144993	0.295924	0.387208
	H12	H	0.829785	0.403509	0.715313
	H13	H	0.143396	0.616121	0.709365
	H14	H	0.830199	0.625653	0.261263
	H15	H	0.144551	0.412642	0.271429
	H16	H	0.378888	0.738509	0.833202
	H17	H	0.597896	0.738978	0.144264
	H18	H	0.596745	0.289661	0.831607
	H19	H	0.383259	0.292650	0.145895
	H20	H	0.712749	0.856790	0.381589
	H21	H	0.712619	0.170257	0.597270
	H22	H	0.267932	0.856000	0.592400
	H23	H	0.267273	0.170022	0.384293
	H24	H	0.879165	0.357078	0.212155
	H25	H	0.088588	0.671607	0.208173
	H26	H	0.091541	0.356907	0.767648
	H27	H	0.876386	0.670010	0.763542
	H28	H	0.204071	0.912014	0.328282
	H29	H	0.205265	0.114516	0.646570
	H30	H	0.764549	0.120001	0.331120
	H31	H	0.762479	0.904838	0.645050
	H32	H	0.330257	0.232916	0.886828
	H33	H	0.646668	0.236869	0.096040
	H34	H	0.330757	0.795092	0.091205
	H35	H	0.645040	0.787200	0.878600
	H36	H	0.330078	0.912425	0.206381
	H37	H	0.647040	0.120915	0.211345
	H38	H	0.329999	0.115779	0.770547
	H39	H	0.645722	0.903329	0.762853
	H40	H	0.877622	0.237858	0.332009
	H41	H	0.089346	0.233020	0.646052
	H42	H	0.090959	0.792479	0.330599
	H43	H	0.879192	0.789574	0.645499
	H44	H	0.208319	0.357637	0.884339
	H45	H	0.205304	0.672044	0.090428
	H46	H	0.763525	0.356111	0.096259
	H47	H	0.760742	0.669005	0.880103
	H48	H	0.394398	0.127094	0.575579
	H49	H	0.575506	0.903684	0.575231
	H50	H	0.574056	0.122219	0.404149
	H51	H	0.394204	0.896140	0.390055
	H52	H	0.573261	0.430642	0.097753
	H53	H	0.571316	0.602135	0.877406
	H54	H	0.404746	0.601332	0.098749
	H55	H	0.393936	0.422693	0.873326
	H56	H	0.097866	0.604237	0.401295
	H57	H	0.873091	0.600524	0.577653
	H58	H	0.098465	0.427229	0.581382
	H59	H	0.872262	0.425144	0.402420
	H60	H	0.099238	0.419347	0.577375
	H61	H	0.872584	0.604838	0.574169
	H62	H	0.096357	0.599443	0.400625
	H63	H	0.873069	0.426752	0.400840
	H64	H	0.397933	0.610640	0.104239
	H65	H	0.575392	0.598807	0.876998
	H66	H	0.571288	0.420808	0.099814
	H67	H	0.398656	0.428244	0.876924
	H68	H	0.579447	0.126202	0.400043
	H69	H	0.573458	0.903800	0.574883
	H70	H	0.395612	0.127674	0.581799
	H71	H	0.403374	0.901828	0.395526
	H72	H	0.900891	0.621326	0.070569
	H73	H	0.077002	0.401226	0.080330
	H74	H	0.073529	0.626841	0.896707
	H75	H	0.898448	0.400914	0.897076
	H76	H	0.077029	0.922919	0.601063
	H77	H	0.076571	0.108014	0.373597
	H78	H	0.902595	0.104917	0.600459
	H79	H	0.896932	0.932881	0.378641
	H80	H	0.601001	0.099609	0.902335
	H81	H	0.375057	0.110551	0.074925
	H82	H	0.602366	0.929037	0.080136
	H83	H	0.376610	0.924545	0.899424
	H84	H	0.604199	0.919161	0.076166
	H85	H	0.378899	0.099291	0.073487
	H86	H	0.602674	0.100395	0.896498
	H87	H	0.378138	0.925643	0.903080
	H88	H	0.897136	0.099896	0.600728
	H89	H	0.079802	0.105329	0.372949
	H90	H	0.078727	0.919182	0.603356
	H91	H	0.908575	0.929611	0.381262
	H92	H	0.073461	0.625551	0.900826
	H93	H	0.078137	0.400332	0.078694
	H94	H	0.896264	0.625571	0.074964
	H95	H	0.905053	0.404745	0.900781
	H96	H	0.400547	0.125605	0.577875
	H97	H	0.574674	0.904780	0.572895
	H98	H	0.572381	0.124947	0.397210
	H99	H	0.393664	0.899821	0.401269
	H100	H	0.580168	0.424999	0.101956
	H101	H	0.571449	0.597297	0.879753
	H102	H	0.392733	0.599362	0.101658
	H103	H	0.402304	0.420917	0.875174
	H104	H	0.099230	0.602089	0.397379
	H105	H	0.874388	0.600177	0.572580
	H106	H	0.095876	0.426240	0.573121
	H107	H	0.871967	0.425293	0.400348
	H108	H	0.902940	0.623872	0.077449
	H109	H	0.078818	0.400282	0.080237
	H110	H	0.077187	0.627235	0.899323
	H111	H	0.897729	0.403575	0.905265
	H112	H	0.081074	0.922685	0.602543
	H113	H	0.076146	0.103814	0.374971
	H114	H	0.903410	0.097851	0.597557
	H115	H	0.900913	0.921789	0.375616
	H116	H	0.603564	0.105435	0.900939
	H117	H	0.375350	0.102509	0.084600
	H118	H	0.599940	0.926831	0.069809
	H119	H	0.378109	0.928453	0.900012
	C120	C	0.366100	0.022255	0.609698
	C121	C	0.609180	1.006416	0.609412
	C122	C	0.609991	0.021435	0.366631
	C123	C	0.365915	1.004026	0.364956
	C124	C	0.609354	0.391297	-0.003244
	C125	C	0.607928	0.633679	0.980741
	C126	C	0.366008	0.635968	-0.002604
	C127	C	0.366151	0.392528	0.979709
	C128	C	-0.005830	0.636133	0.365870
	C129	C	0.977397	0.633873	0.608259
	C130	C	-0.005695	0.391213	0.611074
	C131	C	0.977038	0.394013	0.368878
	C132	C	0.865611	0.520867	0.108987
	C133	C	0.108345	0.505321	0.110343
	C134	C	0.107743	0.522812	0.866999
	C135	C	0.864918	0.505420	0.866234
	C136	C	0.109142	0.891268	0.497044
	C137	C	0.108450	0.135442	0.479143
	C138	C	0.865880	0.135266	0.496849
	C139	C	0.867000	0.893192	0.481088
	C140	C	0.497489	0.134039	0.868243
	C141	C	0.480900	0.136115	0.110349
	C142	C	0.497560	0.893220	0.108201
	C143	C	0.480442	0.891277	0.866025
	C144	C	0.364521	0.904378	0.670060
	C145	C	0.613273	0.123711	0.671960
	C146	C	0.614576	0.903895	0.305272
	C147	C	0.364910	0.122826	0.306518
	C148	C	0.672127	0.386478	0.879239
	C149	C	0.670776	0.638098	0.098168
	C150	C	0.305108	0.638612	0.879302
	C151	C	0.307017	0.391692	0.098804
	C152	C	0.877490	0.700231	0.360160
	C153	C	0.096381	0.693432	0.611719
	C154	C	0.877194	0.328208	0.617104
	C155	C	0.097148	0.335576	0.368057
	C156	C	0.876865	0.386635	0.674065
	C157	C	0.096046	0.635398	0.669353
	C158	C	0.876948	0.641708	0.302958
	C159	C	0.096984	0.393329	0.310416
	C160	C	0.361818	0.697450	0.879696
	C161	C	0.614138	0.697256	0.097566
	C162	C	0.614315	0.329414	0.879149
	C163	C	0.364457	0.332818	0.098430
	C164	C	0.672423	0.904074	0.363358
	C165	C	0.671454	0.123660	0.614253
	C166	C	0.307419	0.903706	0.610994
	C167	C	0.306687	0.122824	0.364566
	C168	C	0.861668	0.403750	0.171361
	C169	C	0.108455	0.624304	0.168803
	C170	C	0.109961	0.404244	0.807610
	C171	C	0.859451	0.622837	0.804010
	C172	C	0.165952	0.891714	0.376559
	C173	C	0.165977	0.134361	0.598893
	C174	C	0.804285	0.138499	0.378742
	C175	C	0.803966	0.888055	0.598493
	C176	C	0.377745	0.193119	0.867542
	C177	C	0.599299	0.196705	0.113648
	C178	C	0.378237	0.834502	0.110222
	C179	C	0.597972	0.828304	0.861256
	C180	C	0.377862	0.892931	0.167162
	C181	C	0.599548	0.138911	0.171224
	C182	C	0.377673	0.135315	0.809617
	C183	C	0.598207	0.886108	0.803332
	C184	C	0.860776	0.197103	0.379047
	C185	C	0.108646	0.193214	0.598763
	C186	C	0.109605	0.832635	0.377700
	C187	C	0.861712	0.830241	0.598363
	C188	C	0.168100	0.404573	0.865524
	C189	C	0.166041	0.624822	0.110102
	C190	C	0.804152	0.403403	0.113184
	C191	C	0.801739	0.622435	0.862180
	C192	C	0.390070	0.105136	0.585347
	C193	C	0.582316	0.925333	0.582268
	C194	C	0.583178	0.103176	0.393009
	C195	C	0.390146	0.921009	0.389037
	C196	C	0.582690	0.417956	0.078520
	C197	C	0.580517	0.606968	0.899246
	C198	C	0.391580	0.610962	0.080032
	C199	C	0.391142	0.416980	0.896654
	C200	C	0.076402	0.609415	0.392468
	C201	C	0.894901	0.609070	0.582185
	C202	C	0.076325	0.416868	0.584745
	C203	C	0.893964	0.418764	0.393942
	C204	C	0.892252	0.602248	0.081913
	C205	C	0.084655	0.422248	0.086434
	C206	C	0.082126	0.605172	0.891730
	C207	C	0.892463	0.424188	0.893266
	C208	C	0.085656	0.914710	0.580478
	C209	C	0.084403	0.112480	0.395524
	C210	C	0.893085	0.108456	0.578381
	C211	C	0.894385	0.920399	0.399785
	C212	C	0.580699	0.109151	0.892832
	C213	C	0.398031	0.111309	0.084887
	C214	C	0.580364	0.917868	0.082763
	C215	C	0.398845	0.918588	0.893092
	Zn216	Zn	0.488859	0.013933	0.738860
	Zn217	Zn	0.489655	0.013403	0.237428
	Zn218	Zn	0.736688	0.513003	-0.011843
	Zn219	Zn	0.237375	0.514553	-0.011401
	Zn220	Zn	-0.013433	0.763645	0.488003
	Zn221	Zn	-0.014409	0.263927	0.488581
	Zn222	Zn	-0.014572	0.513613	0.738044
	Zn223	Zn	-0.014355	0.513560	0.238900
	Zn224	Zn	0.488337	0.763722	-0.011854
	Zn225	Zn	0.488697	0.263739	-0.011625
	Zn226	Zn	0.738131	0.013813	0.488884
	Zn227	Zn	0.237121	0.012925	0.487425
	N228	N	0.400317	0.979145	0.669471
	N229	N	0.575542	0.049713	0.669290
	N230	N	0.576471	0.977921	0.307292
	N231	N	0.400913	0.047898	0.306626
	N232	N	0.669180	0.424322	0.953411
	N233	N	0.667037	0.599398	0.024485
	N234	N	0.307712	0.601011	0.953420
	N235	N	0.308139	0.428111	0.023981
	N236	N	0.951343	0.696561	0.398787
	N237	N	0.021588	0.692626	0.574605
	N238	N	0.951210	0.330930	0.578276
	N239	N	0.021422	0.335573	0.403558
	N240	N	0.950495	0.425098	0.670462
	N241	N	0.021020	0.599108	0.667371
	N242	N	0.950479	0.602267	0.306723
	N243	N	0.021378	0.428833	0.310807
	N244	N	0.399286	0.695750	0.954164
	N245	N	0.575815	0.694682	0.023504
	N246	N	0.575941	0.332319	0.953236
	N247	N	0.400596	0.333142	0.023287
	N248	N	0.669665	0.978278	0.400809
	N249	N	0.668994	0.049924	0.576053
	N250	N	0.308092	0.978206	0.574247
	N251	N	0.307120	0.047724	0.400041
	N252	N	0.899015	0.477867	0.168960
	N253	N	0.073506	0.549009	0.169065
	N254	N	0.072796	0.478667	0.808556
	N255	N	0.897782	0.548928	0.806421
	N256	N	0.166121	0.927253	0.451812
	N257	N	0.165988	0.099268	0.523355
	N258	N	0.807272	0.100893	0.452995
	N259	N	0.807229	0.926553	0.524698
	N260	N	0.453490	0.192848	0.902584
	N261	N	0.524455	0.195129	0.076538
	N262	N	0.453693	0.834408	0.074523
	N263	N	0.523671	0.831217	0.899177
	N264	N	0.453229	0.928442	0.166214
	N265	N	0.524680	0.102016	0.169545
	N266	N	0.453251	0.099502	0.809909
	N267	N	0.524139	0.924899	0.806424
	N268	N	0.898138	0.195517	0.453643
	N269	N	0.073721	0.194153	0.523029
	N270	N	0.075281	0.832048	0.453757
	N271	N	0.900462	0.833587	0.524460
	N272	N	0.166929	0.479285	0.901607
	N273	N	0.166484	0.549694	0.074816
	N274	N	0.806451	0.477325	0.075143
	N275	N	0.804985	0.548416	0.899985
	O276	O	0.984835	-0.178991	0.073709
	H277	H	0.977020	-0.173205	0.064068
	H278	H	0.974376	-0.186949	0.092671
	O279	O	0.706239	0.296680	0.467272
	H280	H	0.742697	0.266660	0.466857
	H281	H	0.697220	0.316185	0.496127
	O282	O	0.448963	1.470666	0.265437
	H283	H	0.465714	1.464914	0.262381
	H284	H	0.462928	1.453547	0.272669
	O285	O	0.313031	0.704832	0.664707
	H286	H	0.322456	0.691752	0.647158
	H287	H	0.330592	0.686778	0.647629
	O288	O	-0.232775	0.034155	-0.232270
	H289	H	-0.216584	0.085043	-0.218568
	H290	H	-0.271740	0.041685	-0.270087
	O291	O	0.977837	0.964009	0.106477
	H292	H	0.992689	0.962470	0.114548
	H293	H	0.977977	0.975974	0.107200
	O294	O	-0.306210	0.720563	-0.497117
	H295	H	-0.304144	0.738414	-0.501637
	H296	H	-0.310475	0.721556	-0.467686
	O297	O	0.275356	0.298257	0.520873
	H298	H	0.267482	0.292713	0.544929
	H299	H	0.265162	0.297905	0.523466
	O300	O	0.285000	0.306505	0.692273
	H301	H	0.276576	0.310891	0.692633
	H302	H	0.262440	0.302601	0.711238
	O303	O	0.502634	0.725415	0.702463
	H304	H	0.497896	0.743655	0.700839
	H305	H	0.517196	0.735236	0.704477
	O306	O	0.109175	1.060835	0.940564
	H307	H	0.111102	1.049399	0.927244
	H308	H	0.120476	1.060954	0.938483
	O309	O	1.106662	1.015150	0.885491
	H310	H	1.107755	0.996093	0.882861
	H311	H	1.099231	1.011245	0.878878
	O312	O	0.277917	0.480203	0.696812
	H313	H	0.283184	0.484062	0.688797
	H314	H	0.267671	0.482825	0.715127
	O315	O	-0.022741	0.214458	0.801389
	H316	H	-0.015089	0.230841	0.793733
	H317	H	-0.006179	0.196561	0.816369
	O318	O	-0.171175	0.885048	0.058172
	H319	H	-0.154304	0.878255	0.043419
	H320	H	-0.172889	0.887928	0.046341
	O321	O	1.186765	0.223354	1.189535
	H322	H	1.195899	0.186660	1.180332
	H323	H	1.221602	0.252669	1.221762
	O324	O	1.711147	0.505112	0.497559
	H325	H	1.714828	0.527869	0.476679
	H326	H	1.712132	0.500682	0.472182
	O327	O	0.965493	0.052501	1.084920
	H328	H	0.969407	0.058505	1.089209
	H329	H	0.968802	0.042267	1.075167
	O330	O	0.703167	-0.464092	0.703529
	H331	H	0.732163	-0.468108	0.725141
	H332	H	0.696073	-0.486896	0.697201
	O333	O	1.512282	0.504118	0.432657
	H334	H	1.507501	0.506594	0.429106
	H335	H	1.524840	0.498967	0.436162
	O336	O	1.195407	0.041722	0.783154
	H337	H	1.196952	0.014100	0.786351
	H338	H	1.203172	0.021346	0.777750
	O339	O	0.439455	0.562111	0.712939
	H340	H	0.445150	0.574983	0.712927
	H341	H	0.439200	0.564675	0.716028
	O342	O	0.847017	-0.086489	0.915721
	H343	H	0.829815	-0.066108	0.889873
	H344	H	0.843158	-0.091879	0.926200
	O345	O	0.196129	-0.122216	-0.069238
	H346	H	0.190953	-0.143300	-0.070481
	H347	H	0.203406	-0.135209	-0.098972
	O348	O	0.952668	-0.152539	1.022604
	H349	H	0.965249	-0.156847	1.018469
	H350	H	0.941771	-0.143286	1.019625
	O351	O	0.839781	0.834004	0.095457
	H352	H	0.844398	0.826097	0.077282
	H353	H	0.841127	0.838605	0.085131
	O354	O	0.467613	0.685892	0.403624
	H355	H	0.451571	0.677180	0.408767
	H356	H	0.469393	0.676640	0.407394
	O357	O	1.179455	1.183476	0.999844
	H358	H	1.183226	1.188445	1.016479
	H359	H	1.176021	1.185063	1.021600
	O360	O	0.662156	0.693680	0.660254
	H361	H	0.666684	0.668045	0.650877
	H362	H	0.644688	0.677630	0.674201
	O363	O	0.461791	0.300442	0.453456
	H364	H	0.470890	0.307887	0.476720
	H365	H	0.459113	0.299581	0.467712
	O366	O	0.831441	0.128555	1.049242
	H367	H	0.838636	0.117570	1.064021
	H368	H	0.839234	0.120617	1.046595
	O369	O	0.811204	0.187688	0.804813
	H370	H	0.800907	0.200267	0.855799
	H371	H	0.862552	0.197368	0.799750
	O372	O	0.511871	0.300317	0.274244
	H373	H	0.503212	0.282497	0.289422
	H374	H	0.527179	0.279888	0.266521
	O375	O	0.009274	1.230885	0.965170
	H376	H	0.015500	1.220819	0.973392
	H377	H	-0.002635	1.233512	0.974744
	O378	O	1.013380	-0.120244	-0.079812
	H379	H	1.034642	-0.111039	-0.080486
	H380	H	1.010214	-0.105263	-0.078368
	O381	O	1.020200	-0.200475	-0.225672
	H382	H	1.002440	-0.202557	-0.226833
	H383	H	1.003859	-0.205774	-0.230639
	O384	O	0.296100	0.321149	1.297201
	H385	H	0.314943	0.348273	1.307387
	H386	H	0.314893	0.327643	1.325079
	O387	O	0.188816	0.812279	0.789875
	H388	H	0.147010	0.807286	0.794246
	H389	H	0.201449	0.782345	0.760057
	O390	O	-0.031935	-0.012734	1.036069
	H391	H	-0.065308	-0.018576	1.048501
	H392	H	-0.028656	0.001457	1.029496
	O393	O	0.934103	1.038062	-0.107107
	H394	H	0.929463	1.039398	-0.107415
	H395	H	0.950597	1.034451	-0.100380
	O396	O	0.926116	0.017536	0.952093
	H397	H	0.942246	0.031216	0.952895
	H398	H	0.922732	0.023450	0.965084
	O399	O	0.014618	1.225447	1.200669
	H400	H	0.028478	1.239824	1.222922
	H401	H	0.049853	1.225147	1.203496
	O402	O	0.197726	0.052044	1.198210
	H403	H	0.210204	0.038874	1.207783
	H404	H	0.204210	0.049401	1.188270
	O405	O	-0.610520	0.665298	0.493762
	H406	H	-0.619817	0.656436	0.482590
	H407	H	-0.611283	0.669977	0.486353
	O408	O	0.298739	0.524237	0.283635
	H409	H	0.289393	0.522736	0.284618
	H410	H	0.317256	0.514448	0.275992
	O411	O	0.701016	0.498975	0.276312
	H412	H	0.707784	0.499841	0.267728
	H413	H	0.710033	0.469151	0.270580
	O414	O	0.280448	0.722268	0.279515
	H415	H	0.297991	0.695968	0.275200
	H416	H	0.286808	0.730366	0.261447
	O417	O	0.401490	0.422933	0.497445
	H418	H	0.422918	0.413117	0.516714
	H419	H	0.400793	0.415994	0.495973
	O420	O	0.335451	0.470113	0.452216
	H421	H	0.341661	0.458706	0.456478
	H422	H	0.329804	0.483559	0.458879
	O423	O	-0.043791	0.879209	0.144658
	H424	H	-0.056445	0.884554	0.135956
	H425	H	-0.058775	0.901762	0.142775
	O426	O	0.643606	1.617311	1.416837
	H427	H	0.640120	1.633872	1.422849
	H428	H	0.631722	1.619325	1.399968
	O429	O	0.540701	0.595157	0.294346
	H430	H	0.552290	0.597327	0.291914
	H431	H	0.531517	0.587150	0.297350
	O432	O	0.267761	0.732421	0.461152
	H433	H	0.243430	0.757282	0.443458
	H434	H	0.271773	0.729156	0.422805
	O435	O	0.533418	-0.570663	0.623790
	H436	H	0.532157	-0.582236	0.636135
	H437	H	0.535266	-0.571127	0.625363
	O438	O	1.176794	-0.145846	0.145104
	H439	H	1.178872	-0.158265	0.145196
	H440	H	1.163960	-0.127672	0.139267
	O441	O	0.308753	0.507888	0.576241
	H442	H	0.300534	0.532560	0.568119
	H443	H	0.304607	0.493335	0.583199
	O444	O	0.472404	0.317321	0.706350
	H445	H	0.453277	0.308351	0.707855
	H446	H	0.467531	0.301061	0.726543
	O447	O	0.519263	0.573893	0.587313
	H448	H	0.528194	0.590370	0.592121
	H449	H	0.509953	0.561720	0.577546
	O450	O	0.670171	0.337341	0.308857
	H451	H	0.645908	0.342478	0.297637
	H452	H	0.681846	0.324570	0.358884
	O453	O	0.176025	0.208326	-0.139059
	H454	H	0.178193	0.192389	-0.129426
	H455	H	0.151121	0.196518	-0.128489
	O456	O	0.779075	-0.005407	0.196474
	H457	H	0.774331	-0.003307	0.202309
	H458	H	0.773964	-0.020132	0.208742
	O459	O	0.457481	0.729553	0.268915
	H460	H	0.476214	0.732797	0.267397
	H461	H	0.461143	0.742525	0.261341
	O462	O	0.635825	0.370802	0.557418
	H463	H	0.630433	0.388172	0.568220
	H464	H	0.622446	0.387180	0.561289
	O465	O	0.784999	0.220790	-0.034646
	H466	H	0.768387	0.230140	-0.015480
	H467	H	0.798314	0.230269	-0.014116
