data_Molecule from HDF5

_cell_length_a		16.342403
_cell_length_b		16.366574
_cell_length_c		16.390805
_cell_angle_alpha	89.960070
_cell_angle_beta	90.140786
_cell_angle_gamma	89.884026
_symmetry_space_group_name_H-M	'P 1'
_symmetry_Int_Tables_number		1

loop_
	_symmetry_equiv_pos_as_xyz
	x,y,z

loop_
	_atom_site_label
	_atom_site_type_symbol
	_atom_site_fract_x
	_atom_site_fract_y
	_atom_site_fract_z
	H0	H	0.395128	0.839069	0.717807
	H1	H	0.604506	0.158511	0.718791
	H2	H	0.605883	0.840260	0.276900
	H3	H	0.393905	0.159479	0.277668
	H4	H	0.716188	0.396061	0.834921
	H5	H	0.720192	0.600560	0.156337
	H6	H	0.279312	0.604390	0.836944
	H7	H	0.280048	0.395293	0.156723
	H8	H	0.840364	0.719577	0.390687
	H9	H	0.161235	0.716077	0.598439
	H10	H	0.839219	0.281410	0.598484
	H11	H	0.160809	0.279798	0.395200
	H12	H	0.839600	0.394807	0.715070
	H13	H	0.160576	0.602327	0.714955
	H14	H	0.840391	0.602712	0.275718
	H15	H	0.161479	0.394673	0.277306
	H16	H	0.393049	0.721650	0.838015
	H17	H	0.605717	0.718645	0.156479
	H18	H	0.599538	0.280733	0.835840
	H19	H	0.396556	0.279934	0.157224
	H20	H	0.719475	0.839090	0.395063
	H21	H	0.718897	0.159555	0.602157
	H22	H	0.280177	0.839253	0.601035
	H23	H	0.279221	0.159361	0.394682
	H24	H	0.896977	0.339092	0.215322
	H25	H	0.106495	0.658376	0.217693
	H26	H	0.103820	0.339481	0.776356
	H27	H	0.894823	0.658913	0.775058
	H28	H	0.219450	0.895907	0.336668
	H29	H	0.219528	0.102204	0.656987
	H30	H	0.778257	0.104829	0.338158
	H31	H	0.781845	0.894547	0.657689
	H32	H	0.338331	0.217392	0.894732
	H33	H	0.659999	0.217669	0.100141
	H34	H	0.339383	0.778398	0.102552
	H35	H	0.657642	0.776019	0.891474
	H36	H	0.339182	0.895139	0.217216
	H37	H	0.659659	0.102460	0.217287
	H38	H	0.339401	0.102592	0.778119
	H39	H	0.659102	0.892461	0.776725
	H40	H	0.894412	0.219870	0.337553
	H41	H	0.104220	0.218963	0.656919
	H42	H	0.104767	0.779041	0.336604
	H43	H	0.895982	0.777401	0.655960
	H44	H	0.219898	0.339381	0.892507
	H45	H	0.220172	0.658907	0.100434
	H46	H	0.783321	0.338046	0.097498
	H47	H	0.776146	0.657647	0.888351
	H48	H	0.410348	0.113209	0.588401
	H49	H	0.591414	0.883684	0.589865
	H50	H	0.595615	0.115626	0.408268
	H51	H	0.409632	0.886114	0.411966
	H52	H	0.592437	0.403760	0.112424
	H53	H	0.589607	0.582034	0.883965
	H54	H	0.408274	0.591663	0.112219
	H55	H	0.405804	0.404543	0.880458
	H56	H	0.117277	0.587174	0.395980
	H57	H	0.887513	0.585682	0.581477
	H58	H	0.114523	0.414661	0.592506
	H59	H	0.888662	0.414251	0.407853
	H60	H	0.117296	0.401915	0.587263
	H61	H	0.884706	0.587423	0.589249
	H62	H	0.115784	0.597844	0.411253
	H63	H	0.884603	0.409764	0.398650
	H64	H	0.408011	0.582687	0.109172
	H65	H	0.581246	0.590123	0.885004
	H66	H	0.594358	0.410518	0.111085
	H67	H	0.406824	0.412998	0.883271
	H68	H	0.585100	0.114023	0.402020
	H69	H	0.587261	0.886302	0.587283
	H70	H	0.411682	0.111687	0.587114
	H71	H	0.405541	0.883223	0.403893
	H72	H	0.910262	0.612115	0.084223
	H73	H	0.085567	0.385670	0.089234
	H74	H	0.091204	0.612633	0.909704
	H75	H	0.904213	0.383205	0.905462
	H76	H	0.091500	0.906233	0.612149
	H77	H	0.086912	0.091632	0.382847
	H78	H	0.904308	0.089041	0.612885
	H79	H	0.907878	0.907846	0.382386
	H80	H	0.615752	0.089679	0.904029
	H81	H	0.383612	0.090866	0.090281
	H82	H	0.613994	0.908340	0.086461
	H83	H	0.385859	0.913815	0.906555
	H84	H	0.611955	0.911128	0.085339
	H85	H	0.384694	0.091238	0.085621
	H86	H	0.613560	0.091810	0.911241
	H87	H	0.384334	0.907658	0.908068
	H88	H	0.913624	0.084687	0.608449
	H89	H	0.092447	0.088557	0.382234
	H90	H	0.091239	0.909489	0.610306
	H91	H	0.909831	0.914829	0.384733
	H92	H	0.091469	0.614659	0.901900
	H93	H	0.089040	0.387721	0.080930
	H94	H	0.910695	0.612763	0.084746
	H95	H	0.912455	0.384290	0.899307
	H96	H	0.409032	0.112894	0.586497
	H97	H	0.591954	0.885272	0.584556
	H98	H	0.585707	0.110422	0.413413
	H99	H	0.415041	0.885298	0.404069
	H100	H	0.587887	0.408923	0.110237
	H101	H	0.591927	0.592688	0.880529
	H102	H	0.415914	0.587880	0.108417
	H103	H	0.413459	0.407805	0.884224
	H104	H	0.109820	0.580181	0.411566
	H105	H	0.884983	0.593939	0.583014
	H106	H	0.111468	0.411728	0.578921
	H107	H	0.885232	0.403450	0.408190
	H108	H	0.910742	0.612641	0.083704
	H109	H	0.093972	0.383589	0.087029
	H110	H	0.084341	0.612449	0.905538
	H111	H	0.912619	0.387357	0.909195
	H112	H	0.088487	0.907118	0.610179
	H113	H	0.087367	0.085632	0.385129
	H114	H	0.913570	0.095125	0.612061
	H115	H	0.914755	0.909105	0.384898
	H116	H	0.612069	0.084565	0.908543
	H117	H	0.385321	0.087111	0.087774
	H118	H	0.612915	0.910287	0.089083
	H119	H	0.386782	0.910946	0.912094
	C120	C	0.378387	0.007210	0.618831
	C121	C	0.621537	0.990556	0.619637
	C122	C	0.621152	0.007984	0.376379
	C123	C	0.377965	0.990699	0.375531
	C124	C	0.621270	0.377018	0.004927
	C125	C	0.620848	0.620059	0.988367
	C126	C	0.378453	0.620202	0.004921
	C127	C	0.377739	0.377401	0.988336
	C128	C	0.008658	0.620227	0.374254
	C129	C	0.991727	0.619859	0.616634
	C130	C	0.008352	0.378003	0.617446
	C131	C	0.992027	0.377321	0.374377
	C132	C	0.879367	0.507130	0.116136
	C133	C	0.122015	0.490737	0.117799
	C134	C	0.120813	0.507756	0.874493
	C135	C	0.877734	0.490432	0.872915
	C136	C	0.122256	0.876839	0.505192
	C137	C	0.120652	0.120119	0.488957
	C138	C	0.878059	0.121435	0.505934
	C139	C	0.879049	0.878088	0.489260
	C140	C	0.507984	0.120116	0.876399
	C141	C	0.490634	0.120802	0.119324
	C142	C	0.507505	0.877912	0.118874
	C143	C	0.490707	0.877679	0.876185
	C144	C	0.376926	0.887038	0.678043
	C145	C	0.622967	0.110784	0.678845
	C146	C	0.623216	0.887845	0.316984
	C147	C	0.375601	0.111391	0.316933
	C148	C	0.677694	0.376789	0.883438
	C149	C	0.680888	0.620476	0.108189
	C150	C	0.318782	0.622451	0.884920
	C151	C	0.319224	0.376438	0.108788
	C152	C	0.888359	0.679913	0.372430
	C153	C	0.112746	0.677468	0.617683
	C154	C	0.887613	0.319813	0.617725
	C155	C	0.112806	0.318530	0.374649
	C156	C	0.887724	0.376494	0.675785
	C157	C	0.112224	0.620927	0.675863
	C158	C	0.888205	0.621525	0.315105
	C159	C	0.113058	0.376175	0.316410
	C160	C	0.375322	0.681105	0.885595
	C161	C	0.623538	0.679031	0.108521
	C162	C	0.619709	0.319342	0.883912
	C163	C	0.377359	0.319103	0.109119
	C164	C	0.680039	0.887393	0.375561
	C165	C	0.680079	0.111153	0.620907
	C166	C	0.319410	0.886846	0.620019
	C167	C	0.318463	0.111416	0.375156
	C168	C	0.878668	0.386890	0.175345
	C169	C	0.124345	0.610643	0.177711
	C170	C	0.122616	0.387347	0.815774
	C171	C	0.875597	0.610721	0.813884
	C172	C	0.180613	0.876454	0.384726
	C173	C	0.180161	0.121329	0.609119
	C174	C	0.818083	0.123059	0.385989
	C175	C	0.821038	0.876329	0.609446
	C176	C	0.386778	0.178348	0.875967
	C177	C	0.611596	0.178866	0.119902
	C178	C	0.387274	0.818186	0.120688
	C179	C	0.610366	0.816642	0.873413
	C180	C	0.387174	0.876356	0.177848
	C181	C	0.611397	0.121303	0.177895
	C182	C	0.387265	0.121206	0.817867
	C183	C	0.610908	0.874674	0.816222
	C184	C	0.876017	0.180347	0.385614
	C185	C	0.122648	0.179383	0.608978
	C186	C	0.123405	0.818161	0.384698
	C187	C	0.877710	0.817533	0.608546
	C188	C	0.180413	0.387405	0.873474
	C189	C	0.181236	0.610791	0.119532
	C190	C	0.821651	0.386320	0.117025
	C191	C	0.816839	0.610046	0.870601
	C192	C	0.403084	0.090918	0.594294
	C193	C	0.597070	0.906853	0.594601
	C194	C	0.596192	0.091513	0.400935
	C195	C	0.402735	0.906821	0.399565
	C196	C	0.598236	0.400932	0.089197
	C197	C	0.595059	0.595601	0.904856
	C198	C	0.403653	0.594894	0.088178
	C199	C	0.401884	0.401349	0.904515
	C200	C	0.092451	0.595516	0.399031
	C201	C	0.907585	0.595834	0.591820
	C202	C	0.092522	0.402450	0.593272
	C203	C	0.907981	0.401906	0.398068
	C204	C	0.903554	0.590865	0.091383
	C205	C	0.096779	0.407302	0.092909
	C206	C	0.096078	0.591357	0.898763
	C207	C	0.902682	0.406685	0.897614
	C208	C	0.097490	0.900775	0.588951
	C209	C	0.095967	0.095505	0.405255
	C210	C	0.903266	0.096866	0.589465
	C211	C	0.903780	0.903437	0.405670
	C212	C	0.591912	0.095646	0.900850
	C213	C	0.406529	0.096731	0.094942
	C214	C	0.591164	0.902799	0.094207
	C215	C	0.407411	0.903415	0.901586
	Zn216	Zn	0.499437	-0.000854	0.747855
	Zn217	Zn	0.499180	-0.000705	0.247520
	Zn218	Zn	0.750012	0.498287	-0.004711
	Zn219	Zn	0.249576	0.499611	-0.003793
	Zn220	Zn	0.000298	0.748903	0.496316
	Zn221	Zn	0.000090	0.249434	0.496949
	Zn222	Zn	-0.000009	0.499150	0.745042
	Zn223	Zn	0.000739	0.499065	0.245635
	Zn224	Zn	0.499072	0.748935	-0.002117
	Zn225	Zn	0.499385	0.248896	-0.002777
	Zn226	Zn	0.750116	-0.000423	0.498217
	Zn227	Zn	0.250065	-0.000987	0.496964
	N228	N	0.413114	0.962851	0.677267
	N229	N	0.587539	0.034728	0.678431
	N230	N	0.587200	0.963914	0.317252
	N231	N	0.411929	0.035577	0.317146
	N232	N	0.678929	0.411679	0.959671
	N233	N	0.679469	0.584797	0.032359
	N234	N	0.320627	0.585346	0.960255
	N235	N	0.319410	0.412013	0.032763
	N236	N	0.964369	0.679246	0.408547
	N237	N	0.036900	0.676913	0.581507
	N238	N	0.963664	0.320664	0.582248
	N239	N	0.036786	0.319214	0.410025
	N240	N	0.963857	0.412130	0.675745
	N241	N	0.035712	0.585859	0.675455
	N242	N	0.964081	0.585445	0.316012
	N243	N	0.036721	0.411766	0.315895
	N244	N	0.411745	0.679743	0.961164
	N245	N	0.586888	0.678839	0.032945
	N246	N	0.585572	0.319123	0.960521
	N247	N	0.412960	0.319366	0.033298
	N248	N	0.679002	0.963035	0.411762
	N249	N	0.679428	0.035333	0.584745
	N250	N	0.320300	0.962520	0.583797
	N251	N	0.319712	0.035276	0.410626
	N252	N	0.913936	0.463075	0.174944
	N253	N	0.088231	0.534918	0.176795
	N254	N	0.086419	0.463196	0.816028
	N255	N	0.912681	0.535386	0.815232
	N256	N	0.180095	0.911976	0.460722
	N257	N	0.179236	0.085172	0.533371
	N258	N	0.819255	0.086909	0.461745
	N259	N	0.821956	0.913470	0.534274
	N260	N	0.462974	0.177851	0.911691
	N261	N	0.535313	0.178886	0.084420
	N262	N	0.463209	0.818973	0.084667
	N263	N	0.534724	0.818208	0.909911
	N264	N	0.462877	0.912561	0.176932
	N265	N	0.535114	0.086306	0.177667
	N266	N	0.463460	0.085653	0.818045
	N267	N	0.535344	0.911872	0.817760
	N268	N	0.912471	0.179699	0.461197
	N269	N	0.086309	0.178569	0.533361
	N270	N	0.088067	0.817925	0.460755
	N271	N	0.913195	0.818563	0.532670
	N272	N	0.179478	0.463245	0.909356
	N273	N	0.179651	0.535373	0.082781
	N274	N	0.822001	0.461960	0.080683
	N275	N	0.817961	0.534155	0.906608
	O276	O	0.412605	0.426645	0.431417
	H277	H	0.416364	0.428708	0.432690
	H278	H	0.433040	0.419648	0.420265
	O279	O	0.437840	0.467043	0.448702
	H280	H	0.436799	0.465050	0.451947
	H281	H	0.431521	0.459235	0.460013
	O282	O	0.487411	0.385607	0.578828
	H283	H	0.503797	0.391277	0.585939
	H284	H	0.486005	0.397960	0.565882
	O285	O	1.175824	-0.051101	-0.115927
	H286	H	1.174387	-0.065523	-0.123881
	H287	H	1.180985	-0.059265	-0.117657
	O288	O	0.000030	-0.047840	0.842628
	H289	H	-0.015532	-0.064181	0.836461
	H290	H	0.008724	-0.035683	0.842880
	O291	O	0.377312	0.580397	0.453731
	H292	H	0.385663	0.591052	0.457159
	H293	H	0.377265	0.563322	0.455726
	O294	O	0.488041	0.558264	0.414490
	H295	H	0.489514	0.556085	0.435595
	H296	H	0.480651	0.576897	0.412447
	O297	O	0.985258	1.088909	0.791680
	H298	H	0.989882	1.088305	0.786661
	H299	H	0.969072	1.083503	0.782726
	O300	O	-0.148033	0.040592	0.154239
	H301	H	-0.157753	0.039690	0.158137
	H302	H	-0.147494	0.034849	0.154029
	O303	O	0.492240	0.467626	0.576773
	H304	H	0.497663	0.473351	0.575302
	H305	H	0.491716	0.467861	0.590501
	O306	O	1.056833	0.029220	0.082863
	H307	H	1.046551	0.015207	0.086690
	H308	H	1.061587	0.033886	0.065157
	O309	O	0.628354	0.307761	0.323058
	H310	H	0.637419	0.319927	0.312802
	H311	H	0.648909	0.302721	0.343485
	O312	O	0.810306	0.806045	0.160357
	H313	H	0.813152	0.821998	0.148158
	H314	H	0.809702	0.803001	0.173601
	O315	O	0.545831	0.504033	0.378683
	H316	H	0.543036	0.505140	0.368912
	H317	H	0.526301	0.513659	0.388107
	O318	O	0.518339	0.573288	0.548126
	H319	H	0.523265	0.559935	0.542383
	H320	H	0.523841	0.560181	0.546499
	O321	O	0.821417	0.180316	0.928791
	H322	H	0.817422	0.177618	0.934192
	H323	H	0.819771	0.185427	0.930425
	O324	O	-0.163751	-0.036984	0.925448
	H325	H	-0.164140	-0.039279	0.936686
	H326	H	-0.163110	-0.026660	0.931228
	O327	O	0.565161	0.467850	0.507253
	H328	H	0.563372	0.467477	0.511220
	H329	H	0.558402	0.477377	0.499695
	O330	O	0.519272	0.557094	0.601679
	H331	H	0.526380	0.545601	0.591735
	H332	H	0.515909	0.556399	0.597737
	O333	O	0.917250	1.042661	1.176101
	H334	H	0.915562	1.047345	1.165125
	H335	H	0.922473	1.045594	1.181083
	O336	O	0.509607	0.454163	0.464649
	H337	H	0.509219	0.441220	0.463246
	H338	H	0.502276	0.443690	0.475920
	O339	O	0.829557	0.112952	0.937602
	H340	H	0.856244	0.118009	0.933474
	H341	H	0.828332	0.102902	0.946401
	O342	O	0.068474	1.102111	1.052365
	H343	H	0.072553	1.105660	1.057297
	H344	H	0.080248	1.106097	1.051954
	O345	O	0.112252	0.964466	1.078763
	H346	H	0.113894	0.960991	1.084175
	H347	H	0.099834	0.974188	1.070101
	O348	O	0.458858	0.593789	0.676093
	H349	H	0.457520	0.583323	0.667367
	H350	H	0.451110	0.606024	0.689053
	O351	O	0.153340	0.202970	0.091534
	H352	H	0.156539	0.201739	0.097081
	H353	H	0.177307	0.207649	0.081091
	O354	O	1.017240	0.808305	0.035627
	H355	H	1.002580	0.801624	0.037435
	H356	H	1.025585	0.801771	0.033435
	O357	O	0.144024	0.900767	0.051472
	H358	H	0.132642	0.904586	0.052089
	H359	H	0.140677	0.908298	0.057792
	O360	O	0.461920	0.505380	0.652820
	H361	H	0.472051	0.511431	0.665521
	H362	H	0.453530	0.493238	0.655335
	O363	O	0.453152	0.621774	0.459195
	H364	H	0.437261	0.616665	0.453078
	H365	H	0.444507	0.636535	0.453339
	O366	O	0.624256	0.572092	0.565833
	H367	H	0.610055	0.580832	0.567696
	H368	H	0.625697	0.576302	0.556571
	O369	O	0.574899	0.289229	0.357412
	H370	H	0.590511	0.271121	0.347402
	H371	H	0.601974	0.290916	0.352722
	O372	O	0.446993	0.518433	0.383213
	H373	H	0.451569	0.521611	0.381412
	H374	H	0.432650	0.517534	0.385819
	O375	O	0.453261	0.503230	0.444544
	H376	H	0.460970	0.496550	0.438395
	H377	H	0.451349	0.500223	0.435798
	O378	O	0.624566	0.620780	0.597084
	H379	H	0.629258	0.628778	0.609804
	H380	H	0.625478	0.634499	0.588491
	O381	O	0.471107	0.615411	0.390313
	H382	H	0.452406	0.631709	0.393527
	H383	H	0.475916	0.615836	0.385685
	O384	O	0.015947	0.922403	0.939440
	H385	H	0.018979	0.939636	0.948816
	H386	H	0.010747	0.914405	0.936560
	O387	O	1.001415	0.817955	0.197878
	H388	H	0.993441	0.798937	0.210278
	H389	H	1.000427	0.814066	0.186408
	O390	O	0.483910	0.376879	0.606868
	H391	H	0.485119	0.373655	0.609907
	H392	H	0.488198	0.365944	0.594810
	O393	O	1.162755	-0.004477	1.090121
	H394	H	1.165002	-0.015597	1.095996
	H395	H	1.162450	-0.007542	1.100604
	O396	O	0.036192	1.109843	0.931898
	H397	H	0.035113	1.118347	0.922623
	H398	H	0.050638	1.111068	0.940714
	O399	O	0.607875	0.467630	0.533818
	H400	H	0.593195	0.472906	0.550681
	H401	H	0.615233	0.457405	0.537014
	O402	O	1.112816	-0.086052	0.901022
	H403	H	1.105877	-0.099641	0.912919
	H404	H	1.101111	-0.066923	0.908195
	O405	O	-0.037716	0.067809	0.043397
	H406	H	-0.030351	0.070175	0.048934
	H407	H	-0.041351	0.068096	0.036096
	O408	O	1.019459	0.793486	0.865812
	H409	H	1.006188	0.796934	0.865905
	H410	H	1.013937	0.782024	0.865863
	O411	O	0.786720	0.807889	0.010729
	H412	H	0.782175	0.818652	0.028803
	H413	H	0.772930	0.793836	0.012291
	O414	O	0.134920	0.133006	0.876542
	H415	H	0.127741	0.119157	0.864543
	H416	H	0.139823	0.123028	0.865041
	O417	O	0.322572	0.560434	0.389687
	H418	H	0.315564	0.535093	0.393629
	H419	H	0.318121	0.555151	0.404228
	O420	O	-0.008286	1.087034	0.052154
	H421	H	0.004113	1.077966	0.052713
	H422	H	0.009058	1.086833	0.059354
	O423	O	0.811805	0.084426	-0.091453
	H424	H	0.810451	0.076011	-0.113442
	H425	H	0.811957	0.087465	-0.074648
	O426	O	0.016824	0.117821	0.986281
	H427	H	0.028201	0.118110	0.974206
	H428	H	0.018176	0.128289	0.999507
	O429	O	0.594642	0.565551	0.464639
	H430	H	0.600124	0.544867	0.461394
	H431	H	0.577314	0.565407	0.460920
