data_Molecule from HDF5

_cell_length_a		16.255173
_cell_length_b		16.198385
_cell_length_c		16.244271
_cell_angle_alpha	89.301479
_cell_angle_beta	90.222655
_cell_angle_gamma	90.547834
_symmetry_space_group_name_H-M	'P 1'
_symmetry_Int_Tables_number		1

loop_
	_symmetry_equiv_pos_as_xyz
	x,y,z

loop_
	_atom_site_label
	_atom_site_type_symbol
	_atom_site_fract_x
	_atom_site_fract_y
	_atom_site_fract_z
	H0	H	0.396270	0.840200	0.713886
	H1	H	0.599476	0.168358	0.710630
	H2	H	0.595546	0.839289	0.286394
	H3	H	0.397133	0.166542	0.275239
	H4	H	0.709381	0.406918	0.831408
	H5	H	0.713870	0.601899	0.158888
	H6	H	0.281863	0.603518	0.833859
	H7	H	0.280571	0.398058	0.160496
	H8	H	0.832762	0.719710	0.395909
	H9	H	0.160738	0.720317	0.593193
	H10	H	0.834618	0.285564	0.597991
	H11	H	0.161615	0.295773	0.399930
	H12	H	0.832920	0.401911	0.711356
	H13	H	0.158413	0.607506	0.713389
	H14	H	0.833546	0.605727	0.278492
	H15	H	0.160916	0.410343	0.283472
	H16	H	0.397755	0.719947	0.833300
	H17	H	0.598407	0.715797	0.160799
	H18	H	0.592546	0.293270	0.830920
	H19	H	0.395974	0.282564	0.159252
	H20	H	0.710379	0.840804	0.401229
	H21	H	0.714827	0.167687	0.596266
	H22	H	0.280499	0.841240	0.597969
	H23	H	0.284475	0.169600	0.392640
	H24	H	0.894764	0.341527	0.214102
	H25	H	0.096457	0.669679	0.206564
	H26	H	0.092580	0.340113	0.783742
	H27	H	0.897754	0.667920	0.779179
	H28	H	0.209743	0.910781	0.332710
	H29	H	0.216766	0.105448	0.659914
	H30	H	0.781013	0.107119	0.333673
	H31	H	0.783624	0.902619	0.661144
	H32	H	0.332155	0.216567	0.895673
	H33	H	0.660345	0.220390	0.095589
	H34	H	0.334405	0.783523	0.097854
	H35	H	0.661622	0.792998	0.901199
	H36	H	0.334172	0.899900	0.214042
	H37	H	0.661510	0.103004	0.211028
	H38	H	0.333877	0.101917	0.780031
	H39	H	0.661499	0.908038	0.785249
	H40	H	0.899973	0.220587	0.332547
	H41	H	0.097790	0.218377	0.661973
	H42	H	0.093266	0.796983	0.331315
	H43	H	0.896657	0.785988	0.658857
	H44	H	0.208486	0.338684	0.900424
	H45	H	0.216212	0.666019	0.097207
	H46	H	0.780794	0.340196	0.095830
	H47	H	0.782823	0.668144	0.893262
	H48	H	0.404182	0.120761	0.582034
	H49	H	0.587476	0.884877	0.601963
	H50	H	0.587387	0.120571	0.404653
	H51	H	0.408973	0.887674	0.401359
	H52	H	0.590726	0.411756	0.112434
	H53	H	0.589216	0.603916	0.877449
	H54	H	0.404261	0.589062	0.113282
	H55	H	0.408533	0.411193	0.881387
	H56	H	0.114554	0.598940	0.399027
	H57	H	0.874849	0.603568	0.595215
	H58	H	0.114921	0.407306	0.591089
	H59	H	0.878929	0.412990	0.397373
	H60	H	0.111996	0.417671	0.585290
	H61	H	0.881793	0.599663	0.575267
	H62	H	0.115810	0.605466	0.400666
	H63	H	0.878717	0.406359	0.409049
	H64	H	0.410822	0.591986	0.112912
	H65	H	0.593091	0.597664	0.878269
	H66	H	0.587186	0.411830	0.110425
	H67	H	0.397489	0.405998	0.877040
	H68	H	0.591253	0.122017	0.404595
	H69	H	0.582270	0.890813	0.586575
	H70	H	0.402949	0.124778	0.594184
	H71	H	0.403495	0.889950	0.415351
	H72	H	0.903616	0.621677	0.083345
	H73	H	0.089373	0.386372	0.087969
	H74	H	0.092698	0.620669	0.907951
	H75	H	0.903825	0.388306	0.907705
	H76	H	0.086689	0.902070	0.615804
	H77	H	0.095495	0.100779	0.379269
	H78	H	0.893175	0.095770	0.617650
	H79	H	0.904480	0.917583	0.381527
	H80	H	0.616259	0.096743	0.891837
	H81	H	0.379938	0.093322	0.089309
	H82	H	0.617413	0.912938	0.104115
	H83	H	0.379702	0.908926	0.902910
	H84	H	0.617003	0.899124	0.088776
	H85	H	0.381710	0.093715	0.085012
	H86	H	0.615753	0.111280	0.907689
	H87	H	0.380297	0.909812	0.907409
	H88	H	0.911645	0.083223	0.608778
	H89	H	0.088213	0.099599	0.381879
	H90	H	0.099926	0.915604	0.615279
	H91	H	0.903646	0.912439	0.378730
	H92	H	0.089601	0.621577	0.899718
	H93	H	0.087629	0.384980	0.096084
	H94	H	0.902428	0.623530	0.088761
	H95	H	0.896065	0.384596	0.904866
	H96	H	0.414551	0.119666	0.588434
	H97	H	0.598126	0.885476	0.588847
	H98	H	0.589155	0.121909	0.400852
	H99	H	0.394618	0.884601	0.403847
	H100	H	0.589459	0.408866	0.112706
	H101	H	0.586433	0.597783	0.880352
	H102	H	0.405133	0.595849	0.115525
	H103	H	0.397855	0.418369	0.881410
	H104	H	0.112457	0.602145	0.405056
	H105	H	0.882311	0.583742	0.590121
	H106	H	0.114465	0.417739	0.597473
	H107	H	0.883553	0.419488	0.408612
	H108	H	0.907503	0.621089	0.087256
	H109	H	0.082242	0.388274	0.090842
	H110	H	0.084881	0.618489	0.905884
	H111	H	0.902800	0.385469	0.899630
	H112	H	0.082845	0.920200	0.609127
	H113	H	0.090168	0.106479	0.378979
	H114	H	0.913905	0.106814	0.614366
	H115	H	0.898674	0.915750	0.379073
	H116	H	0.610238	0.091004	0.911717
	H117	H	0.382445	0.089941	0.087330
	H118	H	0.609487	0.918492	0.086052
	H119	H	0.380901	0.912618	0.903912
	C120	C	0.376740	0.013454	0.618282
	C121	C	0.619079	0.995547	0.619808
	C122	C	0.618091	0.012958	0.376329
	C123	C	0.374831	0.995994	0.375064
	C124	C	0.617199	0.383313	0.003692
	C125	C	0.619397	0.626588	0.987233
	C126	C	0.376561	0.623688	0.005831
	C127	C	0.373188	0.380520	0.988218
	C128	C	0.005646	0.629689	0.372441
	C129	C	0.987509	0.626111	0.616496
	C130	C	0.005847	0.383013	0.619477
	C131	C	0.988612	0.385322	0.376105
	C132	C	0.874576	0.513527	0.116824
	C133	C	0.117679	0.495017	0.119032
	C134	C	0.117284	0.512157	0.876020
	C135	C	0.873817	0.494947	0.873999
	C136	C	0.117722	0.885572	0.504873
	C137	C	0.120748	0.129533	0.488469
	C138	C	0.876659	0.125925	0.505343
	C139	C	0.874088	0.883647	0.487854
	C140	C	0.505725	0.127116	0.873938
	C141	C	0.489160	0.123218	0.116900
	C142	C	0.506273	0.879978	0.120997
	C143	C	0.488774	0.882996	0.876953
	C144	C	0.376938	0.889425	0.675113
	C145	C	0.618483	0.119345	0.673284
	C146	C	0.615481	0.888843	0.323308
	C147	C	0.377140	0.118334	0.315236
	C148	C	0.671601	0.386756	0.880243
	C149	C	0.675551	0.622351	0.110281
	C150	C	0.320092	0.623426	0.882747
	C151	C	0.318331	0.379286	0.111403
	C152	C	0.882102	0.683129	0.374842
	C153	C	0.111226	0.682601	0.614328
	C154	C	0.883078	0.324956	0.617510
	C155	C	0.112258	0.332449	0.379449
	C156	C	0.882303	0.382855	0.673951
	C157	C	0.110297	0.626194	0.673722
	C158	C	0.882600	0.626347	0.316595
	C159	C	0.111818	0.389150	0.321120
	C160	C	0.378232	0.681022	0.882394
	C161	C	0.618089	0.679001	0.111133
	C162	C	0.613659	0.330003	0.880085
	C163	C	0.375651	0.321691	0.110647
	C164	C	0.672599	0.889525	0.380423
	C165	C	0.676122	0.118905	0.616554
	C166	C	0.319366	0.890013	0.617538
	C167	C	0.321179	0.119879	0.373937
	C168	C	0.874914	0.390526	0.175411
	C169	C	0.116846	0.619740	0.170952
	C170	C	0.113657	0.388790	0.821430
	C171	C	0.876949	0.618715	0.817048
	C172	C	0.172063	0.889838	0.381421
	C173	C	0.177644	0.125987	0.611583
	C174	C	0.820096	0.125947	0.382394
	C175	C	0.820651	0.883836	0.611516
	C176	C	0.381788	0.180158	0.875409
	C177	C	0.611750	0.181223	0.115469
	C178	C	0.383267	0.822476	0.118359
	C179	C	0.612499	0.829940	0.880380
	C180	C	0.383024	0.880225	0.175999
	C181	C	0.612331	0.122750	0.172954
	C182	C	0.382577	0.122825	0.818141
	C183	C	0.612526	0.887079	0.822866
	C184	C	0.879116	0.182524	0.381788
	C185	C	0.118791	0.182380	0.612467
	C186	C	0.114038	0.833442	0.380674
	C187	C	0.877316	0.825934	0.610721
	C188	C	0.171113	0.388074	0.879540
	C189	C	0.176475	0.617750	0.116679
	C190	C	0.818376	0.389794	0.116390
	C191	C	0.819926	0.618873	0.874031
	C192	C	0.400176	0.099419	0.595002
	C193	C	0.596018	0.909341	0.598737
	C194	C	0.595771	0.099348	0.397294
	C195	C	0.396114	0.909757	0.399609
	C196	C	0.595477	0.404549	0.089620
	C197	C	0.596369	0.605830	0.900902
	C198	C	0.399804	0.599463	0.091616
	C199	C	0.394902	0.404857	0.902208
	C200	C	0.091853	0.608524	0.395126
	C201	C	0.901956	0.602778	0.593612
	C202	C	0.091558	0.407096	0.597744
	C203	C	0.902474	0.406629	0.398356
	C204	C	0.897648	0.599596	0.093334
	C205	C	0.093584	0.409045	0.097879
	C206	C	0.095638	0.598026	0.898077
	C207	C	0.894719	0.408515	0.897287
	C208	C	0.096090	0.906340	0.591020
	C209	C	0.098127	0.108536	0.402567
	C210	C	0.899525	0.102085	0.591327
	C211	C	0.895975	0.908027	0.401787
	C212	C	0.591838	0.105960	0.896897
	C213	C	0.403494	0.099299	0.093669
	C214	C	0.592451	0.903415	0.099487
	C215	C	0.402578	0.904199	0.898528
	Zn216	Zn	0.498117	0.004128	0.747650
	Zn217	Zn	0.497553	0.002619	0.248073
	Zn218	Zn	0.746231	0.504548	-0.005231
	Zn219	Zn	0.245945	0.503014	-0.001819
	Zn220	Zn	-0.003479	0.756304	0.495404
	Zn221	Zn	-0.002202	0.256171	0.497612
	Zn222	Zn	-0.004369	0.504436	0.746768
	Zn223	Zn	-0.003182	0.506311	0.246164
	Zn224	Zn	0.498139	0.753589	-0.002663
	Zn225	Zn	0.496409	0.253675	-0.004562
	Zn226	Zn	0.746556	0.005032	0.497382
	Zn227	Zn	0.247594	0.005976	0.496720
	N228	N	0.411727	0.967038	0.675879
	N229	N	0.583531	0.041604	0.675362
	N230	N	0.582137	0.966771	0.320716
	N231	N	0.409874	0.040351	0.315931
	N232	N	0.673817	0.419200	0.958165
	N233	N	0.676744	0.590683	0.032000
	N234	N	0.319010	0.588571	0.960459
	N235	N	0.316681	0.415118	0.034122
	N236	N	0.959720	0.685306	0.408779
	N237	N	0.033864	0.682841	0.579540
	N238	N	0.960918	0.324838	0.584312
	N239	N	0.034571	0.329969	0.413015
	N240	N	0.959470	0.418510	0.675103
	N241	N	0.032453	0.592049	0.675297
	N242	N	0.960499	0.593914	0.315002
	N243	N	0.033881	0.421468	0.319040
	N244	N	0.412416	0.681438	0.960076
	N245	N	0.583908	0.681699	0.033722
	N246	N	0.580301	0.327828	0.957731
	N247	N	0.409226	0.322514	0.033023
	N248	N	0.674178	0.967615	0.412635
	N249	N	0.676676	0.041059	0.584113
	N250	N	0.318881	0.968002	0.582896
	N251	N	0.319810	0.042727	0.410519
	N252	N	0.909165	0.468559	0.175932
	N253	N	0.080934	0.542503	0.172379
	N254	N	0.080965	0.466835	0.819189
	N255	N	0.909643	0.540663	0.816884
	N256	N	0.174296	0.921606	0.459608
	N257	N	0.179218	0.093977	0.533600
	N258	N	0.818575	0.091603	0.460208
	N259	N	0.818717	0.919137	0.533980
	N260	N	0.459504	0.182892	0.909449
	N261	N	0.534136	0.181571	0.081372
	N262	N	0.460952	0.822097	0.085060
	N263	N	0.534611	0.827401	0.913299
	N264	N	0.460438	0.915303	0.177664
	N265	N	0.534922	0.087607	0.174097
	N266	N	0.460608	0.090619	0.817162
	N267	N	0.534406	0.919337	0.820575
	N268	N	0.913684	0.182651	0.459376
	N269	N	0.084397	0.184774	0.534934
	N270	N	0.080842	0.830434	0.458512
	N271	N	0.909807	0.825598	0.532683
	N272	N	0.173466	0.465875	0.912728
	N273	N	0.177137	0.539285	0.085053
	N274	N	0.818073	0.467245	0.080825
	N275	N	0.817694	0.540983	0.908708
	O276	O	-0.027734	-0.042304	-0.043087
	H277	H	-0.031678	-0.037452	-0.046373
	H278	H	-0.027202	-0.046118	-0.041700
	O279	O	0.530175	0.399059	0.347597
	H280	H	0.523598	0.403981	0.346283
	H281	H	0.536936	0.396327	0.344548
	O282	O	0.471769	0.422075	0.594948
	H283	H	0.477555	0.426956	0.588330
	H284	H	0.472885	0.417965	0.580298
	O285	O	-0.051154	0.958693	1.003294
	H286	H	-0.058641	0.951689	0.992009
	H287	H	-0.052543	0.955951	1.005861
	O288	O	0.550006	0.543350	0.585410
	H289	H	0.557776	0.534645	0.585579
	H290	H	0.538568	0.525106	0.588342
	O291	O	0.984895	1.058342	0.941527
	H292	H	0.976660	1.067138	0.946845
	H293	H	0.974227	1.052742	0.949679
	O294	O	1.014932	0.967792	0.976632
	H295	H	1.026161	0.966379	0.976990
	H296	H	1.021248	0.958756	0.982485
	O297	O	1.007260	0.033129	1.095367
	H298	H	1.011101	0.023912	1.098380
	H299	H	1.005352	0.032908	1.088498
	O300	O	0.568970	0.497456	0.483644
	H301	H	0.563030	0.504815	0.492717
	H302	H	0.581507	0.499644	0.487963
	O303	O	1.008541	-0.060976	0.090558
	H304	H	1.021081	-0.059846	0.086925
	H305	H	1.014602	-0.061173	0.070103
	O306	O	-0.004536	0.988441	0.957488
	H307	H	-0.011976	0.998980	0.952915
	H308	H	-0.008120	0.984734	0.965864
	O309	O	0.441124	0.430699	0.434070
	H310	H	0.447895	0.436354	0.441075
	H311	H	0.443087	0.427549	0.441867
	O312	O	0.932940	-0.071706	1.026936
	H313	H	0.943660	-0.081987	1.037462
	H314	H	0.948391	-0.071803	1.025090
	O315	O	0.491233	0.478576	0.478710
	H316	H	0.496650	0.482436	0.485580
	H317	H	0.496557	0.466666	0.477626
	O318	O	0.459606	0.516862	0.321640
	H319	H	0.455261	0.519885	0.310591
	H320	H	0.461870	0.515491	0.324403
	O321	O	0.986529	1.020864	1.024840
	H322	H	0.985667	1.020018	1.031848
	H323	H	0.982759	1.016781	1.031635
	O324	O	0.443088	0.524780	0.487620
	H325	H	0.439000	0.513818	0.487630
	H326	H	0.439789	0.528772	0.490678
	O327	O	0.511139	0.589092	0.553112
	H328	H	0.515264	0.582688	0.541541
	H329	H	0.509271	0.583328	0.556408
	O330	O	1.085407	0.012999	0.998355
	H331	H	1.078773	0.022526	1.000110
	H332	H	1.089078	0.009493	1.001718
	O333	O	1.040739	0.956705	-0.031642
	H334	H	1.043790	0.954569	-0.027810
	H335	H	1.041140	0.959088	-0.038378
	O336	O	0.543936	0.541959	0.469535
	H337	H	0.543314	0.534526	0.473950
	H338	H	0.544110	0.555714	0.464436
	O339	O	0.554603	0.500624	0.450340
	H340	H	0.551498	0.500323	0.455783
	H341	H	0.555048	0.508428	0.449964
	O342	O	-0.031859	0.963955	-0.046105
	H343	H	-0.029546	0.955132	-0.045569
	H344	H	-0.029468	0.969074	-0.041757
	O345	O	0.029380	-0.051095	0.082388
	H346	H	0.029849	-0.047219	0.084425
	H347	H	0.022858	-0.039136	0.084523
	O348	O	0.371525	0.467253	0.530835
	H349	H	0.378233	0.456457	0.535795
	H350	H	0.359758	0.455678	0.536722
	O351	O	0.593809	0.437714	0.558231
	H352	H	0.599442	0.441520	0.568242
	H353	H	0.593686	0.429760	0.553131
	O354	O	0.513169	0.478727	0.621943
	H355	H	0.512854	0.473772	0.609797
	H356	H	0.502934	0.473130	0.631032
	O357	O	0.376453	0.397023	0.584054
	H358	H	0.382369	0.409241	0.579736
	H359	H	0.368688	0.385462	0.593576
	O360	O	-0.069908	0.112757	0.008968
	H361	H	-0.074579	0.104999	0.013711
	H362	H	-0.068256	0.113853	0.002987
	O363	O	0.531059	0.618620	0.502096
	H364	H	0.523661	0.633919	0.502987
	H365	H	0.526308	0.620281	0.503734
	O366	O	0.058963	-0.057843	0.879194
	H367	H	0.053627	-0.049645	0.873807
	H368	H	0.048021	-0.051152	0.877455
	O369	O	0.530852	0.508679	0.400421
	H370	H	0.519118	0.511934	0.409723
	H371	H	0.525169	0.506585	0.390630
