data_Molecule from HDF5

_cell_length_a		16.302431
_cell_length_b		16.292740
_cell_length_c		16.304594
_cell_angle_alpha	90.075254
_cell_angle_beta	89.845601
_cell_angle_gamma	89.975105
_symmetry_space_group_name_H-M	'P 1'
_symmetry_Int_Tables_number		1

loop_
	_symmetry_equiv_pos_as_xyz
	x,y,z

loop_
	_atom_site_label
	_atom_site_type_symbol
	_atom_site_fract_x
	_atom_site_fract_y
	_atom_site_fract_z
	H0	H	0.401402	0.836422	0.714158
	H1	H	0.597424	0.163881	0.714246
	H2	H	0.598402	0.836109	0.285568
	H3	H	0.402600	0.164168	0.287173
	H4	H	0.714313	0.401467	0.836487
	H5	H	0.712857	0.596791	0.164099
	H6	H	0.286024	0.597726	0.836537
	H7	H	0.284552	0.400604	0.162938
	H8	H	0.835965	0.714942	0.402285
	H9	H	0.163254	0.714932	0.598218
	H10	H	0.836788	0.286518	0.597884
	H11	H	0.163293	0.286081	0.401210
	H12	H	0.837084	0.403193	0.714310
	H13	H	0.163361	0.599181	0.714934
	H14	H	0.835742	0.598579	0.286164
	H15	H	0.163250	0.402486	0.284742
	H16	H	0.402015	0.714355	0.836975
	H17	H	0.597434	0.713454	0.163657
	H18	H	0.599064	0.284696	0.837005
	H19	H	0.402295	0.285890	0.163659
	H20	H	0.714324	0.836531	0.402110
	H21	H	0.713807	0.163341	0.597616
	H22	H	0.285879	0.835994	0.597001
	H23	H	0.287122	0.163886	0.403383
	H24	H	0.902175	0.336405	0.213513
	H25	H	0.097508	0.663914	0.213928
	H26	H	0.098719	0.336421	0.784855
	H27	H	0.901595	0.663855	0.786284
	H28	H	0.215430	0.901991	0.336741
	H29	H	0.213518	0.097699	0.663801
	H30	H	0.785229	0.098003	0.336626
	H31	H	0.785207	0.901755	0.663317
	H32	H	0.336656	0.214804	0.902719
	H33	H	0.663787	0.213959	0.098072
	H34	H	0.336157	0.786095	0.098789
	H35	H	0.663697	0.786182	0.902483
	H36	H	0.335906	0.903141	0.213964
	H37	H	0.663675	0.097675	0.214062
	H38	H	0.336002	0.098306	0.787256
	H39	H	0.663276	0.901640	0.785068
	H40	H	0.902275	0.213745	0.335952
	H41	H	0.098335	0.214517	0.663783
	H42	H	0.097917	0.786572	0.335967
	H43	H	0.901812	0.787350	0.663468
	H44	H	0.215478	0.336217	0.900269
	H45	H	0.214762	0.663722	0.097883
	H46	H	0.785867	0.336637	0.097989
	H47	H	0.785802	0.663218	0.903540
	H48	H	0.403517	0.119064	0.600237
	H49	H	0.587805	0.885347	0.591736
	H50	H	0.594205	0.119175	0.399363
	H51	H	0.406029	0.883091	0.405724
	H52	H	0.590157	0.404613	0.116174
	H53	H	0.592885	0.599609	0.882105
	H54	H	0.399454	0.591709	0.118362
	H55	H	0.398504	0.411628	0.882443
	H56	H	0.115788	0.586458	0.398369
	H57	H	0.880545	0.597885	0.598875
	H58	H	0.115592	0.404419	0.586720
	H59	H	0.882343	0.398429	0.410946
	H60	H	0.115981	0.412409	0.594100
	H61	H	0.884949	0.596168	0.586664
	H62	H	0.119500	0.603522	0.404995
	H63	H	0.886590	0.413965	0.411026
	H64	H	0.410598	0.587503	0.113906
	H65	H	0.600166	0.591335	0.882779
	H66	H	0.595662	0.404884	0.118114
	H67	H	0.416762	0.411506	0.887473
	H68	H	0.585536	0.113547	0.409190
	H69	H	0.597010	0.883517	0.589010
	H70	H	0.413350	0.114363	0.593871
	H71	H	0.407625	0.883771	0.406227
	H72	H	0.912537	0.619605	0.108711
	H73	H	0.088005	0.383996	0.097316
	H74	H	0.080986	0.616048	0.895968
	H75	H	0.909372	0.384369	0.910247
	H76	H	0.098395	0.917387	0.615325
	H77	H	0.087501	0.089976	0.386141
	H78	H	0.910538	0.084227	0.612146
	H79	H	0.915980	0.917387	0.389534
	H80	H	0.616153	0.090273	0.905372
	H81	H	0.379306	0.092761	0.109720
	H82	H	0.617775	0.905558	0.098156
	H83	H	0.385491	0.909457	0.910202
	H84	H	0.616781	0.902390	0.090572
	H85	H	0.381693	0.106883	0.085768
	H86	H	0.617796	0.094390	0.904565
	H87	H	0.382281	0.907593	0.903619
	H88	H	0.912950	0.103230	0.616950
	H89	H	0.093390	0.100769	0.380849
	H90	H	0.081732	0.905976	0.613149
	H91	H	0.912117	0.892836	0.380663
	H92	H	0.089938	0.610509	0.922914
	H93	H	0.091587	0.385687	0.086244
	H94	H	0.916138	0.610170	0.081791
	H95	H	0.901834	0.381531	0.906232
	H96	H	0.402742	0.116210	0.588626
	H97	H	0.593896	0.881896	0.598363
	H98	H	0.599014	0.116769	0.412239
	H99	H	0.406436	0.883475	0.407096
	H100	H	0.593077	0.410054	0.116007
	H101	H	0.589797	0.589288	0.885359
	H102	H	0.409105	0.599553	0.117659
	H103	H	0.408496	0.396081	0.880968
	H104	H	0.112048	0.590461	0.416403
	H105	H	0.885276	0.586126	0.594774
	H106	H	0.119845	0.402593	0.596886
	H107	H	0.880353	0.407056	0.397362
	H108	H	0.891157	0.620498	0.090465
	H109	H	0.099235	0.382118	0.094270
	H110	H	0.108419	0.621302	0.903345
	H111	H	0.909450	0.382657	0.900914
	H112	H	0.098352	0.897801	0.620540
	H113	H	0.100646	0.089657	0.383195
	H114	H	0.895213	0.094183	0.619700
	H115	H	0.892573	0.910647	0.380038
	H116	H	0.615328	0.092520	0.908127
	H117	H	0.389416	0.080163	0.086584
	H118	H	0.614822	0.909758	0.092257
	H119	H	0.382640	0.902493	0.908165
	C120	C	0.378408	0.008401	0.621929
	C121	C	0.621087	0.991892	0.621492
	C122	C	0.621192	0.007952	0.378912
	C123	C	0.378549	0.991500	0.378696
	C124	C	0.621715	0.377885	0.008534
	C125	C	0.621938	0.621393	0.991789
	C126	C	0.378786	0.620997	0.008322
	C127	C	0.379013	0.378154	0.991834
	C128	C	0.007601	0.621951	0.378155
	C129	C	0.991942	0.621787	0.621461
	C130	C	0.009049	0.378739	0.621071
	C131	C	0.991270	0.378735	0.378044
	C132	C	0.878362	0.508383	0.121821
	C133	C	0.121426	0.491859	0.121016
	C134	C	0.122056	0.508190	0.878367
	C135	C	0.878951	0.491511	0.878457
	C136	C	0.121344	0.878767	0.508352
	C137	C	0.121988	0.121936	0.491618
	C138	C	0.878305	0.121635	0.508231
	C139	C	0.878392	0.878770	0.491573
	C140	C	0.508397	0.121059	0.878831
	C141	C	0.491844	0.121455	0.121903
	C142	C	0.507925	0.878277	0.121874
	C143	C	0.491424	0.878262	0.878454
	C144	C	0.381105	0.884901	0.676195
	C145	C	0.618204	0.114730	0.676487
	C146	C	0.618864	0.885153	0.323508
	C147	C	0.381787	0.115127	0.324571
	C148	C	0.676665	0.380643	0.885466
	C149	C	0.675815	0.617951	0.115069
	C150	C	0.324066	0.618259	0.885248
	C151	C	0.323239	0.380613	0.114440
	C152	C	0.884616	0.676889	0.381466
	C153	C	0.114675	0.677038	0.618746
	C154	C	0.885486	0.324300	0.618481
	C155	C	0.114630	0.323950	0.380286
	C156	C	0.885726	0.382173	0.676223
	C157	C	0.114713	0.619594	0.676777
	C158	C	0.884713	0.619392	0.323470
	C159	C	0.114423	0.381821	0.322738
	C160	C	0.381461	0.676108	0.885379
	C161	C	0.618300	0.675761	0.114936
	C162	C	0.619340	0.322756	0.885549
	C163	C	0.381655	0.323649	0.114869
	C164	C	0.676369	0.885181	0.381356
	C165	C	0.675516	0.114894	0.618430
	C166	C	0.323459	0.884943	0.618587
	C167	C	0.324363	0.115197	0.382337
	C168	C	0.881108	0.385415	0.176274
	C169	C	0.118313	0.615188	0.175760
	C170	C	0.119377	0.385038	0.822865
	C171	C	0.881381	0.615024	0.824445
	C172	C	0.176731	0.881706	0.385241
	C173	C	0.176206	0.118708	0.614928
	C174	C	0.823164	0.118782	0.385327
	C175	C	0.822891	0.881252	0.614581
	C176	C	0.385173	0.176329	0.882218
	C177	C	0.615138	0.175911	0.118444
	C178	C	0.384818	0.823829	0.119178
	C179	C	0.615049	0.823932	0.881671
	C180	C	0.384761	0.881876	0.176420
	C181	C	0.615067	0.118389	0.176313
	C182	C	0.384692	0.118564	0.824941
	C183	C	0.614445	0.880652	0.822937
	C184	C	0.881234	0.176248	0.384915
	C185	C	0.118787	0.176622	0.614864
	C186	C	0.118883	0.823973	0.385033
	C187	C	0.880709	0.824185	0.614607
	C188	C	0.177330	0.385088	0.880364
	C189	C	0.176378	0.615044	0.118140
	C190	C	0.823553	0.385329	0.118652
	C191	C	0.823747	0.614640	0.882214
	C192	C	0.400012	0.094256	0.600553
	C193	C	0.599315	0.905643	0.599423
	C194	C	0.599313	0.094195	0.400819
	C195	C	0.400242	0.905622	0.400153
	C196	C	0.599556	0.399973	0.094534
	C197	C	0.600546	0.599711	0.905636
	C198	C	0.400063	0.599373	0.094332
	C199	C	0.401343	0.399986	0.905723
	C200	C	0.093612	0.599885	0.400087
	C201	C	0.905799	0.599957	0.599808
	C202	C	0.094929	0.400185	0.599059
	C203	C	0.905265	0.400169	0.400120
	C204	C	0.900237	0.594572	0.099993
	C205	C	0.099458	0.405933	0.099198
	C206	C	0.099679	0.593881	0.900628
	C207	C	0.900517	0.405332	0.899422
	C208	C	0.099326	0.900576	0.594184
	C209	C	0.100378	0.099884	0.405533
	C210	C	0.900007	0.100246	0.594190
	C211	C	0.900365	0.900502	0.405587
	C212	C	0.594283	0.098902	0.899894
	C213	C	0.405750	0.099844	0.100299
	C214	C	0.594262	0.899447	0.100070
	C215	C	0.405640	0.900084	0.900670
	Zn216	Zn	0.499475	-0.000001	0.750162
	Zn217	Zn	0.499730	0.000451	0.250284
	Zn218	Zn	0.750326	0.499513	0.000201
	Zn219	Zn	0.250641	0.499625	-0.000383
	Zn220	Zn	-0.000379	0.750449	0.499892
	Zn221	Zn	0.000167	0.250155	0.499618
	Zn222	Zn	0.000556	0.500275	0.749631
	Zn223	Zn	-0.000731	0.500398	0.249840
	Zn224	Zn	0.499794	0.749726	0.000108
	Zn225	Zn	0.500359	0.249516	0.000045
	Zn226	Zn	0.749917	-0.000298	0.499986
	Zn227	Zn	0.250272	0.000156	0.500247
	N228	N	0.414309	0.962463	0.678527
	N229	N	0.585069	0.037062	0.678373
	N230	N	0.585237	0.962616	0.321906
	N231	N	0.414554	0.037356	0.322179
	N232	N	0.678222	0.414215	0.962978
	N233	N	0.678152	0.584742	0.037403
	N234	N	0.322357	0.584590	0.962657
	N235	N	0.321740	0.413790	0.036900
	N236	N	0.962173	0.678553	0.414729
	N237	N	0.037186	0.678619	0.585382
	N238	N	0.962973	0.322171	0.584839
	N239	N	0.037115	0.321677	0.414015
	N240	N	0.963402	0.415248	0.677887
	N241	N	0.037364	0.585786	0.678390
	N242	N	0.962317	0.585940	0.321560
	N243	N	0.036845	0.415062	0.321348
	N244	N	0.414923	0.677667	0.962730
	N245	N	0.585515	0.678049	0.037355
	N246	N	0.585723	0.321047	0.963106
	N247	N	0.415674	0.322082	0.037457
	N248	N	0.677924	0.962666	0.415001
	N249	N	0.677497	0.037342	0.584970
	N250	N	0.321809	0.962577	0.585263
	N251	N	0.322053	0.037312	0.415216
	N252	N	0.914441	0.462969	0.178056
	N253	N	0.084699	0.537760	0.177592
	N254	N	0.085763	0.462690	0.821360
	N255	N	0.914829	0.537434	0.821726
	N256	N	0.178448	0.915007	0.462829
	N257	N	0.178202	0.085258	0.537321
	N258	N	0.821460	0.085388	0.462882
	N259	N	0.821380	0.914405	0.537135
	N260	N	0.462904	0.177967	0.915126
	N261	N	0.537383	0.178090	0.085548
	N262	N	0.462590	0.821523	0.085900
	N263	N	0.537436	0.821935	0.915187
	N264	N	0.462379	0.914879	0.178289
	N265	N	0.537451	0.085376	0.178473
	N266	N	0.462149	0.084916	0.822640
	N267	N	0.536943	0.914172	0.821286
	N268	N	0.914744	0.178325	0.462333
	N269	N	0.086056	0.178800	0.537164
	N270	N	0.085094	0.822069	0.462518
	N271	N	0.914677	0.822641	0.537226
	N272	N	0.178996	0.462414	0.914142
	N273	N	0.178332	0.537328	0.084726
	N274	N	0.821805	0.462979	0.085451
	N275	N	0.822168	0.536888	0.915073
