data_Molecule from HDF5

_cell_length_a		16.475516
_cell_length_b		16.136891
_cell_length_c		16.275202
_cell_angle_alpha	90.160611
_cell_angle_beta	89.972362
_cell_angle_gamma	90.169464
_symmetry_space_group_name_H-M	'P 1'
_symmetry_Int_Tables_number		1

loop_
	_symmetry_equiv_pos_as_xyz
	x,y,z

loop_
	_atom_site_label
	_atom_site_type_symbol
	_atom_site_fract_x
	_atom_site_fract_y
	_atom_site_fract_z
	H0	H	0.400285	0.834985	0.712051
	H1	H	0.601625	0.161864	0.712182
	H2	H	0.601545	0.834515	0.280122
	H3	H	0.398602	0.161075	0.281751
	H4	H	0.716211	0.394546	0.835664
	H5	H	0.716955	0.604188	0.158537
	H6	H	0.277280	0.604241	0.836025
	H7	H	0.276728	0.393748	0.157269
	H8	H	0.836371	0.714397	0.399163
	H9	H	0.159317	0.715763	0.599361
	H10	H	0.836124	0.282764	0.594205
	H11	H	0.159575	0.282553	0.397060
	H12	H	0.837166	0.395256	0.714837
	H13	H	0.158020	0.601489	0.717995
	H14	H	0.836809	0.600324	0.278795
	H15	H	0.156821	0.394831	0.276755
	H16	H	0.401150	0.711316	0.832519
	H17	H	0.596261	0.714290	0.160246
	H18	H	0.594626	0.284682	0.832767
	H19	H	0.396441	0.281787	0.158500
	H20	H	0.717307	0.835394	0.394849
	H21	H	0.716951	0.160457	0.601377
	H22	H	0.281156	0.835914	0.601650
	H23	H	0.278227	0.158558	0.390304
	H24	H	0.895415	0.334320	0.211508
	H25	H	0.096522	0.662048	0.212300
	H26	H	0.096305	0.334854	0.782913
	H27	H	0.897877	0.661898	0.781984
	H28	H	0.220442	0.889405	0.337566
	H29	H	0.219228	0.103329	0.658510
	H30	H	0.778116	0.104371	0.337635
	H31	H	0.779725	0.894877	0.659496
	H32	H	0.338092	0.217437	0.892282
	H33	H	0.657526	0.218811	0.097967
	H34	H	0.337513	0.782152	0.096578
	H35	H	0.660152	0.781017	0.895724
	H36	H	0.339712	0.892162	0.217997
	H37	H	0.657470	0.104330	0.216580
	H38	H	0.340507	0.103069	0.773996
	H39	H	0.660919	0.897774	0.778944
	H40	H	0.901412	0.210639	0.334085
	H41	H	0.097497	0.213751	0.661159
	H42	H	0.097520	0.781418	0.334470
	H43	H	0.900308	0.783665	0.660938
	H44	H	0.217038	0.338058	0.890133
	H45	H	0.216572	0.660614	0.103297
	H46	H	0.777982	0.335994	0.100154
	H47	H	0.781343	0.661733	0.894958
	H48	H	0.413697	0.116205	0.591329
	H49	H	0.599644	0.879491	0.581967
	H50	H	0.593738	0.115069	0.407508
	H51	H	0.404267	0.880400	0.410330
	H52	H	0.583363	0.411114	0.109372
	H53	H	0.589341	0.593499	0.879792
	H54	H	0.406887	0.580882	0.109044
	H55	H	0.406363	0.411114	0.882060
	H56	H	0.111255	0.582632	0.396117
	H57	H	0.884054	0.590364	0.589815
	H58	H	0.112185	0.399552	0.581725
	H59	H	0.884966	0.409994	0.405475
	H60	H	0.108515	0.417891	0.589929
	H61	H	0.884838	0.588221	0.590051
	H62	H	0.114489	0.597653	0.404736
	H63	H	0.881746	0.403424	0.398654
	H64	H	0.410736	0.595324	0.113038
	H65	H	0.596541	0.587811	0.879461
	H66	H	0.589955	0.404876	0.114153
	H67	H	0.406391	0.409237	0.881270
	H68	H	0.587993	0.114323	0.404827
	H69	H	0.590658	0.877124	0.597069
	H70	H	0.411620	0.111442	0.578508
	H71	H	0.412130	0.881577	0.403014
	H72	H	0.902948	0.613630	0.082122
	H73	H	0.093576	0.379856	0.087585
	H74	H	0.080901	0.613159	0.908686
	H75	H	0.904475	0.378656	0.900474
	H76	H	0.096779	0.909279	0.614339
	H77	H	0.091497	0.083629	0.383206
	H78	H	0.913884	0.095752	0.613688
	H79	H	0.911937	0.899201	0.380981
	H80	H	0.611696	0.099154	0.913910
	H81	H	0.379709	0.097430	0.093263
	H82	H	0.612763	0.906536	0.086368
	H83	H	0.384346	0.906230	0.900593
	H84	H	0.612063	0.910056	0.088902
	H85	H	0.387973	0.087917	0.076615
	H86	H	0.608965	0.079227	0.906180
	H87	H	0.384700	0.905218	0.905001
	H88	H	0.897081	0.091689	0.617576
	H89	H	0.088470	0.090350	0.382685
	H90	H	0.088646	0.912625	0.611217
	H91	H	0.896762	0.907541	0.378877
	H92	H	0.091117	0.614790	0.915017
	H93	H	0.083744	0.382470	0.089259
	H94	H	0.902778	0.617721	0.092432
	H95	H	0.909969	0.384408	0.910013
	H96	H	0.401790	0.117237	0.585652
	H97	H	0.583523	0.885037	0.582936
	H98	H	0.589393	0.113245	0.410616
	H99	H	0.413968	0.885162	0.412689
	H100	H	0.592377	0.414280	0.112328
	H101	H	0.588778	0.585148	0.882264
	H102	H	0.396823	0.590324	0.114701
	H103	H	0.405061	0.410270	0.880530
	H104	H	0.107466	0.583704	0.413247
	H105	H	0.883955	0.589155	0.591422
	H106	H	0.116639	0.403156	0.601497
	H107	H	0.883296	0.400640	0.408655
	H108	H	0.912072	0.612941	0.088818
	H109	H	0.087628	0.384156	0.079439
	H110	H	0.090710	0.617579	0.903293
	H111	H	0.898630	0.380209	0.910808
	H112	H	0.089486	0.903527	0.613737
	H113	H	0.094297	0.088833	0.380914
	H114	H	0.908294	0.079245	0.609969
	H115	H	0.910516	0.915863	0.386458
	H116	H	0.617189	0.094879	0.893592
	H117	H	0.385761	0.077797	0.094942
	H118	H	0.614303	0.906882	0.090055
	H119	H	0.385510	0.909719	0.903152
	C120	C	0.379057	0.006928	0.616961
	C121	C	0.620794	0.989049	0.617622
	C122	C	0.621142	0.006745	0.376422
	C123	C	0.378787	0.989213	0.376359
	C124	C	0.618280	0.378414	0.004942
	C125	C	0.620207	0.619792	0.988471
	C126	C	0.375364	0.619960	0.005308
	C127	C	0.375002	0.378008	0.987767
	C128	C	0.005359	0.618843	0.375487
	C129	C	0.989944	0.620317	0.621111
	C130	C	0.006213	0.376011	0.620007
	C131	C	0.989268	0.375190	0.374246
	C132	C	0.875393	0.507193	0.118114
	C133	C	0.118497	0.489798	0.117413
	C134	C	0.117902	0.507579	0.877321
	C135	C	0.875585	0.489310	0.876490
	C136	C	0.121209	0.876388	0.506101
	C137	C	0.121197	0.119166	0.489272
	C138	C	0.877115	0.118996	0.506327
	C139	C	0.876833	0.877345	0.489093
	C140	C	0.507120	0.120965	0.873499
	C141	C	0.489871	0.120391	0.118740
	C142	C	0.507166	0.876478	0.118988
	C143	C	0.491237	0.876857	0.873638
	C144	C	0.380165	0.884081	0.674054
	C145	C	0.620683	0.112627	0.674282
	C146	C	0.620892	0.883759	0.318652
	C147	C	0.378459	0.111775	0.318764
	C148	C	0.676433	0.376597	0.883560
	C149	C	0.677435	0.621754	0.110354
	C150	C	0.317552	0.621487	0.883818
	C151	C	0.316605	0.375941	0.109073
	C152	C	0.884548	0.676237	0.377787
	C153	C	0.110910	0.677372	0.619497
	C154	C	0.884911	0.319952	0.616150
	C155	C	0.110923	0.319757	0.376166
	C156	C	0.885338	0.376230	0.676051
	C157	C	0.110421	0.620143	0.678492
	C158	C	0.884568	0.619056	0.318352
	C159	C	0.109639	0.375775	0.316383
	C160	C	0.378745	0.675153	0.882089
	C161	C	0.617246	0.676530	0.111252
	C162	C	0.615921	0.322050	0.882088
	C163	C	0.375806	0.319907	0.109673
	C164	C	0.678403	0.884105	0.375914
	C165	C	0.678161	0.112003	0.619304
	C166	C	0.320942	0.884444	0.619060
	C167	C	0.319050	0.110606	0.373555
	C168	C	0.876115	0.383627	0.173945
	C169	C	0.117372	0.612701	0.174954
	C170	C	0.116731	0.384142	0.820423
	C171	C	0.877376	0.612734	0.819721
	C172	C	0.179657	0.873230	0.384973
	C173	C	0.179307	0.121294	0.610640
	C174	C	0.819029	0.120704	0.385062
	C175	C	0.819110	0.876291	0.611067
	C176	C	0.386394	0.178619	0.872947
	C177	C	0.609695	0.179689	0.117697
	C178	C	0.386185	0.819492	0.117487
	C179	C	0.612210	0.819730	0.875609
	C180	C	0.387364	0.874641	0.177890
	C181	C	0.609698	0.122668	0.176806
	C182	C	0.387605	0.121612	0.814002
	C183	C	0.612482	0.877762	0.817395
	C184	C	0.880419	0.173958	0.383426
	C185	C	0.118835	0.176381	0.611809
	C186	C	0.118774	0.818955	0.383747
	C187	C	0.878906	0.820778	0.611869
	C188	C	0.176893	0.385971	0.873903
	C189	C	0.176823	0.612047	0.120308
	C190	C	0.817453	0.384511	0.118643
	C191	C	0.819726	0.612686	0.876253
	C192	C	0.402260	0.092585	0.592260
	C193	C	0.597848	0.902931	0.594125
	C194	C	0.597286	0.092070	0.400641
	C195	C	0.403011	0.904359	0.401245
	C196	C	0.595320	0.402851	0.089915
	C197	C	0.598082	0.595870	0.902959
	C198	C	0.398164	0.595992	0.090215
	C199	C	0.398881	0.402934	0.903209
	C200	C	0.089318	0.594950	0.398011
	C201	C	0.905904	0.596147	0.597458
	C202	C	0.090712	0.399944	0.597644
	C203	C	0.905232	0.397865	0.397318
	C204	C	0.899108	0.592673	0.094742
	C205	C	0.095043	0.404333	0.092563
	C206	C	0.094399	0.592909	0.901804
	C207	C	0.897964	0.403431	0.899993
	C208	C	0.098497	0.901384	0.590932
	C209	C	0.098245	0.094658	0.404241
	C210	C	0.899818	0.095504	0.591719
	C211	C	0.899703	0.900768	0.404080
	C212	C	0.590780	0.097890	0.897617
	C213	C	0.406142	0.095136	0.094982
	C214	C	0.591246	0.900849	0.095411
	C215	C	0.406867	0.900094	0.896245
	Zn216	Zn	0.500653	-0.000953	0.744269
	Zn217	Zn	0.499249	-0.001804	0.248260
	Zn218	Zn	0.748055	0.499004	-0.002716
	Zn219	Zn	0.246286	0.499212	-0.003087
	Zn220	Zn	-0.001660	0.749002	0.497796
	Zn221	Zn	-0.001387	0.246869	0.497227
	Zn222	Zn	-0.002454	0.497855	0.750080
	Zn223	Zn	-0.003019	0.497583	0.245118
	Zn224	Zn	0.498309	0.747607	-0.003954
	Zn225	Zn	0.497078	0.249946	-0.004056
	Zn226	Zn	0.748070	-0.001089	0.498383
	Zn227	Zn	0.250548	-0.002192	0.497433
	N228	N	0.415622	0.961340	0.673015
	N229	N	0.585690	0.035234	0.673511
	N230	N	0.585903	0.961044	0.318707
	N231	N	0.415111	0.035420	0.320714
	N232	N	0.678027	0.410986	0.961088
	N233	N	0.679636	0.587445	0.032768
	N234	N	0.315272	0.588141	0.961511
	N235	N	0.315835	0.411066	0.032105
	N236	N	0.960516	0.676369	0.412520
	N237	N	0.034893	0.677565	0.584449
	N238	N	0.961108	0.319649	0.582011
	N239	N	0.035243	0.319250	0.411555
	N240	N	0.961885	0.410331	0.678430
	N241	N	0.034189	0.585437	0.679589
	N242	N	0.960624	0.584092	0.316899
	N243	N	0.033105	0.409494	0.314997
	N244	N	0.414027	0.674599	0.958647
	N245	N	0.582480	0.675261	0.034594
	N246	N	0.580474	0.323109	0.958582
	N247	N	0.411365	0.320952	0.033257
	N248	N	0.678607	0.961613	0.411105
	N249	N	0.678270	0.034178	0.584693
	N250	N	0.320196	0.961976	0.584373
	N251	N	0.318840	0.033151	0.408572
	N252	N	0.911524	0.460821	0.173821
	N253	N	0.081833	0.535510	0.173419
	N254	N	0.080652	0.460841	0.822417
	N255	N	0.911513	0.535102	0.819922
	N256	N	0.181143	0.908656	0.461936
	N257	N	0.181057	0.086612	0.533265
	N258	N	0.817029	0.087269	0.462634
	N259	N	0.817644	0.910665	0.533846
	N260	N	0.461482	0.178323	0.909373
	N261	N	0.533805	0.178465	0.082501
	N262	N	0.461697	0.820295	0.081639
	N263	N	0.535812	0.819003	0.909884
	N264	N	0.463719	0.909454	0.178901
	N265	N	0.534260	0.086416	0.177541
	N266	N	0.463512	0.086305	0.814313
	N267	N	0.536397	0.912495	0.816132
	N268	N	0.916037	0.172848	0.459787
	N269	N	0.083498	0.175175	0.535291
	N270	N	0.083068	0.820888	0.460046
	N271	N	0.914226	0.821299	0.535230
	N272	N	0.177602	0.463705	0.908692
	N273	N	0.177660	0.534378	0.085335
	N274	N	0.816884	0.462334	0.084444
	N275	N	0.818526	0.535084	0.910957
	O276	O	0.094011	-0.046576	0.027229
	H277	H	0.089528	-0.035567	0.032284
	H278	H	0.081361	-0.031739	0.023312
	O279	O	0.451755	0.631182	0.497003
	H280	H	0.448972	0.638205	0.490507
	H281	H	0.453932	0.632844	0.502013
	O282	O	0.878156	0.044203	0.037818
	H283	H	0.867034	0.043554	0.025669
	H284	H	0.875005	0.040538	0.027609
	O285	O	-0.024468	1.145642	-0.023930
	H286	H	-0.045781	1.148134	-0.013361
	H287	H	-0.019230	1.124165	-0.021081
	O288	O	0.493650	0.465340	0.493841
	H289	H	0.497651	0.459920	0.483778
	H290	H	0.481106	0.470844	0.498923
	O291	O	1.003947	0.029107	1.129878
	H292	H	1.006326	0.039711	1.133135
	H293	H	0.995803	0.030783	1.143450
	O294	O	0.868054	0.938763	0.966755
	H295	H	0.866125	0.920941	0.963895
	H296	H	0.891184	0.949068	0.968916
	O297	O	0.174070	-0.098557	0.025318
	H298	H	0.176941	-0.085571	0.024052
	H299	H	0.174534	-0.097164	0.021656
	O300	O	0.575210	0.434977	0.509015
	H301	H	0.576722	0.432410	0.495740
	H302	H	0.579792	0.431316	0.513432
	O303	O	-0.044149	0.921860	1.021958
	H304	H	-0.045762	0.909385	1.026868
	H305	H	-0.043327	0.921221	1.023724
	O306	O	0.517583	0.382096	0.423238
	H307	H	0.507374	0.390377	0.414761
	H308	H	0.521983	0.375921	0.426303
	O309	O	1.070705	-0.048479	-0.061987
	H310	H	1.077552	-0.045928	-0.055654
	H311	H	1.076331	-0.043862	-0.079587
	O312	O	-0.085601	-0.131779	1.099007
	H313	H	-0.086601	-0.137543	1.084706
	H314	H	-0.090971	-0.139996	1.100047
	O315	O	0.392025	0.360592	0.581256
	H316	H	0.377008	0.356413	0.591803
	H317	H	0.382328	0.366485	0.578967
	O318	O	0.581068	0.447894	0.412651
	H319	H	0.564939	0.457374	0.402805
	H320	H	0.593473	0.461564	0.396021
	O321	O	0.495786	0.352430	0.395099
	H322	H	0.492101	0.357481	0.397878
	H323	H	0.480927	0.346185	0.394430
	O324	O	0.529461	0.508626	0.652868
	H325	H	0.531016	0.520887	0.660999
	H326	H	0.529990	0.495362	0.653526
	O327	O	0.000682	1.020232	0.958427
	H328	H	0.016426	1.021808	0.956494
	H329	H	0.012465	1.013750	0.964546
	O330	O	0.522347	0.523376	0.310466
	H331	H	0.504892	0.535604	0.297388
	H332	H	0.511101	0.523302	0.310154
	O333	O	0.202062	1.125655	1.119839
	H334	H	0.178584	1.111849	1.136286
	H335	H	0.230268	1.144412	1.131146
	O336	O	0.905216	1.022224	0.889445
	H337	H	0.906745	1.038338	0.879572
	H338	H	0.898310	1.024606	0.886038
	O339	O	0.561781	0.511624	0.559864
	H340	H	0.557141	0.506506	0.581223
	H341	H	0.577825	0.502619	0.559933
	O342	O	1.167969	-0.055562	-0.105800
	H343	H	1.163279	-0.050890	-0.113155
	H344	H	1.185661	-0.044833	-0.109565
	O345	O	-0.062656	1.051228	0.156791
	H346	H	-0.077717	1.040694	0.164980
	H347	H	-0.069286	1.042808	0.168601
	O348	O	1.049286	1.067721	0.949479
	H349	H	1.049191	1.076215	0.957582
	H350	H	1.048411	1.079315	0.950444
	O351	O	0.893167	1.057280	0.003360
	H352	H	0.888829	1.046072	-0.005853
	H353	H	0.870834	1.063642	0.018808
	O354	O	0.492873	0.487696	0.490023
	H355	H	0.497761	0.482959	0.489814
	H356	H	0.487014	0.482704	0.486187
	O357	O	0.382629	0.544876	0.559118
	H358	H	0.394717	0.537282	0.563629
	H359	H	0.382035	0.544246	0.569441
	O360	O	-0.043745	-0.124817	0.052114
	H361	H	-0.039333	-0.122274	0.047183
	H362	H	-0.039550	-0.117677	0.042955
	O363	O	0.486724	0.614917	0.493871
	H364	H	0.479932	0.604544	0.492944
	H365	H	0.484180	0.615071	0.491016
	O366	O	0.441242	0.495671	0.420246
	H367	H	0.436508	0.519533	0.405121
	H368	H	0.444132	0.503516	0.427591
	O369	O	0.549338	0.518935	0.462340
	H370	H	0.550434	0.516343	0.446948
	H371	H	0.554279	0.515564	0.470554
	O372	O	0.425671	0.466017	0.493759
	H373	H	0.427926	0.462671	0.510099
	H374	H	0.432596	0.473124	0.500170
	O375	O	0.501131	0.530592	0.598562
	H376	H	0.504217	0.538326	0.585836
	H377	H	0.507352	0.524499	0.595115
	O378	O	0.471254	0.609004	0.475728
	H379	H	0.470988	0.613707	0.466102
	H380	H	0.464057	0.627367	0.484640
	O381	O	0.397509	0.399023	0.549476
	H382	H	0.400812	0.410024	0.551448
	H383	H	0.391166	0.386821	0.541805
	O384	O	-0.042511	1.115382	-0.003846
	H385	H	-0.044052	1.116527	0.009207
	H386	H	-0.055856	1.112191	-0.006831
	O387	O	0.938478	-0.086293	1.022714
	H388	H	0.943050	-0.082405	1.016101
	H389	H	0.942499	-0.099277	1.015547
	O390	O	-0.044570	0.892582	-0.014645
	H391	H	-0.037803	0.901814	-0.013659
	H392	H	-0.043458	0.890428	-0.025317
	O393	O	1.056130	0.978534	-0.156672
	H394	H	1.064129	0.997725	-0.156017
	H395	H	1.066784	0.971986	-0.169776
	O396	O	0.571720	0.567345	0.492820
	H397	H	0.565118	0.566922	0.487491
	H398	H	0.574323	0.564300	0.493969
	O399	O	0.051805	1.134309	1.194397
	H400	H	0.042719	1.129496	1.197304
	H401	H	0.045455	1.134145	1.191490
	O402	O	1.104076	0.995075	0.902416
	H403	H	1.094544	0.994131	0.918814
	H404	H	1.107165	0.996060	0.916383
	O405	O	0.565887	0.512341	0.484867
	H406	H	0.566670	0.499999	0.474607
	H407	H	0.567825	0.520696	0.473819
