data_Molecule from HDF5

_cell_length_a		16.528156
_cell_length_b		16.645138
_cell_length_c		16.746505
_cell_angle_alpha	90.040754
_cell_angle_beta	90.047040
_cell_angle_gamma	89.903471
_symmetry_space_group_name_H-M	'P 1'
_symmetry_Int_Tables_number		1

loop_
	_symmetry_equiv_pos_as_xyz
	x,y,z

loop_
	_atom_site_label
	_atom_site_type_symbol
	_atom_site_fract_x
	_atom_site_fract_y
	_atom_site_fract_z
	H0	H	0.397499	0.842096	0.730922
	H1	H	0.612202	0.151088	0.729888
	H2	H	0.610640	0.841406	0.285639
	H3	H	0.400584	0.152564	0.288214
	H4	H	0.727368	0.390234	0.854289
	H5	H	0.726901	0.603571	0.161044
	H6	H	0.282135	0.601428	0.853260
	H7	H	0.281317	0.390636	0.160027
	H8	H	0.848124	0.717810	0.402235
	H9	H	0.160697	0.715397	0.611395
	H10	H	0.850072	0.272232	0.616834
	H11	H	0.160257	0.277080	0.403819
	H12	H	0.848790	0.390303	0.730224
	H13	H	0.159455	0.602090	0.729386
	H14	H	0.849208	0.605731	0.284317
	H15	H	0.158859	0.389456	0.285413
	H16	H	0.396668	0.720113	0.854212
	H17	H	0.610913	0.720476	0.160880
	H18	H	0.612777	0.272436	0.854674
	H19	H	0.396643	0.272549	0.158788
	H20	H	0.724463	0.839870	0.403392
	H21	H	0.725356	0.151863	0.611546
	H22	H	0.281876	0.841956	0.614111
	H23	H	0.286235	0.153364	0.405775
	H24	H	0.894753	0.344662	0.232892
	H25	H	0.112074	0.650297	0.230754
	H26	H	0.111464	0.342265	0.784357
	H27	H	0.893239	0.650949	0.782566
	H28	H	0.224926	0.892544	0.352608
	H29	H	0.225256	0.099890	0.661785
	H30	H	0.782464	0.101907	0.353356
	H31	H	0.781185	0.889545	0.661701
	H32	H	0.349232	0.216430	0.902434
	H33	H	0.661203	0.216320	0.111676
	H34	H	0.347537	0.777887	0.111365
	H35	H	0.658133	0.771252	0.898961
	H36	H	0.347677	0.893768	0.226534
	H37	H	0.660633	0.102611	0.229056
	H38	H	0.349882	0.101696	0.785753
	H39	H	0.658609	0.885002	0.782380
	H40	H	0.895843	0.221512	0.354881
	H41	H	0.110019	0.218136	0.661346
	H42	H	0.110473	0.774735	0.353593
	H43	H	0.897486	0.773763	0.661808
	H44	H	0.224884	0.340838	0.902222
	H45	H	0.225147	0.650916	0.111839
	H46	H	0.781348	0.342871	0.113811
	H47	H	0.779183	0.651302	0.900685
	H48	H	0.416922	0.107680	0.597786
	H49	H	0.589307	0.885725	0.598102
	H50	H	0.599816	0.109884	0.417730
	H51	H	0.407423	0.882180	0.419031
	H52	H	0.590472	0.401833	0.119167
	H53	H	0.588131	0.576546	0.902095
	H54	H	0.420327	0.591079	0.117235
	H55	H	0.417943	0.410435	0.897770
	H56	H	0.118745	0.586277	0.411943
	H57	H	0.891237	0.585901	0.598360
	H58	H	0.113705	0.411867	0.595015
	H59	H	0.892039	0.407539	0.421638
	H60	H	0.116818	0.408478	0.600905
	H61	H	0.891764	0.586772	0.593645
	H62	H	0.116486	0.590219	0.422820
	H63	H	0.893677	0.412729	0.421424
	H64	H	0.409364	0.588780	0.121645
	H65	H	0.583601	0.589840	0.898519
	H66	H	0.597004	0.410508	0.119216
	H67	H	0.417236	0.403924	0.896210
	H68	H	0.590482	0.108898	0.412509
	H69	H	0.591546	0.887104	0.592233
	H70	H	0.417996	0.106566	0.596379
	H71	H	0.416534	0.882072	0.408147
	H72	H	0.922179	0.605520	0.096320
	H73	H	0.087974	0.387665	0.092870
	H74	H	0.090294	0.607266	0.918221
	H75	H	0.920533	0.387540	0.916521
	H76	H	0.099625	0.910457	0.619286
	H77	H	0.086527	0.091562	0.396683
	H78	H	0.914484	0.082091	0.616476
	H79	H	0.914930	0.907277	0.397519
	H80	H	0.618370	0.084111	0.916917
	H81	H	0.393205	0.088653	0.090671
	H82	H	0.617001	0.904150	0.091789
	H83	H	0.392005	0.903367	0.921681
	H84	H	0.614565	0.913597	0.095247
	H85	H	0.393964	0.079535	0.099459
	H86	H	0.617711	0.085540	0.919205
	H87	H	0.397597	0.915829	0.925048
	H88	H	0.920212	0.084036	0.616533
	H89	H	0.100258	0.090971	0.392547
	H90	H	0.087010	0.909410	0.614593
	H91	H	0.917071	0.906528	0.397332
	H92	H	0.090926	0.607062	0.919339
	H93	H	0.097371	0.383247	0.095314
	H94	H	0.916506	0.606215	0.090227
	H95	H	0.916256	0.388441	0.923716
	H96	H	0.416183	0.106863	0.596014
	H97	H	0.595398	0.884965	0.597259
	H98	H	0.591173	0.105347	0.421968
	H99	H	0.420562	0.887836	0.420807
	H100	H	0.587185	0.411222	0.114769
	H101	H	0.596802	0.585278	0.894783
	H102	H	0.415826	0.580466	0.115704
	H103	H	0.411877	0.408435	0.895357
	H104	H	0.114077	0.579107	0.420194
	H105	H	0.892984	0.582347	0.595747
	H106	H	0.116501	0.404908	0.594138
	H107	H	0.891318	0.410798	0.417626
	H108	H	0.914829	0.609236	0.097800
	H109	H	0.090014	0.383216	0.102882
	H110	H	0.091840	0.607931	0.918590
	H111	H	0.913128	0.384762	0.917168
	H112	H	0.093357	0.899273	0.621088
	H113	H	0.094481	0.079404	0.398761
	H114	H	0.915902	0.087620	0.619043
	H115	H	0.915506	0.905332	0.397074
	H116	H	0.617053	0.082337	0.918824
	H117	H	0.388848	0.090486	0.102288
	H118	H	0.618088	0.907007	0.101496
	H119	H	0.392183	0.913660	0.912316
	C120	C	0.383773	0.004682	0.629195
	C121	C	0.625468	0.988117	0.628404
	C122	C	0.625910	0.004946	0.385797
	C123	C	0.383880	0.987957	0.386069
	C124	C	0.625619	0.374931	0.016129
	C125	C	0.624303	0.618099	0.999327
	C126	C	0.382138	0.618736	0.016087
	C127	C	0.382719	0.374754	0.997993
	C128	C	0.013475	0.618644	0.385605
	C129	C	0.995252	0.617250	0.628368
	C130	C	0.012582	0.375383	0.629382
	C131	C	0.995428	0.377157	0.387832
	C132	C	0.883483	0.505307	0.128395
	C133	C	0.124948	0.487175	0.129086
	C134	C	0.124514	0.504800	0.886066
	C135	C	0.882470	0.488882	0.885927
	C136	C	0.125859	0.874904	0.516142
	C137	C	0.125599	0.118245	0.498688
	C138	C	0.883120	0.118037	0.515937
	C139	C	0.882277	0.873864	0.499230
	C140	C	0.514352	0.116838	0.885936
	C141	C	0.496079	0.117741	0.128704
	C142	C	0.512885	0.876619	0.128071
	C143	C	0.496183	0.876278	0.886400
	C144	C	0.379933	0.888541	0.690249
	C145	C	0.629435	0.104611	0.689134
	C146	C	0.628380	0.887880	0.326105
	C147	C	0.382372	0.105761	0.328018
	C148	C	0.687028	0.371955	0.900629
	C149	C	0.686147	0.621628	0.114807
	C150	C	0.321969	0.620393	0.899727
	C151	C	0.321650	0.371962	0.113763
	C152	C	0.895751	0.678681	0.383547
	C153	C	0.113429	0.676254	0.630335
	C154	C	0.896187	0.313575	0.633622
	C155	C	0.112952	0.316576	0.385292
	C156	C	0.895564	0.372120	0.690089
	C157	C	0.112893	0.619769	0.688749
	C158	C	0.896131	0.622379	0.325085
	C159	C	0.112571	0.373000	0.326844
	C160	C	0.379142	0.679044	0.900228
	C161	C	0.628552	0.679826	0.114662
	C162	C	0.629993	0.313369	0.900827
	C163	C	0.378801	0.313228	0.113034
	C164	C	0.685368	0.887313	0.384566
	C165	C	0.685644	0.105138	0.630248
	C166	C	0.322609	0.888335	0.632089
	C167	C	0.325471	0.106147	0.386469
	C168	C	0.878070	0.390373	0.191152
	C169	C	0.129167	0.603734	0.189735
	C170	C	0.128042	0.388449	0.825485
	C171	C	0.876984	0.604743	0.823996
	C172	C	0.185485	0.873393	0.399384
	C173	C	0.185188	0.118864	0.615316
	C174	C	0.822571	0.120374	0.399782
	C175	C	0.821574	0.871278	0.615106
	C176	C	0.396487	0.176710	0.883825
	C177	C	0.614037	0.176847	0.130114
	C178	C	0.394686	0.817504	0.129790
	C179	C	0.611854	0.812436	0.881756
	C180	C	0.394822	0.874953	0.187158
	C181	C	0.613602	0.120530	0.188704
	C182	C	0.396618	0.119521	0.826085
	C183	C	0.611978	0.869165	0.823717
	C184	C	0.878896	0.179788	0.400529
	C185	C	0.127896	0.177539	0.615155
	C186	C	0.128203	0.815146	0.399724
	C187	C	0.879477	0.813620	0.615273
	C188	C	0.185010	0.387962	0.883857
	C189	C	0.185646	0.604019	0.131008
	C190	C	0.821598	0.389533	0.132048
	C191	C	0.820290	0.605099	0.882700
	C192	C	0.409486	0.085910	0.603968
	C193	C	0.599342	0.907097	0.603067
	C194	C	0.601126	0.086658	0.410269
	C195	C	0.408008	0.905526	0.409140
	C196	C	0.599132	0.400656	0.096822
	C197	C	0.597189	0.591527	0.919332
	C198	C	0.407671	0.593946	0.097123
	C199	C	0.408447	0.400342	0.917420
	C200	C	0.095286	0.592662	0.411159
	C201	C	0.913358	0.592327	0.603211
	C202	C	0.094399	0.401073	0.604024
	C203	C	0.913658	0.403075	0.413078
	C204	C	0.910300	0.585902	0.102129
	C205	C	0.099118	0.406010	0.104129
	C206	C	0.098414	0.586326	0.911529
	C207	C	0.909229	0.408079	0.911667
	C208	C	0.100570	0.899432	0.597225
	C209	C	0.100703	0.094331	0.417158
	C210	C	0.909397	0.092030	0.596343
	C211	C	0.908232	0.899328	0.418341
	C212	C	0.596443	0.091187	0.911134
	C213	C	0.413511	0.093127	0.104386
	C214	C	0.595289	0.901152	0.103345
	C215	C	0.415003	0.903443	0.912455
	Zn216	Zn	0.505353	-0.004044	0.757538
	Zn217	Zn	0.504628	-0.003463	0.256701
	Zn218	Zn	0.753919	0.497205	0.007717
	Zn219	Zn	0.253401	0.496294	0.007158
	Zn220	Zn	0.004762	0.745838	0.507696
	Zn221	Zn	0.003583	0.247850	0.507899
	Zn222	Zn	0.003294	0.497301	0.757315
	Zn223	Zn	0.004098	0.497064	0.258401
	Zn224	Zn	0.503334	0.748426	0.007287
	Zn225	Zn	0.504694	0.245365	0.007295
	Zn226	Zn	0.754394	-0.003609	0.507850
	Zn227	Zn	0.255204	-0.004023	0.507193
	N228	N	0.417282	0.961973	0.688543
	N229	N	0.593089	0.030606	0.688584
	N230	N	0.592574	0.962262	0.326221
	N231	N	0.417784	0.031177	0.327482
	N232	N	0.684400	0.409590	0.973461
	N233	N	0.683723	0.584152	0.042039
	N234	N	0.323504	0.583586	0.973010
	N235	N	0.323952	0.409571	0.041212
	N236	N	0.969773	0.676511	0.420722
	N237	N	0.039302	0.674961	0.593573
	N238	N	0.970148	0.315493	0.596728
	N239	N	0.039078	0.318876	0.422595
	N240	N	0.969184	0.409860	0.687795
	N241	N	0.038319	0.583949	0.687923
	N242	N	0.970540	0.585762	0.326101
	N243	N	0.038289	0.409892	0.328001
	N244	N	0.415443	0.678489	0.973699
	N245	N	0.590874	0.678170	0.041541
	N246	N	0.592288	0.315178	0.973770
	N247	N	0.416050	0.314782	0.039971
	N248	N	0.684387	0.961298	0.420842
	N249	N	0.683520	0.031554	0.593313
	N250	N	0.324639	0.961755	0.594823
	N251	N	0.325973	0.031616	0.421792
	N252	N	0.915825	0.463567	0.189221
	N253	N	0.092300	0.530000	0.188974
	N254	N	0.091226	0.462350	0.826605
	N255	N	0.914858	0.531277	0.825720
	N256	N	0.184358	0.909811	0.472841
	N257	N	0.184038	0.082622	0.541793
	N258	N	0.824783	0.082909	0.472624
	N259	N	0.823063	0.908014	0.541813
	N260	N	0.471025	0.175505	0.919986
	N261	N	0.539623	0.175585	0.093770
	N262	N	0.469302	0.818196	0.093741
	N263	N	0.538794	0.816766	0.920286
	N264	N	0.469472	0.910833	0.186306
	N265	N	0.539039	0.084558	0.188155
	N266	N	0.471135	0.083194	0.826946
	N267	N	0.538988	0.908247	0.826453
	N268	N	0.915872	0.178585	0.473869
	N269	N	0.091566	0.177185	0.541598
	N270	N	0.091917	0.815717	0.473394
	N271	N	0.916494	0.814894	0.541903
	N272	N	0.182992	0.461537	0.920863
	N273	N	0.183501	0.530410	0.094036
	N274	N	0.824935	0.462225	0.093655
	N275	N	0.823442	0.532154	0.920621
	O276	O	-0.218109	1.020513	-0.215354
	H277	H	-0.231359	1.025269	-0.230607
	H278	H	-0.219094	1.047766	-0.223709
	O279	O	0.029280	0.216248	0.228919
	H280	H	0.040353	0.237120	0.244360
	H281	H	0.034337	0.214334	0.220613
	O282	O	0.978648	0.212840	0.793272
	H283	H	0.960769	0.214792	0.787750
	H284	H	0.964066	0.223770	0.783061
	O285	O	0.673388	0.305734	0.687035
	H286	H	0.668575	0.320339	0.682089
	H287	H	0.661946	0.315296	0.659464
	O288	O	0.284816	0.516090	0.304207
	H289	H	0.275716	0.538833	0.300679
	H290	H	0.271343	0.515005	0.297211
	O291	O	0.335892	0.645939	0.511072
	H292	H	0.340133	0.635524	0.494765
	H293	H	0.318434	0.657487	0.509647
	O294	O	1.003173	-0.225414	0.845059
	H295	H	1.004982	-0.214178	0.835494
	H296	H	0.989105	-0.217653	0.820202
	O297	O	0.562714	0.434407	0.743748
	H298	H	0.576756	0.442869	0.745939
	H299	H	0.556491	0.452291	0.734904
	O300	O	-0.057820	0.231674	1.070661
	H301	H	-0.050962	0.222438	1.068889
	H302	H	-0.044546	0.237891	1.058582
	O303	O	0.579984	0.701170	0.306047
	H304	H	0.567310	0.687826	0.304829
	H305	H	0.578698	0.716743	0.284501
	O306	O	0.613492	0.379456	0.431918
	H307	H	0.613377	0.378706	0.436276
	H308	H	0.606980	0.381742	0.433268
	O309	O	0.380766	0.276584	0.486521
	H310	H	0.379378	0.282071	0.518592
	H311	H	0.362416	0.267025	0.491557
	O312	O	0.502409	0.666603	0.732420
	H313	H	0.511258	0.674726	0.737650
	H314	H	0.511875	0.666680	0.729278
	O315	O	1.032282	1.031488	0.777273
	H316	H	1.025477	1.024558	0.777595
	H317	H	1.037199	1.040041	0.780582
	O318	O	1.209850	0.965961	0.088000
	H319	H	1.221747	0.978793	0.129214
	H320	H	1.200261	0.940830	0.076866
	O321	O	0.373404	0.688355	0.697148
	H322	H	0.380677	0.675029	0.676475
	H323	H	0.372729	0.677177	0.699019
	O324	O	0.956161	0.772645	0.005800
	H325	H	0.955934	0.777611	0.001350
	H326	H	0.954569	0.763196	-0.007327
	O327	O	-0.030342	0.017200	0.971932
	H328	H	-0.025687	0.013988	0.966900
	H329	H	-0.036801	0.015044	0.976286
	O330	O	0.723082	0.281118	0.488913
	H331	H	0.740344	0.255100	0.473811
	H332	H	0.712833	0.286725	0.468005
	O333	O	0.471101	0.275906	0.732068
	H334	H	0.479497	0.264694	0.747609
	H335	H	0.479063	0.279088	0.738525
	O336	O	0.541485	0.272412	0.556287
	H337	H	0.536494	0.271158	0.568919
	H338	H	0.544631	0.279466	0.548207
	O339	O	1.058174	0.233935	0.962066
	H340	H	1.066792	0.238564	0.959023
	H341	H	1.066821	0.229636	0.945068
	O342	O	-0.041224	0.001048	0.223949
	H343	H	-0.024424	-0.003521	0.222359
	H344	H	-0.035801	0.018653	0.216710
	O345	O	0.037872	1.071729	1.058780
	H346	H	0.042513	1.064361	1.053384
	H347	H	0.047184	1.085497	1.056195
	O348	O	0.214980	-0.215258	-0.204191
	H349	H	0.222718	-0.229590	-0.212050
	H350	H	0.187369	-0.194192	-0.208176
	O351	O	0.488395	0.488101	0.499932
	H352	H	0.487099	0.477276	0.487566
	H353	H	0.501730	0.491384	0.494647
	O354	O	0.168553	0.046196	0.915212
	H355	H	0.151066	0.032467	0.909165
	H356	H	0.166409	0.036047	0.914039
	O357	O	0.410943	0.589750	0.725538
	H358	H	0.399665	0.600041	0.730007
	H359	H	0.420292	0.587698	0.725529
	O360	O	0.720877	0.713706	0.544800
	H361	H	0.710019	0.709898	0.522156
	H362	H	0.744562	0.733560	0.536260
	O363	O	-0.202634	0.209011	-0.200342
	H364	H	-0.227650	0.232250	-0.208493
	H365	H	-0.196492	0.204329	-0.173050
	O366	O	0.367903	0.628800	0.455121
	H367	H	0.366045	0.649230	0.452400
	H368	H	0.361392	0.627484	0.468539
	O369	O	0.717973	0.290968	0.296496
	H370	H	0.679085	0.291102	0.298787
	H371	H	0.744394	0.260960	0.276278
	O372	O	0.790724	0.872758	-0.108756
	H373	H	0.787741	0.894024	-0.090979
	H374	H	0.770064	0.858847	-0.133391
	O375	O	1.195260	0.181390	-0.182370
	H376	H	1.199824	0.163686	-0.175358
	H377	H	1.172833	0.173465	-0.164443
	O378	O	0.211135	0.204970	0.216657
	H379	H	0.244487	0.238783	0.246637
	H380	H	0.191856	0.208615	0.194656
	O381	O	-0.041722	0.835776	0.812366
	H382	H	-0.051240	0.817324	0.802648
	H383	H	-0.047384	0.841954	0.827085
	O384	O	0.995124	-0.078827	0.856151
	H385	H	1.001144	-0.064833	0.854515
	H386	H	0.985347	-0.074454	0.861079
	O387	O	1.225648	0.773811	-0.019715
	H388	H	1.258009	0.743402	-0.030216
	H389	H	1.211665	0.783028	-0.047032
	O390	O	0.533498	0.280312	0.282139
	H391	H	0.533696	0.267310	0.285280
	H392	H	0.526969	0.276840	0.274684
	O393	O	0.314599	0.304585	0.310565
	H394	H	0.335873	0.328537	0.319526
	H395	H	0.337950	0.314819	0.333475
	O396	O	0.001458	0.878921	1.072040
	H397	H	0.002219	0.880931	1.075292
	H398	H	0.000148	0.880903	1.075016
	O399	O	0.229694	0.030551	1.234398
	H400	H	0.241304	0.052280	1.252140
	H401	H	0.235649	0.051116	1.249878
	O402	O	0.585698	0.718696	0.421554
	H403	H	0.580549	0.711240	0.402629
	H404	H	0.567393	0.716143	0.433147
	O405	O	0.867763	0.035588	0.885490
	H406	H	0.874172	0.029391	0.912369
	H407	H	0.858228	0.034627	0.878024
	O408	O	0.216926	0.212410	0.042789
	H409	H	0.226865	0.209743	0.044854
	H410	H	0.232977	0.216765	0.044832
	O411	O	0.695311	0.691178	0.706909
	H412	H	0.701021	0.697723	0.656800
	H413	H	0.672655	0.670341	0.713385
	O414	O	0.717518	0.523871	0.730301
	H415	H	0.739230	0.523482	0.742963
	H416	H	0.721765	0.540489	0.719464
	O417	O	0.693248	0.588281	0.452469
	H418	H	0.693993	0.590578	0.443144
	H419	H	0.700976	0.587226	0.437706
	O420	O	0.521683	0.632732	0.563759
	H421	H	0.511589	0.630859	0.553746
	H422	H	0.529345	0.638484	0.566420
	O423	O	-0.178966	0.184708	1.194047
	H424	H	-0.161507	0.173267	1.175418
	H425	H	-0.152294	0.173649	1.190814
	O426	O	0.385915	0.446267	0.446737
	H427	H	0.386209	0.447663	0.477167
	H428	H	0.381597	0.456641	0.445546
	O429	O	0.805624	0.795515	1.207193
	H430	H	0.809958	0.811571	1.205862
	H431	H	0.808117	0.789175	1.166982
	O432	O	0.663984	0.526522	0.506945
	H433	H	0.670974	0.526369	0.488439
	H434	H	0.659961	0.521753	0.504289
	O435	O	0.192443	0.805246	0.200076
	H436	H	0.171765	0.834960	0.193438
	H437	H	0.172270	0.805015	0.168453
	O438	O	0.033177	-0.012393	0.240060
	H439	H	0.025638	-0.007736	0.236449
	H440	H	0.041289	-0.014977	0.233499
	O441	O	-0.206552	0.210694	-0.025933
	H442	H	-0.224082	0.208855	-0.019235
	H443	H	-0.202616	0.207752	-0.008847
	O444	O	0.455516	0.474685	0.523238
	H445	H	0.460170	0.488997	0.526905
	H446	H	0.448479	0.480983	0.535082
	O447	O	0.222781	0.970054	0.787685
	H448	H	0.218142	0.965222	0.775429
	H449	H	0.230227	0.970035	0.775365
	O450	O	-0.211777	0.777989	1.043552
	H451	H	-0.223989	0.770655	1.027660
	H452	H	-0.221945	0.782873	1.022883
	O453	O	0.269762	0.451054	0.519373
	H454	H	0.271232	0.438463	0.527177
	H455	H	0.266256	0.459066	0.503442
	O456	O	0.299524	0.289710	0.718963
	H457	H	0.338117	0.285856	0.715172
	H458	H	0.277015	0.281711	0.743152
	O459	O	0.977303	0.776076	0.228536
	H460	H	0.969639	0.758758	0.238997
	H461	H	0.966154	0.778539	0.235453
	O462	O	0.721701	0.474004	0.288667
	H463	H	0.725632	0.466662	0.280599
	H464	H	0.731541	0.449418	0.273519
	O465	O	0.782290	-0.040077	0.230703
	H466	H	0.806067	-0.055706	0.230420
	H467	H	0.753272	-0.041586	0.266467
	O468	O	0.470619	0.523213	0.287816
	H469	H	0.460798	0.546773	0.288585
	H470	H	0.461066	0.524424	0.284081
	O471	O	0.360913	0.321833	0.533047
	H472	H	0.363700	0.331030	0.553221
	H473	H	0.344932	0.302376	0.544851
	O474	O	0.297779	0.707179	0.292531
	H475	H	0.297413	0.725871	0.284908
	H476	H	0.281320	0.712959	0.285580
	O477	O	0.557179	0.612870	1.406433
	H478	H	0.562510	0.605728	1.401365
	H479	H	0.554757	0.630975	1.408743
	O480	O	0.289096	0.477848	0.709719
	H481	H	0.307411	0.462368	0.706220
	H482	H	0.271352	0.477144	0.736462
	O483	O	0.566449	0.517166	0.309280
	H484	H	0.566117	0.512054	0.308169
	H485	H	0.570832	0.533506	0.314234
	O486	O	0.524576	0.531658	0.578097
	H487	H	0.516716	0.524241	0.577009
	H488	H	0.521399	0.543429	0.582778
	O489	O	1.090367	0.895216	0.079862
	H490	H	1.099752	0.881586	0.067175
	H491	H	1.077723	0.892758	0.058940
	O492	O	-0.206451	0.046504	0.092809
	H493	H	-0.205326	0.044839	0.110035
	H494	H	-0.196502	0.040277	0.114631
	O495	O	-0.089992	0.943133	0.961598
	H496	H	-0.091404	0.961614	0.960528
	H497	H	-0.078628	0.950865	0.964967
	O498	O	1.185609	1.004819	0.934371
	H499	H	1.187032	1.005392	0.932819
	H500	H	1.186022	0.992657	0.949520
	O501	O	0.365995	0.520525	0.452181
	H502	H	0.360183	0.497496	0.435927
	H503	H	0.364485	0.520073	0.460956
