data_Molecule from HDF5

_cell_length_a		16.286756
_cell_length_b		16.108582
_cell_length_c		16.334606
_cell_angle_alpha	89.976645
_cell_angle_beta	90.046863
_cell_angle_gamma	89.921445
_symmetry_space_group_name_H-M	'P 1'
_symmetry_Int_Tables_number		1

loop_
	_symmetry_equiv_pos_as_xyz
	x,y,z

loop_
	_atom_site_label
	_atom_site_type_symbol
	_atom_site_fract_x
	_atom_site_fract_y
	_atom_site_fract_z
	H0	H	0.387413	0.833065	0.714827
	H1	H	0.588823	0.161868	0.713955
	H2	H	0.592416	0.832922	0.281598
	H3	H	0.390394	0.161248	0.283156
	H4	H	0.705432	0.393822	0.835871
	H5	H	0.704922	0.596661	0.160424
	H6	H	0.271844	0.596144	0.836008
	H7	H	0.271200	0.394505	0.161846
	H8	H	0.824224	0.709993	0.400729
	H9	H	0.152012	0.708615	0.596073
	H10	H	0.823744	0.282750	0.594718
	H11	H	0.151783	0.281942	0.399931
	H12	H	0.824287	0.395446	0.713960
	H13	H	0.150331	0.598157	0.715523
	H14	H	0.825545	0.598173	0.281783
	H15	H	0.149980	0.394611	0.281224
	H16	H	0.388393	0.711674	0.835675
	H17	H	0.587721	0.711430	0.161581
	H18	H	0.585253	0.281239	0.835361
	H19	H	0.391164	0.282717	0.163361
	H20	H	0.701565	0.831219	0.400184
	H21	H	0.703099	0.161354	0.597281
	H22	H	0.275285	0.831738	0.597980
	H23	H	0.272360	0.160041	0.396818
	H24	H	0.886806	0.332239	0.213305
	H25	H	0.087661	0.660614	0.213026
	H26	H	0.087095	0.331642	0.783123
	H27	H	0.887551	0.661486	0.784047
	H28	H	0.207099	0.893381	0.335903
	H29	H	0.205565	0.096593	0.659769
	H30	H	0.772130	0.096605	0.335268
	H31	H	0.771197	0.895961	0.660514
	H32	H	0.324058	0.210276	0.900518
	H33	H	0.651722	0.211253	0.096394
	H34	H	0.324646	0.783778	0.096716
	H35	H	0.652412	0.783236	0.901942
	H36	H	0.327683	0.895581	0.215909
	H37	H	0.652679	0.098036	0.213575
	H38	H	0.326219	0.100131	0.780201
	H39	H	0.651223	0.895866	0.782338
	H40	H	0.890005	0.209577	0.334379
	H41	H	0.085339	0.208822	0.661824
	H42	H	0.085945	0.782045	0.334682
	H43	H	0.891786	0.782969	0.662519
	H44	H	0.201483	0.330892	0.899988
	H45	H	0.202200	0.660212	0.098052
	H46	H	0.775203	0.331376	0.095743
	H47	H	0.772655	0.661027	0.898805
	H48	H	0.405046	0.114178	0.596658
	H49	H	0.578899	0.878929	0.592231
	H50	H	0.581899	0.116352	0.402534
	H51	H	0.397975	0.878852	0.406744
	H52	H	0.584141	0.398295	0.117203
	H53	H	0.580789	0.586144	0.882924
	H54	H	0.396594	0.583701	0.112805
	H55	H	0.396585	0.406841	0.884488
	H56	H	0.102816	0.582984	0.404555
	H57	H	0.868081	0.589907	0.599352
	H58	H	0.106302	0.398915	0.594351
	H59	H	0.869650	0.404171	0.400466
	H60	H	0.103248	0.403488	0.587198
	H61	H	0.870466	0.595452	0.586164
	H62	H	0.105920	0.588091	0.401351
	H63	H	0.871071	0.401340	0.406705
	H64	H	0.397678	0.594367	0.114763
	H65	H	0.579026	0.588601	0.883040
	H66	H	0.586056	0.409581	0.114133
	H67	H	0.394942	0.401393	0.884278
	H68	H	0.576802	0.113479	0.406963
	H69	H	0.579995	0.879793	0.590642
	H70	H	0.398806	0.110096	0.579345
	H71	H	0.397921	0.878121	0.404962
	H72	H	0.902335	0.611994	0.090060
	H73	H	0.082756	0.376681	0.092882
	H74	H	0.083416	0.615182	0.904991
	H75	H	0.894225	0.377307	0.906072
	H76	H	0.095422	0.907900	0.616407
	H77	H	0.078824	0.102285	0.378267
	H78	H	0.886485	0.080472	0.614650
	H79	H	0.895431	0.897739	0.381077
	H80	H	0.603959	0.092272	0.909858
	H81	H	0.374506	0.076549	0.095840
	H82	H	0.603082	0.908803	0.086639
	H83	H	0.368846	0.895140	0.905027
	H84	H	0.607021	0.906161	0.097379
	H85	H	0.367354	0.096426	0.100057
	H86	H	0.602564	0.082825	0.905175
	H87	H	0.376008	0.909701	0.913796
	H88	H	0.904538	0.083995	0.608939
	H89	H	0.095196	0.080560	0.379705
	H90	H	0.073346	0.909841	0.609042
	H91	H	0.889445	0.906135	0.381136
	H92	H	0.077539	0.615077	0.902529
	H93	H	0.075317	0.378931	0.091939
	H94	H	0.891666	0.614356	0.084451
	H95	H	0.898082	0.377887	0.903529
	H96	H	0.387277	0.118010	0.590881
	H97	H	0.580853	0.878919	0.591969
	H98	H	0.583864	0.114030	0.409082
	H99	H	0.399183	0.878432	0.405379
	H100	H	0.575337	0.403565	0.111895
	H101	H	0.582129	0.588976	0.881775
	H102	H	0.387815	0.589759	0.117191
	H103	H	0.390297	0.405085	0.883023
	H104	H	0.104661	0.589945	0.408226
	H105	H	0.874586	0.581428	0.589506
	H106	H	0.103703	0.408153	0.594867
	H107	H	0.872539	0.407927	0.406004
	H108	H	0.893672	0.617690	0.096936
	H109	H	0.080782	0.379027	0.086317
	H110	H	0.078625	0.612451	0.908287
	H111	H	0.898071	0.380027	0.907884
	H112	H	0.081767	0.889987	0.617559
	H113	H	0.069803	0.078919	0.388077
	H114	H	0.893379	0.099097	0.617523
	H115	H	0.899073	0.906733	0.383861
	H116	H	0.606912	0.090741	0.900311
	H117	H	0.375083	0.091001	0.080467
	H118	H	0.607149	0.897603	0.087863
	H119	H	0.370294	0.911791	0.896222
	C120	C	0.367518	0.005435	0.619011
	C121	C	0.609246	0.988271	0.620039
	C122	C	0.610402	0.005629	0.376906
	C123	C	0.368292	0.987482	0.376266
	C124	C	0.610184	0.374065	0.006911
	C125	C	0.609845	0.617562	0.989856
	C126	C	0.365142	0.618364	0.007236
	C127	C	0.365420	0.374361	0.991070
	C128	C	-0.003181	0.617725	0.375980
	C129	C	0.979215	0.617735	0.620204
	C130	C	-0.003780	0.374536	0.620216
	C131	C	0.979112	0.374477	0.375823
	C132	C	0.866806	0.505381	0.118988
	C133	C	0.108668	0.487016	0.119608
	C134	C	0.109016	0.504961	0.876831
	C135	C	0.867159	0.487615	0.876992
	C136	C	0.111725	0.873442	0.506769
	C137	C	0.110296	0.117307	0.489578
	C138	C	0.865841	0.117458	0.506235
	C139	C	0.865861	0.874317	0.489716
	C140	C	0.496519	0.118250	0.876395
	C141	C	0.480504	0.117719	0.120621
	C142	C	0.497774	0.875121	0.120049
	C143	C	0.479569	0.875372	0.876400
	C144	C	0.368035	0.882150	0.676239
	C145	C	0.608196	0.112501	0.675439
	C146	C	0.610474	0.881791	0.320579
	C147	C	0.369855	0.111578	0.321032
	C148	C	0.666599	0.374492	0.884430
	C149	C	0.666446	0.616542	0.112185
	C150	C	0.309498	0.616538	0.884848
	C151	C	0.309625	0.374973	0.113410
	C152	C	0.873467	0.672886	0.379555
	C153	C	0.102827	0.671873	0.617049
	C154	C	0.872916	0.319650	0.616306
	C155	C	0.102583	0.319180	0.379136
	C156	C	0.873451	0.375455	0.675891
	C157	C	0.101863	0.616721	0.676368
	C158	C	0.874081	0.617066	0.320475
	C159	C	0.101565	0.375107	0.319996
	C160	C	0.367913	0.673706	0.884510
	C161	C	0.608122	0.673674	0.112489
	C162	C	0.606636	0.318793	0.883951
	C163	C	0.369300	0.319313	0.114129
	C164	C	0.664964	0.880829	0.379479
	C165	C	0.665213	0.112188	0.617770
	C166	C	0.312674	0.881218	0.617657
	C167	C	0.311207	0.111013	0.377359
	C168	C	0.867893	0.381535	0.175012
	C169	C	0.107320	0.611222	0.175466
	C170	C	0.107464	0.380919	0.821331
	C171	C	0.867898	0.611931	0.821548
	C172	C	0.168057	0.874058	0.384332
	C173	C	0.166677	0.116292	0.611474
	C174	C	0.810199	0.116050	0.383742
	C175	C	0.810123	0.876011	0.612315
	C176	C	0.373485	0.173654	0.879129
	C177	C	0.603181	0.173538	0.117186
	C178	C	0.374071	0.820813	0.117294
	C179	C	0.602970	0.819857	0.879940
	C180	C	0.375728	0.876243	0.176803
	C181	C	0.603542	0.117356	0.175543
	C182	C	0.374425	0.118391	0.819603
	C183	C	0.602481	0.876155	0.820750
	C184	C	0.869078	0.172165	0.383278
	C185	C	0.106798	0.172108	0.612423
	C186	C	0.108095	0.818314	0.383832
	C187	C	0.869949	0.819758	0.613134
	C188	C	0.164392	0.380702	0.879417
	C189	C	0.164099	0.611257	0.118107
	C190	C	0.811940	0.380901	0.116534
	C191	C	0.811045	0.611845	0.878806
	C192	C	0.390304	0.091789	0.595823
	C193	C	0.586629	0.901649	0.597983
	C194	C	0.587460	0.092107	0.399414
	C195	C	0.391494	0.900849	0.399021
	C196	C	0.588321	0.397131	0.092136
	C197	C	0.587260	0.594496	0.904687
	C198	C	0.387467	0.596046	0.092862
	C199	C	0.387509	0.397437	0.906057
	C200	C	0.082243	0.594096	0.398309
	C201	C	0.893415	0.595384	0.598314
	C202	C	0.082050	0.396998	0.598574
	C203	C	0.893399	0.397505	0.398126
	C204	C	0.889166	0.592228	0.096802
	C205	C	0.086132	0.400397	0.097155
	C206	C	0.086504	0.591831	0.898794
	C207	C	0.890134	0.401034	0.899282
	C208	C	0.090011	0.895983	0.592002
	C209	C	0.087885	0.094108	0.404168
	C210	C	0.888337	0.094531	0.591676
	C211	C	0.887982	0.896912	0.404395
	C212	C	0.582412	0.095271	0.898602
	C213	C	0.394627	0.094735	0.098792
	C214	C	0.583506	0.897542	0.097271
	C215	C	0.393926	0.898721	0.898444
	Zn216	Zn	0.487977	-0.002671	0.747446
	Zn217	Zn	0.490254	-0.003869	0.249171
	Zn218	Zn	0.739347	0.496336	-0.002212
	Zn219	Zn	0.236593	0.496180	-0.000725
	Zn220	Zn	-0.011589	0.745295	0.498308
	Zn221	Zn	-0.012129	0.245964	0.497802
	Zn222	Zn	-0.012808	0.496623	0.748641
	Zn223	Zn	-0.012284	0.496266	0.247173
	Zn224	Zn	0.488000	0.746609	-0.001718
	Zn225	Zn	0.487726	0.245720	-0.000980
	Zn226	Zn	0.736499	-0.003726	0.497587
	Zn227	Zn	0.240142	-0.004387	0.497886
	N228	N	0.401581	0.960451	0.677037
	N229	N	0.574284	0.034378	0.677140
	N230	N	0.577019	0.960367	0.318922
	N231	N	0.404379	0.033559	0.320179
	N232	N	0.669016	0.408254	0.961740
	N233	N	0.667653	0.582392	0.035062
	N234	N	0.307921	0.582703	0.962248
	N235	N	0.307089	0.408487	0.035881
	N236	N	0.950824	0.673373	0.413513
	N237	N	0.025751	0.672599	0.582698
	N238	N	0.950254	0.318873	0.582301
	N239	N	0.025240	0.318569	0.413160
	N240	N	0.951018	0.408953	0.678327
	N241	N	0.023938	0.583705	0.678469
	N242	N	0.951775	0.583501	0.318120
	N243	N	0.023774	0.408481	0.317685
	N244	N	0.401992	0.674923	0.961574
	N245	N	0.573077	0.674057	0.035707
	N246	N	0.572363	0.318280	0.960931
	N247	N	0.403379	0.318739	0.037149
	N248	N	0.664905	0.958647	0.414015
	N249	N	0.665938	0.034000	0.583924
	N250	N	0.312093	0.958906	0.582760
	N251	N	0.310422	0.032756	0.411285
	N252	N	0.901250	0.459998	0.176511
	N253	N	0.073556	0.532921	0.176483
	N254	N	0.073712	0.459125	0.819652
	N255	N	0.902045	0.533620	0.820277
	N256	N	0.170761	0.907388	0.461775
	N257	N	0.168838	0.082797	0.534111
	N258	N	0.808116	0.082604	0.461262
	N259	N	0.807272	0.908893	0.534576
	N260	N	0.450334	0.173630	0.913840
	N261	N	0.525618	0.173808	0.083583
	N262	N	0.451174	0.819761	0.082773
	N263	N	0.525491	0.819053	0.913826
	N264	N	0.453498	0.909242	0.178585
	N265	N	0.526165	0.083256	0.177718
	N266	N	0.452093	0.084714	0.817812
	N267	N	0.524806	0.909635	0.818220
	N268	N	0.902928	0.173316	0.460420
	N269	N	0.072651	0.173095	0.535335
	N270	N	0.073809	0.817769	0.460691
	N271	N	0.903731	0.818502	0.536004
	N272	N	0.165492	0.459040	0.913182
	N273	N	0.164901	0.533276	0.083994
	N274	N	0.811321	0.458889	0.082228
	N275	N	0.810291	0.533626	0.912489
	O276	O	0.064884	0.019954	-0.071266
	H277	H	0.070857	0.026625	-0.063061
	H278	H	0.057087	0.021122	-0.074249
	O279	O	0.940882	0.007822	-0.067108
	H280	H	0.945842	0.008604	-0.061791
	H281	H	0.947559	0.003719	-0.061489
	O282	O	0.516171	0.609088	0.505032
	H283	H	0.530651	0.620086	0.504877
	H284	H	0.505117	0.614333	0.498081
	O285	O	0.431671	1.475704	0.477321
	H286	H	0.437957	1.480083	0.487986
	H287	H	0.429590	1.473782	0.476818
	O288	O	0.329948	0.490286	0.480078
	H289	H	0.321956	0.477733	0.484202
	H290	H	0.326089	0.488685	0.495715
	O291	O	1.048626	0.949388	0.952037
	H292	H	1.053101	0.948351	0.947042
	H293	H	1.047266	0.948315	0.950885
	O294	O	1.097039	1.062768	1.058224
	H295	H	1.097786	1.063836	1.064907
	H296	H	1.103034	1.059183	1.054749
	O297	O	1.494965	0.438962	1.569465
	H298	H	1.495780	0.433690	1.577284
	H299	H	1.495273	0.449824	1.564019
	O300	O	0.478560	0.509752	0.442229
	H301	H	0.486228	0.505225	0.443498
	H302	H	0.477764	0.502703	0.442448
	O303	O	0.955278	0.052784	0.022486
	H304	H	0.961733	0.053050	0.029933
	H305	H	0.959911	0.044737	0.025743
	O306	O	-0.023185	1.006706	0.928984
	H307	H	-0.017648	0.996467	0.924288
	H308	H	-0.021617	1.008388	0.931059
	O309	O	0.729499	0.849099	0.820664
	H310	H	0.731994	0.850508	0.812368
	H311	H	0.723690	0.865852	0.818214
	O312	O	1.051162	0.038170	1.065354
	H313	H	1.041741	0.034581	1.067289
	H314	H	1.062091	0.046488	1.072972
	O315	O	0.468620	0.529075	0.473982
	H316	H	0.461889	0.532918	0.467070
	H317	H	0.471956	0.521431	0.470325
	O318	O	0.516366	0.497910	0.620735
	H319	H	0.505501	0.510867	0.625218
	H320	H	0.528100	0.499790	0.625114
	O321	O	0.928216	1.047674	1.022652
	H322	H	0.924925	1.051042	1.025483
	H323	H	0.922322	1.057830	1.016841
	O324	O	0.504633	0.542846	0.397056
	H325	H	0.489408	0.537563	0.390903
	H326	H	0.505457	0.530351	0.390867
	O327	O	0.431845	0.454920	0.610652
	H328	H	0.441008	0.459731	0.616118
	H329	H	0.443047	0.448785	0.618815
	O330	O	0.982347	-0.005851	0.996138
	H331	H	0.987872	-0.003398	0.989488
	H332	H	0.976391	-0.009190	0.988914
	O333	O	0.860871	1.005861	-0.048054
	H334	H	0.859914	1.003664	-0.040882
	H335	H	0.863658	1.008567	-0.058366
	O336	O	0.421529	0.598026	0.422230
	H337	H	0.425257	0.598615	0.421855
	H338	H	0.412405	0.587029	0.417126
	O339	O	0.490987	0.631340	0.505296
	H340	H	0.497209	0.633482	0.490563
	H341	H	0.501938	0.642493	0.516312
	O342	O	-0.018030	0.964050	0.047882
	H343	H	-0.013242	0.974097	0.054683
	H344	H	-0.015978	0.963073	0.050250
	O345	O	0.060942	-0.050754	-0.126096
	H346	H	0.058582	-0.046260	-0.124595
	H347	H	0.064659	-0.053754	-0.127809
	O348	O	0.362944	0.416366	0.462087
	H349	H	0.356941	0.417022	0.467758
	H350	H	0.363356	0.412924	0.465297
	O351	O	0.517681	0.513403	0.519738
	H352	H	0.509133	0.508927	0.516015
	H353	H	0.514550	0.515213	0.519473
	O354	O	0.545816	0.465218	0.494281
	H355	H	0.545488	0.463980	0.492201
	H356	H	0.541902	0.463875	0.489472
	O357	O	0.543676	0.479743	0.559593
	H358	H	0.548729	0.493869	0.564927
	H359	H	0.532040	0.481760	0.554791
	O360	O	-0.021154	-0.015158	0.007852
	H361	H	-0.018621	-0.016365	0.007363
	H362	H	-0.009585	-0.012582	0.004052
	O363	O	0.481638	0.378726	0.443422
	H364	H	0.481803	0.384159	0.457626
	H365	H	0.495600	0.378975	0.452543
	O366	O	0.021022	-0.049817	1.034915
	H367	H	0.013616	-0.044539	1.039309
	H368	H	0.021892	-0.047733	1.037110
	O369	O	0.542929	0.490362	0.508636
	H370	H	0.540168	0.481355	0.510453
	H371	H	0.540114	0.503400	0.511552
