data_Molecule from HDF5

_cell_length_a		16.493138
_cell_length_b		16.311130
_cell_length_c		16.248177
_cell_angle_alpha	90.099673
_cell_angle_beta	90.049721
_cell_angle_gamma	89.754313
_symmetry_space_group_name_H-M	'P 1'
_symmetry_Int_Tables_number		1

loop_
	_symmetry_equiv_pos_as_xyz
	x,y,z

loop_
	_atom_site_label
	_atom_site_type_symbol
	_atom_site_fract_x
	_atom_site_fract_y
	_atom_site_fract_z
	H0	H	0.395612	0.841262	0.714321
	H1	H	0.598642	0.163959	0.716123
	H2	H	0.598257	0.842048	0.278935
	H3	H	0.393567	0.164014	0.278718
	H4	H	0.718870	0.395572	0.838143
	H5	H	0.716713	0.608680	0.159252
	H6	H	0.274273	0.610163	0.838508
	H7	H	0.280758	0.402216	0.160140
	H8	H	0.837601	0.724182	0.391383
	H9	H	0.155605	0.721945	0.601644
	H10	H	0.839057	0.281122	0.604044
	H11	H	0.154496	0.279204	0.391700
	H12	H	0.838196	0.397784	0.719038
	H13	H	0.155969	0.604865	0.718394
	H14	H	0.836904	0.605215	0.277962
	H15	H	0.155926	0.398415	0.278887
	H16	H	0.395877	0.718991	0.834865
	H17	H	0.596999	0.721469	0.160276
	H18	H	0.600905	0.283198	0.836801
	H19	H	0.395912	0.286423	0.159010
	H20	H	0.717659	0.843294	0.389072
	H21	H	0.719227	0.162211	0.604591
	H22	H	0.278217	0.842575	0.602204
	H23	H	0.272271	0.160774	0.387188
	H24	H	0.895642	0.340653	0.215071
	H25	H	0.096170	0.663481	0.216816
	H26	H	0.101686	0.341486	0.779592
	H27	H	0.896720	0.663488	0.782198
	H28	H	0.218469	0.894570	0.335887
	H29	H	0.217732	0.106470	0.657174
	H30	H	0.775756	0.109886	0.335878
	H31	H	0.777527	0.898454	0.656383
	H32	H	0.336983	0.224042	0.894202
	H33	H	0.654798	0.226188	0.103483
	H34	H	0.336898	0.785248	0.101694
	H35	H	0.654552	0.782162	0.893856
	H36	H	0.337939	0.901010	0.217377
	H37	H	0.655300	0.109328	0.218765
	H38	H	0.337326	0.108688	0.776329
	H39	H	0.655402	0.899139	0.778654
	H40	H	0.892679	0.223433	0.336332
	H41	H	0.099004	0.219260	0.659787
	H42	H	0.099973	0.781259	0.335172
	H43	H	0.896836	0.786903	0.658114
	H44	H	0.219879	0.342728	0.893273
	H45	H	0.214965	0.663226	0.104510
	H46	H	0.775433	0.343217	0.105478
	H47	H	0.775604	0.661924	0.893159
	H48	H	0.408742	0.119585	0.592719
	H49	H	0.585177	0.889943	0.583311
	H50	H	0.590466	0.116896	0.417225
	H51	H	0.406654	0.888247	0.408038
	H52	H	0.588083	0.406173	0.115731
	H53	H	0.590930	0.589653	0.882483
	H54	H	0.406377	0.589628	0.111786
	H55	H	0.413674	0.420922	0.886685
	H56	H	0.107947	0.585905	0.407388
	H57	H	0.883937	0.592159	0.588839
	H58	H	0.109430	0.412469	0.586740
	H59	H	0.883152	0.410854	0.408496
	H60	H	0.110325	0.412222	0.588382
	H61	H	0.882894	0.594606	0.589563
	H62	H	0.111224	0.593875	0.403673
	H63	H	0.883669	0.413515	0.409412
	H64	H	0.408434	0.599518	0.114359
	H65	H	0.584015	0.590482	0.885109
	H66	H	0.594031	0.422474	0.112322
	H67	H	0.408935	0.409138	0.881819
	H68	H	0.592173	0.122066	0.402353
	H69	H	0.591843	0.888224	0.583623
	H70	H	0.412857	0.113121	0.579067
	H71	H	0.408552	0.888287	0.406303
	H72	H	0.907536	0.618669	0.096024
	H73	H	0.087083	0.389011	0.087125
	H74	H	0.092074	0.617505	0.910760
	H75	H	0.908392	0.387441	0.909109
	H76	H	0.081857	0.914293	0.608034
	H77	H	0.088389	0.087316	0.382446
	H78	H	0.894671	0.088383	0.614020
	H79	H	0.915160	0.915227	0.384219
	H80	H	0.610339	0.093337	0.903494
	H81	H	0.384596	0.096548	0.081552
	H82	H	0.611117	0.913767	0.092760
	H83	H	0.384549	0.912007	0.912812
	H84	H	0.610410	0.907487	0.083837
	H85	H	0.384957	0.089080	0.088412
	H86	H	0.609996	0.095740	0.909641
	H87	H	0.382603	0.919582	0.901720
	H88	H	0.913608	0.082091	0.605852
	H89	H	0.081971	0.087803	0.385203
	H90	H	0.089800	0.904275	0.614569
	H91	H	0.905433	0.905580	0.377687
	H92	H	0.083063	0.616725	0.904419
	H93	H	0.091435	0.387984	0.084794
	H94	H	0.913232	0.612972	0.081406
	H95	H	0.906507	0.387619	0.912341
	H96	H	0.398276	0.118205	0.580981
	H97	H	0.587453	0.887013	0.589410
	H98	H	0.578001	0.115498	0.406602
	H99	H	0.408963	0.888944	0.408473
	H100	H	0.577533	0.418216	0.108469
	H101	H	0.587299	0.596447	0.881669
	H102	H	0.399193	0.596340	0.116703
	H103	H	0.400912	0.420539	0.882153
	H104	H	0.108294	0.593608	0.412493
	H105	H	0.884055	0.594523	0.587334
	H106	H	0.110692	0.410362	0.587269
	H107	H	0.882514	0.412265	0.406342
	H108	H	0.897715	0.617948	0.083073
	H109	H	0.091391	0.385453	0.089901
	H110	H	0.083166	0.614058	0.914449
	H111	H	0.905398	0.386174	0.909160
	H112	H	0.095383	0.918008	0.612056
	H113	H	0.084466	0.093368	0.381655
	H114	H	0.911222	0.101790	0.614049
	H115	H	0.901656	0.919978	0.380102
	H116	H	0.607774	0.089537	0.908051
	H117	H	0.381389	0.097984	0.091158
	H118	H	0.606574	0.917594	0.083271
	H119	H	0.378434	0.906417	0.901821
	C120	C	0.376017	0.010744	0.616769
	C121	C	0.618927	0.994364	0.618059
	C122	C	0.618280	0.012142	0.375419
	C123	C	0.375344	0.994090	0.375044
	C124	C	0.618532	0.381906	0.006431
	C125	C	0.617714	0.623994	0.989781
	C126	C	0.373805	0.626161	0.007121
	C127	C	0.376953	0.384673	0.989866
	C128	C	0.004659	0.623690	0.375352
	C129	C	0.988493	0.624433	0.619799
	C130	C	0.005618	0.379949	0.619884
	C131	C	0.987862	0.379904	0.375892
	C132	C	0.875555	0.510585	0.119045
	C133	C	0.119007	0.493806	0.119658
	C134	C	0.118420	0.510613	0.877878
	C135	C	0.875484	0.493257	0.877942
	C136	C	0.119833	0.879612	0.505112
	C137	C	0.117350	0.122041	0.489089
	C138	C	0.875148	0.123693	0.505171
	C139	C	0.876444	0.882206	0.487257
	C140	C	0.504383	0.125032	0.875265
	C141	C	0.488595	0.125749	0.119215
	C142	C	0.504910	0.882330	0.118434
	C143	C	0.487274	0.881060	0.874774
	C144	C	0.376177	0.889871	0.675599
	C145	C	0.618902	0.115354	0.677300
	C146	C	0.618270	0.890897	0.316803
	C147	C	0.373848	0.115060	0.316517
	C148	C	0.678621	0.378300	0.886080
	C149	C	0.676362	0.625860	0.111399
	C150	C	0.314722	0.627789	0.886128
	C151	C	0.319474	0.383398	0.111485
	C152	C	0.885254	0.684042	0.373233
	C153	C	0.108084	0.682383	0.620444
	C154	C	0.886289	0.320896	0.622012
	C155	C	0.107278	0.319635	0.373914
	C156	C	0.886186	0.378918	0.679644
	C157	C	0.108212	0.624276	0.678663
	C158	C	0.884833	0.624803	0.316647
	C159	C	0.107909	0.378867	0.317567
	C160	C	0.375312	0.681891	0.884278
	C161	C	0.617204	0.682481	0.111645
	C162	C	0.619982	0.321952	0.885472
	C163	C	0.376796	0.325787	0.111084
	C164	C	0.677931	0.891480	0.371480
	C165	C	0.678712	0.114458	0.621338
	C166	C	0.317556	0.890465	0.619537
	C167	C	0.313756	0.113476	0.371016
	C168	C	0.875725	0.389373	0.177173
	C169	C	0.116402	0.615311	0.177981
	C170	C	0.120643	0.389640	0.818693
	C171	C	0.876308	0.614822	0.820189
	C172	C	0.178527	0.876896	0.383952
	C173	C	0.177452	0.124420	0.609568
	C174	C	0.815862	0.126958	0.384145
	C175	C	0.817861	0.881010	0.608374
	C176	C	0.385059	0.184790	0.874267
	C177	C	0.607474	0.185869	0.121823
	C178	C	0.384763	0.824337	0.119806
	C179	C	0.607029	0.822109	0.874595
	C180	C	0.385224	0.882117	0.177556
	C181	C	0.607701	0.127563	0.179093
	C182	C	0.384986	0.127063	0.815930
	C183	C	0.607345	0.880199	0.816997
	C184	C	0.874174	0.183594	0.384316
	C185	C	0.118323	0.180550	0.610680
	C186	C	0.119508	0.820505	0.383577
	C187	C	0.876799	0.824990	0.609326
	C188	C	0.179219	0.390371	0.875539
	C189	C	0.175758	0.615075	0.122355
	C190	C	0.816100	0.390535	0.122132
	C191	C	0.816591	0.614321	0.876010
	C192	C	0.399784	0.094952	0.591551
	C193	C	0.594955	0.910423	0.592677
	C194	C	0.593983	0.096265	0.401284
	C195	C	0.400644	0.910335	0.400321
	C196	C	0.593617	0.408075	0.090440
	C197	C	0.594203	0.599366	0.905089
	C198	C	0.397660	0.602192	0.092148
	C199	C	0.400910	0.409660	0.905370
	C200	C	0.087548	0.598521	0.400490
	C201	C	0.905284	0.600546	0.595570
	C202	C	0.088477	0.404457	0.594541
	C203	C	0.904934	0.405035	0.400840
	C204	C	0.899255	0.594692	0.093987
	C205	C	0.096368	0.409406	0.094607
	C206	C	0.093394	0.594329	0.902642
	C207	C	0.899659	0.408994	0.902772
	C208	C	0.096060	0.904909	0.589651
	C209	C	0.092377	0.096662	0.404941
	C210	C	0.899574	0.098282	0.589347
	C211	C	0.900607	0.906512	0.402545
	C212	C	0.587795	0.100035	0.899876
	C213	C	0.405269	0.101610	0.094125
	C214	C	0.587840	0.906113	0.093759
	C215	C	0.403529	0.905619	0.898542
	Zn216	Zn	0.496125	0.003109	0.745922
	Zn217	Zn	0.497243	0.003975	0.248076
	Zn218	Zn	0.746642	0.502236	-0.001129
	Zn219	Zn	0.247631	0.503867	-0.001553
	Zn220	Zn	-0.003587	0.753123	0.496776
	Zn221	Zn	-0.003203	0.251392	0.497973
	Zn222	Zn	-0.002785	0.501490	0.748980
	Zn223	Zn	-0.003336	0.501343	0.246878
	Zn224	Zn	0.496040	0.752914	-0.002532
	Zn225	Zn	0.496479	0.254884	-0.002547
	Zn226	Zn	0.746953	0.002564	0.495555
	Zn227	Zn	0.247208	0.002165	0.496328
	N228	N	0.411774	0.965925	0.674120
	N229	N	0.582390	0.039843	0.675385
	N230	N	0.582193	0.967083	0.318870
	N231	N	0.411601	0.039856	0.319047
	N232	N	0.677825	0.414879	0.962456
	N233	N	0.677084	0.590372	0.034550
	N234	N	0.313569	0.594173	0.963615
	N235	N	0.319555	0.419337	0.034969
	N236	N	0.960760	0.683534	0.409069
	N237	N	0.032763	0.682604	0.584540
	N238	N	0.961472	0.321273	0.585676
	N239	N	0.031640	0.320012	0.409509
	N240	N	0.961233	0.415148	0.678363
	N241	N	0.032784	0.588894	0.678451
	N242	N	0.959913	0.588081	0.317859
	N243	N	0.032732	0.415442	0.318577
	N244	N	0.410963	0.681324	0.960836
	N245	N	0.581407	0.681349	0.035149
	N246	N	0.583566	0.323996	0.961452
	N247	N	0.411872	0.326537	0.034480
	N248	N	0.678520	0.968005	0.406779
	N249	N	0.678949	0.038057	0.585275
	N250	N	0.317316	0.966777	0.583770
	N251	N	0.314377	0.037028	0.406664
	N252	N	0.912072	0.464993	0.175248
	N253	N	0.081636	0.538858	0.176394
	N254	N	0.083370	0.465143	0.820133
	N255	N	0.912192	0.538490	0.821262
	N256	N	0.179012	0.912929	0.460486
	N257	N	0.176851	0.088609	0.532926
	N258	N	0.816176	0.090570	0.460308
	N259	N	0.817534	0.915685	0.531320
	N260	N	0.460351	0.183631	0.910397
	N261	N	0.532262	0.185054	0.085507
	N262	N	0.460035	0.824411	0.083445
	N263	N	0.531331	0.822381	0.909671
	N264	N	0.460643	0.917582	0.176892
	N265	N	0.532776	0.090795	0.177503
	N266	N	0.460352	0.090714	0.816404
	N267	N	0.531909	0.916307	0.817131
	N268	N	0.910199	0.181843	0.460639
	N269	N	0.081758	0.179206	0.534748
	N270	N	0.083988	0.821994	0.460050
	N271	N	0.912666	0.825766	0.532917
	N272	N	0.177859	0.466564	0.911738
	N273	N	0.177584	0.538746	0.086902
	N274	N	0.815864	0.466891	0.086578
	N275	N	0.815678	0.537670	0.910718
	O276	O	0.338201	0.587223	0.458212
	H277	H	0.333864	0.591447	0.469107
	H278	H	0.328824	0.601809	0.452840
	O279	O	0.443826	0.365169	0.522343
	H280	H	0.461147	0.375760	0.531748
	H281	H	0.459641	0.359428	0.523245
	O282	O	0.548923	0.600482	0.584041
	H283	H	0.561694	0.614349	0.582327
	H284	H	0.546397	0.596124	0.598722
	O285	O	0.941224	-0.137456	-0.088246
	H286	H	0.934849	-0.136420	-0.057250
	H287	H	0.955646	-0.125045	-0.091984
	O288	O	-0.112871	-0.143738	1.141194
	H289	H	-0.131469	-0.133880	1.128137
	H290	H	-0.093127	-0.150188	1.152734
	O291	O	0.538996	0.534241	0.412456
	H292	H	0.548198	0.564255	0.410039
	H293	H	0.514511	0.538323	0.416023
	O294	O	0.367945	0.350346	0.592729
	H295	H	0.377307	0.344547	0.600482
	H296	H	0.342979	0.339715	0.593429
	O297	O	0.971971	0.849357	1.178980
	H298	H	0.988300	0.860922	1.191122
	H299	H	0.967831	0.839848	1.178322
	O300	O	-0.013311	0.068257	0.075532
	H301	H	0.010100	0.055968	0.070078
	H302	H	-0.018125	0.076476	0.079761
	O303	O	0.432447	0.394976	0.628265
	H304	H	0.411374	0.374399	0.632694
	H305	H	0.437392	0.391244	0.633503
	O306	O	0.871428	-0.022089	0.051323
	H307	H	0.880682	-0.033786	0.051513
	H308	H	0.867337	-0.010430	0.063129
	O309	O	0.430649	0.688757	0.439630
	H310	H	0.437427	0.685597	0.455606
	H311	H	0.431826	0.678037	0.438654
	O312	O	0.956425	1.043990	0.144981
	H313	H	0.957763	1.061842	0.130284
	H314	H	0.947194	1.048066	0.150805
	O315	O	0.697775	0.299240	0.449891
	H316	H	0.676045	0.307195	0.411367
	H317	H	0.729471	0.269700	0.453204
	O318	O	0.670248	0.588471	0.488329
	H319	H	0.657234	0.600505	0.505315
	H320	H	0.675977	0.594618	0.493861
	O321	O	1.016547	0.111835	0.925495
	H322	H	1.031542	0.120549	0.930002
	H323	H	0.992127	0.119701	0.929784
	O324	O	-0.159893	-0.109005	1.001300
	H325	H	-0.175604	-0.124127	1.008123
	H326	H	-0.139767	-0.108846	1.006227
	O327	O	0.613786	0.436041	0.588799
	H328	H	0.606621	0.421558	0.590393
	H329	H	0.628775	0.435494	0.587927
	O330	O	0.329810	0.417294	0.573528
	H331	H	0.323832	0.421303	0.559273
	H332	H	0.327170	0.414100	0.564429
	O333	O	0.952247	0.845111	0.927574
	H334	H	0.958906	0.834899	0.935630
	H335	H	0.951092	0.865310	0.938578
	O336	O	0.353499	0.626158	0.377348
	H337	H	0.352072	0.634299	0.385437
	H338	H	0.357392	0.628728	0.377782
	O339	O	1.008597	0.088762	1.120198
	H340	H	1.018206	0.091272	1.095282
	H341	H	1.027198	0.097183	1.139881
	O342	O	0.138096	1.114797	0.898982
	H343	H	0.117563	1.116944	0.890972
	H344	H	0.154713	1.097430	0.897164
	O345	O	0.123111	1.201103	1.178645
	H346	H	0.136395	1.187468	1.183136
	H347	H	0.121557	1.203062	1.169115
	O348	O	0.401441	0.480969	0.631605
	H349	H	0.397676	0.482569	0.619349
	H350	H	0.400901	0.478548	0.647297
	O351	O	0.189959	-0.069027	0.054641
	H352	H	0.189441	-0.076683	0.035811
	H353	H	0.180508	-0.074778	0.066921
	O354	O	0.917332	1.123782	-0.177593
	H355	H	0.913613	1.125846	-0.185801
	H356	H	0.905550	1.125048	-0.162820
	O357	O	-0.104247	1.004193	-0.100195
	H358	H	-0.112248	1.003918	-0.095181
	H359	H	-0.099298	1.013979	-0.103883
	O360	O	0.383018	0.468673	0.604999
	H361	H	0.379792	0.450021	0.598667
	H362	H	0.373529	0.493615	0.606749
	O363	O	0.544572	0.597916	0.380571
	H364	H	0.557847	0.609337	0.397515
	H365	H	0.539797	0.605908	0.388843
	O366	O	0.418578	0.713789	0.609321
	H367	H	0.421173	0.730232	0.611223
	H368	H	0.436261	0.720779	0.598752
	O369	O	0.605373	0.617855	0.548322
	H370	H	0.611832	0.629332	0.567843
	H371	H	0.606801	0.583525	0.549817
	O372	O	0.622063	0.451198	0.378510
	H373	H	0.644550	0.448229	0.373134
	H374	H	0.621044	0.460133	0.389777
	O375	O	0.693270	0.602201	0.692694
	H376	H	0.681165	0.595507	0.704270
	H377	H	0.699114	0.569036	0.687539
	O378	O	0.422135	0.396772	0.598579
	H379	H	0.433125	0.393364	0.610269
	H380	H	0.425649	0.392342	0.570736
	O381	O	0.540808	0.475370	0.532082
	H382	H	0.551016	0.474279	0.552455
	H383	H	0.528437	0.476974	0.510017
	O384	O	0.066462	1.166074	0.913284
	H385	H	0.061078	1.164512	0.902870
	H386	H	0.065386	1.145056	0.908091
	O387	O	1.098145	0.808263	-0.110532
	H388	H	1.091445	0.803539	-0.113942
	H389	H	1.106302	0.801533	-0.105517
	O390	O	0.582346	0.329708	0.335878
	H391	H	0.565993	0.338106	0.318820
	H392	H	0.575721	0.357807	0.325513
	O393	O	1.143699	-0.035075	0.972484
	H394	H	1.151185	-0.035983	0.945186
	H395	H	1.136792	-0.032072	0.969503
	O396	O	-0.203829	1.095945	0.883863
	H397	H	-0.226425	1.100769	0.877208
	H398	H	-0.197933	1.107759	0.883553
	O399	O	0.513668	0.502962	0.355241
	H400	H	0.500143	0.510397	0.364036
	H401	H	0.515354	0.487198	0.360663
	O402	O	0.786598	-0.013398	1.179198
	H403	H	0.763493	-0.002639	1.186867
	H404	H	0.781832	-0.020393	1.175865
	O405	O	0.206545	-0.144395	-0.115398
	H406	H	0.223764	-0.154167	-0.137313
	H407	H	0.215743	-0.164062	-0.125974
	O408	O	1.070701	0.988958	1.127595
	H409	H	1.054187	0.997215	1.124859
	H410	H	1.070274	0.996820	1.133831
	O411	O	1.093513	1.090434	0.063998
	H412	H	1.099514	1.078865	0.081398
	H413	H	1.097046	1.087054	0.073485
	O414	O	-0.106993	0.116643	0.869341
	H415	H	-0.108522	0.109732	0.874133
	H416	H	-0.092282	0.106770	0.861180
	O417	O	0.493855	0.426476	0.426863
	H418	H	0.500071	0.426853	0.407572
	H419	H	0.484079	0.421619	0.422859
	O420	O	-0.068750	0.865422	-0.054295
	H421	H	-0.069210	0.874368	-0.043190
	H422	H	-0.072622	0.873861	-0.058881
	O423	O	1.464387	-0.447880	-0.430660
	H424	H	1.480590	-0.458728	-0.439082
	H425	H	1.462592	-0.458435	-0.438823
	O426	O	0.088853	-0.020114	0.910980
	H427	H	0.085503	-0.028583	0.915278
	H428	H	0.083115	-0.016875	0.907219
	O429	O	0.511215	0.581716	0.379447
	H430	H	0.520912	0.589403	0.386369
	H431	H	0.515809	0.591156	0.394090
