data_Molecule from HDF5

_cell_length_a		16.593830
_cell_length_b		16.604874
_cell_length_c		16.572728
_cell_angle_alpha	89.892411
_cell_angle_beta	90.125669
_cell_angle_gamma	89.991929
_symmetry_space_group_name_H-M	'P 1'
_symmetry_Int_Tables_number		1

loop_
	_symmetry_equiv_pos_as_xyz
	x,y,z

loop_
	_atom_site_label
	_atom_site_type_symbol
	_atom_site_fract_x
	_atom_site_fract_y
	_atom_site_fract_z
	H0	H	0.403153	0.864131	0.706984
	H1	H	0.612053	0.176510	0.708328
	H2	H	0.610684	0.864249	0.266551
	H3	H	0.401998	0.176427	0.265523
	H4	H	0.728038	0.415155	0.832348
	H5	H	0.725614	0.623491	0.143717
	H6	H	0.285067	0.624202	0.830635
	H7	H	0.285569	0.414907	0.143768
	H8	H	0.849446	0.740007	0.383336
	H9	H	0.162311	0.742213	0.592268
	H10	H	0.849601	0.301973	0.589846
	H11	H	0.161056	0.298943	0.381364
	H12	H	0.848751	0.419393	0.704271
	H13	H	0.162398	0.625992	0.708902
	H14	H	0.849821	0.623606	0.266984
	H15	H	0.162653	0.416748	0.266449
	H16	H	0.401949	0.739765	0.830174
	H17	H	0.610630	0.741229	0.142478
	H18	H	0.612805	0.297655	0.832494
	H19	H	0.402676	0.299192	0.143845
	H20	H	0.727500	0.863740	0.382567
	H21	H	0.728653	0.176202	0.592291
	H22	H	0.285989	0.864472	0.591558
	H23	H	0.285479	0.175938	0.381594
	H24	H	0.903498	0.364511	0.207592
	H25	H	0.110134	0.677054	0.207132
	H26	H	0.109878	0.364500	0.766473
	H27	H	0.902901	0.677600	0.767235
	H28	H	0.229193	0.914920	0.331647
	H29	H	0.228295	0.125273	0.642066
	H30	H	0.789755	0.120609	0.328091
	H31	H	0.789203	0.919354	0.644442
	H32	H	0.350632	0.243649	0.879768
	H33	H	0.663000	0.240182	0.090581
	H34	H	0.349828	0.798716	0.091276
	H35	H	0.661961	0.799920	0.882608
	H36	H	0.349683	0.915358	0.207361
	H37	H	0.662684	0.122778	0.207470
	H38	H	0.350095	0.126042	0.764792
	H39	H	0.662410	0.918625	0.768279
	H40	H	0.905635	0.238090	0.327822
	H41	H	0.112036	0.242151	0.642422
	H42	H	0.111936	0.799758	0.330960
	H43	H	0.905322	0.802557	0.644178
	H44	H	0.227251	0.364675	0.881704
	H45	H	0.227180	0.676058	0.092133
	H46	H	0.786897	0.363859	0.090352
	H47	H	0.786060	0.677281	0.883394
	H48	H	0.417031	0.132011	0.572669
	H49	H	0.602645	0.906140	0.577266
	H50	H	0.595981	0.131296	0.399181
	H51	H	0.415124	0.906806	0.396202
	H52	H	0.590418	0.432131	0.097407
	H53	H	0.598716	0.609089	0.873563
	H54	H	0.416362	0.607542	0.097851
	H55	H	0.421372	0.431816	0.877884
	H56	H	0.120049	0.614970	0.396832
	H57	H	0.893544	0.612802	0.577440
	H58	H	0.118350	0.428682	0.572094
	H59	H	0.895092	0.433655	0.397352
	H60	H	0.117264	0.436221	0.576118
	H61	H	0.893830	0.612161	0.576183
	H62	H	0.118383	0.610167	0.400302
	H63	H	0.893191	0.430217	0.395510
	H64	H	0.419379	0.610337	0.098308
	H65	H	0.593255	0.607689	0.875318
	H66	H	0.596171	0.426007	0.101402
	H67	H	0.415474	0.428068	0.873852
	H68	H	0.599212	0.133516	0.395801
	H69	H	0.593176	0.907731	0.583191
	H70	H	0.415129	0.133821	0.576305
	H71	H	0.419478	0.908433	0.397110
	H72	H	0.913688	0.632515	0.072194
	H73	H	0.101909	0.407456	0.071607
	H74	H	0.094824	0.632709	0.898378
	H75	H	0.917722	0.409177	0.898454
	H76	H	0.090647	0.939389	0.593938
	H77	H	0.092883	0.108571	0.375702
	H78	H	0.915101	0.113580	0.600156
	H79	H	0.911918	0.929549	0.371621
	H80	H	0.617787	0.111561	0.900822
	H81	H	0.392031	0.114142	0.077651
	H82	H	0.616087	0.936855	0.076552
	H83	H	0.391528	0.926266	0.897838
	H84	H	0.620664	0.927446	0.081041
	H85	H	0.395870	0.108937	0.068871
	H86	H	0.616825	0.106854	0.897334
	H87	H	0.395352	0.932685	0.900158
	H88	H	0.915545	0.109946	0.599680
	H89	H	0.094149	0.113796	0.374456
	H90	H	0.090297	0.924844	0.599484
	H91	H	0.916035	0.934475	0.374971
	H92	H	0.094333	0.631278	0.898772
	H93	H	0.095564	0.405964	0.084188
	H94	H	0.913528	0.634669	0.080188
	H95	H	0.913054	0.406993	0.896685
	H96	H	0.419321	0.132140	0.576871
	H97	H	0.594318	0.911252	0.572100
	H98	H	0.594390	0.132002	0.394536
	H99	H	0.416048	0.908914	0.400015
	H100	H	0.599062	0.435138	0.099489
	H101	H	0.594238	0.613117	0.873038
	H102	H	0.415663	0.611154	0.100048
	H103	H	0.414632	0.435441	0.875994
	H104	H	0.119486	0.609515	0.394061
	H105	H	0.894189	0.611627	0.577556
	H106	H	0.120429	0.428971	0.580378
	H107	H	0.894371	0.429806	0.400207
	H108	H	0.920348	0.631624	0.076737
	H109	H	0.088889	0.412163	0.073585
	H110	H	0.095312	0.632341	0.899572
	H111	H	0.916945	0.407381	0.892832
	H112	H	0.103565	0.933013	0.600785
	H113	H	0.098283	0.109942	0.374053
	H114	H	0.918111	0.112393	0.598520
	H115	H	0.918714	0.927957	0.373784
	H116	H	0.619004	0.111445	0.895316
	H117	H	0.395611	0.104147	0.078669
	H118	H	0.616160	0.927461	0.070058
	H119	H	0.392346	0.932265	0.892949
	C120	C	0.385813	0.029058	0.607114
	C121	C	0.628576	1.011944	0.609033
	C122	C	0.627692	0.028434	0.365667
	C123	C	0.384586	1.011318	0.364869
	C124	C	0.627557	0.398986	-0.003585
	C125	C	0.627067	0.641648	0.978046
	C126	C	0.384841	0.641349	-0.004498
	C127	C	0.385052	0.398808	0.979054
	C128	C	0.014908	0.642134	0.365642
	C129	C	0.997655	0.643140	0.608920
	C130	C	0.015025	0.399906	0.607379
	C131	C	0.997855	0.399920	0.365973
	C132	C	0.884953	0.529250	0.108191
	C133	C	0.127487	0.511816	0.108554
	C134	C	0.126938	0.528947	0.866217
	C135	C	0.884236	0.511757	0.864658
	C136	C	0.127623	0.899951	0.494940
	C137	C	0.127793	0.142396	0.477865
	C138	C	0.885450	0.142092	0.494861
	C139	C	0.885142	0.899851	0.477753
	C140	C	0.514513	0.142171	0.865415
	C141	C	0.498024	0.140505	0.107316
	C142	C	0.514390	0.898230	0.107978
	C143	C	0.497000	0.899345	0.865678
	C144	C	0.384607	0.910966	0.666781
	C145	C	0.630466	0.129620	0.668394
	C146	C	0.629001	0.910784	0.306608
	C147	C	0.383106	0.129179	0.305159
	C148	C	0.688116	0.396422	0.879153
	C149	C	0.686116	0.642513	0.096331
	C150	C	0.325131	0.642655	0.877537
	C151	C	0.325614	0.396567	0.096791
	C152	C	0.896740	0.700529	0.364555
	C153	C	0.115501	0.702123	0.610571
	C154	C	0.896801	0.341313	0.608783
	C155	C	0.115104	0.339860	0.363561
	C156	C	0.896454	0.399646	0.665706
	C157	C	0.115478	0.644551	0.668691
	C158	C	0.896795	0.642966	0.306540
	C159	C	0.115570	0.398277	0.306516
	C160	C	0.383225	0.700081	0.877239
	C161	C	0.629003	0.700910	0.095864
	C162	C	0.630729	0.338217	0.879199
	C163	C	0.383646	0.338839	0.096709
	C164	C	0.687072	0.910749	0.364210
	C165	C	0.688243	0.129548	0.610605
	C166	C	0.326131	0.911369	0.609594
	C167	C	0.325256	0.129141	0.362857
	C168	C	0.884307	0.411187	0.167364
	C169	C	0.129371	0.629755	0.167987
	C170	C	0.128704	0.411362	0.806294
	C171	C	0.883355	0.630242	0.806198
	C172	C	0.188206	0.897295	0.377940
	C173	C	0.188516	0.144366	0.595095
	C174	C	0.828518	0.140720	0.375455
	C175	C	0.828028	0.899746	0.597105
	C176	C	0.397388	0.202868	0.862103
	C177	C	0.616190	0.199714	0.109004
	C178	C	0.396695	0.838730	0.109979
	C179	C	0.614907	0.840198	0.864243
	C180	C	0.396762	0.896610	0.167709
	C181	C	0.616091	0.141816	0.167137
	C182	C	0.396965	0.144678	0.804794
	C183	C	0.615472	0.899281	0.807582
	C184	C	0.886249	0.198787	0.375309
	C185	C	0.130721	0.202177	0.595521
	C186	C	0.130125	0.839908	0.377664
	C187	C	0.885818	0.842050	0.596891
	C188	C	0.187017	0.411565	0.863623
	C189	C	0.187409	0.629201	0.110699
	C190	C	0.826206	0.410986	0.109575
	C191	C	0.825470	0.630075	0.864092
	C192	C	0.410202	0.111208	0.582448
	C193	C	0.603827	0.929637	0.584563
	C194	C	0.603495	0.110732	0.389825
	C195	C	0.409662	0.929401	0.390415
	C196	C	0.602385	0.423906	0.078247
	C197	C	0.602287	0.617121	0.895501
	C198	C	0.409971	0.616737	0.077357
	C199	C	0.409994	0.424514	0.897120
	C200	C	0.097753	0.618365	0.390135
	C201	C	0.915280	0.619000	0.584170
	C202	C	0.097405	0.424171	0.583129
	C203	C	0.915722	0.424399	0.390552
	C204	C	0.909158	0.611468	0.083546
	C205	C	0.102465	0.429926	0.083615
	C206	C	0.101839	0.610771	0.891518
	C207	C	0.908761	0.429372	0.888917
	C208	C	0.102120	0.925248	0.576852
	C209	C	0.102293	0.117742	0.396039
	C210	C	0.909194	0.118713	0.577765
	C211	C	0.908664	0.923675	0.395004
	C212	C	0.596524	0.116947	0.890655
	C213	C	0.415983	0.115990	0.082511
	C214	C	0.596336	0.923332	0.082897
	C215	C	0.414489	0.923552	0.889975
	Zn216	Zn	0.506000	0.021217	0.736729
	Zn217	Zn	0.506086	0.019113	0.236724
	Zn218	Zn	0.756138	0.520592	-0.012939
	Zn219	Zn	0.256035	0.520021	-0.012463
	Zn220	Zn	0.006634	0.771200	0.486899
	Zn221	Zn	0.006645	0.270798	0.487067
	Zn222	Zn	0.006243	0.520576	0.736658
	Zn223	Zn	0.006458	0.520970	0.237066
	Zn224	Zn	0.505538	0.770090	-0.013231
	Zn225	Zn	0.506159	0.270352	-0.013035
	Zn226	Zn	0.756430	0.020745	0.486739
	Zn227	Zn	0.256375	0.020543	0.486670
	N228	N	0.421022	0.985141	0.665537
	N229	N	0.593994	0.055455	0.667573
	N230	N	0.592651	0.984936	0.307406
	N231	N	0.419126	0.054841	0.306131
	N232	N	0.686181	0.433588	0.953048
	N233	N	0.685289	0.606575	0.021761
	N234	N	0.325887	0.606878	0.952136
	N235	N	0.326133	0.432921	0.022383
	N236	N	0.971578	0.700321	0.400437
	N237	N	0.041125	0.701596	0.574321
	N238	N	0.971653	0.341024	0.573444
	N239	N	0.040831	0.340479	0.399670
	N240	N	0.971083	0.435188	0.665196
	N241	N	0.041036	0.608649	0.667886
	N242	N	0.971471	0.607703	0.307017
	N243	N	0.041588	0.434962	0.307886
	N244	N	0.419469	0.699671	0.951695
	N245	N	0.593232	0.700683	0.021068
	N246	N	0.593789	0.339603	0.953050
	N247	N	0.419743	0.340096	0.022347
	N248	N	0.686491	0.985108	0.400205
	N249	N	0.687245	0.055250	0.574423
	N250	N	0.326776	0.985668	0.573168
	N251	N	0.326029	0.054795	0.399252
	N252	N	0.920008	0.485745	0.166650
	N253	N	0.093050	0.555640	0.167026
	N254	N	0.092329	0.485630	0.807494
	N255	N	0.918939	0.555549	0.806231
	N256	N	0.186658	0.933912	0.451925
	N257	N	0.186909	0.107995	0.520909
	N258	N	0.827621	0.106580	0.450960
	N259	N	0.827225	0.934736	0.521887
	N260	N	0.471541	0.201439	0.898930
	N261	N	0.541761	0.199045	0.072614
	N262	N	0.471022	0.839685	0.073697
	N263	N	0.540108	0.840203	0.899701
	N264	N	0.471042	0.932943	0.166474
	N265	N	0.541499	0.106048	0.166425
	N266	N	0.470913	0.107613	0.806706
	N267	N	0.541129	0.935223	0.808223
	N268	N	0.920737	0.200157	0.450729
	N269	N	0.093737	0.201206	0.521529
	N270	N	0.093056	0.841401	0.451540
	N271	N	0.920317	0.841783	0.521692
	N272	N	0.186306	0.485842	0.899938
	N273	N	0.186544	0.554754	0.074583
	N274	N	0.826273	0.485498	0.073707
	N275	N	0.825672	0.555235	0.899512
	O276	O	-0.105361	0.885340	-0.206381
	H277	H	-0.099593	0.879285	-0.190583
	H278	H	-0.118599	0.866844	-0.225092
	O279	O	0.799628	0.819270	0.193453
	H280	H	0.793413	0.815143	0.144738
	H281	H	0.786681	0.813499	0.205462
	O282	O	0.533521	-0.261376	1.692636
	H283	H	0.533095	-0.254930	1.694761
	H284	H	0.540996	-0.258060	1.701272
	O285	O	0.723178	0.728181	0.523957
	H286	H	0.749067	0.759042	0.521711
	H287	H	0.710846	0.721377	0.544098
	O288	O	0.535971	0.407920	0.434893
	H289	H	0.524865	0.405035	0.431826
	H290	H	0.532210	0.398555	0.451703
	O291	O	0.563681	0.469655	0.712789
	H292	H	0.546791	0.460623	0.689654
	H293	H	0.564270	0.484552	0.715514
	O294	O	1.054474	0.181767	0.983184
	H295	H	1.064067	0.184857	0.983188
	H296	H	1.054634	0.169213	0.989728
	O297	O	0.717315	0.650603	0.699188
	H298	H	0.752373	0.667392	0.733133
	H299	H	0.714302	0.634821	0.695121
	O300	O	-0.491406	-0.417290	0.263693
	H301	H	-0.479130	-0.434010	0.269160
	H302	H	-0.490727	-0.410450	0.262843
	O303	O	-0.023319	0.236630	-0.234179
	H304	H	-0.040386	0.252546	-0.242381
	H305	H	-0.043390	0.247592	-0.238377
	O306	O	0.388047	0.728088	0.602319
	H307	H	0.382686	0.707493	0.600850
	H308	H	0.407915	0.721464	0.589982
	O309	O	0.292198	0.307355	0.508772
	H310	H	0.289334	0.292872	0.523062
	H311	H	0.291793	0.295443	0.515089
	O312	O	0.542298	0.300419	0.268886
	H313	H	0.568602	0.302930	0.271285
	H314	H	0.544833	0.274427	0.251587
	O315	O	0.989642	0.890781	0.955710
	H316	H	0.978909	0.881967	0.955608
	H317	H	0.996038	0.891878	0.945877
	O318	O	0.617036	0.408979	0.509955
	H319	H	0.612534	0.415982	0.513079
	H320	H	0.622216	0.411099	0.497467
	O321	O	0.023202	1.212616	1.181307
	H322	H	0.012207	1.184566	1.170616
	H323	H	0.008854	1.232490	1.180844
	O324	O	0.790334	0.978981	-0.047102
	H325	H	0.797700	0.983712	-0.054834
	H326	H	0.799158	0.996395	-0.048618
	O327	O	-0.575175	0.386582	0.448895
	H328	H	-0.577525	0.397608	0.432930
	H329	H	-0.575748	0.378424	0.437933
	O330	O	-0.036550	0.054783	1.189234
	H331	H	-0.034188	0.027806	1.190522
	H332	H	-0.018923	0.059821	1.189422
	O333	O	0.285466	0.549288	0.518137
	H334	H	0.278512	0.531147	0.527898
	H335	H	0.279682	0.527532	0.493897
	O336	O	1.130448	0.046553	0.076025
	H337	H	1.128982	0.035582	0.058724
	H338	H	1.128087	0.049078	0.066259
	O339	O	1.130266	0.094819	1.207250
	H340	H	1.112756	0.092414	1.200947
	H341	H	1.141984	0.058291	1.216911
	O342	O	-0.333489	-0.509827	0.439453
	H343	H	-0.337895	-0.522658	0.440210
	H344	H	-0.320005	-0.524304	0.425017
	O345	O	-0.207805	0.804397	1.027676
	H346	H	-0.220501	0.806284	1.011843
	H347	H	-0.219760	0.813047	1.011742
	O348	O	0.205004	-0.015614	0.772753
	H349	H	0.201420	0.002528	0.759107
	H350	H	0.202986	0.001101	0.781427
	O351	O	0.389040	0.366521	0.354677
	H352	H	0.399144	0.367776	0.361179
	H353	H	0.373755	0.373331	0.341721
	O354	O	-0.288187	0.315743	0.280121
	H355	H	-0.263623	0.298037	0.267796
	H356	H	-0.298423	0.350211	0.282414
	O357	O	0.043225	0.102902	-0.169999
	H358	H	0.036593	0.081319	-0.164151
	H359	H	0.042050	0.121706	-0.179363
	O360	O	-0.184177	0.150510	1.170169
	H361	H	-0.172460	0.141461	1.152267
	H362	H	-0.164377	0.141283	1.156639
	O363	O	-0.513957	0.468192	0.340800
	H364	H	-0.526314	0.462449	0.345004
	H365	H	-0.527975	0.457817	0.334073
	O366	O	0.448429	0.569129	0.702434
	H367	H	0.445023	0.563470	0.700352
	H368	H	0.451480	0.579819	0.699345
	O369	O	1.155268	0.225708	-0.028614
	H370	H	1.172111	0.247375	-0.026807
	H371	H	1.150514	0.223572	-0.008060
	O372	O	1.214718	1.092406	0.035679
	H373	H	1.223997	1.103821	0.041685
	H374	H	1.215924	1.083560	0.060421
	O375	O	0.832031	0.055485	0.053718
	H376	H	0.858106	0.056974	0.047235
	H377	H	0.823167	0.050065	0.063620
	O378	O	1.197716	-0.170456	-0.145240
	H379	H	1.204362	-0.148936	-0.152478
	H380	H	1.212807	-0.185334	-0.145703
	O381	O	0.012058	0.799256	1.204151
	H382	H	-0.035712	0.809933	1.195061
	H383	H	0.015099	0.761401	1.240050
	O384	O	0.801524	0.225689	0.776083
	H385	H	0.798626	0.228207	0.822307
	H386	H	0.769130	0.258393	0.748388
	O387	O	1.206712	0.823459	0.034831
	H388	H	1.199450	0.818413	0.036810
	H389	H	1.205463	0.828593	0.027668
	O390	O	0.224547	0.796790	1.252177
	H391	H	0.231877	0.784490	1.247797
	H392	H	0.219982	0.783497	1.281236
	O393	O	0.713778	0.554740	0.634852
	H394	H	0.700176	0.551354	0.637661
	H395	H	0.725679	0.552881	0.629202
	O396	O	0.272255	0.758983	0.720173
	H397	H	0.273956	0.774663	0.709881
	H398	H	0.290639	0.740499	0.713692
	O399	O	0.477759	-0.332777	1.459165
	H400	H	0.473341	-0.320201	1.451793
	H401	H	0.488744	-0.329576	1.443290
	O402	O	0.311561	0.329976	0.685553
	H403	H	0.314272	0.308034	0.706164
	H404	H	0.315218	0.352397	0.679429
	O405	O	0.859916	0.024381	0.775798
	H406	H	0.861951	0.032022	0.777072
	H407	H	0.841079	0.038007	0.761245
	O408	O	-0.233028	-0.212030	-0.251787
	H409	H	-0.215677	-0.207423	-0.261273
	H410	H	-0.247160	-0.203742	-0.239099
	O411	O	0.298085	0.728039	0.389925
	H412	H	0.288374	0.739677	0.394018
	H413	H	0.314288	0.734044	0.404730
	O414	O	0.622168	0.659827	0.307978
	H415	H	0.605004	0.653879	0.306411
	H416	H	0.616954	0.641283	0.324805
	O417	O	0.451821	0.451095	0.489187
	H418	H	0.447648	0.457483	0.475088
	H419	H	0.454371	0.424884	0.476683
	O420	O	0.286331	0.549541	0.266965
	H421	H	0.285731	0.572496	0.262861
	H422	H	0.277006	0.544475	0.243220
	O423	O	0.221398	0.081638	0.915029
	H424	H	0.232833	0.111665	0.917994
	H425	H	0.218305	0.079301	0.916890
	O426	O	1.008000	0.031309	-0.162662
	H427	H	0.998332	0.029764	-0.174935
	H428	H	0.989726	0.018150	-0.162551
	O429	O	1.520795	0.720699	1.319576
	H430	H	1.505670	0.725502	1.335865
	H431	H	1.521225	0.718590	1.314459
	O432	O	0.289032	0.493623	0.698838
	H433	H	0.280527	0.489252	0.716403
	H434	H	0.290055	0.491864	0.700688
	O435	O	0.457024	1.531803	-0.480308
	H436	H	0.431822	1.526871	-0.487552
	H437	H	0.453709	1.531539	-0.468653
	O438	O	0.693656	0.331556	0.678884
	H439	H	0.670216	0.358146	0.677916
	H440	H	0.679016	0.341520	0.644268
	O441	O	-0.079914	0.241073	0.072192
	H442	H	-0.081971	0.232470	0.066834
	H443	H	-0.079415	0.244537	0.055317
	O444	O	0.669096	0.588842	0.467095
	H445	H	0.672000	0.599847	0.488138
	H446	H	0.668634	0.592275	0.454927
	O447	O	0.532256	1.729243	1.488906
	H448	H	0.535224	1.723007	1.482599
	H449	H	0.534327	1.733823	1.507548
	O450	O	-0.158470	0.949678	1.188551
	H451	H	-0.159145	0.925071	1.185594
	H452	H	-0.164445	0.946782	1.208806
	O453	O	0.253588	0.272374	1.238150
	H454	H	0.233506	0.268539	1.229829
	H455	H	0.247409	0.253003	1.247527
	O456	O	0.124157	-0.147069	1.053664
	H457	H	0.107617	-0.148981	1.049477
	H458	H	0.143408	-0.170438	1.050857
	O459	O	0.932097	1.065648	-0.027081
	H460	H	0.938705	1.063217	-0.031435
	H461	H	0.929544	1.055562	-0.030872
	O462	O	0.376396	0.446926	0.459248
	H463	H	0.367561	0.448556	0.443646
	H464	H	0.388772	0.438863	0.465718
	O465	O	1.221291	0.054350	0.203122
	H466	H	1.239052	0.042269	0.193829
	H467	H	1.225657	0.046929	0.210395
	O468	O	0.702501	0.555516	0.290899
	H469	H	0.712818	0.570537	0.286392
	H470	H	0.682425	0.571793	0.299760
	O471	O	0.728360	0.295434	0.452071
	H472	H	0.733580	0.288112	0.440968
	H473	H	0.743541	0.282746	0.439332
	O474	O	0.798177	0.223311	-0.053063
	H475	H	0.799784	0.206588	-0.040624
	H476	H	0.789006	0.228225	-0.041944
	O477	O	0.487817	0.303210	1.683379
	H478	H	0.491966	0.306124	1.681676
	H479	H	0.488051	0.288560	1.694106
	O480	O	0.036752	-0.188634	0.768724
	H481	H	0.059083	-0.198847	0.753203
	H482	H	0.064307	-0.192571	0.764113
	O483	O	-0.076375	-0.040714	0.969572
	H484	H	-0.074152	-0.040605	0.971495
	H485	H	-0.088869	-0.036060	0.966814
	O486	O	1.203441	0.216268	0.794429
	H487	H	1.183780	0.187130	0.797232
	H488	H	1.192376	0.225365	0.798214
	O489	O	1.019649	0.819180	-0.017258
	H490	H	1.026541	0.808546	-0.013333
	H491	H	1.016221	0.813819	-0.014156
