data_Molecule from HDF5

_cell_length_a		16.576498
_cell_length_b		16.526005
_cell_length_c		16.389308
_cell_angle_alpha	89.991571
_cell_angle_beta	90.078412
_cell_angle_gamma	90.038295
_symmetry_space_group_name_H-M	'P 1'
_symmetry_Int_Tables_number		1

loop_
	_symmetry_equiv_pos_as_xyz
	x,y,z

loop_
	_atom_site_label
	_atom_site_type_symbol
	_atom_site_fract_x
	_atom_site_fract_y
	_atom_site_fract_z
	H0	H	0.383991	0.841299	0.716751
	H1	H	0.589890	0.157874	0.712424
	H2	H	0.596649	0.843260	0.272436
	H3	H	0.381035	0.154896	0.269801
	H4	H	0.708180	0.396040	0.838661
	H5	H	0.712178	0.604756	0.154227
	H6	H	0.263953	0.609297	0.841104
	H7	H	0.263002	0.386802	0.151776
	H8	H	0.836106	0.722506	0.387448
	H9	H	0.147074	0.724217	0.605394
	H10	H	0.834604	0.278677	0.598810
	H11	H	0.145618	0.270921	0.382405
	H12	H	0.835119	0.395188	0.715835
	H13	H	0.147872	0.606266	0.719846
	H14	H	0.835118	0.604722	0.273014
	H15	H	0.147442	0.390108	0.269898
	H16	H	0.382932	0.721255	0.838484
	H17	H	0.596297	0.721186	0.153736
	H18	H	0.591745	0.280054	0.838311
	H19	H	0.377506	0.271406	0.151819
	H20	H	0.714144	0.843554	0.387007
	H21	H	0.710655	0.155967	0.600209
	H22	H	0.265323	0.842667	0.604063
	H23	H	0.261992	0.153411	0.382867
	H24	H	0.884884	0.341980	0.218610
	H25	H	0.098655	0.654990	0.220941
	H26	H	0.095305	0.341467	0.775837
	H27	H	0.889304	0.656897	0.778461
	H28	H	0.213709	0.889552	0.337596
	H29	H	0.213460	0.107087	0.652554
	H30	H	0.766310	0.106670	0.338172
	H31	H	0.772764	0.896823	0.654603
	H32	H	0.332024	0.221371	0.890023
	H33	H	0.644573	0.222865	0.104626
	H34	H	0.335360	0.769917	0.108067
	H35	H	0.646373	0.778771	0.892208
	H36	H	0.334774	0.887935	0.222780
	H37	H	0.646021	0.104755	0.218585
	H38	H	0.330926	0.102411	0.775061
	H39	H	0.647039	0.898727	0.778954
	H40	H	0.882427	0.221783	0.337167
	H41	H	0.098004	0.223029	0.652106
	H42	H	0.098878	0.773895	0.338180
	H43	H	0.888659	0.780428	0.654446
	H44	H	0.215782	0.344018	0.886755
	H45	H	0.218565	0.653016	0.109561
	H46	H	0.767852	0.341841	0.103710
	H47	H	0.770791	0.656518	0.893116
	H48	H	0.399075	0.109927	0.581014
	H49	H	0.579609	0.884728	0.589836
	H50	H	0.579504	0.108831	0.416054
	H51	H	0.403903	0.889901	0.410468
	H52	H	0.582892	0.413348	0.112159
	H53	H	0.583322	0.587933	0.881701
	H54	H	0.406603	0.581723	0.106351
	H55	H	0.406419	0.416914	0.887966
	H56	H	0.100838	0.581846	0.411306
	H57	H	0.878526	0.590483	0.587120
	H58	H	0.105809	0.406257	0.586486
	H59	H	0.878407	0.407271	0.405769
	H60	H	0.103098	0.408978	0.580083
	H61	H	0.879881	0.589954	0.583314
	H62	H	0.102968	0.585661	0.407370
	H63	H	0.882904	0.410200	0.411486
	H64	H	0.407223	0.584612	0.107015
	H65	H	0.578986	0.587242	0.883691
	H66	H	0.574590	0.410762	0.109780
	H67	H	0.405953	0.408985	0.884877
	H68	H	0.583099	0.113732	0.405103
	H69	H	0.581991	0.885881	0.582954
	H70	H	0.399266	0.111581	0.585647
	H71	H	0.401345	0.889115	0.411985
	H72	H	0.903035	0.608701	0.079391
	H73	H	0.072463	0.391997	0.076736
	H74	H	0.086317	0.613755	0.909015
	H75	H	0.897009	0.382887	0.901419
	H76	H	0.074957	0.912728	0.606165
	H77	H	0.079250	0.084155	0.382276
	H78	H	0.901192	0.088664	0.608995
	H79	H	0.900407	0.904878	0.378910
	H80	H	0.604240	0.096137	0.901598
	H81	H	0.378748	0.081426	0.084228
	H82	H	0.604164	0.905956	0.089036
	H83	H	0.375363	0.908546	0.904665
	H84	H	0.598766	0.907241	0.075856
	H85	H	0.376406	0.088065	0.083183
	H86	H	0.599549	0.092286	0.911743
	H87	H	0.375671	0.905992	0.907716
	H88	H	0.900771	0.090332	0.609164
	H89	H	0.074537	0.081922	0.384983
	H90	H	0.077903	0.910299	0.607679
	H91	H	0.897741	0.915660	0.381846
	H92	H	0.073218	0.611819	0.903380
	H93	H	0.081835	0.387848	0.078021
	H94	H	0.896362	0.612047	0.083914
	H95	H	0.901215	0.385203	0.905822
	H96	H	0.403168	0.109783	0.583662
	H97	H	0.586200	0.882865	0.588164
	H98	H	0.571485	0.109444	0.406580
	H99	H	0.402174	0.888035	0.409243
	H100	H	0.579999	0.404754	0.113453
	H101	H	0.580289	0.591317	0.881845
	H102	H	0.404135	0.583259	0.107255
	H103	H	0.399562	0.414375	0.884285
	H104	H	0.101968	0.587666	0.412712
	H105	H	0.880592	0.586756	0.585925
	H106	H	0.103284	0.413682	0.586001
	H107	H	0.880998	0.414103	0.405639
	H108	H	0.904190	0.611086	0.087420
	H109	H	0.075363	0.387700	0.085473
	H110	H	0.076609	0.606429	0.916530
	H111	H	0.894603	0.383879	0.907939
	H112	H	0.079128	0.914122	0.606705
	H113	H	0.074329	0.087557	0.382969
	H114	H	0.899644	0.089229	0.609108
	H115	H	0.908025	0.911656	0.384302
	H116	H	0.601611	0.084912	0.901803
	H117	H	0.380960	0.084960	0.077676
	H118	H	0.597633	0.917469	0.085155
	H119	H	0.377029	0.909763	0.908050
	C120	C	0.367672	0.006984	0.616743
	C121	C	0.612255	0.989652	0.617639
	C122	C	0.611242	0.007407	0.375137
	C123	C	0.368082	0.990816	0.374475
	C124	C	0.610390	0.378069	0.006290
	C125	C	0.612596	0.620638	0.987322
	C126	C	0.370275	0.618764	0.004353
	C127	C	0.368690	0.378057	0.988342
	C128	C	-0.000603	0.618931	0.375600
	C129	C	0.982853	0.621645	0.618408
	C130	C	0.000074	0.377816	0.616188
	C131	C	0.983088	0.375964	0.372641
	C132	C	0.868499	0.507292	0.117418
	C133	C	0.111828	0.491065	0.116515
	C134	C	0.112071	0.507538	0.875535
	C135	C	0.868134	0.489290	0.874507
	C136	C	0.111485	0.878012	0.503287
	C137	C	0.110633	0.119479	0.486860
	C138	C	0.868255	0.121170	0.504155
	C139	C	0.870465	0.878793	0.486679
	C140	C	0.497326	0.121935	0.873477
	C141	C	0.481446	0.119142	0.116414
	C142	C	0.497780	0.875781	0.118285
	C143	C	0.480295	0.877567	0.875229
	C144	C	0.365312	0.888828	0.677338
	C145	C	0.610668	0.109617	0.674556
	C146	C	0.614626	0.890267	0.313019
	C147	C	0.363179	0.107735	0.310552
	C148	C	0.668891	0.376886	0.886479
	C149	C	0.672149	0.623038	0.106840
	C150	C	0.306172	0.625159	0.887386
	C151	C	0.304762	0.370914	0.105305
	C152	C	0.882795	0.681391	0.370702
	C153	C	0.100430	0.683014	0.622336
	C154	C	0.882026	0.318377	0.617768
	C155	C	0.099168	0.312488	0.366375
	C156	C	0.882154	0.376210	0.676020
	C157	C	0.100736	0.624221	0.679455
	C158	C	0.882255	0.622779	0.313431
	C159	C	0.100042	0.371979	0.310237
	C160	C	0.365265	0.681257	0.886282
	C161	C	0.614575	0.680982	0.106365
	C162	C	0.610972	0.319341	0.886241
	C163	C	0.361771	0.313151	0.105155
	C164	C	0.673281	0.890320	0.370080
	C165	C	0.670515	0.108830	0.618438
	C166	C	0.305946	0.889706	0.621057
	C167	C	0.304135	0.107184	0.367214
	C168	C	0.866419	0.389316	0.178595
	C169	C	0.116510	0.607844	0.180201
	C170	C	0.114331	0.389119	0.815018
	C171	C	0.869152	0.609155	0.816840
	C172	C	0.173409	0.872853	0.385145
	C173	C	0.172681	0.124377	0.605096
	C174	C	0.806743	0.124435	0.385504
	C175	C	0.812050	0.877701	0.606573
	C176	C	0.378894	0.181014	0.871755
	C177	C	0.598097	0.181521	0.121403
	C178	C	0.381696	0.811745	0.124307
	C179	C	0.599279	0.819140	0.873610
	C180	C	0.381307	0.870789	0.181517
	C181	C	0.598756	0.122783	0.178350
	C182	C	0.378328	0.121951	0.814494
	C183	C	0.599485	0.878331	0.817075
	C184	C	0.864841	0.181802	0.385011
	C185	C	0.115315	0.182300	0.604760
	C186	C	0.116057	0.815208	0.385240
	C187	C	0.869432	0.819509	0.606582
	C188	C	0.174203	0.390491	0.870361
	C189	C	0.176142	0.606987	0.124451
	C190	C	0.808053	0.389148	0.121254
	C191	C	0.810475	0.608952	0.874063
	C192	C	0.393191	0.088988	0.590759
	C193	C	0.589188	0.906252	0.593927
	C194	C	0.585329	0.089337	0.401554
	C195	C	0.394865	0.910047	0.402454
	C196	C	0.586235	0.402430	0.089967
	C197	C	0.587768	0.595789	0.904120
	C198	C	0.397988	0.591114	0.085700
	C199	C	0.396033	0.405780	0.907012
	C200	C	0.080794	0.592358	0.402792
	C201	C	0.901111	0.596356	0.592638
	C202	C	0.082547	0.402426	0.591249
	C203	C	0.901835	0.402688	0.399896
	C204	C	0.893886	0.589086	0.091038
	C205	C	0.084419	0.410412	0.088064
	C206	C	0.086182	0.589218	0.902032
	C207	C	0.890848	0.405795	0.898152
	C208	C	0.084936	0.904803	0.585513
	C209	C	0.083896	0.092400	0.404747
	C210	C	0.893529	0.096504	0.587273
	C211	C	0.895016	0.903453	0.403405
	C212	C	0.580153	0.097994	0.897921
	C213	C	0.399908	0.092413	0.089431
	C214	C	0.578732	0.902594	0.091245
	C215	C	0.397705	0.901115	0.899750
	Zn216	Zn	0.488565	-0.001168	0.745602
	Zn217	Zn	0.489355	-0.001149	0.246020
	Zn218	Zn	0.739608	0.498668	-0.003197
	Zn219	Zn	0.240900	0.498757	-0.003036
	Zn220	Zn	-0.008251	0.749670	0.495789
	Zn221	Zn	-0.009250	0.248448	0.494455
	Zn222	Zn	-0.008587	0.498880	0.746800
	Zn223	Zn	-0.008815	0.498769	0.245117
	Zn224	Zn	0.490109	0.747942	-0.004232
	Zn225	Zn	0.488742	0.249656	-0.002971
	Zn226	Zn	0.741183	-0.000900	0.495353
	Zn227	Zn	0.239220	-0.001237	0.495047
	N228	N	0.402847	0.962739	0.674848
	N229	N	0.575285	0.034420	0.674549
	N230	N	0.576860	0.964074	0.315960
	N231	N	0.402164	0.034490	0.314895
	N232	N	0.668768	0.412420	0.962214
	N233	N	0.671118	0.586506	0.031612
	N234	N	0.309059	0.587103	0.961749
	N235	N	0.308813	0.410530	0.031659
	N236	N	0.956777	0.679110	0.408747
	N237	N	0.026192	0.681498	0.584957
	N238	N	0.956559	0.319122	0.581463
	N239	N	0.025223	0.314760	0.404258
	N240	N	0.956825	0.412417	0.675163
	N241	N	0.026814	0.586539	0.677106
	N242	N	0.955777	0.584550	0.316484
	N243	N	0.026766	0.410614	0.313852
	N244	N	0.404472	0.677415	0.960126
	N245	N	0.578196	0.679686	0.031021
	N246	N	0.575300	0.319818	0.962043
	N247	N	0.400983	0.317426	0.031471
	N248	N	0.671215	0.964474	0.408072
	N249	N	0.672073	0.032980	0.584247
	N250	N	0.307144	0.964391	0.584110
	N251	N	0.306851	0.033504	0.406015
	N252	N	0.903332	0.463684	0.176443
	N253	N	0.077388	0.534655	0.175460
	N254	N	0.076707	0.462949	0.817907
	N255	N	0.904184	0.533819	0.816905
	N256	N	0.170427	0.911242	0.459555
	N257	N	0.170073	0.086100	0.530702
	N258	N	0.808653	0.087607	0.460621
	N259	N	0.812399	0.913337	0.530948
	N260	N	0.453862	0.181182	0.907594
	N261	N	0.523981	0.179397	0.083774
	N262	N	0.455261	0.814804	0.085702
	N263	N	0.524231	0.818341	0.908805
	N264	N	0.454434	0.909703	0.178043
	N265	N	0.525054	0.084608	0.175266
	N266	N	0.453260	0.086265	0.815205
	N267	N	0.524499	0.913712	0.817681
	N268	N	0.902760	0.179777	0.459643
	N269	N	0.077722	0.179482	0.530009
	N270	N	0.078331	0.818149	0.459747
	N271	N	0.904997	0.819774	0.530819
	N272	N	0.173240	0.465226	0.907121
	N273	N	0.173430	0.533266	0.085631
	N274	N	0.809260	0.463600	0.084065
	N275	N	0.809480	0.533305	0.909067
	O276	O	0.832325	0.076632	-0.004763
	H277	H	0.843081	0.077683	-0.013578
	H278	H	0.828716	0.087209	-0.010640
	O279	O	0.524547	0.426117	0.631801
	H280	H	0.525556	0.414985	0.640287
	H281	H	0.521305	0.427753	0.633193
	O282	O	0.892254	0.812455	0.070010
	H283	H	0.881223	0.823770	0.075817
	H284	H	0.882161	0.808540	0.067188
	O285	O	0.270284	0.471293	0.709430
	H286	H	0.295526	0.491730	0.724798
	H287	H	0.252904	0.476245	0.729493
	O288	O	-0.053773	0.041153	0.009927
	H289	H	-0.057890	0.027428	0.010122
	H290	H	-0.045998	0.044614	0.003801
	O291	O	0.924869	1.212625	0.058349
	H292	H	0.922167	1.219826	0.052648
	H293	H	0.947909	1.218289	0.088068
	O294	O	-0.180540	1.030869	-0.156704
	H295	H	-0.180877	1.046481	-0.157813
	H296	H	-0.185289	1.052873	-0.163231
	O297	O	0.318760	0.430065	0.386446
	H298	H	0.328209	0.430103	0.359997
	H299	H	0.304148	0.446619	0.407608
	O300	O	0.529537	0.453059	0.280882
	H301	H	0.539549	0.441099	0.287731
	H302	H	0.522716	0.470520	0.271542
	O303	O	0.460380	0.279207	0.712942
	H304	H	0.437775	0.260345	0.723545
	H305	H	0.438994	0.268226	0.713758
	O306	O	0.012566	1.216437	1.208780
	H307	H	0.028721	1.232597	1.233621
	H308	H	-0.000206	1.196897	1.229606
	O309	O	0.841882	0.925085	0.853701
	H310	H	0.826638	0.943382	0.839640
	H311	H	0.840010	0.919659	0.843639
	O312	O	0.293332	0.571773	0.557967
	H313	H	0.306357	0.564497	0.563461
	H314	H	0.298667	0.570460	0.574852
	O315	O	-0.213282	0.152256	0.788812
	H316	H	-0.245172	0.168140	0.757642
	H317	H	-0.199151	0.170508	0.809917
	O318	O	0.037860	1.212656	-0.064194
	H319	H	0.038301	1.207863	-0.056581
	H320	H	0.025590	1.202696	-0.079999
	O321	O	0.676655	0.313979	0.681219
	H322	H	0.658941	0.329936	0.658486
	H323	H	0.656226	0.329057	0.668412
	O324	O	1.302453	0.309500	0.678665
	H325	H	1.293737	0.325653	0.648910
	H326	H	1.292654	0.331379	0.697299
	O327	O	0.957666	0.216492	0.777756
	H328	H	0.965440	0.224097	0.773277
	H329	H	0.947245	0.225045	0.764589
	O330	O	1.054162	0.060757	-0.226700
	H331	H	1.036796	0.054346	-0.210222
	H332	H	1.038176	0.059507	-0.237315
	O333	O	0.909311	0.841947	0.887887
	H334	H	0.888782	0.830920	0.908172
	H335	H	0.913714	0.846393	0.880549
	O336	O	1.191210	0.205635	1.006595
	H337	H	1.197350	0.208223	0.996433
	H338	H	1.187641	0.199724	0.988684
	O339	O	0.297326	0.616614	0.302394
	H340	H	0.311754	0.619923	0.303453
	H341	H	0.277127	0.628176	0.320399
	O342	O	0.394681	0.312225	0.439992
	H343	H	0.385845	0.305042	0.430641
	H344	H	0.374011	0.315899	0.430113
	O345	O	0.043289	0.025320	-0.123402
	H346	H	0.041770	0.017737	-0.117783
	H347	H	0.038871	0.014722	-0.118879
	O348	O	1.206630	-0.215824	0.977195
	H349	H	1.224770	-0.238192	0.982305
	H350	H	1.198827	-0.209863	0.998612
	O351	O	0.869829	0.856120	0.074916
	H352	H	0.869387	0.864321	0.076295
	H353	H	0.870922	0.856791	0.075174
	O354	O	0.635326	0.588987	0.485487
	H355	H	0.626667	0.584845	0.473101
	H356	H	0.636646	0.594231	0.483816
	O357	O	0.785771	1.144424	0.974992
	H358	H	0.770699	1.159940	0.960636
	H359	H	0.814086	1.160140	0.972210
	O360	O	0.362396	0.525138	0.283981
	H361	H	0.367882	0.519182	0.290525
	H362	H	0.336513	0.533557	0.257109
	O363	O	0.421067	0.707295	0.656904
	H364	H	0.420375	0.716099	0.656456
	H365	H	0.416023	0.709639	0.675692
	O366	O	1.169666	0.176485	1.169820
	H367	H	1.139500	0.188425	1.155621
	H368	H	1.179316	0.168756	1.141129
	O369	O	0.645985	0.496325	0.669666
	H370	H	0.639648	0.503567	0.670446
	H371	H	0.651815	0.500050	0.674535
	O372	O	0.467645	0.712537	0.286624
	H373	H	0.476893	0.724678	0.289466
	H374	H	0.452491	0.720121	0.273464
	O375	O	0.209132	1.019584	1.210723
	H376	H	0.202925	1.044096	1.192262
	H377	H	0.244170	1.023530	1.242610
	O378	O	0.783484	-0.033747	0.200963
	H379	H	0.766163	-0.027750	0.196567
	H380	H	0.772275	-0.021406	0.194557
	O381	O	1.220680	-0.063745	0.056806
	H382	H	1.223354	-0.066116	0.039822
	H383	H	1.213901	-0.053602	0.079105
	O384	O	0.020247	-0.202662	1.104155
	H385	H	0.008652	-0.201763	1.128691
	H386	H	0.010269	-0.207498	1.097609
	O387	O	-0.166236	0.787863	1.201794
	H388	H	-0.171667	0.789562	1.206728
	H389	H	-0.168697	0.809306	1.199183
	O390	O	0.012001	-0.201997	0.796669
	H391	H	0.031295	-0.202376	0.804841
	H392	H	0.016861	-0.218619	0.792840
	O393	O	0.779105	1.104852	-0.036884
	H394	H	0.773237	1.124478	-0.034636
	H395	H	0.784476	1.115870	-0.059809
	O396	O	0.597835	0.660251	0.691965
	H397	H	0.604955	0.685886	0.707838
	H398	H	0.621300	0.663429	0.663983
	O399	O	0.176132	0.810353	0.812870
	H400	H	0.187442	0.844733	0.824253
	H401	H	0.165500	0.801834	0.848181
	O402	O	0.015061	-0.109655	1.204153
	H403	H	0.039930	-0.095656	1.200485
	H404	H	0.007786	-0.117534	1.207863
	O405	O	-0.300667	0.291124	0.460985
	H406	H	-0.292973	0.279419	0.462866
	H407	H	-0.308939	0.289899	0.463726
	O408	O	0.512842	0.291693	0.525441
	H409	H	0.491785	0.292381	0.529517
	H410	H	0.510541	0.287729	0.519889
	O411	O	0.538245	0.463455	0.477661
	H412	H	0.554428	0.461931	0.474320
	H413	H	0.534366	0.457330	0.471982
	O414	O	0.737473	0.745320	0.738682
	H415	H	0.741707	0.752456	0.731948
	H416	H	0.751624	0.734899	0.739670
	O417	O	0.270312	0.277618	0.514888
	H418	H	0.240891	0.260667	0.526601
	H419	H	0.257236	0.296695	0.511806
	O420	O	0.436682	0.716258	0.551380
	H421	H	0.418888	0.718309	0.547258
	H422	H	0.449323	0.710625	0.563286
	O423	O	0.198933	0.972829	-0.212076
	H424	H	0.162537	0.975949	-0.219660
	H425	H	0.224420	0.974170	-0.233307
	O426	O	0.594363	1.618246	1.449213
	H427	H	0.579955	1.611646	1.458455
	H428	H	0.605677	1.622431	1.451175
	O429	O	0.710048	0.714253	0.526528
	H430	H	0.705258	0.713843	0.506977
	H431	H	0.729665	0.728788	0.518163
	O432	O	0.644872	0.430380	0.586131
	H433	H	0.644678	0.453375	0.590437
	H434	H	0.638968	0.435175	0.603695
	O435	O	0.642849	-0.389497	0.412439
	H436	H	0.652435	-0.384976	0.402043
	H437	H	0.642531	-0.399010	0.408832
	O438	O	1.200320	0.050259	-0.057783
	H439	H	1.200547	0.044522	-0.063139
	H440	H	1.191048	0.035483	-0.071888
	O441	O	0.291934	0.691113	0.417488
	H442	H	0.291760	0.687766	0.446936
	H443	H	0.300989	0.699873	0.424678
	O444	O	0.659126	0.512122	0.387018
	H445	H	0.660100	0.505453	0.394032
	H446	H	0.677440	0.513575	0.366264
	O447	O	0.520915	0.286059	0.284970
	H448	H	0.499778	0.296930	0.275724
	H449	H	0.512546	0.264481	0.281220
	O450	O	0.366793	0.530097	0.543520
	H451	H	0.379086	0.525915	0.533908
	H452	H	0.375661	0.517436	0.543757
	O453	O	0.675660	0.342544	0.310923
	H454	H	0.631869	0.330765	0.297650
	H455	H	0.683260	0.340299	0.347482
	O456	O	0.932717	0.060534	0.212518
	H457	H	0.928405	0.036215	0.213099
	H458	H	0.928474	0.058493	0.210355
	O459	O	0.439839	0.577767	0.718462
	H460	H	0.449556	0.588282	0.697732
	H461	H	0.466833	0.581413	0.730608
	O462	O	0.596608	0.611198	0.295698
	H463	H	0.601879	0.615877	0.298220
	H464	H	0.599804	0.605264	0.294853
	O465	O	1.018743	-0.137634	0.013731
	H466	H	0.996178	-0.141815	0.018384
	H467	H	1.028868	-0.141063	0.020218
