data_Molecule from HDF5

_cell_length_a		16.713401
_cell_length_b		16.590450
_cell_length_c		16.614882
_cell_angle_alpha	89.886163
_cell_angle_beta	90.040938
_cell_angle_gamma	90.059195
_symmetry_space_group_name_H-M	'P 1'
_symmetry_Int_Tables_number		1

loop_
	_symmetry_equiv_pos_as_xyz
	x,y,z

loop_
	_atom_site_label
	_atom_site_type_symbol
	_atom_site_fract_x
	_atom_site_fract_y
	_atom_site_fract_z
	H0	H	0.390389	0.842510	0.726711
	H1	H	0.606053	0.149416	0.724380
	H2	H	0.602833	0.837888	0.283312
	H3	H	0.396318	0.151975	0.282333
	H4	H	0.729198	0.381992	0.852727
	H5	H	0.719551	0.598390	0.160201
	H6	H	0.277860	0.601291	0.848664
	H7	H	0.275193	0.383919	0.155584
	H8	H	0.846528	0.717343	0.396082
	H9	H	0.152028	0.720818	0.611962
	H10	H	0.843534	0.275873	0.607446
	H11	H	0.155767	0.276808	0.402336
	H12	H	0.844739	0.388767	0.726257
	H13	H	0.152042	0.605837	0.729185
	H14	H	0.846373	0.600045	0.280179
	H15	H	0.156247	0.392301	0.285298
	H16	H	0.392220	0.718820	0.849584
	H17	H	0.602272	0.713601	0.160577
	H18	H	0.613998	0.266486	0.852868
	H19	H	0.393604	0.271213	0.157427
	H20	H	0.722256	0.840512	0.395526
	H21	H	0.721030	0.150528	0.608017
	H22	H	0.274331	0.842107	0.611755
	H23	H	0.278298	0.150838	0.395368
	H24	H	0.895691	0.339056	0.223985
	H25	H	0.106482	0.649952	0.223974
	H26	H	0.105572	0.339746	0.781245
	H27	H	0.894921	0.650939	0.782460
	H28	H	0.225934	0.883255	0.351314
	H29	H	0.222147	0.102069	0.657171
	H30	H	0.782003	0.095732	0.347016
	H31	H	0.773812	0.884479	0.656648
	H32	H	0.348912	0.221029	0.892688
	H33	H	0.654157	0.216929	0.109191
	H34	H	0.344925	0.773338	0.108346
	H35	H	0.653926	0.772149	0.896814
	H36	H	0.345057	0.889006	0.224739
	H37	H	0.654285	0.098630	0.223796
	H38	H	0.349188	0.107229	0.775624
	H39	H	0.652877	0.886800	0.778014
	H40	H	0.898865	0.212775	0.346456
	H41	H	0.104327	0.215963	0.658964
	H42	H	0.107211	0.771000	0.349583
	H43	H	0.889793	0.768088	0.655841
	H44	H	0.223062	0.340737	0.895216
	H45	H	0.221302	0.650198	0.107501
	H46	H	0.776019	0.341506	0.111689
	H47	H	0.778686	0.650849	0.898045
	H48	H	0.414358	0.105359	0.588454
	H49	H	0.585914	0.884279	0.589361
	H50	H	0.591096	0.108054	0.410808
	H51	H	0.412137	0.885895	0.416390
	H52	H	0.586281	0.406790	0.113491
	H53	H	0.588749	0.585280	0.891593
	H54	H	0.409626	0.580644	0.114983
	H55	H	0.417787	0.408923	0.894096
	H56	H	0.111441	0.587690	0.415505
	H57	H	0.894863	0.581689	0.580107
	H58	H	0.110004	0.409206	0.595519
	H59	H	0.886235	0.401995	0.409946
	H60	H	0.111983	0.402369	0.593737
	H61	H	0.891463	0.571964	0.595593
	H62	H	0.108721	0.581303	0.418404
	H63	H	0.888353	0.403096	0.413932
	H64	H	0.413359	0.584375	0.114641
	H65	H	0.591226	0.584865	0.891659
	H66	H	0.588338	0.410281	0.113186
	H67	H	0.411822	0.404903	0.890587
	H68	H	0.588531	0.106330	0.412341
	H69	H	0.587697	0.884109	0.588590
	H70	H	0.412028	0.105503	0.585980
	H71	H	0.407837	0.883202	0.416013
	H72	H	0.911489	0.606479	0.092267
	H73	H	0.087374	0.383114	0.091725
	H74	H	0.091090	0.607342	0.914756
	H75	H	0.909211	0.384442	0.920607
	H76	H	0.085474	0.920668	0.608138
	H77	H	0.092755	0.083139	0.390385
	H78	H	0.909162	0.082772	0.615502
	H79	H	0.911343	0.901669	0.390182
	H80	H	0.609158	0.080315	0.917832
	H81	H	0.386823	0.084301	0.095938
	H82	H	0.608751	0.907993	0.088806
	H83	H	0.391389	0.909715	0.915472
	H84	H	0.612033	0.906826	0.099349
	H85	H	0.388852	0.086803	0.087853
	H86	H	0.609133	0.078542	0.915625
	H87	H	0.389230	0.908136	0.912969
	H88	H	0.910074	0.086932	0.617085
	H89	H	0.085869	0.084862	0.392656
	H90	H	0.075871	0.905930	0.610315
	H91	H	0.905293	0.912452	0.392850
	H92	H	0.084797	0.605856	0.914639
	H93	H	0.091290	0.383028	0.090081
	H94	H	0.909797	0.607876	0.091939
	H95	H	0.912965	0.382789	0.912012
	H96	H	0.411176	0.106889	0.588824
	H97	H	0.587398	0.883701	0.590540
	H98	H	0.591142	0.106694	0.414438
	H99	H	0.411467	0.883595	0.412140
	H100	H	0.584388	0.409826	0.111802
	H101	H	0.589880	0.583461	0.892130
	H102	H	0.408420	0.585928	0.116285
	H103	H	0.411343	0.412194	0.893504
	H104	H	0.110929	0.581938	0.411426
	H105	H	0.885508	0.589477	0.594165
	H106	H	0.108034	0.406811	0.589471
	H107	H	0.887607	0.406392	0.410576
	H108	H	0.911411	0.607811	0.093617
	H109	H	0.090259	0.381882	0.094212
	H110	H	0.088377	0.604999	0.919662
	H111	H	0.918367	0.387903	0.918578
	H112	H	0.092213	0.906432	0.615955
	H113	H	0.089803	0.090325	0.388998
	H114	H	0.906175	0.085268	0.617721
	H115	H	0.917215	0.910468	0.396344
	H116	H	0.610259	0.080769	0.914989
	H117	H	0.391015	0.078616	0.090707
	H118	H	0.613006	0.898574	0.092234
	H119	H	0.390536	0.906339	0.916277
	C120	C	0.378317	0.004452	0.622631
	C121	C	0.620378	0.986463	0.622786
	C122	C	0.620982	0.003485	0.381227
	C123	C	0.378558	0.986926	0.381759
	C124	C	0.622237	0.373545	0.012317
	C125	C	0.620924	0.616043	0.995353
	C126	C	0.378556	0.615898	0.012327
	C127	C	0.379573	0.373707	0.994230
	C128	C	0.008760	0.616124	0.381780
	C129	C	0.991529	0.616310	0.623988
	C130	C	0.007416	0.374204	0.624862
	C131	C	0.990933	0.373475	0.381648
	C132	C	0.879023	0.504096	0.124965
	C133	C	0.122170	0.485957	0.124116
	C134	C	0.121178	0.503944	0.882226
	C135	C	0.879347	0.487182	0.883526
	C136	C	0.119447	0.875364	0.510655
	C137	C	0.121157	0.117558	0.493901
	C138	C	0.878172	0.115896	0.512500
	C139	C	0.877292	0.873235	0.494523
	C140	C	0.509343	0.116087	0.881088
	C141	C	0.491122	0.115811	0.124136
	C142	C	0.508144	0.872845	0.124967
	C143	C	0.491374	0.873893	0.881270
	C144	C	0.373388	0.888675	0.685414
	C145	C	0.623796	0.103184	0.683646
	C146	C	0.621873	0.885356	0.322483
	C147	C	0.377288	0.104501	0.321633
	C148	C	0.686962	0.366252	0.898492
	C149	C	0.679673	0.617119	0.113156
	C150	C	0.318034	0.619362	0.895272
	C151	C	0.316992	0.367886	0.109693
	C152	C	0.892373	0.676392	0.378526
	C153	C	0.106001	0.679542	0.629135
	C154	C	0.890497	0.315044	0.626504
	C155	C	0.108780	0.315875	0.382673
	C156	C	0.891169	0.371598	0.685383
	C157	C	0.106109	0.622223	0.687400
	C158	C	0.892724	0.618518	0.320798
	C159	C	0.108971	0.373275	0.324454
	C160	C	0.375145	0.677637	0.895842
	C161	C	0.621501	0.674406	0.113425
	C162	C	0.629635	0.308512	0.898477
	C163	C	0.375856	0.311587	0.110458
	C164	C	0.681142	0.886431	0.378401
	C165	C	0.681129	0.103434	0.626107
	C166	C	0.315488	0.888770	0.628192
	C167	C	0.318416	0.104026	0.377843
	C168	C	0.876923	0.386467	0.184769
	C169	C	0.124673	0.602982	0.183895
	C170	C	0.123821	0.386804	0.821339
	C171	C	0.876412	0.604064	0.822542
	C172	C	0.183680	0.867912	0.396792
	C173	C	0.181502	0.119748	0.610924
	C174	C	0.821137	0.115622	0.393918
	C175	C	0.814728	0.867403	0.610121
	C176	C	0.395206	0.180115	0.875352
	C177	C	0.607678	0.176184	0.126975
	C178	C	0.391461	0.813133	0.126836
	C179	C	0.607268	0.812430	0.878032
	C180	C	0.391588	0.870846	0.184495
	C181	C	0.607728	0.117711	0.184163
	C182	C	0.395068	0.123154	0.817166
	C183	C	0.606781	0.869387	0.819117
	C184	C	0.878967	0.173448	0.393578
	C185	C	0.123024	0.176466	0.611724
	C186	C	0.124696	0.811719	0.395997
	C187	C	0.872132	0.809446	0.609948
	C188	C	0.182093	0.387069	0.878080
	C189	C	0.182058	0.603142	0.126013
	C190	C	0.817746	0.387411	0.128749
	C191	C	0.818507	0.603908	0.879968
	C192	C	0.405107	0.084888	0.595560
	C193	C	0.594356	0.905258	0.596900
	C194	C	0.597142	0.085767	0.405559
	C195	C	0.403260	0.905264	0.407541
	C196	C	0.594127	0.401203	0.092154
	C197	C	0.596713	0.591748	0.913249
	C198	C	0.403348	0.590671	0.094014
	C199	C	0.406178	0.401132	0.913649
	C200	C	0.089456	0.590871	0.407758
	C201	C	0.911464	0.588719	0.597397
	C202	C	0.088763	0.399248	0.599812
	C203	C	0.908808	0.397141	0.404884
	C204	C	0.903956	0.585982	0.099760
	C205	C	0.096915	0.403997	0.099281
	C206	C	0.095501	0.585033	0.908590
	C207	C	0.905823	0.406215	0.909758
	C208	C	0.092145	0.902964	0.590756
	C209	C	0.096585	0.093094	0.412005
	C210	C	0.901885	0.092067	0.595136
	C211	C	0.903949	0.900430	0.414037
	C212	C	0.588741	0.087850	0.908394
	C213	C	0.410016	0.090486	0.098712
	C214	C	0.589972	0.897401	0.100207
	C215	C	0.411201	0.900494	0.907488
	Zn216	Zn	0.500017	-0.004476	0.751685
	Zn217	Zn	0.499465	-0.005567	0.253255
	Zn218	Zn	0.750195	0.495318	0.004126
	Zn219	Zn	0.250348	0.494229	0.002736
	Zn220	Zn	-0.000827	0.745719	0.502659
	Zn221	Zn	-0.001155	0.244679	0.503938
	Zn222	Zn	-0.000140	0.495337	0.753905
	Zn223	Zn	0.001118	0.495157	0.252497
	Zn224	Zn	0.499969	0.744814	0.003511
	Zn225	Zn	0.500732	0.244948	0.002633
	Zn226	Zn	0.749325	-0.005385	0.502918
	Zn227	Zn	0.249122	-0.003768	0.501907
	N228	N	0.411904	0.961721	0.682352
	N229	N	0.586539	0.029418	0.681701
	N230	N	0.585256	0.959191	0.323982
	N231	N	0.413951	0.030502	0.323787
	N232	N	0.682176	0.406438	0.970305
	N233	N	0.679650	0.581650	0.038453
	N234	N	0.320007	0.581581	0.968737
	N235	N	0.319171	0.405904	0.036308
	N236	N	0.965478	0.675111	0.415824
	N237	N	0.033575	0.675917	0.590490
	N238	N	0.963875	0.316246	0.589649
	N239	N	0.034073	0.315406	0.417325
	N240	N	0.965068	0.407907	0.684478
	N241	N	0.033840	0.583267	0.684326
	N242	N	0.966092	0.581669	0.322709
	N243	N	0.034605	0.408012	0.323352
	N244	N	0.412246	0.675601	0.969496
	N245	N	0.585751	0.674031	0.038972
	N246	N	0.589742	0.313061	0.970392
	N247	N	0.414419	0.315105	0.037469
	N248	N	0.680792	0.960901	0.414424
	N249	N	0.679347	0.029596	0.589056
	N250	N	0.318284	0.961970	0.589873
	N251	N	0.318721	0.029729	0.414356
	N252	N	0.914322	0.460096	0.182676
	N253	N	0.088012	0.529076	0.182642
	N254	N	0.086810	0.460620	0.823402
	N255	N	0.913608	0.530417	0.824548
	N256	N	0.180486	0.907111	0.469227
	N257	N	0.180627	0.083912	0.536490
	N258	N	0.820485	0.080864	0.468835
	N259	N	0.817645	0.906224	0.537257
	N260	N	0.467197	0.175891	0.914728
	N261	N	0.533903	0.175452	0.090674
	N262	N	0.465169	0.814153	0.090589
	N263	N	0.534407	0.814811	0.916031
	N264	N	0.465322	0.907194	0.183497
	N265	N	0.534179	0.080871	0.182570
	N266	N	0.467168	0.083809	0.820601
	N267	N	0.533558	0.906754	0.820909
	N268	N	0.913536	0.173948	0.468588
	N269	N	0.085992	0.175367	0.538039
	N270	N	0.085213	0.816359	0.467954
	N271	N	0.910391	0.812884	0.536951
	N272	N	0.180743	0.460958	0.915216
	N273	N	0.180939	0.528915	0.089689
	N274	N	0.818762	0.461712	0.092388
	N275	N	0.820027	0.529882	0.916994
	O276	O	-0.217081	1.029342	-0.211117
	H277	H	-0.218992	1.028955	-0.224315
	H278	H	-0.211919	1.013297	-0.224366
	O279	O	0.038429	0.220331	0.224872
	H280	H	0.036012	0.243680	0.245265
	H281	H	0.027202	0.223770	0.209938
	O282	O	0.999240	0.169296	0.909594
	H283	H	0.981920	0.163469	0.911128
	H284	H	0.992312	0.194283	0.892238
	O285	O	0.648022	0.378704	0.705727
	H286	H	0.637832	0.392404	0.693359
	H287	H	0.622727	0.386772	0.707798
	O288	O	0.563038	0.485459	0.504189
	H289	H	0.581512	0.481794	0.505657
	H290	H	0.545244	0.492506	0.502443
	O291	O	0.272147	0.633932	0.512285
	H292	H	0.263242	0.646390	0.508877
	H293	H	0.286921	0.646556	0.514472
	O294	O	1.029691	-0.216847	0.781273
	H295	H	1.045362	-0.228672	0.775441
	H296	H	1.046504	-0.222513	0.780479
	O297	O	0.314592	0.482895	0.728531
	H298	H	0.296870	0.494389	0.720121
	H299	H	0.299411	0.486621	0.730359
	O300	O	0.123725	0.214563	1.040215
	H301	H	0.129302	0.198506	1.021310
	H302	H	0.123473	0.227169	1.017791
	O303	O	0.466654	0.712567	0.285589
	H304	H	0.461603	0.718304	0.263297
	H305	H	0.435260	0.712508	0.282066
	O306	O	0.714003	0.446779	0.585663
	H307	H	0.699407	0.436158	0.582295
	H308	H	0.718197	0.442301	0.606794
	O309	O	0.516591	0.283900	0.477436
	H310	H	0.520993	0.276350	0.457503
	H311	H	0.526838	0.288082	0.460685
	O312	O	0.532450	0.431459	0.721134
	H313	H	0.520075	0.419246	0.721844
	H314	H	0.519624	0.428686	0.716059
	O315	O	0.920833	1.193241	0.932095
	H316	H	0.912332	1.184649	0.922944
	H317	H	0.906195	1.192802	0.935135
	O318	O	1.222330	1.012408	0.226134
	H319	H	1.213713	1.010547	0.241344
	H320	H	1.234202	1.042985	0.240939
	O321	O	0.519222	0.716012	0.723998
	H322	H	0.526998	0.693647	0.714159
	H323	H	0.531327	0.747913	0.759124
	O324	O	1.007659	1.203299	-0.176901
	H325	H	1.006730	1.228339	-0.202885
	H326	H	0.979636	1.201660	-0.183558
	O327	O	-0.015991	-0.017732	0.971031
	H328	H	-0.010305	-0.024293	0.973113
	H329	H	-0.010288	-0.015610	0.962008
	O330	O	0.724252	0.270920	0.464111
	H331	H	0.733293	0.258840	0.458855
	H332	H	0.734121	0.262016	0.451245
	O333	O	0.510854	0.311463	0.732394
	H334	H	0.496780	0.292990	0.718493
	H335	H	0.490301	0.302105	0.742580
	O336	O	0.570311	0.285276	0.602228
	H337	H	0.562523	0.295213	0.592568
	H338	H	0.563480	0.289085	0.591785
	O339	O	0.906110	0.133698	1.145464
	H340	H	0.913167	0.116931	1.135568
	H341	H	0.910920	0.133239	1.139008
	O342	O	0.041742	-0.221647	0.105582
	H343	H	0.041349	-0.223684	0.130738
	H344	H	0.031549	-0.220601	0.111023
	O345	O	0.053869	1.036598	0.774614
	H346	H	0.060698	1.062491	0.781359
	H347	H	0.045271	1.046370	0.775722
	O348	O	0.212691	-0.210712	-0.205917
	H349	H	0.217607	-0.220445	-0.202415
	H350	H	0.205898	-0.182472	-0.195163
	O351	O	0.343203	0.510688	0.555143
	H352	H	0.350687	0.512690	0.562686
	H353	H	0.334289	0.521031	0.550471
	O354	O	-0.013391	-0.003623	1.171338
	H355	H	-0.028293	0.014072	1.158552
	H356	H	-0.004375	-0.022986	1.169819
	O357	O	0.312054	0.678180	0.687736
	H358	H	0.312943	0.697982	0.692308
	H359	H	0.332978	0.668411	0.672674
	O360	O	0.718124	0.715374	0.518522
	H361	H	0.722533	0.719023	0.529553
	H362	H	0.736502	0.715993	0.525872
	O363	O	-0.204068	0.201415	-0.207498
	H364	H	-0.238757	0.230224	-0.230554
	H365	H	-0.215390	0.166128	-0.193563
	O366	O	0.327003	0.471314	0.458157
	H367	H	0.326441	0.477712	0.445277
	H368	H	0.319518	0.483395	0.444458
	O369	O	0.705362	0.288856	0.298208
	H370	H	0.738248	0.256818	0.265713
	H371	H	0.697602	0.305348	0.313137
	O372	O	0.765302	0.929517	-0.041965
	H373	H	0.761157	0.921199	-0.046492
	H374	H	0.767153	0.922723	-0.046378
	O375	O	1.187787	0.179752	-0.181136
	H376	H	1.215804	0.194972	-0.198890
	H377	H	1.182421	0.187768	-0.172546
	O378	O	0.218258	0.217346	0.223966
	H379	H	0.196926	0.196998	0.212531
	H380	H	0.206694	0.221199	0.194788
	O381	O	-0.068951	0.933290	0.775902
	H382	H	-0.046080	0.913088	0.773625
	H383	H	-0.059213	0.940922	0.778616
	O384	O	0.853613	0.125629	0.974757
	H385	H	0.855615	0.117200	0.964530
	H386	H	0.845576	0.144400	0.963769
	O387	O	1.218483	0.781292	-0.034130
	H388	H	1.231512	0.776699	-0.022920
	H389	H	1.217759	0.770321	-0.037761
	O390	O	0.536678	0.275177	0.280564
	H391	H	0.555056	0.278062	0.277348
	H392	H	0.547370	0.255887	0.258270
	O393	O	0.353044	0.351622	0.322182
	H394	H	0.340705	0.341917	0.300504
	H395	H	0.361256	0.361703	0.326672
	O396	O	0.052103	0.838024	0.939512
	H397	H	0.068445	0.839157	0.952993
	H398	H	0.045863	0.850913	0.948904
	O399	O	0.082148	0.166143	1.088494
	H400	H	0.082694	0.159966	1.069323
	H401	H	0.067471	0.157885	1.089058
	O402	O	0.543387	0.669108	0.385577
	H403	H	0.546013	0.674928	0.404372
	H404	H	0.529818	0.667294	0.362046
	O405	O	1.204972	-0.179252	1.179650
	H406	H	1.199432	-0.168169	1.167505
	H407	H	1.204497	-0.174694	1.187694
	O408	O	0.231743	0.119680	-0.022874
	H409	H	0.229319	0.115848	-0.035280
	H410	H	0.235793	0.129021	-0.022938
	O411	O	0.814475	0.813513	0.818654
	H412	H	0.809442	0.815151	0.815516
	H413	H	0.842734	0.819910	0.828187
	O414	O	0.688877	0.553725	0.694912
	H415	H	0.694398	0.557903	0.701746
	H416	H	0.689913	0.551984	0.714432
	O417	O	0.705094	0.687587	0.705830
	H418	H	0.711499	0.665331	0.701349
	H419	H	0.693720	0.695125	0.700486
	O420	O	0.589941	0.615318	0.519875
	H421	H	0.593913	0.604903	0.507147
	H422	H	0.596202	0.616333	0.524513
	O423	O	-0.047319	-0.017508	1.117087
	H424	H	-0.059751	-0.024021	1.110958
	H425	H	-0.037301	-0.019947	1.109162
	O426	O	0.279839	0.524539	0.280189
	H427	H	0.264305	0.536650	0.255805
	H428	H	0.291105	0.517550	0.270593
	O429	O	0.787151	0.781774	1.212197
	H430	H	0.770817	0.780092	1.208973
	H431	H	0.779437	0.760507	1.226058
	O432	O	0.561982	0.477185	0.424811
	H433	H	0.543297	0.486856	0.429116
	H434	H	0.561146	0.465143	0.426441
	O435	O	0.182485	0.803072	0.181105
	H436	H	0.191322	0.813621	0.187840
	H437	H	0.158136	0.816176	0.168477
	O438	O	-0.197660	0.190514	0.198096
	H439	H	-0.172540	0.176041	0.175694
	H440	H	-0.188162	0.167456	0.179054
	O441	O	-0.147405	0.048759	0.035621
	H442	H	-0.146347	0.045220	0.061541
	H443	H	-0.141845	0.023915	0.031925
	O444	O	0.733292	0.531577	0.461660
	H445	H	0.735160	0.522192	0.461613
	H446	H	0.736950	0.521416	0.475997
	O447	O	0.098172	0.994231	0.958462
	H448	H	0.100375	0.976388	0.950249
	H449	H	0.096985	0.989476	0.941707
	O450	O	-0.219923	0.777812	1.037630
	H451	H	-0.241914	0.764134	1.035227
	H452	H	-0.201101	0.776068	1.049991
	O453	O	0.411692	0.531357	0.700921
	H454	H	0.397599	0.544952	0.691235
	H455	H	0.413421	0.525882	0.712624
	O456	O	0.283168	0.281775	0.718738
	H457	H	0.292692	0.295562	0.689458
	H458	H	0.293881	0.307379	0.703406
	O459	O	0.946535	0.792583	0.214101
	H460	H	0.935879	0.767974	0.239111
	H461	H	0.930839	0.809584	0.201433
	O462	O	0.717918	0.459404	0.285063
	H463	H	0.743471	0.458819	0.271705
	H464	H	0.706329	0.441675	0.280970
	O465	O	0.783363	-0.026500	0.212626
	H466	H	0.797090	-0.042033	0.207343
	H467	H	0.764884	-0.036178	0.235438
	O468	O	0.690816	0.682512	0.316626
	H469	H	0.677554	0.652896	0.328814
	H470	H	0.677567	0.671900	0.346027
	O471	O	0.385193	0.311888	0.596501
	H472	H	0.366577	0.297555	0.591027
	H473	H	0.381811	0.320306	0.571639
	O474	O	0.309299	0.682132	0.392284
	H475	H	0.307330	0.692761	0.422194
	H476	H	0.312460	0.664342	0.390779
	O477	O	0.420681	0.354120	1.368619
	H478	H	0.448303	0.358702	1.356507
	H479	H	0.417800	0.348165	1.356913
	O480	O	0.466066	0.581972	0.492429
	H481	H	0.466152	0.564632	0.489934
	H482	H	0.472854	0.588105	0.489429
	O483	O	0.285715	0.343772	0.510030
	H484	H	0.285952	0.360561	0.493643
	H485	H	0.279528	0.334732	0.496289
	O486	O	0.426500	0.725462	0.561855
	H487	H	0.452219	0.722121	0.567162
	H488	H	0.447213	0.727851	0.561850
	O489	O	1.227437	0.921619	0.048243
	H490	H	1.223111	0.926492	0.043302
	H491	H	1.233490	0.918555	0.063017
	O492	O	-0.062241	-0.216075	-0.039051
	H493	H	-0.051580	-0.214201	-0.034868
	H494	H	-0.062567	-0.218401	-0.050226
	O495	O	0.025272	0.999974	1.214163
	H496	H	0.038079	1.002514	1.205267
	H497	H	0.016954	1.006994	1.212371
	O498	O	1.219928	0.969082	0.782710
	H499	H	1.239489	0.970767	0.760318
	H500	H	1.209874	0.980651	0.778987
	O501	O	0.513387	0.489170	0.269233
	H502	H	0.520550	0.490793	0.271268
	H503	H	0.513844	0.484267	0.280992
