data_Molecule from HDF5

_cell_length_a		16.345712
_cell_length_b		16.435541
_cell_length_c		16.429451
_cell_angle_alpha	89.860381
_cell_angle_beta	89.909884
_cell_angle_gamma	89.984891
_symmetry_space_group_name_H-M	'P 1'
_symmetry_Int_Tables_number		1

loop_
	_symmetry_equiv_pos_as_xyz
	x,y,z

loop_
	_atom_site_label
	_atom_site_type_symbol
	_atom_site_fract_x
	_atom_site_fract_y
	_atom_site_fract_z
	H0	H	0.393019	0.849634	0.714177
	H1	H	0.607161	0.164861	0.714681
	H2	H	0.606848	0.849564	0.268729
	H3	H	0.393101	0.165531	0.269191
	H4	H	0.721893	0.404433	0.834499
	H5	H	0.719921	0.612853	0.152103
	H6	H	0.280850	0.608453	0.833379
	H7	H	0.279911	0.400749	0.153047
	H8	H	0.840915	0.730175	0.386695
	H9	H	0.159529	0.726761	0.596473
	H10	H	0.840261	0.286061	0.600923
	H11	H	0.157711	0.286706	0.388255
	H12	H	0.841208	0.401741	0.717355
	H13	H	0.160344	0.610796	0.712923
	H14	H	0.841215	0.616102	0.270687
	H15	H	0.157500	0.401320	0.271660
	H16	H	0.395063	0.727410	0.833156
	H17	H	0.604724	0.729830	0.151267
	H18	H	0.607151	0.287711	0.834230
	H19	H	0.394996	0.283546	0.150930
	H20	H	0.722988	0.849960	0.384251
	H21	H	0.721340	0.165656	0.596986
	H22	H	0.279541	0.848636	0.595071
	H23	H	0.277187	0.165678	0.385550
	H24	H	0.890678	0.350008	0.218023
	H25	H	0.105044	0.666409	0.214167
	H26	H	0.108011	0.350052	0.771040
	H27	H	0.894405	0.665867	0.771135
	H28	H	0.219027	0.902237	0.333067
	H29	H	0.219171	0.110461	0.650817
	H30	H	0.776837	0.115594	0.333814
	H31	H	0.775490	0.899974	0.649658
	H32	H	0.342486	0.230488	0.886110
	H33	H	0.658524	0.231231	0.101008
	H34	H	0.340209	0.787542	0.096945
	H35	H	0.658384	0.785929	0.884544
	H36	H	0.340871	0.901638	0.213444
	H37	H	0.657592	0.116361	0.216771
	H38	H	0.340918	0.114408	0.771092
	H39	H	0.656604	0.898859	0.766376
	H40	H	0.889894	0.233886	0.336134
	H41	H	0.104752	0.227835	0.650763
	H42	H	0.105325	0.784438	0.334812
	H43	H	0.891420	0.784860	0.650460
	H44	H	0.220493	0.348071	0.891052
	H45	H	0.222085	0.665526	0.099105
	H46	H	0.774842	0.350514	0.101847
	H47	H	0.779166	0.666924	0.887585
	H48	H	0.410324	0.120437	0.578395
	H49	H	0.583838	0.899514	0.570565
	H50	H	0.585999	0.119767	0.403307
	H51	H	0.410249	0.894179	0.401534
	H52	H	0.587142	0.423366	0.104957
	H53	H	0.593875	0.604095	0.875686
	H54	H	0.408674	0.596309	0.106802
	H55	H	0.410221	0.416030	0.879204
	H56	H	0.108211	0.589048	0.410600
	H57	H	0.887896	0.594579	0.579080
	H58	H	0.113223	0.415058	0.578352
	H59	H	0.889380	0.424996	0.412113
	H60	H	0.111660	0.422144	0.585123
	H61	H	0.886425	0.592183	0.585339
	H62	H	0.115189	0.592152	0.395060
	H63	H	0.884180	0.424085	0.399954
	H64	H	0.413349	0.596867	0.105396
	H65	H	0.592888	0.591259	0.881242
	H66	H	0.583377	0.418602	0.104521
	H67	H	0.408805	0.421245	0.880635
	H68	H	0.586674	0.119338	0.403844
	H69	H	0.594735	0.892103	0.580259
	H70	H	0.406685	0.122363	0.581272
	H71	H	0.409617	0.894542	0.401897
	H72	H	0.906669	0.622970	0.086119
	H73	H	0.088800	0.396033	0.080888
	H74	H	0.088293	0.620553	0.904123
	H75	H	0.911287	0.395175	0.905858
	H76	H	0.090083	0.918870	0.605346
	H77	H	0.085399	0.095448	0.379937
	H78	H	0.906902	0.101895	0.608352
	H79	H	0.910149	0.913825	0.377514
	H80	H	0.611538	0.094115	0.905749
	H81	H	0.388141	0.091521	0.081672
	H82	H	0.615028	0.915735	0.082468
	H83	H	0.387659	0.927263	0.900142
	H84	H	0.611533	0.919311	0.075388
	H85	H	0.385652	0.099612	0.080335
	H86	H	0.614490	0.094438	0.899914
	H87	H	0.381973	0.912864	0.898555
	H88	H	0.906841	0.087791	0.603144
	H89	H	0.085178	0.098633	0.379156
	H90	H	0.086012	0.917392	0.605174
	H91	H	0.908298	0.923072	0.380595
	H92	H	0.091857	0.621094	0.905043
	H93	H	0.091654	0.393269	0.085752
	H94	H	0.917595	0.618711	0.084661
	H95	H	0.913025	0.395670	0.906359
	H96	H	0.411544	0.121429	0.583204
	H97	H	0.579871	0.895372	0.586527
	H98	H	0.587131	0.119916	0.403205
	H99	H	0.409589	0.893401	0.401133
	H100	H	0.589147	0.417733	0.107360
	H101	H	0.582282	0.599669	0.880956
	H102	H	0.411780	0.600889	0.107584
	H103	H	0.413834	0.419306	0.880844
	H104	H	0.114542	0.604494	0.407196
	H105	H	0.884643	0.598910	0.583864
	H106	H	0.115842	0.414403	0.587491
	H107	H	0.883590	0.413887	0.408021
	H108	H	0.909666	0.617937	0.075894
	H109	H	0.085572	0.393817	0.086219
	H110	H	0.090033	0.621430	0.901322
	H111	H	0.911438	0.395266	0.907436
	H112	H	0.089245	0.915326	0.606751
	H113	H	0.087966	0.096922	0.378911
	H114	H	0.919110	0.095691	0.601926
	H115	H	0.917776	0.919145	0.381098
	H116	H	0.614989	0.099621	0.903771
	H117	H	0.389859	0.095349	0.074120
	H118	H	0.613108	0.923994	0.082238
	H119	H	0.388590	0.917366	0.912062
	C120	C	0.377412	0.016343	0.613255
	C121	C	0.620335	0.999404	0.612636
	C122	C	0.620807	0.015911	0.369834
	C123	C	0.376840	0.998633	0.369041
	C124	C	0.620952	0.387424	0.001345
	C125	C	0.621506	0.630374	0.984178
	C126	C	0.379069	0.629082	0.001101
	C127	C	0.378865	0.385620	0.985105
	C128	C	0.008195	0.628938	0.371606
	C129	C	0.991440	0.627832	0.614588
	C130	C	0.008311	0.385210	0.616382
	C131	C	0.990589	0.387602	0.373515
	C132	C	0.877356	0.516061	0.115764
	C133	C	0.121199	0.499190	0.115977
	C134	C	0.121970	0.516223	0.872208
	C135	C	0.879847	0.499861	0.873423
	C136	C	0.120870	0.885052	0.501148
	C137	C	0.119379	0.128459	0.483819
	C138	C	0.877710	0.129250	0.500516
	C139	C	0.878353	0.885796	0.484118
	C140	C	0.509007	0.129104	0.870741
	C141	C	0.492199	0.128784	0.112805
	C142	C	0.508251	0.887036	0.112819
	C143	C	0.490963	0.886622	0.870370
	C144	C	0.375076	0.896989	0.673503
	C145	C	0.624563	0.117632	0.674008
	C146	C	0.624605	0.897157	0.308870
	C147	C	0.374559	0.117878	0.309056
	C148	C	0.682198	0.385590	0.882216
	C149	C	0.680522	0.631565	0.104212
	C150	C	0.320085	0.628693	0.881069
	C151	C	0.319432	0.382856	0.104924
	C152	C	0.888728	0.690167	0.368660
	C153	C	0.111690	0.687305	0.615579
	C154	C	0.888466	0.325417	0.619358
	C155	C	0.110184	0.326998	0.370566
	C156	C	0.888894	0.382934	0.677319
	C157	C	0.112160	0.629421	0.673154
	C158	C	0.888846	0.633303	0.310687
	C159	C	0.109912	0.384099	0.312458
	C160	C	0.376605	0.688030	0.881057
	C161	C	0.623485	0.690111	0.103685
	C162	C	0.624829	0.327660	0.881978
	C163	C	0.376767	0.324381	0.103925
	C164	C	0.682726	0.897299	0.366304
	C165	C	0.681259	0.118296	0.615113
	C166	C	0.318632	0.896551	0.614469
	C167	C	0.316653	0.117751	0.366791
	C168	C	0.873385	0.397553	0.177347
	C169	C	0.123606	0.618553	0.174884
	C170	C	0.125534	0.397215	0.811698
	C171	C	0.876768	0.618660	0.811915
	C172	C	0.180089	0.883473	0.381365
	C173	C	0.179696	0.129487	0.603074
	C174	C	0.816789	0.133243	0.381677
	C175	C	0.816379	0.882648	0.602399
	C176	C	0.389757	0.190282	0.868271
	C177	C	0.611006	0.190512	0.117619
	C178	C	0.388182	0.827171	0.115252
	C179	C	0.610373	0.825640	0.866641
	C180	C	0.388388	0.884280	0.173141
	C181	C	0.610481	0.133147	0.175531
	C182	C	0.389172	0.132561	0.810807
	C183	C	0.609589	0.882394	0.807992
	C184	C	0.873000	0.192524	0.383023
	C185	C	0.122382	0.187731	0.603293
	C186	C	0.123272	0.824856	0.382055
	C187	C	0.874250	0.824986	0.603007
	C188	C	0.181332	0.396134	0.871430
	C189	C	0.181685	0.618158	0.117299
	C190	C	0.815456	0.397776	0.119536
	C191	C	0.819303	0.619133	0.869991
	C192	C	0.402493	0.099713	0.588282
	C193	C	0.593732	0.917116	0.586712
	C194	C	0.594345	0.098043	0.395914
	C195	C	0.402489	0.915599	0.394325
	C196	C	0.594284	0.412509	0.083931
	C197	C	0.596913	0.605607	0.901074
	C198	C	0.403969	0.605113	0.084721
	C199	C	0.403601	0.411384	0.901867
	C200	C	0.091140	0.602778	0.397084
	C201	C	0.908010	0.602589	0.589920
	C202	C	0.091822	0.410031	0.590966
	C203	C	0.907412	0.413593	0.399262
	C204	C	0.903813	0.598560	0.089540
	C205	C	0.095918	0.415985	0.091597
	C206	C	0.097202	0.599326	0.896511
	C207	C	0.904834	0.417081	0.899180
	C208	C	0.095677	0.910015	0.584274
	C209	C	0.093628	0.104040	0.400937
	C210	C	0.903403	0.102719	0.582908
	C211	C	0.904701	0.911360	0.401145
	C212	C	0.592033	0.103183	0.895925
	C213	C	0.409438	0.102753	0.086319
	C214	C	0.591628	0.912546	0.087350
	C215	C	0.407690	0.912211	0.896103
	Zn216	Zn	0.498894	0.007988	0.741736
	Zn217	Zn	0.499293	0.007635	0.241086
	Zn218	Zn	0.749492	0.508261	-0.006538
	Zn219	Zn	0.250153	0.507164	-0.005943
	Zn220	Zn	-0.000477	0.756559	0.493185
	Zn221	Zn	-0.001577	0.258048	0.493064
	Zn222	Zn	0.000529	0.507791	0.743630
	Zn223	Zn	-0.001025	0.507855	0.244037
	Zn224	Zn	0.499621	0.758619	-0.007779
	Zn225	Zn	0.501472	0.257673	-0.007841
	Zn226	Zn	0.749389	0.007248	0.491549
	Zn227	Zn	0.248724	0.007611	0.491507
	N228	N	0.410717	0.972629	0.672967
	N229	N	0.587544	0.042618	0.672775
	N230	N	0.586866	0.971920	0.310767
	N231	N	0.411321	0.042737	0.310393
	N232	N	0.679917	0.421790	0.957462
	N233	N	0.679448	0.595218	0.028899
	N234	N	0.321182	0.592968	0.956868
	N235	N	0.320476	0.420113	0.029900
	N236	N	0.963857	0.687554	0.406002
	N237	N	0.035692	0.686302	0.579780
	N238	N	0.963832	0.326531	0.582324
	N239	N	0.034872	0.329141	0.407800
	N240	N	0.964629	0.419021	0.675893
	N241	N	0.036388	0.593313	0.672739
	N242	N	0.964070	0.595857	0.312399
	N243	N	0.034430	0.420946	0.314052
	N244	N	0.412370	0.688335	0.956699
	N245	N	0.587734	0.689685	0.028042
	N246	N	0.587492	0.328529	0.957058
	N247	N	0.412533	0.325836	0.028256
	N248	N	0.680513	0.971977	0.403514
	N249	N	0.678681	0.043647	0.577597
	N250	N	0.319800	0.971910	0.577926
	N251	N	0.317894	0.042526	0.403290
	N252	N	0.911248	0.472186	0.175033
	N253	N	0.086889	0.543457	0.174248
	N254	N	0.089072	0.472462	0.812276
	N255	N	0.913737	0.543492	0.813863
	N256	N	0.178856	0.920158	0.456469
	N257	N	0.177896	0.093261	0.527816
	N258	N	0.819616	0.094290	0.455803
	N259	N	0.818931	0.919812	0.527383
	N260	N	0.465403	0.188510	0.904597
	N261	N	0.536546	0.187740	0.079063
	N262	N	0.463826	0.828685	0.078579
	N263	N	0.535674	0.828248	0.904916
	N264	N	0.464070	0.920710	0.171736
	N265	N	0.535493	0.095457	0.172647
	N266	N	0.464364	0.095490	0.811876
	N267	N	0.534366	0.919805	0.810347
	N268	N	0.909897	0.190257	0.457932
	N269	N	0.085748	0.187437	0.528068
	N270	N	0.087141	0.825790	0.457629
	N271	N	0.912080	0.826824	0.528317
	N272	N	0.179111	0.470918	0.908660
	N273	N	0.180521	0.542750	0.081494
	N274	N	0.817969	0.472489	0.081950
	N275	N	0.821051	0.544497	0.907695
	O276	O	-0.108331	0.937279	-0.173322
	H277	H	-0.113176	0.943498	-0.171734
	H278	H	-0.109335	0.936218	-0.159839
	O279	O	0.643905	0.471339	0.534898
	H280	H	0.642052	0.479447	0.530003
	H281	H	0.627890	0.479175	0.526362
	O282	O	-0.004122	0.108900	0.205686
	H283	H	-0.017061	0.115111	0.209940
	H284	H	0.008936	0.115279	0.198946
	O285	O	0.952702	0.850677	0.054612
	H286	H	0.943435	0.843696	0.047852
	H287	H	0.953405	0.840400	0.045671
	O288	O	0.587832	0.556229	0.445415
	H289	H	0.590936	0.552359	0.437468
	H290	H	0.576003	0.574711	0.451117
	O291	O	0.439576	0.596618	0.547045
	H292	H	0.440415	0.588195	0.552317
	H293	H	0.449729	0.592893	0.548835
	O294	O	1.047410	1.217478	0.965932
	H295	H	1.056267	1.231980	0.956031
	H296	H	1.046937	1.204332	0.971982
	O297	O	0.509703	0.411579	0.373078
	H298	H	0.508026	0.398733	0.386399
	H299	H	0.502080	0.408440	0.382271
	O300	O	0.333792	0.583469	0.278661
	H301	H	0.342818	0.605720	0.277555
	H302	H	0.307866	0.585866	0.252155
	O303	O	0.993854	0.220957	1.145941
	H304	H	0.996185	0.217499	1.134154
	H305	H	0.997210	0.239962	1.165285
	O306	O	0.212354	0.219229	1.014595
	H307	H	0.238977	0.243071	1.012675
	H308	H	0.204995	0.206559	1.034615
	O309	O	0.586115	-0.361683	0.436835
	H310	H	0.605531	-0.361338	0.436870
	H311	H	0.588105	-0.373701	0.432821
	O312	O	0.354248	0.370365	0.475790
	H313	H	0.354018	0.372719	0.475042
	H314	H	0.354219	0.364731	0.486911
	O315	O	0.375349	0.650517	0.320553
	H316	H	0.368943	0.637605	0.344373
	H317	H	0.398543	0.652697	0.306940
	O318	O	-0.208840	-0.200417	0.038940
	H319	H	-0.226709	-0.231555	0.041454
	H320	H	-0.202088	-0.194770	0.075439
	O321	O	0.535451	0.616400	0.663169
	H322	H	0.535394	0.626651	0.653909
	H323	H	0.532545	0.611734	0.652103
	O324	O	1.058099	-0.020682	0.924872
	H325	H	1.066186	-0.021350	0.924366
	H326	H	1.057456	-0.026281	0.925919
	O327	O	1.116931	-0.117191	1.109735
	H328	H	1.117905	-0.112878	1.122582
	H329	H	1.116996	-0.132339	1.079054
	O330	O	-0.105305	1.158860	1.047496
	H331	H	-0.107410	1.161901	1.056652
	H332	H	-0.080023	1.160743	1.044952
	O333	O	-0.088939	0.981265	-0.054256
	H334	H	-0.092877	0.970758	-0.040323
	H335	H	-0.077756	0.964222	-0.060591
	O336	O	0.843180	1.058637	0.078790
	H337	H	0.838325	1.069013	0.081873
	H338	H	0.849518	1.065975	0.073470
	O339	O	0.170097	0.865769	1.009439
	H340	H	0.182569	0.846500	0.990847
	H341	H	0.170248	0.887612	0.991766
	O342	O	0.586357	0.578463	0.679422
	H343	H	0.568646	0.566978	0.681376
	H344	H	0.581649	0.566741	0.683230
	O345	O	0.016291	0.027803	0.855247
	H346	H	0.015872	0.060664	0.852803
	H347	H	0.017853	0.033768	0.857369
	O348	O	0.421633	0.448502	0.630118
	H349	H	0.406111	0.461004	0.635349
	H350	H	0.442267	0.459278	0.626677
	O351	O	0.976328	1.223480	-0.219682
	H352	H	0.974534	1.229395	-0.224078
	H353	H	0.958614	1.238446	-0.230448
	O354	O	0.955169	0.862800	1.140034
	H355	H	0.965374	0.860379	1.128425
	H356	H	0.968495	0.859190	1.149935
	O357	O	0.196104	-0.107725	-0.106083
	H358	H	0.179918	-0.103302	-0.093427
	H359	H	0.187271	-0.097874	-0.107519
	O360	O	0.383474	0.482272	0.503115
	H361	H	0.382413	0.475950	0.504292
	H362	H	0.369264	0.484820	0.481305
	O363	O	0.810257	0.181296	-0.035990
	H364	H	0.781202	0.204190	-0.034226
	H365	H	0.829183	0.184758	-0.042892
	O366	O	-0.684182	-0.658289	1.664776
	H367	H	-0.700024	-0.653396	1.668283
	H368	H	-0.689609	-0.624845	1.660636
	O369	O	1.182387	0.161012	1.175514
	H370	H	1.173599	0.147026	1.188285
	H371	H	1.186955	0.147740	1.157833
	O372	O	0.674006	0.493927	0.307208
	H373	H	0.692284	0.487655	0.295422
	H374	H	0.669971	0.464152	0.311153
	O375	O	0.044349	0.031906	0.819764
	H376	H	0.052108	0.047713	0.828293
	H377	H	0.026471	0.026347	0.828928
	O378	O	0.693614	0.381258	0.481438
	H379	H	0.696920	0.397221	0.483907
	H380	H	0.709277	0.364591	0.491831
	O381	O	0.395984	0.363059	0.498149
	H382	H	0.391323	0.360655	0.500487
	H383	H	0.391903	0.361641	0.508212
	O384	O	0.541810	0.355733	0.498105
	H385	H	0.550236	0.353876	0.515317
	H386	H	0.533252	0.359216	0.513794
	O387	O	0.646994	0.350010	0.340683
	H388	H	0.641384	0.346136	0.359535
	H389	H	0.624773	0.341195	0.343776
	O390	O	0.787474	0.993489	-0.148246
	H391	H	0.785043	0.985856	-0.119063
	H392	H	0.769517	0.974539	-0.160449
	O393	O	1.194808	-0.020109	0.920609
	H394	H	1.193890	-0.039698	0.907623
	H395	H	1.186938	-0.031949	0.917660
	O396	O	0.503641	0.718032	0.598264
	H397	H	0.525337	0.715840	0.579904
	H398	H	0.498180	0.720762	0.605044
	O399	O	0.532207	0.684104	0.311069
	H400	H	0.541232	0.685245	0.316608
	H401	H	0.528129	0.700215	0.307567
	O402	O	1.046243	0.811095	-0.199549
	H403	H	1.030776	0.819207	-0.195729
	H404	H	1.025399	0.804494	-0.215756
	O405	O	0.318152	0.699794	0.484697
	H406	H	0.317294	0.687664	0.480492
	H407	H	0.321011	0.707496	0.487507
	O408	O	0.476438	0.291374	0.704704
	H409	H	0.453688	0.281981	0.722404
	H410	H	0.445533	0.288763	0.712860
	O411	O	0.855600	0.934319	1.177920
	H412	H	0.842133	0.942127	1.179726
	H413	H	0.860087	0.949081	1.190029
	O414	O	0.701018	0.711680	0.538643
	H415	H	0.718038	0.728857	0.544967
	H416	H	0.701841	0.705572	0.558322
	O417	O	0.199408	0.969829	0.814233
	H418	H	0.210173	0.978536	0.809246
	H419	H	0.176401	0.970631	0.817068
	O420	O	-0.165376	0.871273	1.172913
	H421	H	-0.172596	0.899931	1.186679
	H422	H	-0.130968	0.872078	1.176689
	O423	O	-0.183206	1.191604	-0.190760
	H424	H	-0.191696	1.180973	-0.163890
	H425	H	-0.173485	1.160711	-0.199929
	O426	O	0.536616	0.423084	0.356194
	H427	H	0.533671	0.417097	0.370171
	H428	H	0.562870	0.417580	0.344727
	O429	O	0.490427	0.411445	0.463798
	H430	H	0.488996	0.410552	0.464797
	H431	H	0.499151	0.408351	0.468201
	O432	O	1.102512	-0.011591	0.101822
	H433	H	1.091712	-0.004888	0.089497
	H434	H	1.103809	-0.017903	0.089018
	O435	O	0.125291	-0.001248	0.091546
	H436	H	0.144532	-0.007682	0.115018
	H437	H	0.112107	-0.000322	0.087706
	O438	O	-0.500823	1.542428	1.645026
	H439	H	-0.503498	1.548218	1.638913
	H440	H	-0.504990	1.552055	1.650921
	O441	O	0.339475	0.529312	0.460582
	H442	H	0.337975	0.536526	0.446475
	H443	H	0.338115	0.527746	0.445767
