data_Molecule from HDF5

_cell_length_a		16.166958
_cell_length_b		16.420688
_cell_length_c		16.158035
_cell_angle_alpha	89.924171
_cell_angle_beta	90.269252
_cell_angle_gamma	89.913793
_symmetry_space_group_name_H-M	'P 1'
_symmetry_Int_Tables_number		1

loop_
	_symmetry_equiv_pos_as_xyz
	x,y,z

loop_
	_atom_site_label
	_atom_site_type_symbol
	_atom_site_fract_x
	_atom_site_fract_y
	_atom_site_fract_z
	H0	H	0.413049	0.844960	0.703098
	H1	H	0.609082	0.170314	0.703870
	H2	H	0.608146	0.844712	0.275243
	H3	H	0.410661	0.170377	0.272765
	H4	H	0.722789	0.411895	0.822806
	H5	H	0.724362	0.604955	0.153925
	H6	H	0.297873	0.604792	0.824012
	H7	H	0.300721	0.411721	0.155343
	H8	H	0.846930	0.723528	0.386803
	H9	H	0.173933	0.724478	0.591349
	H10	H	0.847026	0.291586	0.589668
	H11	H	0.174286	0.291064	0.388259
	H12	H	0.845249	0.411652	0.701880
	H13	H	0.176752	0.604965	0.702152
	H14	H	0.846402	0.605196	0.274976
	H15	H	0.177474	0.410855	0.277989
	H16	H	0.408349	0.724116	0.825243
	H17	H	0.613497	0.724062	0.152867
	H18	H	0.612401	0.291447	0.825095
	H19	H	0.411459	0.291592	0.153068
	H20	H	0.723594	0.844379	0.392978
	H21	H	0.726575	0.170012	0.588479
	H22	H	0.296102	0.844917	0.587187
	H23	H	0.292318	0.169638	0.387336
	H24	H	0.913319	0.345875	0.204264
	H25	H	0.111602	0.670469	0.205556
	H26	H	0.109518	0.345562	0.774865
	H27	H	0.913506	0.671726	0.773949
	H28	H	0.221434	0.909991	0.323673
	H29	H	0.224107	0.103745	0.653360
	H30	H	0.796662	0.104389	0.323666
	H31	H	0.801482	0.911954	0.654872
	H32	H	0.347137	0.225123	0.886185
	H33	H	0.675366	0.222447	0.090422
	H34	H	0.346918	0.791463	0.089488
	H35	H	0.673827	0.792598	0.889176
	H36	H	0.345338	0.911490	0.201138
	H37	H	0.676676	0.103731	0.201946
	H38	H	0.345349	0.105009	0.774306
	H39	H	0.676712	0.912504	0.779476
	H40	H	0.906418	0.225288	0.325668
	H41	H	0.112110	0.222629	0.652704
	H42	H	0.109411	0.792156	0.325342
	H43	H	0.910475	0.791948	0.652596
	H44	H	0.226862	0.345630	0.890695
	H45	H	0.228011	0.671005	0.089152
	H46	H	0.796151	0.346234	0.087701
	H47	H	0.794887	0.671323	0.888781
	H48	H	0.421734	0.120815	0.579689
	H49	H	0.608118	0.892542	0.578691
	H50	H	0.606756	0.123627	0.396459
	H51	H	0.406012	0.889819	0.399018
	H52	H	0.606703	0.416068	0.106254
	H53	H	0.591396	0.602098	0.874998
	H54	H	0.406964	0.601907	0.110950
	H55	H	0.412950	0.414460	0.869946
	H56	H	0.131452	0.606416	0.394427
	H57	H	0.895223	0.592516	0.582284
	H58	H	0.128055	0.409753	0.576422
	H59	H	0.895042	0.425205	0.389284
	H60	H	0.125463	0.420593	0.580473
	H61	H	0.890405	0.606166	0.587504
	H62	H	0.127102	0.603469	0.404639
	H63	H	0.889672	0.405440	0.392360
	H64	H	0.426737	0.589639	0.102060
	H65	H	0.605945	0.612435	0.867346
	H66	H	0.601267	0.414662	0.104623
	H67	H	0.421887	0.421787	0.874571
	H68	H	0.601224	0.123980	0.392455
	H69	H	0.610858	0.888108	0.589096
	H70	H	0.413826	0.123341	0.577464
	H71	H	0.419131	0.890341	0.385125
	H72	H	0.910222	0.628344	0.088012
	H73	H	0.113917	0.391311	0.079633
	H74	H	0.104416	0.625834	0.889071
	H75	H	0.906567	0.391592	0.898458
	H76	H	0.110668	0.921506	0.606987
	H77	H	0.097164	0.105760	0.370489
	H78	H	0.925437	0.102867	0.605827
	H79	H	0.921114	0.919795	0.373583
	H80	H	0.629680	0.103974	0.892424
	H81	H	0.393039	0.101048	0.081110
	H82	H	0.625804	0.913259	0.073399
	H83	H	0.388632	0.907937	0.890435
	H84	H	0.626240	0.921981	0.084931
	H85	H	0.393684	0.104216	0.077309
	H86	H	0.627194	0.105163	0.902421
	H87	H	0.395389	0.912787	0.905167
	H88	H	0.915055	0.105986	0.608931
	H89	H	0.105978	0.101252	0.369723
	H90	H	0.092584	0.917272	0.602851
	H91	H	0.920715	0.907094	0.369836
	H92	H	0.100817	0.620759	0.899486
	H93	H	0.105171	0.390364	0.091904
	H94	H	0.928918	0.622000	0.086174
	H95	H	0.920985	0.391690	0.886070
	H96	H	0.415875	0.124138	0.585118
	H97	H	0.600532	0.892696	0.587074
	H98	H	0.601393	0.121856	0.398521
	H99	H	0.424307	0.896556	0.402479
	H100	H	0.604851	0.410443	0.107560
	H101	H	0.609279	0.592946	0.871931
	H102	H	0.429127	0.612866	0.107776
	H103	H	0.424498	0.409406	0.871566
	H104	H	0.127623	0.595517	0.396642
	H105	H	0.894498	0.605229	0.572121
	H106	H	0.129931	0.412464	0.587621
	H107	H	0.897687	0.416026	0.407931
	H108	H	0.916349	0.621050	0.070786
	H109	H	0.099887	0.396383	0.078842
	H110	H	0.111875	0.625411	0.898115
	H111	H	0.924100	0.398062	0.903964
	H112	H	0.103811	0.905458	0.610266
	H113	H	0.098079	0.096939	0.373159
	H114	H	0.917149	0.095649	0.605251
	H115	H	0.910094	0.914657	0.368279
	H116	H	0.626324	0.096132	0.897562
	H117	H	0.395332	0.100286	0.077146
	H118	H	0.631438	0.908647	0.085838
	H119	H	0.393846	0.923347	0.892581
	C120	C	0.388927	0.015755	0.609933
	C121	C	0.634120	0.999260	0.612490
	C122	C	0.631928	0.015637	0.367650
	C123	C	0.386898	0.999288	0.365758
	C124	C	0.633061	0.385945	-0.002723
	C125	C	0.631875	0.630212	0.980379
	C126	C	0.390698	0.629516	-0.002059
	C127	C	0.390590	0.386588	0.980853
	C128	C	0.019930	0.629812	0.368503
	C129	C	1.002224	0.629563	0.610069
	C130	C	0.019015	0.385911	0.610608
	C131	C	1.002791	0.386585	0.367853
	C132	C	0.889970	0.516532	0.110743
	C133	C	0.134760	0.500270	0.111952
	C134	C	0.134017	0.516665	0.867178
	C135	C	0.888806	0.500671	0.867088
	C136	C	0.130848	0.886211	0.497763
	C137	C	0.130595	0.129225	0.479613
	C138	C	0.888981	0.129667	0.497886
	C139	C	0.889543	0.886087	0.480043
	C140	C	0.519244	0.130603	0.866932
	C141	C	0.502514	0.129481	0.109029
	C142	C	0.519021	0.886463	0.109869
	C143	C	0.501692	0.886537	0.867874
	C144	C	0.392177	0.893455	0.665349
	C145	C	0.630265	0.121776	0.666410
	C146	C	0.628965	0.893236	0.312987
	C147	C	0.389284	0.121351	0.309785
	C148	C	0.686537	0.390037	0.872646
	C149	C	0.687576	0.626467	0.104395
	C150	C	0.335220	0.626156	0.873543
	C151	C	0.337056	0.390215	0.105537
	C152	C	0.896002	0.684881	0.368386
	C153	C	0.125723	0.685095	0.609694
	C154	C	0.895683	0.330660	0.609137
	C155	C	0.125910	0.330207	0.369371
	C156	C	0.894725	0.390366	0.664681
	C157	C	0.126990	0.625989	0.665161
	C158	C	0.895761	0.626088	0.312760
	C159	C	0.127402	0.389682	0.314261
	C160	C	0.390002	0.685518	0.874273
	C161	C	0.632383	0.685837	0.103883
	C162	C	0.631427	0.330389	0.873787
	C163	C	0.392475	0.330832	0.104585
	C164	C	0.686519	0.893257	0.371297
	C165	C	0.688675	0.121632	0.608847
	C166	C	0.333665	0.893543	0.607978
	C167	C	0.330595	0.121089	0.366962
	C168	C	0.892763	0.394460	0.166137
	C169	C	0.132005	0.622229	0.167361
	C170	C	0.130756	0.394178	0.812555
	C171	C	0.892126	0.623274	0.811784
	C172	C	0.185023	0.889087	0.373426
	C173	C	0.186696	0.125471	0.603930
	C174	C	0.833487	0.126220	0.373378
	C175	C	0.836951	0.890098	0.604981
	C176	C	0.395891	0.186478	0.867275
	C177	C	0.626330	0.184230	0.109113
	C178	C	0.395563	0.830515	0.108666
	C179	C	0.625204	0.831050	0.869684
	C180	C	0.394744	0.890001	0.163932
	C181	C	0.626776	0.125659	0.165085
	C182	C	0.394932	0.126810	0.811743
	C183	C	0.626531	0.890984	0.815347
	C184	C	0.888525	0.185824	0.374190
	C185	C	0.131079	0.184394	0.603604
	C186	C	0.129381	0.830123	0.374211
	C187	C	0.891038	0.830275	0.603806
	C188	C	0.189068	0.394313	0.870211
	C189	C	0.189838	0.622477	0.109498
	C190	C	0.834483	0.394645	0.108251
	C191	C	0.833176	0.623003	0.868821
	C192	C	0.410655	0.100838	0.587210
	C193	C	0.612845	0.913347	0.591260
	C194	C	0.609738	0.101193	0.389228
	C195	C	0.409729	0.914357	0.388618
	C196	C	0.610845	0.407575	0.083835
	C197	C	0.608757	0.608833	0.893684
	C198	C	0.414090	0.607806	0.084452
	C199	C	0.413111	0.408611	0.894485
	C200	C	0.106250	0.608309	0.391885
	C201	C	0.915656	0.607604	0.587326
	C202	C	0.105523	0.407864	0.588058
	C203	C	0.916319	0.408817	0.390171
	C204	C	0.911972	0.601710	0.088345
	C205	C	0.112885	0.414730	0.089851
	C206	C	0.112127	0.602044	0.889148
	C207	C	0.910704	0.415868	0.889398
	C208	C	0.108766	0.908217	0.584387
	C209	C	0.107173	0.107706	0.393443
	C210	C	0.912290	0.107912	0.584180
	C211	C	0.910938	0.907632	0.393247
	C212	C	0.605498	0.108368	0.890578
	C213	C	0.416261	0.108124	0.085406
	C214	C	0.605406	0.908078	0.087635
	C215	C	0.414831	0.908106	0.889743
	Zn216	Zn	0.510694	0.007838	0.739954
	Zn217	Zn	0.510517	0.008288	0.237435
	Zn218	Zn	0.759485	0.508734	-0.011226
	Zn219	Zn	0.263038	0.508520	-0.010428
	Zn220	Zn	0.009918	0.758195	0.489344
	Zn221	Zn	0.010347	0.257476	0.488705
	Zn222	Zn	0.011024	0.508618	0.737921
	Zn223	Zn	0.012010	0.508676	0.240261
	Zn224	Zn	0.510347	0.757791	-0.010925
	Zn225	Zn	0.511398	0.258647	-0.011169
	Zn226	Zn	0.762293	0.007355	0.489412
	Zn227	Zn	0.258668	0.007646	0.488517
	N228	N	0.425739	0.970517	0.666837
	N229	N	0.597380	0.044635	0.668828
	N230	N	0.595652	0.970452	0.310646
	N231	N	0.423690	0.044611	0.308836
	N232	N	0.687457	0.424012	0.950448
	N233	N	0.687079	0.592440	0.026628
	N234	N	0.335480	0.592103	0.951336
	N235	N	0.335980	0.424395	0.027675
	N236	N	0.974125	0.687235	0.402460
	N237	N	0.047260	0.687622	0.576355
	N238	N	0.974066	0.327884	0.576283
	N239	N	0.047345	0.328128	0.401818
	N240	N	0.972573	0.423975	0.665625
	N241	N	0.049217	0.591965	0.665357
	N242	N	0.973875	0.592676	0.312448
	N243	N	0.049728	0.424008	0.313074
	N244	N	0.423899	0.687526	0.952602
	N245	N	0.598461	0.688262	0.025627
	N246	N	0.599079	0.327716	0.952392
	N247	N	0.425034	0.328625	0.026105
	N248	N	0.688367	0.970328	0.404626
	N249	N	0.691057	0.044343	0.576025
	N250	N	0.331699	0.970469	0.574147
	N251	N	0.329130	0.044270	0.400972
	N252	N	0.926661	0.471233	0.167553
	N253	N	0.098716	0.545149	0.169185
	N254	N	0.097103	0.471152	0.810625
	N255	N	0.926029	0.546514	0.810606
	N256	N	0.186177	0.923035	0.451195
	N257	N	0.186617	0.091718	0.526054
	N258	N	0.833468	0.092252	0.451132
	N259	N	0.835835	0.924119	0.526999
	N260	N	0.474327	0.188910	0.900765
	N261	N	0.548272	0.186683	0.074950
	N262	N	0.473837	0.828429	0.075565
	N263	N	0.546537	0.828224	0.901799
	N264	N	0.472402	0.924109	0.164738
	N265	N	0.548719	0.092177	0.165153
	N266	N	0.472707	0.092714	0.811481
	N267	N	0.548667	0.924978	0.814332
	N268	N	0.922219	0.188303	0.452607
	N269	N	0.097077	0.186845	0.525479
	N270	N	0.096371	0.828394	0.452549
	N271	N	0.923013	0.827773	0.525172
	N272	N	0.191316	0.471498	0.903306
	N273	N	0.191593	0.545531	0.075706
	N274	N	0.832735	0.471641	0.074416
	N275	N	0.831053	0.546000	0.902560
	O276	O	0.953005	1.059741	-0.063091
	H277	H	0.957885	1.060362	-0.059316
	H278	H	0.957969	1.061224	-0.067444
	O279	O	-0.006006	0.059191	1.035910
	H280	H	-0.012652	0.050829	1.029257
	H281	H	-0.005507	0.063355	1.032924
	O282	O	0.479893	-0.495863	0.478807
	H283	H	0.479237	-0.497987	0.478586
	H284	H	0.477470	-0.496452	0.482425
	O285	O	0.530131	0.536771	0.427991
	H286	H	0.528585	0.539675	0.432994
	H287	H	0.535670	0.533175	0.422209
	O288	O	0.005826	0.053307	0.035915
	H289	H	0.008686	0.051669	0.039908
	H290	H	0.008863	0.050336	0.034988
	O291	O	0.032215	1.015991	-0.087597
	H292	H	0.024880	1.022107	-0.086865
	H293	H	0.030049	1.012452	-0.087143
	O294	O	-0.605704	0.489874	-0.479751
	H295	H	-0.612981	0.494330	-0.491071
	H296	H	-0.621618	0.482678	-0.481809
	O297	O	0.499380	0.498026	0.537068
	H298	H	0.495480	0.504031	0.536109
	H299	H	0.498406	0.493562	0.542570
	O300	O	0.493185	0.528001	0.519055
	H301	H	0.491766	0.517732	0.531520
	H302	H	0.477228	0.525900	0.528485
	O303	O	0.972348	0.130294	0.935482
	H304	H	0.963326	0.129229	0.936624
	H305	H	0.967207	0.137328	0.940628
	O306	O	-0.059227	1.089361	0.899651
	H307	H	-0.060427	1.100754	0.900930
	H308	H	-0.063462	1.079317	0.894490
	O309	O	-0.438287	0.423578	1.547181
	H310	H	-0.437276	0.429580	1.555042
	H311	H	-0.434998	0.424166	1.561118
	O312	O	0.087378	0.054995	1.007609
	H313	H	0.089907	0.053102	1.008269
	H314	H	0.088135	0.057570	1.010815
	O315	O	0.556175	0.391187	0.474385
	H316	H	0.559171	0.402174	0.476504
	H317	H	0.562925	0.380534	0.487114
	O318	O	-0.029310	0.043538	1.067147
	H319	H	-0.027548	0.039046	1.073969
	H320	H	-0.027560	0.049751	1.065747
	O321	O	1.022896	1.099092	1.037693
	H322	H	1.025072	1.099971	1.035676
	H323	H	1.012749	1.106917	1.039685
	O324	O	0.013205	-0.920392	0.958107
	H325	H	0.010506	-0.911890	0.956166
	H326	H	0.009125	-0.926200	0.961859
	O327	O	0.947613	1.030671	0.994458
	H328	H	0.942875	1.034536	0.997050
	H329	H	0.945152	1.032214	0.992444
	O330	O	0.563274	0.520755	0.431460
	H331	H	0.560600	0.522704	0.437670
	H332	H	0.559464	0.526278	0.432769
	O333	O	0.419693	0.502029	0.503426
	H334	H	0.405720	0.492085	0.508019
	H335	H	0.418179	0.495993	0.507103
	O336	O	0.435879	0.405668	0.489872
	H337	H	0.436634	0.407175	0.487288
	H338	H	0.443672	0.396226	0.484665
	O339	O	0.511558	0.487433	0.519557
	H340	H	0.501873	0.486660	0.522787
	H341	H	0.511664	0.487942	0.509630
	O342	O	0.532045	0.408113	0.477840
	H343	H	0.546134	0.420621	0.474679
	H344	H	0.532022	0.403342	0.471622
	O345	O	0.461070	0.529897	0.513440
	H346	H	0.462589	0.522702	0.499045
	H347	H	0.468509	0.533720	0.520785
