data_Molecule from HDF5

_cell_length_a		16.193151
_cell_length_b		16.326044
_cell_length_c		16.285545
_cell_angle_alpha	90.136907
_cell_angle_beta	90.339495
_cell_angle_gamma	90.002856
_symmetry_space_group_name_H-M	'P 1'
_symmetry_Int_Tables_number		1

loop_
	_symmetry_equiv_pos_as_xyz
	x,y,z

loop_
	_atom_site_label
	_atom_site_type_symbol
	_atom_site_fract_x
	_atom_site_fract_y
	_atom_site_fract_z
	H0	H	0.391534	0.836094	0.713107
	H1	H	0.591848	0.161787	0.718304
	H2	H	0.592215	0.836955	0.283945
	H3	H	0.388370	0.162060	0.283123
	H4	H	0.704788	0.400586	0.834934
	H5	H	0.707867	0.596314	0.163513
	H6	H	0.277274	0.597872	0.836222
	H7	H	0.280008	0.403505	0.163321
	H8	H	0.827741	0.713223	0.398900
	H9	H	0.156598	0.714169	0.599192
	H10	H	0.829041	0.284585	0.597561
	H11	H	0.156324	0.283211	0.399633
	H12	H	0.828080	0.401422	0.712180
	H13	H	0.156802	0.598926	0.714625
	H14	H	0.828336	0.597890	0.282998
	H15	H	0.157416	0.400888	0.286708
	H16	H	0.391849	0.714334	0.836830
	H17	H	0.595189	0.715588	0.162718
	H18	H	0.591089	0.281720	0.836204
	H19	H	0.392609	0.284778	0.163167
	H20	H	0.704974	0.836066	0.402505
	H21	H	0.706876	0.162463	0.600843
	H22	H	0.278949	0.835451	0.595802
	H23	H	0.275839	0.162616	0.401835
	H24	H	0.894405	0.336853	0.213637
	H25	H	0.092513	0.662577	0.216001
	H26	H	0.093175	0.337513	0.783085
	H27	H	0.894879	0.663675	0.785278
	H28	H	0.203707	0.901669	0.335574
	H29	H	0.205432	0.095337	0.663947
	H30	H	0.774182	0.098057	0.336497
	H31	H	0.779723	0.903506	0.664613
	H32	H	0.326886	0.212597	0.900021
	H33	H	0.655815	0.214096	0.100715
	H34	H	0.328094	0.784587	0.098507
	H35	H	0.656689	0.785833	0.903005
	H36	H	0.327201	0.901655	0.211985
	H37	H	0.655622	0.098060	0.216468
	H38	H	0.326926	0.096554	0.785269
	H39	H	0.655955	0.899392	0.785599
	H40	H	0.889743	0.214291	0.336187
	H41	H	0.093740	0.215977	0.662507
	H42	H	0.089272	0.784348	0.336425
	H43	H	0.891962	0.783414	0.662739
	H44	H	0.206373	0.336746	0.901702
	H45	H	0.207025	0.663297	0.098361
	H46	H	0.778851	0.336302	0.097260
	H47	H	0.776968	0.662794	0.900132
	H48	H	0.389564	0.119341	0.597997
	H49	H	0.582944	0.883875	0.592795
	H50	H	0.575187	0.114081	0.402621
	H51	H	0.395288	0.883433	0.408285
	H52	H	0.591872	0.411037	0.115653
	H53	H	0.585508	0.599475	0.881424
	H54	H	0.407741	0.599436	0.117275
	H55	H	0.389867	0.407667	0.880494
	H56	H	0.113120	0.592601	0.393900
	H57	H	0.876540	0.586878	0.592311
	H58	H	0.112430	0.400726	0.595011
	H59	H	0.876541	0.408429	0.406973
	H60	H	0.107209	0.407527	0.583743
	H61	H	0.873543	0.595468	0.595223
	H62	H	0.110693	0.604638	0.416007
	H63	H	0.875348	0.407396	0.401873
	H64	H	0.392398	0.593958	0.119380
	H65	H	0.589193	0.588206	0.883039
	H66	H	0.578747	0.407684	0.112936
	H67	H	0.406131	0.412697	0.887373
	H68	H	0.581491	0.111980	0.417885
	H69	H	0.585992	0.883438	0.592474
	H70	H	0.406796	0.115372	0.600675
	H71	H	0.397339	0.881956	0.402068
	H72	H	0.893786	0.617574	0.090055
	H73	H	0.097357	0.383609	0.081233
	H74	H	0.079709	0.613594	0.912239
	H75	H	0.893158	0.382737	0.908096
	H76	H	0.087460	0.903934	0.618190
	H77	H	0.075105	0.087747	0.386467
	H78	H	0.906818	0.097865	0.615659
	H79	H	0.896757	0.900750	0.381242
	H80	H	0.605958	0.081320	0.907121
	H81	H	0.372872	0.109113	0.081785
	H82	H	0.607831	0.905750	0.087240
	H83	H	0.370125	0.895838	0.901903
	H84	H	0.608119	0.912660	0.096116
	H85	H	0.382521	0.075494	0.081858
	H86	H	0.611581	0.096488	0.902500
	H87	H	0.377587	0.905306	0.915222
	H88	H	0.894537	0.095941	0.618241
	H89	H	0.083386	0.101347	0.380679
	H90	H	0.085841	0.908089	0.616448
	H91	H	0.893080	0.909369	0.383680
	H92	H	0.092434	0.617524	0.909159
	H93	H	0.090812	0.377587	0.107708
	H94	H	0.903599	0.616827	0.097774
	H95	H	0.899359	0.381541	0.898024
	H96	H	0.399560	0.112817	0.584475
	H97	H	0.584234	0.882774	0.594630
	H98	H	0.591432	0.118979	0.405959
	H99	H	0.401594	0.884355	0.406027
	H100	H	0.586868	0.398179	0.118415
	H101	H	0.577505	0.591141	0.885490
	H102	H	0.403196	0.584183	0.113111
	H103	H	0.403387	0.395455	0.881710
	H104	H	0.103879	0.580588	0.413982
	H105	H	0.875912	0.593620	0.586394
	H106	H	0.109066	0.414413	0.595895
	H107	H	0.874372	0.403611	0.405785
	H108	H	0.904456	0.612515	0.086406
	H109	H	0.071438	0.388602	0.090470
	H110	H	0.082824	0.617583	0.899748
	H111	H	0.905313	0.386506	0.907996
	H112	H	0.083450	0.904155	0.616482
	H113	H	0.091972	0.086755	0.382420
	H114	H	0.901320	0.086030	0.613020
	H115	H	0.903089	0.907289	0.385428
	H116	H	0.605822	0.093605	0.918549
	H117	H	0.369625	0.090552	0.110912
	H118	H	0.611754	0.902180	0.096514
	H119	H	0.374525	0.912965	0.899555
	C120	C	0.370201	0.007565	0.621289
	C121	C	0.613474	0.991008	0.623034
	C122	C	0.612205	0.007622	0.379383
	C123	C	0.368973	0.991136	0.377230
	C124	C	0.614092	0.376393	0.007746
	C125	C	0.614435	0.621491	0.991140
	C126	C	0.371798	0.620801	0.008267
	C127	C	0.371063	0.377613	0.991212
	C128	C	0.000557	0.620780	0.378250
	C129	C	0.983939	0.620695	0.620504
	C130	C	0.001058	0.378654	0.620165
	C131	C	0.984152	0.377958	0.377365
	C132	C	0.871800	0.507841	0.120273
	C133	C	0.115428	0.491097	0.122265
	C134	C	0.113966	0.508473	0.878026
	C135	C	0.870289	0.491301	0.876082
	C136	C	0.113331	0.877400	0.508368
	C137	C	0.113418	0.120986	0.491114
	C138	C	0.869920	0.121795	0.507968
	C139	C	0.869603	0.877644	0.491768
	C140	C	0.499559	0.119388	0.879323
	C141	C	0.483281	0.121039	0.121676
	C142	C	0.500481	0.877957	0.121435
	C143	C	0.483126	0.876621	0.877654
	C144	C	0.372116	0.884669	0.675367
	C145	C	0.611726	0.113291	0.679636
	C146	C	0.611166	0.885321	0.323029
	C147	C	0.369723	0.113466	0.321822
	C148	C	0.667279	0.379732	0.883872
	C149	C	0.670253	0.617790	0.114438
	C150	C	0.315560	0.618331	0.885115
	C151	C	0.316736	0.381747	0.114356
	C152	C	0.877176	0.675902	0.378958
	C153	C	0.107316	0.676433	0.619235
	C154	C	0.877720	0.322903	0.618040
	C155	C	0.107524	0.321850	0.380178
	C156	C	0.877400	0.381064	0.674931
	C157	C	0.107609	0.619283	0.676847
	C158	C	0.877410	0.618561	0.321332
	C159	C	0.108245	0.380211	0.323692
	C160	C	0.372835	0.675953	0.885407
	C161	C	0.614177	0.676948	0.114159
	C162	C	0.611223	0.320238	0.884785
	C163	C	0.372611	0.322562	0.114067
	C164	C	0.667534	0.884969	0.381808
	C165	C	0.669017	0.113617	0.621287
	C166	C	0.315914	0.884358	0.616960
	C167	C	0.313583	0.113813	0.380857
	C168	C	0.874271	0.385283	0.175460
	C169	C	0.112708	0.613867	0.177813
	C170	C	0.112631	0.385951	0.821820
	C171	C	0.873169	0.614462	0.821924
	C172	C	0.167170	0.880347	0.384942
	C173	C	0.168415	0.117353	0.614733
	C174	C	0.812694	0.118885	0.385251
	C175	C	0.816129	0.881617	0.615242
	C176	C	0.376127	0.174943	0.879982
	C177	C	0.606741	0.176246	0.120759
	C178	C	0.376883	0.822832	0.118361
	C179	C	0.607136	0.822530	0.881581
	C180	C	0.376474	0.880694	0.175178
	C181	C	0.606686	0.118634	0.178304
	C182	C	0.375810	0.116823	0.823515
	C183	C	0.606818	0.879109	0.823226
	C184	C	0.870419	0.176390	0.385039
	C185	C	0.112789	0.177117	0.613870
	C186	C	0.110221	0.822195	0.385256
	C187	C	0.871938	0.822033	0.614253
	C188	C	0.169040	0.385638	0.880532
	C189	C	0.169713	0.614315	0.119411
	C190	C	0.816802	0.385080	0.117769
	C191	C	0.814712	0.613998	0.878983
	C192	C	0.392128	0.093418	0.600388
	C193	C	0.590852	0.905356	0.600072
	C194	C	0.589085	0.092948	0.401927
	C195	C	0.391589	0.905621	0.399005
	C196	C	0.592364	0.398957	0.093341
	C197	C	0.591040	0.599404	0.905544
	C198	C	0.394440	0.599032	0.094315
	C199	C	0.393207	0.398974	0.905316
	C200	C	0.087058	0.599225	0.401271
	C201	C	0.897580	0.598372	0.598098
	C202	C	0.087194	0.401013	0.597955
	C203	C	0.897744	0.400140	0.398555
	C204	C	0.894002	0.593529	0.097774
	C205	C	0.093144	0.405434	0.099642
	C206	C	0.091497	0.594071	0.900452
	C207	C	0.892813	0.405740	0.897994
	C208	C	0.092116	0.899165	0.594678
	C209	C	0.090335	0.098562	0.405337
	C210	C	0.893737	0.099694	0.593369
	C211	C	0.891244	0.899382	0.405809
	C212	C	0.585472	0.097083	0.902466
	C213	C	0.397209	0.098336	0.098326
	C214	C	0.586934	0.900194	0.099805
	C215	C	0.396537	0.898493	0.899113
	Zn216	Zn	0.491022	-0.001322	0.750311
	Zn217	Zn	0.491350	-0.000643	0.249632
	Zn218	Zn	0.742153	0.499324	-0.001029
	Zn219	Zn	0.242761	0.500060	-0.000587
	Zn220	Zn	-0.008353	0.749138	0.499693
	Zn221	Zn	-0.007682	0.249969	0.499102
	Zn222	Zn	-0.006993	0.499885	0.748657
	Zn223	Zn	-0.007028	0.499240	0.249664
	Zn224	Zn	0.492412	0.749734	0.000435
	Zn225	Zn	0.491855	0.248401	-0.000473
	Zn226	Zn	0.741354	-0.000251	0.500373
	Zn227	Zn	0.241699	-0.000865	0.500000
	N228	N	0.405132	0.962197	0.678271
	N229	N	0.578103	0.035844	0.680689
	N230	N	0.577538	0.962568	0.321539
	N231	N	0.403461	0.036188	0.319390
	N232	N	0.669642	0.413742	0.961258
	N233	N	0.670537	0.584037	0.036909
	N234	N	0.314826	0.584746	0.962501
	N235	N	0.315580	0.415503	0.037015
	N236	N	0.954784	0.677291	0.413650
	N237	N	0.029341	0.677465	0.584950
	N238	N	0.955470	0.321362	0.584680
	N239	N	0.029240	0.320258	0.412784
	N240	N	0.955385	0.414590	0.676648
	N241	N	0.030095	0.585174	0.677469
	N242	N	0.955291	0.584822	0.320920
	N243	N	0.030663	0.414316	0.321812
	N244	N	0.407129	0.677539	0.962978
	N245	N	0.580391	0.679519	0.036459
	N246	N	0.578866	0.318350	0.962695
	N247	N	0.405978	0.320266	0.036650
	N248	N	0.668248	0.962007	0.416247
	N249	N	0.670347	0.036549	0.586876
	N250	N	0.314588	0.961808	0.583933
	N251	N	0.313157	0.036829	0.414797
	N252	N	0.907709	0.462640	0.177019
	N253	N	0.080023	0.536093	0.179808
	N254	N	0.079020	0.463278	0.820376
	N255	N	0.906984	0.537226	0.820183
	N256	N	0.169184	0.913927	0.462504
	N257	N	0.169055	0.083325	0.537457
	N258	N	0.812208	0.085728	0.462752
	N259	N	0.814632	0.915533	0.537951
	N260	N	0.453905	0.176455	0.914185
	N261	N	0.529011	0.177705	0.086515
	N262	N	0.455116	0.821084	0.085811
	N263	N	0.529033	0.820701	0.914578
	N264	N	0.454266	0.914409	0.177161
	N265	N	0.528658	0.085127	0.179164
	N266	N	0.453598	0.082689	0.822981
	N267	N	0.528604	0.911743	0.820592
	N268	N	0.905404	0.178250	0.462294
	N269	N	0.079277	0.179286	0.536070
	N270	N	0.077317	0.820395	0.462948
	N271	N	0.904393	0.819399	0.536527
	N272	N	0.169814	0.462719	0.914953
	N273	N	0.171371	0.537026	0.085567
	N274	N	0.815257	0.462305	0.083986
	N275	N	0.812566	0.536429	0.911872
	O276	O	0.466614	0.424407	0.432508
	H277	H	0.466101	0.424754	0.435441
	H278	H	0.471811	0.422124	0.432673
	O279	O	0.384650	0.530014	0.485325
	H280	H	0.384338	0.519293	0.493366
	H281	H	0.376465	0.529200	0.476456
	O282	O	0.532154	0.481886	0.524175
	H283	H	0.516546	0.486609	0.522190
	H284	H	0.536896	0.488542	0.527838
	O285	O	-0.076872	1.065127	0.996536
	H286	H	-0.075419	1.070977	1.000186
	H287	H	-0.077143	1.064398	0.997809
	O288	O	0.473213	0.513392	0.451158
	H289	H	0.473599	0.514359	0.469961
	H290	H	0.470223	0.511809	0.439988
	O291	O	0.540131	0.433023	1.452861
	H292	H	0.539396	0.425071	1.458299
	H293	H	0.547865	0.442878	1.445555
	O294	O	0.581177	0.550983	0.541544
	H295	H	0.582739	0.552033	0.547103
	H296	H	0.586369	0.563732	0.543723
	O297	O	0.540806	0.536695	0.521664
	H298	H	0.536072	0.541688	0.511897
	H299	H	0.538457	0.533303	0.526360
	O300	O	0.579453	0.451073	0.559520
	H301	H	0.578745	0.455101	0.551207
	H302	H	0.577931	0.448381	0.565134
	O303	O	0.506980	0.475494	0.489277
	H304	H	0.511520	0.476787	0.495984
	H305	H	0.518024	0.473653	0.477985
	O306	O	0.950569	0.059351	0.975308
	H307	H	0.941254	0.067389	0.972200
	H308	H	0.944897	0.051990	0.978931
	O309	O	0.469570	0.492472	0.440936
	H310	H	0.467155	0.480274	0.433339
	H311	H	0.481056	0.489247	0.439308
	O312	O	0.513242	0.570674	0.474387
	H313	H	0.509229	0.573694	0.471218
	H314	H	0.510275	0.572721	0.474814
	O315	O	0.943173	0.057573	0.977501
	H316	H	0.942999	0.067045	0.968769
	H317	H	0.943429	0.058304	0.972666
	O318	O	0.497433	-0.469980	-0.463717
	H319	H	0.496450	-0.460117	-0.461908
	H320	H	0.499314	-0.468856	-0.461059
	O321	O	0.432490	0.611094	0.461675
	H322	H	0.431757	0.612484	0.447625
	H323	H	0.412479	0.617040	0.465286
	O324	O	0.951307	0.102627	-0.001074
	H325	H	0.948023	0.102078	0.008782
	H326	H	0.956316	0.101517	-0.007606
	O327	O	0.938394	1.069419	0.001417
	H328	H	0.950059	1.073112	0.002214
	H329	H	0.931994	1.069996	0.004906
	O330	O	0.583275	0.542671	0.496835
	H331	H	0.587323	0.542917	0.505856
	H332	H	0.580271	0.543717	0.498820
	O333	O	0.457382	0.474557	0.488581
	H334	H	0.469715	0.462424	0.486593
	H335	H	0.465828	0.475715	0.493364
