data_Molecule from HDF5

_cell_length_a		16.566000
_cell_length_b		16.551228
_cell_length_c		16.506693
_cell_angle_alpha	89.921773
_cell_angle_beta	89.976255
_cell_angle_gamma	90.136479
_symmetry_space_group_name_H-M	'P 1'
_symmetry_Int_Tables_number		1

loop_
	_symmetry_equiv_pos_as_xyz
	x,y,z

loop_
	_atom_site_label
	_atom_site_type_symbol
	_atom_site_fract_x
	_atom_site_fract_y
	_atom_site_fract_z
	H0	H	0.397319	0.841786	0.739287
	H1	H	0.607547	0.154071	0.735245
	H2	H	0.608392	0.840975	0.293541
	H3	H	0.399079	0.154207	0.293643
	H4	H	0.723707	0.393643	0.858817
	H5	H	0.724295	0.600513	0.171937
	H6	H	0.278303	0.606657	0.860187
	H7	H	0.281624	0.389793	0.172355
	H8	H	0.847763	0.718781	0.406756
	H9	H	0.159934	0.717713	0.619581
	H10	H	0.848694	0.272538	0.621453
	H11	H	0.161541	0.274141	0.408107
	H12	H	0.848789	0.388340	0.738371
	H13	H	0.160220	0.600779	0.735658
	H14	H	0.847572	0.599957	0.293688
	H15	H	0.161308	0.390657	0.292005
	H16	H	0.395464	0.721450	0.859286
	H17	H	0.608974	0.717430	0.171538
	H18	H	0.606546	0.276973	0.858895
	H19	H	0.397140	0.274314	0.172608
	H20	H	0.726893	0.841355	0.408553
	H21	H	0.726409	0.152514	0.620928
	H22	H	0.279881	0.842016	0.623393
	H23	H	0.281318	0.153734	0.409127
	H24	H	0.901096	0.339061	0.233249
	H25	H	0.107547	0.654337	0.234044
	H26	H	0.108278	0.338826	0.793884
	H27	H	0.896429	0.652418	0.790198
	H28	H	0.225209	0.891354	0.358708
	H29	H	0.224874	0.101206	0.673159
	H30	H	0.783110	0.100804	0.359512
	H31	H	0.783364	0.890523	0.673610
	H32	H	0.347841	0.220278	0.907033
	H33	H	0.661117	0.215209	0.117398
	H34	H	0.348455	0.773411	0.121203
	H35	H	0.660563	0.775232	0.908951
	H36	H	0.347888	0.890059	0.238066
	H37	H	0.660485	0.098884	0.234563
	H38	H	0.347887	0.102562	0.792282
	H39	H	0.661250	0.890915	0.793579
	H40	H	0.901104	0.216333	0.358109
	H41	H	0.110142	0.218112	0.672597
	H42	H	0.107109	0.776627	0.358398
	H43	H	0.897544	0.773742	0.673159
	H44	H	0.227125	0.340736	0.908308
	H45	H	0.226411	0.653051	0.119786
	H46	H	0.784387	0.339204	0.116341
	H47	H	0.781477	0.654000	0.906730
	H48	H	0.417698	0.108182	0.602781
	H49	H	0.588301	0.886025	0.603315
	H50	H	0.593312	0.107924	0.429448
	H51	H	0.409432	0.884528	0.430419
	H52	H	0.592349	0.407533	0.128748
	H53	H	0.589236	0.589858	0.902033
	H54	H	0.417454	0.581559	0.125267
	H55	H	0.415003	0.404923	0.901732
	H56	H	0.114915	0.584245	0.426169
	H57	H	0.891693	0.580687	0.605013
	H58	H	0.114799	0.410457	0.603071
	H59	H	0.892144	0.401729	0.426291
	H60	H	0.117261	0.407264	0.606056
	H61	H	0.889503	0.587355	0.605723
	H62	H	0.117466	0.587534	0.423859
	H63	H	0.894349	0.407925	0.427813
	H64	H	0.418683	0.584982	0.125596
	H65	H	0.598154	0.587442	0.898689
	H66	H	0.594532	0.403157	0.130738
	H67	H	0.413226	0.412515	0.903995
	H68	H	0.596177	0.110121	0.426412
	H69	H	0.596702	0.883550	0.601456
	H70	H	0.414295	0.108515	0.601471
	H71	H	0.415269	0.884166	0.422133
	H72	H	0.917416	0.607773	0.102006
	H73	H	0.094534	0.383872	0.103780
	H74	H	0.094429	0.608717	0.925174
	H75	H	0.909496	0.381650	0.921084
	H76	H	0.089441	0.906213	0.627414
	H77	H	0.090635	0.084501	0.404365
	H78	H	0.912478	0.083249	0.628795
	H79	H	0.911626	0.909366	0.403655
	H80	H	0.615253	0.086401	0.927157
	H81	H	0.390979	0.085822	0.103238
	H82	H	0.614554	0.913616	0.103527
	H83	H	0.392893	0.908376	0.927085
	H84	H	0.618523	0.906083	0.109971
	H85	H	0.391384	0.084706	0.103762
	H86	H	0.616216	0.087083	0.924177
	H87	H	0.394302	0.909151	0.931464
	H88	H	0.918897	0.084092	0.627027
	H89	H	0.093097	0.087516	0.402099
	H90	H	0.094319	0.905568	0.629798
	H91	H	0.916912	0.908673	0.404282
	H92	H	0.087249	0.606673	0.925981
	H93	H	0.091251	0.384156	0.104658
	H94	H	0.909402	0.610861	0.102218
	H95	H	0.921793	0.386984	0.924987
	H96	H	0.414992	0.109964	0.604634
	H97	H	0.593494	0.882651	0.609789
	H98	H	0.591223	0.108508	0.425069
	H99	H	0.418657	0.887990	0.430582
	H100	H	0.597612	0.407577	0.130094
	H101	H	0.592954	0.581374	0.904319
	H102	H	0.415558	0.583786	0.126874
	H103	H	0.420675	0.409434	0.905623
	H104	H	0.116407	0.587932	0.428346
	H105	H	0.892098	0.584761	0.599115
	H106	H	0.116247	0.405570	0.601191
	H107	H	0.892078	0.406828	0.421391
	H108	H	0.914382	0.611254	0.109095
	H109	H	0.092680	0.385173	0.101224
	H110	H	0.092005	0.605731	0.931571
	H111	H	0.911260	0.386962	0.934471
	H112	H	0.092563	0.910181	0.627249
	H113	H	0.095150	0.083219	0.403574
	H114	H	0.915552	0.088604	0.630003
	H115	H	0.913734	0.904465	0.402543
	H116	H	0.616063	0.089658	0.926234
	H117	H	0.390805	0.085992	0.104596
	H118	H	0.615402	0.903483	0.100262
	H119	H	0.394594	0.912343	0.928499
	C120	C	0.382578	0.005941	0.636937
	C121	C	0.624993	0.987993	0.636869
	C122	C	0.625334	0.005435	0.394347
	C123	C	0.381782	0.988961	0.394199
	C124	C	0.625364	0.375464	0.025119
	C125	C	0.625024	0.617690	1.006016
	C126	C	0.382980	0.617916	0.023303
	C127	C	0.382875	0.375634	1.007285
	C128	C	0.012509	0.617912	0.393597
	C129	C	0.995080	0.616723	0.635692
	C130	C	0.013054	0.374584	0.636217
	C131	C	0.996560	0.373903	0.393092
	C132	C	0.882681	0.505484	0.135523
	C133	C	0.125516	0.487955	0.135838
	C134	C	0.125075	0.504262	0.894011
	C135	C	0.881752	0.488695	0.893392
	C136	C	0.124246	0.875413	0.523966
	C137	C	0.125855	0.117696	0.507028
	C138	C	0.883586	0.117454	0.524560
	C139	C	0.881631	0.874078	0.507370
	C140	C	0.512310	0.119387	0.892993
	C141	C	0.494965	0.117104	0.135699
	C142	C	0.512830	0.874874	0.137078
	C143	C	0.496504	0.876475	0.895006
	C144	C	0.378837	0.888678	0.698809
	C145	C	0.626686	0.106426	0.696051
	C146	C	0.627512	0.887896	0.333608
	C147	C	0.379763	0.106950	0.333341
	C148	C	0.683718	0.374582	0.905834
	C149	C	0.684383	0.619294	0.124696
	C150	C	0.319823	0.623348	0.906716
	C151	C	0.321640	0.371900	0.125027
	C152	C	0.894780	0.677950	0.390057
	C153	C	0.113035	0.677232	0.638033
	C154	C	0.895452	0.313068	0.639342
	C155	C	0.114613	0.314202	0.390332
	C156	C	0.895607	0.370436	0.697592
	C157	C	0.113249	0.618939	0.695529
	C158	C	0.894649	0.619114	0.333395
	C159	C	0.114265	0.372175	0.332340
	C160	C	0.378015	0.680739	0.906291
	C161	C	0.627144	0.677282	0.124469
	C162	C	0.625799	0.316868	0.905960
	C163	C	0.379177	0.314314	0.125181
	C164	C	0.686032	0.887873	0.390781
	C165	C	0.685611	0.105846	0.639121
	C166	C	0.320926	0.888573	0.640944
	C167	C	0.321612	0.106662	0.391047
	C168	C	0.881926	0.386401	0.193972
	C169	C	0.127017	0.606801	0.194998
	C170	C	0.127041	0.386386	0.833689
	C171	C	0.878611	0.605796	0.831204
	C172	C	0.184620	0.873344	0.405807
	C173	C	0.185347	0.119883	0.625726
	C174	C	0.823462	0.119383	0.406291
	C175	C	0.822398	0.871811	0.626075
	C176	C	0.394927	0.180080	0.889394
	C177	C	0.613647	0.175880	0.136702
	C178	C	0.395157	0.813941	0.139570
	C179	C	0.613812	0.815727	0.891490
	C180	C	0.394901	0.872006	0.197464
	C181	C	0.613558	0.118137	0.194717
	C182	C	0.394871	0.121589	0.832184
	C183	C	0.614103	0.873550	0.833914
	C184	C	0.881957	0.176791	0.405638
	C185	C	0.128292	0.177909	0.625523
	C186	C	0.126168	0.815951	0.405561
	C187	C	0.879160	0.813346	0.625471
	C188	C	0.185898	0.386862	0.890698
	C189	C	0.185917	0.606174	0.138062
	C190	C	0.823972	0.386557	0.136013
	C191	C	0.821352	0.606458	0.889496
	C192	C	0.408204	0.087656	0.610425
	C193	C	0.600016	0.905547	0.612019
	C194	C	0.600600	0.087389	0.419788
	C195	C	0.407076	0.906933	0.420163
	C196	C	0.601718	0.399341	0.108115
	C197	C	0.600381	0.593096	0.923324
	C198	C	0.409668	0.591068	0.104626
	C199	C	0.408849	0.401608	0.925285
	C200	C	0.094696	0.593434	0.418747
	C201	C	0.912690	0.591526	0.610632
	C202	C	0.094835	0.400466	0.610759
	C203	C	0.914374	0.398362	0.418250
	C204	C	0.906737	0.588455	0.111353
	C205	C	0.100109	0.405813	0.110590
	C206	C	0.098951	0.585954	0.920163
	C207	C	0.906930	0.406596	0.919548
	C208	C	0.099369	0.900143	0.606583
	C209	C	0.100291	0.092390	0.424806
	C210	C	0.908544	0.092541	0.607084
	C211	C	0.906765	0.899903	0.425020
	C212	C	0.594688	0.094665	0.918350
	C213	C	0.412417	0.092512	0.110871
	C214	C	0.594847	0.900293	0.111714
	C215	C	0.415099	0.902518	0.921367
	Zn216	Zn	0.504110	-0.003225	0.765618
	Zn217	Zn	0.503265	-0.003091	0.265833
	Zn218	Zn	0.753498	0.497639	0.014595
	Zn219	Zn	0.254387	0.496086	0.014950
	Zn220	Zn	0.003056	0.746508	0.515314
	Zn221	Zn	0.005498	0.245670	0.515509
	Zn222	Zn	0.003693	0.496041	0.765316
	Zn223	Zn	0.004538	0.496357	0.264699
	Zn224	Zn	0.504514	0.746575	0.014574
	Zn225	Zn	0.502997	0.247193	0.015640
	Zn226	Zn	0.754294	-0.004144	0.516220
	Zn227	Zn	0.253491	-0.002957	0.515845
	N228	N	0.416403	0.962608	0.696403
	N229	N	0.590002	0.032073	0.694826
	N230	N	0.590502	0.961939	0.335721
	N231	N	0.416563	0.032594	0.335331
	N232	N	0.683649	0.410114	0.980939
	N233	N	0.683279	0.583282	0.049875
	N234	N	0.322704	0.584885	0.980548
	N235	N	0.323581	0.409098	0.050439
	N236	N	0.969088	0.677526	0.426823
	N237	N	0.038470	0.676113	0.601759
	N238	N	0.969468	0.315514	0.601810
	N239	N	0.040293	0.314763	0.427167
	N240	N	0.969563	0.408088	0.695738
	N241	N	0.038700	0.582304	0.694400
	N242	N	0.968906	0.582342	0.335368
	N243	N	0.039711	0.408329	0.333631
	N244	N	0.416564	0.677588	0.979728
	N245	N	0.591387	0.676885	0.049398
	N246	N	0.590221	0.317126	0.981148
	N247	N	0.416271	0.316315	0.050853
	N248	N	0.684942	0.962006	0.428063
	N249	N	0.684979	0.030983	0.603383
	N250	N	0.322948	0.962654	0.603360
	N251	N	0.322391	0.032061	0.427618
	N252	N	0.917774	0.461377	0.193912
	N253	N	0.090446	0.532209	0.193967
	N254	N	0.090096	0.460677	0.835481
	N255	N	0.915230	0.531343	0.833064
	N256	N	0.183760	0.909509	0.480613
	N257	N	0.184170	0.083493	0.551014
	N258	N	0.824125	0.083412	0.481369
	N259	N	0.823608	0.908781	0.551487
	N260	N	0.469143	0.178946	0.926482
	N261	N	0.538801	0.175484	0.100858
	N262	N	0.469487	0.815558	0.102856
	N263	N	0.539722	0.817405	0.928656
	N264	N	0.469092	0.909174	0.196151
	N265	N	0.538571	0.082522	0.194416
	N266	N	0.469067	0.084806	0.834246
	N267	N	0.539988	0.910749	0.835903
	N268	N	0.918300	0.175933	0.480260
	N269	N	0.092074	0.176675	0.550606
	N270	N	0.089248	0.817203	0.480089
	N271	N	0.914937	0.814380	0.550381
	N272	N	0.184982	0.461336	0.927109
	N273	N	0.185284	0.531182	0.102370
	N274	N	0.824182	0.461681	0.100662
	N275	N	0.823119	0.532369	0.927241
	O276	O	0.822583	1.009005	0.182292
	H277	H	0.817183	0.988239	0.182201
	H278	H	0.825974	1.000925	0.183079
	O279	O	0.495904	0.507765	0.745963
	H280	H	0.481705	0.516309	0.754697
	H281	H	0.501713	0.536735	0.740074
	O282	O	0.809571	0.174541	-0.154942
	H283	H	0.808716	0.178438	-0.111332
	H284	H	0.781358	0.203032	-0.172439
	O285	O	0.300356	0.657613	0.313167
	H286	H	0.326337	0.668386	0.326329
	H287	H	0.283017	0.666936	0.287664
	O288	O	0.854457	0.178001	0.979620
	H289	H	0.868345	0.155303	0.990933
	H290	H	0.847230	0.192662	0.996786
	O291	O	0.283580	0.552366	0.559289
	H292	H	0.287170	0.563262	0.553370
	H293	H	0.286310	0.543303	0.589413
	O294	O	0.220186	0.023520	0.227865
	H295	H	0.202675	0.005972	0.236959
	H296	H	0.237159	0.016599	0.247155
	O297	O	0.672757	0.410428	0.313063
	H298	H	0.677938	0.395372	0.307611
	H299	H	0.679877	0.396190	0.289288
	O300	O	-0.017322	-0.210540	0.222859
	H301	H	-0.035034	-0.221494	0.225166
	H302	H	-0.036723	-0.205857	0.233924
	O303	O	0.039108	-0.222002	-0.200273
	H304	H	0.039343	-0.249187	-0.230224
	H305	H	0.062572	-0.205927	-0.198345
	O306	O	0.594508	0.383237	-0.434100
	H307	H	0.593056	0.384771	-0.435444
	H308	H	0.578089	0.396160	-0.441018
	O309	O	1.020066	0.173345	0.055550
	H310	H	1.007574	0.170317	0.042405
	H311	H	1.034387	0.186265	0.052717
	O312	O	0.488733	0.505924	0.418115
	H313	H	0.486809	0.493565	0.412995
	H314	H	0.487774	0.503180	0.423138
	O315	O	0.708686	0.458395	0.529642
	H316	H	0.700250	0.451646	0.509687
	H317	H	0.704987	0.448182	0.513419
	O318	O	0.833880	0.804345	-0.001767
	H319	H	0.833837	0.820243	-0.006980
	H320	H	0.820634	0.791840	-0.008625
	O321	O	0.092600	1.045121	0.944848
	H322	H	0.086098	1.027182	0.960564
	H323	H	0.087043	1.051165	0.938757
	O324	O	1.220362	-0.104336	1.050229
	H325	H	1.204501	-0.109267	1.039910
	H326	H	1.224484	-0.102670	1.049466
	O327	O	0.725860	0.583720	0.473899
	H328	H	0.731473	0.584501	0.466569
	H329	H	0.721672	0.571166	0.460583
	O330	O	-0.197858	1.057841	0.076747
	H331	H	-0.189570	1.044097	0.067387
	H332	H	-0.185775	1.042919	0.064960
	O333	O	0.578566	0.303766	0.388735
	H334	H	0.563273	0.295065	0.385409
	H335	H	0.590561	0.294712	0.374450
	O336	O	0.110410	0.894805	0.221258
	H337	H	0.088659	0.889833	0.213502
	H338	H	0.097361	0.897292	0.224494
	O339	O	-0.155495	0.818257	-0.044518
	H340	H	-0.151435	0.817650	-0.067683
	H341	H	-0.155579	0.823839	-0.049694
	O342	O	-0.053411	0.994391	0.008861
	H343	H	-0.058188	0.993903	0.015378
	H344	H	-0.066364	0.990824	-0.004384
	O345	O	0.724466	0.280701	0.483707
	H346	H	0.723454	0.271429	0.468287
	H347	H	0.735876	0.261462	0.469015
	O348	O	0.346950	0.621653	0.666652
	H349	H	0.353000	0.609792	0.660299
	H350	H	0.364057	0.617463	0.651610
	O351	O	0.204732	-0.202752	0.815110
	H352	H	0.201689	-0.197603	0.802313
	H353	H	0.218850	-0.217526	0.839560
	O354	O	1.028822	0.119921	1.027386
	H355	H	1.032259	0.113649	1.023675
	H356	H	1.034126	0.113149	1.008393
	O357	O	0.181292	0.771648	0.191014
	H358	H	0.159037	0.791021	0.174156
	H359	H	0.163715	0.777224	0.198412
	O360	O	0.347446	0.511016	0.733328
	H361	H	0.346547	0.480578	0.725064
	H362	H	0.327578	0.495524	0.753581
	O363	O	0.712098	0.288376	0.308941
	H364	H	0.738860	0.257221	0.277188
	H365	H	0.694772	0.297885	0.318055
	O366	O	1.082110	0.067230	0.821619
	H367	H	1.081589	0.063062	0.824188
	H368	H	1.053200	0.072090	0.826528
	O369	O	0.038343	-0.199475	1.005071
	H370	H	0.027035	-0.206793	1.010397
	H371	H	0.039675	-0.202163	0.980059
	O372	O	0.197262	1.062227	0.949106
	H373	H	0.199442	1.059355	0.947732
	H374	H	0.192091	1.042969	0.951387
	O375	O	0.722430	0.276239	-0.260553
	H376	H	0.700976	0.299977	-0.279634
	H377	H	0.707862	0.289094	-0.263226
	O378	O	0.524002	0.713192	0.733462
	H379	H	0.558208	0.712836	0.724608
	H380	H	0.521351	0.724530	0.757310
	O381	O	-0.201407	1.026281	-0.201121
	H382	H	-0.234341	1.030097	-0.230424
	H383	H	-0.193254	1.072602	-0.197411
	O384	O	0.643079	0.712473	0.297787
	H385	H	0.624636	0.710226	0.310290
	H386	H	0.630018	0.712175	0.306325
	O387	O	0.029404	0.997895	0.820730
	H388	H	0.038778	0.995802	0.816323
	H389	H	0.020369	1.012787	0.815405
	O390	O	0.222073	0.973956	0.802550
	H391	H	0.215436	0.963044	0.794413
	H392	H	0.239495	0.963391	0.792807
	O393	O	1.188964	0.179614	0.194163
	H394	H	1.196960	0.129423	0.203119
	H395	H	1.200432	0.187559	0.143499
	O396	O	0.472398	0.281189	0.727248
	H397	H	0.490703	0.285065	0.729886
	H398	H	0.482415	0.271583	0.734409
	O399	O	0.381546	0.482658	0.621519
	H400	H	0.373456	0.468954	0.624737
	H401	H	0.372479	0.473777	0.632666
	O402	O	1.387941	0.402046	1.363911
	H403	H	1.372476	0.415653	1.362856
	H404	H	1.375946	0.399504	1.357437
	O405	O	0.715314	0.522377	0.723833
	H406	H	0.723405	0.498834	0.691644
	H407	H	0.737593	0.518660	0.743354
	O408	O	0.860879	0.195724	0.156392
	H409	H	0.886215	0.193842	0.153577
	H410	H	0.865384	0.169243	0.148943
	O411	O	0.765576	0.784746	0.253133
	H412	H	0.750835	0.778220	0.256893
	H413	H	0.757469	0.773614	0.251757
	O414	O	-0.168324	-0.117800	0.120323
	H415	H	-0.171738	-0.133322	0.100531
	H416	H	-0.169294	-0.134536	0.119788
	O417	O	0.292554	0.284263	0.541455
	H418	H	0.286619	0.284737	0.541907
	H419	H	0.277721	0.278543	0.549932
	O420	O	1.406767	-0.665529	0.453261
	H421	H	1.409333	-0.656177	0.453762
	H422	H	1.389498	-0.668371	0.465391
	O423	O	1.006792	0.948789	-0.020981
	H424	H	1.005276	0.959525	-0.018280
	H425	H	1.008402	0.931446	-0.035259
	O426	O	0.362804	0.412476	0.467863
	H427	H	0.343257	0.427011	0.467816
	H428	H	0.357604	0.414058	0.463947
	O429	O	0.376184	0.486240	0.309008
	H430	H	0.361616	0.482787	0.306389
	H431	H	0.361774	0.490115	0.305442
	O432	O	1.417850	0.448679	1.462538
	H433	H	1.408617	0.470199	1.457517
	H434	H	1.409477	0.434990	1.455855
	O435	O	-0.022137	0.044596	0.198196
	H436	H	-0.028763	0.035325	0.193288
	H437	H	-0.014765	0.077884	0.195944
	O438	O	0.311580	0.308734	0.706555
	H439	H	0.312195	0.287111	0.716751
	H440	H	0.341728	0.296235	0.693900
	O441	O	0.481045	0.652140	0.300304
	H442	H	0.481139	0.650370	0.302843
	H443	H	0.470218	0.658218	0.290666
	O444	O	0.562668	0.373237	0.666227
	H445	H	0.546278	0.378394	0.656741
	H446	H	0.542907	0.389578	0.675352
	O447	O	0.418221	0.716694	0.603891
	H448	H	0.414367	0.728252	0.613701
	H449	H	0.430211	0.711449	0.614599
	O450	O	0.964430	0.201877	-0.191561
	H451	H	0.943640	0.223684	-0.209645
	H452	H	0.941408	0.197492	-0.177019
	O453	O	0.715703	0.685678	0.533289
	H454	H	0.739872	0.692408	0.529488
	H455	H	0.711346	0.673462	0.535300
	O456	O	0.151238	1.177507	1.033049
	H457	H	0.163996	1.183866	1.028430
	H458	H	0.154524	1.152326	1.015290
	O459	O	0.554344	0.691105	0.474104
	H460	H	0.556712	0.688910	0.475000
	H461	H	0.557178	0.696982	0.478515
	O462	O	0.598245	0.528794	0.306770
	H463	H	0.588457	0.527459	0.299343
	H464	H	0.593407	0.524015	0.303827
	O465	O	0.290968	0.712692	0.486440
	H466	H	0.290434	0.717537	0.481750
	H467	H	0.280333	0.717075	0.476730
	O468	O	0.546150	1.569448	0.502880
	H469	H	0.541821	1.579627	0.506289
	H470	H	0.534263	1.561753	0.512099
	O471	O	0.681416	0.684396	0.701529
	H472	H	0.679656	0.655955	0.704402
	H473	H	0.689356	0.671166	0.671755
	O474	O	1.030291	1.212366	0.230467
	H475	H	1.061234	1.215749	0.224815
	H476	H	1.046710	1.235637	0.247886
	O477	O	0.085533	-0.170645	1.057136
	H478	H	0.073391	-0.171957	1.068633
	H479	H	0.089181	-0.189052	1.075495
