data_Molecule from HDF5

_cell_length_a		16.632971
_cell_length_b		16.753118
_cell_length_c		16.542919
_cell_angle_alpha	89.904050
_cell_angle_beta	89.983913
_cell_angle_gamma	89.995173
_symmetry_space_group_name_H-M	'P 1'
_symmetry_Int_Tables_number		1

loop_
	_symmetry_equiv_pos_as_xyz
	x,y,z

loop_
	_atom_site_label
	_atom_site_type_symbol
	_atom_site_fract_x
	_atom_site_fract_y
	_atom_site_fract_z
	H0	H	0.399791	0.839645	0.736396
	H1	H	0.611604	0.147074	0.737728
	H2	H	0.608862	0.837298	0.295708
	H3	H	0.396672	0.145388	0.288460
	H4	H	0.725874	0.388143	0.857311
	H5	H	0.723871	0.593627	0.170149
	H6	H	0.285627	0.598205	0.857674
	H7	H	0.285615	0.388895	0.170604
	H8	H	0.851012	0.716935	0.406812
	H9	H	0.157397	0.720363	0.623894
	H10	H	0.851030	0.272001	0.621850
	H11	H	0.159262	0.272153	0.407322
	H12	H	0.851056	0.388649	0.736470
	H13	H	0.160556	0.599738	0.735137
	H14	H	0.849421	0.598999	0.293032
	H15	H	0.161411	0.392037	0.295204
	H16	H	0.399482	0.715721	0.859185
	H17	H	0.611568	0.712709	0.168596
	H18	H	0.611888	0.270461	0.858407
	H19	H	0.398411	0.270444	0.169843
	H20	H	0.725409	0.837675	0.412826
	H21	H	0.728166	0.147544	0.622085
	H22	H	0.280762	0.841771	0.622520
	H23	H	0.277861	0.143634	0.401456
	H24	H	0.899329	0.340860	0.237904
	H25	H	0.110372	0.648685	0.234690
	H26	H	0.113235	0.340462	0.790690
	H27	H	0.903056	0.648484	0.794159
	H28	H	0.231056	0.884729	0.360956
	H29	H	0.231784	0.104656	0.666419
	H30	H	0.786399	0.096122	0.357799
	H31	H	0.786283	0.889164	0.671532
	H32	H	0.351236	0.215994	0.906360
	H33	H	0.659916	0.214103	0.120674
	H34	H	0.352474	0.768225	0.124081
	H35	H	0.658932	0.769948	0.906715
	H36	H	0.351150	0.886448	0.237094
	H37	H	0.661278	0.095777	0.234626
	H38	H	0.351222	0.100450	0.790524
	H39	H	0.660254	0.887925	0.792295
	H40	H	0.899551	0.214171	0.357722
	H41	H	0.114673	0.218838	0.666802
	H42	H	0.114969	0.770070	0.360846
	H43	H	0.899865	0.770835	0.669356
	H44	H	0.229784	0.340112	0.907005
	H45	H	0.227701	0.647822	0.119633
	H46	H	0.782211	0.340884	0.122240
	H47	H	0.783582	0.646645	0.908011
	H48	H	0.418101	0.102591	0.599186
	H49	H	0.594003	0.880127	0.613134
	H50	H	0.597721	0.104384	0.424879
	H51	H	0.421983	0.884538	0.425375
	H52	H	0.595977	0.402643	0.126775
	H53	H	0.592769	0.581362	0.901470
	H54	H	0.423534	0.581250	0.124679
	H55	H	0.413284	0.393202	0.897237
	H56	H	0.118332	0.583845	0.419925
	H57	H	0.898390	0.577832	0.595403
	H58	H	0.115550	0.407596	0.600072
	H59	H	0.892358	0.405153	0.422915
	H60	H	0.117228	0.404752	0.602549
	H61	H	0.893447	0.577875	0.609303
	H62	H	0.116054	0.588405	0.430714
	H63	H	0.892111	0.400504	0.426063
	H64	H	0.414684	0.586503	0.128055
	H65	H	0.593003	0.583033	0.900245
	H66	H	0.593566	0.405197	0.124881
	H67	H	0.410734	0.415434	0.904135
	H68	H	0.595911	0.104131	0.422179
	H69	H	0.590222	0.886277	0.599241
	H70	H	0.419561	0.103620	0.601441
	H71	H	0.419441	0.886758	0.432690
	H72	H	0.912455	0.606497	0.105003
	H73	H	0.094267	0.382916	0.106041
	H74	H	0.092620	0.601124	0.928752
	H75	H	0.914753	0.383148	0.928783
	H76	H	0.088886	0.909036	0.623400
	H77	H	0.088376	0.075999	0.407733
	H78	H	0.914057	0.082916	0.627572
	H79	H	0.912640	0.896508	0.398825
	H80	H	0.615723	0.082799	0.927471
	H81	H	0.391937	0.086908	0.102319
	H82	H	0.614080	0.906579	0.097119
	H83	H	0.395943	0.899448	0.935056
	H84	H	0.618278	0.906007	0.110755
	H85	H	0.397011	0.078825	0.096882
	H86	H	0.615189	0.080025	0.928899
	H87	H	0.396612	0.913323	0.925612
	H88	H	0.918942	0.083146	0.626232
	H89	H	0.087796	0.086887	0.402526
	H90	H	0.090418	0.906613	0.624615
	H91	H	0.911204	0.912146	0.403594
	H92	H	0.100493	0.604691	0.927260
	H93	H	0.094122	0.384492	0.102032
	H94	H	0.919596	0.603547	0.103671
	H95	H	0.914821	0.380158	0.922017
	H96	H	0.420559	0.102439	0.599498
	H97	H	0.604755	0.880629	0.601677
	H98	H	0.594699	0.102581	0.425159
	H99	H	0.414442	0.882713	0.427592
	H100	H	0.591824	0.401305	0.125495
	H101	H	0.594284	0.582341	0.901172
	H102	H	0.414671	0.575679	0.125580
	H103	H	0.431001	0.404466	0.907675
	H104	H	0.113113	0.577438	0.428232
	H105	H	0.892448	0.589599	0.601143
	H106	H	0.116342	0.403999	0.598777
	H107	H	0.894833	0.405704	0.427338
	H108	H	0.914333	0.603358	0.097704
	H109	H	0.097222	0.382257	0.103169
	H110	H	0.094207	0.605235	0.920809
	H111	H	0.921083	0.383518	0.925079
	H112	H	0.091960	0.909750	0.624699
	H113	H	0.097454	0.079676	0.400740
	H114	H	0.916394	0.087164	0.628291
	H115	H	0.925860	0.904485	0.404862
	H116	H	0.616164	0.080504	0.925869
	H117	H	0.393520	0.077531	0.107216
	H118	H	0.619944	0.894860	0.102241
	H119	H	0.389954	0.899546	0.918980
	C120	C	0.385198	0.001912	0.634381
	C121	C	0.628375	0.984770	0.637306
	C122	C	0.627051	0.000775	0.393633
	C123	C	0.383812	0.984574	0.392666
	C124	C	0.626483	0.371141	0.022261
	C125	C	0.625884	0.613333	1.004442
	C126	C	0.385163	0.613749	0.022927
	C127	C	0.384962	0.371770	1.005857
	C128	C	0.013039	0.615152	0.393556
	C129	C	0.996836	0.614942	0.634998
	C130	C	0.014025	0.372848	0.634556
	C131	C	0.995858	0.372514	0.392565
	C132	C	0.883556	0.502704	0.135505
	C133	C	0.127024	0.485446	0.135603
	C134	C	0.128491	0.502132	0.892255
	C135	C	0.884911	0.484771	0.893021
	C136	C	0.125716	0.873750	0.522760
	C137	C	0.126066	0.115036	0.505130
	C138	C	0.884158	0.115650	0.523316
	C139	C	0.884686	0.872423	0.505871
	C140	C	0.513856	0.114229	0.893433
	C141	C	0.496757	0.113297	0.135105
	C142	C	0.514714	0.870518	0.136070
	C143	C	0.496733	0.872027	0.893329
	C144	C	0.381653	0.886095	0.695747
	C145	C	0.630152	0.100835	0.697383
	C146	C	0.627684	0.883866	0.335404
	C147	C	0.379363	0.099223	0.329473
	C148	C	0.686178	0.369468	0.904548
	C149	C	0.685198	0.613641	0.122562
	C150	C	0.325176	0.616377	0.904999
	C151	C	0.325264	0.370150	0.123607
	C152	C	0.897136	0.676264	0.389537
	C153	C	0.112118	0.677932	0.640108
	C154	C	0.897784	0.312324	0.639069
	C155	C	0.113029	0.312685	0.389717
	C156	C	0.897816	0.370393	0.696231
	C157	C	0.113600	0.618416	0.695841
	C158	C	0.896416	0.617530	0.332928
	C159	C	0.113864	0.372094	0.333785
	C160	C	0.381642	0.674935	0.905726
	C161	C	0.628984	0.672450	0.122094
	C162	C	0.629676	0.310842	0.905204
	C163	C	0.381483	0.311310	0.123203
	C164	C	0.685416	0.884052	0.393637
	C165	C	0.688281	0.101005	0.639839
	C166	C	0.322601	0.887301	0.639009
	C167	C	0.320266	0.098459	0.385749
	C168	C	0.880910	0.387184	0.197370
	C169	C	0.128539	0.602034	0.194767
	C170	C	0.131566	0.386725	0.830956
	C171	C	0.883590	0.601695	0.833560
	C172	C	0.189437	0.868137	0.407288
	C173	C	0.189784	0.120949	0.620366
	C174	C	0.825547	0.115631	0.404895
	C175	C	0.825760	0.870383	0.624177
	C176	C	0.397706	0.175517	0.888746
	C177	C	0.613494	0.173777	0.138572
	C178	C	0.398711	0.809277	0.140865
	C179	C	0.612873	0.810979	0.889288
	C180	C	0.397890	0.868170	0.197047
	C181	C	0.614182	0.114965	0.194987
	C182	C	0.397634	0.117816	0.831375
	C183	C	0.613404	0.869396	0.832359
	C184	C	0.881641	0.174458	0.405175
	C185	C	0.131782	0.178000	0.620501
	C186	C	0.131790	0.810850	0.407304
	C187	C	0.882103	0.811743	0.623103
	C188	C	0.189428	0.386579	0.888853
	C189	C	0.187037	0.601655	0.137537
	C190	C	0.822662	0.386914	0.139980
	C191	C	0.824285	0.600693	0.890053
	C192	C	0.411982	0.082046	0.607801
	C193	C	0.603492	0.903520	0.611918
	C194	C	0.603062	0.082562	0.417528
	C195	C	0.410852	0.905203	0.420808
	C196	C	0.600959	0.396008	0.104406
	C197	C	0.600573	0.589137	0.922235
	C198	C	0.410392	0.588355	0.104749
	C199	C	0.411025	0.396957	0.924268
	C200	C	0.094677	0.590259	0.419126
	C201	C	0.915890	0.588926	0.609216
	C202	C	0.095242	0.398408	0.607982
	C203	C	0.914348	0.396915	0.418073
	C204	C	0.908447	0.583439	0.109348
	C205	C	0.102314	0.404256	0.110791
	C206	C	0.103034	0.582629	0.918166
	C207	C	0.909716	0.403554	0.918144
	C208	C	0.098237	0.900795	0.603302
	C209	C	0.098928	0.088161	0.424667
	C210	C	0.909110	0.091424	0.605863
	C211	C	0.909385	0.897304	0.423933
	C212	C	0.594655	0.088509	0.920004
	C213	C	0.415309	0.088289	0.109437
	C214	C	0.596203	0.895398	0.110443
	C215	C	0.415409	0.897164	0.919305
	Zn216	Zn	0.505400	-0.006334	0.764773
	Zn217	Zn	0.505506	-0.007814	0.263873
	Zn218	Zn	0.754700	0.492425	0.013744
	Zn219	Zn	0.256833	0.493419	0.014513
	Zn220	Zn	0.005563	0.744064	0.514119
	Zn221	Zn	0.005280	0.243554	0.513847
	Zn222	Zn	0.006371	0.493712	0.763393
	Zn223	Zn	0.005148	0.494711	0.264469
	Zn224	Zn	0.505496	0.742614	0.014470
	Zn225	Zn	0.505482	0.242639	0.014333
	Zn226	Zn	0.756915	-0.006222	0.514985
	Zn227	Zn	0.254558	-0.005943	0.513897
	N228	N	0.419846	0.958651	0.693232
	N229	N	0.593665	0.027429	0.695953
	N230	N	0.591978	0.957588	0.335258
	N231	N	0.418395	0.027327	0.333698
	N232	N	0.684366	0.406228	0.978505
	N233	N	0.683594	0.577809	0.048193
	N234	N	0.327294	0.578921	0.978857
	N235	N	0.327033	0.406975	0.049567
	N236	N	0.970899	0.674887	0.426645
	N237	N	0.038408	0.676099	0.603013
	N238	N	0.971274	0.313661	0.601317
	N239	N	0.038645	0.312686	0.425586
	N240	N	0.971445	0.407128	0.693761
	N241	N	0.040869	0.579945	0.692952
	N242	N	0.969773	0.580335	0.335288
	N243	N	0.039951	0.408522	0.335149
	N244	N	0.418048	0.673713	0.980201
	N245	N	0.593070	0.672862	0.047420
	N246	N	0.593347	0.311605	0.979692
	N247	N	0.417781	0.311844	0.048786
	N248	N	0.685447	0.957974	0.428952
	N249	N	0.687608	0.027432	0.603357
	N250	N	0.324531	0.960410	0.601742
	N251	N	0.322917	0.026202	0.424608
	N252	N	0.918024	0.460227	0.195009
	N253	N	0.092043	0.528607	0.193889
	N254	N	0.094534	0.459773	0.832637
	N255	N	0.920489	0.528447	0.835006
	N256	N	0.185794	0.906614	0.480381
	N257	N	0.186348	0.082449	0.547483
	N258	N	0.826733	0.079797	0.479660
	N259	N	0.827001	0.907463	0.550193
	N260	N	0.470857	0.173316	0.926955
	N261	N	0.539241	0.173298	0.102343
	N262	N	0.472337	0.810491	0.103681
	N263	N	0.539148	0.812342	0.926598
	N264	N	0.471163	0.905734	0.194192
	N265	N	0.540323	0.078365	0.193443
	N266	N	0.470896	0.080302	0.834090
	N267	N	0.540028	0.906491	0.834527
	N268	N	0.917278	0.174735	0.480043
	N269	N	0.092615	0.174471	0.547867
	N270	N	0.092616	0.814148	0.480206
	N271	N	0.918024	0.812897	0.548539
	N272	N	0.187890	0.459568	0.926114
	N273	N	0.186543	0.527972	0.101656
	N274	N	0.824047	0.459736	0.102071
	N275	N	0.824847	0.526888	0.926175
	O276	O	-0.432971	1.546892	-0.584295
	H277	H	-0.423472	1.535763	-0.581856
	H278	H	-0.435336	1.537754	-0.571487
	O279	O	-0.197764	0.200712	-0.190034
	H280	H	-0.201617	0.193447	-0.200142
	H281	H	-0.183221	0.207551	-0.177873
	O282	O	1.211160	0.203213	1.226879
	H283	H	1.203102	0.212025	1.195204
	H284	H	1.211604	0.215201	1.228814
	O285	O	0.692140	0.684340	0.327118
	H286	H	0.664582	0.666652	0.332871
	H287	H	0.677420	0.672380	0.355093
	O288	O	0.302881	0.581975	0.459753
	H289	H	0.292195	0.580855	0.455851
	H290	H	0.293500	0.592056	0.456733
	O291	O	0.533609	0.266704	0.291097
	H292	H	0.546870	0.244858	0.275057
	H293	H	0.540348	0.256887	0.291661
	O294	O	1.053132	-0.027088	1.225729
	H295	H	1.061525	-0.009263	1.229535
	H296	H	1.034374	-0.023281	1.223513
	O297	O	0.310721	0.470471	0.730417
	H298	H	0.299932	0.483251	0.746992
	H299	H	0.315365	0.490679	0.732018
	O300	O	-0.056796	0.054246	1.226578
	H301	H	-0.074683	0.056572	1.224726
	H302	H	-0.051214	0.074773	1.237026
	O303	O	0.703349	0.287297	0.314332
	H304	H	0.692393	0.279498	0.352884
	H305	H	0.701359	0.337563	0.311525
	O306	O	0.948218	-0.037206	0.032502
	H307	H	0.945367	-0.027648	0.041283
	H308	H	0.943155	-0.030554	0.043667
	O309	O	0.421387	0.369914	0.391647
	H310	H	0.430479	0.378993	0.388350
	H311	H	0.423612	0.357258	0.404553
	O312	O	0.431970	0.300342	0.496928
	H313	H	0.422372	0.296656	0.484082
	H314	H	0.424196	0.297502	0.504727
	O315	O	1.059555	1.123070	0.848687
	H316	H	1.065459	1.106393	0.859928
	H317	H	1.054898	1.123215	0.871209
	O318	O	1.225131	1.216111	0.049704
	H319	H	1.229633	1.195578	0.033638
	H320	H	1.247423	1.232635	0.042920
	O321	O	0.711422	0.694663	0.722062
	H322	H	0.734901	0.723269	0.733823
	H323	H	0.698982	0.704722	0.711746
	O324	O	0.780235	0.768570	0.040907
	H325	H	0.779730	0.769196	0.074271
	H326	H	0.761020	0.746442	0.056127
	O327	O	-0.013095	-0.018176	0.798053
	H328	H	-0.008826	0.007385	0.795676
	H329	H	0.004746	-0.003041	0.798192
	O330	O	0.782647	0.219567	-0.011564
	H331	H	0.761233	0.224057	-0.027162
	H332	H	0.763043	0.212638	-0.016192
	O333	O	0.381564	0.529284	0.551020
	H334	H	0.382392	0.529013	0.553989
	H335	H	0.378883	0.527970	0.526810
	O336	O	0.228421	0.219189	0.793798
	H337	H	0.198858	0.198882	0.809947
	H338	H	0.223225	0.223771	0.808661
	O339	O	0.976497	-0.226686	1.231349
	H340	H	0.973397	-0.219276	1.230858
	H341	H	0.976223	-0.235652	1.256209
	O342	O	-0.103556	0.166382	0.112081
	H343	H	-0.103738	0.174666	0.105455
	H344	H	-0.107661	0.160098	0.080661
	O345	O	0.216954	0.787388	0.811970
	H346	H	0.192076	0.774328	0.817128
	H347	H	0.226213	0.765509	0.795402
	O348	O	-0.068056	0.026565	-0.016767
	H349	H	-0.071268	0.016513	-0.012054
	H350	H	-0.066636	0.029559	-0.010916
	O351	O	0.701758	0.453921	0.530650
	H352	H	0.697997	0.457282	0.538125
	H353	H	0.686714	0.452256	0.539358
	O354	O	0.038397	0.113526	1.054904
	H355	H	0.046422	0.103365	1.066287
	H356	H	0.008776	0.116354	1.055588
	O357	O	0.212474	0.942383	0.814575
	H358	H	0.206522	0.910728	0.824006
	H359	H	0.233167	0.924440	0.800171
	O360	O	0.504044	0.355087	0.650714
	H361	H	0.507939	0.343725	0.649916
	H362	H	0.515612	0.344702	0.670157
	O363	O	-0.357549	0.331646	-0.394820
	H364	H	-0.365533	0.341625	-0.396988
	H365	H	-0.373743	0.327144	-0.405810
	O366	O	0.561540	0.278143	0.576662
	H367	H	0.555217	0.279681	0.578115
	H368	H	0.559306	0.268468	0.577966
	O369	O	0.676703	0.469378	0.331258
	H370	H	0.676017	0.481808	0.355768
	H371	H	0.681647	0.482868	0.324568
	O372	O	0.936449	1.030868	0.005310
	H373	H	0.942340	1.044164	0.008979
	H374	H	0.928877	1.033400	0.006516
	O375	O	1.299925	0.395831	0.334330
	H376	H	1.279024	0.399178	0.325212
	H377	H	1.291099	0.394186	0.358243
	O378	O	0.226300	-0.220556	-0.007545
	H379	H	0.251922	-0.242242	-0.016499
	H380	H	0.216300	-0.210292	-0.015652
	O381	O	-0.016918	1.212950	0.794349
	H382	H	-0.022581	1.220204	0.784793
	H383	H	-0.022847	1.222935	0.799212
	O384	O	1.041964	0.216647	1.236660
	H385	H	1.047269	0.225736	1.221036
	H386	H	1.034370	0.244034	1.259617
	O387	O	1.060681	0.792220	-0.060705
	H388	H	1.059352	0.784657	-0.059194
	H389	H	1.066399	0.780118	-0.059383
	O390	O	0.327338	0.686766	0.651419
	H391	H	0.344632	0.675369	0.632625
	H392	H	0.341290	0.667580	0.646187
	O393	O	0.288643	0.267085	0.523527
	H394	H	0.280408	0.256372	0.558208
	H395	H	0.274073	0.267606	0.542239
	O396	O	-0.215847	1.024744	0.796287
	H397	H	-0.200964	1.033667	0.791872
	H398	H	-0.233698	1.028453	0.769636
	O399	O	-0.209856	0.003155	1.137244
	H400	H	-0.196320	0.004826	1.147801
	H401	H	-0.224257	-0.004848	1.129583
	O402	O	0.723955	0.268426	0.483313
	H403	H	0.730192	0.278406	0.485921
	H404	H	0.742354	0.249491	0.489886
	O405	O	1.162154	-0.153834	1.073353
	H406	H	1.155344	-0.148726	1.069341
	H407	H	1.159482	-0.140750	1.095344
	O408	O	0.565810	0.723423	-0.535455
	H409	H	0.563608	0.726979	-0.535327
	H410	H	0.550155	0.718437	-0.534930
	O411	O	0.728814	0.706258	0.551543
	H412	H	0.729573	0.712284	0.562672
	H413	H	0.729251	0.722763	0.547380
	O414	O	0.314669	0.475037	0.337811
	H415	H	0.297338	0.463605	0.323228
	H416	H	0.319529	0.477838	0.338133
	O417	O	0.729047	0.524791	0.736632
	H418	H	0.735443	0.551181	0.745906
	H419	H	0.744090	0.547814	0.751820
	O420	O	0.432182	0.554457	0.720860
	H421	H	0.435348	0.562013	0.708539
	H422	H	0.458464	0.541763	0.718504
	O423	O	-0.042480	-0.241977	0.974309
	H424	H	-0.052368	-0.245220	0.988289
	H425	H	-0.039097	-0.241124	0.991642
	O426	O	0.487896	0.566038	0.571968
	H427	H	0.467532	0.567049	0.565708
	H428	H	0.498990	0.554733	0.561830
	O429	O	0.790955	0.778404	1.220825
	H430	H	0.814293	0.800080	1.224879
	H431	H	0.761104	0.747341	1.256254
	O432	O	0.538955	0.709874	0.729852
	H433	H	0.552031	0.714723	0.736322
	H434	H	0.537988	0.725242	0.733525
	O435	O	0.221868	1.016954	0.230481
	H436	H	0.233160	1.044528	0.244754
	H437	H	0.219066	1.027449	0.243017
	O438	O	0.006160	-0.158412	-0.202608
	H439	H	0.003101	-0.159450	-0.205543
	H440	H	0.008836	-0.154009	-0.200962
	O441	O	0.054190	0.230249	-0.045967
	H442	H	0.047551	0.235838	-0.049949
	H443	H	0.057187	0.227076	-0.027632
	O444	O	0.437266	0.505950	0.363341
	H445	H	0.422738	0.479725	0.362242
	H446	H	0.442430	0.506663	0.356656
	O447	O	0.122606	1.002976	1.093168
	H448	H	0.119742	0.995780	1.097643
	H449	H	0.111836	1.003099	1.084137
	O450	O	-0.514940	0.711889	1.295091
	H451	H	-0.525116	0.730447	1.273109
	H452	H	-0.515333	0.693106	1.298065
	O453	O	0.333299	0.644335	0.486641
	H454	H	0.332793	0.641191	0.472140
	H455	H	0.323340	0.634984	0.464382
	O456	O	0.462039	0.289062	0.709334
	H457	H	0.450250	0.297453	0.706924
	H458	H	0.444431	0.276248	0.725433
	O459	O	1.018857	0.970653	-0.061865
	H460	H	1.013039	0.963466	-0.069725
	H461	H	1.025847	0.975615	-0.068376
	O462	O	0.872214	-0.097970	0.177306
	H463	H	0.862208	-0.105950	0.178461
	H464	H	0.864634	-0.117837	0.195690
	O465	O	1.216261	0.012535	-0.015544
	H466	H	1.206816	0.013159	-0.008500
	H467	H	1.219486	-0.006299	-0.022943
	O468	O	0.291085	0.703452	0.337033
	H469	H	0.262140	0.736650	0.307220
	H470	H	0.315102	0.693081	0.336665
	O471	O	0.403237	0.334278	0.662622
	H472	H	0.385952	0.311361	0.680740
	H473	H	0.397422	0.366401	0.662256
	O474	O	0.513916	0.498671	0.333886
	H475	H	0.511837	0.501032	0.340846
	H476	H	0.517793	0.484010	0.334714
	O477	O	0.457060	0.729469	1.581985
	H478	H	0.453521	0.726041	1.579743
	H479	H	0.449157	0.728991	1.588376
	O480	O	0.206729	0.790207	0.214457
	H481	H	0.191891	0.803503	0.202393
	H482	H	0.192537	0.813383	0.194717
	O483	O	0.729169	0.541098	0.420818
	H484	H	0.723930	0.518599	0.432444
	H485	H	0.741809	0.570037	0.437748
	O486	O	0.658028	0.406656	0.621919
	H487	H	0.655334	0.404104	0.613265
	H488	H	0.658344	0.414656	0.641141
	O489	O	0.812969	0.800464	-0.178158
	H490	H	0.831150	0.823607	-0.163826
	H491	H	0.837562	0.811886	-0.160841
	O492	O	-0.190788	0.197905	0.210077
	H493	H	-0.221429	0.223268	0.237140
	H494	H	-0.190993	0.179216	0.193037
	O495	O	0.154015	0.998822	0.926216
	H496	H	0.154815	0.991807	0.931287
	H497	H	0.164742	0.992550	0.924098
	O498	O	0.771279	0.929987	0.963792
	H499	H	0.767491	0.902523	0.968629
	H500	H	0.773022	0.933287	0.946195
	O501	O	0.421854	0.428601	0.645402
	H502	H	0.431783	0.439445	0.639708
	H503	H	0.420667	0.432392	0.663492
