data_Molecule from HDF5

_cell_length_a		16.141097
_cell_length_b		16.297830
_cell_length_c		16.392370
_cell_angle_alpha	90.068102
_cell_angle_beta	89.905584
_cell_angle_gamma	89.985003
_symmetry_space_group_name_H-M	'P 1'
_symmetry_Int_Tables_number		1

loop_
	_symmetry_equiv_pos_as_xyz
	x,y,z

loop_
	_atom_site_label
	_atom_site_type_symbol
	_atom_site_fract_x
	_atom_site_fract_y
	_atom_site_fract_z
	H0	H	0.402230	0.834729	0.715333
	H1	H	0.602883	0.159605	0.716466
	H2	H	0.604120	0.834290	0.282135
	H3	H	0.401626	0.159922	0.283469
	H4	H	0.715967	0.400098	0.835908
	H5	H	0.715484	0.593577	0.163082
	H6	H	0.289674	0.593968	0.835849
	H7	H	0.288637	0.400973	0.162043
	H8	H	0.837216	0.710710	0.400675
	H9	H	0.167415	0.710169	0.595352
	H10	H	0.837259	0.283563	0.596971
	H11	H	0.167796	0.284883	0.402462
	H12	H	0.838208	0.397436	0.714149
	H13	H	0.166297	0.596921	0.713067
	H14	H	0.837548	0.596052	0.284323
	H15	H	0.166790	0.396704	0.283073
	H16	H	0.402616	0.713434	0.837120
	H17	H	0.602469	0.713970	0.161710
	H18	H	0.603039	0.280861	0.837408
	H19	H	0.402098	0.282217	0.162047
	H20	H	0.716946	0.833763	0.401684
	H21	H	0.714275	0.161842	0.595297
	H22	H	0.290431	0.833317	0.596448
	H23	H	0.290345	0.161726	0.404024
	H24	H	0.900071	0.334626	0.214533
	H25	H	0.102314	0.660247	0.214135
	H26	H	0.103512	0.334709	0.782241
	H27	H	0.900974	0.660574	0.783036
	H28	H	0.216081	0.901185	0.336529
	H29	H	0.215650	0.095364	0.663172
	H30	H	0.788746	0.094714	0.336174
	H31	H	0.789183	0.900722	0.663137
	H32	H	0.337666	0.211307	0.901838
	H33	H	0.667927	0.208960	0.096464
	H34	H	0.336562	0.784958	0.097469
	H35	H	0.666314	0.783166	0.901213
	H36	H	0.337823	0.898974	0.213732
	H37	H	0.667018	0.096326	0.213673
	H38	H	0.337283	0.095594	0.786301
	H39	H	0.665988	0.896825	0.783839
	H40	H	0.902740	0.213548	0.336770
	H41	H	0.102006	0.214124	0.661885
	H42	H	0.102125	0.781812	0.336874
	H43	H	0.900828	0.780034	0.660939
	H44	H	0.216707	0.333788	0.900350
	H45	H	0.214000	0.661597	0.094184
	H46	H	0.789730	0.332892	0.094705
	H47	H	0.788616	0.661500	0.902474
	H48	H	0.415543	0.112430	0.594773
	H49	H	0.599036	0.879850	0.589974
	H50	H	0.593844	0.113640	0.403501
	H51	H	0.406817	0.879682	0.406447
	H52	H	0.594356	0.417084	0.110381
	H53	H	0.598089	0.589602	0.883113
	H54	H	0.401251	0.589675	0.117091
	H55	H	0.408019	0.407676	0.884033
	H56	H	0.117718	0.584081	0.404249
	H57	H	0.887067	0.583559	0.588554
	H58	H	0.117311	0.403084	0.579988
	H59	H	0.888441	0.399618	0.421142
	H60	H	0.117787	0.416501	0.595355
	H61	H	0.882747	0.588913	0.598179
	H62	H	0.122449	0.592826	0.399895
	H63	H	0.887644	0.419822	0.401675
	H64	H	0.412870	0.587024	0.112506
	H65	H	0.591634	0.588125	0.885794
	H66	H	0.583998	0.393847	0.114709
	H67	H	0.415040	0.401555	0.885029
	H68	H	0.593602	0.112623	0.406701
	H69	H	0.593632	0.879470	0.597592
	H70	H	0.407112	0.113829	0.589729
	H71	H	0.411038	0.880290	0.401411
	H72	H	0.916824	0.609160	0.085762
	H73	H	0.100473	0.379136	0.092125
	H74	H	0.099933	0.618700	0.894488
	H75	H	0.906548	0.381888	0.910139
	H76	H	0.090307	0.891660	0.617215
	H77	H	0.099021	0.092535	0.382815
	H78	H	0.903084	0.095523	0.617879
	H79	H	0.912454	0.906922	0.385499
	H80	H	0.618962	0.083577	0.903111
	H81	H	0.383968	0.086168	0.099261
	H82	H	0.621051	0.903728	0.092824
	H83	H	0.385029	0.901972	0.912286
	H84	H	0.618353	0.904687	0.088124
	H85	H	0.382104	0.097156	0.093068
	H86	H	0.622337	0.094767	0.903041
	H87	H	0.386501	0.912008	0.906364
	H88	H	0.908487	0.084742	0.613595
	H89	H	0.096273	0.087923	0.385031
	H90	H	0.106692	0.904432	0.618586
	H91	H	0.911731	0.900232	0.383183
	H92	H	0.083260	0.610638	0.904388
	H93	H	0.091244	0.379535	0.097786
	H94	H	0.901478	0.615395	0.089366
	H95	H	0.907228	0.378892	0.899088
	H96	H	0.407492	0.116670	0.598672
	H97	H	0.589971	0.883243	0.590037
	H98	H	0.596984	0.113884	0.404888
	H99	H	0.412877	0.881999	0.407991
	H100	H	0.608869	0.398549	0.120699
	H101	H	0.593637	0.594538	0.883652
	H102	H	0.410716	0.598619	0.116173
	H103	H	0.407463	0.398767	0.881778
	H104	H	0.119139	0.592456	0.410860
	H105	H	0.883513	0.594652	0.587817
	H106	H	0.124351	0.397148	0.597929
	H107	H	0.878892	0.394115	0.394875
	H108	H	0.913648	0.615076	0.100725
	H109	H	0.092207	0.383184	0.087680
	H110	H	0.101627	0.612535	0.914156
	H111	H	0.917025	0.383267	0.904877
	H112	H	0.088271	0.911551	0.610917
	H113	H	0.093169	0.092862	0.384309
	H114	H	0.915864	0.095357	0.614212
	H115	H	0.905602	0.903655	0.383018
	H116	H	0.618232	0.089251	0.913116
	H117	H	0.387549	0.087048	0.087278
	H118	H	0.618374	0.908058	0.091972
	H119	H	0.381316	0.902183	0.900858
	C120	C	0.380865	0.006103	0.622149
	C121	C	0.623274	0.988822	0.620822
	C122	C	0.624670	0.005809	0.376398
	C123	C	0.381427	0.988984	0.377766
	C124	C	0.624600	0.375033	0.007521
	C125	C	0.623742	0.619245	0.991647
	C126	C	0.380198	0.619725	0.007560
	C127	C	0.380788	0.374992	0.990972
	C128	C	0.010752	0.618233	0.376812
	C129	C	0.993563	0.617881	0.619571
	C130	C	0.010983	0.376541	0.619761
	C131	C	0.993747	0.375622	0.377141
	C132	C	0.880811	0.505741	0.120606
	C133	C	0.123260	0.488868	0.120434
	C134	C	0.124159	0.505899	0.875984
	C135	C	0.880839	0.489296	0.877006
	C136	C	0.124051	0.875280	0.507949
	C137	C	0.124746	0.119699	0.491784
	C138	C	0.880394	0.119905	0.507536
	C139	C	0.880455	0.874945	0.491165
	C140	C	0.510993	0.118083	0.878458
	C141	C	0.493804	0.118425	0.121162
	C142	C	0.510630	0.876449	0.120214
	C143	C	0.492944	0.876036	0.878001
	C144	C	0.382313	0.883169	0.677084
	C145	C	0.622208	0.111436	0.677014
	C146	C	0.623685	0.882997	0.320602
	C147	C	0.382724	0.111795	0.322707
	C148	C	0.679230	0.378414	0.884940
	C149	C	0.678380	0.615436	0.114089
	C150	C	0.326719	0.615517	0.884463
	C151	C	0.325469	0.378884	0.113351
	C152	C	0.886589	0.673151	0.379948
	C153	C	0.117984	0.672768	0.616542
	C154	C	0.886677	0.320923	0.617636
	C155	C	0.118259	0.321112	0.380353
	C156	C	0.887040	0.377818	0.675520
	C157	C	0.117249	0.616842	0.675139
	C158	C	0.886613	0.616142	0.322273
	C159	C	0.117693	0.377296	0.321691
	C160	C	0.382845	0.674870	0.885454
	C161	C	0.621975	0.675070	0.113595
	C162	C	0.623020	0.319037	0.885757
	C163	C	0.382278	0.320089	0.113337
	C164	C	0.679587	0.882508	0.380070
	C165	C	0.677211	0.112767	0.616729
	C166	C	0.326563	0.882661	0.617975
	C167	C	0.327113	0.112303	0.382220
	C168	C	0.881113	0.383138	0.176081
	C169	C	0.121636	0.611692	0.175654
	C170	C	0.123081	0.383435	0.820532
	C171	C	0.882407	0.612230	0.822118
	C172	C	0.178828	0.879426	0.385258
	C173	C	0.178860	0.116628	0.614291
	C174	C	0.826222	0.116045	0.384913
	C175	C	0.825499	0.878765	0.613912
	C176	C	0.386966	0.173641	0.881087
	C177	C	0.618324	0.172478	0.117914
	C178	C	0.386264	0.821836	0.118060
	C179	C	0.616975	0.820542	0.880208
	C180	C	0.386713	0.878787	0.175621
	C181	C	0.617891	0.116078	0.175790
	C182	C	0.386614	0.116041	0.823882
	C183	C	0.616908	0.876995	0.822091
	C184	C	0.882775	0.175155	0.385306
	C185	C	0.122012	0.175275	0.613822
	C186	C	0.121571	0.820666	0.385199
	C187	C	0.881690	0.819406	0.613176
	C188	C	0.179030	0.382716	0.879599
	C189	C	0.177354	0.612524	0.116193
	C190	C	0.826621	0.382022	0.115986
	C191	C	0.825896	0.612496	0.880979
	C192	C	0.403364	0.092170	0.600834
	C193	C	0.600983	0.903025	0.598799
	C194	C	0.601598	0.091350	0.398430
	C195	C	0.403883	0.902945	0.398979
	C196	C	0.602245	0.396702	0.093048
	C197	C	0.601024	0.597166	0.906188
	C198	C	0.401853	0.598128	0.093121
	C199	C	0.403515	0.396449	0.905597
	C200	C	0.097503	0.596319	0.398598
	C201	C	0.906764	0.595591	0.597909
	C202	C	0.097294	0.398899	0.597458
	C203	C	0.907307	0.398008	0.399299
	C204	C	0.903871	0.591065	0.098529
	C205	C	0.100999	0.402806	0.098805
	C206	C	0.101883	0.591762	0.898051
	C207	C	0.903490	0.403562	0.898339
	C208	C	0.101882	0.896382	0.593481
	C209	C	0.102629	0.097712	0.406258
	C210	C	0.902570	0.098222	0.593283
	C211	C	0.903129	0.897001	0.405835
	C212	C	0.597465	0.095784	0.900049
	C213	C	0.407071	0.096544	0.099564
	C214	C	0.596972	0.898881	0.097642
	C215	C	0.406684	0.898690	0.900058
	Zn216	Zn	0.502428	-0.002798	0.750296
	Zn217	Zn	0.502381	-0.002841	0.248584
	Zn218	Zn	0.752828	0.496948	-0.000838
	Zn219	Zn	0.251868	0.497266	-0.001382
	Zn220	Zn	0.001867	0.745921	0.499116
	Zn221	Zn	0.002770	0.248314	0.499326
	Zn222	Zn	0.002001	0.497451	0.747969
	Zn223	Zn	0.001973	0.496959	0.249202
	Zn224	Zn	0.501556	0.748541	-0.000338
	Zn225	Zn	0.502733	0.245904	0.000281
	Zn226	Zn	0.752124	-0.002520	0.499576
	Zn227	Zn	0.253129	-0.002766	0.500423
	N228	N	0.415405	0.960883	0.679672
	N229	N	0.589375	0.033535	0.679610
	N230	N	0.590424	0.960778	0.318283
	N231	N	0.415967	0.034140	0.319997
	N232	N	0.680133	0.412582	0.961562
	N233	N	0.679739	0.581512	0.037144
	N234	N	0.325163	0.581791	0.961367
	N235	N	0.324299	0.412210	0.036409
	N236	N	0.964888	0.674587	0.413410
	N237	N	0.040036	0.673545	0.582757
	N238	N	0.964782	0.320095	0.583523
	N239	N	0.040286	0.319865	0.414244
	N240	N	0.965073	0.411486	0.677020
	N241	N	0.039007	0.583354	0.677052
	N242	N	0.964747	0.582741	0.320376
	N243	N	0.039245	0.410386	0.319616
	N244	N	0.415340	0.677494	0.962934
	N245	N	0.588899	0.677524	0.036407
	N246	N	0.589894	0.316790	0.963143
	N247	N	0.416013	0.317646	0.036238
	N248	N	0.680650	0.959730	0.413951
	N249	N	0.678038	0.035513	0.582529
	N250	N	0.325865	0.960076	0.584332
	N251	N	0.326158	0.034975	0.415849
	N252	N	0.913995	0.460963	0.179226
	N253	N	0.088815	0.533735	0.178329
	N254	N	0.089372	0.460934	0.818336
	N255	N	0.915746	0.534578	0.819489
	N256	N	0.180443	0.912498	0.462526
	N257	N	0.180403	0.082622	0.537480
	N258	N	0.824686	0.082514	0.461906
	N259	N	0.824500	0.912681	0.536898
	N260	N	0.465057	0.174783	0.914703
	N261	N	0.540228	0.174050	0.084665
	N262	N	0.464400	0.820373	0.084407
	N263	N	0.539115	0.819946	0.914441
	N264	N	0.465149	0.911803	0.177267
	N265	N	0.539399	0.083258	0.177953
	N266	N	0.464774	0.082135	0.822180
	N267	N	0.539007	0.910974	0.820731
	N268	N	0.915834	0.177556	0.462757
	N269	N	0.089174	0.177337	0.536505
	N270	N	0.088278	0.817781	0.462397
	N271	N	0.915133	0.817136	0.536115
	N272	N	0.179685	0.459866	0.913586
	N273	N	0.178404	0.535218	0.082303
	N274	N	0.826196	0.459271	0.082184
	N275	N	0.825167	0.535327	0.914670
	O276	O	0.971302	0.944322	0.045293
	H277	H	0.972864	0.941601	0.053695
	H278	H	0.981514	0.945547	0.038951
	O279	O	-0.072546	0.025406	-0.022850
	H280	H	-0.082393	0.016279	-0.029044
	H281	H	-0.075147	0.022995	-0.022695
	O282	O	-0.021790	0.072788	1.001382
	H283	H	-0.025691	0.075689	1.006136
	H284	H	-0.019622	0.075681	1.003099
	O285	O	0.505293	0.451777	0.440721
	H286	H	0.515856	0.457251	0.448575
	H287	H	0.514922	0.451670	0.433254
	O288	O	0.488987	0.474426	0.515444
	H289	H	0.489460	0.466217	0.514467
	H290	H	0.486343	0.470056	0.519556
	O291	O	0.478654	0.593407	0.486206
	H292	H	0.470325	0.593452	0.483672
	H293	H	0.473136	0.585828	0.491929
	O294	O	-0.063800	0.041224	0.010509
	H295	H	-0.061295	0.043532	0.007062
	H296	H	-0.068482	0.038001	0.015233
	O297	O	0.527552	0.528112	0.460910
	H298	H	0.518169	0.533325	0.469599
	H299	H	0.537218	0.532507	0.455089
	O300	O	-0.049978	0.996315	1.040198
	H301	H	-0.056062	0.989476	1.038155
	H302	H	-0.056477	1.001087	1.044561
	O303	O	0.473544	0.456804	0.476841
	H304	H	0.478106	0.460851	0.471654
	H305	H	0.475724	0.451726	0.472104
	O306	O	0.001819	-0.007116	1.074705
	H307	H	0.003380	-0.014968	1.082245
	H308	H	-0.011681	-0.004364	1.069661
	O309	O	0.962151	0.985825	0.954366
	H310	H	0.961022	0.995426	0.956677
	H311	H	0.952390	0.982744	0.956851
	O312	O	0.533949	0.464160	0.475056
	H313	H	0.541763	0.468626	0.483593
	H314	H	0.537567	0.466893	0.471699
	O315	O	0.522591	0.528673	0.490227
	H316	H	0.514837	0.536160	0.490633
	H317	H	0.515537	0.525015	0.491177
	O318	O	0.013013	0.974481	0.058203
	H319	H	0.025032	0.977209	0.049762
	H320	H	0.025097	0.978984	0.069543
	O321	O	1.039657	1.026717	0.066599
	H322	H	1.040078	1.023334	0.068163
	H323	H	1.042607	1.029042	0.069068
