data_Molecule from HDF5

_cell_length_a		16.486308
_cell_length_b		16.446986
_cell_length_c		16.535269
_cell_angle_alpha	90.060231
_cell_angle_beta	90.047142
_cell_angle_gamma	89.989617
_symmetry_space_group_name_H-M	'P 1'
_symmetry_Int_Tables_number		1

loop_
	_symmetry_equiv_pos_as_xyz
	x,y,z

loop_
	_atom_site_label
	_atom_site_type_symbol
	_atom_site_fract_x
	_atom_site_fract_y
	_atom_site_fract_z
	H0	H	0.382097	0.853720	0.717550
	H1	H	0.595940	0.168855	0.713891
	H2	H	0.601993	0.854328	0.265291
	H3	H	0.386981	0.166667	0.272724
	H4	H	0.713862	0.404750	0.835576
	H5	H	0.716147	0.620933	0.148355
	H6	H	0.267864	0.619137	0.836857
	H7	H	0.269669	0.407110	0.149330
	H8	H	0.834273	0.737594	0.383702
	H9	H	0.145365	0.736160	0.601746
	H10	H	0.832786	0.287367	0.600627
	H11	H	0.147451	0.293169	0.391373
	H12	H	0.833282	0.402944	0.718008
	H13	H	0.146562	0.618801	0.716098
	H14	H	0.835390	0.624879	0.264920
	H15	H	0.145834	0.406087	0.271134
	H16	H	0.385222	0.732983	0.836205
	H17	H	0.603778	0.740114	0.146547
	H18	H	0.597483	0.289005	0.835084
	H19	H	0.389015	0.292568	0.150321
	H20	H	0.717214	0.855209	0.381568
	H21	H	0.710367	0.169545	0.595795
	H22	H	0.266379	0.852479	0.600170
	H23	H	0.271254	0.167123	0.390880
	H24	H	0.881706	0.356047	0.217886
	H25	H	0.101503	0.667754	0.220001
	H26	H	0.095481	0.355632	0.771408
	H27	H	0.880559	0.667823	0.768951
	H28	H	0.215351	0.899108	0.336903
	H29	H	0.211239	0.114220	0.649215
	H30	H	0.768596	0.117155	0.334783
	H31	H	0.762459	0.900276	0.646653
	H32	H	0.332551	0.227183	0.893003
	H33	H	0.648980	0.231735	0.098681
	H34	H	0.334386	0.786405	0.098919
	H35	H	0.646666	0.784477	0.881736
	H36	H	0.333241	0.901882	0.214609
	H37	H	0.647436	0.116989	0.216682
	H38	H	0.333294	0.112515	0.773701
	H39	H	0.646033	0.899566	0.765561
	H40	H	0.885016	0.233193	0.335381
	H41	H	0.094566	0.230459	0.649958
	H42	H	0.098710	0.784116	0.337584
	H43	H	0.879312	0.785723	0.647258
	H44	H	0.210948	0.354774	0.889001
	H45	H	0.216142	0.668416	0.103222
	H46	H	0.767200	0.354767	0.100645
	H47	H	0.765368	0.667891	0.884653
	H48	H	0.397139	0.122032	0.577424
	H49	H	0.579101	0.899012	0.576683
	H50	H	0.578800	0.122027	0.403336
	H51	H	0.401294	0.894938	0.403659
	H52	H	0.583321	0.427714	0.104224
	H53	H	0.575864	0.603509	0.879678
	H54	H	0.402533	0.601469	0.106531
	H55	H	0.400565	0.421281	0.878948
	H56	H	0.100010	0.602595	0.411984
	H57	H	0.882466	0.589375	0.577785
	H58	H	0.103151	0.419591	0.585189
	H59	H	0.875849	0.430185	0.398336
	H60	H	0.101586	0.421523	0.581924
	H61	H	0.874147	0.598166	0.589780
	H62	H	0.097406	0.590867	0.408982
	H63	H	0.874151	0.415827	0.402634
	H64	H	0.401735	0.595993	0.104854
	H65	H	0.584203	0.593039	0.881965
	H66	H	0.574683	0.421849	0.102119
	H67	H	0.400834	0.418974	0.879363
	H68	H	0.575258	0.121407	0.403478
	H69	H	0.575988	0.898339	0.581025
	H70	H	0.398881	0.125193	0.587093
	H71	H	0.402636	0.895301	0.402371
	H72	H	0.903981	0.622319	0.075729
	H73	H	0.076235	0.400163	0.081204
	H74	H	0.075301	0.627110	0.896423
	H75	H	0.903849	0.402439	0.912292
	H76	H	0.077311	0.924509	0.602940
	H77	H	0.080475	0.102975	0.378494
	H78	H	0.901553	0.095124	0.603106
	H79	H	0.902844	0.917698	0.378645
	H80	H	0.605144	0.100077	0.904199
	H81	H	0.379516	0.095118	0.082225
	H82	H	0.602565	0.922376	0.078766
	H83	H	0.378276	0.924234	0.898322
	H84	H	0.599458	0.927167	0.074948
	H85	H	0.375208	0.103120	0.088280
	H86	H	0.604546	0.097392	0.901790
	H87	H	0.378249	0.917238	0.908755
	H88	H	0.904074	0.103959	0.604760
	H89	H	0.081416	0.100858	0.378786
	H90	H	0.077615	0.924155	0.603351
	H91	H	0.899001	0.933102	0.382644
	H92	H	0.074813	0.622574	0.910797
	H93	H	0.078877	0.401895	0.079489
	H94	H	0.900374	0.625926	0.081205
	H95	H	0.896667	0.396551	0.903289
	H96	H	0.406117	0.120399	0.581777
	H97	H	0.574003	0.901361	0.577050
	H98	H	0.577149	0.121170	0.406748
	H99	H	0.402812	0.895584	0.403750
	H100	H	0.583034	0.417691	0.107601
	H101	H	0.571083	0.592594	0.886280
	H102	H	0.406936	0.598492	0.103582
	H103	H	0.398969	0.420241	0.878075
	H104	H	0.103011	0.597766	0.400617
	H105	H	0.878004	0.605315	0.574630
	H106	H	0.102005	0.423427	0.585598
	H107	H	0.879035	0.426010	0.412086
	H108	H	0.907530	0.622964	0.082356
	H109	H	0.079754	0.400124	0.082046
	H110	H	0.087743	0.628878	0.905620
	H111	H	0.908251	0.400467	0.900733
	H112	H	0.077718	0.924836	0.603762
	H113	H	0.079103	0.100969	0.378697
	H114	H	0.895380	0.100989	0.605919
	H115	H	0.913393	0.926833	0.385874
	H116	H	0.606208	0.100651	0.900897
	H117	H	0.377853	0.105133	0.078170
	H118	H	0.601367	0.928864	0.081337
	H119	H	0.382782	0.928547	0.908810
	C120	C	0.368127	0.018482	0.614561
	C121	C	0.610491	1.003027	0.611911
	C122	C	0.611941	0.018639	0.370077
	C123	C	0.369765	0.999769	0.371577
	C124	C	0.613219	0.389548	0.000875
	C125	C	0.612473	0.632539	0.984537
	C126	C	0.370648	0.632068	0.001665
	C127	C	0.369225	0.389587	0.983515
	C128	C	-0.002171	0.632680	0.372048
	C129	C	0.981275	0.632212	0.614178
	C130	C	-0.001691	0.388718	0.616616
	C131	C	0.980363	0.391405	0.372330
	C132	C	0.869470	0.520498	0.114165
	C133	C	0.112235	0.504174	0.115042
	C134	C	0.111092	0.521668	0.872299
	C135	C	0.869026	0.503412	0.872145
	C136	C	0.111457	0.889070	0.500676
	C137	C	0.111851	0.132285	0.483188
	C138	C	0.868130	0.132983	0.500932
	C139	C	0.868701	0.890152	0.484045
	C140	C	0.500363	0.130799	0.871815
	C141	C	0.481934	0.132865	0.115250
	C142	C	0.498548	0.890338	0.112628
	C143	C	0.482558	0.888668	0.870506
	C144	C	0.364527	0.900468	0.676415
	C145	C	0.613968	0.121365	0.673434
	C146	C	0.618216	0.901304	0.306739
	C147	C	0.368153	0.119493	0.312792
	C148	C	0.673788	0.386681	0.882754
	C149	C	0.675619	0.638183	0.101343
	C150	C	0.308795	0.636280	0.883840
	C151	C	0.310076	0.388413	0.102229
	C152	C	0.880952	0.696402	0.366709
	C153	C	0.098766	0.694627	0.618329
	C154	C	0.880049	0.327834	0.618815
	C155	C	0.099541	0.332156	0.371421
	C156	C	0.880406	0.385222	0.677410
	C157	C	0.099377	0.636366	0.675539
	C158	C	0.881634	0.640167	0.307551
	C159	C	0.098882	0.388285	0.311913
	C160	C	0.367138	0.693248	0.883441
	C161	C	0.619207	0.697392	0.100420
	C162	C	0.616052	0.328731	0.882704
	C163	C	0.369206	0.331357	0.102659
	C164	C	0.675553	0.901705	0.364892
	C165	C	0.670724	0.121992	0.614534
	C166	C	0.307091	0.899951	0.617951
	C167	C	0.310722	0.119567	0.371145
	C168	C	0.864451	0.403059	0.177003
	C169	C	0.117604	0.621123	0.178289
	C170	C	0.113415	0.402803	0.812047
	C171	C	0.863740	0.621085	0.810003
	C172	C	0.174172	0.882851	0.383958
	C173	C	0.171552	0.133274	0.601724
	C174	C	0.808633	0.135352	0.382138
	C175	C	0.804079	0.883858	0.599889
	C176	C	0.380411	0.188575	0.872486
	C177	C	0.601248	0.192109	0.117103
	C178	C	0.381264	0.827336	0.116562
	C179	C	0.599584	0.825534	0.865079
	C180	C	0.380527	0.885148	0.174057
	C181	C	0.600352	0.135136	0.176027
	C182	C	0.380477	0.131491	0.813572
	C183	C	0.599248	0.882977	0.806844
	C184	C	0.866356	0.193363	0.382663
	C185	C	0.113369	0.191138	0.602097
	C186	C	0.115973	0.825306	0.384241
	C187	C	0.862400	0.826626	0.600440
	C188	C	0.170900	0.402337	0.870322
	C189	C	0.174734	0.621636	0.119860
	C190	C	0.807624	0.402233	0.118324
	C191	C	0.806424	0.620987	0.867783
	C192	C	0.393514	0.101084	0.589252
	C193	C	0.584132	0.920893	0.585780
	C194	C	0.584627	0.100276	0.396916
	C195	C	0.395035	0.917068	0.395983
	C196	C	0.587809	0.415034	0.083214
	C197	C	0.584981	0.604454	0.903747
	C198	C	0.396448	0.606160	0.083458
	C199	C	0.393330	0.413644	0.900447
	C200	C	0.078882	0.604974	0.399396
	C201	C	0.899524	0.605268	0.588090
	C202	C	0.080851	0.414241	0.591377
	C203	C	0.897860	0.416925	0.397308
	C204	C	0.896182	0.602300	0.087452
	C205	C	0.085602	0.422190	0.088677
	C206	C	0.086359	0.604541	0.897215
	C207	C	0.895485	0.421297	0.898112
	C208	C	0.085052	0.916588	0.582176
	C209	C	0.087445	0.108352	0.400259
	C210	C	0.893012	0.107470	0.583201
	C211	C	0.897063	0.918031	0.403457
	C212	C	0.583475	0.106402	0.895639
	C213	C	0.399191	0.108059	0.090249
	C214	C	0.579866	0.918056	0.086001
	C215	C	0.401029	0.915734	0.897536
	Zn216	Zn	0.490736	0.010212	0.742015
	Zn217	Zn	0.490710	0.009274	0.242268
	Zn218	Zn	0.741152	0.511456	-0.007041
	Zn219	Zn	0.240788	0.512812	-0.006702
	Zn220	Zn	-0.010669	0.761152	0.493409
	Zn221	Zn	-0.010769	0.261786	0.493136
	Zn222	Zn	-0.010798	0.512532	0.743552
	Zn223	Zn	-0.010144	0.512371	0.243018
	Zn224	Zn	0.491256	0.760981	-0.007604
	Zn225	Zn	0.491748	0.260664	-0.007726
	Zn226	Zn	0.740041	0.011025	0.491790
	Zn227	Zn	0.240632	0.009230	0.492505
	N228	N	0.402117	0.975066	0.674199
	N229	N	0.577286	0.046178	0.672036
	N230	N	0.579181	0.975006	0.310088
	N231	N	0.403726	0.043904	0.312526
	N232	N	0.672173	0.423546	0.957389
	N233	N	0.671273	0.598278	0.028314
	N234	N	0.310467	0.599165	0.958401
	N235	N	0.309761	0.423657	0.026938
	N236	N	0.954235	0.691865	0.405992
	N237	N	0.024447	0.692094	0.580854
	N238	N	0.954691	0.329561	0.581940
	N239	N	0.024961	0.333797	0.408073
	N240	N	0.955083	0.422220	0.676163
	N241	N	0.025280	0.598187	0.673095
	N242	N	0.955407	0.601257	0.310569
	N243	N	0.023588	0.424195	0.312074
	N244	N	0.404899	0.690671	0.957513
	N245	N	0.580726	0.693996	0.026831
	N246	N	0.579367	0.330028	0.957390
	N247	N	0.405165	0.331809	0.027692
	N248	N	0.671626	0.975615	0.403652
	N249	N	0.668838	0.047373	0.577312
	N250	N	0.309521	0.974197	0.580013
	N251	N	0.311185	0.043978	0.406314
	N252	N	0.902216	0.477536	0.174448
	N253	N	0.079073	0.547119	0.175164
	N254	N	0.077187	0.477922	0.813010
	N255	N	0.902105	0.547087	0.812649
	N256	N	0.171318	0.921718	0.457444
	N257	N	0.170802	0.097477	0.526722
	N258	N	0.809254	0.098837	0.456851
	N259	N	0.807711	0.922491	0.526359
	N260	N	0.455897	0.188566	0.907522
	N261	N	0.526603	0.191047	0.080087
	N262	N	0.455586	0.830600	0.079179
	N263	N	0.526005	0.829091	0.903892
	N264	N	0.454566	0.923603	0.171862
	N265	N	0.525094	0.099139	0.175104
	N266	N	0.456185	0.096581	0.812673
	N267	N	0.525280	0.921397	0.809938
	N268	N	0.902478	0.192160	0.457580
	N269	N	0.076763	0.190826	0.527323
	N270	N	0.077532	0.829275	0.457894
	N271	N	0.901912	0.830449	0.527473
	N272	N	0.169840	0.477384	0.907050
	N273	N	0.171411	0.547913	0.080953
	N274	N	0.810478	0.476338	0.080139
	N275	N	0.809621	0.546832	0.905730
	O276	O	1.038832	-0.131733	-0.004944
	H277	H	1.038791	-0.130534	-0.015921
	H278	H	1.032169	-0.132558	-0.006078
	O279	O	0.700643	0.333654	0.489391
	H280	H	0.729683	0.306956	0.478900
	H281	H	0.704478	0.358849	0.482539
	O282	O	0.473043	1.727227	0.272231
	H283	H	0.441777	1.709271	0.285899
	H284	H	0.467130	1.755687	0.235857
	O285	O	0.281300	0.307750	0.516585
	H286	H	0.287473	0.298488	0.525662
	H287	H	0.274195	0.293039	0.550914
	O288	O	-0.232207	0.036003	-0.230821
	H289	H	-0.270124	0.041866	-0.268729
	H290	H	-0.218542	0.088202	-0.217851
	O291	O	1.005589	0.878581	-0.127493
	H292	H	1.012676	0.871542	-0.143283
	H293	H	0.997835	0.900407	-0.146952
	O294	O	-0.304273	0.716793	-0.486912
	H295	H	-0.323988	0.726249	-0.503046
	H296	H	-0.293798	0.735303	-0.495452
	O297	O	0.285775	0.307561	0.692672
	H298	H	0.299901	0.336170	0.700320
	H299	H	0.257706	0.282045	0.718787
	O300	O	0.266330	0.467741	0.456265
	H301	H	0.271406	0.450112	0.462645
	H302	H	0.262252	0.452089	0.457746
	O303	O	0.510414	0.724937	0.705337
	H304	H	0.551286	0.712988	0.692078
	H305	H	0.520916	0.759873	0.733940
	O306	O	-0.027181	1.019528	1.050174
	H307	H	-0.017254	1.004900	1.023444
	H308	H	-0.018345	1.024593	1.067869
	O309	O	1.164835	1.184146	0.799606
	H310	H	1.153775	1.162180	0.823458
	H311	H	1.153519	1.163010	0.810349
	O312	O	0.273093	0.478680	0.709666
	H313	H	0.271438	0.487217	0.719677
	H314	H	0.259828	0.484241	0.715118
	O315	O	-0.031278	0.224154	0.782922
	H316	H	-0.019598	0.233817	0.791554
	H317	H	-0.024635	0.234346	0.761935
	O318	O	-0.187449	0.843393	0.178051
	H319	H	-0.163611	0.860658	0.186598
	H320	H	-0.199875	0.827761	0.127506
	O321	O	1.190687	0.215380	1.195791
	H322	H	1.213492	0.208257	1.216304
	H323	H	1.200289	0.210026	1.213454
	O324	O	1.354355	0.312099	0.302575
	H325	H	1.364555	0.321185	0.322046
	H326	H	1.375718	0.316192	0.317710
	O327	O	1.017780	0.050486	0.777059
	H328	H	1.027543	0.042952	0.779286
	H329	H	1.016765	0.066469	0.779313
	O330	O	0.704572	-0.511645	0.280833
	H331	H	0.689065	-0.488946	0.289568
	H332	H	0.736848	-0.506675	0.262479
	O333	O	1.663682	0.578746	0.383940
	H334	H	1.657610	0.586110	0.377039
	H335	H	1.651762	0.576358	0.405658
	O336	O	1.102884	-0.090118	0.931740
	H337	H	1.104236	-0.107037	0.935275
	H338	H	1.078915	-0.090148	0.949210
	O339	O	0.436804	0.432721	0.351547
	H340	H	0.454298	0.442432	0.362029
	H341	H	0.445469	0.437424	0.342249
	O342	O	0.778186	-0.198744	1.020612
	H343	H	0.756188	-0.212261	1.007486
	H344	H	0.760510	-0.178497	0.998289
	O345	O	0.118562	-0.073355	-0.210012
	H346	H	0.134614	-0.087219	-0.210617
	H347	H	0.127269	-0.088540	-0.201369
	O348	O	0.855875	-0.141176	0.924741
	H349	H	0.868766	-0.138724	0.906278
	H350	H	0.838571	-0.133563	0.913984
	O351	O	0.775750	1.008733	-0.026242
	H352	H	0.789541	1.026481	-0.036897
	H353	H	0.779211	1.015979	-0.047731
	O354	O	0.302332	0.615787	0.306387
	H355	H	0.296846	0.603015	0.293913
	H356	H	0.295241	0.612947	0.337895
	O357	O	1.011953	0.942242	1.027933
	H358	H	1.016109	0.941663	1.041806
	H359	H	0.997607	0.916905	1.037910
	O360	O	0.664340	0.682529	0.677604
	H361	H	0.676627	0.680116	0.651852
	H362	H	0.666445	0.654689	0.662323
	O363	O	0.459375	0.367332	0.454398
	H364	H	0.476121	0.379462	0.449667
	H365	H	0.470423	0.366515	0.478079
	O366	O	0.984092	0.148059	1.214821
	H367	H	0.986087	0.186746	1.223370
	H368	H	0.974846	0.145876	1.222240
	O369	O	0.801912	0.195870	0.802599
	H370	H	0.830483	0.211350	0.801372
	H371	H	0.801738	0.208216	0.845927
	O372	O	0.351927	0.534874	0.349973
	H373	H	0.364291	0.528762	0.341594
	H374	H	0.355019	0.517015	0.357377
	O375	O	0.049832	1.234583	0.939141
	H376	H	0.060209	1.233897	0.940751
	H377	H	0.051175	1.237120	0.956556
	O378	O	1.087215	-0.178919	0.054796
	H379	H	1.086041	-0.183606	0.057749
	H380	H	1.076024	-0.181786	0.043004
	O381	O	1.196996	-0.087791	-0.112076
	H382	H	1.205614	-0.101594	-0.091989
	H383	H	1.203932	-0.075622	-0.092919
	O384	O	0.559091	0.296958	1.280167
	H385	H	0.576173	0.307911	1.296752
	H386	H	0.572645	0.261744	1.249815
	O387	O	0.546318	0.566756	0.523462
	H388	H	0.559670	0.556133	0.516053
	H389	H	0.542953	0.571369	0.507554
	O390	O	-0.073169	0.230020	1.048424
	H391	H	-0.086059	0.237823	1.059882
	H392	H	-0.056396	0.201483	1.032200
	O393	O	0.785575	1.006693	0.192613
	H394	H	0.792289	1.003068	0.198071
	H395	H	0.776476	0.989634	0.181182
	O396	O	0.800977	0.127662	1.112963
	H397	H	0.824753	0.120838	1.098012
	H398	H	0.807705	0.105968	1.138055
	O399	O	0.083121	1.117817	1.127142
	H400	H	0.079793	1.128899	1.130745
	H401	H	0.098668	1.121886	1.131364
	O402	O	0.212953	0.045823	1.215358
	H403	H	0.227172	0.038681	1.240916
	H404	H	0.209107	0.030581	1.221596
	O405	O	-0.799570	0.783992	0.227785
	H406	H	-0.809796	0.774925	0.241867
	H407	H	-0.812101	0.785070	0.244003
	O408	O	0.495739	0.513952	0.274536
	H409	H	0.510115	0.493467	0.275543
	H410	H	0.487141	0.514350	0.277428
	O411	O	0.568958	0.689285	0.381950
	H412	H	0.545371	0.706790	0.360408
	H413	H	0.542747	0.671810	0.389784
	O414	O	-0.031638	0.817018	0.207751
	H415	H	-0.033293	0.808886	0.210779
	H416	H	-0.041860	0.810758	0.216243
	O417	O	0.446973	0.304143	0.693238
	H418	H	0.445732	0.290717	0.691916
	H419	H	0.434721	0.297741	0.703509
	O420	O	0.204912	0.753828	0.733074
	H421	H	0.194766	0.754945	0.719569
	H422	H	0.208803	0.755971	0.764271
	O423	O	0.021172	0.991888	0.123202
	H424	H	0.004486	1.003520	0.115300
	H425	H	0.023111	0.989912	0.114399
	O426	O	0.672313	1.386008	1.586884
	H427	H	0.668619	1.390359	1.596495
	H428	H	0.676520	1.397147	1.584140
	O429	O	0.480154	0.479379	0.643643
	H430	H	0.477762	0.481300	0.647758
	H431	H	0.481996	0.466476	0.656665
	O432	O	0.278226	0.722205	0.471996
	H433	H	0.270180	0.731887	0.477148
	H434	H	0.268203	0.718292	0.484608
	O435	O	0.494167	-0.478012	0.692839
	H436	H	0.489748	-0.459538	0.702556
	H437	H	0.500098	-0.494374	0.696710
	O438	O	1.195649	0.031881	-0.103862
	H439	H	1.207292	0.022293	-0.101221
	H440	H	1.194530	0.053045	-0.083335
	O441	O	0.358071	0.570133	0.616028
	H442	H	0.354870	0.572223	0.617049
	H443	H	0.356498	0.574077	0.623299
	O444	O	0.509850	0.297845	0.508760
	H445	H	0.514120	0.305558	0.513267
	H446	H	0.520125	0.297049	0.513755
	O447	O	0.582973	0.544631	0.567711
	H448	H	0.568400	0.553361	0.569258
	H449	H	0.581991	0.555703	0.576938
	O450	O	0.684005	0.316923	0.344907
	H451	H	0.687779	0.326673	0.336085
	H452	H	0.689415	0.331575	0.350370
	O453	O	0.202156	0.229204	0.024123
	H454	H	0.223442	0.254888	0.035414
	H455	H	0.204573	0.222508	0.059201
	O456	O	0.886664	-0.111194	-0.198828
	H457	H	0.902936	-0.096545	-0.187821
	H458	H	0.882581	-0.100438	-0.209798
	O459	O	0.467711	0.727017	0.515482
	H460	H	0.461052	0.726032	0.521860
	H461	H	0.469420	0.729318	0.524234
	O462	O	0.630442	0.451779	0.679824
	H463	H	0.624623	0.442277	0.679167
	H464	H	0.617209	0.446140	0.669011
	O465	O	0.771877	0.230063	-0.036524
	H466	H	0.760489	0.244077	-0.026462
	H467	H	0.757673	0.227139	-0.016486
