data_Molecule from HDF5

_cell_length_a		16.306038
_cell_length_b		16.420753
_cell_length_c		16.464198
_cell_angle_alpha	90.178071
_cell_angle_beta	89.986557
_cell_angle_gamma	90.141425
_symmetry_space_group_name_H-M	'P 1'
_symmetry_Int_Tables_number		1

loop_
	_symmetry_equiv_pos_as_xyz
	x,y,z

loop_
	_atom_site_label
	_atom_site_type_symbol
	_atom_site_fract_x
	_atom_site_fract_y
	_atom_site_fract_z
	H0	H	0.388033	0.839144	0.722415
	H1	H	0.604435	0.153668	0.724036
	H2	H	0.603962	0.838231	0.277497
	H3	H	0.386393	0.152535	0.274441
	H4	H	0.717061	0.391709	0.840958
	H5	H	0.721015	0.605772	0.156083
	H6	H	0.276209	0.599719	0.840063
	H7	H	0.273577	0.390993	0.157532
	H8	H	0.838209	0.719699	0.394381
	H9	H	0.156825	0.719230	0.606291
	H10	H	0.838737	0.274184	0.605820
	H11	H	0.155109	0.274188	0.390940
	H12	H	0.838395	0.390528	0.720691
	H13	H	0.156858	0.603474	0.720732
	H14	H	0.839671	0.606450	0.275661
	H15	H	0.154129	0.388127	0.273193
	H16	H	0.389024	0.717071	0.841896
	H17	H	0.604429	0.720645	0.156648
	H18	H	0.604700	0.270860	0.843917
	H19	H	0.387590	0.273707	0.158191
	H20	H	0.713424	0.835998	0.399481
	H21	H	0.718566	0.154814	0.606296
	H22	H	0.273325	0.839569	0.606239
	H23	H	0.276324	0.154837	0.395198
	H24	H	0.885721	0.341860	0.225466
	H25	H	0.106530	0.655220	0.223174
	H26	H	0.102759	0.338595	0.775587
	H27	H	0.888053	0.654103	0.775048
	H28	H	0.220760	0.888902	0.343257
	H29	H	0.220305	0.105971	0.657441
	H30	H	0.773945	0.101652	0.341559
	H31	H	0.776965	0.894132	0.659637
	H32	H	0.337925	0.217692	0.893385
	H33	H	0.654338	0.220120	0.108834
	H34	H	0.336500	0.775559	0.103826
	H35	H	0.654923	0.773968	0.892429
	H36	H	0.338153	0.887129	0.223211
	H37	H	0.656218	0.100369	0.219931
	H38	H	0.338753	0.104114	0.776701
	H39	H	0.656300	0.890580	0.778369
	H40	H	0.890392	0.218494	0.341052
	H41	H	0.105666	0.222829	0.655612
	H42	H	0.106410	0.772173	0.344286
	H43	H	0.890307	0.775383	0.658446
	H44	H	0.216468	0.337036	0.893247
	H45	H	0.218896	0.655027	0.104212
	H46	H	0.772926	0.339447	0.106373
	H47	H	0.773249	0.654887	0.891852
	H48	H	0.415907	0.108249	0.592012
	H49	H	0.590741	0.880318	0.591240
	H50	H	0.582961	0.108936	0.411266
	H51	H	0.408209	0.884189	0.412949
	H52	H	0.591106	0.408994	0.114454
	H53	H	0.591255	0.590081	0.882784
	H54	H	0.400519	0.586586	0.115367
	H55	H	0.407077	0.404333	0.886271
	H56	H	0.108946	0.586314	0.417648
	H57	H	0.882046	0.587136	0.590417
	H58	H	0.111856	0.409511	0.591713
	H59	H	0.882408	0.409050	0.408855
	H60	H	0.111774	0.406326	0.584621
	H61	H	0.882815	0.587685	0.587174
	H62	H	0.109223	0.579959	0.410317
	H63	H	0.884609	0.407802	0.416358
	H64	H	0.409673	0.577595	0.108603
	H65	H	0.586423	0.575132	0.889468
	H66	H	0.581145	0.415639	0.108901
	H67	H	0.407153	0.406559	0.887512
	H68	H	0.586427	0.109977	0.410583
	H69	H	0.582041	0.882839	0.593991
	H70	H	0.408252	0.107746	0.583233
	H71	H	0.410017	0.883440	0.410343
	H72	H	0.911542	0.610743	0.091764
	H73	H	0.082698	0.383503	0.090393
	H74	H	0.086490	0.609041	0.911570
	H75	H	0.903307	0.383481	0.912164
	H76	H	0.082579	0.913373	0.611286
	H77	H	0.082025	0.078210	0.390370
	H78	H	0.904885	0.085114	0.612766
	H79	H	0.904823	0.906689	0.386501
	H80	H	0.609307	0.082363	0.914309
	H81	H	0.382687	0.087732	0.081990
	H82	H	0.608599	0.910408	0.085175
	H83	H	0.382756	0.910000	0.909437
	H84	H	0.610716	0.910127	0.090901
	H85	H	0.384893	0.076996	0.087589
	H86	H	0.610110	0.081636	0.911361
	H87	H	0.380959	0.905049	0.909234
	H88	H	0.911228	0.085632	0.610266
	H89	H	0.080817	0.091376	0.386956
	H90	H	0.081888	0.907052	0.612662
	H91	H	0.907591	0.908723	0.388530
	H92	H	0.087989	0.610516	0.908341
	H93	H	0.080204	0.385842	0.086049
	H94	H	0.913657	0.607427	0.084297
	H95	H	0.908441	0.382477	0.904396
	H96	H	0.406011	0.113089	0.593076
	H97	H	0.584766	0.884527	0.584986
	H98	H	0.583839	0.109956	0.407673
	H99	H	0.410772	0.884620	0.412855
	H100	H	0.579185	0.403137	0.112762
	H101	H	0.574917	0.588062	0.888457
	H102	H	0.413899	0.591012	0.112595
	H103	H	0.409163	0.405213	0.887151
	H104	H	0.113284	0.588982	0.409204
	H105	H	0.883928	0.584554	0.588821
	H106	H	0.108889	0.413598	0.585306
	H107	H	0.886081	0.414560	0.413133
	H108	H	0.905775	0.611184	0.085509
	H109	H	0.085235	0.384273	0.085374
	H110	H	0.083927	0.610460	0.908692
	H111	H	0.912231	0.386101	0.912483
	H112	H	0.087513	0.910371	0.613543
	H113	H	0.092282	0.084956	0.385327
	H114	H	0.908289	0.091042	0.613452
	H115	H	0.908649	0.905013	0.386755
	H116	H	0.611396	0.084845	0.912875
	H117	H	0.379407	0.086474	0.094223
	H118	H	0.611381	0.905322	0.087047
	H119	H	0.383290	0.906684	0.913524
	C120	C	0.375738	0.005603	0.621921
	C121	C	0.618417	0.987473	0.622276
	C122	C	0.617618	0.004853	0.378288
	C123	C	0.375718	0.987905	0.378504
	C124	C	0.617638	0.375301	0.008189
	C125	C	0.618136	0.618506	0.990771
	C126	C	0.375403	0.616946	0.007533
	C127	C	0.374377	0.373455	0.991692
	C128	C	0.005817	0.618681	0.379250
	C129	C	0.988401	0.619080	0.621868
	C130	C	0.005624	0.376874	0.619674
	C131	C	0.988707	0.376538	0.378207
	C132	C	0.875333	0.506176	0.120996
	C133	C	0.117265	0.488877	0.120097
	C134	C	0.118091	0.505140	0.877213
	C135	C	0.875187	0.488435	0.877065
	C136	C	0.118168	0.876188	0.508940
	C137	C	0.119051	0.119468	0.490959
	C138	C	0.875104	0.119054	0.507886
	C139	C	0.875214	0.874996	0.491905
	C140	C	0.505214	0.116808	0.879381
	C141	C	0.487432	0.117178	0.121664
	C142	C	0.505044	0.874950	0.120640
	C143	C	0.487582	0.874823	0.878062
	C144	C	0.370927	0.886745	0.682531
	C145	C	0.621885	0.106542	0.683258
	C146	C	0.621040	0.885567	0.318336
	C147	C	0.370371	0.105523	0.315967
	C148	C	0.677898	0.372498	0.889007
	C149	C	0.680078	0.622912	0.108997
	C150	C	0.315314	0.618218	0.888246
	C151	C	0.313278	0.372057	0.110164
	C152	C	0.886262	0.679819	0.376042
	C153	C	0.108601	0.679591	0.624550
	C154	C	0.886387	0.314788	0.623454
	C155	C	0.107332	0.314212	0.372964
	C156	C	0.885902	0.373070	0.680354
	C157	C	0.108677	0.621518	0.681352
	C158	C	0.886870	0.623263	0.317183
	C159	C	0.107024	0.371574	0.314900
	C160	C	0.371572	0.677058	0.888960
	C161	C	0.621787	0.680154	0.109246
	C162	C	0.621703	0.312581	0.890398
	C163	C	0.370550	0.313610	0.110347
	C164	C	0.675887	0.884472	0.378780
	C165	C	0.678583	0.107144	0.624419
	C166	C	0.313565	0.887129	0.624712
	C167	C	0.315334	0.106832	0.376105
	C168	C	0.869443	0.388712	0.183882
	C169	C	0.122870	0.607536	0.182095
	C170	C	0.120402	0.385755	0.816232
	C171	C	0.870982	0.606839	0.815818
	C172	C	0.180354	0.871666	0.390833
	C173	C	0.180063	0.123371	0.609668
	C174	C	0.814394	0.120374	0.388715
	C175	C	0.816195	0.874815	0.611673
	C176	C	0.385968	0.177737	0.875749
	C177	C	0.606869	0.178940	0.125729
	C178	C	0.384967	0.814244	0.123173
	C179	C	0.607299	0.814014	0.874800
	C180	C	0.385611	0.870493	0.182073
	C181	C	0.607697	0.119426	0.181350
	C182	C	0.386368	0.120923	0.817329
	C183	C	0.607789	0.871982	0.817722
	C184	C	0.872144	0.178629	0.388689
	C185	C	0.123155	0.181977	0.608733
	C186	C	0.122975	0.813466	0.391120
	C187	C	0.872864	0.815621	0.611097
	C188	C	0.176893	0.384946	0.875070
	C189	C	0.179064	0.607744	0.122767
	C190	C	0.813145	0.387320	0.124428
	C191	C	0.814045	0.607460	0.874329
	C192	C	0.402421	0.088315	0.596535
	C193	C	0.593197	0.904285	0.597300
	C194	C	0.591934	0.088128	0.402878
	C195	C	0.402157	0.905458	0.404504
	C196	C	0.591297	0.401699	0.090477
	C197	C	0.592022	0.592048	0.908341
	C198	C	0.400841	0.592072	0.090603
	C199	C	0.400444	0.398155	0.908593
	C200	C	0.088848	0.592526	0.405161
	C201	C	0.904573	0.593789	0.596351
	C202	C	0.089127	0.402473	0.594433
	C203	C	0.905849	0.402955	0.405180
	C204	C	0.902391	0.588176	0.094529
	C205	C	0.090345	0.406358	0.094669
	C206	C	0.093240	0.588250	0.902363
	C207	C	0.900760	0.405763	0.902433
	C208	C	0.091446	0.902650	0.591131
	C209	C	0.092705	0.092642	0.409048
	C210	C	0.900640	0.094547	0.590517
	C211	C	0.899995	0.899614	0.408917
	C212	C	0.588521	0.090588	0.905449
	C213	C	0.404220	0.091332	0.095555
	C214	C	0.588341	0.901013	0.095144
	C215	C	0.404172	0.900227	0.903377
	Zn216	Zn	0.497239	-0.003932	0.750356
	Zn217	Zn	0.496702	-0.004498	0.249412
	Zn218	Zn	0.747031	0.497456	-0.001197
	Zn219	Zn	0.246351	0.495933	-0.001103
	Zn220	Zn	-0.002490	0.746779	0.500533
	Zn221	Zn	-0.003030	0.248078	0.498518
	Zn222	Zn	-0.003137	0.497066	0.748779
	Zn223	Zn	-0.002785	0.498138	0.250129
	Zn224	Zn	0.495856	0.746744	-0.000914
	Zn225	Zn	0.496550	0.245094	0.000608
	Zn226	Zn	0.746071	-0.003462	0.500018
	Zn227	Zn	0.247347	-0.002735	0.500120
	N228	N	0.408905	0.961612	0.681028
	N229	N	0.585330	0.031185	0.681904
	N230	N	0.585706	0.961486	0.317768
	N231	N	0.407251	0.030358	0.317267
	N232	N	0.675772	0.410423	0.963424
	N233	N	0.678049	0.585421	0.034321
	N234	N	0.317530	0.581442	0.963176
	N235	N	0.315395	0.408345	0.034988
	N236	N	0.961327	0.677065	0.413769
	N237	N	0.032660	0.678179	0.588204
	N238	N	0.961910	0.316887	0.586438
	N239	N	0.032717	0.317397	0.411586
	N240	N	0.960978	0.410842	0.678118
	N241	N	0.032671	0.585113	0.680105
	N242	N	0.962241	0.586061	0.319114
	N243	N	0.032002	0.409463	0.317977
	N244	N	0.408218	0.676363	0.964020
	N245	N	0.584149	0.677627	0.034438
	N246	N	0.585185	0.313990	0.965707
	N247	N	0.407675	0.314440	0.035444
	N248	N	0.673920	0.959774	0.415362
	N249	N	0.676619	0.032151	0.587221
	N250	N	0.316439	0.962116	0.587897
	N251	N	0.318606	0.032706	0.414348
	N252	N	0.907166	0.463565	0.182100
	N253	N	0.085045	0.532581	0.180610
	N254	N	0.084874	0.461553	0.817170
	N255	N	0.908127	0.531827	0.817314
	N256	N	0.177552	0.909870	0.465164
	N257	N	0.177606	0.085135	0.535444
	N258	N	0.815855	0.084139	0.463785
	N259	N	0.817496	0.911043	0.536500
	N260	N	0.461137	0.175292	0.913554
	N261	N	0.530912	0.178056	0.089726
	N262	N	0.460383	0.816788	0.085778
	N263	N	0.531548	0.815653	0.911690
	N264	N	0.461330	0.907364	0.180743
	N265	N	0.532292	0.082026	0.179061
	N266	N	0.461662	0.083681	0.819652
	N267	N	0.532394	0.908913	0.819487
	N268	N	0.909050	0.177952	0.463635
	N269	N	0.085995	0.179813	0.533833
	N270	N	0.085106	0.816066	0.465666
	N271	N	0.908857	0.815559	0.535696
	N272	N	0.175532	0.460005	0.912244
	N273	N	0.175842	0.533147	0.085041
	N274	N	0.816540	0.461616	0.086151
	N275	N	0.816507	0.532901	0.911779
	O276	O	0.521128	0.300308	0.510693
	H277	H	0.492380	0.298439	0.504066
	H278	H	0.525269	0.314143	0.492985
	O279	O	0.634685	0.498644	0.492236
	H280	H	0.641873	0.487468	0.481416
	H281	H	0.632856	0.491128	0.510944
	O282	O	0.690438	0.465198	0.455729
	H283	H	0.686518	0.444239	0.458723
	H284	H	0.687928	0.453296	0.459346
	O285	O	1.146799	1.063712	-0.068925
	H286	H	1.150201	1.057206	-0.073265
	H287	H	1.142596	1.058698	-0.063417
	O288	O	0.312301	0.507525	0.294674
	H289	H	0.298216	0.511871	0.293306
	H290	H	0.302292	0.528871	0.294207
	O291	O	0.438950	0.361738	0.307137
	H292	H	0.456119	0.380932	0.309743
	H293	H	0.415598	0.365095	0.306094
	O294	O	1.116961	0.814766	1.024313
	H295	H	1.128405	0.791262	1.033841
	H296	H	1.099817	0.831016	1.027390
	O297	O	0.559114	0.522864	0.700189
	H298	H	0.543881	0.544120	0.691115
	H299	H	0.577061	0.516090	0.705810
	O300	O	0.390826	0.572303	0.561883
	H301	H	0.416672	0.574496	0.570710
	H302	H	0.380064	0.566221	0.580922
	O303	O	0.632364	0.681343	0.686379
	H304	H	0.615131	0.697963	0.678489
	H305	H	0.636419	0.691335	0.666538
	O306	O	-0.029773	0.096852	0.941455
	H307	H	-0.032247	0.088019	0.928971
	H308	H	-0.013047	0.099565	0.938649
	O309	O	1.201179	-0.030528	0.109736
	H310	H	1.188430	-0.029389	0.098014
	H311	H	1.209364	-0.033195	0.117900
	O312	O	0.318644	0.309642	0.645573
	H313	H	0.322122	0.297375	0.623558
	H314	H	0.318897	0.324033	0.631819
	O315	O	0.677706	0.363532	0.322972
	H316	H	0.652165	0.348986	0.307771
	H317	H	0.678329	0.348467	0.359721
	O318	O	-0.080084	0.056795	-0.018257
	H319	H	-0.073731	0.061614	-0.024801
	H320	H	-0.087048	0.055141	-0.030161
	O321	O	0.472044	0.702334	0.299977
	H322	H	0.476148	0.697802	0.295333
	H323	H	0.484432	0.699825	0.281162
	O324	O	1.056146	0.168877	1.195938
	H325	H	1.052217	0.169427	1.200128
	H326	H	1.029581	0.180125	1.190740
	O327	O	0.610741	0.544675	0.562845
	H328	H	0.591423	0.560969	0.553997
	H329	H	0.621325	0.542000	0.577864
	O330	O	0.149358	0.924318	0.894933
	H331	H	0.157971	0.953874	0.866358
	H332	H	0.171889	0.928187	0.924121
	O333	O	-0.016074	0.960703	-0.190465
	H334	H	-0.007641	0.951786	-0.184444
	H335	H	-0.004227	0.930690	-0.187135
	O336	O	1.199576	0.960752	-0.158160
	H337	H	1.209919	0.976373	-0.178122
	H338	H	1.185304	0.979835	-0.157600
	O339	O	-0.006003	0.925348	1.219179
	H340	H	-0.026332	0.941984	1.224688
	H341	H	-0.018739	0.926683	1.217213
	O342	O	0.524027	0.301921	0.289473
	H343	H	0.523924	0.300030	0.277377
	H344	H	0.517380	0.304128	0.277294
	O345	O	-0.202568	0.040225	1.074752
	H346	H	-0.215236	0.067486	1.060903
	H347	H	-0.199018	0.019545	1.043113
	O348	O	0.328519	0.303486	0.497033
	H349	H	0.305985	0.298814	0.500020
	H350	H	0.329153	0.333944	0.481385
	O351	O	0.936103	1.062977	0.132466
	H352	H	0.930630	1.070556	0.129925
	H353	H	0.924464	1.073003	0.131793
	O354	O	1.196495	1.207487	1.016821
	H355	H	1.184640	1.188916	1.050426
	H356	H	1.229171	1.239462	1.027145
	O357	O	-0.126511	0.137996	-0.197011
	H358	H	-0.111812	0.138585	-0.200176
	H359	H	-0.129073	0.102016	-0.203753
	O360	O	0.651153	0.499407	0.307028
	H361	H	0.658779	0.480225	0.303706
	H362	H	0.656171	0.483717	0.287580
	O363	O	0.788930	-0.206863	0.019705
	H364	H	0.759680	-0.229603	0.020518
	H365	H	0.808779	-0.203610	0.046665
	O366	O	-0.185100	-0.180615	1.179374
	H367	H	-0.152923	-0.186986	1.172427
	H368	H	-0.191417	-0.145081	1.190884
	O369	O	0.820010	0.009842	0.802731
	H370	H	0.826035	-0.015774	0.824014
	H371	H	0.812469	0.002153	0.780623
	O372	O	0.472438	0.634432	0.596388
	H373	H	0.481848	0.626781	0.582130
	H374	H	0.472641	0.631569	0.599011
	O375	O	0.021081	0.100006	0.801467
	H376	H	0.009695	0.095614	0.808791
	H377	H	0.025347	0.099944	0.780841
	O378	O	0.288357	0.465624	0.665413
	H379	H	0.275863	0.463932	0.658378
	H380	H	0.283301	0.453798	0.679076
	O381	O	-0.217014	1.212070	-0.022130
	H382	H	-0.256019	1.246458	-0.029726
	H383	H	-0.197333	1.200744	-0.064121
	O384	O	0.507772	0.620801	0.554796
	H385	H	0.520965	0.631148	0.555054
	H386	H	0.515074	0.617515	0.545024
	O387	O	0.583383	0.599267	0.405165
	H388	H	0.575735	0.589776	0.412522
	H389	H	0.612050	0.582396	0.394695
	O390	O	0.964122	1.209396	0.088609
	H391	H	0.956885	1.224480	0.088589
	H392	H	0.970191	1.212694	0.050630
	O393	O	1.006689	-0.215070	1.158511
	H394	H	1.002960	-0.236176	1.194849
	H395	H	1.021770	-0.181930	1.157512
	O396	O	0.552224	0.316093	0.635296
	H397	H	0.549330	0.317802	0.638946
	H398	H	0.542212	0.323247	0.638611
	O399	O	0.698739	0.619163	0.483928
	H400	H	0.719010	0.624202	0.469521
	H401	H	0.700098	0.598475	0.471992
	O402	O	0.878681	0.978048	-0.085407
	H403	H	0.867480	0.949623	-0.078873
	H404	H	0.896765	0.988336	-0.082022
	O405	O	0.301960	0.488056	0.470292
	H406	H	0.305126	0.493106	0.470825
	H407	H	0.306263	0.504461	0.476681
	O408	O	0.658538	0.312848	0.467053
	H409	H	0.645136	0.305195	0.491113
	H410	H	0.681073	0.294513	0.473181
	O411	O	1.173608	1.124965	1.188916
	H412	H	1.166430	1.131090	1.201173
	H413	H	1.182053	1.083585	1.180277
	O414	O	0.413468	0.675675	0.565178
	H415	H	0.422015	0.677215	0.571719
	H416	H	0.429994	0.664453	0.574774
	O417	O	0.004063	0.784262	0.805530
	H418	H	0.027577	0.778759	0.817205
	H419	H	-0.000644	0.753876	0.788610
	O420	O	-0.024613	0.780309	0.953685
	H421	H	-0.005231	0.781571	0.954549
	H422	H	-0.035218	0.767644	0.971146
	O423	O	0.094670	0.970738	0.212189
	H424	H	0.067928	0.971111	0.222329
	H425	H	0.115978	0.990373	0.227830
	O426	O	0.430947	0.558781	0.476265
	H427	H	0.431491	0.541481	0.478815
	H428	H	0.448684	0.560222	0.487309
	O429	O	0.484806	0.387293	0.591172
	H430	H	0.484110	0.378845	0.582406
	H431	H	0.483289	0.386341	0.583018
	O432	O	0.538775	0.486563	0.690618
	H433	H	0.536128	0.475697	0.692592
	H434	H	0.538369	0.499142	0.696721
	O435	O	-0.180550	-0.014030	0.124648
	H436	H	-0.185479	-0.000063	0.131725
	H437	H	-0.198302	-0.003900	0.110205
	O438	O	0.176655	1.058839	0.844151
	H439	H	0.171249	1.050612	0.841314
	H440	H	0.192288	1.056043	0.848722
	O441	O	0.317992	0.658702	0.349542
	H442	H	0.356031	0.658547	0.340917
	H443	H	0.311509	0.673275	0.394577
