data_Molecule from HDF5

_cell_length_a		16.301034
_cell_length_b		16.321596
_cell_length_c		16.249190
_cell_angle_alpha	90.009531
_cell_angle_beta	90.114046
_cell_angle_gamma	90.100389
_symmetry_space_group_name_H-M	'P 1'
_symmetry_Int_Tables_number		1

loop_
	_symmetry_equiv_pos_as_xyz
	x,y,z

loop_
	_atom_site_label
	_atom_site_type_symbol
	_atom_site_fract_x
	_atom_site_fract_y
	_atom_site_fract_z
	H0	H	0.406556	0.842633	0.710956
	H1	H	0.603998	0.170351	0.712471
	H2	H	0.602509	0.843833	0.283532
	H3	H	0.407926	0.170479	0.282990
	H4	H	0.718506	0.408146	0.834281
	H5	H	0.717999	0.605143	0.162750
	H6	H	0.288674	0.604829	0.833972
	H7	H	0.290274	0.408888	0.162657
	H8	H	0.840685	0.721196	0.400111
	H9	H	0.167162	0.722058	0.597112
	H10	H	0.840993	0.291484	0.596911
	H11	H	0.168222	0.293356	0.399537
	H12	H	0.838992	0.409940	0.710426
	H13	H	0.166649	0.606564	0.713881
	H14	H	0.839924	0.603876	0.284771
	H15	H	0.168348	0.411249	0.285699
	H16	H	0.405590	0.720139	0.833539
	H17	H	0.602336	0.721813	0.161830
	H18	H	0.601089	0.293337	0.833724
	H19	H	0.403757	0.291692	0.161620
	H20	H	0.720035	0.844273	0.397621
	H21	H	0.719933	0.170813	0.595687
	H22	H	0.288100	0.844111	0.596358
	H23	H	0.289020	0.170018	0.396879
	H24	H	0.905928	0.343464	0.212651
	H25	H	0.101305	0.671580	0.211387
	H26	H	0.101172	0.343763	0.782811
	H27	H	0.905959	0.671542	0.784310
	H28	H	0.217415	0.909585	0.333079
	H29	H	0.219568	0.105975	0.661787
	H30	H	0.791546	0.105005	0.333357
	H31	H	0.790513	0.909477	0.661821
	H32	H	0.340084	0.220999	0.898493
	H33	H	0.666451	0.223614	0.098016
	H34	H	0.340953	0.792346	0.095758
	H35	H	0.667722	0.791989	0.898997
	H36	H	0.340634	0.908844	0.211336
	H37	H	0.668343	0.104624	0.211235
	H38	H	0.340593	0.103429	0.782818
	H39	H	0.668615	0.910281	0.785000
	H40	H	0.907148	0.220871	0.333930
	H41	H	0.103302	0.221748	0.662108
	H42	H	0.102632	0.792029	0.334103
	H43	H	0.905707	0.792667	0.661501
	H44	H	0.216308	0.342808	0.901561
	H45	H	0.218500	0.670254	0.096369
	H46	H	0.788804	0.343171	0.097121
	H47	H	0.788870	0.670605	0.899953
	H48	H	0.418454	0.120675	0.590684
	H49	H	0.596953	0.894280	0.584162
	H50	H	0.597409	0.123393	0.404854
	H51	H	0.413532	0.893439	0.410960
	H52	H	0.604904	0.415390	0.117185
	H53	H	0.595197	0.592989	0.884374
	H54	H	0.408572	0.592761	0.113846
	H55	H	0.410807	0.414750	0.882278
	H56	H	0.122329	0.606692	0.405759
	H57	H	0.887162	0.601125	0.589314
	H58	H	0.117819	0.418394	0.588286
	H59	H	0.882591	0.398567	0.401468
	H60	H	0.120911	0.415858	0.595770
	H61	H	0.887918	0.599499	0.590748
	H62	H	0.118204	0.598148	0.410094
	H63	H	0.893242	0.416988	0.420116
	H64	H	0.418503	0.602229	0.112406
	H65	H	0.592080	0.604518	0.881226
	H66	H	0.592211	0.421508	0.111377
	H67	H	0.410024	0.412611	0.881247
	H68	H	0.598377	0.123327	0.405022
	H69	H	0.605006	0.888404	0.592501
	H70	H	0.409530	0.121394	0.584379
	H71	H	0.404291	0.889171	0.404894
	H72	H	0.906195	0.622643	0.085257
	H73	H	0.101878	0.390974	0.086102
	H74	H	0.092846	0.620354	0.909524
	H75	H	0.901235	0.390090	0.908421
	H76	H	0.093190	0.916655	0.612144
	H77	H	0.093853	0.115235	0.377667
	H78	H	0.916656	0.104759	0.615154
	H79	H	0.912713	0.910433	0.380202
	H80	H	0.620910	0.099686	0.900200
	H81	H	0.384428	0.105285	0.097087
	H82	H	0.622703	0.910789	0.094649
	H83	H	0.386062	0.906567	0.903020
	H84	H	0.620493	0.910855	0.085668
	H85	H	0.389329	0.102709	0.080348
	H86	H	0.621734	0.106843	0.905899
	H87	H	0.389704	0.915055	0.908286
	H88	H	0.905661	0.101825	0.616947
	H89	H	0.111091	0.098026	0.377884
	H90	H	0.096903	0.911194	0.614980
	H91	H	0.907754	0.915199	0.380741
	H92	H	0.102505	0.623430	0.907594
	H93	H	0.100048	0.388053	0.099772
	H94	H	0.908010	0.625299	0.097951
	H95	H	0.912609	0.389331	0.894734
	H96	H	0.409202	0.124564	0.594910
	H97	H	0.593798	0.890775	0.595746
	H98	H	0.598206	0.123241	0.403561
	H99	H	0.414770	0.890620	0.399522
	H100	H	0.592229	0.406811	0.115373
	H101	H	0.603725	0.600437	0.879806
	H102	H	0.406107	0.605922	0.117702
	H103	H	0.408190	0.414331	0.881057
	H104	H	0.121315	0.597417	0.399947
	H105	H	0.886981	0.601309	0.591405
	H106	H	0.120622	0.410861	0.589428
	H107	H	0.887593	0.424863	0.393886
	H108	H	0.917903	0.620548	0.090709
	H109	H	0.089542	0.392680	0.092058
	H110	H	0.095179	0.624130	0.900392
	H111	H	0.917929	0.395761	0.910768
	H112	H	0.100399	0.917528	0.614716
	H113	H	0.088756	0.092714	0.385986
	H114	H	0.913541	0.094472	0.611872
	H115	H	0.913866	0.917216	0.382720
	H116	H	0.618535	0.098842	0.909027
	H117	H	0.390472	0.089769	0.092187
	H118	H	0.618508	0.918989	0.090636
	H119	H	0.386947	0.915909	0.898382
	C120	C	0.383397	0.014720	0.618631
	C121	C	0.627098	0.999281	0.619414
	C122	C	0.626576	0.015482	0.375678
	C123	C	0.382800	0.998858	0.376117
	C124	C	0.624946	0.385642	0.006279
	C125	C	0.625353	0.627981	0.990067
	C126	C	0.382151	0.628418	0.006283
	C127	C	0.381760	0.385279	0.989863
	C128	C	0.012383	0.628845	0.376742
	C129	C	0.995356	0.628924	0.619149
	C130	C	0.011814	0.386048	0.619567
	C131	C	0.995937	0.385314	0.376666
	C132	C	0.882313	0.514833	0.119621
	C133	C	0.125792	0.498736	0.120556
	C134	C	0.125139	0.515004	0.876941
	C135	C	0.881872	0.499541	0.876448
	C136	C	0.125219	0.886300	0.505741
	C137	C	0.126351	0.129776	0.489503
	C138	C	0.883274	0.128926	0.506214
	C139	C	0.882932	0.885694	0.489491
	C140	C	0.512183	0.129067	0.875887
	C141	C	0.495928	0.128299	0.118990
	C142	C	0.512682	0.885230	0.118717
	C143	C	0.495892	0.884592	0.875594
	C144	C	0.385829	0.891586	0.673434
	C145	C	0.624331	0.121914	0.674351
	C146	C	0.623300	0.892389	0.321350
	C147	C	0.386464	0.121734	0.320780
	C148	C	0.680216	0.387947	0.883079
	C149	C	0.680510	0.625872	0.113615
	C150	C	0.327176	0.625051	0.882726
	C151	C	0.327338	0.387910	0.113492
	C152	C	0.889341	0.683586	0.379271
	C153	C	0.118317	0.684226	0.617434
	C154	C	0.889318	0.330075	0.617010
	C155	C	0.119224	0.331162	0.379506
	C156	C	0.888495	0.388354	0.673971
	C157	C	0.118201	0.626807	0.675236
	C158	C	0.888961	0.625157	0.322151
	C159	C	0.119416	0.389546	0.322683
	C160	C	0.384666	0.682887	0.882533
	C161	C	0.622565	0.683213	0.113398
	C162	C	0.621896	0.330906	0.882921
	C163	C	0.384049	0.329958	0.113089
	C164	C	0.681805	0.892836	0.377899
	C165	C	0.681921	0.122034	0.616422
	C166	C	0.326969	0.892304	0.616546
	C167	C	0.327674	0.121664	0.377537
	C168	C	0.885018	0.392048	0.174760
	C169	C	0.122739	0.622275	0.174583
	C170	C	0.122043	0.392240	0.821370
	C171	C	0.884792	0.622635	0.821847
	C172	C	0.180075	0.888615	0.382240
	C173	C	0.181529	0.126405	0.612857
	C174	C	0.828903	0.125776	0.382582
	C175	C	0.828275	0.888766	0.612928
	C176	C	0.388984	0.183200	0.878123
	C177	C	0.618215	0.184684	0.117536
	C178	C	0.389716	0.830393	0.116150
	C179	C	0.619282	0.830034	0.878610
	C180	C	0.389540	0.888131	0.173624
	C181	C	0.619103	0.126025	0.174200
	C182	C	0.389229	0.124846	0.820665
	C183	C	0.619541	0.888464	0.821879
	C184	C	0.886159	0.183355	0.382794
	C185	C	0.123790	0.183878	0.613086
	C186	C	0.122993	0.830310	0.382744
	C187	C	0.885728	0.830953	0.612808
	C188	C	0.179047	0.391715	0.880305
	C189	C	0.180667	0.621701	0.117186
	C190	C	0.827030	0.391859	0.117239
	C191	C	0.826982	0.622190	0.879622
	C192	C	0.405934	0.100125	0.596623
	C193	C	0.604947	0.913395	0.597442
	C194	C	0.604448	0.101220	0.397937
	C195	C	0.404350	0.913156	0.398584
	C196	C	0.602980	0.408000	0.092511
	C197	C	0.603484	0.605768	0.904047
	C198	C	0.404407	0.606729	0.092281
	C199	C	0.403335	0.407314	0.903888
	C200	C	0.098441	0.607203	0.398849
	C201	C	0.909618	0.607096	0.596953
	C202	C	0.097364	0.408451	0.597915
	C203	C	0.910005	0.407175	0.398564
	C204	C	0.904073	0.600694	0.097732
	C205	C	0.103696	0.412782	0.099035
	C206	C	0.103181	0.600505	0.899073
	C207	C	0.904068	0.413780	0.898155
	C208	C	0.103289	0.908603	0.591847
	C209	C	0.104397	0.108285	0.402800
	C210	C	0.905626	0.106844	0.592460
	C211	C	0.905021	0.907681	0.403437
	C212	C	0.598285	0.107789	0.898263
	C213	C	0.410251	0.105895	0.096480
	C214	C	0.598471	0.907114	0.096948
	C215	C	0.409839	0.906026	0.896931
	Zn216	Zn	0.505049	0.006567	0.747479
	Zn217	Zn	0.504730	0.006409	0.247441
	Zn218	Zn	0.753630	0.506655	-0.001570
	Zn219	Zn	0.254166	0.506467	-0.001336
	Zn220	Zn	0.004448	0.757498	0.498098
	Zn221	Zn	0.004518	0.257292	0.497977
	Zn222	Zn	0.003045	0.507673	0.747902
	Zn223	Zn	0.004064	0.507289	0.248568
	Zn224	Zn	0.504164	0.756348	-0.002643
	Zn225	Zn	0.502799	0.257511	-0.001537
	Zn226	Zn	0.755093	0.007508	0.497413
	Zn227	Zn	0.253751	0.007291	0.497049
	N228	N	0.420056	0.968706	0.675075
	N229	N	0.590942	0.044389	0.676295
	N230	N	0.589541	0.969551	0.319828
	N231	N	0.420272	0.044467	0.319949
	N232	N	0.682261	0.421095	0.960997
	N233	N	0.682020	0.591966	0.036111
	N234	N	0.325507	0.591922	0.960604
	N235	N	0.325759	0.421572	0.036038
	N236	N	0.967011	0.685944	0.412432
	N237	N	0.041001	0.685612	0.583337
	N238	N	0.966968	0.328320	0.584090
	N239	N	0.041496	0.328517	0.412429
	N240	N	0.965580	0.422726	0.675455
	N241	N	0.040861	0.593147	0.676491
	N242	N	0.966530	0.591920	0.320517
	N243	N	0.041836	0.422627	0.320852
	N244	N	0.418221	0.685163	0.960214
	N245	N	0.589370	0.684988	0.035425
	N246	N	0.588125	0.329479	0.960533
	N247	N	0.417174	0.328304	0.035196
	N248	N	0.683668	0.970452	0.411204
	N249	N	0.683750	0.044633	0.583169
	N250	N	0.325428	0.969689	0.583012
	N251	N	0.325491	0.044399	0.411240
	N252	N	0.918786	0.469398	0.176247
	N253	N	0.089153	0.544803	0.176632
	N254	N	0.089066	0.469825	0.819265
	N255	N	0.918377	0.545471	0.820005
	N256	N	0.181400	0.922756	0.459694
	N257	N	0.183400	0.093765	0.534728
	N258	N	0.827121	0.092528	0.460346
	N259	N	0.826466	0.922200	0.535222
	N260	N	0.466586	0.185981	0.911547
	N261	N	0.540607	0.186186	0.084010
	N262	N	0.467044	0.828486	0.082637
	N263	N	0.541323	0.827321	0.911158
	N264	N	0.467130	0.921516	0.175424
	N265	N	0.542093	0.091408	0.175073
	N266	N	0.466773	0.091738	0.819356
	N267	N	0.542103	0.921736	0.819929
	N268	N	0.919167	0.185480	0.460766
	N269	N	0.090419	0.186103	0.535219
	N270	N	0.089617	0.828975	0.460420
	N271	N	0.918831	0.828890	0.535109
	N272	N	0.181126	0.468981	0.914008
	N273	N	0.182417	0.544115	0.084182
	N274	N	0.825581	0.469171	0.083289
	N275	N	0.824938	0.544592	0.912629
	O276	O	0.435320	-0.550909	0.597552
	H277	H	0.439078	-0.552509	0.616351
	H278	H	0.431112	-0.553197	0.599704
	O279	O	0.503703	0.462411	0.611493
	H280	H	0.507934	0.460090	0.614620
	H281	H	0.501531	0.463228	0.623527
	O282	O	0.475749	0.482822	0.656191
	H283	H	0.483614	0.483719	0.660439
	H284	H	0.467916	0.484948	0.650261
	O285	O	0.471001	0.481306	0.600678
	H286	H	0.465578	0.476727	0.597202
	H287	H	0.472133	0.478457	0.590097
