data_Molecule from HDF5

_cell_length_a		16.676645
_cell_length_b		16.566801
_cell_length_c		16.532327
_cell_angle_alpha	90.033081
_cell_angle_beta	89.927607
_cell_angle_gamma	90.015714
_symmetry_space_group_name_H-M	'P 1'
_symmetry_Int_Tables_number		1

loop_
	_symmetry_equiv_pos_as_xyz
	x,y,z

loop_
	_atom_site_label
	_atom_site_type_symbol
	_atom_site_fract_x
	_atom_site_fract_y
	_atom_site_fract_z
	H0	H	0.410311	0.869434	0.706817
	H1	H	0.621186	0.181543	0.704186
	H2	H	0.617603	0.866660	0.266152
	H3	H	0.415795	0.183108	0.266819
	H4	H	0.740277	0.418453	0.828530
	H5	H	0.740287	0.633160	0.138466
	H6	H	0.294896	0.631038	0.827713
	H7	H	0.297000	0.420465	0.140864
	H8	H	0.863018	0.745152	0.378714
	H9	H	0.173992	0.745153	0.588118
	H10	H	0.861583	0.302707	0.589007
	H11	H	0.170611	0.297119	0.373440
	H12	H	0.861459	0.420311	0.704862
	H13	H	0.174852	0.627675	0.703225
	H14	H	0.862277	0.627724	0.263843
	H15	H	0.170613	0.412712	0.256616
	H16	H	0.411827	0.746535	0.827265
	H17	H	0.620487	0.744994	0.140953
	H18	H	0.624510	0.302143	0.828642
	H19	H	0.414943	0.307046	0.142121
	H20	H	0.735933	0.867416	0.380561
	H21	H	0.739612	0.179935	0.589577
	H22	H	0.293788	0.868942	0.591440
	H23	H	0.295878	0.180816	0.379213
	H24	H	0.910041	0.369947	0.205911
	H25	H	0.121985	0.679372	0.205481
	H26	H	0.120677	0.365808	0.764201
	H27	H	0.914729	0.680565	0.763208
	H28	H	0.237783	0.918970	0.327023
	H29	H	0.243235	0.135046	0.637784
	H30	H	0.797013	0.128634	0.327155
	H31	H	0.794932	0.917653	0.639534
	H32	H	0.362908	0.248957	0.876773
	H33	H	0.672125	0.246546	0.088990
	H34	H	0.360824	0.803703	0.087889
	H35	H	0.669475	0.799469	0.873938
	H36	H	0.360439	0.920316	0.204774
	H37	H	0.673494	0.126440	0.202246
	H38	H	0.364480	0.135823	0.757709
	H39	H	0.670298	0.917231	0.758389
	H40	H	0.912641	0.245270	0.327678
	H41	H	0.126840	0.250465	0.637837
	H42	H	0.120187	0.804172	0.327464
	H43	H	0.912393	0.804130	0.640659
	H44	H	0.239237	0.366857	0.877672
	H45	H	0.238679	0.679668	0.089770
	H46	H	0.791874	0.372019	0.092064
	H47	H	0.795789	0.679948	0.876922
	H48	H	0.425260	0.137864	0.572688
	H49	H	0.601576	0.913977	0.570691
	H50	H	0.613185	0.139838	0.390728
	H51	H	0.427682	0.912580	0.396204
	H52	H	0.602420	0.435185	0.095889
	H53	H	0.600884	0.606465	0.874786
	H54	H	0.429786	0.608448	0.093121
	H55	H	0.429619	0.434996	0.872211
	H56	H	0.131724	0.619600	0.394554
	H57	H	0.907056	0.611839	0.573063
	H58	H	0.129939	0.428736	0.568439
	H59	H	0.909390	0.435451	0.401188
	H60	H	0.123782	0.441131	0.567575
	H61	H	0.905036	0.615541	0.578577
	H62	H	0.125573	0.610513	0.401425
	H63	H	0.908441	0.440406	0.394177
	H64	H	0.430879	0.617810	0.095954
	H65	H	0.602300	0.619857	0.870447
	H66	H	0.608460	0.436930	0.097072
	H67	H	0.426619	0.436168	0.871423
	H68	H	0.605316	0.137624	0.390059
	H69	H	0.606570	0.914566	0.568138
	H70	H	0.435167	0.134546	0.572496
	H71	H	0.424398	0.911769	0.394193
	H72	H	0.928388	0.634713	0.065977
	H73	H	0.109453	0.410477	0.071682
	H74	H	0.104460	0.634105	0.894862
	H75	H	0.923140	0.410576	0.895566
	H76	H	0.105100	0.935775	0.595584
	H77	H	0.101255	0.115692	0.371993
	H78	H	0.929205	0.116748	0.596910
	H79	H	0.927105	0.932419	0.370270
	H80	H	0.628847	0.114854	0.893555
	H81	H	0.405126	0.111018	0.077893
	H82	H	0.628028	0.933544	0.073658
	H83	H	0.405864	0.941816	0.891356
	H84	H	0.628109	0.935250	0.074144
	H85	H	0.401720	0.121080	0.079881
	H86	H	0.625941	0.114352	0.899569
	H87	H	0.404846	0.931911	0.897813
	H88	H	0.922766	0.111121	0.597196
	H89	H	0.111021	0.108302	0.371995
	H90	H	0.107168	0.935371	0.597029
	H91	H	0.925259	0.935943	0.371630
	H92	H	0.110744	0.636201	0.896990
	H93	H	0.101967	0.412973	0.072485
	H94	H	0.925355	0.639587	0.075111
	H95	H	0.931399	0.412588	0.892019
	H96	H	0.428545	0.132905	0.564234
	H97	H	0.606207	0.911544	0.572851
	H98	H	0.609274	0.137028	0.397279
	H99	H	0.428032	0.912138	0.391952
	H100	H	0.604786	0.441021	0.094063
	H101	H	0.613377	0.610630	0.869740
	H102	H	0.422568	0.613111	0.096791
	H103	H	0.429016	0.438624	0.872110
	H104	H	0.129180	0.607989	0.388972
	H105	H	0.905732	0.618692	0.572265
	H106	H	0.130434	0.437818	0.579015
	H107	H	0.905765	0.431874	0.394172
	H108	H	0.935336	0.635160	0.074096
	H109	H	0.106069	0.413896	0.065375
	H110	H	0.108717	0.637767	0.890339
	H111	H	0.929271	0.414851	0.900950
	H112	H	0.107069	0.937271	0.595992
	H113	H	0.100514	0.104563	0.376979
	H114	H	0.930507	0.108826	0.593365
	H115	H	0.929612	0.935749	0.372165
	H116	H	0.626207	0.108614	0.895451
	H117	H	0.405168	0.118682	0.070005
	H118	H	0.628142	0.933816	0.075371
	H119	H	0.410722	0.941909	0.901986
	C120	C	0.395968	0.032766	0.604365
	C121	C	0.637613	1.016277	0.604068
	C122	C	0.639138	0.033531	0.361939
	C123	C	0.395641	1.016229	0.363005
	C124	C	0.638735	0.404203	-0.007355
	C125	C	0.637824	0.645727	0.974963
	C126	C	0.395494	0.645944	-0.008032
	C127	C	0.396633	0.404284	0.975504
	C128	C	0.026287	0.644740	0.363127
	C129	C	1.009384	0.646353	0.606244
	C130	C	0.025638	0.402727	0.604654
	C131	C	1.009283	0.401634	0.361894
	C132	C	0.895823	0.534061	0.104982
	C133	C	0.138241	0.515269	0.103573
	C134	C	0.139914	0.532069	0.861961
	C135	C	0.896630	0.516025	0.863230
	C136	C	0.138333	0.903339	0.492630
	C137	C	0.138280	0.145011	0.475700
	C138	C	0.895999	0.144500	0.492355
	C139	C	0.895460	0.902401	0.475128
	C140	C	0.525726	0.146929	0.862246
	C141	C	0.507966	0.146978	0.106185
	C142	C	0.524955	0.902814	0.105890
	C143	C	0.508530	0.904037	0.862517
	C144	C	0.392311	0.916075	0.666540
	C145	C	0.639763	0.134282	0.664129
	C146	C	0.637718	0.914227	0.304986
	C147	C	0.395813	0.135371	0.305476
	C148	C	0.699677	0.400729	0.875376
	C149	C	0.698935	0.649987	0.092207
	C150	C	0.335458	0.648609	0.874413
	C151	C	0.337267	0.402483	0.093875
	C152	C	0.909467	0.704845	0.360679
	C153	C	0.127186	0.705142	0.606751
	C154	C	0.908295	0.342939	0.607155
	C155	C	0.124414	0.338445	0.356475
	C156	C	0.908311	0.401147	0.664811
	C157	C	0.127615	0.646646	0.664147
	C158	C	0.909101	0.646176	0.303598
	C159	C	0.124400	0.396201	0.298387
	C160	C	0.393349	0.706250	0.874283
	C161	C	0.639587	0.705830	0.093188
	C162	C	0.642234	0.342758	0.875450
	C163	C	0.395977	0.346042	0.094464
	C164	C	0.696429	0.914460	0.361784
	C165	C	0.698342	0.133772	0.606976
	C166	C	0.334471	0.915861	0.609004
	C167	C	0.336426	0.134383	0.361512
	C168	C	0.891998	0.416956	0.165956
	C169	C	0.140642	0.632568	0.165054
	C170	C	0.140331	0.413483	0.803183
	C171	C	0.895622	0.633614	0.803163
	C172	C	0.197595	0.901126	0.374121
	C173	C	0.201591	0.151387	0.591450
	C174	C	0.836578	0.147206	0.374343
	C175	C	0.835220	0.899974	0.592689
	C176	C	0.409732	0.209051	0.858425
	C177	C	0.625596	0.205958	0.107271
	C178	C	0.407423	0.843718	0.106777
	C179	C	0.623810	0.841263	0.857159
	C180	C	0.407422	0.901664	0.164867
	C181	C	0.626210	0.146657	0.163800
	C182	C	0.410385	0.152165	0.799639
	C183	C	0.624129	0.899679	0.799715
	C184	C	0.894278	0.204938	0.374490
	C185	C	0.143532	0.208617	0.591638
	C186	C	0.139665	0.843603	0.374406
	C187	C	0.893676	0.843364	0.593224
	C188	C	0.199337	0.414119	0.859530
	C189	C	0.198746	0.632578	0.107700
	C190	C	0.833359	0.417944	0.109336
	C191	C	0.836422	0.633384	0.859461
	C192	C	0.422059	0.114098	0.577472
	C193	C	0.612201	0.934576	0.578183
	C194	C	0.616022	0.116501	0.385869
	C195	C	0.419837	0.933733	0.387095
	C196	C	0.612595	0.430610	0.074463
	C197	C	0.612782	0.619631	0.893033
	C198	C	0.420607	0.620341	0.074026
	C199	C	0.421496	0.429396	0.893143
	C200	C	0.107640	0.620004	0.387979
	C201	C	0.927334	0.622326	0.581697
	C202	C	0.106816	0.428369	0.579059
	C203	C	0.928756	0.428258	0.388954
	C204	C	0.922183	0.615285	0.078873
	C205	C	0.112974	0.433586	0.077218
	C206	C	0.115320	0.614555	0.886778
	C207	C	0.921104	0.434040	0.889097
	C208	C	0.113453	0.928785	0.574754
	C209	C	0.111850	0.117543	0.394789
	C210	C	0.920762	0.119440	0.574607
	C211	C	0.920463	0.927330	0.392653
	C212	C	0.606178	0.120200	0.888636
	C213	C	0.425555	0.123625	0.082606
	C214	C	0.606853	0.927125	0.081176
	C215	C	0.427959	0.930885	0.889630
	Zn216	Zn	0.516587	0.024931	0.733303
	Zn217	Zn	0.516766	0.024816	0.234524
	Zn218	Zn	0.767139	0.525519	-0.016187
	Zn219	Zn	0.267376	0.523721	-0.016655
	Zn220	Zn	0.017432	0.774635	0.484580
	Zn221	Zn	0.017117	0.273078	0.483558
	Zn222	Zn	0.017863	0.523770	0.734202
	Zn223	Zn	0.017560	0.523746	0.232971
	Zn224	Zn	0.516910	0.774347	-0.016812
	Zn225	Zn	0.517256	0.275664	-0.015647
	Zn226	Zn	0.767332	0.023708	0.483862
	Zn227	Zn	0.267175	0.024145	0.483833
	N228	N	0.429756	0.989962	0.663789
	N229	N	0.602825	0.060323	0.662333
	N230	N	0.603103	0.989375	0.304721
	N231	N	0.431698	0.060814	0.306081
	N232	N	0.697508	0.438359	0.949396
	N233	N	0.698261	0.613519	0.017679
	N234	N	0.336596	0.611737	0.948726
	N235	N	0.337553	0.437948	0.018787
	N236	N	0.983323	0.704351	0.397033
	N237	N	0.052583	0.705339	0.571757
	N238	N	0.982454	0.343411	0.570818
	N239	N	0.051754	0.341934	0.395342
	N240	N	0.982324	0.437484	0.663597
	N241	N	0.053361	0.610889	0.664128
	N242	N	0.982633	0.609481	0.304821
	N243	N	0.051748	0.434916	0.301460
	N244	N	0.430096	0.704580	0.948468
	N245	N	0.602429	0.703443	0.019101
	N246	N	0.605077	0.344811	0.949470
	N247	N	0.432248	0.347038	0.019880
	N248	N	0.697767	0.989911	0.396238
	N249	N	0.697440	0.059336	0.570448
	N250	N	0.336390	0.989624	0.571236
	N251	N	0.336002	0.059080	0.396299
	N252	N	0.930184	0.490170	0.163343
	N253	N	0.103693	0.558416	0.162965
	N254	N	0.104124	0.487991	0.804342
	N255	N	0.932161	0.559427	0.805104
	N256	N	0.197120	0.937354	0.448776
	N257	N	0.198135	0.112086	0.518449
	N258	N	0.837286	0.110381	0.448725
	N259	N	0.836251	0.935986	0.518037
	N260	N	0.482733	0.206101	0.896802
	N261	N	0.550975	0.206528	0.072389
	N262	N	0.481863	0.843878	0.071106
	N263	N	0.551020	0.844095	0.895668
	N264	N	0.481555	0.937622	0.164599
	N265	N	0.551935	0.110916	0.163431
	N266	N	0.483409	0.114258	0.801756
	N267	N	0.551297	0.938114	0.802948
	N268	N	0.930441	0.203323	0.448961
	N269	N	0.104560	0.204600	0.518774
	N270	N	0.103858	0.844538	0.449160
	N271	N	0.930585	0.844532	0.518931
	N272	N	0.199493	0.489270	0.894876
	N273	N	0.197324	0.558724	0.070384
	N274	N	0.835500	0.491892	0.072092
	N275	N	0.836682	0.559047	0.895942
	O276	O	0.045341	0.810669	-0.240742
	H277	H	0.056725	0.793946	-0.263366
	H278	H	0.073351	0.811519	-0.242006
	O279	O	0.787029	0.790732	0.217782
	H280	H	0.779110	0.790695	0.235802
	H281	H	0.782990	0.771647	0.224678
	O282	O	0.544776	-0.269730	1.693589
	H283	H	0.540307	-0.257101	1.677859
	H284	H	0.547612	-0.256149	1.700522
	O285	O	0.536899	0.424480	0.455883
	H286	H	0.532163	0.449490	0.451447
	H287	H	0.516173	0.433740	0.446453
	O288	O	0.297123	0.492382	0.703221
	H289	H	0.299580	0.496321	0.714955
	H290	H	0.290694	0.502541	0.719808
	O291	O	0.532326	0.512496	0.310987
	H292	H	0.524506	0.510200	0.314050
	H293	H	0.515399	0.523416	0.315639
	O294	O	0.796357	0.050274	0.767389
	H295	H	0.784138	0.067176	0.762913
	H296	H	0.792196	0.072592	0.756837
	O297	O	0.369422	0.558041	0.279249
	H298	H	0.381852	0.552176	0.294938
	H299	H	0.344799	0.553681	0.275473
	O300	O	-0.272386	-0.648384	0.453193
	H301	H	-0.252322	-0.668294	0.438453
	H302	H	-0.266821	-0.643033	0.430830
	O303	O	-0.021749	0.061551	-0.235718
	H304	H	-0.043058	0.059982	-0.220243
	H305	H	-0.032791	0.081994	-0.246845
	O306	O	0.432845	0.734412	0.545705
	H307	H	0.435574	0.722463	0.522780
	H308	H	0.411154	0.738232	0.524026
	O309	O	0.350109	0.356597	0.506576
	H310	H	0.339948	0.331078	0.522610
	H311	H	0.367410	0.361887	0.529164
	O312	O	0.295234	0.588234	0.535354
	H313	H	0.300211	0.582107	0.539768
	H314	H	0.298908	0.583972	0.547989
	O315	O	1.211171	1.211403	1.187922
	H316	H	1.180741	1.208643	1.198726
	H317	H	1.223195	1.219173	1.148663
	O318	O	0.529365	0.549274	0.597735
	H319	H	0.526605	0.551309	0.594241
	H320	H	0.533881	0.566844	0.592004
	O321	O	0.240974	0.975913	1.046836
	H322	H	0.249486	0.988458	1.063914
	H323	H	0.232336	0.977326	1.033147
	O324	O	0.780246	0.962750	-0.072521
	H325	H	0.771880	0.967352	-0.080611
	H326	H	0.775938	0.978463	-0.059673
	O327	O	-0.574534	0.398545	0.296359
	H328	H	-0.579667	0.401016	0.322139
	H329	H	-0.586988	0.405871	0.286894
	O330	O	0.101699	0.156077	0.864931
	H331	H	0.094153	0.143840	0.881240
	H332	H	0.097242	0.151579	0.864919
	O333	O	0.152885	0.162281	0.777576
	H334	H	0.135113	0.142514	0.781599
	H335	H	0.159943	0.149077	0.788297
	O336	O	1.039282	-0.200672	0.121557
	H337	H	1.034349	-0.218218	0.137388
	H338	H	1.008032	-0.194266	0.111994
	O339	O	0.981453	0.054858	1.184505
	H340	H	0.984507	0.062756	1.181304
	H341	H	0.983870	0.070443	1.194465
	O342	O	-0.271353	-0.501144	0.274503
	H343	H	-0.263164	-0.500769	0.252681
	H344	H	-0.269993	-0.497788	0.286588
	O345	O	-0.039944	0.805943	0.926176
	H346	H	-0.047506	0.807905	0.927315
	H347	H	-0.047908	0.807987	0.915782
	O348	O	-0.202185	-0.193088	1.016252
	H349	H	-0.222216	-0.211150	1.035650
	H350	H	-0.209401	-0.181824	1.021212
	O351	O	0.300949	0.519307	0.403100
	H352	H	0.295731	0.518166	0.398167
	H353	H	0.299311	0.499147	0.424519
	O354	O	-0.429092	0.365134	0.322214
	H355	H	-0.453439	0.381157	0.314515
	H356	H	-0.438671	0.361002	0.306764
	O357	O	0.232672	0.122428	-0.063431
	H358	H	0.231729	0.113224	-0.085403
	H359	H	0.230466	0.105030	-0.062689
	O360	O	-0.203800	-0.053899	1.196382
	H361	H	-0.209731	-0.060352	1.220533
	H362	H	-0.210899	-0.049812	1.208608
	O363	O	-0.434121	0.330376	0.457196
	H364	H	-0.437936	0.330645	0.445832
	H365	H	-0.430341	0.331055	0.444092
	O366	O	0.678288	0.411495	0.564759
	H367	H	0.696778	0.408483	0.564261
	H368	H	0.679638	0.431307	0.534458
	O369	O	1.042634	0.230902	0.193991
	H370	H	1.038215	0.252505	0.197012
	H371	H	1.036124	0.237005	0.182950
	O372	O	0.998222	0.992682	0.079824
	H373	H	0.989362	0.975906	0.082774
	H374	H	1.013482	1.012376	0.081232
	O375	O	0.826227	0.212813	0.169774
	H376	H	0.840436	0.209895	0.147439
	H377	H	0.802855	0.236082	0.198186
	O378	O	0.825424	-0.163976	-0.203200
	H379	H	0.838712	-0.138217	-0.189320
	H380	H	0.842992	-0.152927	-0.178065
	O381	O	0.212520	0.811135	0.957837
	H382	H	0.206469	0.808688	0.973211
	H383	H	0.201769	0.797298	0.961263
	O384	O	0.808811	0.229411	0.775635
	H385	H	0.800079	0.247813	0.777053
	H386	H	0.819829	0.239321	0.778075
	O387	O	0.961953	0.916604	0.181129
	H388	H	0.968714	0.915730	0.191885
	H389	H	0.959827	0.921064	0.177044
	O390	O	0.125521	0.910021	1.187445
	H391	H	0.103287	0.910960	1.178011
	H392	H	0.141066	0.932491	1.175414
	O393	O	0.573965	0.499755	0.459160
	H394	H	0.577974	0.493688	0.467438
	H395	H	0.575374	0.497920	0.460270
	O396	O	0.379948	0.442712	0.484748
	H397	H	0.370988	0.456650	0.490675
	H398	H	0.380876	0.433324	0.497201
	O399	O	0.732769	-0.322391	1.477400
	H400	H	0.721671	-0.331445	1.509039
	H401	H	0.746134	-0.292572	1.494173
	O402	O	0.555076	0.739304	0.424492
	H403	H	0.564389	0.743785	0.425124
	H404	H	0.535243	0.735751	0.403255
	O405	O	1.019586	-0.013760	0.822925
	H406	H	0.999111	-0.004199	0.822327
	H407	H	1.021699	-0.048164	0.827009
	O408	O	-0.273315	-0.267216	-0.310809
	H409	H	-0.282549	-0.281221	-0.299137
	H410	H	-0.258895	-0.241523	-0.283854
	O411	O	0.297983	0.748386	0.449588
	H412	H	0.279791	0.756944	0.439939
	H413	H	0.283402	0.756352	0.420046
	O414	O	0.365696	0.625764	0.639785
	H415	H	0.378151	0.613092	0.647637
	H416	H	0.379482	0.615679	0.634657
	O417	O	0.605041	0.653042	0.497472
	H418	H	0.602083	0.651111	0.503272
	H419	H	0.614881	0.654642	0.513879
	O420	O	0.712178	0.534242	0.493863
	H421	H	0.709546	0.536687	0.483518
	H422	H	0.714944	0.561214	0.503381
	O423	O	0.237349	0.008530	0.766469
	H424	H	0.250355	-0.012438	0.750425
	H425	H	0.222798	0.003842	0.749561
	O426	O	0.699777	0.316319	0.272935
	H427	H	0.653731	0.309267	0.271681
	H428	H	0.699815	0.351912	0.286199
	O429	O	1.484493	0.742423	1.266799
	H430	H	1.458110	0.756222	1.248845
	H431	H	1.463981	0.748733	1.262060
	O432	O	0.321435	0.328738	0.675854
	H433	H	0.345710	0.345145	0.681846
	H434	H	0.302476	0.331223	0.701008
	O435	O	0.227231	1.238143	0.031443
	H436	H	0.243733	1.223960	0.021055
	H437	H	0.221481	1.255172	0.013658
	O438	O	0.563852	0.380601	0.695132
	H439	H	0.560190	0.381181	0.694955
	H440	H	0.555293	0.362647	0.681670
	O441	O	-0.005632	0.017725	0.027682
	H442	H	0.015214	0.023128	0.030296
	H443	H	-0.014158	0.002599	0.052827
	O444	O	0.402281	0.515506	0.546939
	H445	H	0.397102	0.537746	0.555923
	H446	H	0.432526	0.496824	0.555141
	O447	O	0.315961	1.724881	1.280637
	H448	H	0.301844	1.689724	1.264804
	H449	H	0.294024	1.735659	1.265102
	O450	O	-0.015613	1.181187	1.035218
	H451	H	-0.016047	1.174446	1.031735
	H452	H	-0.037460	1.172750	1.023872
	O453	O	-0.066388	0.004757	0.943955
	H454	H	-0.075338	0.009652	0.940931
	H455	H	-0.071459	0.009766	0.949869
	O456	O	-0.198992	0.084116	1.051385
	H457	H	-0.201396	0.099099	1.054786
	H458	H	-0.201800	0.070175	1.077209
	O459	O	1.134066	0.827717	0.116109
	H460	H	1.114727	0.840089	0.113662
	H461	H	1.113670	0.837219	0.106304
	O462	O	0.695735	0.555764	0.698923
	H463	H	0.717566	0.543663	0.719564
	H464	H	0.685843	0.562916	0.698193
	O465	O	1.231207	0.044114	0.202743
	H466	H	1.238099	0.060156	0.216944
	H467	H	1.241430	0.063515	0.195180
	O468	O	0.669568	0.674705	0.294715
	H469	H	0.649639	0.658947	0.295308
	H470	H	0.664328	0.671122	0.322637
	O471	O	0.657012	0.408244	0.659961
	H472	H	0.663916	0.413437	0.657423
	H473	H	0.645212	0.409176	0.650358
	O474	O	0.804313	0.242912	-0.040248
	H475	H	0.802586	0.215074	-0.044144
	H476	H	0.779841	0.267650	-0.046499
	O477	O	0.428788	0.309150	1.613534
	H478	H	0.426498	0.310812	1.622831
	H479	H	0.409817	0.284916	1.616221
	O480	O	0.109382	0.046607	0.944306
	H481	H	0.114911	0.045101	0.940514
	H482	H	0.120176	0.041137	0.928473
	O483	O	0.011246	0.227086	0.982392
	H484	H	-0.001316	0.231905	0.970611
	H485	H	0.015297	0.220226	0.982484
	O486	O	1.006808	0.200163	0.768636
	H487	H	1.008925	0.201620	0.758589
	H488	H	1.001150	0.197295	0.759880
	O489	O	1.212305	0.825567	-0.193444
	H490	H	1.217920	0.820030	-0.196781
	H491	H	1.221022	0.813645	-0.165753
