data_Molecule from HDF5

_cell_length_a		16.414424
_cell_length_b		16.469952
_cell_length_c		16.463518
_cell_angle_alpha	90.154706
_cell_angle_beta	90.111904
_cell_angle_gamma	89.886416
_symmetry_space_group_name_H-M	'P 1'
_symmetry_Int_Tables_number		1

loop_
	_symmetry_equiv_pos_as_xyz
	x,y,z

loop_
	_atom_site_label
	_atom_site_type_symbol
	_atom_site_fract_x
	_atom_site_fract_y
	_atom_site_fract_z
	H0	H	0.399516	0.860023	0.729790
	H1	H	0.608800	0.175812	0.734037
	H2	H	0.611184	0.860538	0.286734
	H3	H	0.398667	0.175777	0.289882
	H4	H	0.725801	0.409619	0.852690
	H5	H	0.724319	0.623661	0.168918
	H6	H	0.281685	0.621090	0.852872
	H7	H	0.285055	0.414978	0.170093
	H8	H	0.843593	0.740959	0.402051
	H9	H	0.159250	0.737250	0.613916
	H10	H	0.843905	0.295269	0.617534
	H11	H	0.160851	0.297025	0.408296
	H12	H	0.843941	0.410110	0.733574
	H13	H	0.159257	0.621487	0.731275
	H14	H	0.843393	0.623732	0.287733
	H15	H	0.160610	0.412610	0.291784
	H16	H	0.398168	0.737229	0.852209
	H17	H	0.611191	0.741448	0.167359
	H18	H	0.610163	0.293287	0.852618
	H19	H	0.399172	0.296856	0.168746
	H20	H	0.727337	0.860509	0.402168
	H21	H	0.722418	0.177599	0.615694
	H22	H	0.283488	0.859251	0.612096
	H23	H	0.281274	0.175727	0.405815
	H24	H	0.894219	0.360431	0.234139
	H25	H	0.107110	0.674053	0.233464
	H26	H	0.107012	0.359564	0.788777
	H27	H	0.893706	0.673949	0.786868
	H28	H	0.223509	0.910525	0.353765
	H29	H	0.222861	0.122406	0.668838
	H30	H	0.778741	0.124525	0.353740
	H31	H	0.780760	0.913708	0.669391
	H32	H	0.345765	0.240234	0.902603
	H33	H	0.660556	0.239978	0.117128
	H34	H	0.345114	0.798146	0.113809
	H35	H	0.660119	0.792265	0.899917
	H36	H	0.346319	0.911715	0.231172
	H37	H	0.661144	0.123746	0.232825
	H38	H	0.344685	0.122390	0.789774
	H39	H	0.659790	0.908277	0.785053
	H40	H	0.893923	0.240309	0.354364
	H41	H	0.107959	0.239527	0.668246
	H42	H	0.108488	0.793710	0.354614
	H43	H	0.894439	0.795336	0.668659
	H44	H	0.223720	0.359140	0.905370
	H45	H	0.222600	0.674650	0.115840
	H46	H	0.776575	0.360894	0.118710
	H47	H	0.776855	0.673420	0.901234
	H48	H	0.407370	0.134217	0.602800
	H49	H	0.590667	0.906150	0.598139
	H50	H	0.591150	0.130771	0.419866
	H51	H	0.416617	0.905993	0.419685
	H52	H	0.590109	0.428818	0.121792
	H53	H	0.590280	0.606110	0.897948
	H54	H	0.408619	0.604781	0.125081
	H55	H	0.415684	0.431891	0.900168
	H56	H	0.113557	0.606709	0.425212
	H57	H	0.888575	0.608759	0.592100
	H58	H	0.115405	0.428595	0.602091
	H59	H	0.890221	0.434565	0.421065
	H60	H	0.114943	0.426444	0.598288
	H61	H	0.888976	0.598414	0.600289
	H62	H	0.112411	0.602516	0.423891
	H63	H	0.885857	0.424956	0.417161
	H64	H	0.418660	0.605273	0.121190
	H65	H	0.590627	0.601854	0.898973
	H66	H	0.590220	0.430892	0.121536
	H67	H	0.415817	0.421444	0.895575
	H68	H	0.587809	0.128647	0.422296
	H69	H	0.590317	0.906632	0.598236
	H70	H	0.418317	0.131083	0.604064
	H71	H	0.414137	0.905890	0.423168
	H72	H	0.910445	0.630288	0.101199
	H73	H	0.093731	0.403393	0.097146
	H74	H	0.092347	0.629618	0.924229
	H75	H	0.912413	0.405342	0.924838
	H76	H	0.091819	0.930088	0.623845
	H77	H	0.099297	0.104626	0.394929
	H78	H	0.906897	0.106296	0.625228
	H79	H	0.913675	0.924516	0.397734
	H80	H	0.617952	0.104620	0.917333
	H81	H	0.386853	0.110124	0.105931
	H82	H	0.617003	0.927890	0.097133
	H83	H	0.390270	0.926751	0.921816
	H84	H	0.615976	0.930970	0.095710
	H85	H	0.390749	0.111260	0.092743
	H86	H	0.615922	0.109167	0.926965
	H87	H	0.390514	0.929414	0.920573
	H88	H	0.916995	0.101267	0.620562
	H89	H	0.084970	0.101679	0.401697
	H90	H	0.089736	0.927887	0.624072
	H91	H	0.910586	0.933555	0.398409
	H92	H	0.094808	0.632792	0.919758
	H93	H	0.095830	0.401429	0.103362
	H94	H	0.919227	0.628163	0.101598
	H95	H	0.915641	0.404009	0.919129
	H96	H	0.412816	0.129076	0.594234
	H97	H	0.590908	0.906189	0.597497
	H98	H	0.591784	0.129308	0.424095
	H99	H	0.412600	0.903537	0.419606
	H100	H	0.588695	0.430032	0.121221
	H101	H	0.587014	0.604499	0.899549
	H102	H	0.414223	0.613921	0.125772
	H103	H	0.406435	0.427762	0.895056
	H104	H	0.114313	0.605838	0.421046
	H105	H	0.884624	0.610560	0.604583
	H106	H	0.113316	0.430259	0.598760
	H107	H	0.889397	0.425215	0.428376
	H108	H	0.914330	0.626968	0.093982
	H109	H	0.088768	0.403583	0.102412
	H110	H	0.089482	0.630585	0.919239
	H111	H	0.918752	0.407081	0.924042
	H112	H	0.092393	0.927511	0.624428
	H113	H	0.087682	0.115674	0.395038
	H114	H	0.917544	0.112094	0.625076
	H115	H	0.919572	0.930824	0.401847
	H116	H	0.613220	0.098629	0.925160
	H117	H	0.392275	0.099130	0.098896
	H118	H	0.617131	0.930957	0.099192
	H119	H	0.389837	0.926997	0.919028
	C120	C	0.381175	0.026883	0.631582
	C121	C	0.623358	1.010526	0.631583
	C122	C	0.624523	0.026051	0.388709
	C123	C	0.381520	1.009063	0.388339
	C124	C	0.623714	0.395983	0.017939
	C125	C	0.623475	0.638391	1.002279
	C126	C	0.381223	0.639287	0.019567
	C127	C	0.381634	0.395554	1.001766
	C128	C	0.009634	0.638370	0.389477
	C129	C	0.992303	0.637885	0.631319
	C130	C	0.010172	0.395399	0.632411
	C131	C	0.992978	0.395623	0.389823
	C132	C	0.880826	0.525014	0.131988
	C133	C	0.124152	0.507527	0.132961
	C134	C	0.123734	0.525837	0.889247
	C135	C	0.881258	0.508910	0.889115
	C136	C	0.123285	0.896045	0.519975
	C137	C	0.123431	0.139394	0.501736
	C138	C	0.880547	0.139464	0.519538
	C139	C	0.880555	0.896554	0.502923
	C140	C	0.511452	0.137462	0.889869
	C141	C	0.494623	0.139255	0.131777
	C142	C	0.512144	0.897498	0.129977
	C143	C	0.494336	0.894933	0.887244
	C144	C	0.380302	0.907368	0.690143
	C145	C	0.626571	0.128829	0.693242
	C146	C	0.628643	0.907867	0.327055
	C147	C	0.379860	0.128488	0.329418
	C148	C	0.685477	0.391932	0.899913
	C149	C	0.684389	0.641616	0.121134
	C150	C	0.321543	0.640004	0.900254
	C151	C	0.323887	0.395523	0.122006
	C152	C	0.890975	0.699863	0.385288
	C153	C	0.111813	0.697623	0.633336
	C154	C	0.891509	0.335104	0.635374
	C155	C	0.112799	0.336338	0.388783
	C156	C	0.891554	0.392515	0.693255
	C157	C	0.111773	0.640271	0.691506
	C158	C	0.890785	0.641371	0.328234
	C159	C	0.112695	0.393630	0.330703
	C160	C	0.379302	0.697986	0.900008
	C161	C	0.628113	0.700590	0.120319
	C162	C	0.627645	0.334029	0.899907
	C163	C	0.380638	0.336850	0.121446
	C164	C	0.686443	0.907910	0.384948
	C165	C	0.682837	0.129732	0.633973
	C166	C	0.322667	0.907028	0.631730
	C167	C	0.321398	0.128130	0.386995
	C168	C	0.876788	0.407124	0.193269
	C169	C	0.125573	0.626656	0.193042
	C170	C	0.125478	0.406760	0.828971
	C171	C	0.876475	0.626781	0.827493
	C172	C	0.183423	0.892731	0.401240
	C173	C	0.183307	0.141094	0.621012
	C174	C	0.819261	0.142581	0.401068
	C175	C	0.820420	0.894958	0.621931
	C176	C	0.393011	0.199216	0.885677
	C177	C	0.613347	0.199859	0.135072
	C178	C	0.392986	0.837748	0.132165
	C179	C	0.612701	0.832829	0.882879
	C180	C	0.393473	0.894313	0.190805
	C181	C	0.613520	0.141949	0.192751
	C182	C	0.392343	0.140482	0.829294
	C183	C	0.612594	0.891006	0.825872
	C184	C	0.876400	0.200453	0.401470
	C185	C	0.126020	0.199284	0.620946
	C186	C	0.126006	0.834516	0.401786
	C187	C	0.876900	0.835851	0.621416
	C188	C	0.183382	0.406689	0.887246
	C189	C	0.183174	0.626912	0.134678
	C190	C	0.818205	0.407568	0.135828
	C191	C	0.818113	0.626411	0.884390
	C192	C	0.405779	0.109881	0.607361
	C193	C	0.597991	0.927865	0.605572
	C194	C	0.597902	0.108067	0.414774
	C195	C	0.407097	0.926591	0.413405
	C196	C	0.597366	0.422264	0.100228
	C197	C	0.596933	0.611827	0.920227
	C198	C	0.406539	0.615094	0.102358
	C199	C	0.405859	0.419733	0.918623
	C200	C	0.092129	0.612477	0.415819
	C201	C	0.909154	0.613010	0.606221
	C202	C	0.092939	0.420856	0.606934
	C203	C	0.909965	0.420868	0.414912
	C204	C	0.907175	0.607193	0.106206
	C205	C	0.099869	0.424508	0.108029
	C206	C	0.099091	0.609120	0.914043
	C207	C	0.907896	0.426924	0.915413
	C208	C	0.098415	0.921326	0.602622
	C209	C	0.097919	0.114642	0.418879
	C210	C	0.906480	0.113719	0.602014
	C211	C	0.906871	0.922304	0.420806
	C212	C	0.594149	0.111496	0.915804
	C213	C	0.411580	0.113886	0.106275
	C214	C	0.594972	0.922780	0.104547
	C215	C	0.411612	0.920472	0.913058
	Zn216	Zn	0.503287	0.017961	0.760695
	Zn217	Zn	0.503441	0.017837	0.259543
	Zn218	Zn	0.752430	0.517755	0.010144
	Zn219	Zn	0.252987	0.517303	0.011078
	Zn220	Zn	0.000846	0.767064	0.511237
	Zn221	Zn	0.001593	0.267178	0.511101
	Zn222	Zn	0.001735	0.517400	0.760375
	Zn223	Zn	0.001664	0.516499	0.261396
	Zn224	Zn	0.503482	0.767931	0.009499
	Zn225	Zn	0.503049	0.266771	0.009957
	Zn226	Zn	0.752728	0.018378	0.511165
	Zn227	Zn	0.252015	0.017954	0.510124
	N228	N	0.416044	0.982713	0.690124
	N229	N	0.590486	0.053538	0.691865
	N230	N	0.590840	0.982246	0.329244
	N231	N	0.416251	0.053318	0.329793
	N232	N	0.683344	0.429610	0.974468
	N233	N	0.681810	0.603743	0.046590
	N234	N	0.322501	0.604525	0.975650
	N235	N	0.324111	0.430960	0.046665
	N236	N	0.965899	0.698188	0.422692
	N237	N	0.036455	0.696420	0.597105
	N238	N	0.966321	0.336888	0.598285
	N239	N	0.037267	0.337247	0.424509
	N240	N	0.966409	0.429622	0.691432
	N241	N	0.036579	0.603882	0.690282
	N242	N	0.965580	0.603655	0.330757
	N243	N	0.037045	0.429394	0.330962
	N244	N	0.415786	0.697831	0.975120
	N245	N	0.591262	0.698971	0.045203
	N246	N	0.590170	0.336326	0.974459
	N247	N	0.415738	0.336617	0.045639
	N248	N	0.684174	0.982442	0.422652
	N249	N	0.680914	0.055105	0.596355
	N250	N	0.323136	0.982348	0.596019
	N251	N	0.322186	0.052944	0.422781
	N252	N	0.914912	0.481057	0.190844
	N253	N	0.089742	0.551381	0.192248
	N254	N	0.089146	0.482018	0.830113
	N255	N	0.914944	0.552726	0.830265
	N256	N	0.181659	0.930639	0.475598
	N257	N	0.181939	0.104771	0.545841
	N258	N	0.821747	0.105326	0.475485
	N259	N	0.822259	0.931700	0.547020
	N260	N	0.468159	0.197533	0.922623
	N261	N	0.538340	0.198274	0.097936
	N262	N	0.467723	0.839554	0.095063
	N263	N	0.537941	0.834912	0.920357
	N264	N	0.468730	0.930802	0.189571
	N265	N	0.538637	0.105009	0.190728
	N266	N	0.467004	0.102911	0.831886
	N267	N	0.538011	0.928661	0.828288
	N268	N	0.914055	0.198347	0.476127
	N269	N	0.089470	0.198260	0.545821
	N270	N	0.089031	0.836448	0.476556
	N271	N	0.913402	0.836809	0.546478
	N272	N	0.182467	0.481800	0.923837
	N273	N	0.182446	0.551843	0.098119
	N274	N	0.820783	0.481968	0.098250
	N275	N	0.821051	0.552101	0.922186
	O276	O	0.290804	0.569792	0.328209
	H277	H	0.289103	0.610806	0.327949
	H278	H	0.274025	0.574680	0.306562
	O279	O	1.049992	-0.191535	0.975155
	H280	H	1.057303	-0.202145	0.964601
	H281	H	1.031500	-0.191282	0.970649
	O282	O	0.556396	0.483172	0.582103
	H283	H	0.556119	0.483133	0.577923
	H284	H	0.571648	0.483836	0.608772
	O285	O	0.200446	-0.053065	1.146483
	H286	H	0.193216	-0.047023	1.144208
	H287	H	0.200358	-0.040935	1.151016
	O288	O	1.207833	0.856934	0.003838
	H289	H	1.211337	0.862228	0.000625
	H290	H	1.223577	0.855566	-0.003572
	O291	O	0.521336	0.722848	0.715794
	H292	H	0.514682	0.747763	0.734130
	H293	H	0.496955	0.713343	0.702037
	O294	O	0.053756	0.031885	0.950349
	H295	H	0.065852	0.030096	0.950529
	H296	H	0.050788	0.034999	0.942494
	O297	O	1.031381	0.227548	0.222604
	H298	H	1.009350	0.231018	0.218901
	H299	H	1.020119	0.241914	0.232009
	O300	O	0.816178	1.204283	-0.103535
	H301	H	0.844723	1.206511	-0.116385
	H302	H	0.804713	1.179036	-0.114437
	O303	O	0.476143	0.678907	0.312592
	H304	H	0.482131	0.689102	0.304225
	H305	H	0.494659	0.682727	0.326719
	O306	O	0.442825	0.540671	0.508927
	H307	H	0.437008	0.552645	0.489099
	H308	H	0.454936	0.545003	0.503614
	O309	O	0.452087	0.440387	0.654723
	H310	H	0.433177	0.432900	0.660157
	H311	H	0.477146	0.447826	0.647818
	O312	O	0.105432	1.076401	0.968102
	H313	H	0.104809	1.064477	0.966138
	H314	H	0.097540	1.065513	0.959982
	O315	O	0.410439	0.435450	0.380216
	H316	H	0.421650	0.443104	0.381070
	H317	H	0.412347	0.460372	0.380159
	O318	O	0.794520	0.039415	-0.197395
	H319	H	0.796653	0.020681	-0.192864
	H320	H	0.773673	0.031097	-0.200713
	O321	O	-0.138119	0.242100	0.005639
	H322	H	-0.133666	0.244132	-0.009855
	H323	H	-0.148850	0.252404	-0.010224
	O324	O	0.382158	0.338006	0.691077
	H325	H	0.382521	0.328792	0.689152
	H326	H	0.383125	0.330921	0.661383
	O327	O	0.332191	0.459640	0.692222
	H328	H	0.339221	0.427680	0.690082
	H329	H	0.314872	0.447816	0.706309
	O330	O	0.117660	0.896503	0.213120
	H331	H	0.108662	0.918503	0.203875
	H332	H	0.102251	0.902771	0.202092
	O333	O	-0.094398	0.991511	0.967188
	H334	H	-0.093882	0.990824	0.972408
	H335	H	-0.087665	0.998709	0.988821
	O336	O	0.157020	0.071390	-0.026804
	H337	H	0.159467	0.074349	-0.034238
	H338	H	0.150796	0.070828	-0.016290
	O339	O	-0.090611	1.000112	0.872921
	H340	H	-0.096229	0.992932	0.860430
	H341	H	-0.094131	0.996874	0.873962
	O342	O	0.215697	1.096478	1.223714
	H343	H	0.234178	1.124127	1.243326
	H344	H	0.206523	1.121828	1.231996
	O345	O	1.607744	0.548979	-0.422914
	H346	H	1.572746	0.547768	-0.421125
	H347	H	1.619048	0.527474	-0.411858
	O348	O	-0.100810	0.116293	0.205008
	H349	H	-0.103000	0.118527	0.179802
	H350	H	-0.078018	0.108912	0.202043
	O351	O	0.179036	0.818106	0.847208
	H352	H	0.183114	0.799308	0.851454
	H353	H	0.177783	0.835330	0.830347
	O354	O	-0.678450	0.715123	0.311437
	H355	H	-0.644715	0.731601	0.300998
	H356	H	-0.688189	0.731826	0.303438
	O357	O	-0.587408	-0.423534	0.452498
	H358	H	-0.589332	-0.416732	0.459196
	H359	H	-0.587723	-0.414730	0.462731
	O360	O	0.699420	0.376870	0.483479
	H361	H	0.711767	0.375507	0.461652
	H362	H	0.710112	0.369750	0.463559
	O363	O	-0.652678	-0.303787	1.456735
	H364	H	-0.652842	-0.326931	1.447939
	H365	H	-0.668127	-0.294536	1.446890
	O366	O	0.794363	-0.000596	1.207198
	H367	H	0.802957	0.020821	1.204256
	H368	H	0.773955	0.007225	1.219859
	O369	O	0.695885	0.614348	0.701161
	H370	H	0.695800	0.582273	0.694402
	H371	H	0.689176	0.610801	0.718621
	O372	O	0.783353	-0.203212	1.032629
	H373	H	0.746739	-0.239729	1.034710
	H374	H	0.796583	-0.192327	1.077160
	O375	O	-0.052881	0.064281	-0.098365
	H376	H	-0.045886	0.079200	-0.098999
	H377	H	-0.037313	0.051867	-0.102266
	O378	O	0.472395	0.621817	0.602867
	H379	H	0.467362	0.626946	0.605074
	H380	H	0.484105	0.620598	0.577240
	O381	O	0.335294	0.651766	0.660848
	H382	H	0.337153	0.626789	0.659530
	H383	H	0.344460	0.647517	0.632108
	O384	O	0.718131	0.610073	0.433397
	H385	H	0.731240	0.611493	0.441346
	H386	H	0.724205	0.607304	0.441950
	O387	O	-0.096936	-0.124493	0.913461
	H388	H	-0.109782	-0.144133	0.921563
	H389	H	-0.105115	-0.114143	0.915849
	O390	O	-0.676035	-0.646124	0.522561
	H391	H	-0.673730	-0.648545	0.505577
	H392	H	-0.685496	-0.642791	0.506361
	O393	O	1.211269	1.189979	1.013753
	H394	H	1.208672	1.175011	1.022868
	H395	H	1.246044	1.205171	1.022501
	O396	O	2.017970	0.799388	-1.127788
	H397	H	2.044110	0.800534	-1.113508
	H398	H	2.019560	0.790912	-1.144395
	O399	O	1.201751	-0.058694	0.809760
	H400	H	1.179737	-0.066682	0.806409
	H401	H	1.232262	-0.060805	0.781030
	O402	O	1.514457	0.322419	0.359504
	H403	H	1.510275	0.333686	0.357224
	H404	H	1.497302	0.313638	0.376415
	O405	O	0.984609	0.928219	0.220763
	H406	H	1.004734	0.915668	0.231505
	H407	H	0.993869	0.927608	0.208704
	O408	O	0.928304	0.150457	0.061841
	H409	H	0.919046	0.145343	0.043138
	H410	H	0.918886	0.154470	0.051246
	O411	O	0.959203	1.221634	-0.118768
	H412	H	0.966334	1.217924	-0.119474
	H413	H	0.963810	1.217766	-0.102312
	O414	O	0.491583	0.636438	0.458924
	H415	H	0.486816	0.618685	0.456815
	H416	H	0.496987	0.636327	0.470619
	O417	O	0.640105	0.580163	0.375482
	H418	H	0.666852	0.589166	0.378287
	H419	H	0.620944	0.574322	0.361820
	O420	O	-0.054508	0.144270	-0.029742
	H421	H	-0.058531	0.140376	-0.046751
	H422	H	-0.039901	0.150128	-0.032934
	O423	O	0.637628	0.434894	0.601271
	H424	H	0.644359	0.443924	0.579094
	H425	H	0.630383	0.422517	0.606727
	O426	O	0.821482	0.835165	0.188707
	H427	H	0.819719	0.876583	0.201983
	H428	H	0.856845	0.834734	0.194376
	O429	O	0.632008	0.681088	0.504528
	H430	H	0.631503	0.672852	0.532349
	H431	H	0.657005	0.701914	0.505305
	O432	O	0.487479	0.322722	0.701664
	H433	H	0.484486	0.308526	0.713410
	H434	H	0.483558	0.334624	0.703992
	O435	O	0.536274	0.383134	0.471041
	H436	H	0.544970	0.392905	0.481989
	H437	H	0.550628	0.391104	0.475939
	O438	O	0.191199	0.206925	0.144731
	H439	H	0.196041	0.214251	0.123896
	H440	H	0.161868	0.218427	0.164309
	O441	O	1.049117	0.048534	-0.107887
	H442	H	1.037981	0.050438	-0.098221
	H443	H	1.048628	0.031082	-0.110556
	O444	O	0.012019	0.870860	1.131167
	H445	H	0.020909	0.867187	1.130471
	H446	H	0.016226	0.867347	1.127739
	O447	O	0.686408	0.347240	0.322998
	H448	H	0.650337	0.351122	0.323988
	H449	H	0.696113	0.349187	0.303539
	O450	O	0.558318	0.569688	0.469492
	H451	H	0.563295	0.571962	0.468145
	H452	H	0.554267	0.564562	0.468808
	O453	O	0.419422	0.419750	0.513613
	H454	H	0.421568	0.410800	0.514575
	H455	H	0.426905	0.414033	0.518186
