data_Molecule from HDF5

_cell_length_a		16.426159
_cell_length_b		16.124775
_cell_length_c		16.172766
_cell_angle_alpha	90.133372
_cell_angle_beta	90.472853
_cell_angle_gamma	89.548922
_symmetry_space_group_name_H-M	'P 1'
_symmetry_Int_Tables_number		1

loop_
	_symmetry_equiv_pos_as_xyz
	x,y,z

loop_
	_atom_site_label
	_atom_site_type_symbol
	_atom_site_fract_x
	_atom_site_fract_y
	_atom_site_fract_z
	H0	H	0.410309	0.833429	0.705146
	H1	H	0.602550	0.163886	0.711045
	H2	H	0.601514	0.833440	0.284459
	H3	H	0.404527	0.164910	0.282769
	H4	H	0.718628	0.395853	0.830313
	H5	H	0.721926	0.603349	0.156869
	H6	H	0.283586	0.603169	0.831896
	H7	H	0.288930	0.399080	0.158431
	H8	H	0.841206	0.716133	0.394387
	H9	H	0.166573	0.710040	0.594365
	H10	H	0.840007	0.284847	0.591191
	H11	H	0.165528	0.281015	0.395839
	H12	H	0.839878	0.400723	0.707747
	H13	H	0.165097	0.596785	0.712748
	H14	H	0.841569	0.600426	0.275765
	H15	H	0.166333	0.398455	0.279798
	H16	H	0.404280	0.711600	0.829564
	H17	H	0.599591	0.710427	0.159666
	H18	H	0.600446	0.283999	0.830302
	H19	H	0.410608	0.290480	0.161248
	H20	H	0.721127	0.835728	0.393536
	H21	H	0.721026	0.162413	0.599499
	H22	H	0.289831	0.835683	0.597064
	H23	H	0.284753	0.162648	0.392626
	H24	H	0.909071	0.333575	0.204935
	H25	H	0.100895	0.664645	0.208724
	H26	H	0.098465	0.332455	0.784497
	H27	H	0.904452	0.664875	0.782409
	H28	H	0.219248	0.896887	0.331086
	H29	H	0.219414	0.100295	0.658292
	H30	H	0.783658	0.102223	0.332897
	H31	H	0.788947	0.895771	0.658919
	H32	H	0.341165	0.216246	0.896356
	H33	H	0.666524	0.214688	0.097296
	H34	H	0.340313	0.785500	0.092298
	H35	H	0.666023	0.782415	0.899488
	H36	H	0.340896	0.901789	0.209492
	H37	H	0.666646	0.097311	0.213123
	H38	H	0.341170	0.100844	0.778087
	H39	H	0.665942	0.897625	0.781759
	H40	H	0.903773	0.211700	0.330025
	H41	H	0.101296	0.211471	0.659841
	H42	H	0.100165	0.785127	0.329719
	H43	H	0.910470	0.787839	0.660498
	H44	H	0.220805	0.335960	0.892521
	H45	H	0.217306	0.664522	0.095257
	H46	H	0.790079	0.335260	0.093201
	H47	H	0.784567	0.663279	0.890720
	H48	H	0.399254	0.118522	0.578758
	H49	H	0.596928	0.879996	0.592267
	H50	H	0.602601	0.118816	0.408453
	H51	H	0.418673	0.883704	0.401254
	H52	H	0.606498	0.411331	0.112904
	H53	H	0.587326	0.595384	0.877315
	H54	H	0.413398	0.583594	0.108445
	H55	H	0.407519	0.414315	0.878271
	H56	H	0.121527	0.588356	0.390078
	H57	H	0.889905	0.588034	0.583541
	H58	H	0.119662	0.396170	0.587518
	H59	H	0.892097	0.412780	0.407443
	H60	H	0.114809	0.410501	0.584338
	H61	H	0.885590	0.593121	0.593701
	H62	H	0.120376	0.601937	0.407467
	H63	H	0.887390	0.410992	0.389771
	H64	H	0.415908	0.598592	0.113151
	H65	H	0.602099	0.592471	0.873542
	H66	H	0.594066	0.413554	0.108590
	H67	H	0.415588	0.407252	0.879205
	H68	H	0.590979	0.117395	0.399454
	H69	H	0.596681	0.883222	0.583834
	H70	H	0.410471	0.120833	0.599299
	H71	H	0.407736	0.882875	0.411448
	H72	H	0.907001	0.618405	0.084451
	H73	H	0.098020	0.380545	0.091167
	H74	H	0.104685	0.620091	0.904566
	H75	H	0.905429	0.380873	0.904658
	H76	H	0.098121	0.899741	0.613895
	H77	H	0.094737	0.089261	0.376623
	H78	H	0.913383	0.098187	0.614257
	H79	H	0.907893	0.907985	0.377848
	H80	H	0.616219	0.089755	0.912160
	H81	H	0.392046	0.088473	0.084797
	H82	H	0.616743	0.907361	0.086172
	H83	H	0.387702	0.906942	0.901019
	H84	H	0.619668	0.907960	0.094658
	H85	H	0.385384	0.094250	0.098699
	H86	H	0.618106	0.083981	0.898336
	H87	H	0.387367	0.906972	0.898727
	H88	H	0.904981	0.088307	0.614217
	H89	H	0.095768	0.088391	0.377717
	H90	H	0.106805	0.907271	0.614819
	H91	H	0.911355	0.912118	0.378824
	H92	H	0.090252	0.618547	0.894260
	H93	H	0.094652	0.384394	0.081348
	H94	H	0.912091	0.617454	0.087678
	H95	H	0.908626	0.379682	0.896594
	H96	H	0.420984	0.112569	0.581385
	H97	H	0.604215	0.879779	0.586942
	H98	H	0.590376	0.112835	0.412952
	H99	H	0.405401	0.877941	0.396830
	H100	H	0.597249	0.402160	0.113563
	H101	H	0.593623	0.580936	0.879749
	H102	H	0.401531	0.592399	0.114876
	H103	H	0.405638	0.404609	0.875102
	H104	H	0.113545	0.580914	0.409879
	H105	H	0.886550	0.599852	0.583907
	H106	H	0.119924	0.407026	0.598638
	H107	H	0.885750	0.396266	0.400609
	H108	H	0.910866	0.615625	0.081688
	H109	H	0.103745	0.380999	0.083345
	H110	H	0.089840	0.613790	0.911239
	H111	H	0.913681	0.383115	0.903740
	H112	H	0.096796	0.910704	0.609954
	H113	H	0.094581	0.088153	0.377725
	H114	H	0.916129	0.087000	0.609656
	H115	H	0.912853	0.907401	0.378394
	H116	H	0.621911	0.098281	0.900476
	H117	H	0.387038	0.104375	0.084913
	H118	H	0.619510	0.899762	0.090192
	H119	H	0.387411	0.905283	0.900250
	C120	C	0.383197	0.008277	0.615614
	C121	C	0.626725	0.990219	0.617512
	C122	C	0.624270	0.007765	0.376345
	C123	C	0.381278	0.990459	0.373902
	C124	C	0.626414	0.378254	0.003176
	C125	C	0.624010	0.619643	0.985521
	C126	C	0.380511	0.621151	0.003661
	C127	C	0.382553	0.379663	0.986300
	C128	C	0.011731	0.620838	0.372018
	C129	C	0.994881	0.621164	0.617208
	C130	C	0.010628	0.376516	0.617108
	C131	C	0.995353	0.376588	0.371533
	C132	C	0.882610	0.507889	0.113577
	C133	C	0.126232	0.490869	0.115441
	C134	C	0.123577	0.507824	0.874445
	C135	C	0.880000	0.490259	0.872302
	C136	C	0.127633	0.876640	0.503895
	C137	C	0.124151	0.118780	0.486074
	C138	C	0.881514	0.120347	0.504088
	C139	C	0.883224	0.878909	0.486723
	C140	C	0.511630	0.121045	0.873821
	C141	C	0.495633	0.122774	0.118870
	C142	C	0.511321	0.876893	0.117906
	C143	C	0.495144	0.876622	0.872821
	C144	C	0.387977	0.883411	0.669525
	C145	C	0.623166	0.114359	0.673393
	C146	C	0.622042	0.883382	0.320956
	C147	C	0.383690	0.115204	0.319563
	C148	C	0.680398	0.377320	0.879364
	C149	C	0.682058	0.620750	0.108298
	C150	C	0.323079	0.621404	0.880509
	C151	C	0.327380	0.380264	0.109671
	C152	C	0.889778	0.677991	0.373405
	C153	C	0.117626	0.673577	0.614873
	C154	C	0.888603	0.322189	0.612572
	C155	C	0.117271	0.319615	0.375112
	C156	C	0.888564	0.380073	0.670639
	C157	C	0.116571	0.617273	0.674093
	C158	C	0.889941	0.620198	0.314688
	C159	C	0.117673	0.377934	0.317301
	C160	C	0.383221	0.675220	0.879200
	C161	C	0.621293	0.674392	0.109968
	C162	C	0.622071	0.321328	0.879461
	C163	C	0.388004	0.326350	0.111336
	C164	C	0.681637	0.884401	0.375375
	C165	C	0.682352	0.113568	0.617985
	C166	C	0.328147	0.884491	0.615529
	C167	C	0.323740	0.113867	0.373905
	C168	C	0.887506	0.383289	0.168075
	C169	C	0.122431	0.615227	0.171275
	C170	C	0.120049	0.382625	0.820721
	C171	C	0.882828	0.615133	0.818382
	C172	C	0.181874	0.877170	0.380310
	C173	C	0.180493	0.118795	0.609550
	C174	C	0.823424	0.120378	0.381417
	C175	C	0.828092	0.878309	0.610118
	C176	C	0.389611	0.177787	0.875607
	C177	C	0.617874	0.176900	0.117157
	C178	C	0.389180	0.822741	0.113809
	C179	C	0.617214	0.819854	0.877156
	C180	C	0.389445	0.880366	0.172191
	C181	C	0.617778	0.119089	0.175485
	C182	C	0.389631	0.120197	0.816886
	C183	C	0.617483	0.877699	0.819063
	C184	C	0.882861	0.174942	0.379820
	C185	C	0.121701	0.174303	0.610217
	C186	C	0.122637	0.821627	0.379454
	C187	C	0.888268	0.824253	0.611133
	C188	C	0.181039	0.384572	0.874350
	C189	C	0.180062	0.615128	0.114891
	C190	C	0.827833	0.384363	0.112908
	C191	C	0.823291	0.614216	0.872369
	C192	C	0.404043	0.094880	0.593160
	C193	C	0.605513	0.903276	0.594486
	C194	C	0.601237	0.094155	0.400128
	C195	C	0.403986	0.903916	0.396496
	C196	C	0.605409	0.401978	0.089394
	C197	C	0.601024	0.596423	0.899080
	C198	C	0.403496	0.598223	0.089792
	C199	C	0.403398	0.402006	0.900039
	C200	C	0.096572	0.597298	0.395714
	C201	C	0.909437	0.600024	0.594029
	C202	C	0.096153	0.398045	0.596227
	C203	C	0.910376	0.399735	0.392944
	C204	C	0.903762	0.594838	0.091166
	C205	C	0.105015	0.404263	0.092180
	C206	C	0.101455	0.594790	0.896787
	C207	C	0.902644	0.403524	0.895081
	C208	C	0.106764	0.899226	0.590573
	C209	C	0.101612	0.095379	0.399567
	C210	C	0.904739	0.097819	0.590335
	C211	C	0.904724	0.902060	0.400569
	C212	C	0.596689	0.097576	0.896883
	C213	C	0.410130	0.101841	0.096169
	C214	C	0.596652	0.898568	0.096647
	C215	C	0.409642	0.899692	0.893678
	Zn216	Zn	0.503944	-0.001005	0.743924
	Zn217	Zn	0.503521	-0.000342	0.247938
	Zn218	Zn	0.753303	0.499378	-0.006855
	Zn219	Zn	0.253336	0.500456	-0.005236
	Zn220	Zn	0.003984	0.750421	0.495029
	Zn221	Zn	0.003020	0.246997	0.494300
	Zn222	Zn	0.001846	0.498958	0.746446
	Zn223	Zn	0.004221	0.499001	0.241766
	Zn224	Zn	0.502515	0.747442	-0.005091
	Zn225	Zn	0.503954	0.251763	-0.004560
	Zn226	Zn	0.753911	-0.001175	0.496204
	Zn227	Zn	0.254194	-0.000666	0.495086
	N228	N	0.421633	0.961271	0.669688
	N229	N	0.589433	0.036463	0.673304
	N230	N	0.586894	0.961110	0.321480
	N231	N	0.418651	0.037428	0.319399
	N232	N	0.683104	0.411892	0.957038
	N233	N	0.683518	0.587429	0.029751
	N234	N	0.321340	0.588640	0.958967
	N235	N	0.323754	0.412544	0.030950
	N236	N	0.966455	0.678417	0.408568
	N237	N	0.040910	0.676302	0.580171
	N238	N	0.965634	0.319916	0.579991
	N239	N	0.040331	0.318559	0.408170
	N240	N	0.965552	0.412883	0.673680
	N241	N	0.039136	0.585228	0.675364
	N242	N	0.966836	0.585721	0.313589
	N243	N	0.040979	0.412687	0.314884
	N244	N	0.418507	0.675042	0.956726
	N245	N	0.585832	0.673881	0.032658
	N246	N	0.589301	0.321455	0.957667
	N247	N	0.421551	0.325861	0.033732
	N248	N	0.683179	0.962851	0.409117
	N249	N	0.684480	0.035235	0.583950
	N250	N	0.324939	0.963126	0.582652
	N251	N	0.322424	0.035391	0.407177
	N252	N	0.920731	0.461386	0.168807
	N253	N	0.089730	0.536898	0.171833
	N254	N	0.085180	0.460488	0.820298
	N255	N	0.917292	0.537091	0.818110
	N256	N	0.184850	0.910646	0.458684
	N257	N	0.182336	0.085198	0.531197
	N258	N	0.822261	0.087174	0.459719
	N259	N	0.824805	0.911558	0.531907
	N260	N	0.466512	0.178492	0.910134
	N261	N	0.540960	0.179653	0.082860
	N262	N	0.466112	0.820424	0.080779
	N263	N	0.540100	0.819395	0.910037
	N264	N	0.466479	0.913267	0.175029
	N265	N	0.540758	0.086072	0.176558
	N266	N	0.466541	0.085616	0.815653
	N267	N	0.540567	0.912164	0.816136
	N268	N	0.918221	0.175087	0.457199
	N269	N	0.087169	0.174243	0.532555
	N270	N	0.089708	0.820942	0.457361
	N271	N	0.922013	0.824490	0.533467
	N272	N	0.183246	0.463491	0.907088
	N273	N	0.182475	0.536779	0.081025
	N274	N	0.825076	0.462803	0.079662
	N275	N	0.821564	0.535489	0.905264
	O276	O	0.067814	0.043580	-0.037255
	H277	H	0.059254	0.046981	-0.039408
	H278	H	0.067270	0.048851	-0.038347
	O279	O	0.457781	0.457825	0.499426
	H280	H	0.461445	0.453166	0.495611
	H281	H	0.449956	0.452253	0.503626
	O282	O	0.423034	0.627398	0.490592
	H283	H	0.430902	0.611738	0.476185
	H284	H	0.415754	0.627387	0.495314
	O285	O	1.023973	-0.005193	1.045116
	H286	H	1.021022	-0.007010	1.045005
	H287	H	1.009823	-0.015947	1.040977
	O288	O	1.013530	0.036495	0.042847
	H289	H	1.013370	0.035285	0.034770
	H290	H	1.021981	0.037714	0.041671
	O291	O	0.548210	0.480538	0.573908
	H292	H	0.553527	0.481884	0.568786
	H293	H	0.553399	0.484941	0.576429
	O294	O	1.003697	0.010113	1.028328
	H295	H	1.011279	0.004850	1.027343
	H296	H	1.015302	0.007655	1.017383
	O297	O	-0.026261	0.027014	0.001769
	H298	H	-0.020531	0.031692	-0.003842
	H299	H	-0.026860	0.017970	0.009892
	O300	O	0.508313	0.477057	0.502396
	H301	H	0.513822	0.476491	0.504379
	H302	H	0.509054	0.480556	0.514996
	O303	O	0.516115	0.552016	0.413883
	H304	H	0.529363	0.553784	0.411089
	H305	H	0.508498	0.547931	0.418074
	O306	O	0.954333	0.018198	-0.032989
	H307	H	0.952960	0.010212	-0.042263
	H308	H	0.946541	0.023801	-0.034127
	O309	O	-0.101795	0.043177	0.936590
	H310	H	-0.103830	0.042672	0.935927
	H311	H	-0.108402	0.046975	0.928609
	O312	O	0.993746	1.005324	1.002981
	H313	H	0.994960	1.002552	1.016918
	H314	H	0.984256	1.015236	0.993908
	O315	O	0.426914	0.537039	0.420271
	H316	H	0.422772	0.536044	0.413092
	H317	H	0.416759	0.541761	0.429686
	O318	O	0.465978	0.463953	0.441540
	H319	H	0.459362	0.476856	0.445910
	H320	H	0.461907	0.470279	0.434547
	O321	O	0.492510	1.508568	1.632073
	H322	H	0.494917	1.500414	1.621187
	H323	H	0.488510	1.519123	1.632355
	O324	O	0.435734	0.461531	0.426632
	H325	H	0.428219	0.475941	0.423549
	H326	H	0.427102	0.468977	0.433541
	O327	O	0.477991	0.532418	0.425328
	H328	H	0.477421	0.536205	0.423073
	H329	H	0.472027	0.541167	0.423301
	O330	O	0.540343	0.577104	0.592253
	H331	H	0.538035	0.572101	0.597926
	H332	H	0.539882	0.578592	0.593039
	O333	O	0.575808	0.516340	0.521698
	H334	H	0.571046	0.520141	0.515360
	H335	H	0.583639	0.510638	0.517609
	O336	O	0.525179	0.446262	0.490157
	H337	H	0.537850	0.439085	0.488820
	H338	H	0.529456	0.460363	0.494227
	O339	O	0.939138	1.055136	-0.123050
	H340	H	0.936317	1.050861	-0.105759
	H341	H	0.940209	1.068207	-0.132891
	O342	O	0.477405	0.538346	0.420589
	H343	H	0.468610	0.533006	0.410359
	H344	H	0.495406	0.541977	0.425120
	O345	O	0.515736	0.540647	0.526739
	H346	H	0.518393	0.537512	0.520314
	H347	H	0.521854	0.540619	0.531673
	O348	O	-0.030523	0.021457	-0.034880
	H349	H	-0.025701	0.023088	-0.027587
	H350	H	-0.016467	0.008000	-0.030966
	O351	O	0.019547	1.048044	1.045533
	H352	H	0.026700	1.060031	1.049270
	H353	H	0.027583	1.049015	1.046231
	O354	O	0.551937	0.451450	0.430441
	H355	H	0.553593	0.454162	0.435145
	H356	H	0.542138	0.430866	0.416262
	O357	O	0.028185	0.971873	1.035039
	H358	H	0.035163	0.984112	1.027501
	H359	H	0.016703	0.978147	1.041263
