data_Molecule from HDF5

_cell_length_a		16.227699
_cell_length_b		16.250865
_cell_length_c		16.324236
_cell_angle_alpha	90.350402
_cell_angle_beta	90.224483
_cell_angle_gamma	89.996245
_symmetry_space_group_name_H-M	'P 1'
_symmetry_Int_Tables_number		1

loop_
	_symmetry_equiv_pos_as_xyz
	x,y,z

loop_
	_atom_site_label
	_atom_site_type_symbol
	_atom_site_fract_x
	_atom_site_fract_y
	_atom_site_fract_z
	H0	H	0.388819	0.837843	0.713927
	H1	H	0.588461	0.164622	0.715991
	H2	H	0.587698	0.838740	0.283728
	H3	H	0.386681	0.165070	0.284297
	H4	H	0.701815	0.401586	0.835928
	H5	H	0.704169	0.600830	0.162893
	H6	H	0.272052	0.599450	0.836843
	H7	H	0.273893	0.402916	0.164386
	H8	H	0.823594	0.712554	0.403469
	H9	H	0.152866	0.716088	0.601672
	H10	H	0.823431	0.288488	0.595709
	H11	H	0.153021	0.285818	0.402157
	H12	H	0.823943	0.401487	0.713511
	H13	H	0.151837	0.601168	0.717199
	H14	H	0.824789	0.599208	0.285591
	H15	H	0.152387	0.398612	0.284421
	H16	H	0.388233	0.715534	0.836486
	H17	H	0.588560	0.717114	0.162430
	H18	H	0.587417	0.284574	0.837038
	H19	H	0.390535	0.286584	0.164159
	H20	H	0.701376	0.837544	0.400781
	H21	H	0.701495	0.165245	0.599217
	H22	H	0.274474	0.837444	0.597205
	H23	H	0.272712	0.165739	0.402234
	H24	H	0.890836	0.336200	0.212742
	H25	H	0.089452	0.663885	0.217911
	H26	H	0.089225	0.337659	0.783101
	H27	H	0.887363	0.664538	0.785147
	H28	H	0.202875	0.900593	0.336648
	H29	H	0.202336	0.100190	0.664169
	H30	H	0.773380	0.097626	0.336513
	H31	H	0.774372	0.904486	0.664228
	H32	H	0.326049	0.214898	0.902144
	H33	H	0.654216	0.215069	0.099867
	H34	H	0.325670	0.786945	0.096786
	H35	H	0.653313	0.785921	0.901457
	H36	H	0.325611	0.901831	0.213537
	H37	H	0.652660	0.101491	0.216877
	H38	H	0.326019	0.100381	0.785857
	H39	H	0.652187	0.899240	0.783000
	H40	H	0.888576	0.214748	0.336178
	H41	H	0.086707	0.216645	0.663300
	H42	H	0.086178	0.783854	0.336875
	H43	H	0.889815	0.786753	0.663983
	H44	H	0.202973	0.336761	0.901360
	H45	H	0.204250	0.664869	0.101459
	H46	H	0.775437	0.336401	0.096884
	H47	H	0.774217	0.664885	0.903685
	H48	H	0.396483	0.119432	0.596388
	H49	H	0.587392	0.881954	0.593641
	H50	H	0.579665	0.118442	0.410635
	H51	H	0.407624	0.891149	0.412228
	H52	H	0.592867	0.410912	0.118607
	H53	H	0.578137	0.596154	0.883245
	H54	H	0.402009	0.595310	0.114307
	H55	H	0.403394	0.420075	0.891116
	H56	H	0.106544	0.597716	0.410460
	H57	H	0.870742	0.595421	0.594319
	H58	H	0.103764	0.413790	0.592563
	H59	H	0.872401	0.406563	0.410235
	H60	H	0.106063	0.407600	0.596100
	H61	H	0.872901	0.593316	0.591027
	H62	H	0.102719	0.588476	0.413880
	H63	H	0.873240	0.412951	0.404014
	H64	H	0.394559	0.597817	0.118001
	H65	H	0.586585	0.594936	0.881340
	H66	H	0.577003	0.417444	0.111690
	H67	H	0.403403	0.392943	0.883742
	H68	H	0.581199	0.118634	0.407629
	H69	H	0.575388	0.885238	0.596932
	H70	H	0.397884	0.118167	0.592409
	H71	H	0.383517	0.884282	0.413190
	H72	H	0.894437	0.620063	0.099887
	H73	H	0.082794	0.382847	0.096654
	H74	H	0.078476	0.613229	0.918619
	H75	H	0.896745	0.384527	0.907526
	H76	H	0.083927	0.913494	0.615703
	H77	H	0.078549	0.099607	0.382775
	H78	H	0.893121	0.103310	0.618679
	H79	H	0.900833	0.906440	0.385857
	H80	H	0.607296	0.094441	0.908628
	H81	H	0.372978	0.095798	0.090296
	H82	H	0.605448	0.913104	0.094417
	H83	H	0.369416	0.905316	0.899072
	H84	H	0.608264	0.907534	0.096767
	H85	H	0.373971	0.091331	0.092423
	H86	H	0.606378	0.090730	0.908117
	H87	H	0.373531	0.903779	0.912638
	H88	H	0.889535	0.090281	0.616969
	H89	H	0.086659	0.090575	0.382851
	H90	H	0.076315	0.908578	0.614623
	H91	H	0.891831	0.899841	0.382357
	H92	H	0.090087	0.621300	0.905987
	H93	H	0.079003	0.386446	0.091936
	H94	H	0.902259	0.615955	0.094785
	H95	H	0.894415	0.384095	0.905630
	H96	H	0.393396	0.117904	0.593129
	H97	H	0.579385	0.886429	0.585487
	H98	H	0.578871	0.117663	0.407456
	H99	H	0.397017	0.881914	0.392193
	H100	H	0.577511	0.400373	0.117932
	H101	H	0.581575	0.588241	0.885490
	H102	H	0.395180	0.589973	0.114290
	H103	H	0.379888	0.408343	0.880346
	H104	H	0.105580	0.590032	0.403457
	H105	H	0.871945	0.590746	0.594365
	H106	H	0.103853	0.407154	0.589213
	H107	H	0.870438	0.404715	0.402214
	H108	H	0.893025	0.616473	0.090007
	H109	H	0.085341	0.383595	0.090135
	H110	H	0.071927	0.616466	0.901720
	H111	H	0.897767	0.383956	0.904454
	H112	H	0.083942	0.904483	0.617425
	H113	H	0.075184	0.089248	0.386839
	H114	H	0.902635	0.094399	0.613907
	H115	H	0.890059	0.910631	0.384401
	H116	H	0.607783	0.093022	0.905635
	H117	H	0.371493	0.094334	0.095423
	H118	H	0.606150	0.907837	0.090481
	H119	H	0.374556	0.916356	0.906034
	C120	C	0.367034	0.009970	0.621714
	C121	C	0.609724	0.992843	0.621561
	C122	C	0.608816	0.009987	0.379215
	C123	C	0.366093	0.993601	0.377423
	C124	C	0.610668	0.379643	0.008180
	C125	C	0.610789	0.622350	0.991124
	C126	C	0.367272	0.622997	0.007890
	C127	C	0.367103	0.379123	0.992964
	C128	C	-0.003135	0.620607	0.380040
	C129	C	0.980004	0.622419	0.622591
	C130	C	-0.003887	0.380320	0.620874
	C131	C	0.980484	0.378490	0.377516
	C132	C	0.867814	0.508744	0.122013
	C133	C	0.111375	0.492369	0.122838
	C134	C	0.109623	0.509245	0.879072
	C135	C	0.867196	0.492466	0.878004
	C136	C	0.110004	0.878957	0.508196
	C137	C	0.109214	0.122358	0.492035
	C138	C	0.866209	0.123279	0.508367
	C139	C	0.865973	0.878216	0.492144
	C140	C	0.498388	0.121674	0.879382
	C141	C	0.481070	0.122949	0.121995
	C142	C	0.498032	0.880748	0.120987
	C143	C	0.480512	0.878713	0.877111
	C144	C	0.369131	0.886751	0.676137
	C145	C	0.608484	0.115599	0.678020
	C146	C	0.607087	0.887117	0.322467
	C147	C	0.366903	0.116406	0.322344
	C148	C	0.665295	0.380920	0.885207
	C149	C	0.666385	0.620833	0.114015
	C150	C	0.310724	0.619700	0.885462
	C151	C	0.311965	0.382404	0.115543
	C152	C	0.872981	0.675316	0.382406
	C153	C	0.103411	0.678368	0.621328
	C154	C	0.872536	0.325828	0.616936
	C155	C	0.103757	0.322953	0.380988
	C156	C	0.872947	0.382003	0.675706
	C157	C	0.103201	0.621255	0.678783
	C158	C	0.873533	0.618863	0.323902
	C159	C	0.103684	0.379359	0.322930
	C160	C	0.368889	0.677156	0.884940
	C161	C	0.608945	0.678879	0.113871
	C162	C	0.607709	0.323355	0.885440
	C163	C	0.369867	0.324467	0.115461
	C164	C	0.664112	0.886752	0.380434
	C165	C	0.664584	0.116162	0.619742
	C166	C	0.312381	0.886507	0.617907
	C167	C	0.310374	0.116652	0.381088
	C168	C	0.870556	0.385205	0.175221
	C169	C	0.109540	0.615278	0.179614
	C170	C	0.108478	0.386339	0.822079
	C171	C	0.868182	0.615774	0.823272
	C172	C	0.164963	0.880265	0.385552
	C173	C	0.164871	0.120704	0.614938
	C174	C	0.810769	0.119598	0.385312
	C175	C	0.811540	0.882708	0.615330
	C176	C	0.374947	0.177036	0.881961
	C177	C	0.604833	0.177867	0.120513
	C178	C	0.374519	0.825012	0.117673
	C179	C	0.604119	0.823165	0.880102
	C180	C	0.374424	0.882198	0.175483
	C181	C	0.604028	0.121315	0.178648
	C182	C	0.374947	0.120207	0.823949
	C183	C	0.603452	0.879428	0.821342
	C184	C	0.868011	0.177609	0.385244
	C185	C	0.107162	0.178570	0.614875
	C186	C	0.106994	0.822446	0.385594
	C187	C	0.868928	0.824196	0.615194
	C188	C	0.165147	0.385848	0.880756
	C189	C	0.166452	0.615847	0.121640
	C190	C	0.812895	0.385615	0.117948
	C191	C	0.812075	0.616133	0.881911
	C192	C	0.389255	0.096120	0.600419
	C193	C	0.587207	0.906647	0.598748
	C194	C	0.586343	0.095916	0.402017
	C195	C	0.389218	0.907806	0.399384
	C196	C	0.588795	0.402755	0.093883
	C197	C	0.588446	0.599736	0.905532
	C198	C	0.390508	0.601007	0.093285
	C199	C	0.388982	0.400837	0.906987
	C200	C	0.082651	0.598544	0.402483
	C201	C	0.894043	0.599907	0.599835
	C202	C	0.082382	0.402954	0.599081
	C203	C	0.894335	0.401225	0.399021
	C204	C	0.890094	0.595241	0.101168
	C205	C	0.088933	0.406693	0.099745
	C206	C	0.086883	0.594722	0.901970
	C207	C	0.889668	0.406557	0.899502
	C208	C	0.087842	0.902123	0.593508
	C209	C	0.086654	0.099793	0.406368
	C210	C	0.888427	0.102154	0.594126
	C211	C	0.887610	0.899525	0.406470
	C212	C	0.584790	0.099390	0.901134
	C213	C	0.395067	0.100459	0.099288
	C214	C	0.584277	0.903002	0.099968
	C215	C	0.394755	0.901652	0.899498
	Zn216	Zn	0.489299	0.001079	0.749880
	Zn217	Zn	0.488505	0.002160	0.249859
	Zn218	Zn	0.739674	0.500579	-0.000045
	Zn219	Zn	0.238325	0.501231	0.000734
	Zn220	Zn	-0.011561	0.749824	0.500595
	Zn221	Zn	-0.011899	0.251524	0.499681
	Zn222	Zn	-0.011864	0.500872	0.750072
	Zn223	Zn	-0.010900	0.499954	0.250521
	Zn224	Zn	0.489268	0.751462	-0.000545
	Zn225	Zn	0.490027	0.250448	0.000894
	Zn226	Zn	0.737561	0.001539	0.500447
	Zn227	Zn	0.238477	0.001385	0.500462
	N228	N	0.402523	0.964579	0.678445
	N229	N	0.574947	0.037862	0.678884
	N230	N	0.573355	0.964866	0.321673
	N231	N	0.400942	0.038863	0.320097
	N232	N	0.667088	0.415383	0.962544
	N233	N	0.667756	0.586624	0.036791
	N234	N	0.309593	0.586765	0.963017
	N235	N	0.310346	0.415577	0.038195
	N236	N	0.950455	0.676666	0.416593
	N237	N	0.025651	0.679183	0.586868
	N238	N	0.950206	0.324770	0.583580
	N239	N	0.026097	0.322524	0.414516
	N240	N	0.951044	0.415276	0.678219
	N241	N	0.025623	0.587303	0.679848
	N242	N	0.951589	0.585523	0.322190
	N243	N	0.026029	0.413241	0.320629
	N244	N	0.403165	0.679493	0.962081
	N245	N	0.575070	0.679880	0.036547
	N246	N	0.574661	0.322313	0.962993
	N247	N	0.403306	0.322211	0.038142
	N248	N	0.664898	0.963966	0.415241
	N249	N	0.665560	0.038614	0.585353
	N250	N	0.311040	0.963968	0.584645
	N251	N	0.309761	0.039180	0.414693
	N252	N	0.904025	0.462987	0.177790
	N253	N	0.076333	0.537347	0.180765
	N254	N	0.074580	0.463925	0.820992
	N255	N	0.901794	0.537930	0.820821
	N256	N	0.167080	0.914530	0.462732
	N257	N	0.166012	0.086340	0.537762
	N258	N	0.809688	0.086438	0.462646
	N259	N	0.809574	0.915663	0.537806
	N260	N	0.452834	0.178061	0.915775
	N261	N	0.527354	0.179066	0.086279
	N262	N	0.452361	0.824051	0.084369
	N263	N	0.526638	0.822473	0.913961
	N264	N	0.452126	0.916047	0.177806
	N265	N	0.526120	0.087784	0.179579
	N266	N	0.452504	0.086261	0.822346
	N267	N	0.525769	0.913196	0.819389
	N268	N	0.901676	0.180212	0.462762
	N269	N	0.073206	0.179678	0.537463
	N270	N	0.073374	0.821782	0.462869
	N271	N	0.901918	0.821263	0.537807
	N272	N	0.165973	0.463106	0.915713
	N273	N	0.167593	0.538679	0.086906
	N274	N	0.811369	0.463466	0.085337
	N275	N	0.811434	0.538677	0.915357
	O276	O	0.572138	0.532871	0.509172
	H277	H	0.576402	0.524767	0.507782
	H278	H	0.580214	0.534492	0.512485
	O279	O	0.564407	0.548777	0.593113
	H280	H	0.565046	0.544612	0.593458
	H281	H	0.560117	0.542225	0.609488
	O282	O	0.544192	0.410093	0.428967
	H283	H	0.542955	0.423395	0.432117
	H284	H	0.555910	0.403946	0.424957
	O285	O	0.092460	1.008606	1.002908
	H286	H	0.094983	1.009997	1.001050
	H287	H	0.096161	1.017152	1.007399
	O288	O	0.487053	0.459731	0.507761
	H289	H	0.480309	0.470295	0.508721
	H290	H	0.479539	0.465351	0.517212
	O291	O	0.504895	0.575998	1.547213
	H292	H	0.500638	0.581929	1.551552
	H293	H	0.509367	0.575659	1.558468
	O294	O	0.548543	0.482536	0.436979
	H295	H	0.544884	0.498476	0.450009
	H296	H	0.542241	0.480170	0.434378
	O297	O	0.463099	0.562195	0.530614
	H298	H	0.461001	0.558292	0.527362
	H299	H	0.473564	0.565488	0.526796
	O300	O	0.487238	0.566968	0.474858
	H301	H	0.484348	0.572164	0.473786
	H302	H	0.489588	0.575704	0.489136
	O303	O	0.488924	0.445252	0.464671
	H304	H	0.499723	0.448635	0.456940
	H305	H	0.490377	0.437474	0.456143
	O306	O	1.065585	0.000211	0.959924
	H307	H	1.062993	-0.007059	0.955029
	H308	H	1.075846	0.001166	0.952452
	O309	O	0.446116	0.526799	0.537017
	H310	H	0.442557	0.530789	0.538981
	H311	H	0.439253	0.521298	0.535880
	O312	O	0.435887	0.545343	0.485250
	H313	H	0.437779	0.545413	0.473643
	H314	H	0.435266	0.554911	0.484529
	O315	O	1.074880	-0.020043	0.997505
	H316	H	1.070668	-0.013107	1.010122
	H317	H	1.072126	-0.025127	0.994908
	O318	O	0.538833	-0.507563	-0.485493
	H319	H	0.531137	-0.509891	-0.497352
	H320	H	0.537435	-0.509909	-0.490439
	O321	O	0.417206	0.505911	0.442356
	H322	H	0.412750	0.512507	0.439583
	H323	H	0.418224	0.497235	0.448836
	O324	O	1.057390	-0.011567	-0.022309
	H325	H	1.069266	-0.000821	-0.013622
	H326	H	1.058432	-0.021373	-0.035702
	O327	O	1.091079	1.006681	-0.025994
	H328	H	1.093694	1.006419	-0.028624
	H329	H	1.093478	0.999415	-0.019423
	O330	O	0.449434	0.513450	0.384206
	H331	H	0.460997	0.518287	0.381052
	H332	H	0.446060	0.517732	0.377036
	O333	O	0.454046	0.575692	0.461603
	H334	H	0.451091	0.561523	0.451819
	H335	H	0.449634	0.584932	0.459968
