data_Molecule from HDF5

_cell_length_a		16.375434
_cell_length_b		16.240659
_cell_length_c		16.261682
_cell_angle_alpha	89.979328
_cell_angle_beta	90.009041
_cell_angle_gamma	89.947910
_symmetry_space_group_name_H-M	'P 1'
_symmetry_Int_Tables_number		1

loop_
	_symmetry_equiv_pos_as_xyz
	x,y,z

loop_
	_atom_site_label
	_atom_site_type_symbol
	_atom_site_fract_x
	_atom_site_fract_y
	_atom_site_fract_z
	H0	H	0.406975	0.840995	0.715311
	H1	H	0.600522	0.169923	0.714859
	H2	H	0.601922	0.841431	0.289020
	H3	H	0.408133	0.170741	0.289220
	H4	H	0.720281	0.405839	0.838495
	H5	H	0.720886	0.605535	0.164974
	H6	H	0.289844	0.603782	0.838562
	H7	H	0.290044	0.405581	0.165474
	H8	H	0.841277	0.720653	0.403615
	H9	H	0.167646	0.720333	0.600365
	H10	H	0.841116	0.292103	0.601245
	H11	H	0.167195	0.291170	0.404860
	H12	H	0.841853	0.408093	0.717697
	H13	H	0.168265	0.602432	0.716206
	H14	H	0.841913	0.605083	0.286669
	H15	H	0.167288	0.406296	0.286835
	H16	H	0.406594	0.718550	0.837765
	H17	H	0.602589	0.718397	0.166107
	H18	H	0.602345	0.291628	0.838223
	H19	H	0.408273	0.292165	0.166655
	H20	H	0.720275	0.842632	0.402069
	H21	H	0.718611	0.169466	0.600715
	H22	H	0.288510	0.842369	0.601766
	H23	H	0.288477	0.169440	0.401189
	H24	H	0.908455	0.341095	0.214718
	H25	H	0.101214	0.670625	0.214345
	H26	H	0.101964	0.340629	0.789095
	H27	H	0.907562	0.669898	0.789428
	H28	H	0.219593	0.906997	0.338521
	H29	H	0.219556	0.104742	0.664764
	H30	H	0.789017	0.105314	0.338366
	H31	H	0.790005	0.907277	0.665666
	H32	H	0.341175	0.219245	0.904634
	H33	H	0.667652	0.219299	0.100404
	H34	H	0.342025	0.790196	0.099903
	H35	H	0.668243	0.791183	0.904447
	H36	H	0.341390	0.907708	0.216308
	H37	H	0.667394	0.103096	0.216714
	H38	H	0.342066	0.103739	0.786532
	H39	H	0.668006	0.907432	0.787542
	H40	H	0.907143	0.219634	0.337786
	H41	H	0.100511	0.217204	0.666554
	H42	H	0.102455	0.791626	0.337483
	H43	H	0.907262	0.792006	0.665241
	H44	H	0.219041	0.341366	0.904171
	H45	H	0.219697	0.669657	0.100711
	H46	H	0.789761	0.342289	0.102560
	H47	H	0.789830	0.668565	0.902666
	H48	H	0.408771	0.124249	0.599822
	H49	H	0.599022	0.887852	0.595289
	H50	H	0.598332	0.120894	0.415618
	H51	H	0.412797	0.891784	0.415363
	H52	H	0.602545	0.413337	0.119596
	H53	H	0.599969	0.592585	0.886819
	H54	H	0.411353	0.589556	0.116565
	H55	H	0.413588	0.412106	0.886532
	H56	H	0.117462	0.593068	0.410436
	H57	H	0.888562	0.597189	0.600474
	H58	H	0.120806	0.417443	0.603112
	H59	H	0.888111	0.411010	0.409733
	H60	H	0.122639	0.403168	0.596074
	H61	H	0.887411	0.603979	0.596034
	H62	H	0.122193	0.599534	0.403494
	H63	H	0.889873	0.415260	0.410537
	H64	H	0.418822	0.600960	0.117482
	H65	H	0.593553	0.598729	0.885832
	H66	H	0.596784	0.416079	0.117133
	H67	H	0.409984	0.409671	0.884517
	H68	H	0.602203	0.124814	0.405902
	H69	H	0.597845	0.888906	0.594281
	H70	H	0.418188	0.120138	0.593772
	H71	H	0.406002	0.887631	0.409050
	H72	H	0.914297	0.623216	0.100118
	H73	H	0.100387	0.387159	0.099230
	H74	H	0.096983	0.621221	0.909434
	H75	H	0.906576	0.383670	0.900592
	H76	H	0.104619	0.918386	0.618626
	H77	H	0.100929	0.098987	0.383487
	H78	H	0.905637	0.092447	0.618856
	H79	H	0.910080	0.911438	0.383697
	H80	H	0.620194	0.093320	0.905519
	H81	H	0.385600	0.105739	0.099798
	H82	H	0.619914	0.915100	0.096890
	H83	H	0.388329	0.912681	0.905334
	H84	H	0.622252	0.908002	0.098732
	H85	H	0.390805	0.100537	0.087418
	H86	H	0.623230	0.103702	0.904173
	H87	H	0.388331	0.908704	0.909844
	H88	H	0.917338	0.099239	0.616462
	H89	H	0.095661	0.094745	0.386907
	H90	H	0.089515	0.917770	0.614473
	H91	H	0.909707	0.916087	0.385555
	H92	H	0.099154	0.622415	0.910712
	H93	H	0.094030	0.390413	0.094685
	H94	H	0.914902	0.620169	0.088670
	H95	H	0.923540	0.391641	0.909179
	H96	H	0.407709	0.120679	0.588023
	H97	H	0.599137	0.888710	0.593383
	H98	H	0.591538	0.121722	0.406601
	H99	H	0.414927	0.888911	0.405986
	H100	H	0.596864	0.409214	0.118752
	H101	H	0.602021	0.601129	0.883017
	H102	H	0.405686	0.600539	0.121364
	H103	H	0.409603	0.414070	0.885488
	H104	H	0.119701	0.602962	0.413812
	H105	H	0.890601	0.597432	0.592697
	H106	H	0.116808	0.415598	0.587777
	H107	H	0.888371	0.413852	0.406263
	H108	H	0.904616	0.623796	0.092874
	H109	H	0.101666	0.388813	0.091212
	H110	H	0.099079	0.622721	0.908752
	H111	H	0.905571	0.389666	0.920663
	H112	H	0.096407	0.905026	0.620090
	H113	H	0.094096	0.102154	0.385101
	H114	H	0.906888	0.106210	0.621660
	H115	H	0.914488	0.913569	0.385874
	H116	H	0.619563	0.100417	0.913408
	H117	H	0.389319	0.091334	0.098807
	H118	H	0.619581	0.909715	0.091600
	H119	H	0.390714	0.914087	0.910488
	C120	C	0.383019	0.013540	0.622951
	C121	C	0.626097	0.997003	0.622807
	C122	C	0.626031	0.014168	0.380745
	C123	C	0.382715	0.998053	0.380688
	C124	C	0.627334	0.383775	0.010394
	C125	C	0.626642	0.626131	0.993404
	C126	C	0.383633	0.625778	0.010244
	C127	C	0.383357	0.383486	0.993875
	C128	C	0.012219	0.627345	0.380618
	C129	C	0.996674	0.627779	0.624462
	C130	C	0.012569	0.383859	0.624155
	C131	C	0.996153	0.384338	0.380676
	C132	C	0.883027	0.513972	0.123271
	C133	C	0.126635	0.497422	0.123370
	C134	C	0.126607	0.513452	0.881101
	C135	C	0.883710	0.496841	0.881373
	C136	C	0.125792	0.884333	0.509820
	C137	C	0.125307	0.127086	0.493479
	C138	C	0.882186	0.127739	0.510518
	C139	C	0.883394	0.885115	0.493261
	C140	C	0.512953	0.127346	0.879960
	C141	C	0.496251	0.127130	0.123647
	C142	C	0.512872	0.882668	0.124336
	C143	C	0.496754	0.883416	0.880214
	C144	C	0.386133	0.890076	0.677728
	C145	C	0.622277	0.120572	0.677820
	C146	C	0.623299	0.890674	0.326075
	C147	C	0.386224	0.121297	0.325819
	C148	C	0.682169	0.385755	0.887198
	C149	C	0.682343	0.624772	0.116543
	C150	C	0.327927	0.624051	0.887071
	C151	C	0.328159	0.385300	0.116885
	C152	C	0.889978	0.682696	0.383097
	C153	C	0.119173	0.682384	0.621043
	C154	C	0.889825	0.329518	0.621798
	C155	C	0.118775	0.328914	0.383673
	C156	C	0.890199	0.387216	0.679463
	C157	C	0.119382	0.624154	0.678957
	C158	C	0.890200	0.625372	0.324859
	C159	C	0.118783	0.386108	0.325137
	C160	C	0.386196	0.680695	0.886677
	C161	C	0.623610	0.681088	0.117010
	C162	C	0.623903	0.328812	0.887117
	C163	C	0.387043	0.329096	0.117427
	C164	C	0.681760	0.891181	0.382756
	C165	C	0.680583	0.120620	0.621038
	C166	C	0.327033	0.890895	0.621510
	C167	C	0.327188	0.120914	0.381963
	C168	C	0.886623	0.390687	0.178286
	C169	C	0.122949	0.621269	0.177531
	C170	C	0.123206	0.389719	0.826518
	C171	C	0.886544	0.620446	0.826455
	C172	C	0.181522	0.886453	0.387106
	C173	C	0.181329	0.125116	0.616179
	C174	C	0.827196	0.125761	0.387072
	C175	C	0.828630	0.887439	0.616841
	C176	C	0.389973	0.181770	0.883227
	C177	C	0.619040	0.181394	0.120604
	C178	C	0.390542	0.827789	0.121412
	C179	C	0.619599	0.828865	0.883442
	C180	C	0.390165	0.886364	0.178984
	C181	C	0.618882	0.124196	0.178841
	C182	C	0.390343	0.124531	0.824598
	C183	C	0.619437	0.886549	0.825366
	C184	C	0.885499	0.182543	0.387039
	C185	C	0.122275	0.180897	0.617163
	C186	C	0.123078	0.829625	0.386459
	C187	C	0.886612	0.830164	0.616657
	C188	C	0.181425	0.390069	0.883469
	C189	C	0.181965	0.620571	0.121234
	C190	C	0.828180	0.390916	0.121990
	C191	C	0.828084	0.619882	0.882600
	C192	C	0.405156	0.099362	0.600407
	C193	C	0.604957	0.910894	0.600759
	C194	C	0.603746	0.100323	0.402808
	C195	C	0.404879	0.911792	0.403303
	C196	C	0.605460	0.406355	0.096388
	C197	C	0.604738	0.604157	0.907609
	C198	C	0.405587	0.603585	0.096116
	C199	C	0.404622	0.405426	0.907826
	C200	C	0.097687	0.605004	0.402794
	C201	C	0.910850	0.605983	0.602784
	C202	C	0.098035	0.405594	0.602054
	C203	C	0.910956	0.406697	0.402520
	C204	C	0.904894	0.600251	0.100479
	C205	C	0.104973	0.411008	0.101423
	C206	C	0.104872	0.599764	0.903191
	C207	C	0.905530	0.410647	0.903619
	C208	C	0.103362	0.907086	0.595600
	C209	C	0.103356	0.105113	0.407336
	C210	C	0.903592	0.105751	0.596664
	C211	C	0.904838	0.907322	0.407275
	C212	C	0.598689	0.105688	0.901398
	C213	C	0.410613	0.105461	0.101965
	C214	C	0.598549	0.904573	0.102375
	C215	C	0.411206	0.905364	0.902188
	Zn216	Zn	0.504572	0.005173	0.751387
	Zn217	Zn	0.504383	0.005708	0.252660
	Zn218	Zn	0.755374	0.505329	0.001894
	Zn219	Zn	0.254945	0.505252	0.002191
	Zn220	Zn	0.004473	0.756110	0.501526
	Zn221	Zn	0.004223	0.255269	0.502305
	Zn222	Zn	0.004902	0.505124	0.753164
	Zn223	Zn	0.004448	0.506151	0.251396
	Zn224	Zn	0.504942	0.753956	0.001615
	Zn225	Zn	0.505031	0.256041	0.002060
	Zn226	Zn	0.754495	0.005964	0.501566
	Zn227	Zn	0.254209	0.006124	0.501580
	N228	N	0.420024	0.967467	0.678916
	N229	N	0.588822	0.042844	0.678859
	N230	N	0.589109	0.968073	0.324927
	N231	N	0.420066	0.043568	0.324919
	N232	N	0.684245	0.419264	0.964865
	N233	N	0.684556	0.591459	0.038680
	N234	N	0.326167	0.590758	0.964940
	N235	N	0.325660	0.418320	0.038949
	N236	N	0.966877	0.684019	0.416906
	N237	N	0.041703	0.684740	0.587958
	N238	N	0.966983	0.327322	0.588077
	N239	N	0.041732	0.327555	0.417233
	N240	N	0.967405	0.420221	0.681028
	N241	N	0.042124	0.591050	0.681291
	N242	N	0.967344	0.591784	0.323211
	N243	N	0.041735	0.420287	0.323276
	N244	N	0.420042	0.682056	0.964198
	N245	N	0.589699	0.682032	0.039705
	N246	N	0.590335	0.327592	0.964598
	N247	N	0.420993	0.328240	0.039999
	N248	N	0.683557	0.969254	0.415655
	N249	N	0.683219	0.042914	0.587540
	N250	N	0.325280	0.968529	0.587852
	N251	N	0.325005	0.043051	0.415193
	N252	N	0.920362	0.468261	0.178871
	N253	N	0.089401	0.543541	0.179119
	N254	N	0.089653	0.467290	0.825261
	N255	N	0.920593	0.542789	0.825672
	N256	N	0.183244	0.919861	0.464763
	N257	N	0.183373	0.092462	0.538187
	N258	N	0.825227	0.092295	0.464868
	N259	N	0.826563	0.920879	0.538967
	N260	N	0.467192	0.183633	0.916812
	N261	N	0.541731	0.183371	0.087172
	N262	N	0.467821	0.825391	0.088237
	N263	N	0.542437	0.826952	0.916986
	N264	N	0.467410	0.919588	0.180985
	N265	N	0.541760	0.090871	0.180657
	N266	N	0.467689	0.091335	0.822566
	N267	N	0.541964	0.919418	0.823030
	N268	N	0.918840	0.183957	0.464741
	N269	N	0.087836	0.181866	0.540056
	N270	N	0.089280	0.828296	0.463884
	N271	N	0.919945	0.828626	0.539128
	N272	N	0.183560	0.468050	0.916657
	N273	N	0.184279	0.542475	0.088471
	N274	N	0.825932	0.468802	0.088663
	N275	N	0.826507	0.542230	0.916246
	O276	O	0.433733	-0.443844	0.419304
	H277	H	0.444946	-0.436765	0.429308
	H278	H	0.435604	-0.443546	0.422796
	O279	O	0.471650	0.546572	0.486733
	H280	H	0.470358	0.545846	0.494812
	H281	H	0.477568	0.536024	0.496608
	O282	O	0.465171	0.504979	0.457565
	H283	H	0.461148	0.506477	0.449773
	H284	H	0.454312	0.509992	0.444870
	O285	O	0.432605	0.505018	0.477199
	H286	H	0.424427	0.507451	0.458099
	H287	H	0.428822	0.505275	0.480904
