data_Molecule from HDF5

_cell_length_a		16.268703
_cell_length_b		16.260736
_cell_length_c		16.237717
_cell_angle_alpha	90.111604
_cell_angle_beta	90.094388
_cell_angle_gamma	89.803370
_symmetry_space_group_name_H-M	'P 1'
_symmetry_Int_Tables_number		1

loop_
	_symmetry_equiv_pos_as_xyz
	x,y,z

loop_
	_atom_site_label
	_atom_site_type_symbol
	_atom_site_fract_x
	_atom_site_fract_y
	_atom_site_fract_z
	H0	H	0.407412	0.839227	0.703825
	H1	H	0.603328	0.166014	0.703574
	H2	H	0.605055	0.839606	0.273228
	H3	H	0.405054	0.166404	0.275614
	H4	H	0.721827	0.402824	0.825111
	H5	H	0.720558	0.602361	0.153741
	H6	H	0.289704	0.602223	0.825545
	H7	H	0.292456	0.403927	0.152573
	H8	H	0.843606	0.718389	0.387178
	H9	H	0.170355	0.715097	0.586079
	H10	H	0.842807	0.286402	0.588502
	H11	H	0.169464	0.285326	0.389312
	H12	H	0.843198	0.402786	0.703307
	H13	H	0.169452	0.600780	0.703393
	H14	H	0.842619	0.600334	0.274670
	H15	H	0.170324	0.402272	0.274688
	H16	H	0.404953	0.717553	0.825374
	H17	H	0.604216	0.718141	0.153065
	H18	H	0.605128	0.287411	0.825100
	H19	H	0.407738	0.288985	0.152669
	H20	H	0.720681	0.838884	0.389450
	H21	H	0.721481	0.165461	0.590276
	H22	H	0.292357	0.837948	0.588722
	H23	H	0.289156	0.164912	0.390554
	H24	H	0.907534	0.338418	0.203650
	H25	H	0.105567	0.664713	0.205034
	H26	H	0.105683	0.338323	0.773352
	H27	H	0.905230	0.665613	0.773221
	H28	H	0.220350	0.902597	0.325415
	H29	H	0.220544	0.100290	0.653596
	H30	H	0.789556	0.102884	0.325703
	H31	H	0.793685	0.904317	0.653637
	H32	H	0.342280	0.218133	0.890204
	H33	H	0.669749	0.216812	0.089107
	H34	H	0.341063	0.789614	0.087272
	H35	H	0.667751	0.785794	0.889672
	H36	H	0.341479	0.905795	0.203116
	H37	H	0.668532	0.101943	0.204789
	H38	H	0.341235	0.100872	0.775334
	H39	H	0.669057	0.902172	0.774771
	H40	H	0.906361	0.216605	0.325167
	H41	H	0.105874	0.217233	0.652555
	H42	H	0.105718	0.786948	0.325368
	H43	H	0.909206	0.788403	0.652810
	H44	H	0.221768	0.338469	0.889462
	H45	H	0.218930	0.666015	0.087426
	H46	H	0.792487	0.338409	0.088138
	H47	H	0.790524	0.665587	0.890402
	H48	H	0.412615	0.118526	0.580959
	H49	H	0.596131	0.887855	0.579451
	H50	H	0.605697	0.118082	0.407406
	H51	H	0.406160	0.882737	0.396720
	H52	H	0.606237	0.399660	0.110718
	H53	H	0.593209	0.603728	0.871207
	H54	H	0.408915	0.595094	0.106536
	H55	H	0.414255	0.405791	0.870392
	H56	H	0.121480	0.583842	0.392235
	H57	H	0.891555	0.593154	0.575524
	H58	H	0.121072	0.412645	0.578405
	H59	H	0.891307	0.413521	0.397840
	H60	H	0.123782	0.409361	0.584619
	H61	H	0.888716	0.592256	0.586363
	H62	H	0.127951	0.602270	0.388209
	H63	H	0.887617	0.408047	0.390841
	H64	H	0.415029	0.593642	0.104931
	H65	H	0.609104	0.592794	0.870450
	H66	H	0.605748	0.421345	0.104506
	H67	H	0.409706	0.413671	0.871333
	H68	H	0.604182	0.124652	0.385699
	H69	H	0.604230	0.884214	0.579516
	H70	H	0.412743	0.118547	0.581111
	H71	H	0.416189	0.884095	0.388672
	H72	H	0.912406	0.619253	0.081837
	H73	H	0.087057	0.390671	0.075025
	H74	H	0.098474	0.618792	0.893914
	H75	H	0.924930	0.386810	0.889281
	H76	H	0.097996	0.919813	0.602290
	H77	H	0.099210	0.098422	0.371013
	H78	H	0.913014	0.091530	0.605209
	H79	H	0.902116	0.907152	0.368506
	H80	H	0.622137	0.096921	0.896937
	H81	H	0.389809	0.101675	0.073027
	H82	H	0.621044	0.908329	0.078542
	H83	H	0.387956	0.911859	0.891371
	H84	H	0.619668	0.913636	0.080771
	H85	H	0.391656	0.087830	0.083414
	H86	H	0.621553	0.093931	0.897116
	H87	H	0.388029	0.905952	0.896664
	H88	H	0.917105	0.095088	0.604797
	H89	H	0.102477	0.089566	0.372888
	H90	H	0.090831	0.899350	0.606949
	H91	H	0.915371	0.920849	0.375156
	H92	H	0.097023	0.618433	0.896258
	H93	H	0.113097	0.383405	0.073887
	H94	H	0.914022	0.619320	0.082846
	H95	H	0.914794	0.389331	0.907821
	H96	H	0.411858	0.118739	0.581073
	H97	H	0.599177	0.884582	0.585818
	H98	H	0.586576	0.115979	0.396415
	H99	H	0.417604	0.888814	0.401593
	H100	H	0.587942	0.408109	0.102632
	H101	H	0.592985	0.585275	0.877746
	H102	H	0.413649	0.599488	0.107515
	H103	H	0.418667	0.412657	0.874516
	H104	H	0.121741	0.597057	0.406583
	H105	H	0.887403	0.602181	0.580885
	H106	H	0.123551	0.405507	0.578562
	H107	H	0.890245	0.404357	0.399067
	H108	H	0.913417	0.618275	0.081323
	H109	H	0.099426	0.380025	0.096590
	H110	H	0.100483	0.618437	0.896835
	H111	H	0.904315	0.381139	0.890890
	H112	H	0.111859	0.904020	0.610655
	H113	H	0.093707	0.091975	0.374298
	H114	H	0.912273	0.096577	0.606703
	H115	H	0.921609	0.901586	0.371858
	H116	H	0.622476	0.095350	0.893852
	H117	H	0.384880	0.102858	0.089358
	H118	H	0.623067	0.909888	0.084159
	H119	H	0.389793	0.913319	0.899257
	C120	C	0.383915	0.010561	0.610345
	C121	C	0.628200	0.993466	0.611406
	C122	C	0.627371	0.011558	0.367757
	C123	C	0.383874	0.993325	0.367920
	C124	C	0.629000	0.380332	-0.002628
	C125	C	0.627406	0.623711	0.981233
	C126	C	0.383835	0.624287	-0.002263
	C127	C	0.385359	0.381844	0.980492
	C128	C	0.015208	0.623178	0.366689
	C129	C	0.997823	0.623778	0.609455
	C130	C	0.014730	0.380475	0.609461
	C131	C	0.997770	0.379587	0.366961
	C132	C	0.884947	0.510626	0.110677
	C133	C	0.127939	0.493091	0.110732
	C134	C	0.127843	0.510474	0.866743
	C135	C	0.884853	0.493641	0.867089
	C136	C	0.128453	0.879446	0.498034
	C137	C	0.127590	0.122840	0.481006
	C138	C	0.884586	0.123667	0.497485
	C139	C	0.885018	0.880966	0.480317
	C140	C	0.514044	0.124348	0.867237
	C141	C	0.497172	0.125308	0.111089
	C142	C	0.513449	0.881897	0.110345
	C143	C	0.496545	0.880703	0.867023
	C144	C	0.386755	0.887622	0.665808
	C145	C	0.624739	0.116857	0.666760
	C146	C	0.625372	0.888214	0.311595
	C147	C	0.384793	0.117069	0.312820
	C148	C	0.684274	0.382236	0.874216
	C149	C	0.682610	0.622161	0.104568
	C150	C	0.327822	0.622461	0.874416
	C151	C	0.330318	0.384149	0.103768
	C152	C	0.892313	0.679752	0.367684
	C153	C	0.121311	0.677800	0.607174
	C154	C	0.891819	0.324824	0.608051
	C155	C	0.120826	0.323625	0.369059
	C156	C	0.891968	0.382463	0.665255
	C157	C	0.120754	0.620628	0.664931
	C158	C	0.891719	0.620809	0.311852
	C159	C	0.121170	0.381684	0.312148
	C160	C	0.385394	0.679601	0.874254
	C161	C	0.625137	0.680073	0.104008
	C162	C	0.626239	0.325186	0.874102
	C163	C	0.387672	0.326819	0.103686
	C164	C	0.682983	0.887933	0.369145
	C165	C	0.683081	0.116841	0.609966
	C166	C	0.329775	0.887157	0.608420
	C167	C	0.326951	0.116343	0.369903
	C168	C	0.887589	0.387201	0.165562
	C169	C	0.124834	0.616168	0.166235
	C170	C	0.125969	0.387318	0.811206
	C171	C	0.885645	0.616768	0.811461
	C172	C	0.183230	0.881635	0.374416
	C173	C	0.182797	0.120683	0.604343
	C174	C	0.827964	0.122412	0.374675
	C175	C	0.830459	0.883223	0.604028
	C176	C	0.391013	0.180289	0.869388
	C177	C	0.620573	0.179207	0.108670
	C178	C	0.390238	0.827080	0.107862
	C179	C	0.619412	0.824242	0.869370
	C180	C	0.390254	0.884959	0.165447
	C181	C	0.620070	0.122247	0.166642
	C182	C	0.390479	0.121830	0.812575
	C183	C	0.619822	0.882242	0.812330
	C184	C	0.886175	0.178959	0.374160
	C185	C	0.125910	0.178833	0.603900
	C186	C	0.125779	0.824838	0.374230
	C187	C	0.888356	0.825918	0.603729
	C188	C	0.183831	0.387440	0.868754
	C189	C	0.181613	0.616763	0.108181
	C190	C	0.830501	0.387243	0.108128
	C191	C	0.828556	0.616784	0.869472
	C192	C	0.405826	0.096469	0.587760
	C193	C	0.606308	0.907642	0.588211
	C194	C	0.605347	0.097352	0.390129
	C195	C	0.406623	0.907446	0.389427
	C196	C	0.606590	0.403071	0.083570
	C197	C	0.605103	0.600732	0.895314
	C198	C	0.405977	0.602499	0.083923
	C199	C	0.407673	0.404280	0.894363
	C200	C	0.101130	0.600903	0.389039
	C201	C	0.911482	0.602358	0.587281
	C202	C	0.100515	0.402622	0.587077
	C203	C	0.911941	0.402284	0.389338
	C204	C	0.906872	0.596673	0.088617
	C205	C	0.106449	0.406989	0.088394
	C206	C	0.105314	0.596475	0.889108
	C207	C	0.907800	0.407964	0.889378
	C208	C	0.106514	0.901283	0.584248
	C209	C	0.105118	0.099983	0.394794
	C210	C	0.907386	0.100940	0.583294
	C211	C	0.906544	0.903250	0.394162
	C212	C	0.599776	0.101973	0.889385
	C213	C	0.410914	0.103839	0.088643
	C214	C	0.599225	0.904004	0.087753
	C215	C	0.410821	0.903730	0.889143
	Zn216	Zn	0.505552	0.002248	0.738648
	Zn217	Zn	0.505280	0.003320	0.239197
	Zn218	Zn	0.757118	0.501967	-0.010572
	Zn219	Zn	0.256364	0.502124	-0.010769
	Zn220	Zn	0.006741	0.752115	0.487899
	Zn221	Zn	0.006168	0.251332	0.488245
	Zn222	Zn	0.005626	0.502009	0.738168
	Zn223	Zn	0.006341	0.501423	0.238978
	Zn224	Zn	0.504913	0.752169	-0.010873
	Zn225	Zn	0.506108	0.253043	-0.010790
	Zn226	Zn	0.755841	0.002407	0.489528
	Zn227	Zn	0.255703	0.001081	0.489341
	N228	N	0.419756	0.965375	0.667144
	N229	N	0.591289	0.039186	0.667695
	N230	N	0.591485	0.965952	0.310583
	N231	N	0.419644	0.039821	0.311475
	N232	N	0.685869	0.416095	0.952069
	N233	N	0.684375	0.587695	0.026880
	N234	N	0.326836	0.588661	0.952068
	N235	N	0.329202	0.417928	0.026184
	N236	N	0.970027	0.681333	0.401200
	N237	N	0.043863	0.679892	0.573338
	N238	N	0.969229	0.323484	0.573982
	N239	N	0.043064	0.322095	0.402239
	N240	N	0.969259	0.416423	0.666241
	N241	N	0.042893	0.587878	0.666580
	N242	N	0.969165	0.586423	0.311198
	N243	N	0.043611	0.415577	0.310527
	N244	N	0.419649	0.680679	0.951800
	N245	N	0.591417	0.680866	0.026409
	N246	N	0.592927	0.323653	0.951796
	N247	N	0.421174	0.325336	0.025882
	N248	N	0.684468	0.965401	0.403378
	N249	N	0.685385	0.039186	0.576306
	N250	N	0.327817	0.964694	0.574708
	N251	N	0.326397	0.038707	0.403516
	N252	N	0.920909	0.464919	0.167062
	N253	N	0.092047	0.538212	0.167840
	N254	N	0.091867	0.464865	0.809949
	N255	N	0.919891	0.539279	0.809895
	N256	N	0.184999	0.915071	0.452263
	N257	N	0.183934	0.086594	0.526735
	N258	N	0.826698	0.088722	0.452503
	N259	N	0.828236	0.916901	0.526302
	N260	N	0.468825	0.182123	0.902598
	N261	N	0.542877	0.181251	0.074942
	N262	N	0.467814	0.825250	0.074095
	N263	N	0.541703	0.823102	0.902571
	N264	N	0.467820	0.918388	0.167028
	N265	N	0.542203	0.089576	0.168237
	N266	N	0.468070	0.087816	0.810845
	N267	N	0.542464	0.916636	0.810776
	N268	N	0.920580	0.179761	0.451449
	N269	N	0.092246	0.180022	0.526207
	N270	N	0.092443	0.823420	0.452008
	N271	N	0.921324	0.824267	0.525671
	N272	N	0.185128	0.465115	0.902636
	N273	N	0.183600	0.539190	0.074210
	N274	N	0.828673	0.464933	0.074714
	N275	N	0.827994	0.539366	0.903506
	O276	O	1.040694	0.954646	0.008148
	H277	H	1.048292	0.949932	0.008928
	H278	H	1.030041	0.946353	-0.001205
	O279	O	-0.094601	-0.014606	1.025516
	H280	H	-0.095207	-0.013374	1.033679
	H281	H	-0.094952	-0.013301	1.029300
	O282	O	-0.019590	-0.034946	-0.040576
	H283	H	-0.018093	-0.039808	-0.035224
	H284	H	-0.016340	-0.048368	-0.039015
	O285	O	0.512202	0.575067	0.483722
	H286	H	0.518994	0.585363	0.489023
	H287	H	0.514006	0.575055	0.487658
	O288	O	-0.030273	-0.063582	0.052652
	H289	H	-0.040219	-0.056367	0.056796
	H290	H	-0.032741	-0.069428	0.054933
	O291	O	-0.038461	0.983130	0.014362
	H292	H	-0.048031	0.979158	0.019135
	H293	H	-0.047265	0.980819	0.018510
	O294	O	0.010334	1.026153	0.013335
	H295	H	0.014933	1.026801	0.016161
	H296	H	0.010625	1.029864	0.015263
	O297	O	0.559974	0.507509	0.560048
	H298	H	0.553511	0.491776	0.547810
	H299	H	0.558670	0.501111	0.570842
	O300	O	0.575396	0.420326	0.428974
	H301	H	0.565434	0.428389	0.425113
	H302	H	0.576450	0.414744	0.426926
	O303	O	1.056445	0.008140	0.971896
	H304	H	1.057678	0.013018	0.966141
	H305	H	1.057428	0.006425	0.969534
	O306	O	-0.028489	0.995398	0.910287
	H307	H	-0.022892	0.994685	0.897668
	H308	H	-0.024929	0.994918	0.909585
	O309	O	-0.013771	1.022187	0.962067
	H310	H	-0.015660	1.020544	0.956184
	H311	H	-0.018115	1.019269	0.974707
	O312	O	0.004631	0.043557	1.011724
	H313	H	-0.003479	0.047611	1.008114
	H314	H	0.008394	0.058240	1.014214
	O315	O	0.534855	0.435547	0.438326
	H316	H	0.519129	0.445392	0.443594
	H317	H	0.539340	0.440800	0.439149
	O318	O	-0.068783	-0.011154	1.072498
	H319	H	-0.072549	-0.013588	1.068383
	H320	H	-0.062128	0.002369	1.069355
	O321	O	0.531008	0.461322	0.560184
	H322	H	0.547002	0.463507	0.556288
	H323	H	0.531890	0.446349	0.557445
	O324	O	0.496244	-0.582351	1.536219
	H325	H	0.490450	-0.578901	1.537520
	H326	H	0.489811	-0.589196	1.532230
	O327	O	1.039611	1.037995	0.966414
	H328	H	1.045439	1.042081	0.957829
	H329	H	1.041210	1.022148	0.960989
	O330	O	0.585041	0.551304	0.555421
	H331	H	0.587570	0.548853	0.574867
	H332	H	0.599219	0.557234	0.554444
	O333	O	0.471249	0.421640	0.545349
	H334	H	0.478981	0.424222	0.535022
	H335	H	0.468950	0.422374	0.544601
	O336	O	0.512776	0.560832	0.590176
	H337	H	0.520224	0.553323	0.588983
	H338	H	0.506324	0.556088	0.604239
	O339	O	0.430194	0.573873	0.540275
	H340	H	0.433330	0.587527	0.555991
	H341	H	0.417955	0.562428	0.538546
	O342	O	0.585696	0.463284	0.512339
	H343	H	0.589856	0.470555	0.500494
	H344	H	0.589944	0.464948	0.512431
	O345	O	0.458685	0.495455	0.555989
	H346	H	0.457882	0.508179	0.556779
	H347	H	0.460849	0.486817	0.555968
