data_Molecule from HDF5

_cell_length_a		16.276305
_cell_length_b		16.197794
_cell_length_c		16.321974
_cell_angle_alpha	89.299109
_cell_angle_beta	89.568607
_cell_angle_gamma	89.989010
_symmetry_space_group_name_H-M	'P 1'
_symmetry_Int_Tables_number		1

loop_
	_symmetry_equiv_pos_as_xyz
	x,y,z

loop_
	_atom_site_label
	_atom_site_type_symbol
	_atom_site_fract_x
	_atom_site_fract_y
	_atom_site_fract_z
	H0	H	0.397598	0.834197	0.728383
	H1	H	0.599942	0.160642	0.716998
	H2	H	0.605360	0.833434	0.289609
	H3	H	0.400363	0.158621	0.288874
	H4	H	0.717316	0.400034	0.843130
	H5	H	0.716947	0.595506	0.168720
	H6	H	0.285718	0.600805	0.842780
	H7	H	0.281383	0.392369	0.166594
	H8	H	0.838613	0.713840	0.404275
	H9	H	0.164380	0.709155	0.602168
	H10	H	0.838504	0.277869	0.607937
	H11	H	0.164342	0.281611	0.406529
	H12	H	0.839093	0.391878	0.725470
	H13	H	0.164247	0.595610	0.718414
	H14	H	0.838046	0.598186	0.288552
	H15	H	0.162470	0.393790	0.287022
	H16	H	0.403388	0.714477	0.842769
	H17	H	0.599174	0.708947	0.169960
	H18	H	0.600304	0.284113	0.842409
	H19	H	0.398131	0.276542	0.167730
	H20	H	0.717477	0.831718	0.408016
	H21	H	0.716157	0.158781	0.603656
	H22	H	0.284724	0.831971	0.611387
	H23	H	0.286110	0.158110	0.405845
	H24	H	0.895949	0.332758	0.224482
	H25	H	0.100071	0.659139	0.218754
	H26	H	0.102100	0.331198	0.791426
	H27	H	0.900830	0.658781	0.786158
	H28	H	0.222109	0.894909	0.344349
	H29	H	0.215745	0.093451	0.669280
	H30	H	0.786717	0.097382	0.343727
	H31	H	0.783488	0.891634	0.668675
	H32	H	0.337682	0.214910	0.905083
	H33	H	0.663591	0.210494	0.102472
	H34	H	0.337531	0.779553	0.109090
	H35	H	0.664447	0.783885	0.907817
	H36	H	0.340610	0.890913	0.229256
	H37	H	0.663947	0.097513	0.219394
	H38	H	0.337736	0.099676	0.789116
	H39	H	0.663856	0.898305	0.789965
	H40	H	0.902377	0.213237	0.343975
	H41	H	0.099073	0.208391	0.669076
	H42	H	0.102859	0.781833	0.342151
	H43	H	0.900713	0.775761	0.668057
	H44	H	0.219973	0.333556	0.903721
	H45	H	0.215187	0.659495	0.103298
	H46	H	0.784473	0.332498	0.107132
	H47	H	0.786876	0.660277	0.903202
	H48	H	0.417083	0.112325	0.605580
	H49	H	0.589929	0.880019	0.598234
	H50	H	0.610473	0.118433	0.409844
	H51	H	0.412402	0.882469	0.426771
	H52	H	0.589079	0.402527	0.121082
	H53	H	0.599488	0.587970	0.890473
	H54	H	0.411185	0.582777	0.118803
	H55	H	0.404299	0.410228	0.889101
	H56	H	0.119293	0.587257	0.402301
	H57	H	0.887448	0.582446	0.593277
	H58	H	0.117267	0.398309	0.591847
	H59	H	0.886046	0.406956	0.417514
	H60	H	0.116627	0.407660	0.599570
	H61	H	0.885438	0.582403	0.599515
	H62	H	0.117690	0.593981	0.415054
	H63	H	0.883818	0.404510	0.410408
	H64	H	0.407498	0.592470	0.122985
	H65	H	0.589325	0.589952	0.891908
	H66	H	0.594671	0.398123	0.123906
	H67	H	0.417053	0.412235	0.893801
	H68	H	0.583000	0.113673	0.398314
	H69	H	0.593817	0.878333	0.598839
	H70	H	0.410064	0.107923	0.586345
	H71	H	0.407172	0.875870	0.414701
	H72	H	0.902128	0.614142	0.095222
	H73	H	0.090072	0.381559	0.089964
	H74	H	0.094006	0.612048	0.912862
	H75	H	0.908895	0.376722	0.907687
	H76	H	0.096532	0.906112	0.620385
	H77	H	0.093984	0.094846	0.389262
	H78	H	0.904919	0.082648	0.622623
	H79	H	0.909839	0.896173	0.387733
	H80	H	0.617780	0.097805	0.914940
	H81	H	0.384060	0.088009	0.098965
	H82	H	0.612735	0.907866	0.089863
	H83	H	0.383377	0.903377	0.914760
	H84	H	0.618100	0.909093	0.107062
	H85	H	0.385746	0.084957	0.094829
	H86	H	0.613914	0.083257	0.914362
	H87	H	0.385882	0.906699	0.919246
	H88	H	0.910762	0.085558	0.621352
	H89	H	0.101252	0.083501	0.389505
	H90	H	0.085711	0.901448	0.618784
	H91	H	0.901844	0.910148	0.389403
	H92	H	0.093746	0.613001	0.907455
	H93	H	0.097722	0.377385	0.098840
	H94	H	0.911320	0.614243	0.102275
	H95	H	0.916663	0.382133	0.918924
	H96	H	0.396098	0.116931	0.600908
	H97	H	0.589652	0.879186	0.602464
	H98	H	0.587962	0.106086	0.427263
	H99	H	0.420585	0.880611	0.415225
	H100	H	0.595872	0.404775	0.121786
	H101	H	0.596115	0.596855	0.887973
	H102	H	0.400297	0.584519	0.122273
	H103	H	0.413072	0.400658	0.888970
	H104	H	0.113915	0.579717	0.413560
	H105	H	0.884972	0.587844	0.596855
	H106	H	0.120447	0.396791	0.604044
	H107	H	0.882751	0.399714	0.416184
	H108	H	0.912319	0.609583	0.092217
	H109	H	0.086211	0.379659	0.100583
	H110	H	0.089648	0.611320	0.909850
	H111	H	0.901849	0.379177	0.920648
	H112	H	0.094565	0.895486	0.624060
	H113	H	0.088931	0.083413	0.394084
	H114	H	0.905785	0.088660	0.623977
	H115	H	0.917717	0.909109	0.394097
	H116	H	0.619134	0.089063	0.902182
	H117	H	0.385053	0.082982	0.100310
	H118	H	0.620480	0.893841	0.097852
	H119	H	0.385004	0.909513	0.914036
	C120	C	0.378060	0.004709	0.629050
	C121	C	0.621069	0.987297	0.626753
	C122	C	0.624084	0.004580	0.383448
	C123	C	0.382310	0.987018	0.387034
	C124	C	0.622910	0.374536	0.014420
	C125	C	0.623515	0.618969	0.997833
	C126	C	0.378418	0.618471	0.014181
	C127	C	0.379742	0.375265	0.997166
	C128	C	0.009509	0.617529	0.381793
	C129	C	0.993078	0.614621	0.624910
	C130	C	0.010053	0.371667	0.628714
	C131	C	0.992124	0.374451	0.384613
	C132	C	0.878321	0.504441	0.127303
	C133	C	0.121016	0.487454	0.125374
	C134	C	0.122884	0.504333	0.881932
	C135	C	0.880124	0.487602	0.884379
	C136	C	0.123876	0.872344	0.514156
	C137	C	0.123250	0.115905	0.498138
	C138	C	0.879025	0.116662	0.515133
	C139	C	0.879477	0.873534	0.497550
	C140	C	0.508840	0.119823	0.882228
	C141	C	0.492321	0.115611	0.126268
	C142	C	0.510095	0.873044	0.129730
	C143	C	0.492680	0.876907	0.886080
	C144	C	0.378511	0.882395	0.688418
	C145	C	0.619710	0.111256	0.680073
	C146	C	0.624057	0.881769	0.328201
	C147	C	0.381637	0.109644	0.328136
	C148	C	0.679077	0.378702	0.891808
	C149	C	0.678776	0.615860	0.120080
	C150	C	0.323858	0.619436	0.891386
	C151	C	0.320403	0.373282	0.118281
	C152	C	0.887071	0.674971	0.384368
	C153	C	0.115538	0.671181	0.622669
	C154	C	0.887253	0.315889	0.628031
	C155	C	0.115195	0.319004	0.386030
	C156	C	0.887848	0.372282	0.686662
	C157	C	0.115637	0.614330	0.680302
	C158	C	0.886746	0.617589	0.326626
	C159	C	0.114129	0.374814	0.326657
	C160	C	0.382300	0.676105	0.891507
	C161	C	0.620356	0.672576	0.120685
	C162	C	0.620936	0.321279	0.891379
	C163	C	0.378652	0.315745	0.118903
	C164	C	0.680159	0.881195	0.386881
	C165	C	0.677645	0.110260	0.623757
	C166	C	0.322482	0.881245	0.630244
	C167	C	0.324651	0.109542	0.386249
	C168	C	0.878051	0.381495	0.185051
	C169	C	0.119949	0.610205	0.180962
	C170	C	0.122198	0.380766	0.828140
	C171	C	0.881505	0.610029	0.825564
	C172	C	0.182646	0.874576	0.392545
	C173	C	0.177785	0.113328	0.620603
	C174	C	0.824428	0.116643	0.392622
	C175	C	0.822159	0.872247	0.619872
	C176	C	0.386427	0.176302	0.884731
	C177	C	0.614950	0.172421	0.123143
	C178	C	0.386832	0.817123	0.129172
	C179	C	0.615668	0.821784	0.887893
	C180	C	0.388302	0.872490	0.188947
	C181	C	0.615109	0.116075	0.181469
	C182	C	0.386485	0.119262	0.826825
	C183	C	0.615232	0.878643	0.829059
	C184	C	0.882139	0.174094	0.392525
	C185	C	0.119914	0.170942	0.620577
	C186	C	0.123131	0.818720	0.391343
	C187	C	0.880607	0.814832	0.619542
	C188	C	0.180627	0.381859	0.884258
	C189	C	0.176926	0.610736	0.122874
	C190	C	0.822114	0.381496	0.126948
	C191	C	0.824844	0.610950	0.884067
	C192	C	0.400946	0.090234	0.604636
	C193	C	0.598063	0.901436	0.605886
	C194	C	0.600674	0.090400	0.405256
	C195	C	0.406416	0.901714	0.411811
	C196	C	0.599801	0.395638	0.100035
	C197	C	0.601588	0.597691	0.912373
	C198	C	0.399963	0.593941	0.099180
	C199	C	0.404530	0.400363	0.912477
	C200	C	0.094762	0.593961	0.403837
	C201	C	0.908053	0.591151	0.603008
	C202	C	0.095923	0.394282	0.605345
	C203	C	0.906513	0.397063	0.407993
	C204	C	0.901799	0.590196	0.103553
	C205	C	0.098046	0.401809	0.103150
	C206	C	0.099381	0.590113	0.903447
	C207	C	0.902618	0.401605	0.908614
	C208	C	0.099576	0.894470	0.599191
	C209	C	0.101095	0.094008	0.412837
	C210	C	0.900668	0.092719	0.600463
	C211	C	0.902945	0.898160	0.412276
	C212	C	0.594699	0.096840	0.903980
	C213	C	0.407199	0.092076	0.104551
	C214	C	0.594961	0.896587	0.105399
	C215	C	0.406958	0.899688	0.909265
	Zn216	Zn	0.500593	-0.002741	0.755305
	Zn217	Zn	0.501931	-0.004150	0.256598
	Zn218	Zn	0.751533	0.496576	0.006115
	Zn219	Zn	0.250048	0.496467	0.004150
	Zn220	Zn	0.001892	0.744336	0.504593
	Zn221	Zn	0.001294	0.245003	0.506207
	Zn222	Zn	0.001487	0.494801	0.755177
	Zn223	Zn	-0.000278	0.495096	0.254579
	Zn224	Zn	0.500636	0.746553	0.006633
	Zn225	Zn	0.500773	0.245631	0.005656
	Zn226	Zn	0.750497	-0.004477	0.506676
	Zn227	Zn	0.252067	-0.005649	0.506882
	N228	N	0.412676	0.960016	0.687819
	N229	N	0.585199	0.033737	0.682249
	N230	N	0.589884	0.959481	0.325993
	N231	N	0.416979	0.032393	0.328634
	N232	N	0.680415	0.411035	0.969300
	N233	N	0.681200	0.583509	0.042447
	N234	N	0.321082	0.584242	0.968501
	N235	N	0.321072	0.409507	0.041590
	N236	N	0.964499	0.675214	0.417847
	N237	N	0.038547	0.671315	0.588816
	N238	N	0.964294	0.315430	0.592638
	N239	N	0.038121	0.318462	0.421338
	N240	N	0.965290	0.406111	0.687286
	N241	N	0.038435	0.579711	0.682056
	N242	N	0.963626	0.582571	0.324931
	N243	N	0.036403	0.408120	0.325372
	N244	N	0.415236	0.675843	0.968942
	N245	N	0.586674	0.674535	0.043741
	N246	N	0.586766	0.318331	0.968658
	N247	N	0.414815	0.316992	0.042530
	N248	N	0.680252	0.958589	0.420594
	N249	N	0.678531	0.032318	0.591206
	N250	N	0.322197	0.958175	0.593993
	N251	N	0.325267	0.032457	0.422366
	N252	N	0.912302	0.459092	0.185538
	N253	N	0.085693	0.532489	0.182544
	N254	N	0.087136	0.457774	0.826573
	N255	N	0.915245	0.532040	0.825763
	N256	N	0.183115	0.907125	0.469989
	N257	N	0.179876	0.080002	0.543558
	N258	N	0.822465	0.081666	0.469796
	N259	N	0.821409	0.908064	0.543050
	N260	N	0.463582	0.176846	0.918208
	N261	N	0.537799	0.172164	0.089181
	N262	N	0.463498	0.817259	0.093142
	N263	N	0.538333	0.820697	0.922429
	N264	N	0.465850	0.906304	0.189704
	N265	N	0.538043	0.081301	0.183480
	N266	N	0.463815	0.084854	0.824988
	N267	N	0.537601	0.912252	0.827892
	N268	N	0.915346	0.174385	0.469726
	N269	N	0.086360	0.172630	0.543346
	N270	N	0.087390	0.817122	0.468021
	N271	N	0.915319	0.815397	0.542399
	N272	N	0.181450	0.459984	0.916883
	N273	N	0.177734	0.533369	0.089052
	N274	N	0.822250	0.458945	0.091593
	N275	N	0.823755	0.533763	0.919797
	O276	O	0.886786	0.048529	0.936148
	H277	H	0.888957	0.060596	0.934214
	H278	H	0.891037	0.047929	0.939048
	O279	O	0.453476	0.391355	0.445464
	H280	H	0.462490	0.395926	0.445760
	H281	H	0.438908	0.389931	0.439282
	O282	O	0.437089	0.408734	0.618608
	H283	H	0.428766	0.412721	0.627545
	H284	H	0.441029	0.409991	0.612131
	O285	O	0.522616	0.486476	0.424929
	H286	H	0.518019	0.490038	0.417318
	H287	H	0.527566	0.513665	0.419933
	O288	O	0.376122	0.557542	0.558454
	H289	H	0.368652	0.560302	0.560407
	H290	H	0.376709	0.549275	0.557935
	O291	O	-0.031039	-0.052310	0.945951
	H292	H	-0.038786	-0.057858	0.954406
	H293	H	-0.036650	-0.048957	0.951482
	O294	O	1.089751	0.915151	0.024883
	H295	H	1.086441	0.902873	0.026698
	H296	H	1.088154	0.902813	0.024349
	O297	O	0.990449	0.918309	0.133453
	H298	H	0.989975	0.913058	0.136527
	H299	H	0.986845	0.910081	0.135898
	O300	O	0.423001	0.455581	0.579870
	H301	H	0.431945	0.451533	0.577935
	H302	H	0.430858	0.445048	0.579062
	O303	O	0.598986	0.615760	0.592663
	H304	H	0.594369	0.616830	0.594636
	H305	H	0.614926	0.626867	0.598196
	O306	O	0.395232	0.659514	0.350087
	H307	H	0.383992	0.669923	0.354767
	H308	H	0.387535	0.660897	0.355154
	O309	O	0.522168	0.576124	0.532359
	H310	H	0.541325	0.581364	0.544871
	H311	H	0.515969	0.576373	0.540913
	O312	O	1.001947	1.094869	0.948803
	H313	H	1.004325	1.088576	0.953233
	H314	H	0.994943	1.111139	0.944040
	O315	O	0.987600	0.976687	0.150282
	H316	H	0.983274	0.967516	0.159611
	H317	H	0.986890	0.969002	0.141554
	O318	O	0.539143	0.543479	0.391843
	H319	H	0.524048	0.548423	0.383974
	H320	H	0.537849	0.552266	0.381292
	O321	O	0.509431	0.464513	0.350990
	H322	H	0.494559	0.461804	0.353098
	H323	H	0.519006	0.468374	0.342885
	O324	O	-0.032478	1.109717	0.848064
	H325	H	-0.031457	1.092957	0.858057
	H326	H	-0.035707	1.116945	0.833281
	O327	O	-0.046695	0.917044	1.068556
	H328	H	-0.051791	0.932389	1.062727
	H329	H	-0.046390	0.910991	1.061405
	O330	O	0.029529	-0.017220	0.102360
	H331	H	0.033442	-0.016907	0.085161
	H332	H	0.033079	-0.028074	0.096291
	O333	O	0.576413	0.449722	0.458715
	H334	H	0.577679	0.443061	0.456345
	H335	H	0.562438	0.459030	0.447461
	O336	O	0.055723	0.082011	0.097178
	H337	H	0.055451	0.066949	0.117914
	H338	H	0.061482	0.091535	0.108379
	O339	O	0.053464	-0.092935	-0.093821
	H340	H	0.046405	-0.093276	-0.093420
	H341	H	0.056673	-0.083688	-0.093135
	O342	O	-0.058465	0.925611	-0.005586
	H343	H	-0.057807	0.921782	-0.015672
	H344	H	-0.067273	0.934132	0.000849
	O345	O	-0.157445	1.078967	0.914585
	H346	H	-0.153764	1.069539	0.925658
	H347	H	-0.169283	1.080479	0.913034
	O348	O	0.487331	0.492961	0.346078
	H349	H	0.477319	0.492397	0.346965
	H350	H	0.489993	0.509582	0.350108
	O351	O	0.590482	0.440445	0.633777
	H352	H	0.585388	0.436202	0.622826
	H353	H	0.598187	0.444325	0.636826
	O354	O	0.102886	1.026303	-0.004203
	H355	H	0.079599	1.031655	-0.009767
	H356	H	0.109757	1.035252	-0.006824
	O357	O	0.590584	0.535506	0.632389
	H358	H	0.588568	0.537208	0.627692
	H359	H	0.589015	0.522362	0.630878
	O360	O	0.509690	0.542566	0.500799
	H361	H	0.508818	0.531847	0.491898
	H362	H	0.516676	0.538033	0.517809
	O363	O	0.467251	0.336913	0.499122
	H364	H	0.460566	0.343448	0.491516
	H365	H	0.463314	0.328366	0.504614
	O366	O	0.598098	0.597473	0.576156
	H367	H	0.603195	0.587028	0.571941
	H368	H	0.600228	0.603512	0.594826
	O369	O	1.108717	0.007082	0.079366
	H370	H	1.133140	-0.002315	0.072919
	H371	H	1.103444	-0.005222	0.060209
	O372	O	0.398715	0.420162	0.540415
	H373	H	0.411921	0.411737	0.543065
	H374	H	0.390288	0.414312	0.532235
	O375	O	1.023208	-0.002425	0.980692
	H376	H	1.021661	0.000820	0.972857
	H377	H	1.023018	0.002795	0.989091
	O378	O	-0.095813	0.953083	0.054793
	H379	H	-0.098686	0.954164	0.047690
	H380	H	-0.094573	0.959624	0.059779
	O381	O	0.352394	0.614033	0.575848
	H382	H	0.347538	0.598052	0.573825
	H383	H	0.358549	0.609656	0.574099
	O384	O	1.087049	0.875524	0.000202
	H385	H	1.088676	0.868140	-0.015296
	H386	H	1.090218	0.873220	-0.013938
	O387	O	1.033050	0.057901	0.949575
	H388	H	1.030411	0.053754	0.956883
	H389	H	1.021082	0.069021	0.951299
	O390	O	1.024958	1.115658	-0.071100
	H391	H	1.022074	1.112097	-0.072597
	H392	H	1.025128	1.126546	-0.069878
	O393	O	0.602137	0.522089	0.509775
	H394	H	0.603113	0.512369	0.495349
	H395	H	0.598296	0.519944	0.499190
