data_Molecule from HDF5

_cell_length_a		16.571013
_cell_length_b		16.549562
_cell_length_c		16.824810
_cell_angle_alpha	90.033279
_cell_angle_beta	89.747566
_cell_angle_gamma	90.093505
_symmetry_space_group_name_H-M	'P 1'
_symmetry_Int_Tables_number		1

loop_
	_symmetry_equiv_pos_as_xyz
	x,y,z

loop_
	_atom_site_label
	_atom_site_type_symbol
	_atom_site_fract_x
	_atom_site_fract_y
	_atom_site_fract_z
	H0	H	0.391093	0.834495	0.726964
	H1	H	0.604224	0.145637	0.727294
	H2	H	0.603071	0.835086	0.285463
	H3	H	0.394839	0.147180	0.288556
	H4	H	0.719698	0.383926	0.852141
	H5	H	0.720397	0.597281	0.158738
	H6	H	0.277224	0.595222	0.852285
	H7	H	0.270990	0.382146	0.157688
	H8	H	0.840371	0.707001	0.404883
	H9	H	0.155440	0.705510	0.604055
	H10	H	0.841106	0.270878	0.607500
	H11	H	0.151839	0.267659	0.398383
	H12	H	0.842713	0.381346	0.727931
	H13	H	0.154565	0.592126	0.722665
	H14	H	0.842413	0.596395	0.284860
	H15	H	0.150494	0.381194	0.280393
	H16	H	0.394390	0.712550	0.852924
	H17	H	0.603832	0.713119	0.159690
	H18	H	0.602052	0.268174	0.852402
	H19	H	0.388058	0.266365	0.158959
	H20	H	0.717038	0.834415	0.402675
	H21	H	0.716570	0.146717	0.607714
	H22	H	0.277969	0.833483	0.609056
	H23	H	0.280123	0.147633	0.405423
	H24	H	0.887385	0.336343	0.230402
	H25	H	0.106163	0.643709	0.229282
	H26	H	0.106091	0.335914	0.781727
	H27	H	0.889710	0.643955	0.783395
	H28	H	0.222221	0.883659	0.352549
	H29	H	0.221229	0.099035	0.657039
	H30	H	0.769954	0.102923	0.356069
	H31	H	0.773515	0.882994	0.657966
	H32	H	0.342218	0.211047	0.901776
	H33	H	0.653604	0.209658	0.107907
	H34	H	0.340363	0.771828	0.109541
	H35	H	0.654096	0.772050	0.904518
	H36	H	0.341758	0.884636	0.228507
	H37	H	0.652848	0.097470	0.227130
	H38	H	0.344085	0.098746	0.782772
	H39	H	0.653169	0.884529	0.784927
	H40	H	0.885424	0.219141	0.355884
	H41	H	0.104135	0.214503	0.657321
	H42	H	0.104050	0.767944	0.350839
	H43	H	0.892715	0.768329	0.658952
	H44	H	0.221430	0.336342	0.897018
	H45	H	0.219014	0.645807	0.110980
	H46	H	0.774717	0.334606	0.112451
	H47	H	0.777190	0.645424	0.902651
	H48	H	0.415846	0.100131	0.595941
	H49	H	0.583164	0.876569	0.601865
	H50	H	0.589071	0.104905	0.417841
	H51	H	0.405958	0.875976	0.418105
	H52	H	0.588326	0.396186	0.118801
	H53	H	0.586228	0.580042	0.896298
	H54	H	0.401789	0.576430	0.117271
	H55	H	0.414212	0.402216	0.897948
	H56	H	0.110043	0.571173	0.406864
	H57	H	0.884398	0.577933	0.599002
	H58	H	0.109393	0.403725	0.594067
	H59	H	0.884871	0.401674	0.417219
	H60	H	0.109520	0.402532	0.594518
	H61	H	0.884048	0.580207	0.597200
	H62	H	0.114526	0.586843	0.412068
	H63	H	0.888797	0.404820	0.422318
	H64	H	0.412330	0.577565	0.114010
	H65	H	0.587257	0.578540	0.896358
	H66	H	0.588947	0.405355	0.115701
	H67	H	0.408751	0.399157	0.895922
	H68	H	0.583077	0.102755	0.413938
	H69	H	0.582480	0.879601	0.591915
	H70	H	0.407439	0.102178	0.591352
	H71	H	0.412057	0.877125	0.412793
	H72	H	0.912065	0.602853	0.100529
	H73	H	0.074372	0.384609	0.087530
	H74	H	0.083973	0.600693	0.915629
	H75	H	0.910585	0.378783	0.917786
	H76	H	0.088401	0.899119	0.615946
	H77	H	0.094308	0.079862	0.393454
	H78	H	0.912748	0.070725	0.610857
	H79	H	0.907187	0.898475	0.394387
	H80	H	0.608639	0.078682	0.917916
	H81	H	0.386927	0.078399	0.090810
	H82	H	0.608646	0.899639	0.093326
	H83	H	0.386060	0.902530	0.917767
	H84	H	0.608351	0.907967	0.098101
	H85	H	0.386012	0.070805	0.102502
	H86	H	0.608967	0.075094	0.915600
	H87	H	0.385947	0.903960	0.917040
	H88	H	0.914774	0.081497	0.613968
	H89	H	0.085609	0.070457	0.399038
	H90	H	0.087469	0.897384	0.615420
	H91	H	0.907648	0.902182	0.395941
	H92	H	0.088610	0.603140	0.916794
	H93	H	0.090265	0.379599	0.086264
	H94	H	0.913896	0.598528	0.090552
	H95	H	0.908393	0.376411	0.916277
	H96	H	0.408393	0.104537	0.600425
	H97	H	0.591643	0.875541	0.595850
	H98	H	0.583855	0.100663	0.420471
	H99	H	0.413341	0.880256	0.420024
	H100	H	0.581509	0.400560	0.113842
	H101	H	0.585542	0.578619	0.897245
	H102	H	0.407232	0.585918	0.119107
	H103	H	0.408350	0.405287	0.897666
	H104	H	0.106481	0.576191	0.422537
	H105	H	0.885126	0.577917	0.596126
	H106	H	0.109598	0.403293	0.593155
	H107	H	0.886899	0.407967	0.416698
	H108	H	0.903651	0.602240	0.093339
	H109	H	0.081225	0.376254	0.100328
	H110	H	0.086031	0.603824	0.911754
	H111	H	0.911689	0.376733	0.914948
	H112	H	0.089286	0.897571	0.616516
	H113	H	0.080536	0.083073	0.395129
	H114	H	0.904220	0.076812	0.615981
	H115	H	0.910998	0.899954	0.396147
	H116	H	0.610184	0.078923	0.914308
	H117	H	0.381100	0.084230	0.102265
	H118	H	0.612162	0.900210	0.101709
	H119	H	0.385071	0.903075	0.916633
	C120	C	0.376955	-0.001015	0.627848
	C121	C	0.618184	0.981073	0.627164
	C122	C	0.618445	-0.000443	0.385160
	C123	C	0.378562	0.981573	0.386385
	C124	C	0.618691	0.368416	0.014288
	C125	C	0.618944	0.611824	0.998162
	C126	C	0.375949	0.611982	0.015044
	C127	C	0.375618	0.368485	0.997804
	C128	C	0.006596	0.610404	0.383554
	C129	C	0.988794	0.609668	0.626656
	C130	C	0.006460	0.369719	0.625919
	C131	C	0.988462	0.369808	0.384449
	C132	C	0.876002	0.498545	0.127299
	C133	C	0.116832	0.481826	0.125146
	C134	C	0.119557	0.499662	0.882573
	C135	C	0.877238	0.480671	0.884714
	C136	C	0.120369	0.867257	0.513630
	C137	C	0.119100	0.111374	0.496901
	C138	C	0.876103	0.111549	0.513990
	C139	C	0.876009	0.867833	0.496876
	C140	C	0.506499	0.110702	0.884593
	C141	C	0.488369	0.110906	0.128565
	C142	C	0.506080	0.870054	0.128393
	C143	C	0.488947	0.870447	0.885588
	C144	C	0.373515	0.881314	0.686996
	C145	C	0.621858	0.098713	0.686978
	C146	C	0.621070	0.881927	0.325680
	C147	C	0.376799	0.100134	0.328164
	C148	C	0.679026	0.366192	0.898403
	C149	C	0.679669	0.614889	0.112943
	C150	C	0.317210	0.614031	0.898492
	C151	C	0.312648	0.364564	0.112185
	C152	C	0.888001	0.668446	0.384788
	C153	C	0.108009	0.667017	0.624690
	C154	C	0.888649	0.309500	0.627295
	C155	C	0.104991	0.307732	0.380174
	C156	C	0.889482	0.364945	0.686736
	C157	C	0.107372	0.610786	0.683470
	C158	C	0.889009	0.613522	0.324989
	C159	C	0.104527	0.364202	0.321767
	C160	C	0.375204	0.672216	0.898888
	C161	C	0.621845	0.672833	0.113509
	C162	C	0.620576	0.308551	0.898476
	C163	C	0.370979	0.307087	0.112758
	C164	C	0.677570	0.881559	0.383875
	C165	C	0.677542	0.099307	0.627452
	C166	C	0.317056	0.880957	0.628759
	C167	C	0.320000	0.100337	0.386499
	C168	C	0.870441	0.382354	0.189285
	C169	C	0.122462	0.597811	0.187412
	C170	C	0.123595	0.382843	0.822053
	C171	C	0.872773	0.597595	0.824165
	C172	C	0.181214	0.865570	0.398125
	C173	C	0.180026	0.115861	0.611688
	C174	C	0.812026	0.118638	0.401074
	C175	C	0.814493	0.864885	0.612088
	C176	C	0.389404	0.171242	0.882938
	C177	C	0.606422	0.170635	0.128226
	C178	C	0.387710	0.810937	0.128962
	C179	C	0.607046	0.811152	0.884903
	C180	C	0.388441	0.867090	0.187962
	C181	C	0.606049	0.114809	0.187234
	C182	C	0.390190	0.115364	0.823824
	C183	C	0.606447	0.866987	0.825693
	C184	C	0.869660	0.176448	0.400920
	C185	C	0.122166	0.173635	0.611392
	C186	C	0.122564	0.807977	0.397447
	C187	C	0.873536	0.807880	0.612615
	C188	C	0.180692	0.382752	0.879710
	C189	C	0.178769	0.598678	0.128604
	C190	C	0.814701	0.381772	0.130341
	C191	C	0.816897	0.598347	0.883321
	C192	C	0.402883	0.081020	0.603032
	C193	C	0.592908	0.898635	0.603344
	C194	C	0.592754	0.081432	0.410121
	C195	C	0.403271	0.899338	0.410197
	C196	C	0.593357	0.393409	0.095087
	C197	C	0.593434	0.586323	0.917672
	C198	C	0.400088	0.586847	0.095806
	C199	C	0.402618	0.394738	0.917892
	C200	C	0.088844	0.585319	0.407027
	C201	C	0.905959	0.585505	0.603997
	C202	C	0.088212	0.395558	0.600883
	C203	C	0.907949	0.397126	0.411006
	C204	C	0.902533	0.579943	0.102027
	C205	C	0.089615	0.401074	0.098986
	C206	C	0.093609	0.581374	0.907774
	C207	C	0.902901	0.398851	0.909215
	C208	C	0.095382	0.891216	0.594911
	C209	C	0.093799	0.085214	0.416680
	C210	C	0.903113	0.084060	0.593194
	C211	C	0.901566	0.893207	0.416300
	C212	C	0.588222	0.084836	0.909217
	C213	C	0.406231	0.085362	0.104964
	C214	C	0.588348	0.895367	0.104286
	C215	C	0.407129	0.896034	0.910074
	Zn216	Zn	0.497566	-0.009884	0.756094
	Zn217	Zn	0.497782	-0.009488	0.256918
	Zn218	Zn	0.748748	0.490036	0.006046
	Zn219	Zn	0.246224	0.490154	0.005345
	Zn220	Zn	-0.002181	0.738216	0.505203
	Zn221	Zn	-0.002218	0.241047	0.505253
	Zn222	Zn	-0.002825	0.489535	0.755351
	Zn223	Zn	-0.003199	0.489686	0.255114
	Zn224	Zn	0.497732	0.742030	0.006812
	Zn225	Zn	0.496936	0.238632	0.006585
	Zn226	Zn	0.746998	-0.009929	0.505386
	Zn227	Zn	0.249223	-0.010059	0.506375
	N228	N	0.409962	0.955917	0.686883
	N229	N	0.585779	0.023945	0.687188
	N230	N	0.585109	0.956358	0.326276
	N231	N	0.412301	0.025146	0.327695
	N232	N	0.678277	0.402367	0.971680
	N233	N	0.678106	0.577575	0.040160
	N234	N	0.317247	0.577543	0.971717
	N235	N	0.315354	0.402147	0.039528
	N236	N	0.962346	0.667074	0.420226
	N237	N	0.033007	0.666876	0.590198
	N238	N	0.962477	0.312334	0.590127
	N239	N	0.031819	0.310749	0.418292
	N240	N	0.963866	0.401438	0.686420
	N241	N	0.032210	0.575934	0.684889
	N242	N	0.963914	0.578273	0.323803
	N243	N	0.030999	0.401989	0.323979
	N244	N	0.410588	0.671600	0.972488
	N245	N	0.584469	0.670970	0.040959
	N246	N	0.583700	0.309641	0.971701
	N247	N	0.409592	0.309410	0.040600
	N248	N	0.676407	0.955907	0.419919
	N249	N	0.675755	0.025023	0.591288
	N250	N	0.318869	0.955340	0.592781
	N251	N	0.320608	0.025583	0.421730
	N252	N	0.908018	0.456169	0.187638
	N253	N	0.084475	0.524119	0.185569
	N254	N	0.086251	0.456688	0.823641
	N255	N	0.909537	0.523276	0.824613
	N256	N	0.180076	0.901698	0.471487
	N257	N	0.178410	0.077748	0.539395
	N258	N	0.816225	0.078375	0.472228
	N259	N	0.815821	0.901383	0.538950
	N260	N	0.462873	0.168671	0.919837
	N261	N	0.532061	0.168691	0.092605
	N262	N	0.462099	0.812414	0.092796
	N263	N	0.532897	0.812968	0.921542
	N264	N	0.463163	0.903037	0.187885
	N265	N	0.531360	0.078689	0.187960
	N266	N	0.464267	0.078494	0.824379
	N267	N	0.531922	0.902924	0.825793
	N268	N	0.909358	0.172015	0.472035
	N269	N	0.084839	0.170889	0.538879
	N270	N	0.085451	0.808728	0.470438
	N271	N	0.911063	0.809366	0.539713
	N272	N	0.178775	0.456751	0.916652
	N273	N	0.175445	0.525506	0.090457
	N274	N	0.817884	0.455100	0.092716
	N275	N	0.819361	0.524532	0.920068
	O276	O	-0.653141	1.639097	-0.553911
	H277	H	-0.667474	1.634484	-0.566156
	H278	H	-0.657669	1.646410	-0.571097
	O279	O	-0.214520	-0.135028	0.026575
	H280	H	-0.214743	-0.139963	0.032202
	H281	H	-0.220777	-0.122083	0.027443
	O282	O	0.982536	-0.108824	1.038018
	H283	H	0.993239	-0.110578	1.030507
	H284	H	0.978052	-0.107780	1.029260
	O285	O	0.682248	0.674815	0.316869
	H286	H	0.678251	0.647189	0.324723
	H287	H	0.695395	0.696225	0.299106
	O288	O	0.531336	0.703206	0.730550
	H289	H	0.546477	0.703199	0.714373
	H290	H	0.528511	0.723538	0.751430
	O291	O	0.486945	0.376565	0.468089
	H292	H	0.479352	0.373522	0.490483
	H293	H	0.483753	0.376239	0.478502
	O294	O	1.178279	0.199757	1.193366
	H295	H	1.176816	0.175891	1.173881
	H296	H	1.134307	0.195295	1.194055
	O297	O	0.684856	0.302128	0.692925
	H298	H	0.659145	0.312298	0.677322
	H299	H	0.679642	0.324179	0.664597
	O300	O	-0.055893	0.045549	1.249688
	H301	H	-0.057505	0.026042	1.236791
	H302	H	-0.053031	0.025988	1.255476
	O303	O	0.640825	0.560558	0.421144
	H304	H	0.638594	0.563555	0.417808
	H305	H	0.652018	0.556858	0.410910
	O306	O	1.294218	-0.305173	0.295987
	H307	H	1.287104	-0.315801	0.286965
	H308	H	1.317283	-0.331574	0.292444
	O309	O	0.354577	0.426328	0.544205
	H310	H	0.366879	0.431436	0.555032
	H311	H	0.360627	0.417974	0.550530
	O312	O	0.295540	0.284091	0.711498
	H313	H	0.295468	0.324890	0.715739
	H314	H	0.261341	0.253059	0.743577
	O315	O	1.193795	1.183012	0.806654
	H316	H	1.176204	1.160441	0.822966
	H317	H	1.177539	1.167587	0.828300
	O318	O	0.949051	0.967521	0.020567
	H319	H	0.954799	0.966241	0.016846
	H320	H	0.947280	0.977738	0.016004
	O321	O	0.495402	0.710125	0.555142
	H322	H	0.490575	0.712095	0.547251
	H323	H	0.493736	0.719214	0.548402
	O324	O	1.020578	1.220343	-0.001355
	H325	H	1.015118	1.221812	0.026422
	H326	H	1.004183	1.218133	0.008313
	O327	O	-0.038267	0.211102	0.783512
	H328	H	-0.043679	0.234496	0.777288
	H329	H	-0.044103	0.220732	0.791055
	O330	O	1.063709	-0.229769	0.066137
	H331	H	1.074218	-0.237872	0.083591
	H332	H	1.077087	-0.220378	0.065232
	O333	O	0.429553	0.544430	0.739738
	H334	H	0.440690	0.560345	0.732186
	H335	H	0.450487	0.515550	0.748448
	O336	O	0.721666	0.510588	0.729292
	H337	H	0.736617	0.535210	0.743466
	H338	H	0.729593	0.542751	0.734021
	O339	O	0.968839	-0.232648	1.236405
	H340	H	0.965828	-0.251828	1.238220
	H341	H	0.956700	-0.245546	1.239102
	O342	O	0.022887	-0.078542	-0.215723
	H343	H	0.042990	-0.066168	-0.221188
	H344	H	0.003975	-0.063652	-0.220092
	O345	O	0.210406	0.775666	0.795240
	H346	H	0.183417	0.789702	0.794180
	H347	H	0.242648	0.744372	0.761946
	O348	O	-0.140927	0.142667	0.017949
	H349	H	-0.156994	0.141130	0.025520
	H350	H	-0.138690	0.155741	0.019216
	O351	O	0.442851	0.423574	0.274155
	H352	H	0.444422	0.418662	0.277173
	H353	H	0.447083	0.425015	0.271028
	O354	O	-0.184969	0.180877	1.181992
	H355	H	-0.188956	0.194432	1.199721
	H356	H	-0.191071	0.177268	1.185555
	O357	O	-0.024096	1.014663	0.814611
	H358	H	-0.028659	1.018654	0.820602
	H359	H	-0.025011	1.040725	0.812434
	O360	O	0.438061	0.381995	0.496416
	H361	H	0.429685	0.374876	0.500038
	H362	H	0.430817	0.384808	0.482240
	O363	O	-0.609776	0.652105	-0.477086
	H364	H	-0.608956	0.631125	-0.484637
	H365	H	-0.626170	0.666737	-0.489659
	O366	O	0.311077	0.677582	0.698298
	H367	H	0.330493	0.663789	0.674536
	H368	H	0.331069	0.656517	0.685814
	O369	O	0.470751	0.270487	0.729182
	H370	H	0.459182	0.247951	0.748381
	H371	H	0.443345	0.271624	0.727436
	O372	O	1.016172	1.203482	0.231875
	H373	H	1.002176	1.179986	0.246624
	H374	H	1.007624	1.217235	0.259095
	O375	O	1.293040	0.453002	0.321372
	H376	H	1.284238	0.451742	0.333633
	H377	H	1.305308	0.445853	0.328644
	O378	O	0.049973	-0.062156	0.241507
	H379	H	0.068171	-0.066031	0.243248
	H380	H	0.056742	-0.078642	0.232025
	O381	O	-0.072775	1.123085	1.009147
	H382	H	-0.073318	1.132519	1.017446
	H383	H	-0.074320	1.133435	1.017602
	O384	O	0.839807	-0.061755	0.960569
	H385	H	0.834761	-0.063071	0.952234
	H386	H	0.839961	-0.032432	0.962184
	O387	O	1.032267	0.763515	-0.219816
	H388	H	1.035976	0.747275	-0.225689
	H389	H	1.025249	0.759856	-0.231476
	O390	O	0.402573	0.514165	0.373177
	H391	H	0.399899	0.507643	0.374899
	H392	H	0.403340	0.500990	0.361087
	O393	O	0.287251	0.278139	0.531201
	H394	H	0.269005	0.264433	0.554931
	H395	H	0.292045	0.278008	0.555303
	O396	O	-0.194417	0.907015	1.097319
	H397	H	-0.183862	0.912004	1.086276
	H398	H	-0.199166	0.917263	1.084268
	O399	O	-0.223450	-0.031420	1.241599
	H400	H	-0.208935	-0.052762	1.227377
	H401	H	-0.257731	-0.040085	1.275233
	O402	O	0.804536	0.797952	0.808444
	H403	H	0.822189	0.833770	0.810095
	H404	H	0.825910	0.799143	0.840457
	O405	O	0.990693	-0.051348	0.854803
	H406	H	0.995684	-0.049960	0.857038
	H407	H	0.988419	-0.039554	0.869265
	O408	O	0.527311	0.272049	-0.717156
	H409	H	0.530929	0.284396	-0.710293
	H410	H	0.529491	0.247072	-0.743386
	O411	O	0.705752	0.442972	0.558585
	H412	H	0.692515	0.462313	0.567727
	H413	H	0.706323	0.465441	0.569988
	O414	O	0.699013	0.651172	0.498628
	H415	H	0.708514	0.663561	0.489739
	H416	H	0.686732	0.637192	0.498164
	O417	O	0.562218	0.493913	0.557434
	H418	H	0.558922	0.506106	0.563448
	H419	H	0.545585	0.489909	0.556716
	O420	O	0.551529	0.435626	0.741798
	H421	H	0.577379	0.436566	0.739508
	H422	H	0.554213	0.411518	0.745907
	O423	O	0.218277	-0.004715	0.807796
	H424	H	0.221731	-0.031830	0.800134
	H425	H	0.219736	-0.026483	0.800680
	O426	O	0.542109	0.274574	0.554621
	H427	H	0.524842	0.272218	0.558670
	H428	H	0.523538	0.276248	0.545067
	O429	O	0.786288	0.778012	1.225337
	H430	H	0.796312	0.774578	1.220309
	H431	H	0.793342	0.793481	1.196653
	O432	O	1.054815	0.980033	0.876069
	H433	H	1.064437	0.964487	0.875152
	H434	H	1.059651	0.987444	0.889081
	O435	O	0.212179	0.931473	0.086794
	H436	H	0.208217	0.910955	0.075127
	H437	H	0.217022	0.950886	0.093933
	O438	O	0.211145	0.209123	0.015808
	H439	H	0.207407	0.187314	0.024539
	H440	H	0.235307	0.234501	0.032173
	O441	O	-0.214682	0.193931	-0.045576
	H442	H	-0.200538	0.182556	-0.076438
	H443	H	-0.241032	0.227707	-0.050630
	O444	O	0.285511	0.454243	0.720676
	H445	H	0.275325	0.454169	0.731049
	H446	H	0.293900	0.468268	0.727583
	O447	O	0.219910	1.020207	1.237691
	H448	H	0.252547	1.022055	1.261680
	H449	H	0.211908	1.043358	1.223781
	O450	O	-0.296475	0.359005	1.450027
	H451	H	-0.302521	0.361889	1.475901
	H452	H	-0.302152	0.376349	1.470333
	O453	O	0.523437	0.654237	0.492159
	H454	H	0.527455	0.666598	0.477850
	H455	H	0.517367	0.658637	0.502954
	O456	O	0.545476	0.551685	0.271225
	H457	H	0.552804	0.545583	0.274901
	H458	H	0.556800	0.548820	0.262097
	O459	O	1.217284	1.015692	-0.038470
	H460	H	1.213809	1.022153	-0.025902
	H461	H	1.228094	0.997412	-0.061564
	O462	O	1.221260	-0.232390	-0.030580
	H463	H	1.224302	-0.231069	-0.067108
	H464	H	1.245056	-0.258521	-0.029708
	O465	O	1.047748	-0.001956	0.089448
	H466	H	1.052276	-0.003444	0.090387
	H467	H	1.043589	-0.011936	0.077817
	O468	O	0.700644	0.694679	0.718401
	H469	H	0.720127	0.724679	0.742914
	H470	H	0.693362	0.706804	0.696407
	O471	O	0.309004	0.542834	0.547873
	H472	H	0.323791	0.532446	0.537437
	H473	H	0.297226	0.554285	0.545916
	O474	O	0.287246	0.273039	0.292658
	H475	H	0.255100	0.254818	0.264758
	H476	H	0.298233	0.296224	0.308906
	O477	O	0.548131	0.438408	1.500686
	H478	H	0.548492	0.442143	1.488081
	H479	H	0.537458	0.439244	1.494999
	O480	O	-0.091011	0.770435	-0.059902
	H481	H	-0.073291	0.766685	-0.056772
	H482	H	-0.085419	0.793625	-0.047620
	O483	O	0.713664	0.466437	0.283768
	H484	H	0.731860	0.458559	0.288642
	H485	H	0.727409	0.445632	0.276080
	O486	O	0.462169	0.709365	0.283941
	H487	H	0.460999	0.713537	0.280549
	H488	H	0.469454	0.712624	0.267643
	O489	O	1.085740	1.149999	-0.031501
	H490	H	1.074808	1.151874	-0.013629
	H491	H	1.078483	1.142811	-0.025892
	O492	O	-0.289364	0.271118	0.289743
	H493	H	-0.302976	0.277723	0.306971
	H494	H	-0.297407	0.277305	0.304223
	O495	O	0.179396	0.803285	1.191610
	H496	H	0.180445	0.789982	1.202734
	H497	H	0.177211	0.831232	1.181193
	O498	O	0.782224	1.028403	0.782321
	H499	H	0.764193	1.029230	0.770190
	H500	H	0.786330	1.038214	0.787365
	O501	O	0.787100	0.203197	0.790350
	H502	H	0.755080	0.234161	0.757210
	H503	H	0.808171	0.181731	0.787231
