data_Molecule from HDF5

_cell_length_a		16.423627
_cell_length_b		16.469260
_cell_length_c		16.578819
_cell_angle_alpha	90.117684
_cell_angle_beta	90.041080
_cell_angle_gamma	90.060186
_symmetry_space_group_name_H-M	'P 1'
_symmetry_Int_Tables_number		1

loop_
	_symmetry_equiv_pos_as_xyz
	x,y,z

loop_
	_atom_site_label
	_atom_site_type_symbol
	_atom_site_fract_x
	_atom_site_fract_y
	_atom_site_fract_z
	H0	H	0.387793	0.852061	0.720248
	H1	H	0.601737	0.165626	0.726783
	H2	H	0.599482	0.852758	0.277874
	H3	H	0.385168	0.166496	0.277996
	H4	H	0.713384	0.403922	0.844420
	H5	H	0.713156	0.615361	0.159361
	H6	H	0.268298	0.614940	0.845583
	H7	H	0.266973	0.401573	0.157518
	H8	H	0.834398	0.732663	0.396297
	H9	H	0.149533	0.731145	0.606314
	H10	H	0.835637	0.285423	0.608862
	H11	H	0.151354	0.289998	0.396144
	H12	H	0.833260	0.403772	0.722773
	H13	H	0.149281	0.616184	0.723597
	H14	H	0.834462	0.619101	0.278072
	H15	H	0.147732	0.402496	0.276500
	H16	H	0.384048	0.732173	0.845874
	H17	H	0.598188	0.732555	0.158430
	H18	H	0.597572	0.286775	0.844244
	H19	H	0.383478	0.285738	0.157560
	H20	H	0.713253	0.851794	0.396055
	H21	H	0.713732	0.168244	0.606863
	H22	H	0.275127	0.850187	0.600238
	H23	H	0.269740	0.167596	0.393948
	H24	H	0.883685	0.354726	0.226617
	H25	H	0.101110	0.665289	0.226890
	H26	H	0.100632	0.354007	0.775534
	H27	H	0.883284	0.666712	0.778809
	H28	H	0.211739	0.905557	0.344325
	H29	H	0.216823	0.116322	0.657868
	H30	H	0.769666	0.116200	0.346879
	H31	H	0.765828	0.900587	0.656892
	H32	H	0.333558	0.231870	0.893882
	H33	H	0.648646	0.233113	0.107116
	H34	H	0.335001	0.787376	0.106367
	H35	H	0.648842	0.784889	0.892966
	H36	H	0.334325	0.904502	0.221665
	H37	H	0.647923	0.118804	0.225889
	H38	H	0.334395	0.116449	0.777254
	H39	H	0.648661	0.898507	0.775166
	H40	H	0.888934	0.232194	0.346193
	H41	H	0.101726	0.233660	0.658249
	H42	H	0.097771	0.785794	0.346800
	H43	H	0.882016	0.785428	0.657092
	H44	H	0.215343	0.352586	0.892006
	H45	H	0.216105	0.665367	0.108906
	H46	H	0.770557	0.352630	0.105994
	H47	H	0.768950	0.667505	0.895963
	H48	H	0.403548	0.121800	0.584637
	H49	H	0.572080	0.900657	0.589319
	H50	H	0.580531	0.122825	0.412595
	H51	H	0.399405	0.895607	0.411639
	H52	H	0.580309	0.416165	0.114773
	H53	H	0.585677	0.597835	0.888591
	H54	H	0.403361	0.601087	0.114413
	H55	H	0.395340	0.420458	0.887415
	H56	H	0.102612	0.596816	0.417651
	H57	H	0.876333	0.600091	0.595092
	H58	H	0.103380	0.425266	0.589102
	H59	H	0.881583	0.423244	0.418253
	H60	H	0.104452	0.424484	0.593434
	H61	H	0.878202	0.600280	0.587972
	H62	H	0.103065	0.594228	0.413196
	H63	H	0.880168	0.424272	0.411501
	H64	H	0.401338	0.594158	0.112454
	H65	H	0.578264	0.593982	0.892622
	H66	H	0.584078	0.422672	0.114145
	H67	H	0.406215	0.426982	0.893384
	H68	H	0.579098	0.121854	0.411998
	H69	H	0.581829	0.899880	0.582179
	H70	H	0.402530	0.124889	0.592910
	H71	H	0.402650	0.895055	0.406474
	H72	H	0.905418	0.622232	0.092381
	H73	H	0.077067	0.399748	0.085933
	H74	H	0.086874	0.622909	0.916181
	H75	H	0.901500	0.396527	0.910153
	H76	H	0.087892	0.924538	0.615117
	H77	H	0.078196	0.096119	0.393017
	H78	H	0.906097	0.095221	0.612163
	H79	H	0.898956	0.923445	0.389483
	H80	H	0.601924	0.091052	0.912146
	H81	H	0.380697	0.098044	0.086171
	H82	H	0.602728	0.929333	0.090005
	H83	H	0.380539	0.922841	0.911140
	H84	H	0.608620	0.918653	0.094805
	H85	H	0.379542	0.093193	0.091688
	H86	H	0.606242	0.100400	0.910412
	H87	H	0.379547	0.921037	0.912457
	H88	H	0.908287	0.098775	0.613847
	H89	H	0.080095	0.108335	0.387936
	H90	H	0.077210	0.925945	0.610316
	H91	H	0.907825	0.927154	0.393668
	H92	H	0.076258	0.622911	0.905948
	H93	H	0.078012	0.397389	0.090532
	H94	H	0.903842	0.621892	0.088327
	H95	H	0.906582	0.398374	0.911317
	H96	H	0.410652	0.121308	0.590572
	H97	H	0.582076	0.895082	0.593390
	H98	H	0.579657	0.121403	0.413799
	H99	H	0.405156	0.897587	0.411593
	H100	H	0.577181	0.422598	0.111402
	H101	H	0.577825	0.602450	0.888976
	H102	H	0.408601	0.597173	0.111014
	H103	H	0.407642	0.413672	0.889189
	H104	H	0.104440	0.599405	0.413399
	H105	H	0.879518	0.593946	0.591863
	H106	H	0.105617	0.421400	0.589933
	H107	H	0.878204	0.418282	0.413962
	H108	H	0.901828	0.623249	0.091390
	H109	H	0.073471	0.399199	0.089918
	H110	H	0.073588	0.617295	0.918682
	H111	H	0.902540	0.399002	0.915131
	H112	H	0.080243	0.916077	0.615382
	H113	H	0.089696	0.099045	0.387220
	H114	H	0.903502	0.098641	0.614383
	H115	H	0.907003	0.917141	0.390463
	H116	H	0.602269	0.098160	0.919634
	H117	H	0.376636	0.100130	0.092212
	H118	H	0.604535	0.918791	0.082332
	H119	H	0.381540	0.922523	0.913187
	C120	C	0.372480	0.018318	0.620892
	C121	C	0.613690	1.001664	0.622611
	C122	C	0.613435	0.018234	0.379676
	C123	C	0.369977	1.000722	0.377900
	C124	C	0.613119	0.387757	0.009835
	C125	C	0.613750	0.631191	0.993356
	C126	C	0.370251	0.630444	0.009891
	C127	C	0.369389	0.387153	0.993049
	C128	C	-0.000498	0.630443	0.381657
	C129	C	0.982315	0.632014	0.624163
	C130	C	0.000592	0.389489	0.623495
	C131	C	0.984228	0.389415	0.381026
	C132	C	0.869921	0.519306	0.124051
	C133	C	0.111323	0.501919	0.122257
	C134	C	0.112474	0.517790	0.879792
	C135	C	0.870318	0.502005	0.880157
	C136	C	0.113091	0.889147	0.510086
	C137	C	0.116109	0.133465	0.492855
	C138	C	0.872533	0.130844	0.510638
	C139	C	0.870296	0.888686	0.493661
	C140	C	0.499551	0.129865	0.880208
	C141	C	0.482964	0.130895	0.122650
	C142	C	0.500871	0.889478	0.121598
	C143	C	0.483825	0.887788	0.878707
	C144	C	0.369684	0.899200	0.679996
	C145	C	0.618980	0.118977	0.685343
	C146	C	0.617072	0.899764	0.318686
	C147	C	0.367454	0.119331	0.318013
	C148	C	0.673492	0.385342	0.891672
	C149	C	0.673908	0.634053	0.111663
	C150	C	0.308877	0.633031	0.892545
	C151	C	0.307959	0.383953	0.110599
	C152	C	0.881302	0.692153	0.378358
	C153	C	0.101666	0.692260	0.626015
	C154	C	0.882331	0.327136	0.626316
	C155	C	0.103368	0.329794	0.378214
	C156	C	0.881284	0.385833	0.683114
	C157	C	0.101331	0.634875	0.684128
	C158	C	0.881501	0.635619	0.319397
	C159	C	0.101513	0.385313	0.318148
	C160	C	0.366417	0.691563	0.892726
	C161	C	0.616301	0.692202	0.111433
	C162	C	0.615778	0.326917	0.891683
	C163	C	0.365914	0.326144	0.110568
	C164	C	0.673681	0.899456	0.377721
	C165	C	0.674494	0.120367	0.625418
	C166	C	0.313564	0.898437	0.620536
	C167	C	0.309800	0.119666	0.375915
	C168	C	0.865891	0.401474	0.185417
	C169	C	0.117546	0.618714	0.185183
	C170	C	0.117093	0.400523	0.816986
	C171	C	0.866182	0.619772	0.819302
	C172	C	0.172150	0.886763	0.391809
	C173	C	0.176913	0.135222	0.610782
	C174	C	0.811059	0.134305	0.393063
	C175	C	0.807138	0.883546	0.610173
	C176	C	0.380829	0.191130	0.876510
	C177	C	0.601394	0.192867	0.125759
	C178	C	0.381966	0.828411	0.124249
	C179	C	0.601929	0.825863	0.875477
	C180	C	0.381992	0.886440	0.181846
	C181	C	0.600992	0.135917	0.184523
	C182	C	0.381279	0.133480	0.818445
	C183	C	0.601593	0.882638	0.816660
	C184	C	0.870011	0.191788	0.392851
	C185	C	0.119513	0.193630	0.610905
	C186	C	0.115766	0.827095	0.393166
	C187	C	0.865101	0.826073	0.610390
	C188	C	0.174271	0.399844	0.875291
	C189	C	0.174854	0.618719	0.126785
	C190	C	0.809764	0.400305	0.125621
	C191	C	0.809264	0.620068	0.877833
	C192	C	0.398234	0.100908	0.596471
	C193	C	0.586779	0.919844	0.595852
	C194	C	0.587116	0.100547	0.405152
	C195	C	0.395258	0.917897	0.402778
	C196	C	0.587718	0.413052	0.091774
	C197	C	0.588096	0.605461	0.911507
	C198	C	0.396795	0.604803	0.091378
	C199	C	0.395551	0.412858	0.911389
	C200	C	0.081758	0.604145	0.407304
	C201	C	0.899607	0.605934	0.598848
	C202	C	0.082937	0.416051	0.598122
	C203	C	0.901506	0.414643	0.407085
	C204	C	0.896200	0.601321	0.097923
	C205	C	0.083871	0.420116	0.096115
	C206	C	0.086297	0.599868	0.906238
	C207	C	0.896197	0.419333	0.905221
	C208	C	0.088540	0.914766	0.592302
	C209	C	0.090176	0.108350	0.410707
	C210	C	0.898521	0.104827	0.592196
	C211	C	0.896874	0.915054	0.412432
	C212	C	0.581928	0.103881	0.906556
	C213	C	0.400493	0.104714	0.097122
	C214	C	0.583681	0.915103	0.096380
	C215	C	0.401945	0.914531	0.904905
	Zn216	Zn	0.492183	0.009739	0.750879
	Zn217	Zn	0.492464	0.009620	0.250921
	Zn218	Zn	0.742260	0.509786	0.001496
	Zn219	Zn	0.241011	0.508776	0.001671
	Zn220	Zn	-0.008732	0.759426	0.502291
	Zn221	Zn	-0.006755	0.261287	0.502610
	Zn222	Zn	-0.009066	0.510043	0.751856
	Zn223	Zn	-0.008733	0.510528	0.252547
	Zn224	Zn	0.492394	0.760033	0.001173
	Zn225	Zn	0.490924	0.258715	0.001044
	Zn226	Zn	0.741749	0.010031	0.501580
	Zn227	Zn	0.243017	0.010146	0.500969
	N228	N	0.405369	0.974751	0.680565
	N229	N	0.582165	0.044067	0.684046
	N230	N	0.580569	0.974843	0.319543
	N231	N	0.403963	0.044260	0.319109
	N232	N	0.672288	0.422075	0.966102
	N233	N	0.672669	0.597012	0.037253
	N234	N	0.311281	0.595679	0.966510
	N235	N	0.309892	0.420982	0.036409
	N236	N	0.955659	0.689092	0.416386
	N237	N	0.026482	0.690619	0.589645
	N238	N	0.957483	0.329240	0.590115
	N239	N	0.029235	0.332171	0.416694
	N240	N	0.955866	0.423836	0.681536
	N241	N	0.026006	0.598432	0.683374
	N242	N	0.955938	0.598000	0.321385
	N243	N	0.026365	0.421758	0.319993
	N244	N	0.403904	0.690262	0.966771
	N245	N	0.579951	0.690869	0.036701
	N246	N	0.579046	0.328052	0.966291
	N247	N	0.403257	0.327914	0.036474
	N248	N	0.671527	0.974042	0.414932
	N249	N	0.671374	0.046076	0.587558
	N250	N	0.314990	0.973615	0.584657
	N251	N	0.311218	0.044750	0.412452
	N252	N	0.902182	0.476662	0.184651
	N253	N	0.078592	0.545078	0.182336
	N254	N	0.079432	0.474907	0.819702
	N255	N	0.903472	0.545238	0.820991
	N256	N	0.170680	0.924644	0.465506
	N257	N	0.175095	0.098791	0.536264
	N258	N	0.812551	0.097189	0.467128
	N259	N	0.810301	0.921963	0.536752
	N260	N	0.455399	0.188911	0.914383
	N261	N	0.526984	0.189928	0.088043
	N262	N	0.456938	0.830161	0.087347
	N263	N	0.527623	0.828686	0.913352
	N264	N	0.456989	0.923336	0.180284
	N265	N	0.526365	0.098392	0.182731
	N266	N	0.456102	0.096356	0.820640
	N267	N	0.527213	0.920756	0.818846
	N268	N	0.907481	0.189710	0.466912
	N269	N	0.082570	0.192783	0.536409
	N270	N	0.079780	0.828448	0.467810
	N271	N	0.903827	0.829051	0.537053
	N272	N	0.171394	0.473755	0.913991
	N273	N	0.170883	0.545068	0.088106
	N274	N	0.812272	0.474588	0.088025
	N275	N	0.811948	0.545775	0.915226
	O276	O	0.982706	0.047213	0.013245
	H277	H	0.985966	0.043132	0.001731
	H278	H	0.991026	0.055445	0.007031
	O279	O	0.611335	0.424216	0.649234
	H280	H	0.621085	0.421706	0.635865
	H281	H	0.591039	0.425765	0.635817
	O282	O	0.807827	0.826714	0.182511
	H283	H	0.836599	0.829873	0.198323
	H284	H	0.815941	0.858135	0.195312
	O285	O	0.608262	0.304508	0.293569
	H286	H	0.626001	0.276835	0.264354
	H287	H	0.591434	0.313084	0.284469
	O288	O	0.168096	-0.009370	0.158540
	H289	H	0.162964	0.002741	0.157356
	H290	H	0.159888	-0.022000	0.131728
	O291	O	0.970994	0.809037	0.202365
	H292	H	0.974487	0.796734	0.217508
	H293	H	0.997128	0.822438	0.188783
	O294	O	-0.194689	1.199834	-0.187399
	H295	H	-0.172156	1.179479	-0.198815
	H296	H	-0.183708	1.183187	-0.201871
	O297	O	0.671916	0.526658	0.471567
	H298	H	0.664045	0.524853	0.462132
	H299	H	0.663036	0.536018	0.470278
	O300	O	0.592202	0.340524	0.610209
	H301	H	0.601746	0.327447	0.603028
	H302	H	0.585893	0.346489	0.624926
	O303	O	0.310448	0.329002	0.689203
	H304	H	0.322558	0.364173	0.695194
	H305	H	0.297528	0.316020	0.639617
	O306	O	-0.221871	1.029401	1.125454
	H307	H	-0.214027	1.033725	1.107758
	H308	H	-0.238901	1.049100	1.111298
	O309	O	0.675831	0.698744	0.677008
	H310	H	0.683637	0.690667	0.645224
	H311	H	0.685653	0.665438	0.674343
	O312	O	0.553674	0.687004	0.441428
	H313	H	0.527214	0.680834	0.454793
	H314	H	0.536189	0.686327	0.411564
	O315	O	0.176298	0.199779	1.181974
	H316	H	0.187075	0.147767	1.191591
	H317	H	0.124538	0.207676	1.194428
	O318	O	0.044187	0.825871	0.047343
	H319	H	0.048738	0.823562	0.044269
	H320	H	0.051419	0.823902	0.029601
	O321	O	0.462773	0.615629	0.518085
	H322	H	0.484164	0.609021	0.525003
	H323	H	0.453117	0.610287	0.511496
	O324	O	0.772388	0.230838	0.972383
	H325	H	0.738819	0.265553	0.962486
	H326	H	0.782477	0.223373	0.926733
	O327	O	1.016333	0.055974	0.777734
	H328	H	1.011863	0.043742	0.784454
	H329	H	1.004476	0.035276	0.775252
	O330	O	0.905890	-0.084958	-0.213614
	H331	H	0.912718	-0.098326	-0.184537
	H332	H	0.873202	-0.079940	-0.223917
	O333	O	0.769493	0.955274	0.931392
	H334	H	0.790513	0.937490	0.941281
	H335	H	0.770425	0.941599	0.950880
	O336	O	1.124162	0.015134	1.222830
	H337	H	1.116265	0.000808	1.218271
	H338	H	1.131644	0.025559	1.247180
	O339	O	0.276854	0.296511	0.527563
	H340	H	0.257071	0.270782	0.521366
	H341	H	0.293854	0.290765	0.507813
	O342	O	0.542340	0.448753	0.483781
	H343	H	0.552726	0.445473	0.473368
	H344	H	0.556964	0.444137	0.474706
	O345	O	-0.143142	0.149821	0.057393
	H346	H	-0.129497	0.157804	0.029634
	H347	H	-0.145453	0.156211	0.035551
	O348	O	0.968151	0.213105	0.804659
	H349	H	0.977965	0.218855	0.779048
	H350	H	0.983574	0.202420	0.809499
	O351	O	0.924256	0.793815	-0.058310
	H352	H	0.905675	0.789047	-0.039617
	H353	H	0.932038	0.782998	-0.055213
	O354	O	0.472930	0.291335	0.361849
	H355	H	0.475504	0.301620	0.365317
	H356	H	0.479723	0.270945	0.340674
	O357	O	0.771568	0.791859	1.026018
	H358	H	0.749380	0.770983	1.048601
	H359	H	0.770910	0.786752	1.059181
	O360	O	0.701508	0.299476	0.475952
	H361	H	0.711067	0.291782	0.444618
	H362	H	0.704770	0.287950	0.457411
	O363	O	0.543919	0.554331	0.577570
	H364	H	0.552583	0.546961	0.568471
	H365	H	0.564156	0.554068	0.578010
	O366	O	1.012490	0.214693	1.207950
	H367	H	0.997934	0.224311	1.196394
	H368	H	1.001789	0.221561	1.202485
	O369	O	0.341080	0.441685	0.332064
	H370	H	0.326671	0.459567	0.341708
	H371	H	0.338614	0.457193	0.337301
	O372	O	0.471095	0.298714	0.714734
	H373	H	0.468514	0.268914	0.742878
	H374	H	0.445383	0.320099	0.707291
	O375	O	0.200716	0.987119	0.788946
	H376	H	0.208249	0.995905	0.779168
	H377	H	0.208229	0.965143	0.796987
	O378	O	0.805843	0.186664	0.188271
	H379	H	0.815462	0.167829	0.168662
	H380	H	0.827624	0.179991	0.171052
	O381	O	1.141820	-0.194382	0.158550
	H382	H	1.144851	-0.175995	0.137434
	H383	H	1.131349	-0.191707	0.151457
	O384	O	0.209201	0.231903	1.022454
	H385	H	0.237503	0.259056	1.036231
	H386	H	0.207776	0.229495	1.066436
	O387	O	0.017652	0.796798	0.782239
	H388	H	0.011091	0.772258	0.755292
	H389	H	0.002084	0.807309	0.787332
	O390	O	0.049439	-0.042117	0.963287
	H391	H	0.053349	-0.049058	0.964592
	H392	H	0.060813	-0.034165	0.961078
	O393	O	0.775033	1.034507	-0.219618
	H394	H	0.732666	1.036822	-0.251882
	H395	H	0.769737	1.007047	-0.180669
	O396	O	0.672810	0.529944	0.340167
	H397	H	0.682026	0.539610	0.334820
	H398	H	0.679907	0.557081	0.333240
	O399	O	0.349508	0.576279	0.667160
	H400	H	0.370197	0.552631	0.668041
	H401	H	0.339062	0.586598	0.691565
	O402	O	0.051615	0.233780	0.943205
	H403	H	0.098421	0.240729	0.956553
	H404	H	0.045762	0.225843	0.916244
	O405	O	0.159561	0.001338	0.019155
	H406	H	0.156467	0.012582	0.000136
	H407	H	0.163220	-0.010939	-0.000953
	O408	O	0.694469	0.543150	0.714088
	H409	H	0.718996	0.532883	0.724112
	H410	H	0.677644	0.519692	0.709068
	O411	O	0.298204	0.522610	0.633241
	H412	H	0.295333	0.524115	0.640856
	H413	H	0.312820	0.517740	0.631275
	O414	O	0.301690	0.703606	0.303532
	H415	H	0.298534	0.696307	0.337588
	H416	H	0.275830	0.730178	0.300366
	O417	O	0.291813	0.651295	0.559957
	H418	H	0.292995	0.645895	0.557273
	H419	H	0.297964	0.627203	0.562311
	O420	O	0.516233	0.545881	0.291299
	H421	H	0.506200	0.547929	0.293218
	H422	H	0.516805	0.552324	0.291871
	O423	O	-0.033238	1.007557	0.203714
	H424	H	-0.047017	1.006402	0.188363
	H425	H	-0.049575	1.009264	0.208595
	O426	O	0.999686	1.097304	0.981609
	H427	H	0.979220	1.102637	0.963531
	H428	H	1.008251	1.093298	0.955292
	O429	O	0.472368	0.723308	0.298581
	H430	H	0.448294	0.732293	0.295900
	H431	H	0.450844	0.735919	0.289370
	O432	O	0.518314	0.464892	0.368790
	H433	H	0.518060	0.476334	0.371619
	H434	H	0.502358	0.458159	0.347584
	O435	O	0.288230	-0.359596	0.399641
	H436	H	0.276956	-0.357374	0.401309
	H437	H	0.305093	-0.376067	0.411345
	O438	O	0.867376	0.007358	0.158926
	H439	H	0.858885	0.008086	0.169908
	H440	H	0.870909	0.014125	0.151764
	O441	O	0.426074	0.576096	0.711714
	H442	H	0.438097	0.570948	0.702903
	H443	H	0.436639	0.573627	0.702449
	O444	O	0.200033	0.808372	0.794623
	H445	H	0.188666	0.824325	0.791419
	H446	H	0.199889	0.783898	0.776359
	O447	O	0.498170	0.688257	0.712764
	H448	H	0.522212	0.707470	0.722858
	H449	H	0.508026	0.690758	0.715898
	O450	O	0.378198	0.383121	0.476825
	H451	H	0.385845	0.362105	0.480909
	H452	H	0.394055	0.384975	0.473198
	O453	O	0.694696	0.398849	0.304281
	H454	H	0.696021	0.408136	0.296733
	H455	H	0.714459	0.388630	0.285052
	O456	O	1.172124	0.096621	-0.108876
	H457	H	1.166724	0.112312	-0.104939
	H458	H	1.171795	0.090920	-0.113957
	O459	O	0.668839	0.687578	0.522163
	H460	H	0.654672	0.698244	0.511553
	H461	H	0.666324	0.691036	0.510043
	O462	O	0.359625	0.492179	0.406529
	H463	H	0.368467	0.482295	0.401749
	H464	H	0.345491	0.485601	0.403881
	O465	O	1.203236	-0.201780	-0.022559
	H466	H	1.231568	-0.221107	-0.034149
	H467	H	1.193042	-0.191258	-0.041946
