data_Molecule from HDF5

_cell_length_a		16.372795
_cell_length_b		16.218961
_cell_length_c		16.264640
_cell_angle_alpha	89.935762
_cell_angle_beta	89.999610
_cell_angle_gamma	90.017561
_symmetry_space_group_name_H-M	'P 1'
_symmetry_Int_Tables_number		1

loop_
	_symmetry_equiv_pos_as_xyz
	x,y,z

loop_
	_atom_site_label
	_atom_site_type_symbol
	_atom_site_fract_x
	_atom_site_fract_y
	_atom_site_fract_z
	H0	H	0.402185	0.840974	0.708590
	H1	H	0.597925	0.169864	0.707935
	H2	H	0.598789	0.841118	0.280541
	H3	H	0.402491	0.169862	0.280521
	H4	H	0.715544	0.406798	0.831161
	H5	H	0.716927	0.606680	0.157675
	H6	H	0.284614	0.606608	0.831133
	H7	H	0.285010	0.404971	0.157301
	H8	H	0.836193	0.719607	0.395876
	H9	H	0.161922	0.721422	0.593683
	H10	H	0.837025	0.290620	0.592338
	H11	H	0.162650	0.290224	0.395738
	H12	H	0.837920	0.405578	0.709691
	H13	H	0.162927	0.604497	0.709158
	H14	H	0.837636	0.604455	0.277353
	H15	H	0.162630	0.406179	0.279339
	H16	H	0.403110	0.719501	0.830730
	H17	H	0.597757	0.718273	0.159043
	H18	H	0.598662	0.292491	0.830546
	H19	H	0.403996	0.292810	0.158735
	H20	H	0.715710	0.842079	0.394630
	H21	H	0.714560	0.169740	0.593769
	H22	H	0.283871	0.842437	0.595285
	H23	H	0.283953	0.168866	0.393115
	H24	H	0.902473	0.341672	0.206884
	H25	H	0.098045	0.670241	0.207590
	H26	H	0.097556	0.341035	0.780462
	H27	H	0.902503	0.669923	0.780295
	H28	H	0.216242	0.905382	0.331387
	H29	H	0.215861	0.105543	0.657641
	H30	H	0.786261	0.103165	0.330522
	H31	H	0.785020	0.906330	0.657707
	H32	H	0.337609	0.221121	0.896150
	H33	H	0.664045	0.219276	0.091967
	H34	H	0.336734	0.791467	0.092764
	H35	H	0.663902	0.792039	0.897670
	H36	H	0.337664	0.907267	0.210267
	H37	H	0.663010	0.104134	0.209774
	H38	H	0.337176	0.104872	0.779612
	H39	H	0.663584	0.907723	0.780168
	H40	H	0.903540	0.217718	0.330101
	H41	H	0.095914	0.218016	0.659069
	H42	H	0.096579	0.792591	0.330004
	H43	H	0.902872	0.792448	0.658586
	H44	H	0.215277	0.341357	0.895393
	H45	H	0.214334	0.669971	0.092302
	H46	H	0.785701	0.342600	0.093600
	H47	H	0.786144	0.669585	0.895145
	H48	H	0.406126	0.121109	0.580529
	H49	H	0.601500	0.884153	0.596042
	H50	H	0.599324	0.123416	0.404134
	H51	H	0.404818	0.886358	0.396554
	H52	H	0.591514	0.421053	0.108754
	H53	H	0.596651	0.588960	0.879778
	H54	H	0.403895	0.593780	0.111594
	H55	H	0.413687	0.411254	0.878720
	H56	H	0.116020	0.599053	0.400076
	H57	H	0.884767	0.602905	0.580974
	H58	H	0.115738	0.410160	0.585657
	H59	H	0.884600	0.412861	0.400351
	H60	H	0.114180	0.415045	0.585415
	H61	H	0.886231	0.590981	0.587480
	H62	H	0.114905	0.599586	0.401915
	H63	H	0.883314	0.411422	0.397802
	H64	H	0.410811	0.597404	0.109132
	H65	H	0.584283	0.602131	0.880182
	H66	H	0.588298	0.406600	0.111179
	H67	H	0.402051	0.409626	0.875121
	H68	H	0.591505	0.123004	0.396702
	H69	H	0.583030	0.890786	0.590629
	H70	H	0.404061	0.124315	0.591473
	H71	H	0.415663	0.891682	0.403703
	H72	H	0.909101	0.623522	0.088131
	H73	H	0.103789	0.387364	0.081270
	H74	H	0.084464	0.616320	0.910317
	H75	H	0.901126	0.386860	0.902478
	H76	H	0.108082	0.915858	0.615023
	H77	H	0.094693	0.096135	0.378396
	H78	H	0.902014	0.100704	0.613830
	H79	H	0.903034	0.907703	0.375016
	H80	H	0.618375	0.104851	0.899415
	H81	H	0.386297	0.095113	0.086899
	H82	H	0.617524	0.903240	0.085156
	H83	H	0.385633	0.911955	0.906179
	H84	H	0.612548	0.918895	0.082802
	H85	H	0.383443	0.099774	0.091297
	H86	H	0.614125	0.098674	0.907269
	H87	H	0.384983	0.916395	0.897170
	H88	H	0.905669	0.093804	0.610110
	H89	H	0.090543	0.096781	0.378909
	H90	H	0.084697	0.926488	0.603523
	H91	H	0.902917	0.918908	0.377964
	H92	H	0.107116	0.624870	0.905236
	H93	H	0.094481	0.385323	0.097738
	H94	H	0.909275	0.622161	0.084112
	H95	H	0.908733	0.387509	0.896164
	H96	H	0.414744	0.121337	0.588853
	H97	H	0.597683	0.890283	0.576902
	H98	H	0.589231	0.119993	0.406934
	H99	H	0.403631	0.889837	0.409961
	H100	H	0.602053	0.411941	0.113888
	H101	H	0.600862	0.605512	0.874001
	H102	H	0.404815	0.601370	0.112326
	H103	H	0.406359	0.420704	0.879633
	H104	H	0.115472	0.597642	0.401014
	H105	H	0.881687	0.602021	0.594263
	H106	H	0.116487	0.412800	0.589727
	H107	H	0.883121	0.410090	0.400468
	H108	H	0.905416	0.623784	0.085524
	H109	H	0.085179	0.392318	0.082336
	H110	H	0.089357	0.624867	0.888062
	H111	H	0.910055	0.390700	0.905539
	H112	H	0.085206	0.900366	0.612566
	H113	H	0.093357	0.100003	0.377543
	H114	H	0.909862	0.100966	0.610568
	H115	H	0.912188	0.912285	0.379043
	H116	H	0.616397	0.093808	0.897044
	H117	H	0.384944	0.102171	0.084798
	H118	H	0.618361	0.913858	0.097873
	H119	H	0.382352	0.906990	0.897859
	C120	C	0.379151	0.013966	0.615722
	C121	C	0.622171	0.996979	0.616333
	C122	C	0.621566	0.013768	0.373539
	C123	C	0.379180	0.997338	0.373714
	C124	C	0.622212	0.384728	0.002974
	C125	C	0.622435	0.627186	0.986325
	C126	C	0.378543	0.626795	0.002941
	C127	C	0.379258	0.384458	0.985970
	C128	C	0.007808	0.627445	0.372335
	C129	C	0.991506	0.627734	0.616529
	C130	C	0.008280	0.383814	0.615310
	C131	C	0.991386	0.383128	0.371835
	C132	C	0.879258	0.514689	0.114966
	C133	C	0.122192	0.497324	0.115316
	C134	C	0.121951	0.513872	0.872487
	C135	C	0.878860	0.496970	0.873134
	C136	C	0.121343	0.884615	0.502817
	C137	C	0.121301	0.126939	0.486217
	C138	C	0.877585	0.127214	0.503127
	C139	C	0.878351	0.884330	0.485731
	C140	C	0.508620	0.127895	0.872418
	C141	C	0.492519	0.127390	0.116118
	C142	C	0.508223	0.883722	0.116892
	C143	C	0.492383	0.883919	0.872904
	C144	C	0.381630	0.890294	0.671158
	C145	C	0.619039	0.120762	0.670619
	C146	C	0.619087	0.890278	0.318037
	C147	C	0.381767	0.120809	0.318241
	C148	C	0.677593	0.386606	0.879950
	C149	C	0.678209	0.625542	0.109084
	C150	C	0.323187	0.625880	0.879753
	C151	C	0.323784	0.385728	0.108797
	C152	C	0.885049	0.682023	0.375189
	C153	C	0.113492	0.683451	0.614349
	C154	C	0.885674	0.328488	0.612798
	C155	C	0.113960	0.327794	0.374829
	C156	C	0.886170	0.385585	0.671167
	C157	C	0.113919	0.625117	0.671658
	C158	C	0.885772	0.625015	0.316219
	C159	C	0.114027	0.385479	0.316977
	C160	C	0.382298	0.681797	0.879554
	C161	C	0.619231	0.681429	0.109773
	C162	C	0.619456	0.329804	0.879784
	C163	C	0.382644	0.329797	0.109451
	C164	C	0.677395	0.890785	0.374632
	C165	C	0.677039	0.120486	0.613619
	C166	C	0.322779	0.890914	0.614952
	C167	C	0.322778	0.120189	0.374082
	C168	C	0.882074	0.390773	0.169321
	C169	C	0.119017	0.620944	0.170169
	C170	C	0.118783	0.390199	0.817834
	C171	C	0.881771	0.620932	0.818110
	C172	C	0.177477	0.885651	0.379875
	C173	C	0.177266	0.125569	0.609004
	C174	C	0.823263	0.124313	0.379744
	C175	C	0.823057	0.886099	0.608912
	C176	C	0.386193	0.183035	0.875442
	C177	C	0.615233	0.181679	0.112804
	C178	C	0.385803	0.828637	0.114076
	C179	C	0.615144	0.829603	0.876458
	C180	C	0.385969	0.886348	0.172052
	C181	C	0.614931	0.124415	0.171301
	C182	C	0.385956	0.125195	0.817593
	C183	C	0.615006	0.886967	0.818018
	C184	C	0.881926	0.180613	0.379175
	C185	C	0.117795	0.181513	0.609660
	C186	C	0.118262	0.829673	0.379192
	C187	C	0.881305	0.829502	0.609425
	C188	C	0.177064	0.390202	0.875080
	C189	C	0.176843	0.620832	0.112852
	C190	C	0.823678	0.391479	0.113299
	C191	C	0.823906	0.620613	0.874952
	C192	C	0.401530	0.100058	0.593287
	C193	C	0.600477	0.910621	0.594463
	C194	C	0.599512	0.099934	0.395899
	C195	C	0.401552	0.911498	0.396789
	C196	C	0.600473	0.406800	0.089104
	C197	C	0.600477	0.605384	0.900225
	C198	C	0.400046	0.604112	0.088736
	C199	C	0.401037	0.407122	0.899989
	C200	C	0.093322	0.605228	0.394476
	C201	C	0.906173	0.605208	0.594160
	C202	C	0.093437	0.406152	0.593229
	C203	C	0.905939	0.404978	0.393288
	C204	C	0.901497	0.600791	0.092553
	C205	C	0.100825	0.410540	0.093585
	C206	C	0.100149	0.599924	0.894874
	C207	C	0.900318	0.410792	0.894939
	C208	C	0.099101	0.907451	0.588184
	C209	C	0.099355	0.104362	0.400357
	C210	C	0.899468	0.105071	0.589366
	C211	C	0.899768	0.906247	0.399634
	C212	C	0.594178	0.105627	0.894623
	C213	C	0.407014	0.105363	0.094127
	C214	C	0.594022	0.905520	0.094904
	C215	C	0.406462	0.905324	0.894224
	Zn216	Zn	0.500274	0.005716	0.743833
	Zn217	Zn	0.500403	0.005717	0.245603
	Zn218	Zn	0.750569	0.505863	-0.005329
	Zn219	Zn	0.250539	0.505590	-0.005778
	Zn220	Zn	-0.000590	0.756215	0.494307
	Zn221	Zn	-0.000749	0.254731	0.494219
	Zn222	Zn	-0.000368	0.505333	0.744802
	Zn223	Zn	0.000168	0.505269	0.243013
	Zn224	Zn	0.500342	0.754861	-0.005046
	Zn225	Zn	0.500776	0.256828	-0.005654
	Zn226	Zn	0.749722	0.005404	0.494423
	Zn227	Zn	0.250789	0.005619	0.494558
	N228	N	0.415994	0.967885	0.671715
	N229	N	0.585458	0.043103	0.672109
	N230	N	0.584994	0.967966	0.317452
	N231	N	0.416070	0.043475	0.317844
	N232	N	0.679239	0.420139	0.957594
	N233	N	0.680218	0.592531	0.031203
	N234	N	0.320806	0.592115	0.957413
	N235	N	0.321611	0.419132	0.031084
	N236	N	0.961986	0.683504	0.409309
	N237	N	0.036513	0.684864	0.580610
	N238	N	0.962572	0.327333	0.578810
	N239	N	0.036849	0.326319	0.408193
	N240	N	0.963305	0.419242	0.673017
	N241	N	0.036929	0.591046	0.672990
	N242	N	0.963136	0.591864	0.314237
	N243	N	0.036894	0.419103	0.314763
	N244	N	0.415956	0.682559	0.956998
	N245	N	0.585012	0.682423	0.032607
	N246	N	0.585788	0.328516	0.957266
	N247	N	0.416484	0.329074	0.032013
	N248	N	0.678963	0.968384	0.408281
	N249	N	0.679021	0.042483	0.580391
	N250	N	0.321152	0.968607	0.581278
	N251	N	0.321357	0.042512	0.408198
	N252	N	0.915971	0.468316	0.170348
	N253	N	0.085651	0.542976	0.171656
	N254	N	0.085389	0.467951	0.816244
	N255	N	0.915147	0.543104	0.816687
	N256	N	0.179313	0.919367	0.457437
	N257	N	0.179582	0.092278	0.531345
	N258	N	0.820948	0.091498	0.457741
	N259	N	0.821082	0.919404	0.531057
	N260	N	0.463464	0.184865	0.908784
	N261	N	0.538283	0.183586	0.079153
	N262	N	0.462975	0.827078	0.080567
	N263	N	0.538003	0.827580	0.909709
	N264	N	0.463196	0.919712	0.174129
	N265	N	0.537526	0.091295	0.173442
	N266	N	0.463104	0.091548	0.815746
	N267	N	0.537707	0.920253	0.815808
	N268	N	0.914616	0.182838	0.457033
	N269	N	0.083966	0.182534	0.532227
	N270	N	0.084109	0.828792	0.456466
	N271	N	0.915004	0.828481	0.531977
	N272	N	0.179290	0.468165	0.908300
	N273	N	0.178841	0.542931	0.079539
	N274	N	0.821841	0.469562	0.080199
	N275	N	0.821869	0.542802	0.908579
	O276	O	-0.572402	-0.506542	1.556167
	H277	H	-0.569589	-0.509206	1.544336
	H278	H	-0.591360	-0.513973	1.548728
	O279	O	0.466327	0.530161	0.511758
	H280	H	0.464577	0.532712	0.510714
	H281	H	0.470289	0.535594	0.505499
	O282	O	0.498221	0.503341	0.499584
	H283	H	0.492321	0.503781	0.513056
	H284	H	0.490706	0.503568	0.503618
	O285	O	0.465532	0.458574	0.527989
	H286	H	0.464405	0.447417	0.532641
	H287	H	0.474754	0.456626	0.543589
	O288	O	0.439511	0.453996	0.465046
	H289	H	0.448860	0.446861	0.459476
	H290	H	0.438118	0.459171	0.457646
	O291	O	0.463589	1.529162	1.524894
	H292	H	0.464534	1.533998	1.525658
	H293	H	0.451326	1.526256	1.519125
	O294	O	0.471451	0.477020	0.543537
	H295	H	0.471352	0.484627	0.548978
	H296	H	0.474656	0.484438	0.557857
	O297	O	1.397018	-0.485661	-0.481256
	H298	H	1.395952	-0.479235	-0.484634
	H299	H	1.396655	-0.493383	-0.490015
