data_Molecule from HDF5

_cell_length_a		16.310577
_cell_length_b		16.220346
_cell_length_c		16.212562
_cell_angle_alpha	89.863805
_cell_angle_beta	89.948477
_cell_angle_gamma	90.280826
_symmetry_space_group_name_H-M	'P 1'
_symmetry_Int_Tables_number		1

loop_
	_symmetry_equiv_pos_as_xyz
	x,y,z

loop_
	_atom_site_label
	_atom_site_type_symbol
	_atom_site_fract_x
	_atom_site_fract_y
	_atom_site_fract_z
	H0	H	0.401623	0.837439	0.709141
	H1	H	0.603041	0.165918	0.706246
	H2	H	0.599159	0.837573	0.279682
	H3	H	0.405236	0.166331	0.279355
	H4	H	0.719572	0.405177	0.831151
	H5	H	0.719351	0.602131	0.159385
	H6	H	0.288628	0.603899	0.832139
	H7	H	0.290785	0.402614	0.159543
	H8	H	0.839883	0.713425	0.396475
	H9	H	0.166100	0.719219	0.594792
	H10	H	0.840591	0.284073	0.596271
	H11	H	0.167255	0.287435	0.397069
	H12	H	0.841485	0.399822	0.713080
	H13	H	0.167625	0.600803	0.708224
	H14	H	0.841767	0.601167	0.278722
	H15	H	0.168225	0.403556	0.281789
	H16	H	0.409400	0.713610	0.829100
	H17	H	0.604874	0.718764	0.157646
	H18	H	0.602688	0.289758	0.829700
	H19	H	0.405701	0.286322	0.158917
	H20	H	0.717653	0.837937	0.390911
	H21	H	0.720429	0.164251	0.592949
	H22	H	0.287627	0.837164	0.592416
	H23	H	0.288489	0.164869	0.393422
	H24	H	0.906315	0.338108	0.208986
	H25	H	0.104432	0.666322	0.209012
	H26	H	0.104529	0.337874	0.780738
	H27	H	0.908421	0.665144	0.781004
	H28	H	0.215838	0.902663	0.329444
	H29	H	0.219860	0.101209	0.657617
	H30	H	0.790671	0.098981	0.329174
	H31	H	0.785666	0.899166	0.656548
	H32	H	0.340632	0.218056	0.893655
	H33	H	0.667626	0.215620	0.091681
	H34	H	0.341378	0.784706	0.092299
	H35	H	0.667972	0.788485	0.892369
	H36	H	0.339789	0.901839	0.207532
	H37	H	0.666270	0.102037	0.208496
	H38	H	0.339127	0.100442	0.778500
	H39	H	0.666287	0.903575	0.776292
	H40	H	0.905515	0.215911	0.330234
	H41	H	0.101672	0.214651	0.659321
	H42	H	0.098223	0.789184	0.329517
	H43	H	0.902683	0.786719	0.658247
	H44	H	0.220068	0.338519	0.896968
	H45	H	0.220677	0.666060	0.094611
	H46	H	0.787781	0.339856	0.098135
	H47	H	0.791890	0.665897	0.894816
	H48	H	0.409099	0.121428	0.594226
	H49	H	0.587192	0.883173	0.596512
	H50	H	0.599703	0.118761	0.401675
	H51	H	0.407747	0.884304	0.399674
	H52	H	0.600672	0.412762	0.112028
	H53	H	0.601819	0.598894	0.874830
	H54	H	0.408785	0.600036	0.115293
	H55	H	0.419887	0.406634	0.878511
	H56	H	0.119013	0.595069	0.406242
	H57	H	0.888790	0.594609	0.582334
	H58	H	0.118942	0.407248	0.584621
	H59	H	0.882943	0.397961	0.397747
	H60	H	0.118931	0.411771	0.587924
	H61	H	0.888396	0.587161	0.591419
	H62	H	0.121096	0.593931	0.398912
	H63	H	0.890861	0.408850	0.413727
	H64	H	0.410481	0.587363	0.110961
	H65	H	0.602165	0.592270	0.877984
	H66	H	0.591723	0.410474	0.109572
	H67	H	0.404661	0.406322	0.874884
	H68	H	0.597524	0.119083	0.398634
	H69	H	0.587494	0.889853	0.574111
	H70	H	0.420573	0.114899	0.581930
	H71	H	0.409434	0.884204	0.400185
	H72	H	0.916908	0.616651	0.080670
	H73	H	0.094749	0.385943	0.088552
	H74	H	0.104295	0.620920	0.901978
	H75	H	0.915636	0.384687	0.901758
	H76	H	0.093090	0.912005	0.609441
	H77	H	0.100854	0.090311	0.376894
	H78	H	0.905918	0.090282	0.611687
	H79	H	0.896253	0.903622	0.370533
	H80	H	0.618249	0.093085	0.901011
	H81	H	0.390706	0.085367	0.083494
	H82	H	0.616789	0.916710	0.082313
	H83	H	0.383883	0.897173	0.898597
	H84	H	0.621576	0.911686	0.093652
	H85	H	0.383753	0.095419	0.096247
	H86	H	0.620173	0.095849	0.895833
	H87	H	0.391695	0.909939	0.912518
	H88	H	0.912784	0.089376	0.609528
	H89	H	0.089737	0.093377	0.378931
	H90	H	0.096018	0.906558	0.612138
	H91	H	0.911346	0.919894	0.380723
	H92	H	0.096338	0.618689	0.897938
	H93	H	0.101244	0.384517	0.086431
	H94	H	0.905321	0.622356	0.087038
	H95	H	0.912332	0.387029	0.910490
	H96	H	0.403471	0.118920	0.578280
	H97	H	0.607241	0.881358	0.584156
	H98	H	0.595340	0.118449	0.401876
	H99	H	0.407699	0.883587	0.400641
	H100	H	0.598218	0.403819	0.113356
	H101	H	0.596299	0.595687	0.879182
	H102	H	0.420568	0.595146	0.109768
	H103	H	0.411010	0.419095	0.880600
	H104	H	0.122458	0.600589	0.402093
	H105	H	0.884838	0.598144	0.592827
	H106	H	0.120718	0.407485	0.589763
	H107	H	0.888705	0.418265	0.395428
	H108	H	0.916732	0.621106	0.095038
	H109	H	0.099558	0.382487	0.093095
	H110	H	0.097488	0.617993	0.906721
	H111	H	0.907617	0.383084	0.903588
	H112	H	0.099574	0.912056	0.611657
	H113	H	0.098202	0.101759	0.375346
	H114	H	0.911024	0.096369	0.612481
	H115	H	0.918604	0.897745	0.376029
	H116	H	0.620376	0.099490	0.900667
	H117	H	0.386332	0.101509	0.080147
	H118	H	0.621316	0.903283	0.083160
	H119	H	0.387761	0.916267	0.893401
	C120	C	0.381551	0.009786	0.614138
	C121	C	0.624110	0.992914	0.613911
	C122	C	0.624827	0.010116	0.371700
	C123	C	0.380950	0.992678	0.371389
	C124	C	0.625958	0.381012	0.003400
	C125	C	0.628495	0.624902	0.985779
	C126	C	0.384754	0.623031	0.003393
	C127	C	0.383073	0.380984	0.986537
	C128	C	0.012687	0.623920	0.373419
	C129	C	0.994980	0.623368	0.617239
	C130	C	0.012247	0.379073	0.617543
	C131	C	0.995637	0.379992	0.373596
	C132	C	0.883595	0.511586	0.117126
	C133	C	0.127295	0.493273	0.117710
	C134	C	0.127348	0.510525	0.873707
	C135	C	0.884274	0.493378	0.875275
	C136	C	0.123779	0.880929	0.502448
	C137	C	0.125248	0.123242	0.485798
	C138	C	0.881956	0.121550	0.502487
	C139	C	0.879885	0.878436	0.484727
	C140	C	0.511249	0.124520	0.870704
	C141	C	0.495018	0.123371	0.115441
	C142	C	0.512118	0.880479	0.114893
	C143	C	0.495742	0.880231	0.871807
	C144	C	0.382256	0.886435	0.670608
	C145	C	0.623241	0.116512	0.669235
	C146	C	0.620637	0.886624	0.316864
	C147	C	0.384434	0.116820	0.316624
	C148	C	0.681348	0.384532	0.879882
	C149	C	0.682774	0.623045	0.109751
	C150	C	0.328179	0.622248	0.880301
	C151	C	0.327956	0.382016	0.110244
	C152	C	0.889257	0.677082	0.375927
	C153	C	0.117478	0.680433	0.614688
	C154	C	0.889306	0.322842	0.616234
	C155	C	0.118390	0.325227	0.376479
	C156	C	0.889919	0.379884	0.674587
	C157	C	0.118548	0.621488	0.671022
	C158	C	0.890163	0.621018	0.317307
	C159	C	0.118894	0.382974	0.319101
	C160	C	0.388203	0.676939	0.878797
	C161	C	0.625585	0.680932	0.109032
	C162	C	0.623245	0.327066	0.879138
	C163	C	0.385087	0.324454	0.109978
	C164	C	0.679409	0.886726	0.372593
	C165	C	0.681619	0.115695	0.612776
	C166	C	0.325395	0.886265	0.612880
	C167	C	0.326343	0.116218	0.373086
	C168	C	0.885702	0.387576	0.172175
	C169	C	0.124753	0.617144	0.171845
	C170	C	0.124568	0.386982	0.818647
	C171	C	0.887283	0.616592	0.819062
	C172	C	0.178045	0.882827	0.378529
	C173	C	0.181757	0.121397	0.608764
	C174	C	0.827630	0.120025	0.378649
	C175	C	0.823976	0.879948	0.607899
	C176	C	0.388915	0.179822	0.873337
	C177	C	0.618448	0.178123	0.112220
	C178	C	0.389771	0.823431	0.112640
	C179	C	0.618793	0.826066	0.872827
	C180	C	0.388949	0.881673	0.169934
	C181	C	0.617672	0.121967	0.170779
	C182	C	0.388359	0.121312	0.816232
	C183	C	0.617922	0.883292	0.814852
	C184	C	0.885119	0.177864	0.379167
	C185	C	0.122763	0.177677	0.609779
	C186	C	0.119484	0.826473	0.378646
	C187	C	0.882330	0.824052	0.608724
	C188	C	0.182285	0.387324	0.876189
	C189	C	0.182793	0.616916	0.115123
	C190	C	0.826704	0.388448	0.116996
	C191	C	0.829609	0.616888	0.875795
	C192	C	0.404377	0.095979	0.591432
	C193	C	0.600752	0.907111	0.591360
	C194	C	0.603757	0.096369	0.394183
	C195	C	0.402046	0.906497	0.393654
	C196	C	0.603483	0.402600	0.089400
	C197	C	0.606699	0.602320	0.899656
	C198	C	0.406781	0.600620	0.089698
	C199	C	0.405305	0.404022	0.900413
	C200	C	0.098615	0.602649	0.395482
	C201	C	0.909536	0.600162	0.595404
	C202	C	0.097525	0.402152	0.594389
	C203	C	0.909758	0.401845	0.395647
	C204	C	0.906382	0.597388	0.094400
	C205	C	0.105090	0.406743	0.095685
	C206	C	0.105764	0.596957	0.895620
	C207	C	0.905609	0.407416	0.898528
	C208	C	0.102547	0.903610	0.588772
	C209	C	0.102957	0.101458	0.399447
	C210	C	0.903540	0.098706	0.588832
	C211	C	0.902070	0.900698	0.398184
	C212	C	0.597368	0.102695	0.892769
	C213	C	0.409114	0.100863	0.093050
	C214	C	0.597738	0.903673	0.092707
	C215	C	0.409998	0.901545	0.894746
	Zn216	Zn	0.502341	0.001762	0.742441
	Zn217	Zn	0.503050	0.002227	0.244129
	Zn218	Zn	0.755889	0.502586	-0.004027
	Zn219	Zn	0.255604	0.502521	-0.004322
	Zn220	Zn	0.002672	0.752141	0.494996
	Zn221	Zn	0.003299	0.250942	0.495322
	Zn222	Zn	0.004834	0.500916	0.746137
	Zn223	Zn	0.004748	0.502186	0.244854
	Zn224	Zn	0.505667	0.751255	-0.006604
	Zn225	Zn	0.503907	0.252266	-0.005511
	Zn226	Zn	0.752875	0.000517	0.492912
	Zn227	Zn	0.253040	0.001434	0.492895
	N228	N	0.416521	0.964269	0.671511
	N229	N	0.588257	0.039194	0.670197
	N230	N	0.587650	0.964374	0.316018
	N231	N	0.417827	0.039133	0.315577
	N232	N	0.683410	0.417122	0.958123
	N233	N	0.684683	0.588999	0.032084
	N234	N	0.325720	0.589630	0.958832
	N235	N	0.326793	0.416483	0.032569
	N236	N	0.966242	0.678929	0.410215
	N237	N	0.039614	0.681978	0.581998
	N238	N	0.966266	0.322313	0.581334
	N239	N	0.040593	0.323042	0.409574
	N240	N	0.967327	0.414121	0.675480
	N241	N	0.041577	0.586554	0.672869
	N242	N	0.968087	0.588656	0.315487
	N243	N	0.041458	0.416258	0.317108
	N244	N	0.422557	0.677583	0.956208
	N245	N	0.592676	0.682193	0.030925
	N246	N	0.589341	0.324862	0.956890
	N247	N	0.418653	0.323644	0.031989
	N248	N	0.682160	0.964602	0.406110
	N249	N	0.682471	0.037817	0.579209
	N250	N	0.324797	0.963932	0.578497
	N251	N	0.323963	0.038166	0.406459
	N252	N	0.920152	0.465064	0.172572
	N253	N	0.090989	0.539282	0.173528
	N254	N	0.091137	0.464716	0.817123
	N255	N	0.920586	0.538925	0.818504
	N256	N	0.180947	0.915780	0.456566
	N257	N	0.183448	0.088467	0.530578
	N258	N	0.825867	0.085519	0.456165
	N259	N	0.822340	0.913013	0.529679
	N260	N	0.466627	0.182103	0.906485
	N261	N	0.541007	0.179269	0.078399
	N262	N	0.467269	0.822385	0.079263
	N263	N	0.541768	0.824022	0.907490
	N264	N	0.466057	0.916659	0.171439
	N265	N	0.540049	0.088574	0.172727
	N266	N	0.465784	0.088001	0.814354
	N267	N	0.540403	0.916394	0.814012
	N268	N	0.918012	0.179107	0.457455
	N269	N	0.088548	0.178979	0.532261
	N270	N	0.086459	0.825215	0.456823
	N271	N	0.916225	0.822764	0.531088
	N272	N	0.184082	0.465142	0.909677
	N273	N	0.184475	0.538754	0.082155
	N274	N	0.825187	0.466392	0.083408
	N275	N	0.827577	0.539079	0.909979
	O276	O	0.012116	0.068128	-0.037416
	H277	H	0.014504	0.076137	-0.040429
	H278	H	0.013640	0.070778	-0.023950
	O279	O	0.577641	0.524944	0.382216
	H280	H	0.578692	0.520278	0.384115
	H281	H	0.579011	0.514010	0.377433
	O282	O	0.568056	0.463026	0.451699
	H283	H	0.567659	0.456925	0.451886
	H284	H	0.565727	0.466746	0.449518
	O285	O	0.938484	0.037944	1.065093
	H286	H	0.927451	0.026223	1.061914
	H287	H	0.932649	0.036663	1.080769
	O288	O	0.911756	0.027090	-0.052586
	H289	H	0.923536	0.014152	-0.053800
	H290	H	0.919481	0.028290	-0.063973
	O291	O	0.523804	0.599032	0.481617
	H292	H	0.524828	0.597957	0.469374
	H293	H	0.511672	0.599945	0.481440
	O294	O	1.061816	0.036640	0.933385
	H295	H	1.063581	0.041981	0.932929
	H296	H	1.054363	0.033314	0.936805
	O297	O	-0.032453	-0.005782	-0.016958
	H298	H	-0.035653	-0.010767	-0.020755
	H299	H	-0.025789	-0.002676	-0.023929
	O300	O	0.368614	0.437991	0.542523
	H301	H	0.371721	0.428624	0.544829
	H302	H	0.374865	0.447847	0.547075
	O303	O	0.351485	0.484119	0.483949
	H304	H	0.346764	0.487475	0.491068
	H305	H	0.344048	0.471082	0.485922
	O306	O	0.937166	0.012588	0.027059
	H307	H	0.935479	0.024016	0.019750
	H308	H	0.928805	0.007854	0.026123
	O309	O	-0.058306	-0.000252	0.991865
	H310	H	-0.078086	0.006845	0.992923
	H311	H	-0.063989	0.003657	1.001033
	O312	O	1.028714	1.061158	1.037194
	H313	H	1.021251	1.057916	1.035540
	H314	H	1.049547	1.065705	1.040979
	O315	O	0.496885	0.549834	0.590466
	H316	H	0.493110	0.551781	0.582796
	H317	H	0.489149	0.549342	0.594555
	O318	O	0.520723	0.515523	0.413216
	H319	H	0.512634	0.491121	0.422442
	H320	H	0.520362	0.513544	0.409474
	O321	O	0.557978	1.551320	1.434147
	H322	H	0.540143	1.559714	1.432387
	H323	H	0.556416	1.561536	1.429993
	O324	O	0.391548	0.491958	0.579998
	H325	H	0.396454	0.494062	0.589718
	H326	H	0.396440	0.495883	0.583119
	O327	O	0.475856	0.476106	0.541924
	H328	H	0.471197	0.472378	0.548400
	H329	H	0.474055	0.466164	0.551064
	O330	O	0.549829	0.473142	0.472919
	H331	H	0.550357	0.472192	0.474254
	H332	H	0.553439	0.473760	0.477084
	O333	O	0.569413	0.473752	0.469001
	H334	H	0.569830	0.477409	0.472432
	H335	H	0.576461	0.482845	0.461102
	O336	O	0.497603	0.481146	0.511859
	H337	H	0.507878	0.485677	0.512795
	H338	H	0.497455	0.480009	0.514472
	O339	O	1.036656	0.972056	-0.042966
	H340	H	1.035959	0.968137	-0.040949
	H341	H	1.031653	0.974809	-0.039485
	O342	O	0.551241	0.397720	0.561997
	H343	H	0.556086	0.400753	0.564051
	H344	H	0.556055	0.406848	0.569164
	O345	O	0.518078	0.508324	0.507898
	H346	H	0.521063	0.516748	0.503828
	H347	H	0.526892	0.507854	0.510594
	O348	O	-0.043169	0.023571	-0.010484
	H349	H	-0.042665	0.037057	-0.000328
	H350	H	-0.035105	0.021846	-0.011225
	O351	O	-0.069618	0.939702	0.931678
	H352	H	-0.067731	0.932482	0.924887
	H353	H	-0.073722	0.945642	0.928642
	O354	O	0.519114	0.512873	0.555860
	H355	H	0.514090	0.505141	0.555689
	H356	H	0.525896	0.519167	0.558872
	O357	O	-0.011515	0.935183	1.001161
	H358	H	-0.005759	0.931918	1.002554
	H359	H	-0.013159	0.925307	1.000225
