data_Molecule from HDF5

_cell_length_a		16.389724
_cell_length_b		16.296067
_cell_length_c		16.131914
_cell_angle_alpha	89.845117
_cell_angle_beta	90.150550
_cell_angle_gamma	89.858399
_symmetry_space_group_name_H-M	'P 1'
_symmetry_Int_Tables_number		1

loop_
	_symmetry_equiv_pos_as_xyz
	x,y,z

loop_
	_atom_site_label
	_atom_site_type_symbol
	_atom_site_fract_x
	_atom_site_fract_y
	_atom_site_fract_z
	H0	H	0.406754	0.831788	0.713206
	H1	H	0.597555	0.160268	0.713409
	H2	H	0.598323	0.832226	0.288265
	H3	H	0.404790	0.160902	0.287551
	H4	H	0.717335	0.395950	0.837515
	H5	H	0.716477	0.595009	0.166160
	H6	H	0.286027	0.597720	0.837093
	H7	H	0.288012	0.396671	0.166251
	H8	H	0.839902	0.712758	0.401259
	H9	H	0.163803	0.711822	0.601259
	H10	H	0.838853	0.280491	0.602145
	H11	H	0.164128	0.280392	0.402546
	H12	H	0.838538	0.400587	0.715077
	H13	H	0.165005	0.592232	0.714526
	H14	H	0.838605	0.594282	0.287827
	H15	H	0.165253	0.400325	0.289536
	H16	H	0.402615	0.710874	0.836490
	H17	H	0.598289	0.707516	0.167229
	H18	H	0.600007	0.283706	0.836721
	H19	H	0.404111	0.282077	0.165536
	H20	H	0.719452	0.833836	0.398740
	H21	H	0.717662	0.158582	0.601082
	H22	H	0.286356	0.833266	0.602272
	H23	H	0.283479	0.158082	0.398204
	H24	H	0.906794	0.332744	0.214839
	H25	H	0.098122	0.661611	0.214457
	H26	H	0.098288	0.332444	0.790100
	H27	H	0.905252	0.661115	0.789569
	H28	H	0.215934	0.895862	0.337093
	H29	H	0.217256	0.094784	0.665668
	H30	H	0.787047	0.096741	0.336557
	H31	H	0.787823	0.896210	0.665295
	H32	H	0.340028	0.215391	0.898172
	H33	H	0.664253	0.211113	0.101566
	H34	H	0.339788	0.779066	0.102076
	H35	H	0.663887	0.780450	0.902277
	H36	H	0.338850	0.897779	0.215388
	H37	H	0.664984	0.092785	0.214993
	H38	H	0.338005	0.095627	0.784793
	H39	H	0.664690	0.898317	0.787762
	H40	H	0.903025	0.210685	0.337104
	H41	H	0.101836	0.209227	0.666720
	H42	H	0.099907	0.782103	0.336733
	H43	H	0.905646	0.783563	0.666192
	H44	H	0.217564	0.333938	0.902000
	H45	H	0.217122	0.659965	0.101836
	H46	H	0.786535	0.333610	0.103650
	H47	H	0.784749	0.659064	0.900515
	H48	H	0.396361	0.114788	0.587598
	H49	H	0.592956	0.880823	0.591515
	H50	H	0.586723	0.111212	0.405463
	H51	H	0.405734	0.879476	0.406970
	H52	H	0.594351	0.399646	0.120673
	H53	H	0.598363	0.589781	0.882377
	H54	H	0.409487	0.583463	0.117177
	H55	H	0.403599	0.405239	0.882374
	H56	H	0.117303	0.596108	0.416299
	H57	H	0.885726	0.587608	0.598480
	H58	H	0.117649	0.399739	0.594595
	H59	H	0.883642	0.402619	0.402699
	H60	H	0.115851	0.402131	0.593992
	H61	H	0.884256	0.596037	0.594867
	H62	H	0.114289	0.580615	0.410636
	H63	H	0.886169	0.397882	0.413051
	H64	H	0.413727	0.590209	0.118154
	H65	H	0.594093	0.584359	0.885227
	H66	H	0.599631	0.405129	0.119847
	H67	H	0.409624	0.410390	0.886224
	H68	H	0.596049	0.109941	0.417811
	H69	H	0.600559	0.878986	0.591537
	H70	H	0.410403	0.114883	0.604051
	H71	H	0.410321	0.880133	0.407888
	H72	H	0.913121	0.610595	0.090789
	H73	H	0.096930	0.379807	0.096575
	H74	H	0.093183	0.612455	0.913066
	H75	H	0.905199	0.379749	0.909926
	H76	H	0.100710	0.904933	0.619990
	H77	H	0.094133	0.098956	0.380559
	H78	H	0.906772	0.091389	0.621022
	H79	H	0.908907	0.899134	0.381562
	H80	H	0.613198	0.086142	0.916027
	H81	H	0.384353	0.096652	0.095068
	H82	H	0.617844	0.902996	0.097918
	H83	H	0.390578	0.912922	0.913184
	H84	H	0.618437	0.898417	0.093876
	H85	H	0.388659	0.089732	0.086250
	H86	H	0.617089	0.083820	0.900258
	H87	H	0.382218	0.903086	0.897501
	H88	H	0.906487	0.083948	0.618716
	H89	H	0.101899	0.081099	0.383255
	H90	H	0.091438	0.908308	0.616948
	H91	H	0.904908	0.906145	0.381331
	H92	H	0.099807	0.614563	0.908664
	H93	H	0.094703	0.380818	0.095125
	H94	H	0.901428	0.614151	0.090005
	H95	H	0.910386	0.379527	0.907711
	H96	H	0.416434	0.107885	0.583720
	H97	H	0.596764	0.878374	0.597945
	H98	H	0.601390	0.115450	0.404245
	H99	H	0.407682	0.880478	0.411722
	H100	H	0.593047	0.406050	0.118359
	H101	H	0.591628	0.591775	0.883944
	H102	H	0.405762	0.590242	0.120176
	H103	H	0.412187	0.401973	0.883223
	H104	H	0.120990	0.592178	0.400495
	H105	H	0.886723	0.589092	0.589736
	H106	H	0.118232	0.401874	0.597172
	H107	H	0.888603	0.408926	0.411089
	H108	H	0.907689	0.615812	0.100406
	H109	H	0.097500	0.380506	0.093915
	H110	H	0.092486	0.614030	0.905219
	H111	H	0.909783	0.381760	0.913031
	H112	H	0.092872	0.898040	0.620460
	H113	H	0.082941	0.084828	0.388703
	H114	H	0.913504	0.087433	0.618337
	H115	H	0.911651	0.905865	0.384545
	H116	H	0.619239	0.098292	0.907119
	H117	H	0.386048	0.085287	0.097089
	H118	H	0.615903	0.903769	0.091769
	H119	H	0.385492	0.894327	0.915566
	C120	C	0.380093	0.004569	0.621734
	C121	C	0.624245	0.987626	0.622488
	C122	C	0.623420	0.004366	0.379914
	C123	C	0.379114	0.987956	0.379074
	C124	C	0.623578	0.375272	0.010488
	C125	C	0.622973	0.616983	0.992870
	C126	C	0.380589	0.617584	0.009957
	C127	C	0.380383	0.375996	0.992600
	C128	C	0.010174	0.618404	0.380028
	C129	C	0.993203	0.618377	0.623130
	C130	C	0.009884	0.373592	0.624082
	C131	C	0.993412	0.374637	0.380268
	C132	C	0.880061	0.505204	0.122938
	C133	C	0.124216	0.488816	0.123592
	C134	C	0.123424	0.505219	0.880644
	C135	C	0.879887	0.488355	0.880586
	C136	C	0.122924	0.875046	0.509951
	C137	C	0.122675	0.116894	0.493048
	C138	C	0.880652	0.116884	0.510084
	C139	C	0.880623	0.875061	0.491680
	C140	C	0.509203	0.118723	0.878295
	C141	C	0.493810	0.118344	0.122235
	C142	C	0.510008	0.873425	0.123191
	C143	C	0.493229	0.874421	0.879627
	C144	C	0.384191	0.881111	0.676871
	C145	C	0.619234	0.111048	0.676640
	C146	C	0.619738	0.881389	0.325371
	C147	C	0.382685	0.111294	0.324209
	C148	C	0.679140	0.376566	0.886645
	C149	C	0.678524	0.614946	0.117060
	C150	C	0.324369	0.617033	0.886180
	C151	C	0.325582	0.376706	0.116822
	C152	C	0.888115	0.674484	0.381275
	C153	C	0.115541	0.673622	0.621377
	C154	C	0.887238	0.319015	0.621688
	C155	C	0.115662	0.319002	0.382570
	C156	C	0.887107	0.378294	0.678013
	C157	C	0.116203	0.614057	0.677611
	C158	C	0.887401	0.615355	0.325082
	C159	C	0.116431	0.378460	0.326243
	C160	C	0.382295	0.673228	0.885764
	C161	C	0.619827	0.670966	0.117593
	C162	C	0.620649	0.321095	0.886050
	C163	C	0.383428	0.320130	0.116613
	C164	C	0.679837	0.882203	0.380466
	C165	C	0.679012	0.110312	0.620920
	C166	C	0.324909	0.881764	0.621123
	C167	C	0.322853	0.110209	0.379519
	C168	C	0.884847	0.381856	0.177907
	C169	C	0.120281	0.612140	0.178112
	C170	C	0.120146	0.381956	0.826364
	C171	C	0.883463	0.611715	0.825928
	C172	C	0.178096	0.876199	0.386150
	C173	C	0.179102	0.114888	0.616578
	C174	C	0.825245	0.116030	0.385958
	C175	C	0.825930	0.876527	0.616181
	C176	C	0.387809	0.175686	0.879392
	C177	C	0.615952	0.173311	0.121051
	C178	C	0.387977	0.817948	0.121511
	C179	C	0.615574	0.818718	0.881928
	C180	C	0.387546	0.877027	0.177899
	C181	C	0.616306	0.114428	0.177479
	C182	C	0.386804	0.116377	0.822637
	C183	C	0.615965	0.877501	0.825152
	C184	C	0.882754	0.172778	0.386117
	C185	C	0.121201	0.171434	0.617161
	C186	C	0.120398	0.819373	0.386117
	C187	C	0.884220	0.820551	0.616607
	C188	C	0.179211	0.382616	0.882579
	C189	C	0.179362	0.611398	0.122042
	C190	C	0.825010	0.382334	0.122865
	C191	C	0.823904	0.610789	0.881467
	C192	C	0.401530	0.090200	0.598629
	C193	C	0.602953	0.901519	0.600269
	C194	C	0.601248	0.090178	0.402599
	C195	C	0.401252	0.902107	0.402043
	C196	C	0.601919	0.397168	0.097105
	C197	C	0.601240	0.595135	0.906221
	C198	C	0.403062	0.594683	0.096188
	C199	C	0.402072	0.398995	0.906184
	C200	C	0.095519	0.596151	0.402585
	C201	C	0.907667	0.597134	0.600914
	C202	C	0.095218	0.394891	0.601758
	C203	C	0.908083	0.396626	0.402324
	C204	C	0.901059	0.591232	0.100349
	C205	C	0.102899	0.402721	0.101643
	C206	C	0.101577	0.591605	0.902640
	C207	C	0.901837	0.402375	0.903555
	C208	C	0.101325	0.897308	0.596854
	C209	C	0.099905	0.094759	0.406445
	C210	C	0.902486	0.094176	0.596878
	C211	C	0.902086	0.897262	0.404988
	C212	C	0.594415	0.096150	0.901143
	C213	C	0.408533	0.096952	0.099416
	C214	C	0.595232	0.895254	0.100947
	C215	C	0.408055	0.896855	0.902101
	Zn216	Zn	0.501295	-0.004056	0.750137
	Zn217	Zn	0.501704	-0.003740	0.251065
	Zn218	Zn	0.751276	0.496043	0.001723
	Zn219	Zn	0.252651	0.497411	0.002142
	Zn220	Zn	0.001645	0.747293	0.501230
	Zn221	Zn	0.001265	0.244832	0.502151
	Zn222	Zn	0.001793	0.496718	0.752489
	Zn223	Zn	0.002057	0.496999	0.251225
	Zn224	Zn	0.501699	0.744864	0.001347
	Zn225	Zn	0.502277	0.248126	0.000927
	Zn226	Zn	0.753245	-0.004180	0.500858
	Zn227	Zn	0.250807	-0.004178	0.500975
	N228	N	0.417704	0.958317	0.677163
	N229	N	0.586292	0.033466	0.677891
	N230	N	0.585150	0.958338	0.325016
	N231	N	0.416885	0.034109	0.323722
	N232	N	0.681231	0.409523	0.965013
	N233	N	0.680517	0.581993	0.038613
	N234	N	0.323318	0.582979	0.964339
	N235	N	0.323542	0.410773	0.038815
	N236	N	0.965334	0.676219	0.414751
	N237	N	0.038095	0.676426	0.588258
	N238	N	0.964789	0.315583	0.589270
	N239	N	0.038272	0.316475	0.415442
	N240	N	0.964205	0.411448	0.679660
	N241	N	0.039283	0.580637	0.678840
	N242	N	0.964326	0.581326	0.324003
	N243	N	0.039403	0.412203	0.324421
	N244	N	0.416757	0.673437	0.963544
	N245	N	0.586010	0.672387	0.039517
	N246	N	0.586849	0.320048	0.963968
	N247	N	0.416914	0.319501	0.038362
	N248	N	0.682248	0.959836	0.413662
	N249	N	0.682164	0.032644	0.587924
	N250	N	0.322085	0.959581	0.587639
	N251	N	0.320404	0.032434	0.412757
	N252	N	0.918415	0.459180	0.178083
	N253	N	0.086437	0.534978	0.178955
	N254	N	0.085832	0.459161	0.825438
	N255	N	0.917743	0.534331	0.825433
	N256	N	0.179845	0.909953	0.464239
	N257	N	0.179984	0.081547	0.538338
	N258	N	0.823554	0.082129	0.464285
	N259	N	0.823565	0.909676	0.537723
	N260	N	0.465029	0.177487	0.913083
	N261	N	0.538727	0.175690	0.087207
	N262	N	0.465137	0.815565	0.088262
	N263	N	0.538322	0.816744	0.915245
	N264	N	0.464454	0.910842	0.179159
	N265	N	0.539413	0.081186	0.178636
	N266	N	0.463248	0.081405	0.822117
	N267	N	0.539094	0.911636	0.823711
	N268	N	0.916649	0.173135	0.464163
	N269	N	0.086605	0.172759	0.539361
	N270	N	0.087026	0.818551	0.464270
	N271	N	0.917465	0.819501	0.538325
	N272	N	0.181332	0.460474	0.915460
	N273	N	0.181967	0.533720	0.089137
	N274	N	0.822112	0.459914	0.089178
	N275	N	0.821607	0.533019	0.914572
	O276	O	1.037190	1.015982	-0.040419
	H277	H	1.035178	1.018390	-0.041787
	H278	H	1.038776	1.024706	-0.041234
	O279	O	-0.002653	0.060498	0.047734
	H280	H	-0.002578	0.056005	0.049031
	H281	H	-0.012034	0.057463	0.046110
	O282	O	0.001713	0.065095	0.974347
	H283	H	-0.001512	0.065149	0.975534
	H284	H	0.001614	0.060186	0.975939
	O285	O	0.500929	0.437165	0.471264
	H286	H	0.503736	0.436705	0.471978
	H287	H	0.492882	0.440115	0.465158
	O288	O	0.471134	0.482270	0.494571
	H289	H	0.467021	0.482393	0.501189
	H290	H	0.467399	0.477153	0.498179
	O291	O	0.488811	0.511094	0.472629
	H292	H	0.485003	0.503689	0.476001
	H293	H	0.488722	0.516262	0.468728
	O294	O	-0.041692	0.072590	-0.045947
	H295	H	-0.031382	0.077823	-0.046760
	H296	H	-0.039779	0.072504	-0.024456
	O297	O	0.482706	0.466015	0.520464
	H298	H	0.478368	0.466382	0.526316
	H299	H	0.485170	0.471204	0.521397
	O300	O	0.035911	1.035417	0.935376
	H301	H	0.028849	1.032962	0.941963
	H302	H	0.032198	1.034981	0.936581
	O303	O	0.469977	0.519585	0.452022
	H304	H	0.474441	0.510111	0.455522
	H305	H	0.475012	0.519733	0.443904
	O306	O	0.039001	0.018854	0.925634
	H307	H	0.045006	0.007611	0.915864
	H308	H	0.046492	0.031335	0.909366
	O309	O	1.019390	0.980422	0.971643
	H310	H	1.019202	0.977678	0.969258
	H311	H	1.011020	0.974752	0.964945
	O312	O	0.436192	0.472719	0.540055
	H313	H	0.440459	0.475067	0.554653
	H314	H	0.427236	0.471901	0.537025
	O315	O	0.456910	0.532566	0.493698
	H316	H	0.459314	0.533372	0.486923
	H317	H	0.451050	0.539577	0.480976
	O318	O	0.012038	1.003055	-0.036862
	H319	H	0.020453	1.012891	-0.035331
	H320	H	-0.001648	1.010487	-0.051517
	O321	O	0.984818	1.026206	0.066080
	H322	H	0.988634	1.025807	0.075479
	H323	H	0.991575	1.033392	0.057146
