data_Molecule from HDF5

_cell_length_a		16.440986
_cell_length_b		16.438517
_cell_length_c		16.456240
_cell_angle_alpha	90.129341
_cell_angle_beta	89.979252
_cell_angle_gamma	90.083411
_symmetry_space_group_name_H-M	'P 1'
_symmetry_Int_Tables_number		1

loop_
	_symmetry_equiv_pos_as_xyz
	x,y,z

loop_
	_atom_site_label
	_atom_site_type_symbol
	_atom_site_fract_x
	_atom_site_fract_y
	_atom_site_fract_z
	H0	H	0.395226	0.843783	0.724871
	H1	H	0.610780	0.159126	0.727883
	H2	H	0.604880	0.845528	0.280414
	H3	H	0.393986	0.160582	0.282097
	H4	H	0.724857	0.394824	0.845831
	H5	H	0.723677	0.610295	0.160608
	H6	H	0.275043	0.610323	0.847361
	H7	H	0.280063	0.395825	0.160935
	H8	H	0.843665	0.723573	0.397107
	H9	H	0.158442	0.724716	0.609994
	H10	H	0.843301	0.277162	0.610488
	H11	H	0.157718	0.276902	0.394694
	H12	H	0.843620	0.393232	0.726885
	H13	H	0.158857	0.608737	0.725391
	H14	H	0.843749	0.606636	0.282317
	H15	H	0.156451	0.392138	0.278070
	H16	H	0.390897	0.727161	0.847360
	H17	H	0.605724	0.724672	0.160951
	H18	H	0.608691	0.278734	0.845485
	H19	H	0.396945	0.281898	0.161091
	H20	H	0.719565	0.842865	0.398388
	H21	H	0.727326	0.157818	0.613286
	H22	H	0.278697	0.844659	0.609485
	H23	H	0.279365	0.160074	0.398717
	H24	H	0.893927	0.344248	0.225991
	H25	H	0.107244	0.659505	0.226759
	H26	H	0.110211	0.345746	0.777931
	H27	H	0.893245	0.659266	0.779071
	H28	H	0.223323	0.895306	0.344871
	H29	H	0.223656	0.108392	0.660787
	H30	H	0.777829	0.106368	0.345949
	H31	H	0.776324	0.891096	0.659841
	H32	H	0.342350	0.223262	0.898262
	H33	H	0.659408	0.223420	0.109625
	H34	H	0.344663	0.777614	0.113263
	H35	H	0.659280	0.780576	0.898319
	H36	H	0.343587	0.895602	0.227078
	H37	H	0.658053	0.108871	0.226335
	H38	H	0.343091	0.107587	0.781537
	H39	H	0.659534	0.896342	0.781888
	H40	H	0.894759	0.221998	0.345422
	H41	H	0.109317	0.226419	0.659756
	H42	H	0.107348	0.779317	0.344700
	H43	H	0.893500	0.777601	0.659469
	H44	H	0.225628	0.345138	0.894466
	H45	H	0.224004	0.659263	0.111232
	H46	H	0.777412	0.344399	0.110481
	H47	H	0.778682	0.659806	0.896749
	H48	H	0.407496	0.116947	0.593830
	H49	H	0.594433	0.889292	0.588437
	H50	H	0.589731	0.117181	0.409410
	H51	H	0.414750	0.890178	0.412630
	H52	H	0.588509	0.412041	0.115654
	H53	H	0.585755	0.591570	0.891324
	H54	H	0.416232	0.591268	0.114563
	H55	H	0.416315	0.420285	0.893212
	H56	H	0.113182	0.591101	0.419575
	H57	H	0.889108	0.589393	0.589580
	H58	H	0.110571	0.419038	0.587977
	H59	H	0.892209	0.421111	0.419382
	H60	H	0.113912	0.414486	0.594276
	H61	H	0.888558	0.588410	0.591897
	H62	H	0.113354	0.585571	0.414739
	H63	H	0.884099	0.411144	0.405313
	H64	H	0.410353	0.590903	0.116718
	H65	H	0.591756	0.591409	0.889609
	H66	H	0.592928	0.413495	0.116250
	H67	H	0.418090	0.408523	0.890552
	H68	H	0.582470	0.111704	0.420055
	H69	H	0.587941	0.887966	0.598299
	H70	H	0.418938	0.113989	0.595569
	H71	H	0.411616	0.890499	0.416338
	H72	H	0.911720	0.615512	0.096023
	H73	H	0.082137	0.391736	0.091364
	H74	H	0.084979	0.613141	0.914582
	H75	H	0.913116	0.391970	0.920950
	H76	H	0.086651	0.911885	0.615191
	H77	H	0.087179	0.090144	0.391605
	H78	H	0.915553	0.090935	0.614687
	H79	H	0.907250	0.916465	0.389109
	H80	H	0.614831	0.094518	0.916977
	H81	H	0.387867	0.085454	0.098216
	H82	H	0.611831	0.914861	0.087886
	H83	H	0.388992	0.918194	0.912837
	H84	H	0.612280	0.918598	0.092783
	H85	H	0.383569	0.099551	0.095075
	H86	H	0.611893	0.087801	0.918397
	H87	H	0.385583	0.910173	0.911345
	H88	H	0.910865	0.087302	0.616126
	H89	H	0.090873	0.090086	0.390152
	H90	H	0.091797	0.911990	0.616507
	H91	H	0.916366	0.913773	0.392410
	H92	H	0.088784	0.612260	0.919532
	H93	H	0.093333	0.389831	0.084873
	H94	H	0.915288	0.613546	0.091880
	H95	H	0.909015	0.388049	0.912395
	H96	H	0.413701	0.112007	0.585177
	H97	H	0.582652	0.892882	0.588552
	H98	H	0.595903	0.115234	0.421784
	H99	H	0.410314	0.887645	0.412570
	H100	H	0.589279	0.415639	0.115149
	H101	H	0.589254	0.586600	0.892604
	H102	H	0.412821	0.586228	0.113577
	H103	H	0.407093	0.413925	0.888045
	H104	H	0.115773	0.592224	0.412995
	H105	H	0.888035	0.590768	0.591472
	H106	H	0.112345	0.411292	0.586707
	H107	H	0.887213	0.403092	0.421876
	H108	H	0.909760	0.615171	0.090734
	H109	H	0.091810	0.385883	0.097570
	H110	H	0.090608	0.616047	0.913949
	H111	H	0.918750	0.391153	0.912600
	H112	H	0.089964	0.916007	0.613804
	H113	H	0.088828	0.086620	0.391662
	H114	H	0.915259	0.085040	0.613263
	H115	H	0.910371	0.906790	0.388011
	H116	H	0.614188	0.089559	0.911537
	H117	H	0.390705	0.091343	0.084681
	H118	H	0.614199	0.913073	0.092742
	H119	H	0.389442	0.912100	0.919002
	C120	C	0.380204	0.010514	0.624718
	C121	C	0.623323	0.993219	0.625889
	C122	C	0.621317	0.010579	0.383343
	C123	C	0.379333	0.993627	0.381787
	C124	C	0.623378	0.380175	0.011751
	C125	C	0.621922	0.623382	0.995216
	C126	C	0.378758	0.623948	0.012188
	C127	C	0.380806	0.381334	0.994833
	C128	C	0.009934	0.622448	0.382535
	C129	C	0.992310	0.623362	0.624545
	C130	C	0.009047	0.380355	0.624144
	C131	C	0.991724	0.378966	0.381707
	C132	C	0.879463	0.510169	0.125360
	C133	C	0.122083	0.493070	0.124983
	C134	C	0.122802	0.510347	0.881805
	C135	C	0.879811	0.494067	0.881886
	C136	C	0.122486	0.880275	0.511074
	C137	C	0.122421	0.123029	0.494927
	C138	C	0.879928	0.121548	0.511463
	C139	C	0.878552	0.879218	0.494217
	C140	C	0.509148	0.123297	0.882538
	C141	C	0.492071	0.124769	0.125380
	C142	C	0.509065	0.881830	0.124635
	C143	C	0.492712	0.880592	0.881891
	C144	C	0.377292	0.891554	0.684911
	C145	C	0.627959	0.111564	0.687734
	C146	C	0.623507	0.892289	0.321281
	C147	C	0.376361	0.112893	0.322015
	C148	C	0.684385	0.376809	0.893197
	C149	C	0.683297	0.627355	0.113313
	C150	C	0.315835	0.628174	0.894428
	C151	C	0.320010	0.378321	0.113581
	C152	C	0.891219	0.683067	0.379217
	C153	C	0.111114	0.684387	0.627673
	C154	C	0.890805	0.317658	0.628447
	C155	C	0.110288	0.317616	0.377574
	C156	C	0.890894	0.375679	0.686254
	C157	C	0.111206	0.626491	0.685196
	C158	C	0.890945	0.624870	0.322144
	C159	C	0.109773	0.375234	0.319661
	C160	C	0.373629	0.686331	0.894509
	C161	C	0.624466	0.684193	0.113620
	C162	C	0.626619	0.318751	0.893132
	C163	C	0.378009	0.321242	0.113459
	C164	C	0.680509	0.891052	0.380156
	C165	C	0.686142	0.110848	0.630466
	C166	C	0.319066	0.891748	0.627448
	C167	C	0.319163	0.112678	0.379918
	C168	C	0.876013	0.391569	0.185718
	C169	C	0.125411	0.611694	0.186824
	C170	C	0.127150	0.392564	0.819188
	C171	C	0.875894	0.612006	0.819943
	C172	C	0.183167	0.877411	0.392418
	C173	C	0.183699	0.126670	0.613271
	C174	C	0.818337	0.124717	0.393249
	C175	C	0.817125	0.874622	0.612387
	C176	C	0.390117	0.183449	0.879755
	C177	C	0.611439	0.184047	0.127584
	C178	C	0.391282	0.819185	0.129410
	C179	C	0.611538	0.820018	0.879640
	C180	C	0.390895	0.877558	0.186738
	C181	C	0.610749	0.127283	0.186115
	C182	C	0.390495	0.125746	0.821798
	C183	C	0.611646	0.877690	0.821594
	C184	C	0.876789	0.181965	0.392820
	C185	C	0.126681	0.185300	0.612738
	C186	C	0.125614	0.819215	0.392374
	C187	C	0.875596	0.817708	0.612224
	C188	C	0.185020	0.392540	0.877056
	C189	C	0.183438	0.611837	0.128904
	C190	C	0.818181	0.391633	0.127935
	C191	C	0.818694	0.612332	0.878535
	C192	C	0.406118	0.092862	0.598903
	C193	C	0.596117	0.911341	0.599293
	C194	C	0.596389	0.093210	0.409548
	C195	C	0.404814	0.911069	0.406521
	C196	C	0.597708	0.406117	0.094242
	C197	C	0.596315	0.597205	0.912719
	C198	C	0.405609	0.597183	0.093599
	C199	C	0.406374	0.406902	0.912199
	C200	C	0.092633	0.596733	0.408310
	C201	C	0.909968	0.597017	0.598568
	C202	C	0.090853	0.407070	0.597267
	C203	C	0.909428	0.404503	0.407895
	C204	C	0.905058	0.593130	0.100321
	C205	C	0.096501	0.410753	0.098722
	C206	C	0.095803	0.592300	0.908458
	C207	C	0.905913	0.411780	0.907881
	C208	C	0.096841	0.906017	0.593601
	C209	C	0.096323	0.096493	0.412514
	C210	C	0.906351	0.095276	0.593421
	C211	C	0.904101	0.905008	0.411496
	C212	C	0.591899	0.097911	0.908207
	C213	C	0.409068	0.099542	0.099942
	C214	C	0.591312	0.908020	0.098546
	C215	C	0.409960	0.906000	0.907088
	Zn216	Zn	0.501299	0.002123	0.753692
	Zn217	Zn	0.500453	0.003121	0.253483
	Zn218	Zn	0.751371	0.502441	0.003548
	Zn219	Zn	0.251141	0.501052	0.003889
	Zn220	Zn	0.001335	0.751575	0.502592
	Zn221	Zn	0.000639	0.250895	0.503367
	Zn222	Zn	0.001130	0.502087	0.753009
	Zn223	Zn	0.000750	0.501455	0.253803
	Zn224	Zn	0.500707	0.752926	0.003769
	Zn225	Zn	0.500785	0.252282	0.003182
	Zn226	Zn	0.750909	0.000857	0.503702
	Zn227	Zn	0.251135	0.002147	0.503267
	N228	N	0.414575	0.966315	0.683390
	N229	N	0.589434	0.037406	0.684872
	N230	N	0.587474	0.967687	0.323115
	N231	N	0.413057	0.037950	0.322930
	N232	N	0.682643	0.414229	0.967897
	N233	N	0.681952	0.590259	0.038388
	N234	N	0.318728	0.590003	0.968618
	N235	N	0.321434	0.414846	0.038425
	N236	N	0.966259	0.681673	0.415883
	N237	N	0.036029	0.682729	0.590759
	N238	N	0.965391	0.320230	0.590741
	N239	N	0.035881	0.319692	0.415563
	N240	N	0.965447	0.413611	0.684031
	N241	N	0.036291	0.589368	0.683459
	N242	N	0.965912	0.587969	0.323996
	N243	N	0.035258	0.412681	0.322173
	N244	N	0.412033	0.683804	0.968537
	N245	N	0.587178	0.681863	0.039114
	N246	N	0.589328	0.320848	0.967898
	N247	N	0.415153	0.323144	0.038826
	N248	N	0.679386	0.965623	0.417913
	N249	N	0.683448	0.036165	0.592717
	N250	N	0.320676	0.966692	0.590714
	N251	N	0.320744	0.037560	0.416335
	N252	N	0.913225	0.466348	0.184241
	N253	N	0.088177	0.536783	0.184666
	N254	N	0.089367	0.467053	0.821811
	N255	N	0.913210	0.537310	0.821840
	N256	N	0.181616	0.914574	0.467346
	N257	N	0.181145	0.088833	0.538796
	N258	N	0.819927	0.088027	0.468133
	N259	N	0.818756	0.912046	0.537745
	N260	N	0.465208	0.182293	0.916386
	N261	N	0.536476	0.182685	0.090678
	N262	N	0.465552	0.822027	0.091326
	N263	N	0.536365	0.821708	0.916201
	N264	N	0.465009	0.916103	0.183698
	N265	N	0.535469	0.091048	0.184873
	N266	N	0.465808	0.089467	0.823084
	N267	N	0.536660	0.914345	0.822701
	N268	N	0.914355	0.180046	0.467419
	N269	N	0.089498	0.183163	0.538044
	N270	N	0.088646	0.820831	0.467245
	N271	N	0.913138	0.820438	0.537656
	N272	N	0.182366	0.466820	0.915311
	N273	N	0.181699	0.537205	0.091340
	N274	N	0.820272	0.466658	0.091074
	N275	N	0.820850	0.537812	0.915985
	O276	O	0.292500	0.474662	0.385145
	H277	H	0.278940	0.490367	0.395811
	H278	H	0.289263	0.487511	0.372050
	O279	O	0.983790	0.214621	0.786269
	H280	H	0.935957	0.202415	0.799461
	H281	H	0.978737	0.243286	0.752682
	O282	O	0.561269	0.449823	0.707152
	H283	H	0.572789	0.439556	0.703852
	H284	H	0.566582	0.423077	0.707054
	O285	O	0.617848	0.657685	0.365993
	H286	H	0.605139	0.647014	0.393773
	H287	H	0.626945	0.636596	0.357173
	O288	O	0.936659	1.125111	0.103423
	H289	H	0.941008	1.104673	0.099241
	H290	H	0.952297	1.129704	0.125707
	O291	O	0.512268	0.454376	0.508606
	H292	H	0.514519	0.457873	0.510512
	H293	H	0.502618	0.457727	0.500893
	O294	O	-0.048927	0.075514	1.045102
	H295	H	-0.046089	0.070609	1.051178
	H296	H	-0.065565	0.090234	1.022046
	O297	O	0.500987	0.494227	0.432503
	H298	H	0.514977	0.488533	0.441419
	H299	H	0.485665	0.482967	0.429073
	O300	O	0.737376	0.727476	0.244046
	H301	H	0.750198	0.712670	0.248676
	H302	H	0.719167	0.757170	0.250770
	O303	O	0.614411	0.289169	0.543462
	H304	H	0.597855	0.274239	0.524813
	H305	H	0.585370	0.286503	0.573521
	O306	O	0.293478	0.512681	0.703704
	H307	H	0.278750	0.511313	0.736755
	H308	H	0.325298	0.532258	0.700952
	O309	O	0.708194	0.486036	0.292391
	H310	H	0.719262	0.460492	0.279193
	H311	H	0.710045	0.459871	0.290988
	O312	O	-0.057314	0.911634	0.792945
	H313	H	-0.029513	0.939230	0.805370
	H314	H	-0.034351	0.870282	0.785256
	O315	O	0.460588	0.431002	0.399929
	H316	H	0.442792	0.435684	0.407826
	H317	H	0.464781	0.444742	0.394834
	O318	O	0.912707	-0.059450	-0.004611
	H319	H	0.908155	-0.060339	-0.014202
	H320	H	0.898858	-0.065916	-0.009710
	O321	O	0.009179	-0.027107	-0.008647
	H322	H	0.028992	-0.040587	-0.005108
	H323	H	0.005106	-0.026891	0.002455
	O324	O	0.530206	0.287725	0.293825
	H325	H	0.517531	0.274424	0.283196
	H326	H	0.524052	0.283827	0.291204
	O327	O	0.659411	0.305621	0.547378
	H328	H	0.665068	0.295268	0.549549
	H329	H	0.633396	0.291156	0.564370
	O330	O	-0.001743	0.998277	0.205065
	H331	H	-0.010507	1.017589	0.208961
	H332	H	0.006996	1.013015	0.200603
	O333	O	0.623026	0.649573	0.522241
	H334	H	0.621693	0.659507	0.513875
	H335	H	0.628690	0.659553	0.505477
	O336	O	0.206561	0.065877	-0.044381
	H337	H	0.199933	0.087961	-0.031197
	H338	H	0.207628	0.043926	-0.036318
	O339	O	0.178717	0.816850	0.817100
	H340	H	0.191504	0.841106	0.801308
	H341	H	0.191232	0.828681	0.843708
	O342	O	0.213690	0.793761	0.982031
	H343	H	0.237080	0.764101	0.968380
	H344	H	0.187915	0.787493	0.995394
	O345	O	0.992209	0.787802	-0.168887
	H346	H	1.015143	0.777266	-0.176288
	H347	H	1.019368	0.774362	-0.176421
	O348	O	0.321924	0.683551	0.321061
	H349	H	0.345583	0.670745	0.309873
	H350	H	0.336511	0.695206	0.347824
	O351	O	0.195682	0.973065	0.796627
	H352	H	0.177607	0.999339	0.803172
	H353	H	0.215060	0.982462	0.781991
	O354	O	0.025393	0.895031	0.195569
	H355	H	0.018640	0.896168	0.193682
	H356	H	0.031543	0.899513	0.194181
	O357	O	0.040027	0.051616	0.791619
	H358	H	0.030831	0.070687	0.782044
	H359	H	0.026697	0.061206	0.812555
	O360	O	0.446977	0.575999	0.726084
	H361	H	0.467524	0.590009	0.724136
	H362	H	0.474627	0.570201	0.729886
	O363	O	0.208071	-0.039203	1.040884
	H364	H	0.214414	-0.026794	1.049979
	H365	H	0.210249	-0.074316	1.034327
	O366	O	0.300524	0.466900	0.334468
	H367	H	0.285184	0.463713	0.323875
	H368	H	0.303874	0.496887	0.344194
	O369	O	0.337926	0.352224	0.690366
	H370	H	0.331583	0.394679	0.695867
	H371	H	0.325286	0.343944	0.657860
	O372	O	1.055923	-0.187283	1.046035
	H373	H	1.040296	-0.173086	1.035591
	H374	H	1.046105	-0.189920	1.066480
	O375	O	0.480974	0.293159	0.480898
	H376	H	0.478486	0.310227	0.468093
	H377	H	0.453082	0.292135	0.484348
	O378	O	0.539806	0.721366	0.726132
	H379	H	0.556012	0.749702	0.754891
	H380	H	0.571347	0.718182	0.724186
	O381	O	0.698419	0.442662	0.555972
	H382	H	0.690001	0.435201	0.541538
	H383	H	0.694981	0.437098	0.548449
	O384	O	0.691619	0.321783	0.319196
	H385	H	0.703080	0.313197	0.367331
	H386	H	0.657799	0.307273	0.309905
	O387	O	0.209104	0.022612	1.211523
	H388	H	0.219553	0.010631	1.214015
	H389	H	0.215826	0.031735	1.215837
	O390	O	0.194205	0.207071	0.033853
	H391	H	0.174637	0.215609	0.015819
	H392	H	0.196170	0.218677	0.023244
	O393	O	0.826694	1.172051	0.823070
	H394	H	0.813032	1.121341	0.816908
	H395	H	0.816099	1.177011	0.864223
	O396	O	1.009770	0.192722	0.207980
	H397	H	1.015323	0.202561	0.229588
	H398	H	1.026854	0.189932	0.205775
	O399	O	0.791013	0.209222	0.973405
	H400	H	0.798062	0.217135	0.980035
	H401	H	0.787024	0.223852	0.981349
	O402	O	0.906999	0.904151	0.943319
	H403	H	0.923490	0.891220	0.941465
	H404	H	0.904821	0.895546	0.945312
	O405	O	0.789476	0.940319	0.123412
	H406	H	0.796482	0.932966	0.107318
	H407	H	0.784264	0.947740	0.119224
	O408	O	0.789272	0.016658	-0.191392
	H409	H	0.798910	0.001693	-0.197673
	H410	H	0.784343	-0.001536	-0.212666
	O411	O	0.934360	0.832266	0.196627
	H412	H	0.918198	0.826056	0.206446
	H413	H	0.939105	0.828548	0.211785
	O414	O	0.487991	0.695232	0.309572
	H415	H	0.500424	0.685723	0.297076
	H416	H	0.500460	0.697201	0.320327
	O417	O	0.582078	0.579291	0.382589
	H418	H	0.587857	0.571588	0.383563
	H419	H	0.594803	0.580757	0.372330
	O420	O	0.183120	0.187238	0.187970
	H421	H	0.195202	0.161846	0.182628
	H422	H	0.171752	0.194524	0.157074
	O423	O	0.715569	0.523507	0.718228
	H424	H	0.722903	0.511358	0.720964
	H425	H	0.734435	0.517251	0.723538
	O426	O	0.403877	0.593864	0.497855
	H427	H	0.393373	0.605965	0.501276
	H428	H	0.405596	0.588740	0.523202
	O429	O	0.465286	0.706623	0.543521
	H430	H	0.476732	0.694670	0.551306
	H431	H	0.464151	0.717522	0.562527
	O432	O	0.306676	0.330327	0.471271
	H433	H	0.293306	0.317629	0.470020
	H434	H	0.293013	0.360540	0.458608
	O435	O	0.382530	0.709235	0.475497
	H436	H	0.369947	0.716098	0.488566
	H437	H	0.379716	0.712705	0.456228
	O438	O	-0.195958	-0.079934	0.061270
	H439	H	-0.191070	-0.084756	0.077645
	H440	H	-0.208482	-0.103150	0.057189
	O441	O	1.014882	0.224359	-0.024892
	H442	H	1.003852	0.216625	-0.033709
	H443	H	1.004697	0.223498	-0.041488
	O444	O	-0.143943	0.993409	1.008051
	H445	H	-0.157970	0.979493	1.013905
	H446	H	-0.144326	0.985181	0.995912
	O447	O	0.320939	0.598580	0.592707
	H448	H	0.343648	0.589974	0.611128
	H449	H	0.330759	0.616947	0.581246
	O450	O	0.681917	0.685517	0.672522
	H451	H	0.690718	0.640857	0.684852
	H452	H	0.695929	0.697285	0.625510
	O453	O	0.444540	0.287879	0.720888
	H454	H	0.426253	0.279245	0.741033
	H455	H	0.408853	0.283351	0.722640
