data_Molecule from HDF5

_cell_length_a		16.198346
_cell_length_b		16.302542
_cell_length_c		16.376931
_cell_angle_alpha	89.505102
_cell_angle_beta	89.664465
_cell_angle_gamma	90.404200
_symmetry_space_group_name_H-M	'P 1'
_symmetry_Int_Tables_number		1

loop_
	_symmetry_equiv_pos_as_xyz
	x,y,z

loop_
	_atom_site_label
	_atom_site_type_symbol
	_atom_site_fract_x
	_atom_site_fract_y
	_atom_site_fract_z
	H0	H	0.390141	0.841874	0.723552
	H1	H	0.598541	0.165278	0.713456
	H2	H	0.598994	0.841639	0.281958
	H3	H	0.397418	0.164873	0.283338
	H4	H	0.714448	0.404646	0.838672
	H5	H	0.712132	0.598756	0.163713
	H6	H	0.281872	0.604653	0.838781
	H7	H	0.281974	0.400969	0.163544
	H8	H	0.833334	0.713240	0.400284
	H9	H	0.158536	0.717246	0.602441
	H10	H	0.833112	0.283091	0.601886
	H11	H	0.161359	0.286432	0.401946
	H12	H	0.835695	0.392451	0.722876
	H13	H	0.160832	0.600727	0.715556
	H14	H	0.834028	0.598548	0.285423
	H15	H	0.160008	0.397687	0.283247
	H16	H	0.400366	0.720120	0.838076
	H17	H	0.600859	0.719948	0.161034
	H18	H	0.598606	0.287988	0.838772
	H19	H	0.394054	0.281866	0.161660
	H20	H	0.710161	0.838009	0.401214
	H21	H	0.715767	0.163710	0.596874
	H22	H	0.281610	0.837955	0.601250
	H23	H	0.281330	0.164601	0.399340
	H24	H	0.891953	0.338109	0.221354
	H25	H	0.100511	0.661454	0.218213
	H26	H	0.101210	0.337478	0.785899
	H27	H	0.895510	0.660242	0.780305
	H28	H	0.215066	0.900269	0.339225
	H29	H	0.212627	0.098492	0.662944
	H30	H	0.786774	0.097596	0.337053
	H31	H	0.776602	0.896716	0.662693
	H32	H	0.334244	0.218717	0.901209
	H33	H	0.660569	0.218868	0.098104
	H34	H	0.335997	0.783277	0.102483
	H35	H	0.662421	0.791351	0.898843
	H36	H	0.334233	0.900499	0.217217
	H37	H	0.660583	0.106155	0.214477
	H38	H	0.333506	0.106137	0.783791
	H39	H	0.660189	0.904561	0.782205
	H40	H	0.896861	0.218947	0.340296
	H41	H	0.099669	0.216466	0.662451
	H42	H	0.096774	0.783829	0.339231
	H43	H	0.891370	0.778669	0.662695
	H44	H	0.214088	0.338127	0.904171
	H45	H	0.214206	0.662746	0.099997
	H46	H	0.779832	0.337955	0.102163
	H47	H	0.786497	0.664019	0.900936
	H48	H	0.402963	0.121260	0.602035
	H49	H	0.588238	0.884588	0.597470
	H50	H	0.592401	0.117745	0.410009
	H51	H	0.407890	0.885884	0.405213
	H52	H	0.584997	0.410296	0.114976
	H53	H	0.589712	0.593626	0.887227
	H54	H	0.401800	0.592832	0.116463
	H55	H	0.402876	0.409372	0.884168
	H56	H	0.113527	0.590149	0.407840
	H57	H	0.878690	0.591548	0.594843
	H58	H	0.115417	0.406372	0.598256
	H59	H	0.880883	0.404678	0.414306
	H60	H	0.113562	0.404751	0.589612
	H61	H	0.883159	0.585293	0.586694
	H62	H	0.113320	0.592440	0.410341
	H63	H	0.882489	0.412609	0.412022
	H64	H	0.409808	0.588592	0.112934
	H65	H	0.590670	0.602311	0.883184
	H66	H	0.589108	0.406110	0.117020
	H67	H	0.408312	0.415355	0.886910
	H68	H	0.595610	0.119965	0.404562
	H69	H	0.579167	0.887951	0.595079
	H70	H	0.414766	0.114341	0.589206
	H71	H	0.409992	0.888944	0.411129
	H72	H	0.906769	0.617065	0.098260
	H73	H	0.088453	0.385673	0.089207
	H74	H	0.079164	0.612832	0.906777
	H75	H	0.903141	0.384115	0.913755
	H76	H	0.095030	0.904860	0.619298
	H77	H	0.082681	0.081541	0.391551
	H78	H	0.904363	0.095710	0.618042
	H79	H	0.911317	0.904736	0.388119
	H80	H	0.619519	0.102613	0.894382
	H81	H	0.383885	0.087268	0.089728
	H82	H	0.613929	0.921504	0.101834
	H83	H	0.382962	0.912626	0.915100
	H84	H	0.618788	0.900893	0.093352
	H85	H	0.378981	0.092180	0.098320
	H86	H	0.612135	0.102523	0.918629
	H87	H	0.381735	0.914364	0.909702
	H88	H	0.900518	0.085347	0.616410
	H89	H	0.081585	0.106410	0.384669
	H90	H	0.085043	0.915203	0.612783
	H91	H	0.901280	0.900796	0.383302
	H92	H	0.094198	0.613852	0.916631
	H93	H	0.094564	0.382498	0.097402
	H94	H	0.911755	0.613993	0.093167
	H95	H	0.906797	0.383587	0.908761
	H96	H	0.397287	0.117869	0.585144
	H97	H	0.586685	0.886976	0.588092
	H98	H	0.588904	0.118794	0.402975
	H99	H	0.402836	0.886538	0.410673
	H100	H	0.590481	0.411353	0.115493
	H101	H	0.598281	0.596210	0.883204
	H102	H	0.410555	0.597752	0.114776
	H103	H	0.409861	0.407695	0.885930
	H104	H	0.112761	0.588792	0.411048
	H105	H	0.881163	0.580724	0.596805
	H106	H	0.112043	0.412734	0.593090
	H107	H	0.879346	0.407098	0.406366
	H108	H	0.905367	0.615555	0.091071
	H109	H	0.083706	0.384100	0.098245
	H110	H	0.094559	0.620039	0.899475
	H111	H	0.909696	0.385374	0.913683
	H112	H	0.080665	0.900720	0.614880
	H113	H	0.103682	0.092945	0.381783
	H114	H	0.910929	0.087421	0.613712
	H115	H	0.901466	0.911799	0.386682
	H116	H	0.610175	0.081353	0.905019
	H117	H	0.380762	0.097372	0.089103
	H118	H	0.609395	0.916905	0.080469
	H119	H	0.380404	0.908272	0.911326
	C120	C	0.374485	0.010405	0.623170
	C121	C	0.616709	0.993804	0.621026
	C122	C	0.620228	0.011016	0.377286
	C123	C	0.376538	0.994155	0.379113
	C124	C	0.618472	0.381088	0.008718
	C125	C	0.621973	0.625394	0.991532
	C126	C	0.377404	0.624148	0.008407
	C127	C	0.376360	0.380073	0.992530
	C128	C	0.005664	0.620410	0.379430
	C129	C	0.988638	0.618285	0.622345
	C130	C	0.005965	0.376616	0.624423
	C131	C	0.988808	0.378614	0.380734
	C132	C	0.876057	0.508549	0.124025
	C133	C	0.119018	0.491524	0.123279
	C134	C	0.120005	0.508556	0.879243
	C135	C	0.877150	0.491413	0.880625
	C136	C	0.117514	0.877708	0.509143
	C137	C	0.119195	0.122352	0.492501
	C138	C	0.876354	0.120080	0.508974
	C139	C	0.873248	0.875630	0.492795
	C140	C	0.505571	0.125101	0.877867
	C141	C	0.488984	0.123479	0.120904
	C142	C	0.506825	0.881388	0.122775
	C143	C	0.489426	0.883196	0.880581
	C144	C	0.372358	0.889527	0.683229
	C145	C	0.617693	0.116423	0.675604
	C146	C	0.618220	0.889464	0.320896
	C147	C	0.377235	0.116086	0.321600
	C148	C	0.675644	0.384006	0.887059
	C149	C	0.675833	0.620969	0.114472
	C150	C	0.320463	0.624300	0.886986
	C151	C	0.319660	0.380921	0.114606
	C152	C	0.882599	0.675653	0.380766
	C153	C	0.110393	0.677628	0.621537
	C154	C	0.882854	0.320001	0.622904
	C155	C	0.112161	0.323679	0.381870
	C156	C	0.883893	0.374830	0.682811
	C157	C	0.111496	0.619852	0.677981
	C158	C	0.882908	0.618643	0.323341
	C159	C	0.111495	0.378996	0.322733
	C160	C	0.379391	0.681623	0.886660
	C161	C	0.620238	0.680947	0.113258
	C162	C	0.617796	0.326284	0.886892
	C163	C	0.375473	0.321668	0.113800
	C164	C	0.673398	0.887559	0.380432
	C165	C	0.675640	0.115764	0.617472
	C166	C	0.318482	0.887446	0.622164
	C167	C	0.319652	0.115919	0.379759
	C168	C	0.873999	0.386557	0.181731
	C169	C	0.119026	0.613398	0.179188
	C170	C	0.120152	0.386382	0.823901
	C171	C	0.877347	0.612481	0.820508
	C172	C	0.175736	0.879770	0.387485
	C173	C	0.175198	0.119617	0.614467
	C174	C	0.822947	0.118278	0.386351
	C175	C	0.815484	0.876646	0.614174
	C176	C	0.382756	0.180855	0.880737
	C177	C	0.611846	0.180693	0.118495
	C178	C	0.384476	0.822536	0.122332
	C179	C	0.613020	0.828559	0.879922
	C180	C	0.383598	0.881043	0.179137
	C181	C	0.611643	0.124490	0.176438
	C182	C	0.382644	0.124777	0.822442
	C183	C	0.611707	0.885023	0.821694
	C184	C	0.877927	0.178476	0.387838
	C185	C	0.118669	0.177921	0.614255
	C186	C	0.117231	0.821643	0.387768
	C187	C	0.872429	0.817636	0.614229
	C188	C	0.176469	0.386548	0.882810
	C189	C	0.175789	0.614108	0.120645
	C190	C	0.817733	0.386690	0.122736
	C191	C	0.822900	0.614422	0.880716
	C192	C	0.398062	0.095509	0.599057
	C193	C	0.592187	0.908749	0.599636
	C194	C	0.598829	0.096515	0.399316
	C195	C	0.400139	0.909054	0.402438
	C196	C	0.594943	0.402791	0.093783
	C197	C	0.599629	0.603753	0.906688
	C198	C	0.400575	0.599983	0.092675
	C199	C	0.400147	0.403901	0.907568
	C200	C	0.091167	0.597272	0.402754
	C201	C	0.903184	0.593006	0.599493
	C202	C	0.091578	0.400937	0.600722
	C203	C	0.903294	0.401382	0.404081
	C204	C	0.900894	0.593689	0.100752
	C205	C	0.095548	0.406175	0.101389
	C206	C	0.096238	0.593524	0.901041
	C207	C	0.899970	0.406547	0.905104
	C208	C	0.093832	0.900416	0.593457
	C209	C	0.096126	0.100032	0.407975
	C210	C	0.898776	0.096446	0.594098
	C211	C	0.897684	0.898882	0.407922
	C212	C	0.591523	0.102405	0.899740
	C213	C	0.403206	0.099402	0.098657
	C214	C	0.591986	0.905901	0.098782
	C215	C	0.404043	0.905130	0.905090
	Zn216	Zn	0.495813	0.003443	0.751366
	Zn217	Zn	0.497941	0.003592	0.249989
	Zn218	Zn	0.748831	0.501679	0.001488
	Zn219	Zn	0.247993	0.501334	0.001193
	Zn220	Zn	-0.004183	0.747108	0.501679
	Zn221	Zn	-0.002329	0.250261	0.501654
	Zn222	Zn	-0.002250	0.498664	0.751582
	Zn223	Zn	-0.002542	0.499230	0.252226
	Zn224	Zn	0.499699	0.753799	0.000232
	Zn225	Zn	0.497701	0.251315	0.000227
	Zn226	Zn	0.746502	-0.000423	0.500096
	Zn227	Zn	0.247323	0.000885	0.500638
	N228	N	0.406190	0.967135	0.684130
	N229	N	0.581542	0.039883	0.677704
	N230	N	0.585912	0.967277	0.318855
	N231	N	0.411751	0.039276	0.321147
	N232	N	0.676063	0.417368	0.963836
	N233	N	0.677320	0.587228	0.037726
	N234	N	0.318840	0.589466	0.963785
	N235	N	0.320034	0.416442	0.038134
	N236	N	0.960054	0.676777	0.415155
	N237	N	0.032894	0.676759	0.587733
	N238	N	0.959953	0.320918	0.587375
	N239	N	0.034915	0.323170	0.417081
	N240	N	0.961706	0.409084	0.684193
	N241	N	0.034597	0.583435	0.678431
	N242	N	0.960494	0.585119	0.322287
	N243	N	0.033718	0.412395	0.321838
	N244	N	0.413820	0.681893	0.963217
	N245	N	0.587878	0.684115	0.036008
	N246	N	0.583131	0.324181	0.963696
	N247	N	0.410071	0.320958	0.036845
	N248	N	0.674899	0.964059	0.414786
	N249	N	0.675245	0.038362	0.584636
	N250	N	0.319333	0.963596	0.585705
	N251	N	0.319137	0.038965	0.414758
	N252	N	0.909682	0.463204	0.182492
	N253	N	0.084636	0.536041	0.180974
	N254	N	0.085717	0.463276	0.821611
	N255	N	0.910344	0.534852	0.820249
	N256	N	0.176182	0.913842	0.463962
	N257	N	0.175696	0.085511	0.537904
	N258	N	0.822034	0.082510	0.462840
	N259	N	0.815761	0.911747	0.537570
	N260	N	0.460324	0.181107	0.914532
	N261	N	0.534564	0.179859	0.084331
	N262	N	0.462108	0.822427	0.087964
	N263	N	0.536051	0.827481	0.915990
	N264	N	0.460845	0.916519	0.179779
	N265	N	0.534187	0.089627	0.177974
	N266	N	0.459985	0.090939	0.820528
	N267	N	0.533933	0.918227	0.821950
	N268	N	0.910593	0.179713	0.465110
	N269	N	0.084913	0.180055	0.537464
	N270	N	0.081806	0.820401	0.464258
	N271	N	0.907863	0.817016	0.537694
	N272	N	0.176663	0.463514	0.916330
	N273	N	0.175981	0.537386	0.086567
	N274	N	0.819026	0.463631	0.087608
	N275	N	0.822599	0.538321	0.917500
	O276	O	0.013840	-0.019684	0.010444
	H277	H	0.010072	-0.010405	0.012627
	H278	H	0.010428	-0.019369	0.011008
	O279	O	0.339324	0.585157	0.525081
	H280	H	0.347658	0.574364	0.522394
	H281	H	0.352481	0.587590	0.517228
	O282	O	1.071464	-0.010256	-0.076343
	H283	H	1.065400	-0.008566	-0.072939
	H284	H	1.067099	-0.009749	-0.079883
	O285	O	-0.081614	0.930559	-0.040320
	H286	H	-0.088513	0.925422	-0.041810
	H287	H	-0.077415	0.936768	-0.041703
	O288	O	0.509300	0.436237	0.636109
	H289	H	0.500424	0.432570	0.640585
	H290	H	0.518369	0.454126	0.635910
	O291	O	0.889495	0.088796	0.996045
	H292	H	0.900956	0.092602	0.991297
	H293	H	0.883974	0.086818	0.992731
	O294	O	0.935183	1.105383	0.958332
	H295	H	0.926849	1.103514	0.952539
	H296	H	0.936131	1.112343	0.952705
	O297	O	0.130971	-0.077063	-0.079974
	H298	H	0.131569	-0.078598	-0.086902
	H299	H	0.134011	-0.084773	-0.079744
	O300	O	0.588291	0.595367	0.627197
	H301	H	0.586728	0.597313	0.631758
	H302	H	0.579125	0.607386	0.621725
	O303	O	0.054079	0.940773	1.042209
	H304	H	0.055628	0.940400	1.024895
	H305	H	0.059364	0.944240	1.039245
	O306	O	0.498903	0.408877	0.392726
	H307	H	0.497585	0.421853	0.396449
	H308	H	0.489020	0.406948	0.395847
	O309	O	1.029502	0.044640	-0.130743
	H310	H	1.034295	0.047366	-0.125820
	H311	H	1.031908	0.047472	-0.142754
	O312	O	-0.172299	-0.022250	1.084309
	H313	H	-0.174761	-0.013817	1.092458
	H314	H	-0.174050	-0.029821	1.091112
	O315	O	0.495044	0.478641	0.486571
	H316	H	0.490347	0.477840	0.485353
	H317	H	0.492730	0.479708	0.492998
	O318	O	0.372404	0.324550	0.628618
	H319	H	0.373864	0.342674	0.635882
	H320	H	0.353332	0.314076	0.621769
	O321	O	0.618551	0.592232	0.453491
	H322	H	0.624300	0.601025	0.446169
	H323	H	0.619983	0.589751	0.443081
	O324	O	0.526341	0.542220	0.586547
	H325	H	0.528925	0.545715	0.591925
	H326	H	0.524156	0.539154	0.573427
	O327	O	0.101583	0.885301	1.067177
	H328	H	0.088814	0.888143	1.064886
	H329	H	0.099682	0.884050	1.072763
	O330	O	0.458150	0.416010	0.506700
	H331	H	0.443096	0.418937	0.505201
	H332	H	0.441061	0.409679	0.517247
	O333	O	0.050363	1.095183	1.118503
	H334	H	0.059468	1.100964	1.123234
	H335	H	0.057502	1.093043	1.110631
	O336	O	1.063273	1.015260	1.144553
	H337	H	1.060591	1.014185	1.137202
	H338	H	1.058674	1.011700	1.148922
	O339	O	0.395572	0.460437	0.407872
	H340	H	0.389464	0.458873	0.412808
	H341	H	0.393565	0.456971	0.395557
	O342	O	1.019481	0.003624	-0.079169
	H343	H	1.008882	0.008252	-0.073451
	H344	H	1.024295	0.006811	-0.076970
	O345	O	-0.133003	0.839660	0.039560
	H346	H	-0.132634	0.834607	0.048965
	H347	H	-0.150530	0.823598	0.040016
	O348	O	1.086957	1.015280	1.072049
	H349	H	1.081917	1.017805	1.073905
	H350	H	1.086910	1.014444	1.070798
	O351	O	0.991651	1.026107	-0.126066
	H352	H	0.990395	1.021299	-0.112161
	H353	H	0.976948	1.018745	-0.129113
	O354	O	0.529328	0.654712	0.497947
	H355	H	0.516301	0.654506	0.506369
	H356	H	0.536893	0.653647	0.487800
	O357	O	0.440135	0.510009	0.440294
	H358	H	0.427492	0.509592	0.444736
	H359	H	0.445356	0.513517	0.432601
	O360	O	-0.049083	0.142652	-0.072175
	H361	H	-0.049702	0.152470	-0.094538
	H362	H	-0.054915	0.143373	-0.069839
	O363	O	0.546890	0.531118	0.568886
	H364	H	0.549436	0.535138	0.557083
	H365	H	0.540223	0.529289	0.564817
	O366	O	0.438036	0.599439	0.583125
	H367	H	0.439614	0.588400	0.561156
	H368	H	0.438067	0.609229	0.575788
	O369	O	0.561385	0.394451	0.511191
	H370	H	0.565366	0.396313	0.508969
	H371	H	0.556243	0.391490	0.517998
	O372	O	0.366834	0.487993	0.415648
	H373	H	0.366817	0.496642	0.411324
	H374	H	0.375182	0.487098	0.433137
	O375	O	0.477459	0.397541	0.472028
	H376	H	0.470350	0.406999	0.477019
	H377	H	0.485749	0.392081	0.470828
	O378	O	0.516779	0.582912	0.351480
	H379	H	0.509522	0.577656	0.355227
	H380	H	0.522789	0.592630	0.350522
	O381	O	0.550133	0.592507	0.485778
	H382	H	0.535910	0.582215	0.490087
	H383	H	0.546812	0.590007	0.498616
	O384	O	0.000836	0.842731	-0.112123
	H385	H	-0.001997	0.846445	-0.116914
	H386	H	-0.010070	0.851261	-0.107506
	O387	O	0.994165	0.051555	0.995859
	H388	H	0.990029	0.049381	1.009507
	H389	H	1.005875	0.050318	0.987942
	O390	O	0.489031	0.439300	-0.535196
	H391	H	0.488723	0.444168	-0.534804
	H392	H	0.491154	0.439182	-0.536900
	O393	O	1.010079	0.962480	0.090225
	H394	H	1.016998	0.955772	0.089107
	H395	H	1.009687	0.961951	0.099540
	O396	O	0.652137	0.475403	0.429769
	H397	H	0.661118	0.462645	0.438541
	H398	H	0.652541	0.484944	0.431579
	O399	O	-0.069271	1.046329	0.967138
	H400	H	-0.058553	1.048717	0.970009
	H401	H	-0.058908	1.047718	0.956573
	O402	O	0.897334	0.888231	1.055691
	H403	H	0.897064	0.882440	1.063375
	H404	H	0.900101	0.883107	1.058197
	O405	O	0.431179	0.623101	0.562893
	H406	H	0.436618	0.617145	0.555106
	H407	H	0.426960	0.622594	0.559782
