data_Molecule from HDF5

_cell_length_a		16.315121
_cell_length_b		16.127509
_cell_length_c		16.340636
_cell_angle_alpha	89.932931
_cell_angle_beta	89.788629
_cell_angle_gamma	89.882713
_symmetry_space_group_name_H-M	'P 1'
_symmetry_Int_Tables_number		1

loop_
	_symmetry_equiv_pos_as_xyz
	x,y,z

loop_
	_atom_site_label
	_atom_site_type_symbol
	_atom_site_fract_x
	_atom_site_fract_y
	_atom_site_fract_z
	H0	H	0.404459	0.831232	0.714461
	H1	H	0.601893	0.160613	0.715230
	H2	H	0.602944	0.831236	0.286360
	H3	H	0.404730	0.161236	0.287479
	H4	H	0.718574	0.396549	0.837639
	H5	H	0.716948	0.595200	0.163891
	H6	H	0.287086	0.596336	0.837358
	H7	H	0.284770	0.395095	0.162517
	H8	H	0.839165	0.711824	0.404073
	H9	H	0.167380	0.707699	0.595469
	H10	H	0.838715	0.283125	0.598123
	H11	H	0.167099	0.283912	0.404637
	H12	H	0.840015	0.395742	0.717603
	H13	H	0.165956	0.595722	0.715774
	H14	H	0.839324	0.598227	0.284736
	H15	H	0.165392	0.395251	0.283099
	H16	H	0.406556	0.708792	0.835917
	H17	H	0.598295	0.709341	0.164574
	H18	H	0.598354	0.283625	0.835850
	H19	H	0.405247	0.283372	0.164520
	H20	H	0.717874	0.831766	0.403083
	H21	H	0.715433	0.161712	0.598381
	H22	H	0.289796	0.831573	0.599500
	H23	H	0.291643	0.161970	0.403838
	H24	H	0.902401	0.331916	0.216108
	H25	H	0.100877	0.661309	0.213277
	H26	H	0.100808	0.331546	0.787031
	H27	H	0.902521	0.662002	0.786863
	H28	H	0.220676	0.897637	0.338336
	H29	H	0.217471	0.094291	0.664313
	H30	H	0.786673	0.098086	0.338527
	H31	H	0.786438	0.896615	0.663405
	H32	H	0.337859	0.208873	0.904773
	H33	H	0.666489	0.209255	0.096136
	H34	H	0.337477	0.783692	0.097024
	H35	H	0.666311	0.782644	0.903695
	H36	H	0.339236	0.896780	0.217365
	H37	H	0.665818	0.096122	0.215228
	H38	H	0.338862	0.095356	0.786166
	H39	H	0.665351	0.895840	0.784689
	H40	H	0.906752	0.210664	0.337052
	H41	H	0.097080	0.206926	0.665840
	H42	H	0.101957	0.783240	0.336521
	H43	H	0.906422	0.783570	0.664920
	H44	H	0.215096	0.330980	0.902291
	H45	H	0.215588	0.661234	0.099168
	H46	H	0.788900	0.331114	0.100613
	H47	H	0.787804	0.661273	0.902473
	H48	H	0.414224	0.112623	0.592312
	H49	H	0.591070	0.883886	0.581161
	H50	H	0.600243	0.115469	0.407756
	H51	H	0.407162	0.880191	0.418222
	H52	H	0.602759	0.401683	0.119203
	H53	H	0.598145	0.582660	0.885625
	H54	H	0.410659	0.590040	0.115779
	H55	H	0.410802	0.393152	0.883412
	H56	H	0.119911	0.591662	0.406774
	H57	H	0.886027	0.594069	0.591531
	H58	H	0.120466	0.395289	0.591615
	H59	H	0.888554	0.406586	0.411277
	H60	H	0.116569	0.409015	0.591318
	H61	H	0.888389	0.583819	0.592987
	H62	H	0.117710	0.585373	0.408484
	H63	H	0.885689	0.406849	0.403983
	H64	H	0.404672	0.590153	0.117514
	H65	H	0.591491	0.589560	0.886387
	H66	H	0.594571	0.408515	0.114237
	H67	H	0.398160	0.404683	0.881247
	H68	H	0.593333	0.114741	0.402553
	H69	H	0.607377	0.874778	0.593571
	H70	H	0.405257	0.114988	0.591406
	H71	H	0.405929	0.874249	0.400813
	H72	H	0.899370	0.618271	0.094041
	H73	H	0.094413	0.377751	0.095115
	H74	H	0.099761	0.616663	0.905811
	H75	H	0.903907	0.373722	0.897606
	H76	H	0.098991	0.903897	0.616844
	H77	H	0.101613	0.089406	0.383752
	H78	H	0.905390	0.097520	0.620663
	H79	H	0.910451	0.905467	0.385277
	H80	H	0.617580	0.087407	0.908423
	H81	H	0.385120	0.093844	0.094181
	H82	H	0.615176	0.905541	0.085416
	H83	H	0.381330	0.902533	0.891515
	H84	H	0.618877	0.908626	0.100527
	H85	H	0.388029	0.085792	0.091288
	H86	H	0.618515	0.085494	0.904485
	H87	H	0.384752	0.890637	0.915966
	H88	H	0.902286	0.082370	0.616933
	H89	H	0.097891	0.087037	0.385848
	H90	H	0.096043	0.901853	0.616325
	H91	H	0.910846	0.904492	0.385035
	H92	H	0.090507	0.614566	0.903285
	H93	H	0.091234	0.379781	0.091566
	H94	H	0.917296	0.613899	0.100678
	H95	H	0.921564	0.382474	0.906606
	H96	H	0.410226	0.116111	0.599046
	H97	H	0.587021	0.878211	0.602364
	H98	H	0.592380	0.112015	0.411264
	H99	H	0.421518	0.880816	0.406819
	H100	H	0.592520	0.397422	0.117097
	H101	H	0.600388	0.592492	0.882066
	H102	H	0.407578	0.585027	0.114750
	H103	H	0.413682	0.410181	0.887092
	H104	H	0.118798	0.585771	0.402106
	H105	H	0.884866	0.589391	0.600644
	H106	H	0.121145	0.403044	0.602772
	H107	H	0.886109	0.400281	0.408205
	H108	H	0.913222	0.609764	0.082568
	H109	H	0.096447	0.379273	0.090316
	H110	H	0.093608	0.612960	0.912330
	H111	H	0.904288	0.379913	0.918231
	H112	H	0.098337	0.901030	0.618177
	H113	H	0.097743	0.091815	0.384419
	H114	H	0.916464	0.088356	0.614017
	H115	H	0.910018	0.904868	0.384934
	H116	H	0.619228	0.090340	0.904852
	H117	H	0.385564	0.086894	0.100004
	H118	H	0.621370	0.894013	0.094730
	H119	H	0.391509	0.916989	0.911979
	C120	C	0.381788	0.005224	0.622291
	C121	C	0.623775	0.987820	0.621254
	C122	C	0.624836	0.005009	0.378669
	C123	C	0.382957	0.987641	0.380177
	C124	C	0.624421	0.374249	0.008551
	C125	C	0.624245	0.617295	0.992486
	C126	C	0.379912	0.617666	0.008241
	C127	C	0.379633	0.373842	0.992079
	C128	C	0.011038	0.618047	0.377870
	C129	C	0.994834	0.617403	0.622367
	C130	C	0.011273	0.374006	0.623477
	C131	C	0.994532	0.375217	0.379028
	C132	C	0.881317	0.504906	0.121663
	C133	C	0.123245	0.487993	0.120855
	C134	C	0.123105	0.505147	0.879190
	C135	C	0.881123	0.487884	0.879256
	C136	C	0.126253	0.874220	0.509264
	C137	C	0.125389	0.117599	0.492586
	C138	C	0.880539	0.118627	0.509271
	C139	C	0.882040	0.875679	0.492888
	C140	C	0.510504	0.116885	0.878587
	C141	C	0.494372	0.117443	0.122360
	C142	C	0.510552	0.874357	0.122634
	C143	C	0.494005	0.874481	0.878361
	C144	C	0.384387	0.880475	0.676576
	C145	C	0.621821	0.111843	0.676691
	C146	C	0.623009	0.880872	0.323963
	C147	C	0.384928	0.111932	0.325204
	C148	C	0.680062	0.376467	0.886052
	C149	C	0.678885	0.615489	0.115284
	C150	C	0.325289	0.616012	0.885588
	C151	C	0.324111	0.375965	0.114253
	C152	C	0.887911	0.673860	0.382243
	C153	C	0.118282	0.671136	0.617523
	C154	C	0.887888	0.319799	0.619767
	C155	C	0.117964	0.320586	0.382526
	C156	C	0.888499	0.376099	0.678978
	C157	C	0.117438	0.615524	0.677317
	C158	C	0.888175	0.617382	0.322907
	C159	C	0.117071	0.376125	0.322325
	C160	C	0.384405	0.672163	0.884971
	C161	C	0.620016	0.672200	0.115578
	C162	C	0.620201	0.320679	0.885025
	C163	C	0.383791	0.319958	0.115239
	C164	C	0.680311	0.880908	0.381704
	C165	C	0.678110	0.112380	0.618635
	C166	C	0.327321	0.880689	0.619801
	C167	C	0.328775	0.112330	0.383107
	C168	C	0.882637	0.381063	0.177637
	C169	C	0.120625	0.612106	0.175540
	C170	C	0.120954	0.380780	0.824560
	C171	C	0.882848	0.612594	0.824646
	C172	C	0.182144	0.876855	0.386572
	C173	C	0.179323	0.114837	0.615721
	C174	C	0.825302	0.117725	0.386813
	C175	C	0.825304	0.876827	0.615173
	C176	C	0.387073	0.171763	0.882905
	C177	C	0.617649	0.171967	0.117507
	C178	C	0.386797	0.820499	0.118723
	C179	C	0.617104	0.819445	0.882015
	C180	C	0.387700	0.876347	0.178662
	C181	C	0.617083	0.115837	0.176925
	C182	C	0.387522	0.115272	0.824153
	C183	C	0.616650	0.875668	0.822602
	C184	C	0.884983	0.173568	0.386132
	C185	C	0.119780	0.170949	0.616347
	C186	C	0.122818	0.820304	0.385636
	C187	C	0.884579	0.820377	0.615852
	C188	C	0.177632	0.380546	0.882041
	C189	C	0.177690	0.612022	0.118410
	C190	C	0.826019	0.380660	0.120385
	C191	C	0.825957	0.612293	0.882262
	C192	C	0.403415	0.092086	0.600661
	C193	C	0.601682	0.901283	0.598876
	C194	C	0.602116	0.091759	0.400926
	C195	C	0.405136	0.900839	0.402172
	C196	C	0.602847	0.396034	0.094584
	C197	C	0.602887	0.594828	0.906952
	C198	C	0.401369	0.595107	0.093812
	C199	C	0.401271	0.396123	0.906005
	C200	C	0.096641	0.594470	0.399460
	C201	C	0.908614	0.595648	0.601162
	C202	C	0.097271	0.395863	0.601521
	C203	C	0.908974	0.398001	0.401110
	C204	C	0.903409	0.591576	0.099030
	C205	C	0.100652	0.401178	0.098660
	C206	C	0.101258	0.592219	0.900812
	C207	C	0.903257	0.401364	0.901126
	C208	C	0.104222	0.895795	0.594861
	C209	C	0.105016	0.096113	0.406735
	C210	C	0.901611	0.096000	0.595086
	C211	C	0.904111	0.898287	0.407203
	C212	C	0.596172	0.094449	0.899720
	C213	C	0.408277	0.095300	0.101405
	C214	C	0.596219	0.896290	0.100218
	C215	C	0.408024	0.896959	0.900141
	Zn216	Zn	0.502740	-0.003741	0.749027
	Zn217	Zn	0.502635	-0.003980	0.251588
	Zn218	Zn	0.753377	0.495693	0.001105
	Zn219	Zn	0.250785	0.496235	-0.000172
	Zn220	Zn	0.003184	0.746199	0.500611
	Zn221	Zn	0.003134	0.246432	0.500892
	Zn222	Zn	0.002419	0.496630	0.751547
	Zn223	Zn	0.002436	0.496187	0.248935
	Zn224	Zn	0.501843	0.745773	0.000198
	Zn225	Zn	0.502185	0.245752	0.000128
	Zn226	Zn	0.752107	-0.003198	0.500911
	Zn227	Zn	0.255206	-0.003222	0.501169
	N228	N	0.417590	0.958762	0.678048
	N229	N	0.588649	0.033555	0.678256
	N230	N	0.589417	0.959175	0.321972
	N231	N	0.418031	0.033394	0.323436
	N232	N	0.682785	0.409042	0.963926
	N233	N	0.681830	0.582193	0.037771
	N234	N	0.322392	0.582789	0.963163
	N235	N	0.321612	0.408789	0.036626
	N236	N	0.965325	0.674674	0.415337
	N237	N	0.041000	0.672362	0.584094
	N238	N	0.965135	0.318681	0.585856
	N239	N	0.040880	0.319766	0.416793
	N240	N	0.966290	0.409094	0.681437
	N241	N	0.039531	0.582855	0.680244
	N242	N	0.965727	0.583556	0.320043
	N243	N	0.039271	0.409249	0.319888
	N244	N	0.417858	0.673277	0.962175
	N245	N	0.586817	0.673467	0.038281
	N246	N	0.586379	0.319350	0.962216
	N247	N	0.417813	0.318754	0.037956
	N248	N	0.681805	0.959383	0.414760
	N249	N	0.679160	0.034320	0.584508
	N250	N	0.325471	0.959258	0.586831
	N251	N	0.327250	0.034003	0.416443
	N252	N	0.916155	0.459200	0.178701
	N253	N	0.087285	0.533858	0.177087
	N254	N	0.087713	0.459184	0.822666
	N255	N	0.916506	0.534350	0.822536
	N256	N	0.184339	0.909550	0.464158
	N257	N	0.182899	0.082375	0.537919
	N258	N	0.822392	0.084299	0.464349
	N259	N	0.823719	0.910516	0.537660
	N260	N	0.464397	0.172907	0.916137
	N261	N	0.540310	0.172948	0.084197
	N262	N	0.464065	0.819111	0.084479
	N263	N	0.539904	0.818653	0.915937
	N264	N	0.465627	0.908681	0.181477
	N265	N	0.539470	0.082750	0.179984
	N266	N	0.465155	0.081750	0.821340
	N267	N	0.539080	0.909118	0.820248
	N268	N	0.918441	0.174207	0.463355
	N269	N	0.086986	0.172850	0.538874
	N270	N	0.088869	0.818384	0.462883
	N271	N	0.919193	0.819747	0.539061
	N272	N	0.179111	0.458981	0.915088
	N273	N	0.179435	0.533681	0.085240
	N274	N	0.825021	0.458861	0.086253
	N275	N	0.824605	0.533883	0.915352
	O276	O	0.955288	1.011103	0.011900
	H277	H	0.967172	1.009300	0.006775
	H278	H	0.954214	1.012486	0.021195
	O279	O	-0.034163	-0.031970	0.020843
	H280	H	-0.044042	-0.034303	0.024497
	H281	H	-0.037155	-0.033050	0.015013
	O282	O	-0.061228	-0.007026	1.043826
	H283	H	-0.066872	-0.002315	1.048666
	H284	H	-0.060891	-0.005967	1.036084
	O285	O	0.539098	0.482885	0.458078
	H286	H	0.541246	0.469419	0.454340
	H287	H	0.542975	0.474337	0.447709
	O288	O	0.546955	0.524249	0.416403
	H289	H	0.541514	0.517181	0.412174
	H290	H	0.553170	0.517279	0.420770
	O291	O	0.550002	0.495375	0.457124
	H292	H	0.541430	0.512508	0.460393
	H293	H	0.555363	0.500539	0.454500
	O294	O	-0.035499	0.018732	0.037776
	H295	H	-0.027143	0.017455	0.030828
	H296	H	-0.040015	0.009450	0.038616
	O297	O	0.522882	0.529312	0.453557
	H298	H	0.523571	0.533947	0.444182
	H299	H	0.524697	0.523710	0.446933
	O300	O	-0.053236	0.983387	1.070308
	H301	H	-0.058929	0.986529	1.075511
	H302	H	-0.055943	0.980970	1.069388
	O303	O	0.512833	0.521342	0.432038
	H304	H	0.513733	0.524012	0.433206
	H305	H	0.502248	0.530425	0.430469
	O306	O	-0.101142	0.042602	1.039054
	H307	H	-0.102227	0.044937	1.041436
	H308	H	-0.105294	0.032502	1.040943
	O309	O	1.036312	1.038514	1.007648
	H310	H	1.033501	1.047713	1.011868
	H311	H	1.036702	1.029411	1.011106
	O312	O	0.512247	0.504322	0.408188
	H313	H	0.519024	0.510633	0.420152
	H314	H	0.508322	0.504665	0.414226
	O315	O	0.465367	0.542915	0.473581
	H316	H	0.472391	0.552318	0.473382
	H317	H	0.465522	0.539883	0.468350
	O318	O	-0.066962	1.010255	0.022670
	H319	H	-0.065509	1.012539	0.022708
	H320	H	-0.071263	1.015002	0.026588
	O321	O	0.969748	1.049938	0.016522
	H322	H	0.968493	1.062947	0.017194
	H323	H	0.971292	1.044223	0.015363
