data_Molecule from HDF5

_cell_length_a		16.359379
_cell_length_b		16.274668
_cell_length_c		16.234051
_cell_angle_alpha	89.995209
_cell_angle_beta	90.043507
_cell_angle_gamma	89.997300
_symmetry_space_group_name_H-M	'P 1'
_symmetry_Int_Tables_number		1

loop_
	_symmetry_equiv_pos_as_xyz
	x,y,z

loop_
	_atom_site_label
	_atom_site_type_symbol
	_atom_site_fract_x
	_atom_site_fract_y
	_atom_site_fract_z
	H0	H	0.404189	0.844640	0.711777
	H1	H	0.599357	0.173623	0.711027
	H2	H	0.597836	0.844455	0.284454
	H3	H	0.404882	0.173448	0.286012
	H4	H	0.716939	0.411357	0.833668
	H5	H	0.717849	0.608275	0.161828
	H6	H	0.286986	0.609646	0.834719
	H7	H	0.289016	0.411049	0.162066
	H8	H	0.838304	0.721818	0.399850
	H9	H	0.164294	0.724672	0.597460
	H10	H	0.838825	0.293661	0.596330
	H11	H	0.164940	0.293926	0.401068
	H12	H	0.839049	0.409994	0.712629
	H13	H	0.165719	0.606393	0.710497
	H14	H	0.839349	0.604681	0.283277
	H15	H	0.166109	0.410274	0.284843
	H16	H	0.405161	0.722496	0.833923
	H17	H	0.599186	0.722000	0.162509
	H18	H	0.601841	0.294883	0.833972
	H19	H	0.406207	0.296582	0.162418
	H20	H	0.716183	0.845319	0.398666
	H21	H	0.716448	0.171951	0.596387
	H22	H	0.286951	0.845349	0.597738
	H23	H	0.286808	0.171940	0.399475
	H24	H	0.907173	0.343914	0.210046
	H25	H	0.100236	0.672936	0.211617
	H26	H	0.100452	0.344047	0.784304
	H27	H	0.905705	0.672484	0.784470
	H28	H	0.215692	0.910296	0.334088
	H29	H	0.216054	0.106997	0.661876
	H30	H	0.788128	0.105874	0.333848
	H31	H	0.787292	0.909930	0.662470
	H32	H	0.339728	0.225660	0.898663
	H33	H	0.665493	0.223036	0.095624
	H34	H	0.339394	0.793788	0.096229
	H35	H	0.664942	0.794350	0.898926
	H36	H	0.338032	0.911636	0.210640
	H37	H	0.665099	0.105871	0.211703
	H38	H	0.338299	0.107784	0.783229
	H39	H	0.665440	0.911774	0.783667
	H40	H	0.904221	0.222035	0.333689
	H41	H	0.099377	0.221524	0.662512
	H42	H	0.097939	0.795612	0.333030
	H43	H	0.904867	0.795585	0.662707
	H44	H	0.217792	0.345003	0.899876
	H45	H	0.217933	0.672063	0.097740
	H46	H	0.787342	0.345760	0.097895
	H47	H	0.788335	0.671929	0.899001
	H48	H	0.416945	0.122502	0.591666
	H49	H	0.589438	0.891655	0.599208
	H50	H	0.588273	0.120864	0.413771
	H51	H	0.409121	0.892428	0.406155
	H52	H	0.600682	0.412895	0.116229
	H53	H	0.592687	0.614755	0.878643
	H54	H	0.403921	0.600194	0.116536
	H55	H	0.402511	0.415341	0.878243
	H56	H	0.120200	0.610246	0.406846
	H57	H	0.890474	0.598325	0.579062
	H58	H	0.118020	0.422243	0.599076
	H59	H	0.883467	0.404677	0.405516
	H60	H	0.121065	0.404948	0.593288
	H61	H	0.886027	0.592701	0.601306
	H62	H	0.115975	0.597546	0.410794
	H63	H	0.890249	0.420739	0.411602
	H64	H	0.413117	0.597795	0.112754
	H65	H	0.609290	0.596518	0.878327
	H66	H	0.597743	0.422113	0.113074
	H67	H	0.410797	0.424156	0.883724
	H68	H	0.607965	0.128337	0.407203
	H69	H	0.591441	0.895948	0.582762
	H70	H	0.404947	0.124316	0.582264
	H71	H	0.406269	0.891453	0.404740
	H72	H	0.912293	0.627882	0.102627
	H73	H	0.094122	0.392004	0.093138
	H74	H	0.091534	0.623898	0.904461
	H75	H	0.908734	0.392926	0.909374
	H76	H	0.091141	0.922454	0.611193
	H77	H	0.089638	0.098149	0.383396
	H78	H	0.903425	0.108219	0.618340
	H79	H	0.908424	0.911129	0.379418
	H80	H	0.619156	0.108045	0.905122
	H81	H	0.385234	0.100659	0.096309
	H82	H	0.616253	0.924704	0.093135
	H83	H	0.388012	0.916465	0.909623
	H84	H	0.622108	0.909849	0.099612
	H85	H	0.384015	0.109860	0.092824
	H86	H	0.614267	0.098154	0.910016
	H87	H	0.386148	0.919424	0.900426
	H88	H	0.904875	0.094678	0.614404
	H89	H	0.094162	0.107467	0.379869
	H90	H	0.090580	0.908385	0.616188
	H91	H	0.903472	0.917380	0.380629
	H92	H	0.099664	0.625021	0.908553
	H93	H	0.097266	0.392945	0.088536
	H94	H	0.917801	0.620578	0.083353
	H95	H	0.906604	0.389973	0.903529
	H96	H	0.403854	0.128216	0.596757
	H97	H	0.604657	0.888960	0.591553
	H98	H	0.591108	0.127779	0.392889
	H99	H	0.408918	0.891260	0.403199
	H100	H	0.591030	0.414536	0.114024
	H101	H	0.586513	0.592869	0.886716
	H102	H	0.411301	0.607435	0.115756
	H103	H	0.415159	0.412324	0.881764
	H104	H	0.119652	0.600325	0.397207
	H105	H	0.881631	0.614954	0.593672
	H106	H	0.114708	0.417004	0.581713
	H107	H	0.884135	0.418907	0.394359
	H108	H	0.898273	0.628067	0.086844
	H109	H	0.099631	0.390606	0.092728
	H110	H	0.098701	0.626937	0.899206
	H111	H	0.912306	0.392963	0.903950
	H112	H	0.102882	0.916144	0.616711
	H113	H	0.100491	0.098526	0.379641
	H114	H	0.915757	0.103269	0.613563
	H115	H	0.911033	0.917464	0.382979
	H116	H	0.618847	0.098041	0.898637
	H117	H	0.387438	0.102033	0.087268
	H118	H	0.616863	0.910843	0.083042
	H119	H	0.384170	0.909598	0.903406
	C120	C	0.380337	0.017076	0.619140
	C121	C	0.623215	1.000472	0.619570
	C122	C	0.623229	0.017279	0.376257
	C123	C	0.379718	0.999971	0.376312
	C124	C	0.624905	0.387867	0.006308
	C125	C	0.624477	0.630207	0.989571
	C126	C	0.380777	0.630558	0.006537
	C127	C	0.381364	0.388237	0.989612
	C128	C	0.010288	0.630127	0.376290
	C129	C	0.993691	0.630305	0.619670
	C130	C	0.010011	0.386587	0.619635
	C131	C	0.993966	0.386873	0.376085
	C132	C	0.881368	0.517246	0.119336
	C133	C	0.124646	0.500245	0.119691
	C134	C	0.124754	0.516829	0.876118
	C135	C	0.881048	0.500290	0.876951
	C136	C	0.122899	0.887109	0.506125
	C137	C	0.123088	0.129746	0.489732
	C138	C	0.879846	0.129855	0.506596
	C139	C	0.879731	0.887193	0.489739
	C140	C	0.509928	0.130607	0.875992
	C141	C	0.493424	0.131824	0.120265
	C142	C	0.510163	0.887256	0.119864
	C143	C	0.493680	0.886735	0.875882
	C144	C	0.383436	0.893518	0.673878
	C145	C	0.620165	0.124113	0.673990
	C146	C	0.619162	0.893478	0.322051
	C147	C	0.383365	0.124045	0.322599
	C148	C	0.679522	0.390565	0.882833
	C149	C	0.679279	0.628154	0.113090
	C150	C	0.325593	0.628997	0.883451
	C151	C	0.326501	0.390242	0.112874
	C152	C	0.887300	0.684152	0.379109
	C153	C	0.116030	0.685692	0.617099
	C154	C	0.887477	0.331625	0.616787
	C155	C	0.116451	0.331687	0.379669
	C156	C	0.887500	0.389234	0.674696
	C157	C	0.116554	0.627287	0.673870
	C158	C	0.887845	0.626214	0.321178
	C159	C	0.117116	0.389782	0.322204
	C160	C	0.384205	0.685196	0.883065
	C161	C	0.620619	0.684816	0.113337
	C162	C	0.621994	0.333086	0.882731
	C163	C	0.384851	0.333503	0.112938
	C164	C	0.677851	0.893970	0.378772
	C165	C	0.678644	0.123388	0.617308
	C166	C	0.325245	0.893957	0.617116
	C167	C	0.324662	0.123304	0.378988
	C168	C	0.885681	0.393276	0.173178
	C169	C	0.121320	0.623885	0.174346
	C170	C	0.121272	0.393102	0.822184
	C171	C	0.884581	0.623522	0.822074
	C172	C	0.177676	0.889649	0.382833
	C173	C	0.178002	0.126956	0.613011
	C174	C	0.825770	0.126824	0.382720
	C175	C	0.824947	0.889531	0.613503
	C176	C	0.387803	0.186868	0.878397
	C177	C	0.616729	0.185271	0.116316
	C178	C	0.387676	0.832225	0.116484
	C179	C	0.616346	0.832170	0.878610
	C180	C	0.386976	0.890853	0.173357
	C181	C	0.616536	0.127501	0.174286
	C182	C	0.387168	0.128400	0.821120
	C183	C	0.616621	0.890658	0.821371
	C184	C	0.883544	0.184258	0.382741
	C185	C	0.120169	0.184249	0.613304
	C186	C	0.119191	0.832853	0.382222
	C187	C	0.883040	0.832460	0.613500
	C188	C	0.179670	0.393607	0.879260
	C189	C	0.179509	0.623739	0.117326
	C190	C	0.826349	0.394103	0.117162
	C191	C	0.826307	0.623270	0.878979
	C192	C	0.402237	0.102967	0.596964
	C193	C	0.601527	0.914347	0.597709
	C194	C	0.602070	0.103299	0.398189
	C195	C	0.401593	0.913988	0.398181
	C196	C	0.602951	0.410125	0.092204
	C197	C	0.602742	0.607881	0.903472
	C198	C	0.402840	0.608399	0.092725
	C199	C	0.403172	0.410612	0.903312
	C200	C	0.096398	0.609003	0.398392
	C201	C	0.908018	0.608538	0.597858
	C202	C	0.095778	0.408370	0.597685
	C203	C	0.908124	0.408426	0.397441
	C204	C	0.903123	0.603263	0.097427
	C205	C	0.103423	0.414182	0.097860
	C206	C	0.103047	0.603114	0.897669
	C207	C	0.902805	0.414268	0.899031
	C208	C	0.101175	0.909098	0.592369
	C209	C	0.101073	0.107973	0.403226
	C210	C	0.901521	0.108249	0.593053
	C211	C	0.901192	0.908999	0.403536
	C212	C	0.595250	0.108175	0.898153
	C213	C	0.407674	0.110595	0.098610
	C214	C	0.596119	0.908764	0.098405
	C215	C	0.408109	0.908675	0.897854
	Zn216	Zn	0.501327	0.008968	0.747368
	Zn217	Zn	0.501148	0.009165	0.248438
	Zn218	Zn	0.752759	0.508847	-0.001617
	Zn219	Zn	0.252739	0.509276	-0.001704
	Zn220	Zn	0.001317	0.759078	0.498308
	Zn221	Zn	0.001724	0.257839	0.498122
	Zn222	Zn	0.002476	0.508551	0.748180
	Zn223	Zn	0.002947	0.508442	0.247598
	Zn224	Zn	0.502307	0.758143	-0.001693
	Zn225	Zn	0.502751	0.260049	-0.002445
	Zn226	Zn	0.751837	0.008374	0.498284
	Zn227	Zn	0.251840	0.008189	0.497847
	N228	N	0.417103	0.970958	0.675309
	N229	N	0.586252	0.046638	0.675435
	N230	N	0.585985	0.970974	0.320345
	N231	N	0.416806	0.046350	0.320717
	N232	N	0.681355	0.423935	0.960707
	N233	N	0.681623	0.594888	0.035149
	N234	N	0.323274	0.595743	0.961196
	N235	N	0.324429	0.423603	0.035053
	N236	N	0.964602	0.686752	0.412604
	N237	N	0.038610	0.687667	0.584046
	N238	N	0.964690	0.329896	0.583332
	N239	N	0.038991	0.329658	0.412494
	N240	N	0.964724	0.422719	0.676502
	N241	N	0.039477	0.593335	0.675360
	N242	N	0.965180	0.593243	0.319821
	N243	N	0.039935	0.423515	0.320070
	N244	N	0.418028	0.685979	0.960674
	N245	N	0.587171	0.686159	0.035509
	N246	N	0.588785	0.331178	0.960337
	N247	N	0.418439	0.332357	0.035229
	N248	N	0.680661	0.971962	0.411691
	N249	N	0.680481	0.045771	0.584037
	N250	N	0.323200	0.971744	0.583836
	N251	N	0.322363	0.045299	0.411643
	N252	N	0.919000	0.470868	0.174739
	N253	N	0.088125	0.546257	0.175983
	N254	N	0.088183	0.470758	0.819819
	N255	N	0.918027	0.545911	0.820488
	N256	N	0.180080	0.922601	0.460759
	N257	N	0.179863	0.093748	0.535105
	N258	N	0.823478	0.093739	0.460715
	N259	N	0.822808	0.922716	0.535543
	N260	N	0.465234	0.188521	0.911659
	N261	N	0.539161	0.188142	0.083386
	N262	N	0.465285	0.830164	0.083719
	N263	N	0.539041	0.829654	0.911850
	N264	N	0.464226	0.924118	0.175660
	N265	N	0.539058	0.094746	0.176593
	N266	N	0.463922	0.094001	0.819728
	N267	N	0.539202	0.923954	0.819571
	N268	N	0.916354	0.186304	0.460755
	N269	N	0.086642	0.185798	0.535617
	N270	N	0.085953	0.831113	0.460028
	N271	N	0.916302	0.830832	0.535613
	N272	N	0.181834	0.471727	0.912069
	N273	N	0.181768	0.545988	0.084056
	N274	N	0.823488	0.472180	0.084621
	N275	N	0.824208	0.545679	0.912300
	O276	O	-0.514030	-0.526290	1.502204
	H277	H	-0.502685	-0.534041	1.500415
	H278	H	-0.510944	-0.529828	1.498077
	O279	O	0.481759	0.505996	0.531457
	H280	H	0.473606	0.513703	0.523589
	H281	H	0.489241	0.508655	0.527303
	O282	O	0.514636	0.507871	0.509729
	H283	H	0.509414	0.501724	0.513398
	H284	H	0.520903	0.511733	0.515039
	O285	O	0.469539	0.494842	0.516136
	H286	H	0.469835	0.504980	0.522151
	H287	H	0.466636	0.493919	0.513846
	O288	O	0.501298	0.493932	0.526711
	H289	H	0.504721	0.495293	0.529818
	H290	H	0.497731	0.498342	0.531437
	O291	O	-0.017972	1.055474	1.019881
	H292	H	-0.020870	1.059421	1.019264
	H293	H	-0.018809	1.053291	1.020682
	O294	O	0.489175	0.467270	0.490729
	H295	H	0.487580	0.458976	0.501089
	H296	H	0.484062	0.461557	0.494567
	O297	O	1.415381	-0.514485	-0.495837
	H298	H	1.408376	-0.513529	-0.501389
	H299	H	1.417267	-0.514406	-0.506111
