data_Molecule from HDF5

_cell_length_a		16.302213
_cell_length_b		16.166847
_cell_length_c		16.339374
_cell_angle_alpha	90.043840
_cell_angle_beta	90.029714
_cell_angle_gamma	89.881486
_symmetry_space_group_name_H-M	'P 1'
_symmetry_Int_Tables_number		1

loop_
	_symmetry_equiv_pos_as_xyz
	x,y,z

loop_
	_atom_site_label
	_atom_site_type_symbol
	_atom_site_fract_x
	_atom_site_fract_y
	_atom_site_fract_z
	H0	H	0.402469	0.833007	0.715556
	H1	H	0.599834	0.161507	0.714349
	H2	H	0.602261	0.833979	0.283517
	H3	H	0.401388	0.161901	0.285748
	H4	H	0.718329	0.396144	0.837167
	H5	H	0.718833	0.597381	0.161794
	H6	H	0.284861	0.599063	0.837657
	H7	H	0.285854	0.396923	0.162453
	H8	H	0.837813	0.711979	0.401527
	H9	H	0.164864	0.711143	0.596992
	H10	H	0.837620	0.285382	0.596178
	H11	H	0.164738	0.281449	0.400859
	H12	H	0.839857	0.396726	0.716226
	H13	H	0.164996	0.596848	0.714816
	H14	H	0.838871	0.597751	0.284103
	H15	H	0.164520	0.397171	0.284192
	H16	H	0.403466	0.712357	0.836616
	H17	H	0.600581	0.711004	0.163000
	H18	H	0.599843	0.282703	0.835914
	H19	H	0.404624	0.282706	0.163110
	H20	H	0.716289	0.832852	0.400068
	H21	H	0.714574	0.162219	0.598574
	H22	H	0.287075	0.832917	0.599944
	H23	H	0.287910	0.162542	0.402759
	H24	H	0.903638	0.333564	0.214724
	H25	H	0.101135	0.662866	0.213863
	H26	H	0.103992	0.334144	0.783492
	H27	H	0.903977	0.662058	0.786585
	H28	H	0.218152	0.897087	0.337537
	H29	H	0.217050	0.097242	0.663187
	H30	H	0.785015	0.097778	0.336860
	H31	H	0.786723	0.899305	0.662701
	H32	H	0.338226	0.212142	0.902642
	H33	H	0.666060	0.210074	0.097253
	H34	H	0.338425	0.783233	0.097099
	H35	H	0.666484	0.784040	0.902794
	H36	H	0.338995	0.897858	0.215268
	H37	H	0.664120	0.098762	0.217208
	H38	H	0.338222	0.097779	0.784487
	H39	H	0.664383	0.895869	0.783728
	H40	H	0.903803	0.211057	0.335745
	H41	H	0.098100	0.211923	0.663805
	H42	H	0.099778	0.783638	0.336246
	H43	H	0.904011	0.784356	0.663678
	H44	H	0.217014	0.332844	0.901788
	H45	H	0.216745	0.662798	0.098805
	H46	H	0.787785	0.332920	0.099589
	H47	H	0.788313	0.661670	0.901476
	H48	H	0.416340	0.109268	0.583600
	H49	H	0.585831	0.883761	0.587862
	H50	H	0.592277	0.115200	0.405737
	H51	H	0.401238	0.876713	0.402853
	H52	H	0.599324	0.400851	0.117846
	H53	H	0.587951	0.598540	0.883086
	H54	H	0.417293	0.589644	0.112676
	H55	H	0.406094	0.411752	0.885216
	H56	H	0.119397	0.592360	0.405509
	H57	H	0.887078	0.581329	0.596149
	H58	H	0.119823	0.399467	0.592396
	H59	H	0.891352	0.414060	0.417377
	H60	H	0.116498	0.406653	0.587879
	H61	H	0.881425	0.595767	0.599678
	H62	H	0.116874	0.589258	0.408318
	H63	H	0.883304	0.412062	0.392515
	H64	H	0.406347	0.595806	0.117744
	H65	H	0.606762	0.590985	0.879104
	H66	H	0.597057	0.409417	0.114709
	H67	H	0.416589	0.403813	0.886104
	H68	H	0.591623	0.112868	0.409875
	H69	H	0.602994	0.878482	0.587665
	H70	H	0.398361	0.116701	0.590377
	H71	H	0.417351	0.881435	0.402196
	H72	H	0.913217	0.616314	0.102507
	H73	H	0.103793	0.379203	0.087503
	H74	H	0.105302	0.617319	0.911450
	H75	H	0.923089	0.384534	0.911413
	H76	H	0.100170	0.896438	0.619339
	H77	H	0.090641	0.094697	0.384079
	H78	H	0.905975	0.090162	0.614810
	H79	H	0.905343	0.898958	0.381163
	H80	H	0.618476	0.093534	0.907965
	H81	H	0.385351	0.091393	0.093907
	H82	H	0.619416	0.903064	0.094743
	H83	H	0.386851	0.909392	0.903225
	H84	H	0.617580	0.905116	0.091352
	H85	H	0.386352	0.088949	0.092155
	H86	H	0.616319	0.085652	0.909008
	H87	H	0.383862	0.900250	0.905486
	H88	H	0.908023	0.090433	0.615158
	H89	H	0.101190	0.089298	0.382841
	H90	H	0.100001	0.912296	0.615635
	H91	H	0.903719	0.910170	0.384007
	H92	H	0.091428	0.616902	0.895826
	H93	H	0.093640	0.378560	0.102285
	H94	H	0.916872	0.609999	0.083841
	H95	H	0.900308	0.378418	0.916093
	H96	H	0.414500	0.115384	0.602978
	H97	H	0.593710	0.876956	0.602734
	H98	H	0.595634	0.115431	0.408760
	H99	H	0.409488	0.883378	0.416911
	H100	H	0.591560	0.402179	0.114718
	H101	H	0.592858	0.578448	0.887965
	H102	H	0.405190	0.583122	0.115111
	H103	H	0.405298	0.399500	0.881465
	H104	H	0.118087	0.587996	0.404079
	H105	H	0.886354	0.592666	0.585674
	H106	H	0.118358	0.407682	0.595557
	H107	H	0.881161	0.390880	0.408382
	H108	H	0.898799	0.616294	0.089094
	H109	H	0.087370	0.384861	0.087203
	H110	H	0.086035	0.610309	0.914820
	H111	H	0.909406	0.375872	0.893796
	H112	H	0.086980	0.903602	0.613607
	H113	H	0.091927	0.083455	0.386650
	H114	H	0.906767	0.091817	0.616499
	H115	H	0.914320	0.905037	0.385574
	H116	H	0.618899	0.087485	0.901650
	H117	H	0.385806	0.088838	0.094435
	H118	H	0.617741	0.907170	0.094151
	H119	H	0.387621	0.906367	0.911875
	C120	C	0.380518	0.005660	0.621591
	C121	C	0.622504	0.988620	0.621002
	C122	C	0.622509	0.005949	0.378582
	C123	C	0.380205	0.988900	0.378553
	C124	C	0.624564	0.375169	0.007936
	C125	C	0.624694	0.618718	0.991174
	C126	C	0.380554	0.619091	0.007896
	C127	C	0.380515	0.376093	0.991806
	C128	C	0.010290	0.619162	0.377614
	C129	C	0.992981	0.618796	0.621921
	C130	C	0.010571	0.376047	0.621067
	C131	C	0.993011	0.375957	0.377532
	C132	C	0.881136	0.505670	0.120714
	C133	C	0.123632	0.489635	0.121195
	C134	C	0.123904	0.506027	0.878626
	C135	C	0.881586	0.488459	0.878707
	C136	C	0.123950	0.875750	0.508161
	C137	C	0.123027	0.118838	0.492126
	C138	C	0.878718	0.119337	0.507800
	C139	C	0.879960	0.876389	0.491618
	C140	C	0.509985	0.118640	0.877685
	C141	C	0.493480	0.119131	0.122051
	C142	C	0.510420	0.875763	0.121833
	C143	C	0.493837	0.875635	0.878154
	C144	C	0.382159	0.881928	0.677450
	C145	C	0.620652	0.112374	0.676713
	C146	C	0.621494	0.882637	0.322068
	C147	C	0.381687	0.112935	0.323587
	C148	C	0.679747	0.376749	0.885509
	C149	C	0.680127	0.616878	0.113512
	C150	C	0.324081	0.618312	0.885921
	C151	C	0.324565	0.377338	0.114026
	C152	C	0.886648	0.673902	0.380896
	C153	C	0.116215	0.673563	0.618209
	C154	C	0.886821	0.322189	0.617707
	C155	C	0.116013	0.319831	0.380472
	C156	C	0.888334	0.377252	0.677679
	C157	C	0.116212	0.616899	0.676801
	C158	C	0.887180	0.617222	0.322658
	C159	C	0.115800	0.377111	0.322270
	C160	C	0.382915	0.674645	0.885407
	C161	C	0.621649	0.673602	0.113963
	C162	C	0.620926	0.320251	0.884887
	C163	C	0.383479	0.320564	0.114435
	C164	C	0.678109	0.882016	0.379951
	C165	C	0.677092	0.112714	0.618674
	C166	C	0.325411	0.881797	0.619559
	C167	C	0.325074	0.113180	0.381644
	C168	C	0.883164	0.382287	0.176763
	C169	C	0.121586	0.613347	0.176641
	C170	C	0.123312	0.382762	0.822306
	C171	C	0.883646	0.612695	0.823932
	C172	C	0.179581	0.877554	0.385924
	C173	C	0.178649	0.117415	0.614556
	C174	C	0.823131	0.117657	0.385383
	C175	C	0.824442	0.878583	0.613992
	C176	C	0.386902	0.173978	0.881430
	C177	C	0.616881	0.173606	0.118883
	C178	C	0.387342	0.820817	0.118387
	C179	C	0.617275	0.820743	0.881492
	C180	C	0.387511	0.877852	0.176851
	C181	C	0.616088	0.117686	0.177913
	C182	C	0.387022	0.117215	0.822765
	C183	C	0.616211	0.876575	0.822385
	C184	C	0.882353	0.173867	0.384725
	C185	C	0.119638	0.174205	0.615028
	C186	C	0.120940	0.820849	0.385295
	C187	C	0.883071	0.821713	0.614628
	C188	C	0.179700	0.382227	0.880767
	C189	C	0.178872	0.613526	0.119316
	C190	C	0.825793	0.381941	0.119412
	C191	C	0.826198	0.612470	0.881158
	C192	C	0.403062	0.091595	0.599095
	C193	C	0.600576	0.902121	0.599110
	C194	C	0.599831	0.092252	0.401337
	C195	C	0.402719	0.902711	0.400701
	C196	C	0.602575	0.397632	0.093637
	C197	C	0.602494	0.595974	0.905353
	C198	C	0.402912	0.596020	0.093262
	C199	C	0.402711	0.398617	0.906379
	C200	C	0.095851	0.596711	0.399509
	C201	C	0.907131	0.596504	0.600166
	C202	C	0.095994	0.398027	0.598541
	C203	C	0.907421	0.398797	0.399634
	C204	C	0.903179	0.591847	0.098351
	C205	C	0.101538	0.403091	0.098855
	C206	C	0.101156	0.592588	0.900966
	C207	C	0.904195	0.401980	0.900613
	C208	C	0.102032	0.897595	0.593996
	C209	C	0.100994	0.096018	0.406615
	C210	C	0.900550	0.097238	0.593429
	C211	C	0.901597	0.898165	0.405588
	C212	C	0.595859	0.095593	0.899613
	C213	C	0.407840	0.096546	0.099910
	C214	C	0.596065	0.898398	0.099938
	C215	C	0.408208	0.898520	0.900357
	Zn216	Zn	0.501819	-0.003173	0.749417
	Zn217	Zn	0.501800	-0.002356	0.250667
	Zn218	Zn	0.753173	0.496613	-0.000385
	Zn219	Zn	0.251646	0.497995	0.000068
	Zn220	Zn	0.001422	0.747166	0.499473
	Zn221	Zn	0.001169	0.247721	0.499543
	Zn222	Zn	0.002604	0.497217	0.750494
	Zn223	Zn	0.002481	0.498132	0.248848
	Zn224	Zn	0.502722	0.747213	-0.000311
	Zn225	Zn	0.502459	0.246956	-0.000333
	Zn226	Zn	0.750220	-0.002689	0.499345
	Zn227	Zn	0.252667	-0.002453	0.500166
	N228	N	0.415700	0.959950	0.678947
	N229	N	0.587361	0.034233	0.678229
	N230	N	0.587542	0.960609	0.321381
	N231	N	0.415294	0.034801	0.321529
	N232	N	0.682197	0.409870	0.963147
	N233	N	0.682152	0.583551	0.035970
	N234	N	0.322478	0.584600	0.963142
	N235	N	0.322743	0.411046	0.036861
	N236	N	0.964074	0.675456	0.414322
	N237	N	0.038683	0.674956	0.584813
	N238	N	0.963701	0.321176	0.583274
	N239	N	0.038603	0.318867	0.413946
	N240	N	0.966161	0.410067	0.679876
	N241	N	0.038744	0.583572	0.679064
	N242	N	0.964914	0.583808	0.320565
	N243	N	0.038472	0.411240	0.320205
	N244	N	0.417262	0.675295	0.962317
	N245	N	0.587679	0.674579	0.036850
	N246	N	0.587051	0.319304	0.961940
	N247	N	0.417383	0.319498	0.037327
	N248	N	0.678640	0.959623	0.414589
	N249	N	0.678590	0.034664	0.584925
	N250	N	0.324101	0.959577	0.585729
	N251	N	0.324008	0.035248	0.415285
	N252	N	0.917102	0.460010	0.177474
	N253	N	0.088124	0.535199	0.177894
	N254	N	0.089434	0.460769	0.820933
	N255	N	0.917622	0.534604	0.822353
	N256	N	0.181655	0.910867	0.463383
	N257	N	0.180711	0.083751	0.537251
	N258	N	0.820747	0.084540	0.462837
	N259	N	0.822242	0.911494	0.536472
	N260	N	0.464411	0.174977	0.914903
	N261	N	0.539801	0.174487	0.084364
	N262	N	0.464769	0.819426	0.085004
	N263	N	0.540099	0.820096	0.915567
	N264	N	0.465111	0.911150	0.179224
	N265	N	0.538450	0.084747	0.180113
	N266	N	0.464767	0.083696	0.820451
	N267	N	0.538590	0.910086	0.820227
	N268	N	0.916246	0.175082	0.461910
	N269	N	0.085652	0.175090	0.537836
	N270	N	0.086903	0.819602	0.462317
	N271	N	0.916947	0.820053	0.537377
	N272	N	0.179992	0.460084	0.915175
	N273	N	0.180216	0.535561	0.085432
	N274	N	0.824471	0.459647	0.085286
	N275	N	0.825199	0.534400	0.914749
	O276	O	0.997813	1.010378	-0.053851
	H277	H	0.993671	1.012823	-0.059871
	H278	H	0.992564	1.012284	-0.052010
	O279	O	0.033515	0.063851	-0.006181
	H280	H	0.038519	0.068416	-0.007325
	H281	H	0.041008	0.071696	0.000684
	O282	O	0.021348	0.026257	1.007639
	H283	H	0.019539	0.027374	1.009437
	H284	H	0.023192	0.017779	1.015092
	O285	O	0.413085	0.521601	0.457181
	H286	H	0.414520	0.531904	0.464016
	H287	H	0.398544	0.518590	0.457666
	O288	O	0.468202	0.488102	0.469842
	H289	H	0.470540	0.482377	0.471720
	H290	H	0.455457	0.499820	0.460739
	O291	O	0.465260	0.523771	0.525541
	H292	H	0.461326	0.521646	0.520537
	H293	H	0.469235	0.512471	0.530186
	O294	O	-0.019499	0.006931	0.033161
	H295	H	-0.016541	0.003595	0.033110
	H296	H	-0.018552	0.006537	0.035008
	O297	O	0.474223	0.503214	0.535116
	H298	H	0.481200	0.497510	0.534268
	H299	H	0.473257	0.505985	0.538996
	O300	O	0.034378	0.931622	1.005992
	H301	H	0.035159	0.927399	1.003248
	H302	H	0.031693	0.927119	1.004832
	O303	O	0.484694	0.498229	0.559776
	H304	H	0.484089	0.497570	0.553248
	H305	H	0.489769	0.504243	0.552297
	O306	O	0.000256	0.014150	0.968978
	H307	H	0.011908	0.021326	0.966013
	H308	H	0.003725	0.011108	0.976595
	O309	O	1.038727	1.022336	0.996769
	H310	H	1.037679	1.022020	0.987826
	H311	H	1.040553	1.026276	1.000333
	O312	O	0.423632	0.535806	0.509940
	H313	H	0.414650	0.540242	0.514255
	H314	H	0.422006	0.542973	0.506498
	O315	O	0.459038	0.484022	0.477215
	H316	H	0.455349	0.472962	0.475344
	H317	H	0.465767	0.487567	0.482787
	O318	O	-0.006311	0.927366	-0.004166
	H319	H	-0.016858	0.940722	-0.003031
	H320	H	-0.003643	0.923056	-0.012351
	O321	O	1.077996	0.983035	-0.003887
	H322	H	1.077977	0.972451	-0.008786
	H323	H	1.073344	0.985906	-0.000318
