data_Molecule from HDF5

_cell_length_a		16.292390
_cell_length_b		16.245255
_cell_length_c		16.302774
_cell_angle_alpha	90.186817
_cell_angle_beta	90.060321
_cell_angle_gamma	89.758956
_symmetry_space_group_name_H-M	'P 1'
_symmetry_Int_Tables_number		1

loop_
	_symmetry_equiv_pos_as_xyz
	x,y,z

loop_
	_atom_site_label
	_atom_site_type_symbol
	_atom_site_fract_x
	_atom_site_fract_y
	_atom_site_fract_z
	H0	H	0.411786	0.839353	0.716638
	H1	H	0.606771	0.168062	0.719444
	H2	H	0.608365	0.840080	0.289044
	H3	H	0.408923	0.167907	0.290017
	H4	H	0.721408	0.404600	0.839383
	H5	H	0.721013	0.601353	0.167414
	H6	H	0.291284	0.602138	0.840248
	H7	H	0.293803	0.405916	0.166815
	H8	H	0.844220	0.718812	0.406301
	H9	H	0.172149	0.715951	0.601863
	H10	H	0.843483	0.290740	0.600551
	H11	H	0.171060	0.288626	0.405134
	H12	H	0.843276	0.407474	0.716248
	H13	H	0.171360	0.602161	0.719547
	H14	H	0.843401	0.603721	0.289225
	H15	H	0.170855	0.403738	0.288366
	H16	H	0.407652	0.717073	0.839056
	H17	H	0.605550	0.717993	0.166846
	H18	H	0.605757	0.287640	0.839338
	H19	H	0.409946	0.290738	0.167728
	H20	H	0.721763	0.839906	0.407175
	H21	H	0.721832	0.168471	0.602903
	H22	H	0.294191	0.839460	0.603169
	H23	H	0.291959	0.167478	0.405263
	H24	H	0.908486	0.339769	0.218289
	H25	H	0.105177	0.667919	0.218285
	H26	H	0.106085	0.339749	0.788827
	H27	H	0.908246	0.668086	0.791176
	H28	H	0.222802	0.904185	0.340250
	H29	H	0.223056	0.102019	0.667659
	H30	H	0.792692	0.102490	0.340321
	H31	H	0.794884	0.906611	0.667643
	H32	H	0.343444	0.219462	0.903938
	H33	H	0.671656	0.216276	0.100537
	H34	H	0.342581	0.791182	0.100843
	H35	H	0.671389	0.788466	0.905993
	H36	H	0.344429	0.906409	0.218957
	H37	H	0.671745	0.102248	0.217852
	H38	H	0.344193	0.103742	0.787475
	H39	H	0.671601	0.905033	0.790085
	H40	H	0.909625	0.217160	0.339404
	H41	H	0.106595	0.218766	0.666673
	H42	H	0.107349	0.787539	0.340214
	H43	H	0.912091	0.791193	0.667564
	H44	H	0.223038	0.339543	0.904086
	H45	H	0.221201	0.667614	0.102397
	H46	H	0.794793	0.338265	0.100428
	H47	H	0.792101	0.667471	0.906236
	H48	H	0.415129	0.119391	0.593423
	H49	H	0.609803	0.885460	0.595890
	H50	H	0.602265	0.118911	0.418028
	H51	H	0.402401	0.882265	0.407431
	H52	H	0.600029	0.415236	0.117757
	H53	H	0.604661	0.592061	0.886829
	H54	H	0.417342	0.589677	0.116763
	H55	H	0.418066	0.412006	0.889196
	H56	H	0.126464	0.595255	0.400999
	H57	H	0.892146	0.600695	0.591292
	H58	H	0.125519	0.406236	0.598218
	H59	H	0.891002	0.412044	0.406012
	H60	H	0.122323	0.411405	0.593339
	H61	H	0.892842	0.592311	0.599391
	H62	H	0.124124	0.602542	0.416696
	H63	H	0.889997	0.406808	0.410691
	H64	H	0.419605	0.605559	0.120216
	H65	H	0.595060	0.594889	0.889213
	H66	H	0.597733	0.405280	0.119592
	H67	H	0.414445	0.408257	0.886041
	H68	H	0.606051	0.124503	0.405394
	H69	H	0.600265	0.886673	0.603841
	H70	H	0.413015	0.121270	0.597489
	H71	H	0.427301	0.886847	0.399625
	H72	H	0.910026	0.620532	0.094558
	H73	H	0.102518	0.387497	0.092879
	H74	H	0.100668	0.618684	0.917680
	H75	H	0.915573	0.387879	0.912418
	H76	H	0.097560	0.914526	0.617776
	H77	H	0.097938	0.090392	0.390584
	H78	H	0.913927	0.092739	0.617710
	H79	H	0.915242	0.911885	0.387438
	H80	H	0.623268	0.095879	0.909724
	H81	H	0.391591	0.102175	0.090680
	H82	H	0.625931	0.912528	0.104922
	H83	H	0.390072	0.913153	0.902237
	H84	H	0.625508	0.900980	0.094042
	H85	H	0.394139	0.089325	0.096050
	H86	H	0.623158	0.096566	0.912644
	H87	H	0.389156	0.903798	0.910980
	H88	H	0.919736	0.101224	0.619655
	H89	H	0.098159	0.100949	0.387396
	H90	H	0.100361	0.902943	0.622221
	H91	H	0.915065	0.909740	0.387199
	H92	H	0.103013	0.622407	0.908635
	H93	H	0.102115	0.385429	0.099205
	H94	H	0.913514	0.620946	0.100040
	H95	H	0.911146	0.384784	0.908535
	H96	H	0.417797	0.119202	0.597659
	H97	H	0.598667	0.889391	0.592029
	H98	H	0.593246	0.119603	0.407342
	H99	H	0.419448	0.892494	0.424604
	H100	H	0.606900	0.408604	0.121266
	H101	H	0.600932	0.601126	0.884678
	H102	H	0.404032	0.598621	0.122733
	H103	H	0.412700	0.413267	0.887224
	H104	H	0.120530	0.585845	0.414524
	H105	H	0.888179	0.602911	0.602423
	H106	H	0.124313	0.413475	0.600542
	H107	H	0.892586	0.412831	0.412711
	H108	H	0.916381	0.618047	0.094695
	H109	H	0.097611	0.387383	0.095880
	H110	H	0.093655	0.619060	0.910359
	H111	H	0.917112	0.386111	0.905810
	H112	H	0.109551	0.912100	0.621534
	H113	H	0.106751	0.094443	0.385147
	H114	H	0.910544	0.100916	0.622260
	H115	H	0.913854	0.910873	0.387471
	H116	H	0.622181	0.093586	0.911568
	H117	H	0.388273	0.099799	0.104265
	H118	H	0.620101	0.915384	0.090049
	H119	H	0.393365	0.915143	0.914724
	C120	C	0.387041	0.011906	0.624669
	C121	C	0.630798	0.995519	0.626291
	C122	C	0.629615	0.012554	0.382282
	C123	C	0.386677	0.995449	0.382225
	C124	C	0.629718	0.380936	0.011435
	C125	C	0.628850	0.624520	0.995220
	C126	C	0.384736	0.625751	0.011713
	C127	C	0.386687	0.382610	0.995409
	C128	C	0.015664	0.624345	0.382330
	C129	C	0.999500	0.625934	0.626191
	C130	C	0.015462	0.382815	0.624847
	C131	C	0.999155	0.381607	0.381374
	C132	C	0.885479	0.511280	0.124764
	C133	C	0.128843	0.495293	0.125193
	C134	C	0.128676	0.511824	0.882311
	C135	C	0.885755	0.494953	0.881572
	C136	C	0.130652	0.880969	0.512381
	C137	C	0.129704	0.124749	0.495303
	C138	C	0.886115	0.126052	0.511729
	C139	C	0.887066	0.882740	0.495736
	C140	C	0.515271	0.125159	0.881744
	C141	C	0.499852	0.125067	0.124903
	C142	C	0.515648	0.881817	0.125111
	C143	C	0.499098	0.881690	0.881489
	C144	C	0.390638	0.888275	0.679108
	C145	C	0.627222	0.119122	0.681357
	C146	C	0.628368	0.889126	0.327093
	C147	C	0.388804	0.119065	0.327812
	C148	C	0.684107	0.383383	0.888293
	C149	C	0.683578	0.621663	0.118171
	C150	C	0.329344	0.622713	0.888920
	C151	C	0.331603	0.385351	0.118296
	C152	C	0.892782	0.680727	0.385549
	C153	C	0.122994	0.679093	0.623165
	C154	C	0.892293	0.328433	0.621060
	C155	C	0.122079	0.326100	0.383998
	C156	C	0.892237	0.386165	0.679110
	C157	C	0.122476	0.622715	0.681806
	C158	C	0.892349	0.623616	0.327195
	C159	C	0.121873	0.383178	0.325812
	C160	C	0.387349	0.679721	0.888442
	C161	C	0.625822	0.679399	0.118244
	C162	C	0.626709	0.325493	0.888186
	C163	C	0.389421	0.328170	0.118639
	C164	C	0.684646	0.889035	0.385740
	C165	C	0.684439	0.119478	0.623380
	C166	C	0.332639	0.888277	0.622299
	C167	C	0.330238	0.118532	0.384660
	C168	C	0.888145	0.388266	0.179858
	C169	C	0.125662	0.618822	0.180468
	C170	C	0.126897	0.388564	0.826424
	C171	C	0.887714	0.618920	0.828170
	C172	C	0.185295	0.883269	0.389101
	C173	C	0.184917	0.122420	0.618634
	C174	C	0.831162	0.122868	0.388704
	C175	C	0.832658	0.886149	0.618739
	C176	C	0.392419	0.181398	0.883511
	C177	C	0.622789	0.178953	0.121238
	C178	C	0.391973	0.828331	0.121837
	C179	C	0.622463	0.826260	0.884987
	C180	C	0.392793	0.885576	0.180385
	C181	C	0.622745	0.122545	0.180032
	C182	C	0.392703	0.123875	0.825619
	C183	C	0.622595	0.884200	0.827538
	C184	C	0.889117	0.179946	0.388348
	C185	C	0.126990	0.180264	0.618342
	C186	C	0.127702	0.825590	0.389064
	C187	C	0.890851	0.828555	0.618713
	C188	C	0.184685	0.388493	0.883968
	C189	C	0.183486	0.618528	0.123017
	C190	C	0.831581	0.387756	0.121374
	C191	C	0.830112	0.618550	0.885339
	C192	C	0.408722	0.097800	0.602591
	C193	C	0.609383	0.909336	0.603818
	C194	C	0.607070	0.098826	0.403997
	C195	C	0.409835	0.909552	0.404054
	C196	C	0.607957	0.403134	0.097398
	C197	C	0.606819	0.602373	0.909209
	C198	C	0.407004	0.604159	0.097776
	C199	C	0.408644	0.404704	0.909683
	C200	C	0.101233	0.601327	0.404199
	C201	C	0.913344	0.604732	0.604383
	C202	C	0.101722	0.404152	0.603563
	C203	C	0.913388	0.403997	0.403298
	C204	C	0.907119	0.597628	0.103021
	C205	C	0.107041	0.409175	0.102668
	C206	C	0.105708	0.597715	0.905439
	C207	C	0.908134	0.408580	0.902570
	C208	C	0.108844	0.903280	0.598298
	C209	C	0.107576	0.101956	0.409747
	C210	C	0.908358	0.104760	0.597665
	C211	C	0.908472	0.904360	0.409677
	C212	C	0.600919	0.101965	0.904400
	C213	C	0.413358	0.103411	0.103260
	C214	C	0.601599	0.903246	0.102881
	C215	C	0.413167	0.904080	0.902984
	Zn216	Zn	0.507917	0.003811	0.753140
	Zn217	Zn	0.508670	0.004011	0.253894
	Zn218	Zn	0.757700	0.502768	0.002930
	Zn219	Zn	0.257174	0.503517	0.003888
	Zn220	Zn	0.008399	0.753399	0.503688
	Zn221	Zn	0.007838	0.253627	0.503223
	Zn222	Zn	0.007261	0.504307	0.754313
	Zn223	Zn	0.006656	0.503513	0.253058
	Zn224	Zn	0.506805	0.753025	0.002995
	Zn225	Zn	0.507184	0.253742	0.003420
	Zn226	Zn	0.757982	0.004839	0.503878
	Zn227	Zn	0.258387	0.002882	0.503942
	N228	N	0.423983	0.965960	0.680548
	N229	N	0.594622	0.041103	0.683319
	N230	N	0.594865	0.966874	0.324856
	N231	N	0.423072	0.041403	0.326069
	N232	N	0.686211	0.416800	0.965740
	N233	N	0.685351	0.588115	0.040591
	N234	N	0.327745	0.589685	0.966572
	N235	N	0.329844	0.418578	0.040750
	N236	N	0.970449	0.681291	0.419075
	N237	N	0.045806	0.681202	0.589206
	N238	N	0.970272	0.326002	0.588514
	N239	N	0.044957	0.325006	0.417830
	N240	N	0.969842	0.419390	0.681405
	N241	N	0.044542	0.590395	0.683728
	N242	N	0.969560	0.589238	0.325131
	N243	N	0.044445	0.417167	0.324211
	N244	N	0.421184	0.681650	0.965825
	N245	N	0.592471	0.681263	0.040781
	N246	N	0.593315	0.324039	0.965874
	N247	N	0.422938	0.326456	0.041286
	N248	N	0.685629	0.966877	0.419304
	N249	N	0.686886	0.041652	0.589913
	N250	N	0.330243	0.966110	0.589277
	N251	N	0.328873	0.040795	0.417855
	N252	N	0.921075	0.466133	0.181866
	N253	N	0.092350	0.541002	0.181930
	N254	N	0.092779	0.466217	0.825465
	N255	N	0.921742	0.541234	0.825944
	N256	N	0.187163	0.916949	0.466501
	N257	N	0.186628	0.088679	0.541001
	N258	N	0.829157	0.090219	0.466352
	N259	N	0.830315	0.919206	0.541078
	N260	N	0.469516	0.182193	0.917903
	N261	N	0.545186	0.180611	0.087718
	N262	N	0.469384	0.825940	0.088105
	N263	N	0.544636	0.824425	0.917750
	N264	N	0.470744	0.918101	0.182555
	N265	N	0.545061	0.089674	0.182183
	N266	N	0.470188	0.089793	0.824441
	N267	N	0.545079	0.917909	0.825223
	N268	N	0.922883	0.181761	0.465829
	N269	N	0.093523	0.181875	0.540900
	N270	N	0.094686	0.823903	0.466825
	N271	N	0.924055	0.826608	0.541302
	N272	N	0.185920	0.466059	0.917965
	N273	N	0.185521	0.540828	0.089406
	N274	N	0.830009	0.465281	0.087805
	N275	N	0.828770	0.540443	0.917768
	O276	O	0.424504	0.561683	0.483470
	H277	H	0.432281	0.559648	0.486800
	H278	H	0.422868	0.561982	0.481932
	O279	O	-0.041346	0.063167	0.013660
	H280	H	-0.039180	0.059504	0.008469
	H281	H	-0.038822	0.067593	0.015705
	O282	O	0.452153	0.518851	0.506003
	H283	H	0.450164	0.524938	0.504230
	H284	H	0.449574	0.517467	0.508203
	O285	O	0.511141	0.514309	0.455436
	H286	H	0.503015	0.512666	0.457819
	H287	H	0.513276	0.506646	0.452678
	O288	O	0.980653	0.059241	-0.004570
	H289	H	0.982300	0.065956	-0.009644
	H290	H	0.980210	0.054295	-0.002829
	O291	O	-0.485485	0.483035	-0.505813
	H292	H	-0.482310	0.485283	-0.507261
	H293	H	-0.480482	0.486795	-0.513134
	O294	O	0.435369	0.535667	0.472551
	H295	H	0.425637	0.545472	0.473981
	H296	H	0.434067	0.529692	0.456899
	O297	O	0.034155	1.027672	-0.032708
	H298	H	0.035265	1.028536	-0.031793
	H299	H	0.030773	1.025757	-0.037436
	O300	O	0.967424	0.036352	0.995924
	H301	H	0.970850	0.039439	0.987447
	H302	H	0.962470	0.045801	1.005755
	O303	O	0.476722	0.447886	0.521551
	H304	H	0.479776	0.452472	0.521913
	H305	H	0.480043	0.453702	0.530935
	O306	O	-0.016688	1.034563	0.986472
	H307	H	-0.012115	1.036210	0.985411
	H308	H	-0.015210	1.031101	0.989914
	O309	O	0.450570	0.543819	0.525158
	H310	H	0.453680	0.533556	0.528043
	H311	H	0.448967	0.541993	0.526377
