data_Molecule from HDF5

_cell_length_a		16.116460
_cell_length_b		16.229670
_cell_length_c		16.365652
_cell_angle_alpha	90.159242
_cell_angle_beta	89.383272
_cell_angle_gamma	90.386265
_symmetry_space_group_name_H-M	'P 1'
_symmetry_Int_Tables_number		1

loop_
	_symmetry_equiv_pos_as_xyz
	x,y,z

loop_
	_atom_site_label
	_atom_site_type_symbol
	_atom_site_fract_x
	_atom_site_fract_y
	_atom_site_fract_z
	H0	H	0.380967	0.834209	0.713427
	H1	H	0.587378	0.161154	0.712064
	H2	H	0.588013	0.834827	0.276939
	H3	H	0.386179	0.159700	0.279817
	H4	H	0.703653	0.398799	0.833381
	H5	H	0.698995	0.596528	0.159934
	H6	H	0.275726	0.592649	0.831869
	H7	H	0.269680	0.399175	0.159076
	H8	H	0.819499	0.708743	0.401087
	H9	H	0.150760	0.714454	0.593171
	H10	H	0.820497	0.285173	0.595388
	H11	H	0.150864	0.286619	0.396850
	H12	H	0.823197	0.396041	0.715118
	H13	H	0.152090	0.600395	0.708709
	H14	H	0.820920	0.596608	0.282879
	H15	H	0.150025	0.397346	0.278946
	H16	H	0.389296	0.712129	0.832772
	H17	H	0.587343	0.716628	0.157372
	H18	H	0.586483	0.281930	0.833268
	H19	H	0.382965	0.280411	0.158233
	H20	H	0.698705	0.832494	0.398076
	H21	H	0.697167	0.162726	0.590807
	H22	H	0.271224	0.833325	0.592565
	H23	H	0.276298	0.163585	0.400451
	H24	H	0.882565	0.334673	0.213754
	H25	H	0.088977	0.660498	0.212322
	H26	H	0.090039	0.335470	0.777479
	H27	H	0.888477	0.661220	0.782138
	H28	H	0.201961	0.900068	0.333180
	H29	H	0.198481	0.098415	0.659311
	H30	H	0.774087	0.094731	0.332170
	H31	H	0.770311	0.901937	0.659854
	H32	H	0.320188	0.208549	0.900419
	H33	H	0.649849	0.214171	0.094071
	H34	H	0.321694	0.781384	0.095312
	H35	H	0.651573	0.785438	0.894544
	H36	H	0.322421	0.893586	0.213904
	H37	H	0.650294	0.100297	0.209218
	H38	H	0.321114	0.096132	0.784564
	H39	H	0.649961	0.898690	0.778607
	H40	H	0.888081	0.213742	0.332947
	H41	H	0.084049	0.215785	0.658377
	H42	H	0.086163	0.781961	0.333335
	H43	H	0.882812	0.782308	0.659159
	H44	H	0.198177	0.332198	0.898995
	H45	H	0.200627	0.661841	0.092605
	H46	H	0.769872	0.333814	0.096058
	H47	H	0.775811	0.662728	0.901342
	H48	H	0.394973	0.118174	0.605569
	H49	H	0.567318	0.883050	0.589547
	H50	H	0.581511	0.113423	0.407052
	H51	H	0.389653	0.879697	0.404027
	H52	H	0.581757	0.409331	0.112352
	H53	H	0.589605	0.589924	0.877561
	H54	H	0.394523	0.583961	0.109040
	H55	H	0.383419	0.396257	0.875190
	H56	H	0.103518	0.588715	0.398496
	H57	H	0.867493	0.592198	0.591642
	H58	H	0.103718	0.405709	0.582421
	H59	H	0.866324	0.397555	0.405299
	H60	H	0.103509	0.411141	0.588237
	H61	H	0.870369	0.587141	0.589629
	H62	H	0.104574	0.595126	0.403244
	H63	H	0.870587	0.409941	0.410655
	H64	H	0.398550	0.594621	0.110971
	H65	H	0.577622	0.584295	0.883858
	H66	H	0.568896	0.407319	0.108548
	H67	H	0.393522	0.412494	0.882639
	H68	H	0.583936	0.116850	0.397491
	H69	H	0.580480	0.881821	0.581507
	H70	H	0.403191	0.110364	0.586650
	H71	H	0.398207	0.880764	0.400124
	H72	H	0.893362	0.615052	0.089324
	H73	H	0.069443	0.383960	0.085754
	H74	H	0.072869	0.614771	0.894341
	H75	H	0.893396	0.382984	0.911270
	H76	H	0.077370	0.899332	0.614066
	H77	H	0.085044	0.090524	0.379261
	H78	H	0.891103	0.101283	0.614179
	H79	H	0.892979	0.899346	0.378937
	H80	H	0.604337	0.094739	0.903821
	H81	H	0.368967	0.083399	0.091777
	H82	H	0.607058	0.903558	0.091986
	H83	H	0.368933	0.908805	0.903449
	H84	H	0.602686	0.904680	0.079374
	H85	H	0.366166	0.089966	0.092254
	H86	H	0.601785	0.085628	0.904713
	H87	H	0.365551	0.900353	0.900537
	H88	H	0.882543	0.087343	0.613197
	H89	H	0.077604	0.088957	0.381310
	H90	H	0.082082	0.910133	0.612801
	H91	H	0.890095	0.904754	0.378917
	H92	H	0.080101	0.611830	0.912443
	H93	H	0.083136	0.379388	0.084846
	H94	H	0.894021	0.615238	0.093613
	H95	H	0.890407	0.377784	0.899063
	H96	H	0.382076	0.117407	0.587420
	H97	H	0.580391	0.877569	0.596283
	H98	H	0.574020	0.113721	0.399539
	H99	H	0.395767	0.883283	0.408432
	H100	H	0.576029	0.397072	0.113622
	H101	H	0.577510	0.598558	0.879467
	H102	H	0.387617	0.591628	0.114025
	H103	H	0.403436	0.394563	0.880027
	H104	H	0.101272	0.588464	0.406823
	H105	H	0.867989	0.587300	0.595385
	H106	H	0.106337	0.403757	0.590186
	H107	H	0.866146	0.408417	0.397067
	H108	H	0.896480	0.614620	0.090592
	H109	H	0.076434	0.378403	0.097397
	H110	H	0.092224	0.619102	0.898351
	H111	H	0.903330	0.382933	0.902491
	H112	H	0.070964	0.907529	0.609615
	H113	H	0.079904	0.096832	0.379293
	H114	H	0.898568	0.087541	0.608764
	H115	H	0.895695	0.904080	0.381965
	H116	H	0.605696	0.088394	0.896920
	H117	H	0.369181	0.088485	0.086091
	H118	H	0.601362	0.915754	0.088747
	H119	H	0.368644	0.901094	0.908901
	C120	C	0.363028	0.006498	0.620182
	C121	C	0.605844	0.989254	0.617100
	C122	C	0.608350	0.006230	0.372887
	C123	C	0.365759	0.989278	0.375486
	C124	C	0.606929	0.375457	0.004225
	C125	C	0.609857	0.620584	0.987583
	C126	C	0.365595	0.618457	0.003781
	C127	C	0.363165	0.373533	0.987193
	C128	C	-0.005937	0.618884	0.375153
	C129	C	0.977651	0.619443	0.618676
	C130	C	-0.004531	0.377426	0.617421
	C131	C	0.977261	0.377125	0.374922
	C132	C	0.864177	0.506495	0.119688
	C133	C	0.106946	0.488927	0.117521
	C134	C	0.109946	0.506494	0.873394
	C135	C	0.866985	0.489695	0.875936
	C136	C	0.106523	0.876794	0.504544
	C137	C	0.108468	0.121292	0.487409
	C138	C	0.863639	0.120454	0.504042
	C139	C	0.862779	0.874993	0.487697
	C140	C	0.494777	0.117913	0.875236
	C141	C	0.477042	0.118225	0.117556
	C142	C	0.495121	0.876733	0.116897
	C143	C	0.477199	0.875729	0.874117
	C144	C	0.362849	0.883127	0.674722
	C145	C	0.605416	0.112478	0.672836
	C146	C	0.607443	0.883430	0.316201
	C147	C	0.367050	0.111737	0.319106
	C148	C	0.664720	0.378103	0.881911
	C149	C	0.662933	0.617834	0.110696
	C150	C	0.312264	0.614449	0.880851
	C151	C	0.307051	0.377328	0.110017
	C152	C	0.869121	0.672155	0.379593
	C153	C	0.101704	0.676170	0.614290
	C154	C	0.870605	0.322061	0.616214
	C155	C	0.101373	0.322990	0.376254
	C156	C	0.871955	0.377120	0.675739
	C157	C	0.102387	0.619292	0.671580
	C158	C	0.870027	0.616568	0.320654
	C159	C	0.100947	0.378451	0.317844
	C160	C	0.369347	0.673443	0.881169
	C161	C	0.607046	0.677308	0.109412
	C162	C	0.606684	0.319693	0.881928
	C163	C	0.363720	0.318709	0.109780
	C164	C	0.662547	0.882211	0.376190
	C165	C	0.660529	0.113312	0.612980
	C166	C	0.307611	0.882926	0.615021
	C167	C	0.312583	0.113609	0.379365
	C168	C	0.863833	0.383542	0.175382
	C169	C	0.107558	0.611927	0.173461
	C170	C	0.108849	0.383863	0.816721
	C171	C	0.868638	0.612470	0.820465
	C172	C	0.163294	0.879172	0.381842
	C173	C	0.161687	0.118936	0.610390
	C174	C	0.810910	0.116216	0.381079
	C175	C	0.806975	0.879546	0.610732
	C176	C	0.369706	0.171294	0.879674
	C177	C	0.600887	0.175412	0.114268
	C178	C	0.371044	0.819507	0.115738
	C179	C	0.602114	0.822282	0.874936
	C180	C	0.371636	0.875137	0.174699
	C181	C	0.600998	0.118866	0.171788
	C182	C	0.370395	0.115634	0.821872
	C183	C	0.601146	0.878302	0.817066
	C184	C	0.867303	0.175607	0.381661
	C185	C	0.104743	0.177259	0.609940
	C186	C	0.105730	0.820482	0.382043
	C187	C	0.863275	0.820409	0.610464
	C188	C	0.162759	0.382096	0.876957
	C189	C	0.163208	0.612461	0.113982
	C190	C	0.807483	0.383057	0.117060
	C191	C	0.812353	0.613080	0.879595
	C192	C	0.386702	0.093010	0.599378
	C193	C	0.582796	0.903251	0.595492
	C194	C	0.586332	0.092358	0.394907
	C195	C	0.387996	0.903443	0.397670
	C196	C	0.582744	0.398015	0.089314
	C197	C	0.588034	0.597754	0.902435
	C198	C	0.387144	0.596509	0.089331
	C199	C	0.386629	0.394826	0.901601
	C200	C	0.080668	0.597201	0.396450
	C201	C	0.891221	0.595796	0.598286
	C202	C	0.082000	0.400245	0.593889
	C203	C	0.890171	0.398947	0.397733
	C204	C	0.887780	0.592554	0.097684
	C205	C	0.083238	0.402893	0.095815
	C206	C	0.088214	0.592923	0.895397
	C207	C	0.889152	0.403546	0.897723
	C208	C	0.083189	0.898938	0.589959
	C209	C	0.087099	0.098846	0.402129
	C210	C	0.884584	0.098590	0.589929
	C211	C	0.886147	0.896367	0.402192
	C212	C	0.581481	0.096318	0.895827
	C213	C	0.390555	0.094200	0.096309
	C214	C	0.581451	0.900824	0.093434
	C215	C	0.390352	0.897058	0.897392
	Zn216	Zn	0.485436	-0.002770	0.746917
	Zn217	Zn	0.486326	-0.002289	0.245276
	Zn218	Zn	0.736944	0.497588	-0.002492
	Zn219	Zn	0.235726	0.496633	-0.004595
	Zn220	Zn	-0.015303	0.746502	0.496965
	Zn221	Zn	-0.014188	0.249792	0.495804
	Zn222	Zn	-0.011756	0.498027	0.746119
	Zn223	Zn	-0.014179	0.497838	0.247435
	Zn224	Zn	0.487068	0.748978	-0.004815
	Zn225	Zn	0.484878	0.245166	-0.004292
	Zn226	Zn	0.734812	-0.002421	0.495724
	Zn227	Zn	0.236681	-0.000829	0.496756
	N228	N	0.396637	0.961180	0.678065
	N229	N	0.572207	0.034316	0.675610
	N230	N	0.574511	0.961389	0.314157
	N231	N	0.399506	0.033596	0.316607
	N232	N	0.665275	0.411897	0.959254
	N233	N	0.664834	0.583319	0.033915
	N234	N	0.309948	0.581107	0.958088
	N235	N	0.306698	0.410760	0.032988
	N236	N	0.947205	0.673571	0.413059
	N237	N	0.023331	0.676424	0.582197
	N238	N	0.948422	0.321964	0.580869
	N239	N	0.023313	0.322174	0.411094
	N240	N	0.950548	0.410831	0.676729
	N241	N	0.024323	0.584432	0.674423
	N242	N	0.948663	0.584470	0.317703
	N243	N	0.022499	0.411214	0.316962
	N244	N	0.401768	0.676104	0.958716
	N245	N	0.575085	0.679472	0.031810
	N246	N	0.571675	0.317847	0.958861
	N247	N	0.397799	0.316134	0.032363
	N248	N	0.663402	0.959690	0.410717
	N249	N	0.660784	0.035808	0.578760
	N250	N	0.307565	0.960834	0.581907
	N251	N	0.311707	0.036398	0.413981
	N252	N	0.898369	0.461391	0.177072
	N253	N	0.073213	0.534263	0.175819
	N254	N	0.076697	0.462194	0.814414
	N255	N	0.901841	0.534678	0.818147
	N256	N	0.163905	0.913547	0.458777
	N257	N	0.164119	0.084790	0.533296
	N258	N	0.808623	0.082560	0.458161
	N259	N	0.806555	0.912712	0.533383
	N260	N	0.448003	0.172766	0.912211
	N261	N	0.522792	0.175095	0.081164
	N262	N	0.448827	0.820357	0.080355
	N263	N	0.523980	0.820405	0.909696
	N264	N	0.449789	0.909883	0.175473
	N265	N	0.523004	0.083809	0.173778
	N266	N	0.448902	0.082915	0.818769
	N267	N	0.522501	0.910625	0.816369
	N268	N	0.899394	0.178198	0.459264
	N269	N	0.072367	0.179015	0.532480
	N270	N	0.071093	0.818764	0.459310
	N271	N	0.897151	0.817280	0.533027
	N272	N	0.163641	0.459581	0.911256
	N273	N	0.163120	0.534870	0.079999
	N274	N	0.807515	0.460407	0.083069
	N275	N	0.811085	0.535604	0.913376
	O276	O	0.014973	-0.033976	0.052535
	H277	H	0.017039	-0.035646	0.055783
	H278	H	0.016957	-0.035757	0.065872
	O279	O	0.976849	0.033997	-0.000274
	H280	H	0.980945	0.029184	-0.006390
	H281	H	0.972064	0.027601	-0.003210
	O282	O	0.550304	0.527707	0.530144
	H283	H	0.533408	0.512950	0.538145
	H284	H	0.552772	0.532069	0.540264
	O285	O	0.545488	1.479778	0.540650
	H286	H	0.548374	1.481845	0.536536
	H287	H	0.558804	1.492073	0.541160
	O288	O	0.536321	0.399594	0.489399
	H289	H	0.543574	0.395224	0.489917
	H290	H	0.542896	0.411567	0.485174
	O291	O	1.006740	0.998575	1.089248
	H292	H	1.014211	0.999897	1.088798
	H293	H	1.005184	0.996476	1.099359
	O294	O	0.920340	0.963692	1.066244
	H295	H	0.912492	0.966930	1.058421
	H296	H	0.919840	0.966988	1.062344
	O297	O	1.542365	0.459991	1.528457
	H298	H	1.547776	0.461153	1.531803
	H299	H	1.554246	0.460826	1.520327
	O300	O	0.559003	0.467817	0.425242
	H301	H	0.565024	0.469897	0.418804
	H302	H	0.554195	0.465135	0.427645
	O303	O	0.983408	0.003234	0.029366
	H304	H	0.983256	0.009480	0.027594
	H305	H	0.978592	0.006850	0.031596
	O306	O	-0.023656	1.019145	0.895573
	H307	H	-0.015941	1.018086	0.896793
	H308	H	-0.014572	1.013284	0.894082
	O309	O	1.048620	0.934807	0.952924
	H310	H	1.050093	0.925663	0.956725
	H311	H	1.045731	0.931033	0.956450
	O312	O	1.031774	0.054724	0.964692
	H313	H	1.031884	0.058083	0.957490
	H314	H	1.037950	0.049265	0.963031
	O315	O	0.346143	0.398077	0.573152
	H316	H	0.336085	0.396350	0.581077
	H317	H	0.350601	0.396735	0.566570
	O318	O	0.492783	0.481047	0.492604
	H319	H	0.481793	0.474881	0.483981
	H320	H	0.488196	0.468437	0.495289
	O321	O	1.020433	0.961890	0.963716
	H322	H	1.014890	0.946142	0.975290
	H323	H	1.021468	0.956531	0.956224
	O324	O	0.490890	0.611141	0.453327
	H325	H	0.486182	0.621155	0.453281
	H326	H	0.483151	0.611404	0.463845
	O327	O	0.485660	0.541930	0.462612
	H328	H	0.487697	0.537568	0.466528
	H329	H	0.494097	0.537414	0.471630
	O330	O	0.920397	-0.036200	1.041582
	H331	H	0.924853	-0.027079	1.037408
	H332	H	0.930844	-0.033958	1.035822
	O333	O	1.090466	1.014583	-0.036885
	H334	H	1.094187	1.015937	-0.042946
	H335	H	1.089171	1.016434	-0.036973
	O336	O	0.421734	0.478393	0.468193
	H337	H	0.411979	0.473680	0.472086
	H338	H	0.425124	0.477218	0.461936
	O339	O	0.491096	0.491142	0.470961
	H340	H	0.489865	0.498224	0.464239
	H341	H	0.486396	0.489671	0.473539
	O342	O	-0.094412	1.039117	-0.035164
	H343	H	-0.115055	1.036982	-0.037758
	H344	H	-0.097512	1.046190	-0.031983
	O345	O	0.004363	-0.069178	-0.021730
	H346	H	-0.004162	-0.080106	-0.019138
	H347	H	0.003977	-0.076723	-0.017337
	O348	O	0.457997	0.547056	0.510731
	H349	H	0.469627	0.542372	0.508564
	H350	H	0.458946	0.548688	0.507468
	O351	O	0.381343	0.475932	0.459930
	H352	H	0.365761	0.475859	0.460746
	H353	H	0.385804	0.479238	0.458043
	O354	O	0.464828	0.472818	0.529562
	H355	H	0.472130	0.468423	0.519085
	H356	H	0.452358	0.465171	0.530218
	O357	O	0.597137	0.488494	0.482007
	H358	H	0.596685	0.489227	0.492252
	H359	H	0.603641	0.495146	0.484847
	O360	O	-0.074837	-0.102658	0.053007
	H361	H	-0.078194	-0.096202	0.051392
	H362	H	-0.085261	-0.100714	0.063120
	O363	O	0.415500	0.545126	0.529341
	H364	H	0.413474	0.541107	0.528165
	H365	H	0.423067	0.542746	0.525988
	O366	O	-0.102495	-0.002610	0.974082
	H367	H	-0.102803	0.001701	0.976487
	H368	H	-0.100419	-0.003939	0.973156
	O369	O	0.583737	0.537900	0.511592
	H370	H	0.575549	0.535180	0.498662
	H371	H	0.579968	0.536161	0.517312
