data_Molecule from HDF5

_cell_length_a		16.185184
_cell_length_b		16.367099
_cell_length_c		16.315688
_cell_angle_alpha	90.012730
_cell_angle_beta	89.966017
_cell_angle_gamma	89.729447
_symmetry_space_group_name_H-M	'P 1'
_symmetry_Int_Tables_number		1

loop_
	_symmetry_equiv_pos_as_xyz
	x,y,z

loop_
	_atom_site_label
	_atom_site_type_symbol
	_atom_site_fract_x
	_atom_site_fract_y
	_atom_site_fract_z
	H0	H	0.399625	0.842431	0.717831
	H1	H	0.599000	0.167025	0.715850
	H2	H	0.599286	0.841798	0.284303
	H3	H	0.399353	0.167127	0.285297
	H4	H	0.711931	0.406936	0.836049
	H5	H	0.711505	0.601107	0.163893
	H6	H	0.285398	0.602212	0.835812
	H7	H	0.285627	0.408199	0.163779
	H8	H	0.834654	0.719607	0.400776
	H9	H	0.163568	0.717272	0.598035
	H10	H	0.834355	0.291183	0.597816
	H11	H	0.163037	0.288280	0.400392
	H12	H	0.834765	0.407011	0.713402
	H13	H	0.163451	0.603396	0.714368
	H14	H	0.833986	0.601940	0.287146
	H15	H	0.163731	0.404305	0.284949
	H16	H	0.397443	0.721805	0.836992
	H17	H	0.598438	0.719858	0.162793
	H18	H	0.600418	0.287944	0.838048
	H19	H	0.399935	0.289376	0.163181
	H20	H	0.713954	0.840726	0.402410
	H21	H	0.712495	0.167769	0.596513
	H22	H	0.286561	0.840720	0.598707
	H23	H	0.285047	0.167330	0.404152
	H24	H	0.900491	0.341234	0.214834
	H25	H	0.097658	0.666450	0.215816
	H26	H	0.099117	0.341473	0.784022
	H27	H	0.899026	0.666676	0.784000
	H28	H	0.213224	0.907021	0.335894
	H29	H	0.211778	0.100640	0.663686
	H30	H	0.786330	0.100130	0.336066
	H31	H	0.787587	0.908128	0.664409
	H32	H	0.335480	0.220080	0.901455
	H33	H	0.664554	0.216483	0.097652
	H34	H	0.335091	0.791071	0.099606
	H35	H	0.662868	0.787256	0.900313
	H36	H	0.335035	0.907660	0.214238
	H37	H	0.664066	0.102211	0.214320
	H38	H	0.334483	0.102736	0.787586
	H39	H	0.664150	0.905291	0.787253
	H40	H	0.897842	0.220419	0.336952
	H41	H	0.097862	0.219493	0.662511
	H42	H	0.100523	0.787561	0.337217
	H43	H	0.900317	0.788371	0.663079
	H44	H	0.215126	0.341336	0.901281
	H45	H	0.211597	0.668063	0.096525
	H46	H	0.787284	0.339845	0.095800
	H47	H	0.784014	0.667572	0.903109
	H48	H	0.407732	0.119471	0.594158
	H49	H	0.588860	0.889012	0.595200
	H50	H	0.593438	0.122815	0.398991
	H51	H	0.406032	0.887455	0.402551
	H52	H	0.584013	0.400505	0.117315
	H53	H	0.590399	0.589692	0.885942
	H54	H	0.410946	0.594336	0.112758
	H55	H	0.401851	0.414360	0.882604
	H56	H	0.115808	0.602067	0.414845
	H57	H	0.880601	0.604396	0.590325
	H58	H	0.113776	0.411446	0.583380
	H59	H	0.883979	0.420004	0.405594
	H60	H	0.115190	0.417722	0.595921
	H61	H	0.884769	0.592157	0.587003
	H62	H	0.113175	0.586776	0.407565
	H63	H	0.878526	0.407102	0.400332
	H64	H	0.407608	0.605229	0.117705
	H65	H	0.584426	0.600894	0.884938
	H66	H	0.604421	0.406505	0.121896
	H67	H	0.413296	0.414918	0.887027
	H68	H	0.585210	0.117880	0.407919
	H69	H	0.593816	0.889402	0.590206
	H70	H	0.405122	0.119120	0.591939
	H71	H	0.412925	0.888986	0.407085
	H72	H	0.897507	0.620455	0.087655
	H73	H	0.092670	0.389306	0.089038
	H74	H	0.094538	0.620708	0.906654
	H75	H	0.905914	0.386505	0.902624
	H76	H	0.086596	0.908051	0.615046
	H77	H	0.093805	0.099845	0.381907
	H78	H	0.896009	0.103917	0.620646
	H79	H	0.914108	0.912637	0.386480
	H80	H	0.610264	0.086815	0.919160
	H81	H	0.383689	0.101625	0.082644
	H82	H	0.619528	0.909812	0.101141
	H83	H	0.383629	0.916645	0.909120
	H84	H	0.617573	0.903064	0.087008
	H85	H	0.384598	0.088486	0.095684
	H86	H	0.619542	0.091888	0.891784
	H87	H	0.381050	0.912047	0.904080
	H88	H	0.906694	0.086953	0.612345
	H89	H	0.093657	0.093541	0.384706
	H90	H	0.095685	0.906584	0.618299
	H91	H	0.906528	0.903654	0.381940
	H92	H	0.091548	0.621019	0.902103
	H93	H	0.093166	0.387045	0.094046
	H94	H	0.903863	0.622637	0.102271
	H95	H	0.908515	0.389418	0.905237
	H96	H	0.404725	0.120385	0.595474
	H97	H	0.595851	0.886833	0.595996
	H98	H	0.597688	0.120475	0.411218
	H99	H	0.405071	0.889430	0.410379
	H100	H	0.590728	0.421284	0.112985
	H101	H	0.596653	0.599898	0.881496
	H102	H	0.399329	0.595958	0.116730
	H103	H	0.409042	0.405299	0.882260
	H104	H	0.119659	0.599841	0.398584
	H105	H	0.880528	0.594825	0.598983
	H106	H	0.119208	0.404197	0.595084
	H107	H	0.883257	0.408043	0.414354
	H108	H	0.912820	0.616387	0.090461
	H109	H	0.088973	0.389273	0.092757
	H110	H	0.089301	0.618927	0.906728
	H111	H	0.903352	0.388330	0.906242
	H112	H	0.093441	0.915162	0.614961
	H113	H	0.087555	0.097800	0.384694
	H114	H	0.917605	0.105497	0.615484
	H115	H	0.901807	0.915319	0.384107
	H116	H	0.620524	0.113081	0.911726
	H117	H	0.378482	0.105045	0.100331
	H118	H	0.613428	0.918931	0.089142
	H119	H	0.381838	0.909715	0.910658
	C120	C	0.377349	0.012479	0.622978
	C121	C	0.620920	0.996204	0.621716
	C122	C	0.621356	0.012466	0.377853
	C123	C	0.378290	0.996112	0.378562
	C124	C	0.621310	0.381819	0.008854
	C125	C	0.619728	0.625632	0.991949
	C126	C	0.376850	0.627128	0.007969
	C127	C	0.378488	0.383188	0.991837
	C128	C	0.007348	0.625144	0.378687
	C129	C	0.990533	0.625293	0.620768
	C130	C	0.007323	0.383281	0.620026
	C131	C	0.990881	0.382628	0.378066
	C132	C	0.877013	0.512006	0.121381
	C133	C	0.119999	0.496119	0.120764
	C134	C	0.120942	0.512551	0.876939
	C135	C	0.876788	0.495798	0.877188
	C136	C	0.121308	0.881681	0.508354
	C137	C	0.120494	0.125591	0.491195
	C138	C	0.877816	0.126529	0.508255
	C139	C	0.878456	0.882533	0.492029
	C140	C	0.507976	0.125901	0.879005
	C141	C	0.491034	0.125515	0.121021
	C142	C	0.508006	0.883089	0.121299
	C143	C	0.490993	0.883153	0.879204
	C144	C	0.379993	0.890360	0.678518
	C145	C	0.618918	0.118481	0.677544
	C146	C	0.619267	0.890120	0.322863
	C147	C	0.379793	0.118615	0.323739
	C148	C	0.675202	0.385729	0.885411
	C149	C	0.674110	0.622047	0.114943
	C150	C	0.322240	0.623694	0.884856
	C151	C	0.323033	0.386684	0.114903
	C152	C	0.883564	0.680850	0.381105
	C153	C	0.114601	0.679438	0.618517
	C154	C	0.883550	0.329108	0.617782
	C155	C	0.114077	0.326524	0.379923
	C156	C	0.883818	0.386390	0.675325
	C157	C	0.114414	0.622798	0.676163
	C158	C	0.883282	0.622820	0.324287
	C159	C	0.114309	0.384162	0.322555
	C160	C	0.378269	0.682888	0.885495
	C161	C	0.617798	0.681036	0.114496
	C162	C	0.619863	0.326461	0.886345
	C163	C	0.379982	0.327857	0.114634
	C164	C	0.676514	0.889690	0.381383
	C165	C	0.675093	0.119271	0.618014
	C166	C	0.323129	0.889783	0.619834
	C167	C	0.322888	0.118816	0.382672
	C168	C	0.879981	0.389671	0.176685
	C169	C	0.117542	0.618296	0.176669
	C170	C	0.118860	0.389916	0.822409
	C171	C	0.878727	0.618409	0.822698
	C172	C	0.176595	0.885200	0.385161
	C173	C	0.174588	0.122121	0.614672
	C174	C	0.823062	0.122253	0.385052
	C175	C	0.824417	0.886397	0.615373
	C176	C	0.384197	0.181505	0.881243
	C177	C	0.615239	0.179640	0.118665
	C178	C	0.384129	0.828717	0.119690
	C179	C	0.614322	0.826290	0.880676
	C180	C	0.384207	0.886501	0.176576
	C181	C	0.615131	0.122530	0.176195
	C182	C	0.383946	0.123317	0.824614
	C183	C	0.614602	0.884695	0.824162
	C184	C	0.878926	0.181465	0.385439
	C185	C	0.118314	0.181124	0.614047
	C186	C	0.119919	0.826275	0.385485
	C187	C	0.880539	0.827010	0.614630
	C188	C	0.176789	0.389955	0.880273
	C189	C	0.174366	0.619088	0.117724
	C190	C	0.823729	0.388890	0.117533
	C191	C	0.821663	0.618636	0.881631
	C192	C	0.399337	0.097766	0.600454
	C193	C	0.599235	0.910699	0.600086
	C194	C	0.598707	0.098331	0.399588
	C195	C	0.401309	0.910661	0.400270
	C196	C	0.599416	0.403091	0.095003
	C197	C	0.597107	0.603386	0.906308
	C198	C	0.399351	0.605156	0.093574
	C199	C	0.401244	0.405139	0.906218
	C200	C	0.093733	0.602773	0.400498
	C201	C	0.904439	0.603634	0.598694
	C202	C	0.093647	0.404797	0.598001
	C203	C	0.904062	0.405024	0.400372
	C204	C	0.898450	0.597771	0.099756
	C205	C	0.098194	0.410616	0.098410
	C206	C	0.098491	0.598236	0.898643
	C207	C	0.899363	0.410082	0.898353
	C208	C	0.098558	0.903442	0.593934
	C209	C	0.098232	0.103685	0.405963
	C210	C	0.900175	0.105079	0.594137
	C211	C	0.900917	0.904239	0.406231
	C212	C	0.594415	0.103653	0.900920
	C213	C	0.404725	0.104580	0.099274
	C214	C	0.594447	0.904248	0.098935
	C215	C	0.404526	0.905948	0.901602
	Zn216	Zn	0.499508	0.004426	0.751088
	Zn217	Zn	0.499509	0.004611	0.249025
	Zn218	Zn	0.748215	0.503826	0.000261
	Zn219	Zn	0.249231	0.504615	-0.000285
	Zn220	Zn	-0.000345	0.753201	0.500094
	Zn221	Zn	-0.001167	0.254828	0.499328
	Zn222	Zn	-0.000824	0.504154	0.748342
	Zn223	Zn	-0.001206	0.504209	0.250382
	Zn224	Zn	0.498713	0.755218	0.000035
	Zn225	Zn	0.499732	0.253822	0.000358
	Zn226	Zn	0.749736	0.004343	0.500310
	Zn227	Zn	0.249357	0.003852	0.500417
	N228	N	0.412681	0.967591	0.680689
	N229	N	0.585851	0.041096	0.679869
	N230	N	0.585967	0.967511	0.320455
	N231	N	0.413281	0.041302	0.321090
	N232	N	0.675985	0.419515	0.962578
	N233	N	0.675356	0.588354	0.037665
	N234	N	0.321333	0.589625	0.961829
	N235	N	0.322192	0.420504	0.037737
	N236	N	0.961801	0.682601	0.413997
	N237	N	0.036877	0.681196	0.584881
	N238	N	0.961370	0.327156	0.584105
	N239	N	0.036213	0.325549	0.413494
	N240	N	0.961668	0.419543	0.676633
	N241	N	0.036347	0.589544	0.677498
	N242	N	0.961227	0.588648	0.322858
	N243	N	0.036439	0.418354	0.321380
	N244	N	0.411352	0.685277	0.963170
	N245	N	0.584682	0.683382	0.036965
	N246	N	0.586746	0.324026	0.963985
	N247	N	0.413467	0.325451	0.037071
	N248	N	0.677732	0.966819	0.415011
	N249	N	0.676602	0.042316	0.584215
	N250	N	0.321720	0.966677	0.585698
	N251	N	0.321814	0.041645	0.415978
	N252	N	0.912419	0.467168	0.179136
	N253	N	0.084652	0.541025	0.178650
	N254	N	0.085233	0.467219	0.820069
	N255	N	0.912211	0.541152	0.819817
	N256	N	0.177518	0.919031	0.462431
	N257	N	0.176094	0.088171	0.537679
	N258	N	0.822171	0.088604	0.462342
	N259	N	0.823226	0.920448	0.538292
	N260	N	0.462182	0.183403	0.914280
	N261	N	0.537365	0.181401	0.084874
	N262	N	0.462077	0.826370	0.086052
	N263	N	0.536303	0.825276	0.914111
	N264	N	0.462262	0.919545	0.177657
	N265	N	0.537010	0.089559	0.177853
	N266	N	0.461994	0.089534	0.823164
	N267	N	0.536966	0.919250	0.823185
	N268	N	0.912269	0.183996	0.462947
	N269	N	0.085330	0.183492	0.536326
	N270	N	0.086400	0.824058	0.462923
	N271	N	0.913231	0.824552	0.536858
	N272	N	0.178186	0.467190	0.913463
	N273	N	0.175952	0.542112	0.083647
	N274	N	0.821881	0.465923	0.083817
	N275	N	0.820172	0.541318	0.914730
	O276	O	0.032838	-0.023359	1.036296
	H277	H	0.029228	-0.020402	1.039534
	H278	H	0.035736	-0.026417	1.033956
	O279	O	0.464992	0.549424	0.543494
	H280	H	0.463681	0.558308	0.545995
	H281	H	0.468184	0.558733	0.551490
	O282	O	0.417194	0.556936	0.596646
	H283	H	0.410272	0.553181	0.603761
	H284	H	0.422276	0.545975	0.603828
	O285	O	0.462630	0.498843	0.545453
	H286	H	0.460489	0.497158	0.543180
	H287	H	0.454434	0.509470	0.546068
	O288	O	0.442616	0.546183	0.514766
	H289	H	0.458897	0.556534	0.510018
	H290	H	0.434143	0.548203	0.501288
	O291	O	0.071095	0.946636	1.010039
	H292	H	0.077419	0.947176	1.008048
	H293	H	0.067048	0.941926	1.007273
	O294	O	0.462324	0.562352	0.536769
	H295	H	0.462683	0.557771	0.553678
	H296	H	0.452788	0.563107	0.543154
	O297	O	1.429887	-0.468102	-0.472713
	H298	H	1.431593	-0.467079	-0.480441
	H299	H	1.438965	-0.478935	-0.479268
