data_Molecule from HDF5

_cell_length_a		16.288647
_cell_length_b		16.270536
_cell_length_c		16.306036
_cell_angle_alpha	90.111289
_cell_angle_beta	90.069176
_cell_angle_gamma	90.019452
_symmetry_space_group_name_H-M	'P 1'
_symmetry_Int_Tables_number		1

loop_
	_symmetry_equiv_pos_as_xyz
	x,y,z

loop_
	_atom_site_label
	_atom_site_type_symbol
	_atom_site_fract_x
	_atom_site_fract_y
	_atom_site_fract_z
	H0	H	0.402772	0.835843	0.713010
	H1	H	0.597356	0.164256	0.713465
	H2	H	0.597831	0.836419	0.285915
	H3	H	0.401521	0.163980	0.286684
	H4	H	0.713513	0.402334	0.836184
	H5	H	0.714981	0.598603	0.163805
	H6	H	0.285262	0.598211	0.836773
	H7	H	0.286530	0.402864	0.163827
	H8	H	0.835926	0.713874	0.402310
	H9	H	0.163357	0.714761	0.599049
	H10	H	0.835294	0.286867	0.596376
	H11	H	0.164063	0.286367	0.402778
	H12	H	0.836152	0.402158	0.713776
	H13	H	0.163179	0.598556	0.714876
	H14	H	0.836428	0.597986	0.285033
	H15	H	0.163952	0.401540	0.286304
	H16	H	0.403407	0.712991	0.836463
	H17	H	0.597926	0.714015	0.164029
	H18	H	0.598752	0.285012	0.836482
	H19	H	0.401317	0.284703	0.162975
	H20	H	0.713046	0.836103	0.403068
	H21	H	0.713078	0.164389	0.597546
	H22	H	0.286680	0.835871	0.597506
	H23	H	0.285793	0.163804	0.402765
	H24	H	0.902105	0.336100	0.214362
	H25	H	0.097680	0.663201	0.214118
	H26	H	0.098635	0.336271	0.785083
	H27	H	0.902084	0.664400	0.786719
	H28	H	0.213170	0.902264	0.335853
	H29	H	0.213379	0.098380	0.664072
	H30	H	0.786317	0.096585	0.335870
	H31	H	0.786235	0.902885	0.664417
	H32	H	0.336529	0.213938	0.901707
	H33	H	0.664095	0.214243	0.097836
	H34	H	0.336369	0.786799	0.096419
	H35	H	0.664999	0.786483	0.902993
	H36	H	0.336516	0.901976	0.213733
	H37	H	0.663876	0.098590	0.214938
	H38	H	0.335987	0.097141	0.786317
	H39	H	0.663850	0.901858	0.785607
	H40	H	0.902582	0.213527	0.335787
	H41	H	0.097455	0.215052	0.663830
	H42	H	0.097657	0.785063	0.336071
	H43	H	0.902947	0.786873	0.664290
	H44	H	0.214122	0.336342	0.901797
	H45	H	0.213404	0.664059	0.097677
	H46	H	0.786153	0.336368	0.098168
	H47	H	0.784982	0.663597	0.901744
	H48	H	0.408573	0.119493	0.604432
	H49	H	0.593175	0.881994	0.598162
	H50	H	0.587650	0.114584	0.410314
	H51	H	0.400104	0.882397	0.410141
	H52	H	0.603574	0.404985	0.119851
	H53	H	0.592073	0.596326	0.883236
	H54	H	0.404376	0.586102	0.115466
	H55	H	0.405840	0.402915	0.882832
	H56	H	0.115748	0.592005	0.407023
	H57	H	0.880968	0.591147	0.601862
	H58	H	0.113024	0.410130	0.585569
	H59	H	0.881716	0.404909	0.400792
	H60	H	0.116651	0.412383	0.599928
	H61	H	0.881843	0.600912	0.589811
	H62	H	0.116655	0.593780	0.406964
	H63	H	0.882922	0.402825	0.409906
	H64	H	0.414313	0.595472	0.115038
	H65	H	0.596787	0.593148	0.882630
	H66	H	0.590553	0.417298	0.112270
	H67	H	0.404045	0.409786	0.883474
	H68	H	0.599158	0.117558	0.410423
	H69	H	0.589203	0.885559	0.591350
	H70	H	0.414759	0.112295	0.587174
	H71	H	0.406515	0.881471	0.398211
	H72	H	0.911518	0.614674	0.091144
	H73	H	0.097826	0.381841	0.092727
	H74	H	0.088479	0.617567	0.899738
	H75	H	0.905552	0.382964	0.904596
	H76	H	0.091617	0.907736	0.615147
	H77	H	0.095223	0.093276	0.383015
	H78	H	0.903142	0.094096	0.617199
	H79	H	0.902521	0.904441	0.382347
	H80	H	0.616375	0.090602	0.906612
	H81	H	0.382698	0.089099	0.101154
	H82	H	0.616569	0.909120	0.095414
	H83	H	0.384020	0.900555	0.911664
	H84	H	0.618012	0.904848	0.094236
	H85	H	0.382028	0.101355	0.090924
	H86	H	0.617929	0.093363	0.903782
	H87	H	0.386288	0.913558	0.907011
	H88	H	0.908032	0.091495	0.615037
	H89	H	0.093287	0.090874	0.385078
	H90	H	0.094286	0.903549	0.617001
	H91	H	0.906102	0.911572	0.385359
	H92	H	0.089348	0.613611	0.914050
	H93	H	0.092337	0.381642	0.096737
	H94	H	0.903294	0.617646	0.091360
	H95	H	0.908186	0.383734	0.905651
	H96	H	0.395996	0.119027	0.589415
	H97	H	0.597616	0.882598	0.590380
	H98	H	0.592489	0.118493	0.399666
	H99	H	0.413465	0.886115	0.409498
	H100	H	0.585779	0.398486	0.116391
	H101	H	0.591907	0.590693	0.884845
	H102	H	0.402277	0.599414	0.119668
	H103	H	0.410668	0.407892	0.884963
	H104	H	0.115796	0.593415	0.408673
	H105	H	0.887051	0.586178	0.588451
	H106	H	0.118769	0.398951	0.593966
	H107	H	0.885563	0.411772	0.406688
	H108	H	0.907942	0.616933	0.097921
	H109	H	0.091741	0.384713	0.090061
	H110	H	0.101290	0.618617	0.906624
	H111	H	0.906239	0.383554	0.907751
	H112	H	0.096745	0.908639	0.616923
	H113	H	0.091555	0.094758	0.384189
	H114	H	0.908104	0.097199	0.616594
	H115	H	0.910871	0.904426	0.384964
	H116	H	0.617014	0.094343	0.907644
	H117	H	0.387516	0.087675	0.086659
	H118	H	0.616390	0.907861	0.090998
	H119	H	0.381127	0.903790	0.898537
	C120	C	0.378558	0.008407	0.621411
	C121	C	0.621543	0.991684	0.621763
	C122	C	0.621287	0.008325	0.378583
	C123	C	0.378050	0.991504	0.378220
	C124	C	0.621684	0.378320	0.008091
	C125	C	0.621918	0.621902	0.991686
	C126	C	0.378723	0.621911	0.008823
	C127	C	0.378397	0.378089	0.991549
	C128	C	0.007933	0.621243	0.378780
	C129	C	0.991508	0.621382	0.621663
	C130	C	0.007895	0.378817	0.621451
	C131	C	0.991767	0.378401	0.377961
	C132	C	0.878715	0.508405	0.121613
	C133	C	0.121810	0.491342	0.121625
	C134	C	0.121491	0.508424	0.878487
	C135	C	0.878368	0.491709	0.878148
	C136	C	0.121461	0.878239	0.507800
	C137	C	0.121571	0.121760	0.492121
	C138	C	0.877960	0.121994	0.507925
	C139	C	0.878614	0.878873	0.492605
	C140	C	0.508638	0.120814	0.878198
	C141	C	0.492192	0.121319	0.121382
	C142	C	0.508595	0.878710	0.121732
	C143	C	0.492037	0.877817	0.877997
	C144	C	0.381622	0.884749	0.675640
	C145	C	0.618224	0.115404	0.676069
	C146	C	0.618558	0.885212	0.323502
	C147	C	0.380776	0.114986	0.324052
	C148	C	0.676126	0.381311	0.885011
	C149	C	0.676796	0.619116	0.115049
	C150	C	0.323283	0.619120	0.885678
	C151	C	0.323787	0.381451	0.114719
	C152	C	0.884710	0.675853	0.381453
	C153	C	0.114624	0.676442	0.619202
	C154	C	0.884500	0.324501	0.617856
	C155	C	0.115071	0.323598	0.381388
	C156	C	0.884832	0.381713	0.676068
	C157	C	0.114544	0.618845	0.676737
	C158	C	0.885063	0.618583	0.323096
	C159	C	0.115079	0.380847	0.323529
	C160	C	0.381955	0.675983	0.885303
	C161	C	0.618575	0.676310	0.115355
	C162	C	0.618831	0.323259	0.885186
	C163	C	0.381263	0.323293	0.114410
	C164	C	0.675695	0.885271	0.381753
	C165	C	0.675608	0.115387	0.618462
	C166	C	0.324007	0.884817	0.618169
	C167	C	0.323237	0.114873	0.381571
	C168	C	0.881144	0.384946	0.176278
	C169	C	0.118515	0.614429	0.176523
	C170	C	0.118902	0.385132	0.823447
	C171	C	0.881447	0.615405	0.824350
	C172	C	0.176023	0.880904	0.384932
	C173	C	0.175980	0.118762	0.615125
	C174	C	0.823808	0.117997	0.384626
	C175	C	0.824212	0.882132	0.615659
	C176	C	0.385283	0.175690	0.881133
	C177	C	0.615414	0.176278	0.118462
	C178	C	0.385218	0.824553	0.117601
	C179	C	0.615771	0.823737	0.881618
	C180	C	0.385386	0.881370	0.176167
	C181	C	0.615139	0.118869	0.176665
	C182	C	0.385088	0.117984	0.823504
	C183	C	0.615230	0.880956	0.823266
	C184	C	0.881352	0.176112	0.384682
	C185	C	0.118324	0.176700	0.615117
	C186	C	0.118175	0.823013	0.384724
	C187	C	0.881908	0.824336	0.615530
	C188	C	0.176438	0.385070	0.881305
	C189	C	0.176060	0.614766	0.119013
	C190	C	0.823774	0.385041	0.118634
	C191	C	0.823503	0.615274	0.881803
	C192	C	0.400218	0.094632	0.599949
	C193	C	0.599733	0.905681	0.599788
	C194	C	0.599502	0.094731	0.400323
	C195	C	0.400101	0.905604	0.399695
	C196	C	0.599657	0.400403	0.094032
	C197	C	0.600229	0.599905	0.905796
	C198	C	0.400580	0.600123	0.094414
	C199	C	0.400432	0.400445	0.905751
	C200	C	0.093786	0.599350	0.401023
	C201	C	0.905527	0.599362	0.599680
	C202	C	0.093996	0.400678	0.599685
	C203	C	0.905578	0.400172	0.399509
	C204	C	0.900943	0.594254	0.099965
	C205	C	0.100277	0.404907	0.099614
	C206	C	0.099646	0.594499	0.900298
	C207	C	0.900064	0.405577	0.899621
	C208	C	0.100368	0.900257	0.594086
	C209	C	0.099669	0.099623	0.406134
	C210	C	0.899777	0.100611	0.594165
	C211	C	0.900210	0.900504	0.406387
	C212	C	0.594892	0.099225	0.899596
	C213	C	0.406017	0.099180	0.099398
	C214	C	0.594741	0.900772	0.099916
	C215	C	0.405918	0.899516	0.899244
	Zn216	Zn	0.499897	-0.000103	0.749540
	Zn217	Zn	0.499765	0.000175	0.250507
	Zn218	Zn	0.750232	0.500238	0.000114
	Zn219	Zn	0.249704	0.500316	-0.000082
	Zn220	Zn	-0.000438	0.749738	0.500519
	Zn221	Zn	-0.000307	0.250269	0.499535
	Zn222	Zn	-0.000365	0.500308	0.750085
	Zn223	Zn	0.000327	0.499423	0.249784
	Zn224	Zn	0.500614	0.750298	0.000116
	Zn225	Zn	0.500149	0.249559	-0.000198
	Zn226	Zn	0.749464	0.000078	0.500412
	Zn227	Zn	0.250625	-0.000295	0.500190
	N228	N	0.414892	0.962535	0.677692
	N229	N	0.585365	0.037431	0.678230
	N230	N	0.585330	0.962879	0.321680
	N231	N	0.414089	0.037315	0.321693
	N232	N	0.678044	0.414885	0.962594
	N233	N	0.678752	0.585768	0.037399
	N234	N	0.321017	0.586152	0.963415
	N235	N	0.321861	0.414918	0.037206
	N236	N	0.962055	0.677677	0.415342
	N237	N	0.037058	0.678110	0.585723
	N238	N	0.961999	0.322717	0.584379
	N239	N	0.037391	0.321953	0.414576
	N240	N	0.962741	0.414455	0.678526
	N241	N	0.037048	0.585367	0.678371
	N242	N	0.962644	0.585189	0.321589
	N243	N	0.037503	0.414195	0.321391
	N244	N	0.415890	0.677610	0.962614
	N245	N	0.585417	0.678363	0.037787
	N246	N	0.585774	0.321419	0.962768
	N247	N	0.414405	0.321182	0.036814
	N248	N	0.677427	0.963037	0.415253
	N249	N	0.677753	0.037609	0.585335
	N250	N	0.321906	0.962713	0.585400
	N251	N	0.321643	0.037207	0.414737
	N252	N	0.914596	0.462488	0.178105
	N253	N	0.085382	0.536545	0.178018
	N254	N	0.085526	0.462714	0.821598
	N255	N	0.914814	0.537828	0.822242
	N256	N	0.178044	0.914538	0.462386
	N257	N	0.178060	0.085136	0.537594
	N258	N	0.821581	0.085142	0.462244
	N259	N	0.821872	0.915168	0.538098
	N260	N	0.462910	0.177533	0.914439
	N261	N	0.537766	0.177904	0.084992
	N262	N	0.462887	0.822876	0.084558
	N263	N	0.538154	0.821769	0.914902
	N264	N	0.463174	0.914334	0.178722
	N265	N	0.537505	0.085479	0.178388
	N266	N	0.462827	0.084536	0.821760
	N267	N	0.537602	0.914178	0.821240
	N268	N	0.914284	0.178509	0.462451
	N269	N	0.085133	0.178675	0.537506
	N270	N	0.085011	0.821344	0.462318
	N271	N	0.915143	0.822489	0.538027
	N272	N	0.178144	0.462762	0.914926
	N273	N	0.177984	0.537259	0.085440
	N274	N	0.821942	0.462833	0.085352
	N275	N	0.821388	0.537293	0.914526
