data_Molecule from HDF5

_cell_length_a		16.310688
_cell_length_b		16.461421
_cell_length_c		16.205404
_cell_angle_alpha	90.286995
_cell_angle_beta	89.987823
_cell_angle_gamma	90.074004
_symmetry_space_group_name_H-M	'P 1'
_symmetry_Int_Tables_number		1

loop_
	_symmetry_equiv_pos_as_xyz
	x,y,z

loop_
	_atom_site_label
	_atom_site_type_symbol
	_atom_site_fract_x
	_atom_site_fract_y
	_atom_site_fract_z
	H0	H	0.398618	0.839862	0.715916
	H1	H	0.600546	0.161812	0.722609
	H2	H	0.598397	0.840581	0.282547
	H3	H	0.394337	0.160554	0.283010
	H4	H	0.714457	0.399373	0.840557
	H5	H	0.713798	0.605760	0.164923
	H6	H	0.280910	0.601580	0.840015
	H7	H	0.281278	0.402948	0.166089
	H8	H	0.837675	0.722338	0.396774
	H9	H	0.158149	0.721816	0.607790
	H10	H	0.837553	0.281537	0.607202
	H11	H	0.157043	0.280900	0.394188
	H12	H	0.836488	0.400075	0.720016
	H13	H	0.159134	0.603100	0.719673
	H14	H	0.835724	0.603604	0.285012
	H15	H	0.159345	0.402788	0.284833
	H16	H	0.394645	0.717976	0.840485
	H17	H	0.600188	0.722184	0.164055
	H18	H	0.604538	0.280541	0.842453
	H19	H	0.393432	0.283855	0.164227
	H20	H	0.717662	0.841856	0.397694
	H21	H	0.719025	0.161488	0.608126
	H22	H	0.280901	0.840581	0.600419
	H23	H	0.276413	0.159688	0.396225
	H24	H	0.893654	0.342529	0.221337
	H25	H	0.100940	0.662135	0.223189
	H26	H	0.099803	0.341556	0.783698
	H27	H	0.894418	0.662361	0.783085
	H28	H	0.213345	0.900258	0.338305
	H29	H	0.213941	0.102191	0.663882
	H30	H	0.777694	0.105453	0.341505
	H31	H	0.778988	0.899272	0.664355
	H32	H	0.337856	0.222177	0.897106
	H33	H	0.656876	0.224840	0.109936
	H34	H	0.337820	0.782502	0.106708
	H35	H	0.657857	0.781200	0.896623
	H36	H	0.336075	0.900892	0.217807
	H37	H	0.657233	0.107069	0.222713
	H38	H	0.335467	0.099260	0.787832
	H39	H	0.660519	0.902046	0.785928
	H40	H	0.890728	0.221659	0.341472
	H41	H	0.104065	0.222755	0.661675
	H42	H	0.103310	0.780514	0.341302
	H43	H	0.895101	0.784344	0.664054
	H44	H	0.216964	0.342403	0.898331
	H45	H	0.219343	0.661710	0.108420
	H46	H	0.775405	0.342847	0.107613
	H47	H	0.775200	0.660934	0.897435
	H48	H	0.403664	0.116418	0.595321
	H49	H	0.578516	0.891640	0.590613
	H50	H	0.587438	0.113673	0.412328
	H51	H	0.408679	0.888805	0.412887
	H52	H	0.586295	0.415401	0.117231
	H53	H	0.589935	0.589514	0.886422
	H54	H	0.410120	0.593880	0.117837
	H55	H	0.412536	0.405537	0.887057
	H56	H	0.114312	0.601863	0.417508
	H57	H	0.883370	0.595310	0.586918
	H58	H	0.113119	0.410565	0.593178
	H59	H	0.881715	0.409761	0.411761
	H60	H	0.112788	0.409705	0.589398
	H61	H	0.884455	0.588156	0.592845
	H62	H	0.108023	0.585198	0.419832
	H63	H	0.882761	0.409525	0.415026
	H64	H	0.408178	0.596723	0.119538
	H65	H	0.582768	0.590294	0.888256
	H66	H	0.583063	0.412944	0.117701
	H67	H	0.400876	0.408885	0.883679
	H68	H	0.586194	0.113412	0.414050
	H69	H	0.597591	0.887747	0.583342
	H70	H	0.406911	0.116241	0.594983
	H71	H	0.400318	0.884153	0.410584
	H72	H	0.909652	0.616169	0.096336
	H73	H	0.094183	0.387807	0.090581
	H74	H	0.095980	0.617354	0.913622
	H75	H	0.906755	0.390895	0.917576
	H76	H	0.088861	0.916181	0.615962
	H77	H	0.086162	0.089282	0.385914
	H78	H	0.905001	0.095448	0.620083
	H79	H	0.910620	0.915037	0.389013
	H80	H	0.610195	0.089951	0.917656
	H81	H	0.385550	0.083180	0.091007
	H82	H	0.611399	0.913825	0.089205
	H83	H	0.384794	0.914707	0.911704
	H84	H	0.613055	0.911897	0.091222
	H85	H	0.378561	0.097283	0.098918
	H86	H	0.613170	0.089510	0.908921
	H87	H	0.379175	0.907153	0.902328
	H88	H	0.909143	0.085311	0.615154
	H89	H	0.085847	0.094347	0.384651
	H90	H	0.084061	0.907376	0.617888
	H91	H	0.912575	0.908430	0.387623
	H92	H	0.086413	0.616864	0.905687
	H93	H	0.087663	0.387792	0.097568
	H94	H	0.906663	0.613895	0.087922
	H95	H	0.901413	0.387337	0.909791
	H96	H	0.405000	0.115774	0.592321
	H97	H	0.593048	0.883386	0.603207
	H98	H	0.588153	0.113958	0.414180
	H99	H	0.407771	0.886032	0.403833
	H100	H	0.586611	0.412086	0.119121
	H101	H	0.586008	0.595853	0.885831
	H102	H	0.406143	0.592983	0.118521
	H103	H	0.409260	0.416871	0.889359
	H104	H	0.114349	0.590234	0.404053
	H105	H	0.880452	0.596855	0.595570
	H106	H	0.111433	0.413124	0.590157
	H107	H	0.883902	0.411785	0.412933
	H108	H	0.900463	0.617342	0.094269
	H109	H	0.084668	0.391205	0.088543
	H110	H	0.085363	0.612919	0.917267
	H111	H	0.911253	0.389789	0.909199
	H112	H	0.094071	0.909048	0.620473
	H113	H	0.090746	0.091770	0.384200
	H114	H	0.916530	0.094406	0.616018
	H115	H	0.905030	0.910998	0.385810
	H116	H	0.614602	0.097388	0.913896
	H117	H	0.383868	0.098912	0.082194
	H118	H	0.612872	0.910873	0.087909
	H119	H	0.380770	0.902521	0.914223
	C120	C	0.376082	0.009638	0.622822
	C121	C	0.620653	0.993488	0.624367
	C122	C	0.618897	0.009304	0.380658
	C123	C	0.375007	0.992049	0.378588
	C124	C	0.617690	0.381178	0.011326
	C125	C	0.617852	0.623487	0.993892
	C126	C	0.376836	0.623648	0.011387
	C127	C	0.376421	0.380549	0.994080
	C128	C	0.006006	0.623518	0.381685
	C129	C	0.989138	0.623777	0.623442
	C130	C	0.006210	0.380206	0.622845
	C131	C	0.988737	0.379792	0.380432
	C132	C	0.874574	0.510434	0.124159
	C133	C	0.119481	0.494390	0.124060
	C134	C	0.119841	0.510099	0.880524
	C135	C	0.874953	0.494169	0.880266
	C136	C	0.119316	0.879845	0.510593
	C137	C	0.119427	0.122989	0.492110
	C138	C	0.877479	0.122595	0.510788
	C139	C	0.877364	0.880651	0.494186
	C140	C	0.506193	0.122566	0.881857
	C141	C	0.488588	0.124587	0.123701
	C142	C	0.506025	0.881517	0.121196
	C143	C	0.488672	0.878495	0.879112
	C144	C	0.378328	0.888292	0.678099
	C145	C	0.620617	0.113805	0.683500
	C146	C	0.618645	0.888756	0.321780
	C147	C	0.374960	0.112463	0.321485
	C148	C	0.676001	0.380174	0.889389
	C149	C	0.675875	0.624825	0.116021
	C150	C	0.319452	0.621670	0.888832
	C151	C	0.319519	0.382523	0.116882
	C152	C	0.885516	0.682291	0.379317
	C153	C	0.110106	0.682347	0.625597
	C154	C	0.885484	0.321395	0.624945
	C155	C	0.109238	0.321146	0.377157
	C156	C	0.884844	0.380446	0.681233
	C157	C	0.110596	0.623524	0.681398
	C158	C	0.884564	0.623496	0.323216
	C159	C	0.110503	0.381738	0.322533
	C160	C	0.375920	0.679629	0.889089
	C161	C	0.619484	0.683022	0.115385
	C162	C	0.620887	0.321140	0.890377
	C163	C	0.375096	0.323101	0.115845
	C164	C	0.678006	0.889409	0.378962
	C165	C	0.679480	0.113466	0.626288
	C166	C	0.319644	0.888466	0.620770
	C167	C	0.316346	0.111939	0.378304
	C168	C	0.874249	0.390167	0.182505
	C169	C	0.120021	0.614456	0.183572
	C170	C	0.119066	0.389823	0.822373
	C171	C	0.874850	0.614205	0.821601
	C172	C	0.175837	0.879979	0.387696
	C173	C	0.176927	0.122680	0.614370
	C174	C	0.817290	0.123916	0.389663
	C175	C	0.818326	0.880509	0.615683
	C176	C	0.385477	0.181642	0.879478
	C177	C	0.608936	0.184515	0.127244
	C178	C	0.385453	0.822603	0.123631
	C179	C	0.609975	0.820729	0.878222
	C180	C	0.384596	0.881356	0.179225
	C181	C	0.609190	0.126005	0.183651
	C182	C	0.384402	0.120800	0.824896
	C183	C	0.611230	0.880771	0.823172
	C184	C	0.873688	0.181676	0.389744
	C185	C	0.121853	0.182546	0.613414
	C186	C	0.120815	0.820729	0.389097
	C187	C	0.876046	0.823195	0.615665
	C188	C	0.177500	0.390113	0.879751
	C189	C	0.178863	0.614328	0.126295
	C190	C	0.815336	0.390644	0.125698
	C191	C	0.815315	0.613495	0.878583
	C192	C	0.398428	0.094312	0.600440
	C193	C	0.596763	0.909402	0.599658
	C194	C	0.594408	0.092126	0.406042
	C195	C	0.398792	0.908106	0.402187
	C196	C	0.592475	0.406125	0.095888
	C197	C	0.593307	0.598939	0.908938
	C198	C	0.401107	0.601173	0.096643
	C199	C	0.400460	0.403648	0.908869
	C200	C	0.090330	0.599366	0.406397
	C201	C	0.904776	0.600294	0.598892
	C202	C	0.090412	0.404129	0.597908
	C203	C	0.904550	0.403526	0.405903
	C204	C	0.898583	0.594096	0.099996
	C205	C	0.095751	0.410769	0.099400
	C206	C	0.096198	0.594071	0.905122
	C207	C	0.899467	0.410957	0.904946
	C208	C	0.095769	0.903870	0.595924
	C209	C	0.094734	0.098823	0.406964
	C210	C	0.902959	0.098657	0.594983
	C211	C	0.902154	0.904580	0.409376
	C212	C	0.590602	0.099328	0.906412
	C213	C	0.404650	0.100138	0.098229
	C214	C	0.590350	0.905468	0.096630
	C215	C	0.403671	0.901411	0.902529
	Zn216	Zn	0.497852	0.001235	0.752573
	Zn217	Zn	0.497488	0.001465	0.250291
	Zn218	Zn	0.745337	0.502127	0.002614
	Zn219	Zn	0.249183	0.502562	0.002731
	Zn220	Zn	-0.001856	0.752172	0.502316
	Zn221	Zn	-0.002150	0.251024	0.501700
	Zn222	Zn	-0.001951	0.502167	0.751074
	Zn223	Zn	-0.003373	0.502481	0.253105
	Zn224	Zn	0.497514	0.752183	0.001801
	Zn225	Zn	0.497572	0.252653	0.002616
	Zn226	Zn	0.749481	0.001989	0.502051
	Zn227	Zn	0.246860	0.000638	0.500864
	N228	N	0.412512	0.964666	0.679661
	N229	N	0.584816	0.038130	0.682347
	N230	N	0.582665	0.964173	0.322521
	N231	N	0.410715	0.036942	0.321573
	N232	N	0.674123	0.416952	0.965666
	N233	N	0.675169	0.588730	0.039224
	N234	N	0.319931	0.587620	0.965999
	N235	N	0.320291	0.417598	0.040024
	N236	N	0.962145	0.682495	0.414793
	N237	N	0.033359	0.682891	0.590395
	N238	N	0.961983	0.321135	0.589260
	N239	N	0.032661	0.319951	0.412588
	N240	N	0.960854	0.416203	0.680077
	N241	N	0.034451	0.587907	0.680215
	N242	N	0.960513	0.587520	0.324816
	N243	N	0.034412	0.417422	0.324341
	N244	N	0.410908	0.680942	0.966252
	N245	N	0.584337	0.682534	0.038348
	N246	N	0.585239	0.321633	0.967258
	N247	N	0.409698	0.321716	0.038452
	N248	N	0.678433	0.965147	0.414797
	N249	N	0.679478	0.037594	0.590218
	N250	N	0.318104	0.964990	0.587189
	N251	N	0.316127	0.035890	0.413046
	N252	N	0.910656	0.465700	0.181642
	N253	N	0.083622	0.539103	0.182206
	N254	N	0.083763	0.465630	0.822934
	N255	N	0.911050	0.538759	0.822324
	N256	N	0.175042	0.916071	0.464203
	N257	N	0.175642	0.086536	0.537680
	N258	N	0.819524	0.087798	0.465783
	N259	N	0.819023	0.915520	0.538721
	N260	N	0.462381	0.182933	0.914127
	N261	N	0.533012	0.183692	0.090753
	N262	N	0.462113	0.822686	0.088070
	N263	N	0.532592	0.818987	0.912097
	N264	N	0.460449	0.917358	0.177686
	N265	N	0.533312	0.089410	0.181706
	N266	N	0.460433	0.085053	0.826144
	N267	N	0.534899	0.915963	0.823686
	N268	N	0.910613	0.181049	0.466043
	N269	N	0.087116	0.183029	0.536172
	N270	N	0.086337	0.820620	0.466577
	N271	N	0.912047	0.823346	0.539130
	N272	N	0.178182	0.466174	0.915104
	N273	N	0.178259	0.538892	0.089620
	N274	N	0.815598	0.466328	0.090082
	N275	N	0.815321	0.538053	0.914259
	O276	O	0.618254	0.497268	0.640702
	H277	H	0.615751	0.499746	0.618579
	H278	H	0.634397	0.494269	0.656505
	O279	O	0.373073	0.447337	0.485656
	H280	H	0.358191	0.440950	0.482320
	H281	H	0.382695	0.453834	0.478359
	O282	O	1.086868	-0.127135	0.953134
	H283	H	1.089743	-0.137221	0.952923
	H284	H	1.081960	-0.129461	0.936934
	O285	O	0.516043	0.630470	0.555863
	H286	H	0.514929	0.634185	0.562118
	H287	H	0.514616	0.629401	0.550436
	O288	O	1.097465	0.981373	1.022175
	H289	H	1.095519	0.996266	1.005293
	H290	H	1.111529	0.969346	1.015986
	O291	O	-0.117415	-0.014541	1.011562
	H292	H	-0.122468	-0.020068	1.005313
	H293	H	-0.103736	-0.021245	1.026170
	O294	O	0.552396	0.484247	0.351010
	H295	H	0.553586	0.475554	0.354752
	H296	H	0.559897	0.474607	0.349597
	O297	O	0.489235	0.389354	0.554102
	H298	H	0.489655	0.392367	0.556297
	H299	H	0.471077	0.382797	0.567518
	O300	O	0.373846	0.565307	0.563869
	H301	H	0.383436	0.565831	0.567746
	H302	H	0.378395	0.560416	0.575707
	O303	O	1.016829	-0.109331	0.066960
	H304	H	1.026820	-0.118903	0.077633
	H305	H	1.024351	-0.109330	0.055606
	O306	O	0.624218	0.627131	0.498154
	H307	H	0.615807	0.632256	0.506890
	H308	H	0.636089	0.636957	0.503135
	O309	O	0.330228	0.321133	0.542437
	H310	H	0.322063	0.304321	0.532961
	H311	H	0.343975	0.319183	0.550645
	O312	O	-0.191252	-0.105844	-0.055518
	H313	H	-0.203266	-0.116052	-0.054304
	H314	H	-0.187830	-0.114230	-0.042996
	O315	O	0.564036	0.471464	0.374196
	H316	H	0.572161	0.477907	0.376125
	H317	H	0.541051	0.470803	0.370793
	O318	O	0.017013	1.205442	1.201452
	H319	H	0.031641	1.212335	1.207225
	H320	H	0.035310	1.214899	1.209737
	O321	O	0.505080	0.445038	0.345258
	H322	H	0.504990	0.439496	0.357783
	H323	H	0.493791	0.426029	0.334913
	O324	O	-0.190588	0.983112	0.186930
	H325	H	-0.191905	0.975090	0.197506
	H326	H	-0.194304	0.957885	0.194548
	O327	O	1.186960	0.793563	-0.209491
	H328	H	1.183896	0.790414	-0.230434
	H329	H	1.177833	0.824214	-0.219350
	O330	O	0.027365	0.083727	0.985607
	H331	H	0.024354	0.086069	0.986069
	H332	H	0.028132	0.085774	0.998840
	O333	O	-0.182481	0.027511	1.102133
	H334	H	-0.193241	0.014504	1.107703
	H335	H	-0.168434	0.018181	1.100652
	O336	O	0.610050	0.349013	0.443719
	H337	H	0.615763	0.348656	0.434326
	H338	H	0.620563	0.344069	0.439231
	O339	O	1.036881	-0.009205	-0.028178
	H340	H	1.023831	0.001707	-0.024514
	H341	H	1.025995	-0.015248	-0.028137
	O342	O	0.004547	0.074959	0.007469
	H343	H	0.003381	0.091833	0.004988
	H344	H	-0.001606	0.074210	0.014472
	O345	O	0.977283	-0.160383	0.860741
	H346	H	0.979616	-0.166038	0.857689
	H347	H	0.984763	-0.165217	0.858680
	O348	O	1.170465	1.014620	0.080407
	H349	H	1.174463	1.007539	0.085858
	H350	H	1.178576	1.014632	0.076712
	O351	O	0.371940	0.414100	0.644835
	H352	H	0.382875	0.409504	0.653572
	H353	H	0.369419	0.421917	0.643843
	O354	O	1.188394	0.151033	1.158371
	H355	H	1.198492	0.139579	1.163477
	H356	H	1.196023	0.144044	1.131297
	O357	O	0.471978	0.332568	0.655730
	H358	H	0.474203	0.330692	0.652828
	H359	H	0.483921	0.330036	0.656289
	O360	O	0.393195	0.630465	0.461564
	H361	H	0.384673	0.635411	0.462435
	H362	H	0.387110	0.621956	0.461927
	O363	O	-0.072976	1.118287	0.859183
	H364	H	-0.087049	1.115952	0.859668
	H365	H	-0.080490	1.134676	0.847076
	O366	O	0.508424	0.619972	0.676528
	H367	H	0.529111	0.620100	0.663148
	H368	H	0.503471	0.644528	0.692239
	O369	O	-0.503898	0.463341	0.439192
	H370	H	-0.493722	0.475226	0.433037
	H371	H	-0.502414	0.465132	0.443170
	O372	O	0.518398	0.553910	0.463470
	H373	H	0.514927	0.555500	0.453901
	H374	H	0.512968	0.548619	0.463319
	O375	O	0.609803	0.448783	0.459600
	H376	H	0.612071	0.436703	0.463359
	H377	H	0.604358	0.469549	0.456118
	O378	O	0.865502	0.873228	0.039343
	H379	H	0.841563	0.873069	0.022914
	H380	H	0.886327	0.872913	0.054308
	O381	O	0.910864	0.101438	-0.102836
	H382	H	0.926967	0.104238	-0.104357
	H383	H	0.912032	0.108287	-0.089916
	O384	O	0.490030	1.512992	-0.486698
	H385	H	0.495120	1.520889	-0.483305
	H386	H	0.487965	1.510226	-0.502850
	O387	O	0.129781	0.056588	0.072894
	H388	H	0.136458	0.046251	0.056810
	H389	H	0.117709	0.060334	0.073376
	O390	O	0.015604	0.994796	0.103150
	H391	H	0.001731	1.002830	0.108851
	H392	H	0.019870	0.990100	0.105090
	O393	O	1.584748	0.529466	0.621214
	H394	H	1.576137	0.530815	0.626864
	H395	H	1.586350	0.514067	0.610752
	O396	O	0.535280	0.412467	0.451712
	H397	H	0.532183	0.420875	0.452136
	H398	H	0.542470	0.416947	0.460718
	O399	O	0.072496	0.837763	1.050764
	H400	H	0.079632	0.822308	1.040444
	H401	H	0.080034	0.847708	1.035359
	O402	O	0.538440	0.575418	0.391575
	H403	H	0.542859	0.583958	0.401914
	H404	H	0.526987	0.559033	0.387616
	O405	O	0.895829	1.192594	-0.059504
	H406	H	0.895976	1.178487	-0.045494
	H407	H	0.886960	1.201087	-0.046944
	O408	O	1.165746	0.971673	-0.017479
	H409	H	1.161766	0.967964	-0.015696
	H410	H	1.158772	0.961980	-0.016557
	O411	O	0.821674	0.152280	1.013452
	H412	H	0.816461	0.156693	1.017859
	H413	H	0.817480	0.150505	1.032168
	O414	O	0.108788	-0.072281	0.808031
	H415	H	0.112191	-0.057518	0.804693
	H416	H	0.093673	-0.057156	0.805278
	O417	O	0.408687	0.534109	0.576883
	H418	H	0.414694	0.520386	0.576674
	H419	H	0.403477	0.541501	0.590707
