data_Molecule from HDF5

_cell_length_a		16.293084
_cell_length_b		16.304543
_cell_length_c		16.295856
_cell_angle_alpha	89.980028
_cell_angle_beta	90.058106
_cell_angle_gamma	89.928812
_symmetry_space_group_name_H-M	'P 1'
_symmetry_Int_Tables_number		1

loop_
	_symmetry_equiv_pos_as_xyz
	x,y,z

loop_
	_atom_site_label
	_atom_site_type_symbol
	_atom_site_fract_x
	_atom_site_fract_y
	_atom_site_fract_z
	H0	H	0.400873	0.835720	0.714915
	H1	H	0.595821	0.163058	0.717637
	H2	H	0.596369	0.835782	0.288543
	H3	H	0.398096	0.162355	0.286509
	H4	H	0.712256	0.401168	0.837740
	H5	H	0.712030	0.596787	0.165320
	H6	H	0.284353	0.597086	0.838287
	H7	H	0.283979	0.400484	0.165103
	H8	H	0.834569	0.714790	0.402570
	H9	H	0.161753	0.714065	0.599601
	H10	H	0.834851	0.286685	0.599131
	H11	H	0.162354	0.286139	0.402635
	H12	H	0.834766	0.401834	0.716124
	H13	H	0.160872	0.599093	0.716812
	H14	H	0.835064	0.599435	0.285262
	H15	H	0.161911	0.403228	0.288572
	H16	H	0.400034	0.712717	0.838129
	H17	H	0.596366	0.713418	0.165560
	H18	H	0.596616	0.284542	0.838173
	H19	H	0.401164	0.286074	0.165514
	H20	H	0.712583	0.836232	0.405019
	H21	H	0.712062	0.164117	0.601137
	H22	H	0.283705	0.836748	0.599855
	H23	H	0.283694	0.162956	0.403610
	H24	H	0.900416	0.336560	0.216798
	H25	H	0.097300	0.663173	0.216504
	H26	H	0.096385	0.336373	0.787842
	H27	H	0.899931	0.664272	0.788054
	H28	H	0.213173	0.901779	0.338738
	H29	H	0.211645	0.097811	0.665531
	H30	H	0.782223	0.099180	0.338631
	H31	H	0.785424	0.903412	0.665859
	H32	H	0.334574	0.214654	0.903184
	H33	H	0.661076	0.213155	0.100846
	H34	H	0.333886	0.785416	0.100464
	H35	H	0.661025	0.784758	0.904060
	H36	H	0.334293	0.901281	0.216801
	H37	H	0.661363	0.096694	0.216433
	H38	H	0.334097	0.097866	0.787719
	H39	H	0.660838	0.900361	0.788044
	H40	H	0.899077	0.214642	0.337484
	H41	H	0.096606	0.214440	0.665077
	H42	H	0.097446	0.785537	0.338133
	H43	H	0.899177	0.785063	0.664972
	H44	H	0.213039	0.336495	0.903737
	H45	H	0.212263	0.663141	0.099314
	H46	H	0.784981	0.335802	0.099863
	H47	H	0.781989	0.663073	0.902531
	H48	H	0.400770	0.118664	0.601413
	H49	H	0.588582	0.881165	0.608255
	H50	H	0.588058	0.115157	0.409720
	H51	H	0.402777	0.880610	0.401026
	H52	H	0.599024	0.402865	0.120726
	H53	H	0.592636	0.594246	0.884376
	H54	H	0.391917	0.595097	0.123179
	H55	H	0.405224	0.403966	0.884432
	H56	H	0.110134	0.584058	0.413007
	H57	H	0.884184	0.583872	0.596839
	H58	H	0.113682	0.409713	0.596340
	H59	H	0.882638	0.410104	0.407392
	H60	H	0.116052	0.405357	0.597413
	H61	H	0.877292	0.599675	0.601157
	H62	H	0.118442	0.593607	0.396789
	H63	H	0.880412	0.405055	0.406479
	H64	H	0.408283	0.580863	0.114308
	H65	H	0.590032	0.590519	0.886501
	H66	H	0.592569	0.413121	0.115764
	H67	H	0.403290	0.407899	0.885059
	H68	H	0.591256	0.115603	0.411472
	H69	H	0.583988	0.889427	0.587312
	H70	H	0.410954	0.115188	0.597250
	H71	H	0.412533	0.885902	0.410620
	H72	H	0.907639	0.615891	0.096934
	H73	H	0.094364	0.384772	0.087850
	H74	H	0.085176	0.614048	0.909166
	H75	H	0.901716	0.381351	0.905779
	H76	H	0.089833	0.902910	0.618046
	H77	H	0.092558	0.095036	0.383966
	H78	H	0.906275	0.097426	0.617993
	H79	H	0.909926	0.900064	0.384969
	H80	H	0.613894	0.089378	0.908340
	H81	H	0.376848	0.093431	0.110356
	H82	H	0.613532	0.904916	0.092182
	H83	H	0.382166	0.911975	0.907282
	H84	H	0.612497	0.909013	0.095302
	H85	H	0.379934	0.105794	0.086581
	H86	H	0.615010	0.094516	0.907861
	H87	H	0.378273	0.901890	0.904211
	H88	H	0.901766	0.092969	0.617990
	H89	H	0.091378	0.090920	0.385842
	H90	H	0.094855	0.907065	0.618759
	H91	H	0.896321	0.907497	0.383439
	H92	H	0.095460	0.616073	0.914711
	H93	H	0.097691	0.379411	0.101314
	H94	H	0.906051	0.614781	0.090018
	H95	H	0.910320	0.385221	0.906432
	H96	H	0.401353	0.115453	0.589583
	H97	H	0.604759	0.880875	0.592637
	H98	H	0.591287	0.116034	0.407068
	H99	H	0.398544	0.882857	0.414874
	H100	H	0.586182	0.401652	0.117500
	H101	H	0.587587	0.594574	0.885519
	H102	H	0.413408	0.603784	0.118953
	H103	H	0.407423	0.407215	0.886227
	H104	H	0.115713	0.604380	0.414629
	H105	H	0.884178	0.595879	0.584931
	H106	H	0.114494	0.406257	0.592890
	H107	H	0.882899	0.406561	0.411557
	H108	H	0.900971	0.617097	0.094800
	H109	H	0.084452	0.384927	0.098288
	H110	H	0.093834	0.619377	0.902719
	H111	H	0.904803	0.385944	0.913135
	H112	H	0.088709	0.909497	0.617266
	H113	H	0.088346	0.094408	0.385539
	H114	H	0.908201	0.091802	0.616590
	H115	H	0.908527	0.914833	0.388475
	H116	H	0.612810	0.092465	0.912020
	H117	H	0.386948	0.079853	0.089136
	H118	H	0.615513	0.904688	0.097190
	H119	H	0.381901	0.903090	0.914631
	C120	C	0.376600	0.008121	0.623738
	C121	C	0.620677	0.991820	0.624593
	C122	C	0.619222	0.007796	0.380948
	C123	C	0.376400	0.991196	0.380280
	C124	C	0.620519	0.377514	0.009839
	C125	C	0.618952	0.621094	0.993640
	C126	C	0.376504	0.621259	0.010308
	C127	C	0.377143	0.378388	0.993631
	C128	C	0.006580	0.622443	0.379297
	C129	C	0.989762	0.621812	0.623014
	C130	C	0.006588	0.378932	0.623530
	C131	C	0.990030	0.378753	0.380251
	C132	C	0.876624	0.508074	0.123142
	C133	C	0.119950	0.491428	0.123460
	C134	C	0.119757	0.508365	0.880496
	C135	C	0.876314	0.491953	0.879830
	C136	C	0.119859	0.878228	0.509873
	C137	C	0.119718	0.121874	0.493081
	C138	C	0.876737	0.122208	0.509542
	C139	C	0.876825	0.879019	0.493720
	C140	C	0.506023	0.120790	0.880885
	C141	C	0.489327	0.120860	0.123807
	C142	C	0.505910	0.877920	0.123658
	C143	C	0.488949	0.877308	0.880535
	C144	C	0.379452	0.884923	0.678268
	C145	C	0.617021	0.114451	0.679817
	C146	C	0.616960	0.884709	0.326181
	C147	C	0.378748	0.113848	0.325174
	C148	C	0.674591	0.380683	0.886517
	C149	C	0.674370	0.617977	0.116527
	C150	C	0.321843	0.618050	0.887067
	C151	C	0.322082	0.380583	0.116468
	C152	C	0.883416	0.677116	0.381774
	C153	C	0.112896	0.675871	0.619603
	C154	C	0.883687	0.324339	0.619890
	C155	C	0.113471	0.324159	0.382641
	C156	C	0.883502	0.381425	0.678202
	C157	C	0.112570	0.619041	0.678071
	C158	C	0.883665	0.619570	0.323712
	C159	C	0.113274	0.381891	0.325813
	C160	C	0.379132	0.675697	0.887166
	C161	C	0.616686	0.675772	0.116675
	C162	C	0.617058	0.322732	0.886829
	C163	C	0.380025	0.323506	0.116724
	C164	C	0.674536	0.884903	0.384096
	C165	C	0.674362	0.115133	0.621596
	C166	C	0.321517	0.885205	0.620831
	C167	C	0.321637	0.114274	0.383135
	C168	C	0.879826	0.385087	0.178427
	C169	C	0.117182	0.614449	0.178136
	C170	C	0.116993	0.385316	0.825567
	C171	C	0.878506	0.615204	0.825081
	C172	C	0.174960	0.881274	0.387031
	C173	C	0.174156	0.118591	0.616609
	C174	C	0.820739	0.119726	0.387076
	C175	C	0.822548	0.881922	0.616906
	C176	C	0.382978	0.176251	0.883107
	C177	C	0.612511	0.175193	0.121242
	C178	C	0.382658	0.823385	0.120744
	C179	C	0.612246	0.822684	0.883492
	C180	C	0.382925	0.880889	0.178569
	C181	C	0.612389	0.117732	0.178959
	C182	C	0.382834	0.118264	0.825773
	C183	C	0.612060	0.879886	0.825765
	C184	C	0.878924	0.177002	0.386551
	C185	C	0.117040	0.176620	0.616247
	C186	C	0.117168	0.823663	0.386906
	C187	C	0.879383	0.823714	0.616548
	C188	C	0.175050	0.385402	0.883050
	C189	C	0.174544	0.614405	0.120186
	C190	C	0.822342	0.384777	0.120376
	C191	C	0.820263	0.614652	0.882137
	C192	C	0.397979	0.094164	0.602404
	C193	C	0.598967	0.906067	0.602378
	C194	C	0.596844	0.093468	0.402890
	C195	C	0.398264	0.905415	0.402437
	C196	C	0.599046	0.399384	0.095877
	C197	C	0.596566	0.599352	0.907659
	C198	C	0.398127	0.599731	0.096572
	C199	C	0.398999	0.400022	0.907458
	C200	C	0.092539	0.600477	0.401417
	C201	C	0.904018	0.599684	0.600947
	C202	C	0.092638	0.400854	0.602069
	C203	C	0.904218	0.400676	0.402046
	C204	C	0.898313	0.593711	0.100717
	C205	C	0.098418	0.405382	0.101949
	C206	C	0.097857	0.594335	0.902407
	C207	C	0.899110	0.406498	0.901829
	C208	C	0.097680	0.900222	0.595874
	C209	C	0.097553	0.099747	0.407242
	C210	C	0.899015	0.100558	0.595468
	C211	C	0.898542	0.901082	0.407651
	C212	C	0.591846	0.098766	0.903025
	C213	C	0.403325	0.099309	0.101873
	C214	C	0.591890	0.899675	0.101520
	C215	C	0.403053	0.899180	0.902446
	Zn216	Zn	0.497762	-0.000816	0.752548
	Zn217	Zn	0.497938	-0.000549	0.252312
	Zn218	Zn	0.747978	0.499716	0.001351
	Zn219	Zn	0.248490	0.499571	0.002095
	Zn220	Zn	-0.001892	0.750235	0.501551
	Zn221	Zn	-0.001157	0.250603	0.500927
	Zn222	Zn	-0.002094	0.500650	0.752231
	Zn223	Zn	-0.001510	0.499789	0.251976
	Zn224	Zn	0.497233	0.749626	0.002209
	Zn225	Zn	0.497866	0.249552	0.002022
	Zn226	Zn	0.748644	0.000471	0.502169
	Zn227	Zn	0.248462	0.000177	0.501950
	N228	N	0.413193	0.962224	0.679833
	N229	N	0.584104	0.036828	0.681682
	N230	N	0.583204	0.962082	0.324348
	N231	N	0.412091	0.036356	0.323527
	N232	N	0.676666	0.414051	0.964017
	N233	N	0.675838	0.584662	0.038962
	N234	N	0.319945	0.584955	0.964800
	N235	N	0.320350	0.414110	0.038941
	N236	N	0.960827	0.679145	0.415452
	N237	N	0.035324	0.677691	0.586056
	N238	N	0.961217	0.322668	0.586759
	N239	N	0.035735	0.322106	0.415774
	N240	N	0.960981	0.414932	0.680449
	N241	N	0.035204	0.585841	0.680102
	N242	N	0.961440	0.586566	0.321922
	N243	N	0.035841	0.415342	0.324197
	N244	N	0.412417	0.677689	0.964778
	N245	N	0.583074	0.677757	0.039170
	N246	N	0.584410	0.320384	0.964621
	N247	N	0.413574	0.322090	0.039330
	N248	N	0.676238	0.962502	0.417386
	N249	N	0.676662	0.037822	0.588007
	N250	N	0.319816	0.962694	0.587432
	N251	N	0.319933	0.036959	0.416812
	N252	N	0.912750	0.462651	0.180415
	N253	N	0.083940	0.536918	0.180297
	N254	N	0.083209	0.462718	0.823900
	N255	N	0.912641	0.537938	0.823533
	N256	N	0.176726	0.914577	0.464631
	N257	N	0.176075	0.085278	0.538892
	N258	N	0.819616	0.086161	0.464618
	N259	N	0.821003	0.915735	0.539595
	N260	N	0.460473	0.177752	0.916970
	N261	N	0.535066	0.177363	0.087593
	N262	N	0.460191	0.821560	0.087095
	N263	N	0.534739	0.820904	0.916742
	N264	N	0.460563	0.913988	0.180426
	N265	N	0.534824	0.084643	0.180633
	N266	N	0.460365	0.084518	0.824234
	N267	N	0.534469	0.913326	0.823906
	N268	N	0.913087	0.178641	0.463871
	N269	N	0.083886	0.178759	0.538692
	N270	N	0.083703	0.821719	0.464338
	N271	N	0.912532	0.821894	0.538894
	N272	N	0.176704	0.462856	0.916471
	N273	N	0.176475	0.536839	0.087183
	N274	N	0.819976	0.462286	0.086849
	N275	N	0.818739	0.537034	0.915373
	O276	O	0.887523	0.032528	0.966899
	H277	H	0.886040	0.031395	0.971697
	H278	H	0.884693	0.033912	0.964792
	O279	O	0.531539	0.457662	0.465130
	H280	H	0.536609	0.452903	0.461691
	H281	H	0.531908	0.459823	0.465733
	O282	O	0.863613	1.024437	-0.029720
	H283	H	0.857200	1.025837	-0.031496
	H284	H	0.862035	1.027942	-0.029526
	O285	O	0.514867	0.453648	0.458132
	H286	H	0.520745	0.454077	0.456844
	H287	H	0.512337	0.448610	0.458300
