data_Molecule from HDF5

_cell_length_a		16.261630
_cell_length_b		16.553551
_cell_length_c		16.180511
_cell_angle_alpha	90.117745
_cell_angle_beta	90.248121
_cell_angle_gamma	90.003162
_symmetry_space_group_name_H-M	'P 1'
_symmetry_Int_Tables_number		1

loop_
	_symmetry_equiv_pos_as_xyz
	x,y,z

loop_
	_atom_site_label
	_atom_site_type_symbol
	_atom_site_fract_x
	_atom_site_fract_y
	_atom_site_fract_z
	H0	H	0.396934	0.829953	0.723331
	H1	H	0.599611	0.149791	0.722296
	H2	H	0.596139	0.829382	0.287738
	H3	H	0.395316	0.150527	0.288000
	H4	H	0.713078	0.393252	0.840411
	H5	H	0.716092	0.590639	0.169171
	H6	H	0.282804	0.591013	0.841344
	H7	H	0.284140	0.391512	0.167528
	H8	H	0.837552	0.708715	0.397321
	H9	H	0.157306	0.710419	0.612976
	H10	H	0.837762	0.269364	0.607091
	H11	H	0.159738	0.268627	0.400366
	H12	H	0.835877	0.390295	0.718869
	H13	H	0.161035	0.589074	0.720570
	H14	H	0.836158	0.586478	0.288008
	H15	H	0.163340	0.390887	0.291723
	H16	H	0.395146	0.709694	0.842661
	H17	H	0.604502	0.710109	0.167948
	H18	H	0.606308	0.269235	0.844913
	H19	H	0.396459	0.272388	0.166301
	H20	H	0.715800	0.829787	0.400253
	H21	H	0.718452	0.148271	0.607024
	H22	H	0.280048	0.829382	0.606976
	H23	H	0.278623	0.149387	0.404166
	H24	H	0.900021	0.328647	0.219718
	H25	H	0.101897	0.648878	0.225096
	H26	H	0.102032	0.330622	0.785903
	H27	H	0.895892	0.648659	0.784009
	H28	H	0.210316	0.889849	0.339773
	H29	H	0.215010	0.089760	0.667719
	H30	H	0.780808	0.087523	0.340150
	H31	H	0.779374	0.885967	0.666398
	H32	H	0.338952	0.212123	0.898909
	H33	H	0.659871	0.211538	0.113462
	H34	H	0.338347	0.769953	0.110280
	H35	H	0.660430	0.772134	0.901483
	H36	H	0.333033	0.894339	0.215142
	H37	H	0.660143	0.090913	0.224350
	H38	H	0.336459	0.092104	0.787167
	H39	H	0.661136	0.890683	0.789254
	H40	H	0.892314	0.207298	0.341466
	H41	H	0.105310	0.210339	0.664751
	H42	H	0.101793	0.768017	0.342682
	H43	H	0.890138	0.766806	0.664408
	H44	H	0.219497	0.331645	0.901283
	H45	H	0.217657	0.650422	0.107881
	H46	H	0.779745	0.331036	0.107021
	H47	H	0.780574	0.649977	0.901294
	H48	H	0.404953	0.103546	0.596011
	H49	H	0.590447	0.875046	0.595872
	H50	H	0.588558	0.100994	0.418979
	H51	H	0.399404	0.875368	0.415337
	H52	H	0.589168	0.399218	0.121007
	H53	H	0.586914	0.592571	0.887242
	H54	H	0.406621	0.582797	0.121549
	H55	H	0.413519	0.398739	0.889113
	H56	H	0.115066	0.577382	0.410417
	H57	H	0.878536	0.587516	0.597690
	H58	H	0.114228	0.393473	0.592144
	H59	H	0.883187	0.394716	0.414513
	H60	H	0.113177	0.399974	0.592106
	H61	H	0.886193	0.579847	0.581988
	H62	H	0.115763	0.587158	0.418315
	H63	H	0.883879	0.398533	0.412475
	H64	H	0.412384	0.579677	0.119362
	H65	H	0.597817	0.581007	0.887516
	H66	H	0.590303	0.401494	0.121084
	H67	H	0.408179	0.400015	0.888808
	H68	H	0.591978	0.104399	0.412933
	H69	H	0.588992	0.876521	0.597384
	H70	H	0.407136	0.102491	0.595815
	H71	H	0.398717	0.872288	0.404152
	H72	H	0.900901	0.604523	0.093074
	H73	H	0.088138	0.376090	0.100908
	H74	H	0.088648	0.603972	0.908145
	H75	H	0.911510	0.376464	0.907153
	H76	H	0.095362	0.897735	0.622497
	H77	H	0.081158	0.075887	0.391211
	H78	H	0.907019	0.076484	0.618789
	H79	H	0.907573	0.894601	0.387784
	H80	H	0.613146	0.083738	0.920853
	H81	H	0.381795	0.084558	0.099233
	H82	H	0.616485	0.899078	0.104701
	H83	H	0.384561	0.900471	0.916163
	H84	H	0.614539	0.892416	0.091486
	H85	H	0.383561	0.089812	0.089779
	H86	H	0.612116	0.076941	0.916287
	H87	H	0.382568	0.897919	0.914395
	H88	H	0.914129	0.079632	0.617192
	H89	H	0.086057	0.085211	0.386605
	H90	H	0.083422	0.904916	0.616190
	H91	H	0.906376	0.899846	0.388941
	H92	H	0.086599	0.600759	0.916758
	H93	H	0.092331	0.379239	0.089656
	H94	H	0.910507	0.605934	0.105682
	H95	H	0.910423	0.379846	0.919660
	H96	H	0.406189	0.101310	0.593958
	H97	H	0.588494	0.876405	0.595064
	H98	H	0.584550	0.102201	0.412371
	H99	H	0.408789	0.876880	0.408292
	H100	H	0.587709	0.401332	0.120184
	H101	H	0.582611	0.578450	0.892728
	H102	H	0.412618	0.585785	0.121259
	H103	H	0.411996	0.402594	0.890058
	H104	H	0.109937	0.575983	0.422712
	H105	H	0.884184	0.570165	0.597389
	H106	H	0.115643	0.396951	0.597288
	H107	H	0.882452	0.395386	0.410516
	H108	H	0.915417	0.599090	0.092081
	H109	H	0.099646	0.373834	0.097082
	H110	H	0.095594	0.604568	0.914795
	H111	H	0.899935	0.375895	0.913123
	H112	H	0.082375	0.890843	0.620961
	H113	H	0.092353	0.075627	0.388398
	H114	H	0.908719	0.084249	0.620773
	H115	H	0.912065	0.897423	0.389953
	H116	H	0.615384	0.083458	0.912384
	H117	H	0.385946	0.078908	0.090671
	H118	H	0.610716	0.906594	0.092874
	H119	H	0.383461	0.897800	0.918123
	C120	C	0.376290	-0.002805	0.626105
	C121	C	0.620511	0.981180	0.626876
	C122	C	0.618377	-0.002867	0.383349
	C123	C	0.373747	0.981441	0.381108
	C124	C	0.620407	0.370114	0.013260
	C125	C	0.620554	0.613232	0.997165
	C126	C	0.378984	0.612633	0.013365
	C127	C	0.379972	0.370578	0.996388
	C128	C	0.006987	0.609782	0.384288
	C129	C	0.989283	0.610277	0.625072
	C130	C	0.007390	0.367053	0.624909
	C131	C	0.990370	0.366441	0.382581
	C132	C	0.878263	0.497768	0.126600
	C133	C	0.123258	0.482028	0.127428
	C134	C	0.121179	0.498413	0.882691
	C135	C	0.876679	0.482069	0.881941
	C136	C	0.118000	0.867028	0.512619
	C137	C	0.118517	0.109963	0.495944
	C138	C	0.877388	0.109893	0.511759
	C139	C	0.876597	0.866626	0.495558
	C140	C	0.507335	0.112676	0.883769
	C141	C	0.490258	0.113658	0.126395
	C142	C	0.506586	0.869664	0.125889
	C143	C	0.490446	0.869295	0.885074
	C144	C	0.377412	0.877486	0.683825
	C145	C	0.619549	0.101767	0.683476
	C146	C	0.616777	0.877288	0.325665
	C147	C	0.375044	0.102138	0.325661
	C148	C	0.676687	0.371616	0.890152
	C149	C	0.678064	0.611481	0.119910
	C150	C	0.321182	0.611357	0.890293
	C151	C	0.322621	0.371646	0.118895
	C152	C	0.885597	0.667926	0.380658
	C153	C	0.109898	0.669740	0.629085
	C154	C	0.885683	0.309314	0.625456
	C155	C	0.111998	0.308626	0.382042
	C156	C	0.884884	0.369080	0.681297
	C157	C	0.111784	0.609416	0.682859
	C158	C	0.884836	0.607387	0.326131
	C159	C	0.113832	0.369472	0.328237
	C160	C	0.377203	0.670292	0.891055
	C161	C	0.622481	0.670756	0.119229
	C162	C	0.623460	0.310205	0.892324
	C163	C	0.378154	0.312177	0.118225
	C164	C	0.676119	0.877368	0.381952
	C165	C	0.678581	0.100991	0.626272
	C166	C	0.318915	0.877217	0.626148
	C167	C	0.316959	0.101645	0.383421
	C168	C	0.879519	0.376928	0.182171
	C169	C	0.122221	0.601323	0.186338
	C170	C	0.121403	0.378352	0.824896
	C171	C	0.876891	0.601406	0.823388
	C172	C	0.173926	0.868485	0.389495
	C173	C	0.176773	0.109697	0.618521
	C174	C	0.818937	0.108243	0.389387
	C175	C	0.817922	0.866416	0.617471
	C176	C	0.386779	0.172215	0.880847
	C177	C	0.611744	0.171441	0.130409
	C178	C	0.385647	0.810627	0.127435
	C179	C	0.612178	0.811568	0.883535
	C180	C	0.382945	0.872624	0.179544
	C181	C	0.611695	0.111922	0.185997
	C182	C	0.385474	0.112260	0.825581
	C183	C	0.612605	0.870477	0.827409
	C184	C	0.874670	0.167712	0.389920
	C185	C	0.122040	0.169816	0.616917
	C186	C	0.119312	0.808215	0.391023
	C187	C	0.872866	0.806910	0.616372
	C188	C	0.180035	0.379073	0.882076
	C189	C	0.179716	0.602006	0.127753
	C190	C	0.819721	0.378158	0.125919
	C191	C	0.819282	0.601863	0.881687
	C192	C	0.399446	0.080823	0.602156
	C193	C	0.596519	0.897744	0.603276
	C194	C	0.595222	0.080732	0.407849
	C195	C	0.395864	0.896937	0.402980
	C196	C	0.596066	0.393853	0.098495
	C197	C	0.596356	0.590549	0.911357
	C198	C	0.403346	0.589347	0.098489
	C199	C	0.404199	0.393729	0.911429
	C200	C	0.091570	0.586789	0.409768
	C201	C	0.905058	0.586193	0.599896
	C202	C	0.092104	0.389984	0.600995
	C203	C	0.905211	0.389370	0.405926
	C204	C	0.901917	0.581509	0.103538
	C205	C	0.100018	0.397937	0.103028
	C206	C	0.097216	0.581642	0.906433
	C207	C	0.900500	0.398854	0.906191
	C208	C	0.093933	0.890879	0.597833
	C209	C	0.093594	0.085914	0.410916
	C210	C	0.902685	0.086768	0.596842
	C211	C	0.901368	0.890567	0.410846
	C212	C	0.591532	0.088512	0.909070
	C213	C	0.405738	0.090952	0.100661
	C214	C	0.591729	0.892812	0.102953
	C215	C	0.405594	0.892199	0.909181
	Zn216	Zn	0.498031	-0.010043	0.756316
	Zn217	Zn	0.497102	-0.009565	0.253179
	Zn218	Zn	0.748022	0.491388	0.004695
	Zn219	Zn	0.251014	0.491220	0.004510
	Zn220	Zn	-0.002418	0.738749	0.504764
	Zn221	Zn	-0.001771	0.238474	0.503091
	Zn222	Zn	-0.001120	0.489499	0.752990
	Zn223	Zn	0.000109	0.488549	0.256047
	Zn224	Zn	0.499065	0.741118	0.005667
	Zn225	Zn	0.500048	0.241701	0.004816
	Zn226	Zn	0.749163	-0.011816	0.504029
	Zn227	Zn	0.246226	-0.011488	0.504437
	N228	N	0.412074	0.953092	0.683973
	N229	N	0.584219	0.026325	0.684068
	N230	N	0.581422	0.952662	0.326419
	N231	N	0.409529	0.026337	0.323966
	N232	N	0.674783	0.408091	0.966465
	N233	N	0.676929	0.576314	0.042910
	N234	N	0.321984	0.576351	0.967301
	N235	N	0.323581	0.407119	0.042174
	N236	N	0.962555	0.669442	0.416119
	N237	N	0.032886	0.670394	0.593900
	N238	N	0.962836	0.307771	0.591417
	N239	N	0.034110	0.306555	0.414919
	N240	N	0.961572	0.403898	0.681331
	N241	N	0.035702	0.573015	0.680749
	N242	N	0.961214	0.571699	0.328402
	N243	N	0.037243	0.404595	0.328443
	N244	N	0.412415	0.671204	0.968521
	N245	N	0.587231	0.671674	0.041728
	N246	N	0.589471	0.309057	0.970092
	N247	N	0.413247	0.311390	0.041214
	N248	N	0.677354	0.953048	0.417084
	N249	N	0.679516	0.024940	0.592204
	N250	N	0.318230	0.952763	0.590738
	N251	N	0.315988	0.025444	0.417081
	N252	N	0.915229	0.452065	0.182752
	N253	N	0.088149	0.525294	0.186317
	N254	N	0.085502	0.453369	0.825049
	N255	N	0.911889	0.525701	0.823453
	N256	N	0.173400	0.904520	0.466230
	N257	N	0.174690	0.073199	0.542224
	N258	N	0.820722	0.072910	0.466175
	N259	N	0.820101	0.902941	0.541290
	N260	N	0.463655	0.172577	0.916340
	N261	N	0.535142	0.172867	0.094197
	N262	N	0.463789	0.808361	0.095234
	N263	N	0.535183	0.810835	0.918516
	N264	N	0.459229	0.908707	0.178677
	N265	N	0.535209	0.076673	0.183561
	N266	N	0.461573	0.076099	0.826981
	N267	N	0.535989	0.905631	0.828086
	N268	N	0.910008	0.169173	0.467360
	N269	N	0.086436	0.170101	0.539613
	N270	N	0.085619	0.807156	0.468819
	N271	N	0.908713	0.807014	0.539617
	N272	N	0.180026	0.454678	0.917368
	N273	N	0.180426	0.526593	0.091971
	N274	N	0.818664	0.454390	0.092260
	N275	N	0.818975	0.526707	0.917318
	O276	O	0.573090	0.343112	0.371114
	H277	H	0.600772	0.339282	0.374653
	H278	H	0.578276	0.356037	0.371380
	O279	O	0.687235	0.507917	0.484045
	H280	H	0.687631	0.526990	0.492543
	H281	H	0.687050	0.519757	0.478818
	O282	O	0.812554	0.185951	0.842147
	H283	H	0.818333	0.192101	0.875821
	H284	H	0.811391	0.181420	0.835817
	O285	O	0.515231	0.490899	0.439220
	H286	H	0.523431	0.476410	0.443053
	H287	H	0.523022	0.490161	0.451239
	O288	O	0.958548	0.941359	0.955957
	H289	H	0.971102	0.957248	0.949999
	H290	H	0.941950	0.941669	0.954798
	O291	O	0.078100	0.950910	-0.088446
	H292	H	0.073304	0.936414	-0.097604
	H293	H	0.083533	0.951421	-0.085128
	O294	O	0.601175	0.583445	0.490635
	H295	H	0.590516	0.589241	0.508633
	H296	H	0.601797	0.592253	0.487890
	O297	O	0.385145	0.685042	0.387195
	H298	H	0.372259	0.681008	0.381686
	H299	H	0.385199	0.677286	0.377664
	O300	O	0.508644	0.458196	0.504508
	H301	H	0.516796	0.447987	0.514619
	H302	H	0.497291	0.464301	0.519282
	O303	O	0.444223	0.393637	0.539888
	H304	H	0.466855	0.392568	0.530744
	H305	H	0.440770	0.392571	0.545377
	O306	O	0.522215	0.475248	0.571372
	H307	H	0.504282	0.474675	0.565743
	H308	H	0.514815	0.480950	0.579412
	O309	O	0.484547	0.491630	0.624155
	H310	H	0.477275	0.483850	0.630352
	H311	H	0.485943	0.487715	0.615334
	O312	O	0.147651	0.191538	0.152281
	H313	H	0.157078	0.209730	0.152870
	H314	H	0.155808	0.186504	0.156126
	O315	O	0.431847	0.399986	0.406548
	H316	H	0.452460	0.402608	0.412018
	H317	H	0.429807	0.395354	0.386999
	O318	O	0.007243	0.806929	1.040163
	H319	H	0.001779	0.813978	1.042167
	H320	H	0.000535	0.797166	1.047988
	O321	O	0.603784	0.464042	0.576901
	H322	H	0.595000	0.463093	0.569094
	H323	H	0.592798	0.482146	0.583358
	O324	O	0.006977	1.085182	-0.053894
	H325	H	-0.009791	1.078291	-0.053713
	H326	H	-0.002103	1.090778	-0.046000
	O327	O	0.333015	0.532761	0.417750
	H328	H	0.329084	0.521505	0.431723
	H329	H	0.323957	0.516838	0.411699
	O330	O	0.000970	0.140189	0.853829
	H331	H	-0.001131	0.161691	0.846384
	H332	H	-0.005116	0.119810	0.854759
	O333	O	0.055688	-0.074984	0.819520
	H334	H	0.070887	-0.096718	0.818367
	H335	H	0.071952	-0.068109	0.832254
	O336	O	0.345248	0.598043	0.515643
	H337	H	0.341998	0.584575	0.505149
	H338	H	0.334823	0.597220	0.508617
	O339	O	1.069255	0.005792	0.159434
	H340	H	1.067695	0.019897	0.161784
	H341	H	1.076882	0.023462	0.158225
	O342	O	0.052288	0.176639	0.062330
	H343	H	0.053322	0.183582	0.074921
	H344	H	0.047670	0.180765	0.059059
	O345	O	0.989341	0.141876	1.110204
	H346	H	0.981795	0.135449	1.097369
	H347	H	0.994593	0.131826	1.131696
	O348	O	0.796917	1.024124	-0.204161
	H349	H	0.785122	1.042668	-0.221166
	H350	H	0.798593	1.024983	-0.212503
	O351	O	0.527450	0.347040	0.464585
	H352	H	0.536402	0.349537	0.472644
	H353	H	0.524984	0.349033	0.473335
	O354	O	1.159590	-0.041665	1.066190
	H355	H	1.147636	-0.033695	1.058278
	H356	H	1.168479	-0.042240	1.062986
	O357	O	0.456064	0.556646	0.489789
	H358	H	0.447051	0.561276	0.482352
	H359	H	0.460644	0.560256	0.485470
	O360	O	0.494823	0.585104	0.587782
	H361	H	0.494209	0.601166	0.577353
	H362	H	0.495312	0.574156	0.587573
	O363	O	-0.058136	0.841808	0.954041
	H364	H	-0.055967	0.846353	0.949668
	H365	H	-0.062632	0.831466	0.964042
	O366	O	0.649380	0.422912	0.426295
	H367	H	0.645438	0.450901	0.430192
	H368	H	0.664812	0.421026	0.440809
	O369	O	-0.082758	0.852074	0.107136
	H370	H	-0.084487	0.857744	0.114023
	H371	H	-0.101090	0.841695	0.114682
	O372	O	0.532862	0.376944	0.377265
	H373	H	0.540771	0.356957	0.368583
	H374	H	0.542031	0.377792	0.386179
	O375	O	0.499923	0.578872	0.676244
	H376	H	0.476050	0.576780	0.673802
	H377	H	0.491924	0.565816	0.673636
	O378	O	0.984109	0.841317	-0.034158
	H379	H	0.990258	0.858109	-0.003171
	H380	H	0.970617	0.826320	-0.052857
	O381	O	0.958434	0.043574	0.092818
	H382	H	0.979504	0.050109	0.085031
	H383	H	0.952663	0.048688	0.098159
	O384	O	0.860505	0.849073	0.109782
	H385	H	0.844079	0.855073	0.114329
	H386	H	0.869218	0.849722	0.096442
	O387	O	0.195573	-0.175121	-0.096802
	H388	H	0.207156	-0.186572	-0.091704
	H389	H	0.201956	-0.170588	-0.113472
	O390	O	0.128632	1.077580	0.069335
	H391	H	0.120511	1.079293	0.062359
	H392	H	0.135550	1.073970	0.060790
	O393	O	0.940525	0.945077	0.985790
	H394	H	0.925866	0.934974	0.982768
	H395	H	0.935486	0.957596	0.981638
	O396	O	0.499179	0.374380	0.539682
	H397	H	0.505394	0.372523	0.528651
	H398	H	0.497653	0.376408	0.540276
	O399	O	0.119731	1.065515	0.893764
	H400	H	0.109519	1.075738	0.881236
	H401	H	0.104516	1.073187	0.900036
	O402	O	0.371768	0.484641	0.441793
	H403	H	0.381266	0.481502	0.434508
	H404	H	0.358251	0.478066	0.427760
	O405	O	0.813214	0.987414	0.114567
	H406	H	0.824975	0.987156	0.106148
	H407	H	0.814360	0.985763	0.115215
	O408	O	0.951348	0.941140	0.138785
	H409	H	0.952113	0.935132	0.138330
	H410	H	0.942371	0.942811	0.126974
	O411	O	0.958495	0.040995	0.856629
	H412	H	0.951147	0.047464	0.855379
	H413	H	0.967599	0.034181	0.852819
	O414	O	0.579498	0.547611	0.636955
	H415	H	0.572118	0.568152	0.637620
	H416	H	0.578465	0.551966	0.630499
	O417	O	0.425461	0.544318	0.563285
	H418	H	0.417705	0.539613	0.561160
	H419	H	0.437170	0.544968	0.569861
