data_Molecule from HDF5

_cell_length_a		16.460326
_cell_length_b		16.720162
_cell_length_c		16.436551
_cell_angle_alpha	90.075824
_cell_angle_beta	90.045323
_cell_angle_gamma	90.001058
_symmetry_space_group_name_H-M	'P 1'
_symmetry_Int_Tables_number		1

loop_
	_symmetry_equiv_pos_as_xyz
	x,y,z

loop_
	_atom_site_label
	_atom_site_type_symbol
	_atom_site_fract_x
	_atom_site_fract_y
	_atom_site_fract_z
	H0	H	0.412082	0.822787	0.746580
	H1	H	0.619045	0.137941	0.744282
	H2	H	0.617678	0.824109	0.304612
	H3	H	0.413270	0.137153	0.307000
	H4	H	0.735954	0.377634	0.865245
	H5	H	0.731220	0.580250	0.184814
	H6	H	0.295269	0.583853	0.865194
	H7	H	0.300035	0.379300	0.183118
	H8	H	0.858674	0.698056	0.422642
	H9	H	0.172587	0.702522	0.634403
	H10	H	0.859147	0.256422	0.632887
	H11	H	0.174104	0.260126	0.421993
	H12	H	0.857226	0.375646	0.745045
	H13	H	0.173634	0.584200	0.747538
	H14	H	0.856238	0.577936	0.311048
	H15	H	0.175428	0.379085	0.308998
	H16	H	0.407805	0.702460	0.866142
	H17	H	0.619706	0.701040	0.181479
	H18	H	0.622960	0.259034	0.865472
	H19	H	0.410257	0.258095	0.179791
	H20	H	0.735248	0.823693	0.422143
	H21	H	0.736167	0.137941	0.627722
	H22	H	0.293803	0.822818	0.631758
	H23	H	0.296056	0.135607	0.423869
	H24	H	0.912851	0.323651	0.246041
	H25	H	0.121877	0.634597	0.249034
	H26	H	0.122396	0.325404	0.801768
	H27	H	0.907461	0.632684	0.799894
	H28	H	0.234254	0.876866	0.366835
	H29	H	0.237285	0.084404	0.683506
	H30	H	0.798930	0.081369	0.366043
	H31	H	0.795341	0.875607	0.682714
	H32	H	0.359803	0.204130	0.915373
	H33	H	0.673396	0.200747	0.128249
	H34	H	0.359894	0.757106	0.132831
	H35	H	0.671906	0.758788	0.918487
	H36	H	0.357446	0.878804	0.243681
	H37	H	0.673722	0.083547	0.243152
	H38	H	0.357740	0.084057	0.802747
	H39	H	0.675602	0.880023	0.808037
	H40	H	0.911019	0.200822	0.368169
	H41	H	0.124883	0.203623	0.681647
	H42	H	0.121521	0.758089	0.368890
	H43	H	0.907156	0.755438	0.680741
	H44	H	0.240134	0.325902	0.918283
	H45	H	0.240978	0.634058	0.134050
	H46	H	0.793339	0.324422	0.130406
	H47	H	0.794194	0.634526	0.921004
	H48	H	0.423262	0.090087	0.613361
	H49	H	0.605517	0.869767	0.613849
	H50	H	0.606882	0.091322	0.436572
	H51	H	0.429541	0.869329	0.433980
	H52	H	0.603576	0.387457	0.136862
	H53	H	0.605111	0.572104	0.909533
	H54	H	0.426118	0.568656	0.136173
	H55	H	0.434125	0.392501	0.912195
	H56	H	0.130845	0.571221	0.435401
	H57	H	0.907014	0.568390	0.604263
	H58	H	0.128145	0.390723	0.611740
	H59	H	0.903732	0.392110	0.434887
	H60	H	0.127087	0.391836	0.612067
	H61	H	0.904914	0.561944	0.614893
	H62	H	0.130361	0.571033	0.439068
	H63	H	0.899661	0.385007	0.432366
	H64	H	0.430633	0.569516	0.135182
	H65	H	0.605925	0.567330	0.910649
	H66	H	0.605562	0.389894	0.137423
	H67	H	0.427088	0.385562	0.907932
	H68	H	0.611676	0.093898	0.433238
	H69	H	0.609668	0.868646	0.613849
	H70	H	0.429490	0.089555	0.616329
	H71	H	0.423907	0.869027	0.437282
	H72	H	0.923240	0.592987	0.121731
	H73	H	0.108606	0.368531	0.114373
	H74	H	0.109577	0.591883	0.937547
	H75	H	0.930319	0.370473	0.937373
	H76	H	0.099820	0.883955	0.640061
	H77	H	0.103309	0.066334	0.414773
	H78	H	0.926737	0.064494	0.637303
	H79	H	0.923939	0.889573	0.410258
	H80	H	0.629923	0.073689	0.935340
	H81	H	0.402044	0.070522	0.113251
	H82	H	0.630771	0.891059	0.118554
	H83	H	0.405658	0.894163	0.941654
	H84	H	0.629458	0.885542	0.108437
	H85	H	0.402176	0.072781	0.111886
	H86	H	0.628617	0.069901	0.936559
	H87	H	0.402054	0.895137	0.931746
	H88	H	0.933260	0.071234	0.637224
	H89	H	0.101791	0.071851	0.413057
	H90	H	0.111192	0.889160	0.641517
	H91	H	0.929728	0.891403	0.413733
	H92	H	0.100084	0.590768	0.933493
	H93	H	0.105930	0.368576	0.116745
	H94	H	0.927448	0.590274	0.117616
	H95	H	0.922092	0.368682	0.939716
	H96	H	0.428148	0.087342	0.610402
	H97	H	0.607021	0.868556	0.617683
	H98	H	0.605794	0.093098	0.430548
	H99	H	0.424750	0.866283	0.431396
	H100	H	0.602440	0.390632	0.136413
	H101	H	0.601614	0.569547	0.912213
	H102	H	0.428169	0.572908	0.137602
	H103	H	0.423953	0.395379	0.910472
	H104	H	0.130043	0.568130	0.436915
	H105	H	0.902035	0.573545	0.613790
	H106	H	0.127287	0.391450	0.613276
	H107	H	0.902954	0.385717	0.440578
	H108	H	0.921497	0.591777	0.115169
	H109	H	0.105263	0.369741	0.113563
	H110	H	0.102085	0.587314	0.942625
	H111	H	0.925147	0.365746	0.931822
	H112	H	0.102323	0.895462	0.635825
	H113	H	0.106888	0.069757	0.410973
	H114	H	0.924520	0.073321	0.640671
	H115	H	0.928836	0.884646	0.411358
	H116	H	0.629402	0.070804	0.932293
	H117	H	0.403339	0.070319	0.110789
	H118	H	0.625319	0.896389	0.109085
	H119	H	0.400841	0.886203	0.937087
	C120	C	0.394227	-0.013239	0.646788
	C121	C	0.638354	0.972690	0.646166
	C122	C	0.638701	-0.010867	0.402239
	C123	C	0.394290	0.971452	0.403663
	C124	C	0.636825	0.358341	0.032210
	C125	C	0.635862	0.600748	1.015752
	C126	C	0.394489	0.602176	0.032363
	C127	C	0.395993	0.359344	1.014695
	C128	C	0.025592	0.600192	0.405620
	C129	C	1.007905	0.600564	0.646056
	C130	C	0.023631	0.358713	0.645724
	C131	C	1.007151	0.357609	0.404695
	C132	C	0.893567	0.488286	0.148211
	C133	C	0.138900	0.471454	0.147649
	C134	C	0.137589	0.488284	0.903968
	C135	C	0.893675	0.470772	0.903773
	C136	C	0.136529	0.858491	0.534314
	C137	C	0.137213	0.101197	0.517043
	C138	C	0.896185	0.100872	0.533713
	C139	C	0.895290	0.857706	0.516408
	C140	C	0.524856	0.102613	0.902069
	C141	C	0.507184	0.102284	0.144221
	C142	C	0.524166	0.859616	0.144591
	C143	C	0.507125	0.860403	0.904177
	C144	C	0.392700	0.869781	0.707248
	C145	C	0.638232	0.090759	0.704897
	C146	C	0.638042	0.871160	0.343738
	C147	C	0.393792	0.089677	0.346148
	C148	C	0.697062	0.357669	0.913116
	C149	C	0.693232	0.600493	0.136135
	C150	C	0.334330	0.603246	0.913118
	C151	C	0.337767	0.358951	0.134577
	C152	C	0.906063	0.658486	0.404075
	C153	C	0.125724	0.661612	0.651308
	C154	C	0.905907	0.297439	0.649792
	C155	C	0.126735	0.299738	0.403361
	C156	C	0.904901	0.356937	0.705651
	C157	C	0.126199	0.602522	0.707369
	C158	C	0.904886	0.598772	0.348543
	C159	C	0.127397	0.359019	0.347442
	C160	C	0.390802	0.661960	0.913519
	C161	C	0.637633	0.660296	0.134613
	C162	C	0.640614	0.298932	0.913080
	C163	C	0.392814	0.298848	0.133005
	C164	C	0.696035	0.870919	0.402471
	C165	C	0.696590	0.090737	0.646845
	C166	C	0.333752	0.869882	0.649889
	C167	C	0.335382	0.088915	0.404125
	C168	C	0.892935	0.370639	0.206996
	C169	C	0.140846	0.587925	0.208829
	C170	C	0.140743	0.371898	0.842476
	C171	C	0.889939	0.586873	0.841728
	C172	C	0.195464	0.857418	0.414890
	C173	C	0.197857	0.103048	0.635615
	C174	C	0.837490	0.101231	0.414084
	C175	C	0.834623	0.856306	0.635126
	C176	C	0.406402	0.163010	0.898233
	C177	C	0.625849	0.161254	0.146621
	C178	C	0.406446	0.798561	0.149347
	C179	C	0.625546	0.800075	0.900974
	C180	C	0.405075	0.859166	0.204185
	C181	C	0.626178	0.102743	0.203666
	C182	C	0.405506	0.103573	0.842186
	C183	C	0.627184	0.860029	0.845962
	C184	C	0.893189	0.160531	0.415120
	C185	C	0.141798	0.162325	0.634919
	C186	C	0.139393	0.798488	0.415769
	C187	C	0.890357	0.796713	0.633967
	C188	C	0.199224	0.372104	0.900399
	C189	C	0.200110	0.587718	0.151598
	C190	C	0.833738	0.371014	0.149440
	C191	C	0.833440	0.587893	0.901605
	C192	C	0.419732	0.067938	0.620676
	C193	C	0.614304	0.890445	0.621958
	C194	C	0.614988	0.071345	0.426390
	C195	C	0.419029	0.889520	0.427364
	C196	C	0.611101	0.382409	0.115211
	C197	C	0.611225	0.576593	0.932626
	C198	C	0.420624	0.577482	0.114708
	C199	C	0.420937	0.384103	0.931863
	C200	C	0.108805	0.576688	0.430024
	C201	C	0.925921	0.575160	0.618935
	C202	C	0.106127	0.384106	0.619515
	C203	C	0.923841	0.380791	0.428938
	C204	C	0.917378	0.570352	0.124812
	C205	C	0.113667	0.390035	0.122003
	C206	C	0.111422	0.568927	0.930406
	C207	C	0.918846	0.389439	0.929036
	C208	C	0.111512	0.882648	0.617543
	C209	C	0.111311	0.076394	0.434381
	C210	C	0.921179	0.076598	0.616992
	C211	C	0.920319	0.881844	0.433494
	C212	C	0.607665	0.078539	0.927373
	C213	C	0.424235	0.078051	0.119160
	C214	C	0.606981	0.884003	0.119106
	C215	C	0.424474	0.884731	0.929492
	Zn216	Zn	0.516255	-0.019740	0.775136
	Zn217	Zn	0.515403	-0.018942	0.273237
	Zn218	Zn	0.764273	0.479977	0.025135
	Zn219	Zn	0.267526	0.480432	0.024572
	Zn220	Zn	0.016803	0.729504	0.526096
	Zn221	Zn	0.016346	0.229659	0.525677
	Zn222	Zn	0.015533	0.479579	0.774331
	Zn223	Zn	0.016606	0.479552	0.276958
	Zn224	Zn	0.515245	0.730566	0.023525
	Zn225	Zn	0.516103	0.230552	0.022513
	Zn226	Zn	0.768360	-0.019789	0.525062
	Zn227	Zn	0.264706	-0.021527	0.525836
	N228	N	0.429435	0.943625	0.705614
	N229	N	0.603021	0.016121	0.704691
	N230	N	0.603277	0.945756	0.343230
	N231	N	0.429674	0.015597	0.345523
	N232	N	0.695116	0.393732	0.988312
	N233	N	0.692106	0.564034	0.061230
	N234	N	0.336510	0.566880	0.988083
	N235	N	0.339534	0.395737	0.060008
	N236	N	0.982145	0.659760	0.438570
	N237	N	0.051039	0.660704	0.613861
	N238	N	0.981043	0.298472	0.613212
	N239	N	0.050906	0.298640	0.438031
	N240	N	0.979213	0.394174	0.703320
	N241	N	0.051897	0.565281	0.704169
	N242	N	0.980325	0.563461	0.349098
	N243	N	0.052022	0.394052	0.347800
	N244	N	0.427149	0.661975	0.988777
	N245	N	0.602852	0.660847	0.058616
	N246	N	0.603973	0.299147	0.988179
	N247	N	0.427942	0.298623	0.057198
	N248	N	0.696734	0.945394	0.437857
	N249	N	0.697043	0.016350	0.611333
	N250	N	0.334430	0.943754	0.613362
	N251	N	0.335460	0.014331	0.438929
	N252	N	0.929328	0.444435	0.206436
	N253	N	0.103422	0.514580	0.206518
	N254	N	0.103296	0.445271	0.844345
	N255	N	0.926606	0.513189	0.843001
	N256	N	0.193907	0.893745	0.489669
	N257	N	0.195150	0.065562	0.561235
	N258	N	0.839468	0.064633	0.488866
	N259	N	0.837310	0.893511	0.560821
	N260	N	0.481703	0.162578	0.934549
	N261	N	0.550684	0.161102	0.110427
	N262	N	0.481520	0.798722	0.112949
	N263	N	0.549843	0.799733	0.936188
	N264	N	0.479339	0.896474	0.201492
	N265	N	0.551139	0.066950	0.202642
	N266	N	0.480165	0.066983	0.844299
	N267	N	0.552557	0.896709	0.847731
	N268	N	0.928869	0.160448	0.490640
	N269	N	0.105096	0.161653	0.559993
	N270	N	0.103563	0.798879	0.491215
	N271	N	0.927174	0.797242	0.559127
	N272	N	0.197357	0.445478	0.938029
	N273	N	0.199017	0.514291	0.114259
	N274	N	0.833792	0.445188	0.113655
	N275	N	0.835487	0.514696	0.939322
	O276	O	0.832357	0.793610	-0.159623
	H277	H	0.845785	0.806524	-0.139875
	H278	H	0.852104	0.798917	-0.148990
	O279	O	0.351238	0.694397	0.514076
	H280	H	0.355400	0.707858	0.516009
	H281	H	0.346566	0.690802	0.508083
	O282	O	1.048096	0.008918	0.073924
	H283	H	1.041929	0.005788	0.080444
	H284	H	1.048663	-0.004345	0.062697
	O285	O	-0.193897	0.942743	0.243607
	H286	H	-0.202983	0.921589	0.257830
	H287	H	-0.211224	0.929699	0.249719
	O288	O	1.071364	0.038049	0.801790
	H289	H	1.096923	0.023700	0.800078
	H290	H	1.053941	0.034872	0.794661
	O291	O	-0.034570	-0.245268	-0.032947
	H292	H	-0.032248	-0.236771	-0.005624
	H293	H	-0.043460	-0.247622	-0.030177
	O294	O	-0.028208	-0.091953	0.042399
	H295	H	-0.031232	-0.091793	0.038870
	H296	H	-0.031684	-0.103133	0.033443
	O297	O	0.317808	0.688426	0.325307
	H298	H	0.325677	0.670308	0.336423
	H299	H	0.326937	0.691342	0.325969
	O300	O	-0.052900	-0.056767	0.058516
	H301	H	-0.054809	-0.060575	0.044299
	H302	H	-0.052352	-0.056777	0.041016
	O303	O	0.230532	0.067660	-0.054992
	H304	H	0.227460	0.058143	-0.036554
	H305	H	0.230905	0.044539	-0.080810
	O306	O	0.161604	0.171158	-0.102942
	H307	H	0.154260	0.156245	-0.089637
	H308	H	0.142981	0.165881	-0.091647
	O309	O	0.958914	-0.074467	-0.197434
	H310	H	0.918120	-0.059641	-0.202771
	H311	H	0.970431	-0.075712	-0.201637
	O312	O	0.538718	0.275329	0.306422
	H313	H	0.576070	0.269319	0.301396
	H314	H	0.554460	0.261246	0.295325
	O315	O	0.632827	0.326076	0.584707
	H316	H	0.621281	0.327343	0.614364
	H317	H	0.607044	0.321051	0.582171
	O318	O	1.222049	1.191749	0.230370
	H319	H	1.246743	1.214534	0.250428
	H320	H	1.220856	1.199260	0.205614
	O321	O	-0.020644	0.758868	1.241315
	H322	H	-0.011029	0.734142	1.266614
	H323	H	-0.016595	0.771998	1.228954
	O324	O	0.987056	0.028314	1.241671
	H325	H	0.987772	0.024641	1.231538
	H326	H	0.980230	0.024353	1.251933
	O327	O	0.408400	0.437576	0.320626
	H328	H	0.417312	0.440518	0.325869
	H329	H	0.430721	0.432592	0.323503
	O330	O	-0.447333	1.678898	0.736708
	H331	H	-0.427982	1.686643	0.747834
	H332	H	-0.435234	1.684297	0.749715
	O333	O	0.035139	0.770866	0.820272
	H334	H	0.030790	0.752362	0.800859
	H335	H	0.024900	0.778058	0.844829
	O336	O	0.158150	0.831958	0.197452
	H337	H	0.172988	0.825549	0.206215
	H338	H	0.140483	0.854976	0.186809
	O339	O	-0.193105	1.193916	-0.005658
	H340	H	-0.198753	1.197428	0.014390
	H341	H	-0.188934	1.213730	0.012841
	O342	O	0.213384	0.726297	-0.185633
	H343	H	0.223662	0.715651	-0.150429
	H344	H	0.187363	0.727009	-0.191660
	O345	O	0.714388	0.443973	0.312325
	H346	H	0.729326	0.419685	0.308629
	H347	H	0.725725	0.426036	0.299331
	O348	O	0.537142	0.611453	0.514111
	H349	H	0.536735	0.614970	0.519251
	H350	H	0.546568	0.614784	0.525048
	O351	O	0.131657	0.142475	0.917925
	H352	H	0.148284	0.131592	0.917295
	H353	H	0.131043	0.115819	0.928054
	O354	O	1.231190	0.202350	1.053807
	H355	H	1.265415	0.229874	1.051715
	H356	H	1.227782	0.175476	1.045230
	O357	O	-0.576545	0.454835	-0.475419
	H358	H	-0.573970	0.470697	-0.481948
	H359	H	-0.579866	0.459381	-0.478132
	O360	O	0.234521	-0.243915	0.994850
	H361	H	0.241108	-0.246587	1.010006
	H362	H	0.250286	-0.255250	1.007581
	O363	O	0.412140	0.498719	0.619312
	H364	H	0.429258	0.513264	0.627388
	H365	H	0.418913	0.495362	0.606240
	O366	O	0.995347	0.191807	0.815772
	H367	H	1.013372	0.188399	0.833240
	H368	H	1.006307	0.202756	0.805331
	O369	O	-0.173478	0.174757	0.828803
	H370	H	-0.182968	0.185609	0.882673
	H371	H	-0.119677	0.182282	0.821193
	O372	O	0.229565	0.924976	0.810144
	H373	H	0.246335	0.910830	0.784388
	H374	H	0.228370	0.899880	0.830152
	O375	O	0.358752	0.383202	-0.478466
	H376	H	0.359352	0.391874	-0.480895
	H377	H	0.350423	0.388072	-0.487643
	O378	O	-0.057345	1.016850	0.164089
	H379	H	-0.039942	1.011022	0.184267
	H380	H	-0.066412	1.001001	0.170747
	O381	O	0.318598	1.571855	0.381059
	H382	H	0.318374	1.575042	0.362357
	H383	H	0.320901	1.571290	0.377445
	O384	O	1.315485	1.355861	0.621969
	H385	H	1.300543	1.356583	0.636435
	H386	H	1.318351	1.377268	0.616926
	O387	O	-0.133314	0.842173	1.080286
	H388	H	-0.122647	0.857292	1.098566
	H389	H	-0.158124	0.819373	1.086039
	O390	O	0.206931	0.921884	1.036439
	H391	H	0.203450	0.929098	1.050427
	H392	H	0.199476	0.918008	1.029518
	O393	O	0.463353	0.614978	-0.332260
	H394	H	0.470918	0.627263	-0.340065
	H395	H	0.475973	0.620381	-0.320452
	O396	O	0.521642	0.657068	0.528869
	H397	H	0.526764	0.667230	0.526126
	H398	H	0.517240	0.660919	0.518431
	O399	O	0.531385	0.529220	0.324429
	H400	H	0.543269	0.515795	0.316229
	H401	H	0.529880	0.514959	0.343065
	O402	O	1.558347	0.415307	1.700304
	H403	H	1.556527	0.416371	1.708580
	H404	H	1.548221	0.402850	1.690996
	O405	O	0.447527	0.286608	0.706415
	H406	H	0.421530	0.280587	0.715231
	H407	H	0.431323	0.287114	0.713382
	O408	O	1.154210	-0.080861	0.208868
	H409	H	1.152835	-0.075165	0.205701
	H410	H	1.165271	-0.064318	0.224023
	O411	O	0.708021	1.690599	-0.455336
	H412	H	0.710363	1.684334	-0.435367
	H413	H	0.728537	1.698805	-0.452396
	O414	O	0.220947	0.015572	0.225644
	H415	H	0.229427	0.030270	0.244876
	H416	H	0.225593	0.036400	0.234452
	O417	O	0.649819	0.469165	0.614940
	H418	H	0.644447	0.458868	0.607387
	H419	H	0.646106	0.465704	0.620997
	O420	O	1.695645	-0.353074	0.365089
	H421	H	1.696819	-0.367141	0.378311
	H422	H	1.672748	-0.371815	0.370536
	O423	O	1.073528	0.750329	0.083797
	H424	H	1.071782	0.762556	0.074417
	H425	H	1.083624	0.751883	0.097357
	O426	O	0.680697	0.329768	0.601375
	H427	H	0.672291	0.327018	0.601276
	H428	H	0.685164	0.328911	0.617225
	O429	O	0.718644	0.274347	0.318078
	H430	H	0.744061	0.252859	0.323079
	H431	H	0.734284	0.262073	0.339246
	O432	O	1.313104	0.485900	1.718255
	H433	H	1.313820	0.505704	1.730313
	H434	H	1.312242	0.500938	1.717804
	O435	O	-0.164278	0.170250	0.206777
	H436	H	-0.149108	0.145908	0.197458
	H437	H	-0.142500	0.161463	0.185352
	O438	O	0.493576	0.685963	0.331918
	H439	H	0.495708	0.689637	0.324087
	H440	H	0.495952	0.664132	0.332770
	O441	O	0.789877	0.748133	0.253340
	H442	H	0.811806	0.746926	0.248366
	H443	H	0.769613	0.726599	0.280837
	O444	O	0.712478	0.366078	0.462387
	H445	H	0.714980	0.355612	0.469519
	H446	H	0.709115	0.357226	0.481814
	O447	O	0.336795	0.304007	0.342564
	H448	H	0.351564	0.304427	0.375212
	H449	H	0.363061	0.329495	0.343818
	O450	O	0.795382	0.012420	-0.200174
	H451	H	0.792288	0.046354	-0.203879
	H452	H	0.772357	0.032321	-0.218990
	O453	O	0.721131	0.507696	0.729057
	H454	H	0.735570	0.494731	0.748283
	H455	H	0.709595	0.503392	0.723316
	O456	O	-0.179594	1.016698	1.024148
	H457	H	-0.182911	1.023772	1.014583
	H458	H	-0.180489	1.009382	1.032243
	O459	O	0.724207	0.693512	0.733181
	H460	H	0.720594	0.659628	0.735940
	H461	H	0.751358	0.715157	0.753255
	O462	O	0.534660	0.391719	0.582956
	H463	H	0.524554	0.375615	0.592162
	H464	H	0.529976	0.386547	0.574616
	O465	O	0.424461	0.272427	0.548471
	H466	H	0.421835	0.268732	0.560390
	H467	H	0.415208	0.275808	0.559047
	O468	O	0.810920	1.893887	-0.020078
	H469	H	0.796890	1.910241	-0.018790
	H470	H	0.810337	1.894594	-0.010795
	O471	O	0.517148	0.386016	0.472266
	H472	H	0.504292	0.394228	0.481138
	H473	H	0.520697	0.379532	0.474853
	O474	O	0.979423	1.176599	0.038753
	H475	H	0.989442	1.175929	0.055202
	H476	H	1.002528	1.171688	0.036477
	O477	O	0.039104	0.199254	1.214820
	H478	H	0.054252	0.206476	1.224543
	H479	H	0.047839	0.202333	1.228230
