data_Molecule from HDF5

_cell_length_a		16.274186
_cell_length_b		16.313457
_cell_length_c		16.130689
_cell_angle_alpha	90.612791
_cell_angle_beta	89.475703
_cell_angle_gamma	89.848644
_symmetry_space_group_name_H-M	'P 1'
_symmetry_Int_Tables_number		1

loop_
	_symmetry_equiv_pos_as_xyz
	x,y,z

loop_
	_atom_site_label
	_atom_site_type_symbol
	_atom_site_fract_x
	_atom_site_fract_y
	_atom_site_fract_z
	H0	H	0.409451	0.844417	0.713559
	H1	H	0.603264	0.172755	0.718097
	H2	H	0.606895	0.846323	0.283805
	H3	H	0.409510	0.173074	0.291379
	H4	H	0.720692	0.405668	0.838433
	H5	H	0.715407	0.606946	0.167795
	H6	H	0.291209	0.605921	0.836425
	H7	H	0.288151	0.410923	0.166255
	H8	H	0.841208	0.727932	0.404155
	H9	H	0.166434	0.728471	0.604131
	H10	H	0.841050	0.296224	0.603287
	H11	H	0.166447	0.292950	0.397926
	H12	H	0.839264	0.415760	0.714731
	H13	H	0.167075	0.610140	0.716832
	H14	H	0.837894	0.606883	0.291465
	H15	H	0.166625	0.409730	0.284715
	H16	H	0.406471	0.720131	0.836341
	H17	H	0.602430	0.726436	0.165474
	H18	H	0.606159	0.291562	0.838467
	H19	H	0.403997	0.297085	0.167491
	H20	H	0.724218	0.846633	0.399399
	H21	H	0.717402	0.173951	0.601407
	H22	H	0.287683	0.847678	0.603812
	H23	H	0.291773	0.172387	0.405147
	H24	H	0.905438	0.344840	0.215553
	H25	H	0.101181	0.672159	0.218503
	H26	H	0.103324	0.346282	0.782240
	H27	H	0.905703	0.673583	0.794046
	H28	H	0.222200	0.909074	0.337526
	H29	H	0.217473	0.111211	0.668218
	H30	H	0.791347	0.109271	0.337784
	H31	H	0.791045	0.915129	0.666037
	H32	H	0.341652	0.224494	0.903908
	H33	H	0.668074	0.225748	0.101903
	H34	H	0.341104	0.793908	0.103672
	H35	H	0.667386	0.789593	0.897231
	H36	H	0.342172	0.910749	0.219161
	H37	H	0.670023	0.107674	0.214030
	H38	H	0.340524	0.103524	0.792355
	H39	H	0.670018	0.909640	0.787354
	H40	H	0.908383	0.221647	0.336662
	H41	H	0.100995	0.227003	0.667524
	H42	H	0.108085	0.792304	0.338811
	H43	H	0.901850	0.799808	0.666586
	H44	H	0.222080	0.345649	0.897040
	H45	H	0.219364	0.671949	0.103985
	H46	H	0.788305	0.344849	0.102886
	H47	H	0.786890	0.669566	0.905280
	H48	H	0.414097	0.124930	0.597280
	H49	H	0.596515	0.894155	0.593748
	H50	H	0.600387	0.125183	0.410685
	H51	H	0.417375	0.891345	0.401389
	H52	H	0.588417	0.411466	0.120413
	H53	H	0.608777	0.599806	0.880926
	H54	H	0.414404	0.590271	0.113485
	H55	H	0.419995	0.415035	0.886590
	H56	H	0.118232	0.604755	0.414839
	H57	H	0.890158	0.599686	0.593422
	H58	H	0.120027	0.424813	0.596343
	H59	H	0.885780	0.415865	0.410184
	H60	H	0.123858	0.411354	0.593968
	H61	H	0.883923	0.607649	0.607244
	H62	H	0.116859	0.596311	0.412889
	H63	H	0.885562	0.413789	0.407883
	H64	H	0.420243	0.612417	0.118754
	H65	H	0.594873	0.587906	0.888521
	H66	H	0.604906	0.413839	0.124410
	H67	H	0.412832	0.409818	0.882141
	H68	H	0.601331	0.126531	0.408824
	H69	H	0.602715	0.892016	0.588756
	H70	H	0.409222	0.125796	0.595843
	H71	H	0.420610	0.896606	0.416385
	H72	H	0.913944	0.626299	0.105281
	H73	H	0.098130	0.389127	0.103099
	H74	H	0.106126	0.625574	0.914210
	H75	H	0.912445	0.390922	0.903466
	H76	H	0.099959	0.920382	0.620815
	H77	H	0.107039	0.101668	0.383336
	H78	H	0.907997	0.104645	0.620764
	H79	H	0.909110	0.914605	0.381064
	H80	H	0.622654	0.108208	0.912414
	H81	H	0.389883	0.097797	0.097713
	H82	H	0.619310	0.916862	0.086973
	H83	H	0.388329	0.912417	0.911996
	H84	H	0.621369	0.918769	0.092714
	H85	H	0.386515	0.106042	0.100773
	H86	H	0.619179	0.095907	0.912626
	H87	H	0.387866	0.916623	0.907618
	H88	H	0.913995	0.103333	0.618885
	H89	H	0.097385	0.095609	0.387513
	H90	H	0.093919	0.923557	0.617027
	H91	H	0.916321	0.926713	0.386220
	H92	H	0.095864	0.627018	0.902750
	H93	H	0.086358	0.397546	0.087767
	H94	H	0.915043	0.620837	0.089382
	H95	H	0.913409	0.392086	0.908516
	H96	H	0.411070	0.126804	0.601240
	H97	H	0.603651	0.891009	0.596892
	H98	H	0.599116	0.126644	0.408778
	H99	H	0.405640	0.891326	0.412441
	H100	H	0.595759	0.426377	0.117142
	H101	H	0.590243	0.606759	0.883692
	H102	H	0.398543	0.604514	0.123583
	H103	H	0.411000	0.419067	0.884850
	H104	H	0.120418	0.601083	0.406155
	H105	H	0.885333	0.615714	0.592573
	H106	H	0.117357	0.418946	0.583357
	H107	H	0.885970	0.413450	0.410374
	H108	H	0.899683	0.626844	0.095400
	H109	H	0.106656	0.392236	0.084832
	H110	H	0.090966	0.621433	0.916306
	H111	H	0.909000	0.390142	0.908076
	H112	H	0.093492	0.916676	0.620178
	H113	H	0.096405	0.107600	0.384535
	H114	H	0.912172	0.108371	0.621494
	H115	H	0.923848	0.913498	0.385140
	H116	H	0.624312	0.101321	0.901858
	H117	H	0.390050	0.104915	0.091532
	H118	H	0.622164	0.912245	0.090435
	H119	H	0.387258	0.910368	0.906543
	C120	C	0.383069	0.017797	0.625491
	C121	C	0.627884	1.001048	0.623233
	C122	C	0.629949	0.018344	0.378751
	C123	C	0.385918	1.000856	0.382111
	C124	C	0.626380	0.386563	0.011684
	C125	C	0.625565	0.628588	0.993276
	C126	C	0.382790	0.629757	0.009842
	C127	C	0.384022	0.387176	0.993299
	C128	C	0.011350	0.630800	0.381901
	C129	C	0.994747	0.635038	0.625696
	C130	C	0.012338	0.390536	0.621520
	C131	C	0.994196	0.386340	0.379323
	C132	C	0.881250	0.516645	0.124504
	C133	C	0.125754	0.500656	0.123265
	C134	C	0.126960	0.517371	0.879279
	C135	C	0.882785	0.499582	0.880720
	C136	C	0.126891	0.888877	0.511212
	C137	C	0.127557	0.132319	0.494017
	C138	C	0.883787	0.132651	0.511071
	C139	C	0.885554	0.890863	0.493089
	C140	C	0.513589	0.129967	0.881291
	C141	C	0.496981	0.131704	0.124569
	C142	C	0.513010	0.887251	0.121664
	C143	C	0.496480	0.885022	0.878828
	C144	C	0.387524	0.894019	0.677673
	C145	C	0.623579	0.124073	0.679448
	C146	C	0.627862	0.895388	0.322004
	C147	C	0.388770	0.124097	0.328341
	C148	C	0.682817	0.386284	0.887663
	C149	C	0.678786	0.627230	0.117938
	C150	C	0.328608	0.626481	0.885690
	C151	C	0.326166	0.390173	0.117026
	C152	C	0.889018	0.688187	0.384024
	C153	C	0.117815	0.689999	0.623602
	C154	C	0.889539	0.335051	0.621828
	C155	C	0.117541	0.330755	0.378876
	C156	C	0.888750	0.394134	0.677546
	C157	C	0.118177	0.630893	0.679405
	C158	C	0.887539	0.627793	0.328231
	C159	C	0.117648	0.389194	0.322877
	C160	C	0.385881	0.683302	0.885634
	C161	C	0.622687	0.686653	0.116818
	C162	C	0.625646	0.329628	0.887840
	C163	C	0.384139	0.334032	0.118052
	C164	C	0.686142	0.895565	0.379630
	C165	C	0.680403	0.124814	0.621155
	C166	C	0.326559	0.895701	0.623405
	C167	C	0.329810	0.123559	0.384668
	C168	C	0.884456	0.393646	0.178644
	C169	C	0.122444	0.623174	0.180444
	C170	C	0.124574	0.394925	0.820872
	C171	C	0.885308	0.623852	0.829591
	C172	C	0.184245	0.889136	0.387265
	C173	C	0.180576	0.131500	0.618565
	C174	C	0.829297	0.129193	0.386902
	C175	C	0.829036	0.894746	0.617116
	C176	C	0.390444	0.185333	0.884395
	C177	C	0.619474	0.187662	0.122252
	C178	C	0.390288	0.831972	0.122351
	C179	C	0.619007	0.828705	0.878708
	C180	C	0.390838	0.889742	0.180265
	C181	C	0.620485	0.128680	0.177858
	C182	C	0.389831	0.125186	0.828832
	C183	C	0.620316	0.888202	0.823814
	C184	C	0.887199	0.185406	0.386462
	C185	C	0.122870	0.189234	0.618078
	C186	C	0.127392	0.830933	0.387707
	C187	C	0.884277	0.837063	0.617037
	C188	C	0.183492	0.394688	0.877968
	C189	C	0.181425	0.622977	0.123332
	C190	C	0.826242	0.393739	0.122464
	C191	C	0.826080	0.621738	0.884937
	C192	C	0.405066	0.103673	0.604182
	C193	C	0.607110	0.914851	0.599936
	C194	C	0.607034	0.104028	0.402529
	C195	C	0.408002	0.915377	0.403742
	C196	C	0.603204	0.410427	0.098280
	C197	C	0.604110	0.605182	0.906713
	C198	C	0.404654	0.608804	0.096282
	C199	C	0.407691	0.408339	0.907056
	C200	C	0.096490	0.607475	0.404675
	C201	C	0.908740	0.614039	0.604247
	C202	C	0.098273	0.412267	0.598220
	C203	C	0.908156	0.408119	0.402616
	C204	C	0.903015	0.602306	0.102994
	C205	C	0.103679	0.414997	0.098961
	C206	C	0.104238	0.602588	0.903777
	C207	C	0.905296	0.413414	0.900648
	C208	C	0.102766	0.913128	0.597086
	C209	C	0.106622	0.108476	0.407532
	C210	C	0.905105	0.111627	0.597867
	C211	C	0.909483	0.912072	0.406559
	C212	C	0.599774	0.108245	0.902636
	C213	C	0.411101	0.109377	0.102941
	C214	C	0.598848	0.909565	0.097164
	C215	C	0.410275	0.906868	0.902041
	Zn216	Zn	0.506028	0.007792	0.752583
	Zn217	Zn	0.506463	0.009112	0.251315
	Zn218	Zn	0.754340	0.506901	0.002339
	Zn219	Zn	0.255483	0.508650	0.001312
	Zn220	Zn	0.004112	0.762018	0.502772
	Zn221	Zn	0.004335	0.260118	0.501749
	Zn222	Zn	0.003451	0.510978	0.751390
	Zn223	Zn	0.002587	0.508687	0.252482
	Zn224	Zn	0.504048	0.757435	0.000386
	Zn225	Zn	0.504755	0.259627	0.003293
	Zn226	Zn	0.757452	0.010452	0.501971
	Zn227	Zn	0.255252	0.009744	0.503169
	N228	N	0.421572	0.971066	0.679517
	N229	N	0.591773	0.045977	0.680986
	N230	N	0.593916	0.972601	0.321262
	N231	N	0.422845	0.046834	0.326332
	N232	N	0.683338	0.420948	0.965699
	N233	N	0.680626	0.591972	0.040034
	N234	N	0.326667	0.593952	0.963811
	N235	N	0.326032	0.422590	0.038625
	N236	N	0.966710	0.690040	0.416660
	N237	N	0.040092	0.692720	0.590928
	N238	N	0.967338	0.332756	0.587590
	N239	N	0.039846	0.328728	0.413208
	N240	N	0.965939	0.428273	0.677232
	N241	N	0.040671	0.597693	0.681085
	N242	N	0.964677	0.592910	0.326882
	N243	N	0.040077	0.422841	0.322855
	N244	N	0.419029	0.685394	0.963910
	N245	N	0.590590	0.687823	0.038243
	N246	N	0.591108	0.329834	0.966118
	N247	N	0.419410	0.331896	0.040161
	N248	N	0.687567	0.973262	0.414291
	N249	N	0.683311	0.047225	0.586922
	N250	N	0.323878	0.973629	0.591594
	N251	N	0.327916	0.045956	0.417292
	N252	N	0.918129	0.470994	0.180152
	N253	N	0.088877	0.545912	0.180670
	N254	N	0.090173	0.472176	0.821333
	N255	N	0.920011	0.546765	0.826911
	N256	N	0.184048	0.924427	0.465153
	N257	N	0.183673	0.096928	0.540496
	N258	N	0.826978	0.097155	0.465571
	N259	N	0.829511	0.927415	0.538980
	N260	N	0.468602	0.188539	0.916154
	N261	N	0.541712	0.189445	0.089779
	N262	N	0.467503	0.830240	0.086917
	N263	N	0.541077	0.826577	0.912181
	N264	N	0.468364	0.923417	0.179832
	N265	N	0.543292	0.094556	0.179576
	N266	N	0.467355	0.091457	0.826878
	N267	N	0.542985	0.922663	0.823777
	N268	N	0.920442	0.187556	0.464429
	N269	N	0.090761	0.189953	0.539359
	N270	N	0.092490	0.830616	0.465630
	N271	N	0.918745	0.834478	0.538810
	N272	N	0.185061	0.471667	0.913366
	N273	N	0.183495	0.545652	0.088452
	N274	N	0.824218	0.471198	0.089447
	N275	N	0.824444	0.543559	0.915887
	O276	O	0.398452	0.583418	0.425606
	H277	H	0.400224	0.569213	0.427914
	H278	H	0.388348	0.581391	0.420313
	O279	O	0.482342	0.532661	0.629056
	H280	H	0.485141	0.533359	0.622583
	H281	H	0.503516	0.534944	0.625528
	O282	O	1.082722	0.923203	-0.000178
	H283	H	1.081257	0.933217	-0.007185
	H284	H	1.085874	0.912743	-0.000266
	O285	O	1.010768	0.074916	1.048008
	H286	H	1.004268	0.070340	1.059525
	H287	H	1.005942	0.076925	1.044529
	O288	O	0.530462	0.507389	0.545616
	H289	H	0.524310	0.504864	0.545844
	H290	H	0.528538	0.497808	0.546665
	O291	O	0.491672	0.472230	0.377865
	H292	H	0.491856	0.478643	0.376042
	H293	H	0.490061	0.462518	0.382686
	O294	O	0.451876	0.438514	0.623772
	H295	H	0.458059	0.437886	0.611645
	H296	H	0.441001	0.438573	0.640482
	O297	O	-0.594554	-0.533231	1.475553
	H298	H	-0.586365	-0.529680	1.477317
	H299	H	-0.593953	-0.544969	1.476911
	O300	O	0.030303	-0.003976	0.013094
	H301	H	0.025606	-0.003366	0.016571
	H302	H	0.028851	0.012609	0.004214
	O303	O	0.990028	0.917664	0.021907
	H304	H	0.979212	0.917572	0.019965
	H305	H	0.990881	0.929415	0.020532
	O306	O	-0.055585	0.904474	1.011655
	H307	H	-0.059479	0.906368	1.010817
	H308	H	-0.052594	0.900430	1.002908
	O309	O	0.492216	0.629790	0.488339
	H310	H	0.483850	0.630797	0.488674
	H311	H	0.493564	0.632923	0.495824
	O312	O	0.110456	0.036789	0.109551
	H313	H	0.114175	0.036665	0.120314
	H314	H	0.107082	0.033028	0.113796
	O315	O	1.040660	0.112882	0.011402
	H316	H	1.039177	0.114511	0.025198
	H317	H	1.034423	0.106334	0.013725
	O318	O	0.862389	0.969916	1.095606
	H319	H	0.861256	0.963789	1.101683
	H320	H	0.863927	0.958955	1.094384
	O321	O	0.038606	-0.993288	1.060157
	H322	H	0.041487	-0.985575	1.057271
	H323	H	0.037371	-1.007263	1.062150
	O324	O	0.549884	0.498488	0.479113
	H325	H	0.538675	0.500699	0.484598
	H326	H	0.552378	0.492422	0.477168
	O327	O	-0.004979	-0.096105	-0.022906
	H328	H	-0.002103	-0.103262	-0.022433
	H329	H	-0.009710	-0.098415	-0.029635
	O330	O	0.519861	0.602365	0.410383
	H331	H	0.511977	0.608970	0.400826
	H332	H	0.508935	0.593757	0.409448
	O333	O	0.049554	1.013256	0.934991
	H334	H	0.037952	1.015994	0.936368
	H335	H	0.057824	1.005891	0.933742
	O336	O	0.169766	-0.003730	0.002862
	H337	H	0.164971	0.007362	0.009591
	H338	H	0.174758	-0.003500	0.001664
	O339	O	0.524367	0.409073	0.525872
	H340	H	0.536305	0.404842	0.510142
	H341	H	0.524470	0.416304	0.527294
	O342	O	0.885907	1.055954	1.012944
	H343	H	0.881096	1.044287	1.011130
	H344	H	0.890428	1.056784	1.008098
	O345	O	0.973059	1.100534	-0.017450
	H346	H	0.980394	1.086412	-0.021960
	H347	H	0.971776	1.097285	0.000109
	O348	O	0.468013	0.605903	0.526264
	H349	H	0.464673	0.619947	0.518704
	H350	H	0.469907	0.596185	0.521232
	O351	O	0.452824	0.500540	0.462549
	H352	H	0.459027	0.493021	0.461668
	H353	H	0.444960	0.497396	0.473299
	O354	O	0.992788	0.049742	1.031306
	H355	H	0.987053	0.050833	1.036376
	H356	H	0.992256	0.048099	1.033308
	O357	O	0.975030	0.093663	1.012108
	H358	H	0.976452	0.103304	1.015733
	H359	H	0.978225	0.088719	1.012292
	O360	O	1.092191	1.049826	0.017795
	H361	H	1.090199	1.044911	0.019776
	H362	H	1.086881	1.043918	0.030258
	O363	O	0.515189	0.600975	0.470706
	H364	H	0.511576	0.602184	0.468209
	H365	H	0.506323	0.603414	0.456884
	O366	O	0.436429	1.510854	0.545797
	H367	H	0.424619	1.511842	0.550974
	H368	H	0.434096	1.509773	0.552054
	O369	O	1.043294	-0.122453	0.872698
	H370	H	1.067481	-0.123068	0.872040
	H371	H	1.047773	-0.130273	0.860370
	O372	O	0.011441	-0.110017	-0.082284
	H373	H	0.015108	-0.106403	-0.086685
	H374	H	0.022966	-0.108170	-0.093716
	O375	O	0.942327	-0.008340	-0.020799
	H376	H	0.939027	0.004210	-0.026537
	H377	H	0.938192	-0.009971	-0.022963
	O378	O	0.449093	0.450430	0.569465
	H379	H	0.444931	0.450276	0.573310
	H380	H	0.448199	0.460561	0.564924
	O381	O	0.456388	0.436174	0.430153
	H382	H	0.465799	0.436062	0.424869
	H383	H	0.449634	0.431944	0.440508
