data_Molecule from HDF5

_cell_length_a		16.633431
_cell_length_b		16.689200
_cell_length_c		16.604345
_cell_angle_alpha	89.845495
_cell_angle_beta	90.165931
_cell_angle_gamma	89.752481
_symmetry_space_group_name_H-M	'P 1'
_symmetry_Int_Tables_number		1

loop_
	_symmetry_equiv_pos_as_xyz
	x,y,z

loop_
	_atom_site_label
	_atom_site_type_symbol
	_atom_site_fract_x
	_atom_site_fract_y
	_atom_site_fract_z
	H0	H	0.399889	0.846019	0.728555
	H1	H	0.610720	0.155048	0.723774
	H2	H	0.606303	0.840286	0.288855
	H3	H	0.401693	0.153417	0.281524
	H4	H	0.731139	0.391490	0.850229
	H5	H	0.728272	0.604645	0.158848
	H6	H	0.286160	0.602434	0.846726
	H7	H	0.284548	0.391379	0.157424
	H8	H	0.854996	0.724190	0.393420
	H9	H	0.158659	0.723951	0.615757
	H10	H	0.848950	0.280006	0.606726
	H11	H	0.160732	0.274327	0.397041
	H12	H	0.849457	0.394696	0.723556
	H13	H	0.159721	0.605254	0.728556
	H14	H	0.854935	0.607421	0.278897
	H15	H	0.162288	0.392279	0.282903
	H16	H	0.399879	0.720855	0.847841
	H17	H	0.610423	0.719309	0.158788
	H18	H	0.616967	0.274021	0.850594
	H19	H	0.400411	0.275167	0.157966
	H20	H	0.725116	0.841778	0.402710
	H21	H	0.725647	0.155608	0.605986
	H22	H	0.281917	0.846456	0.613949
	H23	H	0.286487	0.154706	0.398910
	H24	H	0.899113	0.347558	0.230239
	H25	H	0.117440	0.650082	0.229280
	H26	H	0.113093	0.343346	0.781342
	H27	H	0.895800	0.650211	0.777685
	H28	H	0.230211	0.891808	0.348745
	H29	H	0.231607	0.107551	0.656470
	H30	H	0.788092	0.101219	0.346567
	H31	H	0.785865	0.893183	0.659148
	H32	H	0.355179	0.226956	0.891902
	H33	H	0.662305	0.217613	0.108601
	H34	H	0.350351	0.777967	0.108067
	H35	H	0.660402	0.775453	0.897771
	H36	H	0.350041	0.893848	0.224378
	H37	H	0.663197	0.100291	0.223086
	H38	H	0.355176	0.112254	0.775742
	H39	H	0.662849	0.894536	0.784543
	H40	H	0.901221	0.219443	0.347656
	H41	H	0.113709	0.221907	0.658701
	H42	H	0.115824	0.774480	0.350759
	H43	H	0.899700	0.775255	0.657874
	H44	H	0.229946	0.343960	0.896798
	H45	H	0.232407	0.650816	0.112407
	H46	H	0.777986	0.350503	0.119672
	H47	H	0.782632	0.651845	0.896292
	H48	H	0.415539	0.109654	0.585892
	H49	H	0.593084	0.889112	0.594410
	H50	H	0.600809	0.112336	0.408004
	H51	H	0.420766	0.888233	0.414116
	H52	H	0.589399	0.409813	0.113025
	H53	H	0.592904	0.589216	0.891258
	H54	H	0.420120	0.587780	0.114103
	H55	H	0.421034	0.411839	0.892773
	H56	H	0.120682	0.593596	0.417980
	H57	H	0.894911	0.586028	0.593488
	H58	H	0.117403	0.408665	0.593360
	H59	H	0.898618	0.416083	0.418062
	H60	H	0.116623	0.408234	0.591439
	H61	H	0.895712	0.591422	0.587283
	H62	H	0.113874	0.583015	0.426783
	H63	H	0.893734	0.411437	0.408618
	H64	H	0.417628	0.588686	0.115308
	H65	H	0.597036	0.587862	0.890815
	H66	H	0.595643	0.407012	0.115770
	H67	H	0.419812	0.411360	0.892308
	H68	H	0.592383	0.110221	0.410200
	H69	H	0.597805	0.888577	0.590753
	H70	H	0.421143	0.109527	0.593910
	H71	H	0.415946	0.887823	0.418167
	H72	H	0.922510	0.610118	0.094003
	H73	H	0.096335	0.385371	0.098398
	H74	H	0.099007	0.609732	0.915369
	H75	H	0.921487	0.389026	0.917788
	H76	H	0.095223	0.911045	0.614567
	H77	H	0.092334	0.086606	0.393395
	H78	H	0.917933	0.087840	0.614829
	H79	H	0.915237	0.911210	0.391820
	H80	H	0.616131	0.082238	0.916867
	H81	H	0.396929	0.084650	0.090030
	H82	H	0.617070	0.909148	0.092484
	H83	H	0.395399	0.909424	0.918918
	H84	H	0.618966	0.907191	0.097003
	H85	H	0.394234	0.087149	0.093538
	H86	H	0.618451	0.086729	0.915228
	H87	H	0.395781	0.915989	0.913155
	H88	H	0.916408	0.093745	0.617788
	H89	H	0.092967	0.089317	0.392395
	H90	H	0.094020	0.917846	0.611763
	H91	H	0.918973	0.912271	0.392795
	H92	H	0.091324	0.608678	0.911086
	H93	H	0.088947	0.391514	0.088786
	H94	H	0.922454	0.606821	0.086115
	H95	H	0.917499	0.387564	0.918294
	H96	H	0.424258	0.104913	0.585826
	H97	H	0.598020	0.887361	0.596483
	H98	H	0.598897	0.110891	0.416440
	H99	H	0.415146	0.885965	0.412277
	H100	H	0.595427	0.414308	0.112924
	H101	H	0.593655	0.585598	0.892920
	H102	H	0.417524	0.586258	0.115001
	H103	H	0.419546	0.412691	0.892957
	H104	H	0.118405	0.579187	0.412123
	H105	H	0.898884	0.583651	0.586465
	H106	H	0.116097	0.410282	0.592076
	H107	H	0.895180	0.404575	0.418459
	H108	H	0.915917	0.610048	0.089891
	H109	H	0.102220	0.388420	0.086544
	H110	H	0.092402	0.605910	0.919778
	H111	H	0.919068	0.387625	0.914382
	H112	H	0.088503	0.912615	0.611440
	H113	H	0.095033	0.087129	0.392249
	H114	H	0.911928	0.089291	0.617302
	H115	H	0.918186	0.908233	0.391919
	H116	H	0.616409	0.086385	0.920059
	H117	H	0.394965	0.089299	0.089124
	H118	H	0.618264	0.904063	0.092500
	H119	H	0.393369	0.908282	0.910472
	C120	C	0.386022	0.007317	0.624061
	C121	C	0.628386	0.991185	0.625227
	C122	C	0.627310	0.006929	0.382370
	C123	C	0.384949	0.990063	0.382079
	C124	C	0.628398	0.376973	0.012554
	C125	C	0.626828	0.619750	0.994841
	C126	C	0.385032	0.620019	0.011807
	C127	C	0.386527	0.377805	0.994640
	C128	C	0.016580	0.620028	0.383288
	C129	C	0.997763	0.620150	0.624768
	C130	C	0.013450	0.377385	0.624137
	C131	C	0.998163	0.377652	0.382473
	C132	C	0.885945	0.508479	0.125581
	C133	C	0.129852	0.489584	0.125081
	C134	C	0.127626	0.506485	0.881892
	C135	C	0.885137	0.489642	0.882592
	C136	C	0.127444	0.878915	0.511541
	C137	C	0.126877	0.120638	0.495251
	C138	C	0.884323	0.120864	0.512637
	C139	C	0.885831	0.878125	0.495362
	C140	C	0.515932	0.120742	0.881950
	C141	C	0.498224	0.118624	0.123685
	C142	C	0.514172	0.876469	0.125064
	C143	C	0.497681	0.878394	0.882262
	C144	C	0.381980	0.892286	0.687477
	C145	C	0.629604	0.108501	0.684034
	C146	C	0.626633	0.888007	0.326537
	C147	C	0.383313	0.107103	0.322063
	C148	C	0.690847	0.373297	0.896802
	C149	C	0.687555	0.622389	0.111860
	C150	C	0.325488	0.621659	0.893857
	C151	C	0.325074	0.373747	0.111206
	C152	C	0.901204	0.682889	0.377293
	C153	C	0.112923	0.682288	0.631370
	C154	C	0.896013	0.318968	0.625579
	C155	C	0.114353	0.315424	0.379421
	C156	C	0.896200	0.376202	0.683573
	C157	C	0.113318	0.623288	0.687679
	C158	C	0.901100	0.624910	0.320086
	C159	C	0.115261	0.373987	0.322594
	C160	C	0.382029	0.680131	0.894233
	C161	C	0.628987	0.679371	0.112183
	C162	C	0.633883	0.315040	0.896887
	C163	C	0.382592	0.315794	0.111068
	C164	C	0.685488	0.888782	0.383371
	C165	C	0.686642	0.108503	0.625612
	C166	C	0.323265	0.892647	0.630459
	C167	C	0.326110	0.107655	0.380369
	C168	C	0.881276	0.393865	0.189385
	C169	C	0.134555	0.604618	0.187516
	C170	C	0.131219	0.390108	0.821231
	C171	C	0.879724	0.604722	0.819819
	C172	C	0.189717	0.874154	0.395522
	C173	C	0.189702	0.124513	0.610879
	C174	C	0.826496	0.121009	0.393993
	C175	C	0.825721	0.875279	0.612167
	C176	C	0.401273	0.185304	0.875229
	C177	C	0.615598	0.177569	0.126443
	C178	C	0.396858	0.817695	0.126616
	C179	C	0.614154	0.816840	0.879907
	C180	C	0.396946	0.875169	0.184403
	C181	C	0.615773	0.119298	0.183643
	C182	C	0.400996	0.127941	0.817730
	C183	C	0.615352	0.875806	0.823431
	C184	C	0.882883	0.179523	0.394518
	C185	C	0.131305	0.181491	0.611734
	C186	C	0.132907	0.815890	0.396476
	C187	C	0.882567	0.816591	0.611643
	C188	C	0.189391	0.390340	0.878843
	C189	C	0.191742	0.604808	0.129539
	C190	C	0.821215	0.395290	0.133965
	C191	C	0.823077	0.605277	0.878449
	C192	C	0.412757	0.087300	0.596284
	C193	C	0.603475	0.909618	0.601045
	C194	C	0.603991	0.089480	0.404951
	C195	C	0.409883	0.908578	0.407534
	C196	C	0.601323	0.403125	0.093130
	C197	C	0.601605	0.594792	0.912943
	C198	C	0.410935	0.594956	0.093569
	C199	C	0.412667	0.404390	0.913731
	C200	C	0.096866	0.592690	0.411120
	C201	C	0.917419	0.594330	0.597031
	C202	C	0.095351	0.401969	0.599391
	C203	C	0.917055	0.403578	0.407612
	C204	C	0.912827	0.588260	0.097862
	C205	C	0.103339	0.409263	0.098714
	C206	C	0.101517	0.587253	0.907792
	C207	C	0.911935	0.409002	0.909220
	C208	C	0.100372	0.906086	0.591662
	C209	C	0.100687	0.095026	0.413756
	C210	C	0.908483	0.097230	0.595027
	C211	C	0.910730	0.903360	0.413630
	C212	C	0.596104	0.092817	0.909504
	C213	C	0.416603	0.094260	0.098107
	C214	C	0.596629	0.900157	0.100898
	C215	C	0.416097	0.904028	0.906936
	Zn216	Zn	0.506949	-0.000034	0.753598
	Zn217	Zn	0.506218	-0.002303	0.253115
	Zn218	Zn	0.756331	0.498892	0.004069
	Zn219	Zn	0.257184	0.498596	0.002819
	Zn220	Zn	0.007699	0.749366	0.503812
	Zn221	Zn	0.005245	0.248554	0.503734
	Zn222	Zn	0.005347	0.497854	0.752924
	Zn223	Zn	0.008164	0.499536	0.253458
	Zn224	Zn	0.505354	0.748611	0.003062
	Zn225	Zn	0.507568	0.248869	0.003014
	Zn226	Zn	0.756512	-0.000854	0.503321
	Zn227	Zn	0.255880	-0.000592	0.503273
	N228	N	0.420404	0.964907	0.683719
	N229	N	0.594214	0.034235	0.684109
	N230	N	0.591377	0.962507	0.325443
	N231	N	0.419094	0.032845	0.322768
	N232	N	0.687874	0.410937	0.970021
	N233	N	0.686533	0.586247	0.037778
	N234	N	0.327101	0.585165	0.968097
	N235	N	0.327065	0.411529	0.037687
	N236	N	0.974202	0.680133	0.415780
	N237	N	0.039948	0.680517	0.592801
	N238	N	0.970198	0.319437	0.589480
	N239	N	0.040587	0.317545	0.416124
	N240	N	0.970483	0.411775	0.682874
	N241	N	0.040492	0.585405	0.683862
	N242	N	0.974018	0.586348	0.323551
	N243	N	0.041925	0.411904	0.324027
	N244	N	0.418067	0.679568	0.968714
	N245	N	0.591979	0.678045	0.038145
	N246	N	0.595830	0.317156	0.970018
	N247	N	0.419960	0.318021	0.037437
	N248	N	0.686308	0.963860	0.417068
	N249	N	0.686387	0.034467	0.590207
	N250	N	0.325570	0.965254	0.591771
	N251	N	0.326797	0.033779	0.416700
	N252	N	0.921056	0.465359	0.184265
	N253	N	0.096794	0.531897	0.185021
	N254	N	0.093599	0.463563	0.822690
	N255	N	0.917494	0.531695	0.822240
	N256	N	0.186637	0.912721	0.468264
	N257	N	0.187112	0.087364	0.537325
	N258	N	0.826831	0.085267	0.468522
	N259	N	0.827631	0.912945	0.538718
	N260	N	0.473830	0.180958	0.914583
	N261	N	0.541413	0.177569	0.090060
	N262	N	0.471001	0.818153	0.090500
	N263	N	0.539927	0.818219	0.915825
	N264	N	0.471102	0.910869	0.183777
	N265	N	0.541529	0.083423	0.182393
	N266	N	0.473256	0.088191	0.821909
	N267	N	0.541781	0.913444	0.824629
	N268	N	0.917894	0.179761	0.469333
	N269	N	0.092878	0.179157	0.538505
	N270	N	0.094982	0.818625	0.469637
	N271	N	0.919175	0.818016	0.537695
	N272	N	0.187230	0.463691	0.916041
	N273	N	0.188986	0.532188	0.091283
	N274	N	0.823984	0.467568	0.094768
	N275	N	0.826149	0.532514	0.916966
	O276	O	-0.195483	1.206714	-0.203529
	H277	H	-0.213385	1.183053	-0.210738
	H278	H	-0.182932	1.202028	-0.211616
	O279	O	-0.061693	0.050072	0.065150
	H280	H	-0.051321	0.033137	0.042241
	H281	H	-0.048000	0.056461	0.062592
	O282	O	0.783790	-0.038300	1.225852
	H283	H	0.779471	-0.058732	1.232619
	H284	H	0.772179	-0.046738	1.247785
	O285	O	0.546413	0.413124	0.467119
	H286	H	0.556839	0.415904	0.465315
	H287	H	0.538790	0.410498	0.461556
	O288	O	0.305782	0.629006	0.643603
	H289	H	0.290424	0.644247	0.645475
	H290	H	0.304648	0.618420	0.628757
	O291	O	0.542407	0.278622	0.281056
	H292	H	0.542074	0.258069	0.252436
	H293	H	0.564425	0.284080	0.292873
	O294	O	0.785017	-0.152457	0.992050
	H295	H	0.792392	-0.154015	0.990204
	H296	H	0.770897	-0.147970	1.003810
	O297	O	0.510910	0.521172	0.672733
	H298	H	0.509512	0.520516	0.677877
	H299	H	0.493241	0.515491	0.669885
	O300	O	0.226102	0.204038	1.026437
	H301	H	0.251554	0.218466	1.018490
	H302	H	0.216072	0.205177	1.010062
	O303	O	0.608416	0.495879	0.649916
	H304	H	0.623188	0.506737	0.655886
	H305	H	0.598997	0.499155	0.652749
	O306	O	0.645422	0.367611	0.382728
	H307	H	0.655607	0.362095	0.420582
	H308	H	0.665706	0.345204	0.364639
	O309	O	0.432775	0.704573	0.667113
	H310	H	0.438113	0.708973	0.666237
	H311	H	0.429374	0.678966	0.668159
	O312	O	0.432563	0.504611	0.685859
	H313	H	0.431882	0.515856	0.686884
	H314	H	0.431196	0.491024	0.687286
	O315	O	0.892115	0.962222	0.952308
	H316	H	0.896707	0.960185	0.938020
	H317	H	0.901299	0.961982	0.953666
	O318	O	1.168844	1.003291	0.235451
	H319	H	1.174863	0.998751	0.225160
	H320	H	1.189057	1.003997	0.254965
	O321	O	0.608773	0.717204	0.717795
	H322	H	0.621282	0.745954	0.742702
	H323	H	0.608353	0.717084	0.719879
	O324	O	0.992104	0.782063	0.218348
	H325	H	0.983100	0.776097	0.231304
	H326	H	0.971507	0.786789	0.219793
	O327	O	-0.005253	-0.059887	0.784428
	H328	H	0.002073	-0.068210	0.800391
	H329	H	0.003745	-0.050606	0.789846
	O330	O	0.407088	0.313339	0.437666
	H331	H	0.412040	0.315967	0.433599
	H332	H	0.394477	0.311257	0.418499
	O333	O	0.446208	0.607926	0.536326
	H334	H	0.452344	0.613788	0.548404
	H335	H	0.455011	0.596636	0.530588
	O336	O	0.623033	0.307541	0.656194
	H337	H	0.612680	0.305096	0.633862
	H338	H	0.614677	0.306166	0.652742
	O339	O	1.146664	-0.044191	1.087131
	H340	H	1.156103	-0.046770	1.087365
	H341	H	1.140312	-0.035716	1.100275
	O342	O	-0.096324	0.017145	-0.118931
	H343	H	-0.089365	0.015753	-0.105308
	H344	H	-0.083741	0.025410	-0.132238
	O345	O	0.228074	0.770088	0.976455
	H346	H	0.240674	0.755792	0.979271
	H347	H	0.236973	0.773694	0.980076
	O348	O	0.025495	-0.226856	-0.218593
	H349	H	0.042729	-0.225804	-0.222406
	H350	H	0.029867	-0.249327	-0.229381
	O351	O	0.443868	0.440117	0.275265
	H352	H	0.454532	0.433597	0.280127
	H353	H	0.442193	0.443879	0.272376
	O354	O	-0.087252	-0.161737	1.072716
	H355	H	-0.089320	-0.170119	1.081154
	H356	H	-0.087855	-0.145283	1.087369
	O357	O	0.219458	0.786241	0.791721
	H358	H	0.215548	0.783045	0.833796
	H359	H	0.225507	0.780310	0.777577
	O360	O	0.711229	0.554421	0.465671
	H361	H	0.713659	0.560148	0.463106
	H362	H	0.710215	0.539180	0.460163
	O363	O	0.048570	0.083666	-0.142528
	H364	H	0.046470	0.100421	-0.135066
	H365	H	0.061849	0.089328	-0.147242
	O366	O	0.418815	0.409780	0.557299
	H367	H	0.428050	0.406433	0.534845
	H368	H	0.412283	0.435482	0.559152
	O369	O	0.725386	0.286311	0.462151
	H370	H	0.755051	0.258932	0.470427
	H371	H	0.707397	0.302945	0.465000
	O372	O	0.958479	0.931515	0.056600
	H373	H	0.961445	0.942435	0.052971
	H374	H	0.947331	0.937202	0.062324
	O375	O	1.208785	0.136078	-0.127592
	H376	H	1.206760	0.125943	-0.128743
	H377	H	1.210702	0.140650	-0.139355
	O378	O	0.213767	0.209191	0.210297
	H379	H	0.195063	0.180041	0.213048
	H380	H	0.208406	0.208000	0.170857
	O381	O	-0.025972	1.222756	0.786124
	H382	H	-0.033807	1.227839	0.766979
	H383	H	-0.030113	1.229284	0.780801
	O384	O	0.789176	0.234556	0.990102
	H385	H	0.758137	0.260137	0.976133
	H386	H	0.789860	0.219917	0.950956
	O387	O	1.157029	1.080321	0.008876
	H388	H	1.146358	1.083351	0.013882
	H389	H	1.165407	1.082829	-0.000167
	O390	O	0.322757	0.316815	0.324974
	H391	H	0.332139	0.323343	0.320280
	H392	H	0.310750	0.307193	0.300307
	O393	O	0.292270	0.528420	0.288678
	H394	H	0.289817	0.530368	0.277428
	H395	H	0.287749	0.534289	0.278749
	O396	O	-0.219957	1.034779	0.779624
	H397	H	-0.232741	1.034053	0.757070
	H398	H	-0.206527	1.016621	0.764354
	O399	O	-0.122766	0.120434	1.082344
	H400	H	-0.132247	0.113057	1.060855
	H401	H	-0.135977	0.109903	1.108343
	O402	O	0.594084	0.309023	0.516455
	H403	H	0.592272	0.315643	0.512298
	H404	H	0.591398	0.296587	0.499137
	O405	O	1.227810	-0.229610	1.228110
	H406	H	1.252283	-0.250589	1.239751
	H407	H	1.207390	-0.237896	1.219909
	O408	O	-0.048614	0.164811	0.115959
	H409	H	-0.047889	0.170342	0.106979
	H410	H	-0.048331	0.151762	0.103482
	O411	O	0.727543	0.719284	0.529366
	H412	H	0.736672	0.729232	0.553519
	H413	H	0.742834	0.718708	0.545879
	O414	O	0.340261	0.564581	0.515303
	H415	H	0.339108	0.579241	0.508342
	H416	H	0.339420	0.565080	0.499141
	O417	O	0.703089	0.460559	0.561143
	H418	H	0.699575	0.469857	0.572953
	H419	H	0.701482	0.469305	0.554395
	O420	O	0.293128	0.302074	0.530466
	H421	H	0.278524	0.295202	0.519246
	H422	H	0.295138	0.311399	0.512039
	O423	O	0.037216	0.222870	1.220756
	H424	H	0.040171	0.225140	1.192932
	H425	H	0.039114	0.254673	1.245772
	O426	O	0.563374	0.539009	0.284147
	H427	H	0.579472	0.520442	0.282609
	H428	H	0.562539	0.533924	0.285533
	O429	O	0.792906	0.788946	1.215175
	H430	H	0.768744	0.764782	1.226643
	H431	H	0.797991	0.783239	1.203415
	O432	O	0.694406	0.465049	0.310851
	H433	H	0.693638	0.436458	0.311178
	H434	H	0.710334	0.448820	0.299713
	O435	O	0.149673	0.891423	0.183078
	H436	H	0.139354	0.899201	0.184344
	H437	H	0.155212	0.879742	0.186150
	O438	O	0.047318	0.230215	-0.040550
	H439	H	0.047025	0.225931	-0.045852
	H440	H	0.045641	0.229326	-0.056496
	O441	O	-0.028172	-0.004709	-0.076153
	H442	H	-0.017105	0.001856	-0.060650
	H443	H	-0.013114	-0.001112	-0.084368
	O444	O	0.554820	0.634761	0.476180
	H445	H	0.568432	0.641262	0.494915
	H446	H	0.559276	0.630144	0.475555
	O447	O	-0.027245	0.796802	0.986019
	H448	H	-0.029701	0.805902	0.990609
	H449	H	-0.029869	0.806792	0.995290
	O450	O	-0.287105	0.709864	1.257526
	H451	H	-0.296147	0.695243	1.268265
	H452	H	-0.300391	0.694509	1.264961
	O453	O	0.333504	0.477589	0.446853
	H454	H	0.334368	0.468854	0.446399
	H455	H	0.337373	0.481133	0.433774
	O456	O	0.715189	0.641424	0.704333
	H457	H	0.740743	0.673641	0.734018
	H458	H	0.708760	0.622683	0.706587
	O459	O	1.235084	0.928325	0.035543
	H460	H	1.229990	0.930693	0.048851
	H461	H	1.220290	0.936086	0.028628
	O462	O	0.780904	0.230339	0.231838
	H463	H	0.810291	0.217481	0.207073
	H464	H	0.766938	0.207455	0.212911
	O465	O	0.972007	-0.155284	0.055747
	H466	H	0.969568	-0.155234	0.082373
	H467	H	0.980475	-0.150364	0.053623
	O468	O	0.497417	0.696931	0.361154
	H469	H	0.512785	0.696281	0.366319
	H470	H	0.502753	0.671485	0.363473
	O471	O	0.486614	0.288698	0.718074
	H472	H	0.485100	0.282222	0.699501
	H473	H	0.478728	0.278006	0.737751
	O474	O	0.281511	0.710920	0.483367
	H475	H	0.265480	0.737002	0.475453
	H476	H	0.301835	0.716844	0.470362
	O477	O	0.534430	0.644006	1.417773
	H478	H	0.556651	0.645865	1.435716
	H479	H	0.530340	0.641645	1.403047
	O480	O	0.354588	0.707484	0.293865
	H481	H	0.354396	0.699167	0.318149
	H482	H	0.385502	0.709241	0.292187
	O483	O	0.255487	0.248858	0.751529
	H484	H	0.285885	0.262098	0.730722
	H485	H	0.259276	0.247525	0.739645
	O486	O	0.705710	0.471080	0.711361
	H487	H	0.706521	0.478212	0.720667
	H488	H	0.704765	0.472835	0.708130
	O489	O	0.813873	0.806150	-0.185418
	H490	H	0.832231	0.825430	-0.168121
	H491	H	0.840509	0.817990	-0.170081
	O492	O	-0.086907	0.114630	0.215086
	H493	H	-0.069269	0.139380	0.207329
	H494	H	-0.084115	0.092469	0.214180
	O495	O	0.231252	0.982953	0.784576
	H496	H	0.225084	0.967949	0.791445
	H497	H	0.251718	0.970963	0.757502
	O498	O	1.095262	0.971322	0.878763
	H499	H	1.095048	0.969813	0.889228
	H500	H	1.091127	0.955079	0.890963
	O501	O	0.288542	0.463724	0.719098
	H502	H	0.280214	0.461538	0.728961
	H503	H	0.270280	0.471774	0.707260
