data_Molecule from HDF5

_cell_length_a		16.575688
_cell_length_b		16.676309
_cell_length_c		16.677176
_cell_angle_alpha	89.826191
_cell_angle_beta	90.016545
_cell_angle_gamma	90.007593
_symmetry_space_group_name_H-M	'P 1'
_symmetry_Int_Tables_number		1

loop_
	_symmetry_equiv_pos_as_xyz
	x,y,z

loop_
	_atom_site_label
	_atom_site_type_symbol
	_atom_site_fract_x
	_atom_site_fract_y
	_atom_site_fract_z
	H0	H	0.397624	0.842091	0.724351
	H1	H	0.612772	0.149216	0.725897
	H2	H	0.612366	0.841748	0.278295
	H3	H	0.396961	0.148938	0.277722
	H4	H	0.723945	0.391501	0.847853
	H5	H	0.723030	0.599569	0.157967
	H6	H	0.283174	0.597145	0.846537
	H7	H	0.285217	0.392438	0.159777
	H8	H	0.849224	0.717767	0.396259
	H9	H	0.160005	0.715415	0.606293
	H10	H	0.847499	0.274519	0.607766
	H11	H	0.157917	0.273850	0.396029
	H12	H	0.846690	0.391348	0.722202
	H13	H	0.159074	0.599754	0.723559
	H14	H	0.849560	0.603331	0.279065
	H15	H	0.159285	0.391564	0.281431
	H16	H	0.395510	0.717523	0.847907
	H17	H	0.606139	0.715022	0.157593
	H18	H	0.607997	0.274810	0.848113
	H19	H	0.401280	0.275739	0.159035
	H20	H	0.727925	0.842107	0.394970
	H21	H	0.727000	0.150153	0.608460
	H22	H	0.284983	0.840534	0.605293
	H23	H	0.283228	0.150870	0.396498
	H24	H	0.898119	0.341043	0.224548
	H25	H	0.107318	0.651597	0.221483
	H26	H	0.107445	0.339735	0.782146
	H27	H	0.895706	0.649109	0.778699
	H28	H	0.225816	0.890989	0.347491
	H29	H	0.224647	0.099757	0.656906
	H30	H	0.780906	0.102049	0.348275
	H31	H	0.779848	0.887558	0.655579
	H32	H	0.349272	0.217419	0.895594
	H33	H	0.657527	0.218815	0.110991
	H34	H	0.345581	0.775667	0.105407
	H35	H	0.655923	0.770408	0.893571
	H36	H	0.346645	0.890122	0.222631
	H37	H	0.657505	0.101099	0.225494
	H38	H	0.348470	0.101023	0.781197
	H39	H	0.657222	0.886972	0.778334
	H40	H	0.898599	0.217477	0.348178
	H41	H	0.112074	0.219342	0.655205
	H42	H	0.111540	0.771860	0.349260
	H43	H	0.895894	0.771762	0.655912
	H44	H	0.220955	0.338038	0.900630
	H45	H	0.223294	0.650991	0.105385
	H46	H	0.781980	0.340185	0.108236
	H47	H	0.780850	0.649916	0.895795
	H48	H	0.417466	0.108460	0.596707
	H49	H	0.593684	0.883773	0.593210
	H50	H	0.588159	0.103869	0.417542
	H51	H	0.410895	0.881866	0.411138
	H52	H	0.593270	0.412227	0.112108
	H53	H	0.586294	0.587695	0.892282
	H54	H	0.412927	0.580324	0.111265
	H55	H	0.411304	0.404611	0.890984
	H56	H	0.114315	0.581383	0.412694
	H57	H	0.891269	0.585473	0.590602
	H58	H	0.116666	0.403632	0.592123
	H59	H	0.889986	0.405839	0.409468
	H60	H	0.114325	0.408251	0.588611
	H61	H	0.892178	0.584155	0.588933
	H62	H	0.117505	0.586516	0.409580
	H63	H	0.892211	0.404561	0.418257
	H64	H	0.417455	0.587313	0.113625
	H65	H	0.594906	0.585089	0.889471
	H66	H	0.585855	0.403073	0.112211
	H67	H	0.413286	0.405420	0.891147
	H68	H	0.592490	0.106745	0.413743
	H69	H	0.586932	0.887534	0.591668
	H70	H	0.418658	0.105862	0.587201
	H71	H	0.418518	0.884044	0.410812
	H72	H	0.908888	0.608888	0.093471
	H73	H	0.087223	0.386189	0.090392
	H74	H	0.097219	0.607790	0.911433
	H75	H	0.915528	0.385046	0.915834
	H76	H	0.096053	0.904316	0.615405
	H77	H	0.088759	0.081853	0.393429
	H78	H	0.915377	0.082667	0.613194
	H79	H	0.920319	0.911923	0.394462
	H80	H	0.614929	0.081789	0.915864
	H81	H	0.393983	0.078626	0.087208
	H82	H	0.615664	0.904578	0.092040
	H83	H	0.389848	0.909019	0.907362
	H84	H	0.614105	0.904767	0.088537
	H85	H	0.391380	0.083065	0.094525
	H86	H	0.616294	0.083809	0.912558
	H87	H	0.389863	0.902965	0.915703
	H88	H	0.916777	0.084348	0.612772
	H89	H	0.090536	0.090516	0.389663
	H90	H	0.093616	0.909430	0.612632
	H91	H	0.918093	0.904032	0.391312
	H92	H	0.088122	0.605668	0.909623
	H93	H	0.099963	0.382527	0.090679
	H94	H	0.919863	0.605942	0.094833
	H95	H	0.911411	0.384060	0.914714
	H96	H	0.409674	0.109080	0.590217
	H97	H	0.592322	0.886560	0.586862
	H98	H	0.587256	0.104891	0.411777
	H99	H	0.414402	0.885526	0.417367
	H100	H	0.596426	0.402292	0.117500
	H101	H	0.589170	0.578647	0.893695
	H102	H	0.409352	0.586494	0.116259
	H103	H	0.412790	0.403475	0.890736
	H104	H	0.115938	0.586775	0.416142
	H105	H	0.891985	0.583586	0.591181
	H106	H	0.114678	0.408727	0.594905
	H107	H	0.893406	0.412529	0.414063
	H108	H	0.914598	0.604505	0.084454
	H109	H	0.092662	0.381910	0.101292
	H110	H	0.091638	0.604093	0.918426
	H111	H	0.914766	0.383477	0.911611
	H112	H	0.090231	0.904073	0.613001
	H113	H	0.097370	0.084572	0.390110
	H114	H	0.914863	0.085435	0.614005
	H115	H	0.912308	0.910261	0.391334
	H116	H	0.614887	0.085729	0.915930
	H117	H	0.391346	0.087315	0.086856
	H118	H	0.613489	0.907616	0.090760
	H119	H	0.394567	0.911819	0.916421
	C120	C	0.382786	0.005226	0.623299
	C121	C	0.625088	0.987361	0.623869
	C122	C	0.623849	0.003539	0.381325
	C123	C	0.381601	0.986123	0.379906
	C124	C	0.624364	0.373834	0.011600
	C125	C	0.623091	0.616392	0.994100
	C126	C	0.381340	0.616086	0.010919
	C127	C	0.381493	0.373042	0.994308
	C128	C	0.013019	0.617678	0.380469
	C129	C	0.994659	0.616701	0.623248
	C130	C	0.011657	0.374627	0.623383
	C131	C	0.994976	0.375659	0.381905
	C132	C	0.882108	0.503891	0.123808
	C133	C	0.124797	0.486945	0.124775
	C134	C	0.123753	0.503013	0.881809
	C135	C	0.881392	0.486654	0.881111
	C136	C	0.125499	0.874059	0.510737
	C137	C	0.125360	0.118119	0.493038
	C138	C	0.882802	0.116695	0.511105
	C139	C	0.883009	0.874994	0.493837
	C140	C	0.512886	0.116602	0.881535
	C141	C	0.494754	0.115742	0.123147
	C142	C	0.510976	0.874014	0.122494
	C143	C	0.493985	0.874375	0.880512
	C144	C	0.380087	0.888451	0.683396
	C145	C	0.629898	0.102975	0.685244
	C146	C	0.629119	0.888021	0.319413
	C147	C	0.379006	0.102799	0.318671
	C148	C	0.684099	0.372612	0.894546
	C149	C	0.682752	0.618093	0.111094
	C150	C	0.322009	0.617193	0.893441
	C151	C	0.324118	0.373017	0.112440
	C152	C	0.896002	0.678245	0.377649
	C153	C	0.112687	0.675757	0.624954
	C154	C	0.894360	0.314814	0.625644
	C155	C	0.111629	0.314583	0.378281
	C156	C	0.893783	0.372913	0.682456
	C157	C	0.112359	0.618193	0.682944
	C158	C	0.896193	0.621187	0.319775
	C159	C	0.112150	0.372984	0.321337
	C160	C	0.378101	0.676660	0.894280
	C161	C	0.624665	0.675582	0.110862
	C162	C	0.626565	0.314573	0.894785
	C163	C	0.381657	0.315016	0.112205
	C164	C	0.686645	0.888176	0.377347
	C165	C	0.686803	0.103389	0.626777
	C166	C	0.323569	0.887877	0.624565
	C167	C	0.322597	0.103684	0.377684
	C168	C	0.879690	0.387427	0.184563
	C169	C	0.126078	0.604529	0.182267
	C170	C	0.125382	0.386098	0.822512
	C171	C	0.878072	0.602718	0.819601
	C172	C	0.186009	0.872030	0.394169
	C173	C	0.185343	0.119290	0.609937
	C174	C	0.821679	0.119851	0.394765
	C175	C	0.820692	0.870221	0.609454
	C176	C	0.396055	0.177401	0.877925
	C177	C	0.611150	0.177368	0.127795
	C178	C	0.392878	0.815100	0.124374
	C179	C	0.609950	0.811949	0.876611
	C180	C	0.393355	0.872209	0.182447
	C181	C	0.611310	0.118860	0.184613
	C182	C	0.395790	0.119525	0.820917
	C183	C	0.610577	0.870063	0.819341
	C184	C	0.879968	0.177297	0.394658
	C185	C	0.129266	0.178629	0.609173
	C186	C	0.129226	0.813054	0.394959
	C187	C	0.878670	0.812854	0.609540
	C188	C	0.181923	0.385221	0.881375
	C189	C	0.183886	0.604158	0.124593
	C190	C	0.822248	0.386994	0.126443
	C191	C	0.820899	0.603192	0.877931
	C192	C	0.408063	0.086659	0.598443
	C193	C	0.598583	0.906794	0.598010
	C194	C	0.596891	0.084171	0.407148
	C195	C	0.407153	0.904991	0.405643
	C196	C	0.599003	0.398637	0.092987
	C197	C	0.597753	0.590940	0.912862
	C198	C	0.406137	0.591499	0.092476
	C199	C	0.405345	0.397301	0.912245
	C200	C	0.094762	0.592280	0.405774
	C201	C	0.912937	0.591754	0.597676
	C202	C	0.093729	0.399643	0.598815
	C203	C	0.913157	0.400580	0.406843
	C204	C	0.907251	0.585243	0.098254
	C205	C	0.100076	0.404806	0.101094
	C206	C	0.099169	0.584513	0.906086
	C207	C	0.906692	0.405338	0.906628
	C208	C	0.100286	0.898829	0.592346
	C209	C	0.099545	0.092886	0.412145
	C210	C	0.908452	0.091249	0.592199
	C211	C	0.909373	0.901375	0.413382
	C212	C	0.594298	0.091074	0.907345
	C213	C	0.413325	0.090211	0.096925
	C214	C	0.592978	0.898623	0.097463
	C215	C	0.412536	0.900463	0.905938
	Zn216	Zn	0.503843	-0.003675	0.752581
	Zn217	Zn	0.503347	-0.005461	0.251695
	Zn218	Zn	0.752753	0.495840	0.003027
	Zn219	Zn	0.252986	0.494579	0.002727
	Zn220	Zn	0.003520	0.745366	0.501782
	Zn221	Zn	0.003690	0.246299	0.502980
	Zn222	Zn	0.002878	0.494889	0.752244
	Zn223	Zn	0.003065	0.496141	0.253014
	Zn224	Zn	0.501930	0.745729	0.001669
	Zn225	Zn	0.503507	0.244774	0.002885
	Zn226	Zn	0.753478	-0.004455	0.502092
	Zn227	Zn	0.253699	-0.003561	0.501958
	N228	N	0.416066	0.962537	0.682953
	N229	N	0.592181	0.029745	0.683591
	N230	N	0.590732	0.960956	0.321695
	N231	N	0.414564	0.028504	0.319583
	N232	N	0.683115	0.408577	0.968359
	N233	N	0.682149	0.582198	0.037188
	N234	N	0.323548	0.580384	0.967118
	N235	N	0.323515	0.408070	0.037897
	N236	N	0.969891	0.676271	0.414564
	N237	N	0.038251	0.675394	0.588910
	N238	N	0.968776	0.315765	0.589619
	N239	N	0.037901	0.316163	0.415354
	N240	N	0.967974	0.409363	0.681424
	N241	N	0.037778	0.582291	0.682292
	N242	N	0.970155	0.584546	0.320981
	N243	N	0.038461	0.410372	0.323322
	N244	N	0.414053	0.676226	0.968276
	N245	N	0.588470	0.674890	0.036854
	N246	N	0.590354	0.315024	0.968765
	N247	N	0.416319	0.314597	0.037484
	N248	N	0.683583	0.961062	0.415185
	N249	N	0.683979	0.030419	0.589134
	N250	N	0.325072	0.961585	0.587611
	N251	N	0.323847	0.030137	0.414961
	N252	N	0.916019	0.461294	0.183126
	N253	N	0.090095	0.530467	0.182534
	N254	N	0.089883	0.460376	0.822514
	N255	N	0.914999	0.529151	0.821529
	N256	N	0.183902	0.909183	0.467390
	N257	N	0.183157	0.082367	0.536700
	N258	N	0.822992	0.083256	0.468439
	N259	N	0.823076	0.908115	0.536387
	N260	N	0.469942	0.175880	0.915033
	N261	N	0.537626	0.175381	0.090080
	N262	N	0.467217	0.815959	0.088016
	N263	N	0.536397	0.814588	0.914152
	N264	N	0.468048	0.907908	0.181889
	N265	N	0.537831	0.080966	0.181678
	N266	N	0.469487	0.082383	0.822911
	N267	N	0.537456	0.908363	0.821744
	N268	N	0.917164	0.175684	0.468215
	N269	N	0.092754	0.178217	0.535395
	N270	N	0.092576	0.814063	0.468729
	N271	N	0.916888	0.815527	0.536637
	N272	N	0.181283	0.458921	0.917561
	N273	N	0.183155	0.529699	0.089463
	N274	N	0.823536	0.460576	0.089248
	N275	N	0.822654	0.529901	0.915630
	O276	O	-0.206835	1.210382	-0.207488
	H277	H	-0.240530	1.241042	-0.239609
	H278	H	-0.204829	1.192129	-0.188877
	O279	O	0.074204	0.130028	0.005261
	H280	H	0.085442	0.127279	0.008112
	H281	H	0.089063	0.124296	0.007018
	O282	O	0.791403	-0.032208	1.218721
	H283	H	0.771159	-0.044908	1.241182
	H284	H	0.797977	-0.059010	1.211870
	O285	O	0.285399	0.276217	0.530097
	H286	H	0.257110	0.253488	0.531472
	H287	H	0.287723	0.297034	0.538466
	O288	O	0.445446	0.533773	0.462349
	H289	H	0.450301	0.520419	0.465560
	H290	H	0.445975	0.530753	0.448081
	O291	O	0.595418	0.318379	0.478228
	H292	H	0.586379	0.315993	0.475155
	H293	H	0.573982	0.318935	0.491865
	O294	O	0.774273	-0.067266	0.940148
	H295	H	0.768949	-0.081326	0.945643
	H296	H	0.775980	-0.062462	0.951040
	O297	O	0.352741	0.550564	0.635616
	H298	H	0.337875	0.549704	0.653127
	H299	H	0.365459	0.565096	0.648556
	O300	O	0.231013	0.216876	1.035512
	H301	H	0.224148	0.203674	1.074591
	H302	H	0.265692	0.246912	1.040143
	O303	O	0.416317	0.291731	0.465031
	H304	H	0.419835	0.294375	0.479164
	H305	H	0.416364	0.301064	0.478697
	O306	O	0.341256	0.415772	0.524921
	H307	H	0.337910	0.425347	0.527365
	H308	H	0.341724	0.432313	0.524726
	O309	O	0.317651	0.687318	0.691055
	H310	H	0.349754	0.678910	0.688789
	H311	H	0.315649	0.682052	0.689784
	O312	O	0.359629	0.424447	0.442162
	H313	H	0.355176	0.423995	0.443183
	H314	H	0.367240	0.426080	0.436431
	O315	O	1.071678	0.806016	1.046062
	H316	H	1.093179	0.798385	1.029845
	H317	H	1.052832	0.810047	1.030539
	O318	O	1.223832	1.031562	0.224923
	H319	H	1.232076	1.032631	0.211513
	H320	H	1.243410	1.026430	0.248249
	O321	O	0.519817	0.712796	0.722298
	H322	H	0.540593	0.709495	0.719341
	H323	H	0.538882	0.733577	0.738120
	O324	O	0.982154	0.778294	0.227525
	H325	H	0.981748	0.767655	0.229757
	H326	H	0.983694	0.763346	0.225303
	O327	O	0.019641	-0.017253	0.960955
	H328	H	0.022200	-0.032387	0.957154
	H329	H	0.011749	-0.002269	0.971643
	O330	O	0.515377	0.281091	0.327756
	H331	H	0.503042	0.285323	0.341015
	H332	H	0.498195	0.287639	0.319226
	O333	O	0.632209	0.600203	0.636868
	H334	H	0.647096	0.584226	0.634666
	H335	H	0.629722	0.611808	0.616679
	O336	O	0.690102	0.308896	0.694547
	H337	H	0.672831	0.329008	0.675689
	H338	H	0.665410	0.324044	0.679555
	O339	O	0.951776	-0.239356	0.944183
	H340	H	0.954082	-0.238478	0.924831
	H341	H	0.938287	-0.241848	0.953329
	O342	O	0.068089	0.048222	-0.229475
	H343	H	0.070743	0.049962	-0.228364
	H344	H	0.052106	0.053354	-0.217380
	O345	O	0.206159	0.774115	0.990666
	H346	H	0.219789	0.765476	0.959705
	H347	H	0.208401	0.767496	0.968683
	O348	O	0.037084	-0.230581	-0.220554
	H349	H	0.024270	-0.218408	-0.231724
	H350	H	0.029579	-0.243879	-0.239205
	O351	O	0.508396	0.568482	0.321463
	H352	H	0.498698	0.571790	0.317251
	H353	H	0.506168	0.576516	0.323312
	O354	O	-0.117581	-0.144587	0.802747
	H355	H	-0.129984	-0.143550	0.807404
	H356	H	-0.112351	-0.127605	0.813338
	O357	O	0.216984	0.786091	0.789178
	H358	H	0.176255	0.778974	0.786189
	H359	H	0.232372	0.791471	0.769138
	O360	O	0.716232	0.704594	0.530007
	H361	H	0.719485	0.704082	0.521137
	H362	H	0.713359	0.713016	0.523979
	O363	O	-0.066090	0.217111	0.022261
	H364	H	-0.051928	0.226860	-0.004848
	H365	H	-0.064057	0.206179	0.018196
	O366	O	0.453946	0.501047	0.464524
	H367	H	0.445362	0.501512	0.459804
	H368	H	0.444075	0.507025	0.447674
	O369	O	0.709011	0.291772	0.358254
	H370	H	0.733660	0.264927	0.350738
	H371	H	0.679186	0.297556	0.350981
	O372	O	0.949294	0.898731	0.088769
	H373	H	0.948355	0.900448	0.091761
	H374	H	0.938373	0.896835	0.086934
	O375	O	1.190160	0.185591	-0.191383
	H376	H	1.172210	0.162610	-0.179795
	H377	H	1.171396	0.170589	-0.169152
	O378	O	0.204149	0.199018	0.208162
	H379	H	0.210110	0.174875	0.223226
	H380	H	0.160592	0.203109	0.205273
	O381	O	-0.018433	1.216035	0.773895
	H382	H	-0.051450	1.204204	0.784399
	H383	H	-0.029965	1.244403	0.743804
	O384	O	0.777948	0.215892	0.973533
	H385	H	0.801604	0.218014	0.954128
	H386	H	0.745245	0.243243	0.972534
	O387	O	1.056518	1.143559	-0.052277
	H388	H	1.062566	1.143728	-0.060625
	H389	H	1.071488	1.140424	-0.045905
	O390	O	0.372056	0.389666	0.334119
	H391	H	0.374511	0.397225	0.332047
	H392	H	0.370591	0.382030	0.335046
	O393	O	0.332774	0.513814	0.281311
	H394	H	0.326462	0.522364	0.279578
	H395	H	0.318035	0.515405	0.269831
	O396	O	-0.211517	1.019938	0.781794
	H397	H	-0.237303	1.018857	0.767721
	H398	H	-0.215911	1.024957	0.794323
	O399	O	-0.068440	0.082398	0.890474
	H400	H	-0.082012	0.073763	0.899572
	H401	H	-0.083571	0.095341	0.887549
	O402	O	0.517896	0.509012	0.685663
	H403	H	0.510821	0.513655	0.686462
	H404	H	0.515016	0.516672	0.676556
	O405	O	1.296493	-0.293866	1.292071
	H406	H	1.286538	-0.308070	1.325838
	H407	H	1.260784	-0.261758	1.262554
	O408	O	0.071260	-0.053766	0.235514
	H409	H	0.060368	-0.056783	0.240266
	H410	H	0.084556	-0.042908	0.223957
	O411	O	0.752670	0.748078	0.740716
	H412	H	0.746725	0.733191	0.718760
	H413	H	0.766826	0.755354	0.744909
	O414	O	0.567965	0.708469	0.497204
	H415	H	0.565770	0.709482	0.489624
	H416	H	0.565493	0.704132	0.496938
	O417	O	0.695377	0.506621	0.526158
	H418	H	0.689215	0.493869	0.536934
	H419	H	0.694451	0.492279	0.515220
	O420	O	0.490250	0.435804	0.472609
	H421	H	0.486949	0.445219	0.462160
	H422	H	0.490830	0.443712	0.468061
	O423	O	0.033343	0.205649	1.211632
	H424	H	0.012917	0.200472	1.219851
	H425	H	0.015975	0.217340	1.205655
	O426	O	0.453092	0.491620	0.283379
	H427	H	0.436572	0.505765	0.280339
	H428	H	0.457192	0.498926	0.276185
	O429	O	0.788638	0.784689	1.215093
	H430	H	0.821982	0.778817	1.202748
	H431	H	0.759451	0.750880	1.247961
	O432	O	0.724969	0.494089	0.406609
	H433	H	0.722919	0.474420	0.393484
	H434	H	0.731542	0.481628	0.400441
	O435	O	0.191271	0.804431	0.196925
	H436	H	0.175408	0.828708	0.179999
	H437	H	0.166783	0.813384	0.175432
	O438	O	-0.179136	0.184641	0.188174
	H439	H	-0.159418	0.162937	0.181873
	H440	H	-0.180779	0.176859	0.169200
	O441	O	-0.106720	-0.075737	0.091517
	H442	H	-0.109634	-0.088419	0.095816
	H443	H	-0.115738	-0.060935	0.097202
	O444	O	0.714853	0.309433	0.495405
	H445	H	0.726144	0.295562	0.485185
	H446	H	0.708708	0.287268	0.499383
	O447	O	-0.013178	1.060962	1.118425
	H448	H	-0.015611	1.058684	1.117112
	H449	H	-0.026513	1.064037	1.120231
	O450	O	-0.223357	0.771772	1.029207
	H451	H	-0.235598	0.752276	1.041514
	H452	H	-0.231583	0.769655	1.040765
	O453	O	0.524786	0.532945	0.518393
	H454	H	0.522342	0.550938	0.519915
	H455	H	0.525777	0.536590	0.509341
	O456	O	0.518887	0.401781	0.714953
	H457	H	0.506941	0.408477	0.716384
	H458	H	0.514111	0.390139	0.714899
	O459	O	1.234976	0.964585	0.062246
	H460	H	1.225514	0.957022	0.060807
	H461	H	1.233761	0.955945	0.054438
	O462	O	0.722347	0.395009	0.285978
	H463	H	0.700723	0.377316	0.276530
	H464	H	0.736527	0.366452	0.263417
	O465	O	0.775290	0.061521	0.055546
	H466	H	0.768321	0.078975	0.047389
	H467	H	0.773553	0.058922	0.068454
	O468	O	0.693163	0.682400	0.315716
	H469	H	0.675677	0.669523	0.340115
	H470	H	0.678594	0.656132	0.326406
	O471	O	0.517807	0.269563	0.642937
	H472	H	0.506035	0.266059	0.636433
	H473	H	0.512120	0.270694	0.644520
	O474	O	0.290611	0.712538	0.462200
	H475	H	0.271249	0.706697	0.474509
	H476	H	0.290018	0.722464	0.464151
	O477	O	0.443321	0.724629	1.543510
	H478	H	0.450665	0.732988	1.532842
	H479	H	0.443732	0.720434	1.549558
	O480	O	0.471268	0.722367	0.279460
	H481	H	0.454329	0.748061	0.250708
	H482	H	0.434026	0.717435	0.280095
	O483	O	0.294572	0.283214	0.714844
	H484	H	0.299379	0.268790	0.697235
	H485	H	0.278243	0.254175	0.740304
	O486	O	0.705769	0.527287	0.717611
	H487	H	0.712004	0.520733	0.719952
	H488	H	0.709177	0.512312	0.721312
	O489	O	1.001232	0.971302	-0.107395
	H490	H	1.000463	0.984940	-0.105360
	H491	H	1.001691	0.973499	-0.106717
	O492	O	0.041031	-0.041629	0.078520
	H493	H	0.049055	-0.034713	0.069376
	H494	H	0.028297	-0.059479	0.066524
	O495	O	0.221002	0.958874	0.782877
	H496	H	0.243131	0.952500	0.770127
	H497	H	0.206631	0.960671	0.775246
	O498	O	1.213876	1.035789	0.931361
	H499	H	1.225840	1.032164	0.931246
	H500	H	1.200240	1.023160	0.941036
	O501	O	0.289275	0.461205	0.721636
	H502	H	0.274253	0.434508	0.731811
	H503	H	0.280250	0.440887	0.724029
