data_Molecule from HDF5

_cell_length_a		16.167657
_cell_length_b		16.243599
_cell_length_c		16.320757
_cell_angle_alpha	90.281759
_cell_angle_beta	90.151973
_cell_angle_gamma	90.138922
_symmetry_space_group_name_H-M	'P 1'
_symmetry_Int_Tables_number		1

loop_
	_symmetry_equiv_pos_as_xyz
	x,y,z

loop_
	_atom_site_label
	_atom_site_type_symbol
	_atom_site_fract_x
	_atom_site_fract_y
	_atom_site_fract_z
	H0	H	0.396585	0.838531	0.711786
	H1	H	0.599124	0.164906	0.715553
	H2	H	0.597247	0.840755	0.279665
	H3	H	0.396376	0.166922	0.284153
	H4	H	0.708199	0.405712	0.832409
	H5	H	0.711487	0.601929	0.160195
	H6	H	0.281818	0.601984	0.833797
	H7	H	0.282744	0.406333	0.160674
	H8	H	0.831591	0.716509	0.395669
	H9	H	0.160449	0.718462	0.595532
	H10	H	0.832708	0.288002	0.594366
	H11	H	0.161527	0.289294	0.396631
	H12	H	0.832283	0.403074	0.708887
	H13	H	0.159226	0.605596	0.713173
	H14	H	0.832112	0.601134	0.280959
	H15	H	0.160966	0.402785	0.280916
	H16	H	0.396870	0.719180	0.834472
	H17	H	0.597337	0.720893	0.160202
	H18	H	0.596264	0.286221	0.834475
	H19	H	0.397508	0.289638	0.161197
	H20	H	0.708695	0.838086	0.399093
	H21	H	0.713302	0.165180	0.597856
	H22	H	0.281977	0.838803	0.594551
	H23	H	0.283717	0.167271	0.400583
	H24	H	0.896919	0.338594	0.209979
	H25	H	0.098418	0.665855	0.214011
	H26	H	0.095238	0.339824	0.780156
	H27	H	0.895285	0.666329	0.780487
	H28	H	0.211655	0.903687	0.333705
	H29	H	0.209814	0.100556	0.660820
	H30	H	0.780269	0.099370	0.333420
	H31	H	0.782162	0.903169	0.659763
	H32	H	0.331595	0.214616	0.899938
	H33	H	0.661141	0.217559	0.095617
	H34	H	0.332478	0.789235	0.095932
	H35	H	0.661045	0.790638	0.899023
	H36	H	0.331490	0.905864	0.210210
	H37	H	0.660388	0.105693	0.214968
	H38	H	0.332611	0.101436	0.782828
	H39	H	0.659516	0.900731	0.782040
	H40	H	0.896731	0.216888	0.332951
	H41	H	0.097161	0.219275	0.658842
	H42	H	0.095192	0.787619	0.332696
	H43	H	0.895821	0.786563	0.658334
	H44	H	0.211532	0.339459	0.895376
	H45	H	0.210942	0.667663	0.095153
	H46	H	0.783203	0.338061	0.091260
	H47	H	0.783291	0.668029	0.899312
	H48	H	0.409869	0.114604	0.582521
	H49	H	0.590395	0.883338	0.593005
	H50	H	0.584457	0.119617	0.405371
	H51	H	0.400606	0.885309	0.405259
	H52	H	0.595557	0.405361	0.116675
	H53	H	0.586004	0.598544	0.881515
	H54	H	0.402404	0.593185	0.112534
	H55	H	0.404258	0.403626	0.880075
	H56	H	0.110929	0.585579	0.405042
	H57	H	0.877544	0.592421	0.593917
	H58	H	0.114801	0.404538	0.584682
	H59	H	0.878457	0.407460	0.403041
	H60	H	0.110531	0.418842	0.583765
	H61	H	0.876948	0.601523	0.585907
	H62	H	0.116890	0.599383	0.395731
	H63	H	0.880661	0.411347	0.403327
	H64	H	0.409656	0.597003	0.112339
	H65	H	0.591267	0.599624	0.879699
	H66	H	0.593013	0.419463	0.111533
	H67	H	0.400283	0.410226	0.879884
	H68	H	0.589113	0.118719	0.410965
	H69	H	0.585214	0.885551	0.591700
	H70	H	0.392734	0.123074	0.592191
	H71	H	0.404053	0.884636	0.399143
	H72	H	0.911579	0.617583	0.092030
	H73	H	0.090462	0.383545	0.098170
	H74	H	0.081171	0.618248	0.902223
	H75	H	0.905640	0.386423	0.900666
	H76	H	0.094207	0.914209	0.613065
	H77	H	0.093177	0.083999	0.382167
	H78	H	0.902954	0.099242	0.614509
	H79	H	0.898880	0.908198	0.378307
	H80	H	0.612098	0.092518	0.909236
	H81	H	0.378560	0.102367	0.086809
	H82	H	0.613625	0.911625	0.088294
	H83	H	0.378469	0.903474	0.911306
	H84	H	0.612344	0.916202	0.087789
	H85	H	0.381102	0.090064	0.089999
	H86	H	0.615365	0.093447	0.901581
	H87	H	0.381941	0.920068	0.906790
	H88	H	0.903323	0.093012	0.611291
	H89	H	0.078742	0.101259	0.381461
	H90	H	0.082992	0.910923	0.610843
	H91	H	0.903332	0.913308	0.380786
	H92	H	0.091957	0.618169	0.911741
	H93	H	0.082422	0.388687	0.085848
	H94	H	0.904231	0.618099	0.083879
	H95	H	0.901817	0.386962	0.902952
	H96	H	0.410719	0.120934	0.602718
	H97	H	0.589117	0.886555	0.587809
	H98	H	0.591143	0.120731	0.404740
	H99	H	0.407880	0.887773	0.404886
	H100	H	0.581962	0.408930	0.111558
	H101	H	0.590191	0.594773	0.881513
	H102	H	0.402387	0.600466	0.114469
	H103	H	0.407923	0.410468	0.882329
	H104	H	0.112914	0.601176	0.412527
	H105	H	0.881933	0.589997	0.582631
	H106	H	0.116523	0.412616	0.597437
	H107	H	0.878592	0.409791	0.399955
	H108	H	0.900632	0.621909	0.093724
	H109	H	0.096859	0.385071	0.084676
	H110	H	0.094241	0.623163	0.898530
	H111	H	0.900682	0.385783	0.899315
	H112	H	0.091129	0.903139	0.614881
	H113	H	0.100128	0.104269	0.374790
	H114	H	0.908760	0.096703	0.611000
	H115	H	0.905691	0.905811	0.379909
	H116	H	0.615986	0.099747	0.906727
	H117	H	0.376020	0.098886	0.099255
	H118	H	0.613818	0.914902	0.092086
	H119	H	0.375543	0.908910	0.894902
	C120	C	0.375211	0.011036	0.619863
	C121	C	0.618307	0.993249	0.620138
	C122	C	0.617297	0.011553	0.377013
	C123	C	0.375304	0.994222	0.375741
	C124	C	0.618329	0.381907	0.005329
	C125	C	0.619047	0.626598	0.988532
	C126	C	0.375285	0.625676	0.005464
	C127	C	0.374897	0.380604	0.988918
	C128	C	0.004973	0.623755	0.374954
	C129	C	0.987277	0.625021	0.617498
	C130	C	0.005500	0.382421	0.616952
	C131	C	0.987973	0.380793	0.373795
	C132	C	0.875588	0.511140	0.117863
	C133	C	0.118743	0.494309	0.118624
	C134	C	0.118028	0.511724	0.874429
	C135	C	0.874312	0.494872	0.873660
	C136	C	0.118172	0.880773	0.504983
	C137	C	0.119298	0.125274	0.487655
	C138	C	0.875125	0.124368	0.504825
	C139	C	0.874078	0.880077	0.487544
	C140	C	0.505337	0.123624	0.876700
	C141	C	0.487413	0.126237	0.120449
	C142	C	0.505260	0.883886	0.118393
	C143	C	0.487595	0.881637	0.875920
	C144	C	0.376703	0.887593	0.674140
	C145	C	0.617929	0.116266	0.676594
	C146	C	0.616630	0.889027	0.318940
	C147	C	0.376774	0.117974	0.321791
	C148	C	0.671773	0.384513	0.881761
	C149	C	0.674553	0.623507	0.111210
	C150	C	0.319724	0.622726	0.882797
	C151	C	0.320094	0.385091	0.111848
	C152	C	0.881013	0.678733	0.376097
	C153	C	0.111029	0.680787	0.615880
	C154	C	0.881483	0.326476	0.614237
	C155	C	0.112063	0.326352	0.376193
	C156	C	0.881456	0.383651	0.671404
	C157	C	0.110320	0.624787	0.674527
	C158	C	0.881176	0.621463	0.318862
	C159	C	0.111945	0.382854	0.318679
	C160	C	0.376856	0.681102	0.883114
	C161	C	0.617544	0.682385	0.111224
	C162	C	0.616096	0.325054	0.882771
	C163	C	0.377292	0.326911	0.112087
	C164	C	0.671771	0.887574	0.378574
	C165	C	0.674962	0.116381	0.618567
	C166	C	0.319735	0.887576	0.615793
	C167	C	0.320556	0.117895	0.379477
	C168	C	0.877371	0.387454	0.171766
	C169	C	0.117598	0.617318	0.175107
	C170	C	0.115784	0.388746	0.818169
	C171	C	0.875856	0.617917	0.818647
	C172	C	0.173475	0.883154	0.382077
	C173	C	0.173183	0.121885	0.611293
	C174	C	0.818664	0.120670	0.382058
	C175	C	0.819666	0.882883	0.610665
	C176	C	0.381191	0.177584	0.879370
	C177	C	0.611964	0.180608	0.117235
	C178	C	0.381419	0.827402	0.116435
	C179	C	0.611395	0.827017	0.878119
	C180	C	0.381120	0.885029	0.173340
	C181	C	0.611376	0.124931	0.176276
	C182	C	0.381660	0.121081	0.821247
	C183	C	0.610744	0.882230	0.820046
	C184	C	0.876834	0.178766	0.381782
	C185	C	0.117007	0.180978	0.610415
	C186	C	0.115586	0.825510	0.381770
	C187	C	0.876255	0.824787	0.610001
	C188	C	0.173371	0.388497	0.875777
	C189	C	0.173627	0.618333	0.116188
	C190	C	0.820388	0.387328	0.113262
	C191	C	0.820054	0.618604	0.877623
	C192	C	0.397678	0.097191	0.598639
	C193	C	0.595151	0.907558	0.597491
	C194	C	0.594952	0.097361	0.400245
	C195	C	0.397532	0.908130	0.396766
	C196	C	0.596668	0.404620	0.091095
	C197	C	0.596008	0.604321	0.903038
	C198	C	0.398008	0.603537	0.091109
	C199	C	0.397272	0.401779	0.902994
	C200	C	0.091190	0.601711	0.397653
	C201	C	0.901117	0.601534	0.594291
	C202	C	0.091729	0.405302	0.595012
	C203	C	0.901626	0.402932	0.395690
	C204	C	0.898595	0.597016	0.096156
	C205	C	0.096451	0.408158	0.095999
	C206	C	0.095667	0.597603	0.897319
	C207	C	0.896305	0.408716	0.894725
	C208	C	0.096114	0.902957	0.590750
	C209	C	0.097207	0.103043	0.401696
	C210	C	0.898215	0.102718	0.590274
	C211	C	0.896231	0.902614	0.401856
	C212	C	0.592057	0.101676	0.899272
	C213	C	0.401058	0.103755	0.098492
	C214	C	0.590950	0.907357	0.096107
	C215	C	0.400949	0.904192	0.897922
	Zn216	Zn	0.496506	0.001807	0.748827
	Zn217	Zn	0.496360	0.003873	0.247849
	Zn218	Zn	0.747072	0.503137	-0.004109
	Zn219	Zn	0.246497	0.502966	-0.003078
	Zn220	Zn	-0.004118	0.752435	0.495807
	Zn221	Zn	-0.002538	0.254219	0.495635
	Zn222	Zn	-0.004036	0.503446	0.745468
	Zn223	Zn	-0.003304	0.502360	0.246841
	Zn224	Zn	0.496510	0.755645	-0.002942
	Zn225	Zn	0.496501	0.252607	-0.002417
	Zn226	Zn	0.746132	0.001652	0.497728
	Zn227	Zn	0.247380	0.002951	0.497082
	N228	N	0.410541	0.965396	0.676556
	N229	N	0.583696	0.038682	0.678127
	N230	N	0.583417	0.966985	0.317732
	N231	N	0.410039	0.040170	0.319239
	N232	N	0.673115	0.419345	0.958717
	N233	N	0.675583	0.589399	0.033932
	N234	N	0.318671	0.588862	0.959847
	N235	N	0.318586	0.417818	0.034229
	N236	N	0.959001	0.680280	0.410319
	N237	N	0.033405	0.681016	0.581217
	N238	N	0.959600	0.325478	0.581058
	N239	N	0.034040	0.325001	0.409766
	N240	N	0.959282	0.418095	0.672966
	N241	N	0.032274	0.590836	0.675650
	N242	N	0.959158	0.587807	0.318183
	N243	N	0.033703	0.415929	0.316909
	N244	N	0.410705	0.683090	0.960548
	N245	N	0.583816	0.684579	0.033908
	N246	N	0.583471	0.323280	0.960606
	N247	N	0.410627	0.324140	0.034535
	N248	N	0.672517	0.964703	0.413842
	N249	N	0.675176	0.039195	0.583964
	N250	N	0.318638	0.965352	0.582729
	N251	N	0.319449	0.040061	0.412576
	N252	N	0.911066	0.465325	0.174477
	N253	N	0.084240	0.539302	0.176713
	N254	N	0.082107	0.466510	0.817090
	N255	N	0.908962	0.540086	0.816183
	N256	N	0.175227	0.916951	0.459596
	N257	N	0.174714	0.087914	0.533978
	N258	N	0.817599	0.087448	0.459500
	N259	N	0.818246	0.916609	0.533496
	N260	N	0.459330	0.179238	0.913084
	N261	N	0.534109	0.181645	0.083482
	N262	N	0.459477	0.826433	0.083145
	N263	N	0.533748	0.826697	0.912345
	N264	N	0.458984	0.919570	0.174710
	N265	N	0.533012	0.091721	0.178407
	N266	N	0.460144	0.088512	0.819172
	N267	N	0.532588	0.915523	0.818662
	N268	N	0.911310	0.181227	0.459028
	N269	N	0.084269	0.183203	0.532438
	N270	N	0.081791	0.824091	0.459084
	N271	N	0.909225	0.822854	0.532427
	N272	N	0.175167	0.465981	0.910029
	N273	N	0.174845	0.540763	0.081898
	N274	N	0.819331	0.465193	0.080319
	N275	N	0.818945	0.541042	0.911160
	O276	O	0.016040	-0.043046	-0.093823
	H277	H	0.020858	-0.054362	-0.099160
	H278	H	0.010756	-0.036421	-0.095323
	O279	O	0.425409	0.504162	0.482261
	H280	H	0.415134	0.504492	0.482751
	H281	H	0.427871	0.494882	0.473081
	O282	O	0.515216	0.417153	0.456122
	H283	H	0.516960	0.417714	0.451283
	H284	H	0.507850	0.431779	0.444399
	O285	O	-0.061966	0.969809	1.017464
	H286	H	-0.067204	0.977103	1.007601
	H287	H	-0.066971	0.970643	1.018048
	O288	O	0.479392	0.528838	0.454815
	H289	H	0.465442	0.536267	0.452476
	H290	H	0.482525	0.520632	0.445654
	O291	O	0.992521	1.058591	0.969813
	H292	H	0.993096	1.049543	0.972872
	H293	H	0.994864	1.062465	0.980818
	O294	O	1.006437	1.084400	0.952847
	H295	H	1.004107	1.091646	0.963226
	H296	H	1.000632	1.090431	0.962133
	O297	O	0.924010	-0.018046	0.950032
	H298	H	0.927819	-0.022963	0.961665
	H299	H	0.934068	-0.012359	0.952188
	O300	O	0.524156	0.598597	0.602772
	H301	H	0.528275	0.598897	0.596167
	H302	H	0.529866	0.605308	0.610280
	O303	O	0.973279	-0.116430	0.032701
	H304	H	0.968703	-0.123258	0.026229
	H305	H	0.967319	-0.112353	0.017627
	O306	O	0.044281	1.010240	0.970044
	H307	H	0.050344	1.021055	0.974190
	H308	H	0.050002	1.014589	0.958688
	O309	O	0.574500	0.423388	0.444361
	H310	H	0.576679	0.428028	0.438032
	H311	H	0.576604	0.421793	0.448681
	O312	O	0.957784	0.039625	0.958428
	H313	H	0.955802	0.047965	0.954998
	H314	H	0.963491	0.037161	0.948057
	O315	O	0.491802	0.526349	0.553991
	H316	H	0.482103	0.524235	0.560783
	H317	H	0.493018	0.512980	0.554275
	O318	O	0.516846	0.524003	0.577035
	H319	H	0.524630	0.509958	0.580155
	H320	H	0.515488	0.520374	0.574894
	O321	O	0.948925	1.025890	1.049894
	H322	H	0.943715	1.023053	1.042337
	H323	H	0.947922	1.015873	1.043588
	O324	O	0.541684	0.450444	0.597674
	H325	H	0.540052	0.460548	0.599133
	H326	H	0.559960	0.440570	0.594901
	O327	O	0.507085	0.511993	0.499607
	H328	H	0.506843	0.512661	0.515198
	H329	H	0.503493	0.518907	0.503622
	O330	O	1.002062	-0.034078	1.022331
	H331	H	1.004634	-0.031795	1.030325
	H332	H	1.004623	-0.049829	1.027201
	O333	O	1.065068	1.062755	0.029188
	H334	H	1.059384	1.060354	0.039120
	H335	H	1.068225	1.058508	0.043331
	O336	O	0.622731	0.377950	0.456478
	H337	H	0.631504	0.370914	0.456243
	H338	H	0.616934	0.386332	0.446447
	O339	O	0.499390	0.390157	0.556887
	H340	H	0.500332	0.388661	0.556332
	H341	H	0.508473	0.393556	0.554749
	O342	O	-0.032365	0.925557	-0.029028
	H343	H	-0.028777	0.924264	-0.042440
	H344	H	-0.031510	0.927490	-0.026439
	O345	O	0.050610	-0.062199	0.044822
	H346	H	0.045928	-0.063997	0.044475
	H347	H	0.054592	-0.072871	0.037400
	O348	O	0.464666	0.550979	0.489205
	H349	H	0.465164	0.560662	0.506349
	H350	H	0.451241	0.545304	0.487893
	O351	O	0.562280	0.564295	0.459767
	H352	H	0.564906	0.568044	0.464097
	H353	H	0.547851	0.573011	0.457815
	O354	O	0.425505	0.611871	0.484308
	H355	H	0.431091	0.613762	0.495198
	H356	H	0.418765	0.604845	0.496584
	O357	O	0.574961	0.546790	0.482540
	H358	H	0.576235	0.539371	0.474732
	H359	H	0.581396	0.542535	0.477494
	O360	O	0.017780	-0.006450	-0.014671
	H361	H	0.016434	-0.001480	-0.014759
	H362	H	0.010558	-0.006846	-0.009510
	O363	O	0.399776	0.519020	0.436010
	H364	H	0.393996	0.512804	0.432491
	H365	H	0.400252	0.513967	0.428760
	O366	O	0.065947	-0.025321	0.981910
	H367	H	0.065971	-0.027353	0.981979
	H368	H	0.070213	-0.032742	0.984205
	O369	O	0.397565	0.450128	0.474685
	H370	H	0.399488	0.435092	0.483070
	H371	H	0.402398	0.446152	0.487256
