data_Molecule from HDF5

_cell_length_a		16.592481
_cell_length_b		16.551905
_cell_length_c		16.478358
_cell_angle_alpha	90.109574
_cell_angle_beta	89.995482
_cell_angle_gamma	89.938151
_symmetry_space_group_name_H-M	'P 1'
_symmetry_Int_Tables_number		1

loop_
	_symmetry_equiv_pos_as_xyz
	x,y,z

loop_
	_atom_site_label
	_atom_site_type_symbol
	_atom_site_fract_x
	_atom_site_fract_y
	_atom_site_fract_z
	H0	H	0.411844	0.828244	0.742652
	H1	H	0.619473	0.143329	0.745001
	H2	H	0.618523	0.828350	0.303360
	H3	H	0.412715	0.144522	0.303590
	H4	H	0.736205	0.381806	0.865821
	H5	H	0.733801	0.588393	0.181535
	H6	H	0.296426	0.587832	0.864365
	H7	H	0.294454	0.381933	0.180221
	H8	H	0.859009	0.706746	0.419769
	H9	H	0.172464	0.707021	0.627904
	H10	H	0.858385	0.266604	0.626066
	H11	H	0.170784	0.262677	0.416123
	H12	H	0.857638	0.385081	0.741710
	H13	H	0.173125	0.589240	0.743488
	H14	H	0.858165	0.588560	0.305196
	H15	H	0.171455	0.381391	0.301746
	H16	H	0.412601	0.704409	0.864405
	H17	H	0.615691	0.703858	0.181723
	H18	H	0.619921	0.264908	0.865678
	H19	H	0.411276	0.266496	0.180553
	H20	H	0.735943	0.829344	0.418697
	H21	H	0.737280	0.142466	0.629911
	H22	H	0.294296	0.830038	0.628248
	H23	H	0.295506	0.144857	0.419882
	H24	H	0.913872	0.329261	0.241625
	H25	H	0.119460	0.642982	0.244072
	H26	H	0.122089	0.329483	0.799111
	H27	H	0.913981	0.644574	0.805340
	H28	H	0.235149	0.883865	0.365491
	H29	H	0.237938	0.093305	0.681179
	H30	H	0.794881	0.089768	0.366312
	H31	H	0.794829	0.881939	0.680755
	H32	H	0.359876	0.211901	0.914539
	H33	H	0.673054	0.206323	0.126045
	H34	H	0.357506	0.766707	0.127308
	H35	H	0.671799	0.766480	0.920526
	H36	H	0.357331	0.884851	0.242321
	H37	H	0.672753	0.089022	0.242430
	H38	H	0.357593	0.091429	0.801571
	H39	H	0.672128	0.883533	0.804364
	H40	H	0.911356	0.205806	0.365992
	H41	H	0.120497	0.208777	0.681314
	H42	H	0.117569	0.768228	0.364576
	H43	H	0.912627	0.766310	0.681093
	H44	H	0.240396	0.330651	0.913328
	H45	H	0.237065	0.642175	0.128636
	H46	H	0.797725	0.328524	0.124373
	H47	H	0.796414	0.643963	0.920256
	H48	H	0.424028	0.098841	0.610928
	H49	H	0.601069	0.874981	0.614452
	H50	H	0.605099	0.098934	0.432229
	H51	H	0.421190	0.873862	0.435485
	H52	H	0.610957	0.398579	0.137551
	H53	H	0.604879	0.575039	0.910207
	H54	H	0.425332	0.574232	0.134961
	H55	H	0.425242	0.398161	0.909555
	H56	H	0.126751	0.572505	0.434949
	H57	H	0.905108	0.581157	0.605775
	H58	H	0.129007	0.394029	0.613973
	H59	H	0.900803	0.393091	0.430797
	H60	H	0.125923	0.396662	0.605985
	H61	H	0.906567	0.568656	0.613322
	H62	H	0.129599	0.576964	0.430133
	H63	H	0.905192	0.395477	0.438309
	H64	H	0.426134	0.578246	0.136814
	H65	H	0.605708	0.577327	0.908686
	H66	H	0.603327	0.398896	0.134735
	H67	H	0.428986	0.402674	0.912798
	H68	H	0.603956	0.098055	0.435102
	H69	H	0.604033	0.875817	0.608222
	H70	H	0.426181	0.098849	0.614664
	H71	H	0.425217	0.872905	0.429428
	H72	H	0.914715	0.602327	0.111973
	H73	H	0.100218	0.373558	0.116211
	H74	H	0.108544	0.595567	0.939609
	H75	H	0.928056	0.373224	0.928707
	H76	H	0.107860	0.904579	0.634281
	H77	H	0.105587	0.074858	0.411353
	H78	H	0.927475	0.075332	0.635952
	H79	H	0.928830	0.891376	0.409922
	H80	H	0.629218	0.081646	0.932459
	H81	H	0.402862	0.076305	0.113263
	H82	H	0.627555	0.896489	0.113614
	H83	H	0.401633	0.895125	0.931279
	H84	H	0.628318	0.893594	0.115199
	H85	H	0.403114	0.077406	0.108960
	H86	H	0.623353	0.074717	0.940538
	H87	H	0.401141	0.893459	0.931898
	H88	H	0.926346	0.076044	0.636929
	H89	H	0.104561	0.073265	0.412272
	H90	H	0.097644	0.896633	0.634852
	H91	H	0.919529	0.896380	0.408053
	H92	H	0.106378	0.600018	0.929531
	H93	H	0.101138	0.376926	0.105276
	H94	H	0.926267	0.602021	0.123068
	H95	H	0.926249	0.375035	0.936646
	H96	H	0.428094	0.097304	0.611297
	H97	H	0.607570	0.872773	0.613525
	H98	H	0.607127	0.098838	0.434872
	H99	H	0.427727	0.876400	0.435142
	H100	H	0.606343	0.391882	0.137320
	H101	H	0.607246	0.575327	0.909495
	H102	H	0.422021	0.576471	0.137117
	H103	H	0.431327	0.396855	0.911428
	H104	H	0.128090	0.578838	0.436638
	H105	H	0.900373	0.580532	0.619296
	H106	H	0.126198	0.402727	0.612747
	H107	H	0.904713	0.401318	0.431580
	H108	H	0.929443	0.596418	0.108279
	H109	H	0.109984	0.372083	0.110277
	H110	H	0.098329	0.594444	0.935284
	H111	H	0.920468	0.371551	0.931082
	H112	H	0.109295	0.892491	0.639228
	H113	H	0.103884	0.075467	0.412729
	H114	H	0.926171	0.074748	0.635776
	H115	H	0.927210	0.901377	0.412394
	H116	H	0.624957	0.070538	0.929242
	H117	H	0.405206	0.073896	0.110485
	H118	H	0.627316	0.893469	0.111815
	H119	H	0.401242	0.894716	0.933209
	C120	C	0.394140	-0.005422	0.644124
	C121	C	0.636697	0.977658	0.645215
	C122	C	0.636823	-0.005359	0.402177
	C123	C	0.393557	0.978574	0.401930
	C124	C	0.637699	0.364462	0.031842
	C125	C	0.636077	0.606512	1.014662
	C126	C	0.393619	0.607283	0.031375
	C127	C	0.395044	0.366121	1.014582
	C128	C	0.024233	0.607149	0.402752
	C129	C	1.007256	0.608479	0.645165
	C130	C	0.023506	0.365832	0.643227
	C131	C	1.006619	0.363890	0.401149
	C132	C	0.893452	0.495584	0.145170
	C133	C	0.136188	0.477795	0.143644
	C134	C	0.136814	0.493810	0.901395
	C135	C	0.893787	0.477659	0.901280
	C136	C	0.136490	0.866229	0.531794
	C137	C	0.137102	0.107799	0.515733
	C138	C	0.894572	0.107003	0.532192
	C139	C	0.893966	0.864710	0.514725
	C140	C	0.522959	0.108501	0.901051
	C141	C	0.507688	0.107269	0.143100
	C142	C	0.523560	0.863908	0.145067
	C143	C	0.505890	0.864434	0.901833
	C144	C	0.392462	0.876209	0.703664
	C145	C	0.638454	0.095895	0.705208
	C146	C	0.637773	0.875964	0.342840
	C147	C	0.393348	0.097282	0.343068
	C148	C	0.696441	0.363081	0.912886
	C149	C	0.694148	0.607355	0.134103
	C150	C	0.335823	0.607234	0.911796
	C151	C	0.334749	0.363532	0.132796
	C152	C	0.906041	0.666447	0.401599
	C153	C	0.125415	0.667471	0.646902
	C154	C	0.905328	0.306463	0.645047
	C155	C	0.123959	0.303261	0.398157
	C156	C	0.904912	0.365385	0.702133
	C157	C	0.125664	0.608927	0.704135
	C158	C	0.905676	0.607881	0.344368
	C159	C	0.124401	0.362271	0.341271
	C160	C	0.393661	0.665007	0.911773
	C161	C	0.635681	0.664687	0.134223
	C162	C	0.638698	0.305044	0.912966
	C163	C	0.392520	0.306020	0.133039
	C164	C	0.696150	0.876411	0.400199
	C165	C	0.697159	0.095474	0.648089
	C166	C	0.334110	0.876748	0.646599
	C167	C	0.335168	0.097338	0.400879
	C168	C	0.893988	0.376433	0.202811
	C169	C	0.138216	0.595853	0.204150
	C170	C	0.140454	0.376586	0.839630
	C171	C	0.894160	0.596907	0.843931
	C172	C	0.195419	0.864803	0.412695
	C173	C	0.197367	0.111100	0.634121
	C174	C	0.834860	0.108722	0.413464
	C175	C	0.834648	0.863275	0.633484
	C176	C	0.406125	0.170511	0.897273
	C177	C	0.625748	0.166701	0.145054
	C178	C	0.404761	0.806043	0.146210
	C179	C	0.624458	0.805949	0.901057
	C180	C	0.404720	0.864771	0.203291
	C181	C	0.625584	0.108447	0.202878
	C182	C	0.405094	0.110646	0.841128
	C183	C	0.624636	0.864019	0.843283
	C184	C	0.892748	0.166173	0.413309
	C185	C	0.139037	0.168540	0.634253
	C186	C	0.137341	0.807309	0.412391
	C187	C	0.892895	0.805692	0.633653
	C188	C	0.199133	0.377084	0.896517
	C189	C	0.196447	0.595410	0.146698
	C190	C	0.836372	0.376154	0.144578
	C191	C	0.835783	0.596505	0.901212
	C192	C	0.418898	0.076865	0.619328
	C193	C	0.611517	0.895838	0.619478
	C194	C	0.612416	0.077146	0.427128
	C195	C	0.417845	0.896071	0.426446
	C196	C	0.613554	0.389258	0.114935
	C197	C	0.612680	0.582683	0.931272
	C198	C	0.417632	0.583276	0.114687
	C199	C	0.420996	0.391840	0.932560
	C200	C	0.106709	0.582940	0.426888
	C201	C	0.925294	0.583988	0.620169
	C202	C	0.105735	0.390750	0.618157
	C203	C	0.924824	0.389118	0.426470
	C204	C	0.916909	0.578533	0.121451
	C205	C	0.111089	0.395647	0.117957
	C206	C	0.111415	0.575337	0.927428
	C207	C	0.917865	0.394668	0.925273
	C208	C	0.111860	0.890835	0.614544
	C209	C	0.112019	0.081937	0.433613
	C210	C	0.919447	0.082340	0.614744
	C211	C	0.918249	0.889161	0.431657
	C212	C	0.604588	0.083055	0.926764
	C213	C	0.425295	0.082941	0.118085
	C214	C	0.606175	0.887591	0.120489
	C215	C	0.422958	0.887733	0.925318
	Zn216	Zn	0.514496	-0.013768	0.773056
	Zn217	Zn	0.515419	-0.013713	0.273035
	Zn218	Zn	0.765268	0.486200	0.023046
	Zn219	Zn	0.265365	0.485769	0.022529
	Zn220	Zn	0.016069	0.736916	0.523332
	Zn221	Zn	0.015184	0.235786	0.523342
	Zn222	Zn	0.015472	0.486259	0.773040
	Zn223	Zn	0.015710	0.486549	0.272898
	Zn224	Zn	0.514411	0.735256	0.023238
	Zn225	Zn	0.515220	0.236986	0.023158
	Zn226	Zn	0.765955	-0.013784	0.523372
	Zn227	Zn	0.265227	-0.013178	0.523820
	N228	N	0.428958	0.950554	0.702248
	N229	N	0.601721	0.021645	0.703630
	N230	N	0.601429	0.950537	0.343894
	N231	N	0.428919	0.022403	0.343488
	N232	N	0.695959	0.399202	0.987940
	N233	N	0.694569	0.572169	0.058701
	N234	N	0.335331	0.572394	0.987385
	N235	N	0.336079	0.399931	0.057993
	N236	N	0.980806	0.666089	0.437267
	N237	N	0.050814	0.667489	0.611030
	N238	N	0.980261	0.306545	0.609518
	N239	N	0.049572	0.304098	0.434576
	N240	N	0.979516	0.401195	0.701367
	N241	N	0.051136	0.572932	0.703214
	N242	N	0.980151	0.571668	0.344969
	N243	N	0.050340	0.399185	0.342803
	N244	N	0.428493	0.665168	0.987344
	N245	N	0.600244	0.664486	0.058872
	N246	N	0.602882	0.305968	0.988028
	N247	N	0.429383	0.307386	0.058478
	N248	N	0.695632	0.951201	0.436332
	N249	N	0.696163	0.021105	0.611137
	N250	N	0.334839	0.951471	0.610398
	N251	N	0.335035	0.022350	0.436470
	N252	N	0.928548	0.451810	0.203423
	N253	N	0.101594	0.521517	0.202526
	N254	N	0.102094	0.450014	0.842601
	N255	N	0.929386	0.521738	0.843770
	N256	N	0.195104	0.900614	0.487909
	N257	N	0.196323	0.074287	0.559434
	N258	N	0.835748	0.072587	0.488381
	N259	N	0.835142	0.899079	0.558424
	N260	N	0.480523	0.169375	0.933796
	N261	N	0.551325	0.166061	0.108717
	N262	N	0.479797	0.805168	0.110766
	N263	N	0.549662	0.805841	0.936516
	N264	N	0.479677	0.899776	0.202963
	N265	N	0.551140	0.072194	0.201773
	N266	N	0.478696	0.072960	0.843239
	N267	N	0.549727	0.899467	0.843523
	N268	N	0.929044	0.165327	0.488148
	N269	N	0.102361	0.166875	0.559560
	N270	N	0.101588	0.807949	0.487579
	N271	N	0.929024	0.806546	0.558682
	N272	N	0.197011	0.450909	0.934429
	N273	N	0.195394	0.520982	0.109769
	N274	N	0.835669	0.451307	0.109614
	N275	N	0.835395	0.521209	0.936081
	O276	O	1.030685	1.159129	0.158379
	H277	H	1.032973	1.173125	0.168852
	H278	H	1.023764	1.146193	0.155202
	O279	O	0.511238	0.575662	0.646188
	H280	H	0.517870	0.566927	0.647279
	H281	H	0.517498	0.558278	0.641458
	O282	O	0.993452	0.155195	0.091156
	H283	H	0.996858	0.149740	0.088602
	H284	H	1.002095	0.156264	0.087728
	O285	O	-0.158251	1.147828	0.193700
	H286	H	-0.135613	1.137812	0.169436
	H287	H	-0.147198	1.118352	0.195965
	O288	O	1.008445	0.110614	1.104017
	H289	H	1.018755	0.102436	1.106287
	H290	H	1.005324	0.113389	1.097066
	O291	O	0.221427	0.189673	0.225788
	H292	H	0.218603	0.212754	0.242418
	H293	H	0.219408	0.206978	0.209083
	O294	O	0.056935	-0.134741	0.215570
	H295	H	0.054647	-0.140908	0.206304
	H296	H	0.050236	-0.121362	0.209699
	O297	O	0.518973	0.269533	0.524616
	H298	H	0.498891	0.264403	0.526912
	H299	H	0.506625	0.270097	0.511946
	O300	O	-0.072776	-0.166112	0.016591
	H301	H	-0.063337	-0.169897	0.009958
	H302	H	-0.070075	-0.164009	0.013550
	O303	O	0.041204	-0.176047	-0.118645
	H304	H	0.029428	-0.169663	-0.125462
	H305	H	0.043525	-0.175609	-0.122743
	O306	O	0.634230	0.686863	-0.588049
	H307	H	0.632471	0.671021	-0.575612
	H308	H	0.632430	0.682724	-0.578878
	O309	O	1.230471	0.200210	0.048282
	H310	H	1.231564	0.195590	0.047634
	H311	H	1.239683	0.216035	0.055591
	O312	O	0.493255	0.268124	0.725366
	H313	H	0.498028	0.287165	0.734699
	H314	H	0.493062	0.251998	0.752331
	O315	O	0.481603	0.515471	0.729605
	H316	H	0.483651	0.519560	0.714750
	H317	H	0.480543	0.535683	0.734600
	O318	O	1.118174	0.927311	0.152492
	H319	H	1.128028	0.918427	0.165403
	H320	H	1.121326	0.905711	0.144381
	O321	O	0.096426	0.852996	1.148816
	H322	H	0.108755	0.850314	1.157208
	H323	H	0.098731	0.862874	1.130820
	O324	O	1.198655	0.083566	0.912276
	H325	H	1.194805	0.057732	0.934432
	H326	H	1.189641	0.102134	0.928861
	O327	O	0.657133	0.375876	0.504600
	H328	H	0.623475	0.362127	0.517884
	H329	H	0.675378	0.373146	0.507764
	O330	O	-0.349006	1.271059	0.516274
	H331	H	-0.374214	1.277828	0.492916
	H332	H	-0.351858	1.260731	0.532059
	O333	O	0.272848	0.707626	0.737469
	H334	H	0.283213	0.700936	0.717649
	H335	H	0.269234	0.721292	0.728409
	O336	O	-0.024903	1.074299	-0.191930
	H337	H	-0.014776	1.090460	-0.201227
	H338	H	-0.036291	1.088874	-0.187634
	O339	O	-0.193158	0.935425	0.002449
	H340	H	-0.178928	0.927491	0.005305
	H341	H	-0.196573	0.946172	0.002511
	O342	O	-0.198226	0.776005	0.056669
	H343	H	-0.200512	0.768679	0.056406
	H344	H	-0.201754	0.778153	0.052056
	O345	O	0.420069	0.425816	0.323332
	H346	H	0.441234	0.398177	0.318518
	H347	H	0.426310	0.421353	0.328682
	O348	O	0.501751	0.635219	0.353890
	H349	H	0.508398	0.632242	0.351108
	H350	H	0.510799	0.633580	0.357937
	O351	O	0.133692	-0.222885	0.814751
	H352	H	0.127869	-0.222350	0.804239
	H353	H	0.142721	-0.217581	0.804844
	O354	O	0.751880	0.249564	1.286669
	H355	H	0.780697	0.230543	1.264929
	H356	H	0.765270	0.258437	1.291198
	O357	O	-0.149576	0.737515	-0.083461
	H358	H	-0.154235	0.741805	-0.077012
	H359	H	-0.148674	0.739881	-0.082015
	O360	O	0.292564	0.223764	0.791872
	H361	H	0.277258	0.232216	0.802083
	H362	H	0.309829	0.224181	0.802934
	O363	O	0.573913	0.476213	0.484340
	H364	H	0.574480	0.471852	0.478403
	H365	H	0.580884	0.474546	0.480983
	O366	O	0.952077	-0.126516	0.993048
	H367	H	0.959926	-0.117360	0.992937
	H368	H	0.953217	-0.126610	1.006261
	O369	O	-0.001594	-0.229136	1.193658
	H370	H	-0.004009	-0.228134	1.185572
	H371	H	0.009815	-0.245561	1.202537
	O372	O	0.219970	0.940517	0.812982
	H373	H	0.230604	0.951449	0.806452
	H374	H	0.228861	0.956288	0.827796
	O375	O	0.727881	0.600064	-0.357953
	H376	H	0.737658	0.597305	-0.357476
	H377	H	0.721726	0.613229	-0.369935
	O378	O	0.387186	0.291027	0.386023
	H379	H	0.405949	0.294884	0.392999
	H380	H	0.404061	0.310558	0.391554
	O381	O	-0.184531	1.091503	-0.175026
	H382	H	-0.192498	1.108126	-0.161858
	H383	H	-0.181187	1.080159	-0.186098
	O384	O	0.964663	0.947067	-0.028319
	H385	H	0.966561	0.948326	-0.027921
	H386	H	0.968185	0.951667	-0.029262
	O387	O	-0.120253	1.192286	1.029990
	H388	H	-0.116537	1.193624	1.019042
	H389	H	-0.113707	1.196021	1.022915
	O390	O	-0.188903	0.869448	1.229652
	H391	H	-0.181843	0.866835	1.226347
	H392	H	-0.179798	0.857590	1.224940
	O393	O	0.952900	-0.037592	-0.072787
	H394	H	0.971036	-0.037089	-0.074876
	H395	H	0.954609	-0.040601	-0.086674
	O396	O	0.507461	0.470254	0.314092
	H397	H	0.521433	0.461309	0.304867
	H398	H	0.512877	0.469652	0.324085
	O399	O	0.728936	0.460714	0.548432
	H400	H	0.737234	0.448507	0.552062
	H401	H	0.716794	0.462767	0.558682
	O402	O	1.610152	0.707149	1.495468
	H403	H	1.610462	0.719775	1.494522
	H404	H	1.599653	0.690028	1.490176
	O405	O	0.727293	0.610902	0.727995
	H406	H	0.735757	0.639216	0.735236
	H407	H	0.739228	0.610230	0.720653
	O408	O	0.800763	0.207370	-0.135721
	H409	H	0.786588	0.219501	-0.143130
	H410	H	0.787411	0.211666	-0.120741
	O411	O	0.566825	1.365466	-0.292284
	H412	H	0.567085	1.368798	-0.305704
	H413	H	0.546774	1.392806	-0.299114
	O414	O	0.025401	0.214814	-0.117268
	H415	H	0.018051	0.225361	-0.125173
	H416	H	0.011005	0.219652	-0.124122
	O417	O	0.557336	0.485809	0.661098
	H418	H	0.559922	0.501265	0.657404
	H419	H	0.569957	0.486506	0.665369
	O420	O	1.586461	-0.730146	0.312460
	H421	H	1.627277	-0.736755	0.313595
	H422	H	1.595906	-0.752255	0.298268
	O423	O	1.189813	0.936197	0.051088
	H424	H	1.186797	0.918454	0.054740
	H425	H	1.188656	0.923857	0.077591
	O426	O	0.686708	0.474785	0.310344
	H427	H	0.689843	0.478184	0.318567
	H428	H	0.693549	0.478430	0.297287
	O429	O	0.368306	0.572722	0.555574
	H430	H	0.382677	0.574946	0.555131
	H431	H	0.364233	0.585823	0.544171
	O432	O	1.294208	0.703744	1.495102
	H433	H	1.291966	0.708519	1.467472
	H434	H	1.282998	0.722251	1.468515
	O435	O	-0.091675	0.026915	0.208753
	H436	H	-0.083819	0.010666	0.215391
	H437	H	-0.100341	0.021313	0.220500
	O438	O	0.339468	0.425630	0.495925
	H439	H	0.342298	0.425662	0.520556
	H440	H	0.333702	0.412943	0.508759
	O441	O	0.483709	0.399387	0.402688
	H442	H	0.485519	0.377612	0.418016
	H443	H	0.496404	0.405719	0.382364
	O444	O	0.722881	0.635825	0.617640
	H445	H	0.721392	0.630306	0.577201
	H446	H	0.745522	0.644574	0.631613
	O447	O	0.305460	0.585976	0.315084
	H448	H	0.287592	0.565595	0.307820
	H449	H	0.301758	0.571205	0.312773
	O450	O	0.961113	0.034525	-0.170737
	H451	H	0.963162	0.037577	-0.172583
	H452	H	0.972485	0.034208	-0.179062
	O453	O	0.370308	0.692138	0.319620
	H454	H	0.389981	0.701335	0.310910
	H455	H	0.357694	0.660391	0.313195
	O456	O	-0.044099	0.931875	0.822527
	H457	H	-0.036896	0.940525	0.819119
	H458	H	-0.048167	0.941312	0.850762
	O459	O	0.296082	0.273456	0.545546
	H460	H	0.289217	0.264084	0.584960
	H461	H	0.295552	0.254283	0.552968
	O462	O	0.428314	0.609012	0.581122
	H463	H	0.440994	0.613399	0.591845
	H464	H	0.418399	0.626537	0.584306
	O465	O	0.314387	0.414078	0.716852
	H466	H	0.306832	0.439198	0.714967
	H467	H	0.328618	0.417954	0.722004
	O468	O	0.750249	1.720144	0.286564
	H469	H	0.725372	1.696627	0.307542
	H470	H	0.769202	1.731361	0.260461
	O471	O	0.547658	0.706333	0.743803
	H472	H	0.585347	0.699279	0.740193
	H473	H	0.560189	0.736066	0.772378
	O474	O	1.234197	1.025478	0.239137
	H475	H	1.230482	1.065946	0.235888
	H476	H	1.261646	1.036176	0.269011
	O477	O	0.239299	-0.241167	0.988506
	H478	H	0.258084	-0.250507	0.973259
	H479	H	0.253423	-0.253714	0.959487
