data_Molecule from HDF5

_cell_length_a		16.414813
_cell_length_b		16.225862
_cell_length_c		16.186012
_cell_angle_alpha	89.906434
_cell_angle_beta	89.740046
_cell_angle_gamma	89.994767
_symmetry_space_group_name_H-M	'P 1'
_symmetry_Int_Tables_number		1

loop_
	_symmetry_equiv_pos_as_xyz
	x,y,z

loop_
	_atom_site_label
	_atom_site_type_symbol
	_atom_site_fract_x
	_atom_site_fract_y
	_atom_site_fract_z
	H0	H	0.398024	0.834943	0.713646
	H1	H	0.592622	0.164273	0.709716
	H2	H	0.593720	0.834695	0.286172
	H3	H	0.401299	0.164977	0.287720
	H4	H	0.711763	0.401081	0.836166
	H5	H	0.709386	0.599043	0.164154
	H6	H	0.280932	0.600816	0.835667
	H7	H	0.280106	0.399291	0.163199
	H8	H	0.833191	0.714298	0.402723
	H9	H	0.157340	0.714891	0.599001
	H10	H	0.832805	0.283633	0.600090
	H11	H	0.157812	0.282960	0.399426
	H12	H	0.832897	0.400239	0.716805
	H13	H	0.158115	0.597667	0.713745
	H14	H	0.831872	0.595942	0.287396
	H15	H	0.157403	0.399633	0.282337
	H16	H	0.401151	0.712576	0.833804
	H17	H	0.591873	0.712314	0.164440
	H18	H	0.593582	0.288691	0.833993
	H19	H	0.397103	0.285624	0.163884
	H20	H	0.712768	0.835640	0.398507
	H21	H	0.712538	0.161607	0.599141
	H22	H	0.278574	0.835910	0.602272
	H23	H	0.278406	0.161776	0.396793
	H24	H	0.897694	0.334811	0.212219
	H25	H	0.091869	0.663644	0.212826
	H26	H	0.094865	0.335269	0.786717
	H27	H	0.900534	0.664024	0.787809
	H28	H	0.213088	0.897378	0.335854
	H29	H	0.211237	0.098447	0.663070
	H30	H	0.782636	0.099014	0.335413
	H31	H	0.779466	0.897835	0.663149
	H32	H	0.333529	0.216710	0.899954
	H33	H	0.658945	0.215135	0.095766
	H34	H	0.333966	0.784197	0.099787
	H35	H	0.658803	0.784388	0.898462
	H36	H	0.333428	0.902603	0.214463
	H37	H	0.659638	0.098963	0.212577
	H38	H	0.332918	0.099739	0.783468
	H39	H	0.658190	0.901417	0.782620
	H40	H	0.898750	0.212873	0.335072
	H41	H	0.092664	0.212020	0.664479
	H42	H	0.093696	0.785842	0.334923
	H43	H	0.898212	0.786203	0.664670
	H44	H	0.214010	0.337139	0.898673
	H45	H	0.212262	0.662285	0.101817
	H46	H	0.778833	0.337252	0.101652
	H47	H	0.780843	0.662736	0.899300
	H48	H	0.405942	0.111331	0.579783
	H49	H	0.583068	0.883641	0.592061
	H50	H	0.591771	0.115258	0.410776
	H51	H	0.397496	0.880785	0.408421
	H52	H	0.587277	0.408508	0.115581
	H53	H	0.582334	0.589053	0.885639
	H54	H	0.408018	0.600072	0.116499
	H55	H	0.405688	0.409442	0.883201
	H56	H	0.107949	0.585099	0.409319
	H57	H	0.882750	0.590165	0.588577
	H58	H	0.111862	0.406033	0.598014
	H59	H	0.877639	0.406451	0.396158
	H60	H	0.110886	0.400953	0.588902
	H61	H	0.880070	0.588724	0.599014
	H62	H	0.113734	0.592781	0.397069
	H63	H	0.878893	0.395789	0.412641
	H64	H	0.393710	0.591958	0.119464
	H65	H	0.591213	0.601493	0.879263
	H66	H	0.588249	0.404386	0.117540
	H67	H	0.404118	0.407401	0.881643
	H68	H	0.595637	0.118521	0.404068
	H69	H	0.591552	0.883651	0.585029
	H70	H	0.391966	0.118217	0.589873
	H71	H	0.404598	0.881401	0.401590
	H72	H	0.900449	0.616823	0.091447
	H73	H	0.088753	0.383924	0.088353
	H74	H	0.097143	0.616829	0.913561
	H75	H	0.904556	0.384408	0.913687
	H76	H	0.095695	0.909896	0.617617
	H77	H	0.091925	0.092619	0.380747
	H78	H	0.909455	0.087908	0.613881
	H79	H	0.903821	0.897332	0.379087
	H80	H	0.611876	0.095820	0.902319
	H81	H	0.380364	0.098229	0.090817
	H82	H	0.614281	0.904584	0.098154
	H83	H	0.380763	0.907629	0.905389
	H84	H	0.611894	0.902032	0.086459
	H85	H	0.382982	0.088770	0.089834
	H86	H	0.611237	0.094391	0.905396
	H87	H	0.380564	0.905358	0.907389
	H88	H	0.901789	0.098006	0.619403
	H89	H	0.088971	0.085377	0.384815
	H90	H	0.083372	0.912018	0.613514
	H91	H	0.895487	0.912238	0.381120
	H92	H	0.091270	0.619915	0.897414
	H93	H	0.091486	0.381568	0.091086
	H94	H	0.901457	0.617841	0.094474
	H95	H	0.897054	0.380685	0.908277
	H96	H	0.408868	0.116398	0.597467
	H97	H	0.592664	0.879802	0.594962
	H98	H	0.587944	0.116253	0.403516
	H99	H	0.406359	0.884567	0.411052
	H100	H	0.590881	0.407950	0.117833
	H101	H	0.599286	0.586380	0.881571
	H102	H	0.406800	0.583228	0.112421
	H103	H	0.402395	0.410258	0.881865
	H104	H	0.111290	0.600191	0.410654
	H105	H	0.877533	0.597986	0.594669
	H106	H	0.108065	0.410913	0.589615
	H107	H	0.885095	0.414016	0.412755
	H108	H	0.903413	0.616639	0.092578
	H109	H	0.086955	0.382702	0.092470
	H110	H	0.080766	0.613352	0.910181
	H111	H	0.906258	0.381492	0.904268
	H112	H	0.087330	0.900057	0.617571
	H113	H	0.083750	0.092112	0.383947
	H114	H	0.895926	0.085231	0.617205
	H115	H	0.911702	0.911189	0.386421
	H116	H	0.611730	0.092624	0.902888
	H117	H	0.379860	0.092039	0.098587
	H118	H	0.609097	0.913192	0.091099
	H119	H	0.381605	0.907785	0.907858
	C120	C	0.373965	0.007467	0.619733
	C121	C	0.617426	0.990551	0.619398
	C122	C	0.619289	0.007761	0.377524
	C123	C	0.374659	0.991070	0.378000
	C124	C	0.617634	0.378669	0.007989
	C125	C	0.617976	0.621042	0.991146
	C126	C	0.374734	0.621135	0.007922
	C127	C	0.374970	0.379503	0.990675
	C128	C	0.003520	0.621114	0.377776
	C129	C	0.987285	0.620907	0.622178
	C130	C	0.003483	0.376624	0.622320
	C131	C	0.987210	0.376439	0.377484
	C132	C	0.873588	0.508694	0.121545
	C133	C	0.117198	0.491037	0.120278
	C134	C	0.118230	0.508210	0.878371
	C135	C	0.874974	0.490567	0.879424
	C136	C	0.117633	0.877938	0.507878
	C137	C	0.116889	0.119612	0.491383
	C138	C	0.874674	0.119861	0.508119
	C139	C	0.874518	0.877599	0.490978
	C140	C	0.503998	0.122839	0.875782
	C141	C	0.488366	0.121816	0.121123
	C142	C	0.504195	0.878240	0.121108
	C143	C	0.488131	0.878090	0.877053
	C144	C	0.376751	0.884065	0.676145
	C145	C	0.613968	0.114681	0.673475
	C146	C	0.615347	0.884089	0.322872
	C147	C	0.378889	0.115399	0.323949
	C148	C	0.673587	0.380846	0.884921
	C149	C	0.671911	0.619048	0.114921
	C150	C	0.319162	0.620759	0.884405
	C151	C	0.318771	0.380110	0.114432
	C152	C	0.881517	0.676447	0.381427
	C153	C	0.109236	0.676450	0.619275
	C154	C	0.881298	0.321514	0.620273
	C155	C	0.109280	0.320966	0.379245
	C156	C	0.881273	0.379505	0.678348
	C157	C	0.109631	0.618088	0.676351
	C158	C	0.880818	0.617614	0.324174
	C159	C	0.109058	0.378814	0.321013
	C160	C	0.379044	0.675658	0.883231
	C161	C	0.613725	0.675538	0.115047
	C162	C	0.614833	0.324939	0.883867
	C163	C	0.376948	0.323731	0.114528
	C164	C	0.674463	0.884557	0.378739
	C165	C	0.673311	0.113483	0.618273
	C166	C	0.317943	0.884334	0.620171
	C167	C	0.317973	0.113813	0.378353
	C168	C	0.876750	0.384299	0.175682
	C169	C	0.113361	0.614480	0.175583
	C170	C	0.115967	0.384618	0.823565
	C171	C	0.878978	0.614747	0.824641
	C172	C	0.173651	0.878584	0.384456
	C173	C	0.173137	0.118761	0.614224
	C174	C	0.820188	0.118614	0.384528
	C175	C	0.818102	0.878210	0.614244
	C176	C	0.381842	0.178351	0.879284
	C177	C	0.610557	0.176953	0.116867
	C178	C	0.382386	0.822770	0.119627
	C179	C	0.610244	0.822501	0.878667
	C180	C	0.382365	0.881198	0.177128
	C181	C	0.610860	0.119535	0.175219
	C182	C	0.381579	0.120329	0.821122
	C183	C	0.610065	0.881037	0.821231
	C184	C	0.877874	0.175204	0.384232
	C185	C	0.114296	0.175038	0.614920
	C186	C	0.114741	0.823007	0.384183
	C187	C	0.876884	0.822565	0.615018
	C188	C	0.175071	0.385670	0.879506
	C189	C	0.173208	0.613853	0.120456
	C190	C	0.817837	0.385366	0.120432
	C191	C	0.819811	0.614119	0.880187
	C192	C	0.395900	0.093026	0.595958
	C193	C	0.595548	0.904577	0.597294
	C194	C	0.597976	0.094425	0.399707
	C195	C	0.396486	0.904719	0.400312
	C196	C	0.595343	0.400526	0.094773
	C197	C	0.597228	0.598845	0.904430
	C198	C	0.396442	0.598441	0.093775
	C199	C	0.397266	0.402486	0.904623
	C200	C	0.088954	0.599058	0.399292
	C201	C	0.902187	0.598805	0.600374
	C202	C	0.088399	0.399297	0.599145
	C203	C	0.902391	0.398813	0.400469
	C204	C	0.895258	0.594842	0.099454
	C205	C	0.095374	0.404933	0.097342
	C206	C	0.096088	0.594435	0.900502
	C207	C	0.896424	0.404400	0.901956
	C208	C	0.095330	0.900598	0.593969
	C209	C	0.094753	0.096652	0.405310
	C210	C	0.896235	0.097156	0.594611
	C211	C	0.897014	0.900385	0.404477
	C212	C	0.589350	0.100608	0.897277
	C213	C	0.403057	0.099482	0.099463
	C214	C	0.589748	0.900290	0.098481
	C215	C	0.402969	0.900495	0.900122
	Zn216	Zn	0.495495	-0.000091	0.747531
	Zn217	Zn	0.497044	0.000109	0.250747
	Zn218	Zn	0.746466	0.499965	0.000351
	Zn219	Zn	0.246454	0.500226	-0.000200
	Zn220	Zn	-0.003998	0.750473	0.500223
	Zn221	Zn	-0.004498	0.247448	0.499653
	Zn222	Zn	-0.004112	0.499050	0.751151
	Zn223	Zn	-0.004978	0.499132	0.248340
	Zn224	Zn	0.496585	0.748999	-0.001157
	Zn225	Zn	0.495836	0.250933	-0.000938
	Zn226	Zn	0.746976	-0.001334	0.499215
	Zn227	Zn	0.245686	-0.001492	0.498752
	N228	N	0.411057	0.961366	0.675863
	N229	N	0.579724	0.037251	0.674416
	N230	N	0.581701	0.961796	0.322074
	N231	N	0.413262	0.038123	0.323710
	N232	N	0.675414	0.413811	0.963170
	N233	N	0.674817	0.586008	0.036704
	N234	N	0.316344	0.587531	0.962654
	N235	N	0.317358	0.414246	0.036396
	N236	N	0.958784	0.678629	0.414102
	N237	N	0.032211	0.678334	0.586073
	N238	N	0.958250	0.319528	0.586212
	N239	N	0.032563	0.319706	0.413978
	N240	N	0.958163	0.413174	0.679633
	N241	N	0.032823	0.584477	0.678427
	N242	N	0.957566	0.583616	0.321979
	N243	N	0.032389	0.412463	0.319671
	N244	N	0.412615	0.676473	0.961018
	N245	N	0.580596	0.676567	0.037197
	N246	N	0.580730	0.323617	0.961581
	N247	N	0.411247	0.323229	0.036911
	N248	N	0.676884	0.962488	0.411944
	N249	N	0.675532	0.035424	0.585462
	N250	N	0.315822	0.962061	0.586071
	N251	N	0.315202	0.035404	0.410966
	N252	N	0.910994	0.461656	0.176168
	N253	N	0.079357	0.537001	0.175658
	N254	N	0.081435	0.461833	0.822697
	N255	N	0.912695	0.537008	0.824373
	N256	N	0.175668	0.911869	0.462598
	N257	N	0.174735	0.084963	0.536353
	N258	N	0.818281	0.084623	0.462580
	N259	N	0.816740	0.911803	0.536125
	N260	N	0.458848	0.180030	0.912452
	N261	N	0.533317	0.178549	0.083937
	N262	N	0.459301	0.820772	0.085484
	N263	N	0.533245	0.820519	0.912527
	N264	N	0.459215	0.915106	0.177917
	N265	N	0.533894	0.085953	0.178053
	N266	N	0.458478	0.086476	0.818901
	N267	N	0.533217	0.914939	0.820167
	N268	N	0.911039	0.176000	0.461983
	N269	N	0.080053	0.175451	0.537516
	N270	N	0.080665	0.822323	0.461968
	N271	N	0.911641	0.822423	0.537362
	N272	N	0.176589	0.463660	0.912708
	N273	N	0.175483	0.536144	0.086683
	N274	N	0.815450	0.463632	0.087615
	N275	N	0.817045	0.536157	0.913645
	O276	O	1.009237	0.965014	0.023746
	H277	H	1.004344	0.967144	0.027380
	H278	H	1.015474	0.952771	0.022091
	O279	O	0.003699	-0.055798	0.001553
	H280	H	-0.000680	-0.048518	0.006910
	H281	H	-0.000762	-0.060008	-0.000071
	O282	O	0.001692	0.011633	1.037653
	H283	H	0.002158	0.012167	1.039676
	H284	H	0.008250	0.004221	1.047943
	O285	O	1.015773	0.984050	1.027293
	H286	H	1.018034	0.980744	1.018341
	H287	H	1.013666	0.993740	1.028662
	O288	O	0.408977	0.484742	0.523089
	H289	H	0.424354	0.481560	0.515727
	H290	H	0.413938	0.478646	0.533238
	O291	O	0.452455	0.478748	0.519853
	H292	H	0.452158	0.485536	0.514226
	H293	H	0.455720	0.468130	0.510605
	O294	O	0.012800	0.047547	-0.037210
	H295	H	0.009111	0.050946	-0.022747
	H296	H	0.016561	0.044873	-0.042340
	O297	O	0.400453	0.469196	0.499944
	H298	H	0.390066	0.469482	0.495510
	H299	H	0.392810	0.468033	0.506160
	O300	O	0.003184	1.049507	0.963171
	H301	H	0.003207	1.057531	0.964000
	H302	H	0.003953	1.051855	0.956356
	O303	O	0.447195	0.448309	0.507493
	H304	H	0.440425	0.449819	0.510316
	H305	H	0.437340	0.450992	0.508558
	O306	O	0.030096	-0.016816	1.012492
	H307	H	0.024793	-0.014978	1.012822
	H308	H	0.032099	-0.015615	1.010639
	O309	O	0.958422	0.926154	1.002085
	H310	H	0.962969	0.921074	1.005856
	H311	H	0.961329	0.931676	0.997194
	O312	O	1.041997	-0.040174	0.013506
	H313	H	1.038766	-0.043484	0.001514
	H314	H	1.040344	-0.040647	0.011295
	O315	O	0.388283	0.449913	0.510526
	H316	H	0.388657	0.450449	0.519177
	H317	H	0.389792	0.449359	0.513523
	O318	O	0.044967	1.035983	-0.007483
	H319	H	0.046286	1.036522	-0.004637
	H320	H	0.055557	1.025386	-0.000370
	O321	O	1.042711	0.989989	-0.059098
	H322	H	1.040613	0.984917	-0.061327
	H323	H	1.048905	0.987200	-0.057345
