data_Molecule from HDF5

_cell_length_a		16.238410
_cell_length_b		16.277828
_cell_length_c		16.277990
_cell_angle_alpha	90.380707
_cell_angle_beta	89.885439
_cell_angle_gamma	90.023902
_symmetry_space_group_name_H-M	'P 1'
_symmetry_Int_Tables_number		1

loop_
	_symmetry_equiv_pos_as_xyz
	x,y,z

loop_
	_atom_site_label
	_atom_site_type_symbol
	_atom_site_fract_x
	_atom_site_fract_y
	_atom_site_fract_z
	H0	H	0.388864	0.838199	0.711419
	H1	H	0.589181	0.164918	0.713531
	H2	H	0.588070	0.838273	0.280961
	H3	H	0.389334	0.165004	0.282376
	H4	H	0.704842	0.400484	0.834481
	H5	H	0.703765	0.601437	0.161653
	H6	H	0.274298	0.600030	0.833807
	H7	H	0.274772	0.405198	0.161643
	H8	H	0.825628	0.717258	0.395550
	H9	H	0.152706	0.717015	0.595659
	H10	H	0.825107	0.287650	0.594150
	H11	H	0.153140	0.286553	0.396512
	H12	H	0.825055	0.402792	0.711307
	H13	H	0.152934	0.603519	0.712564
	H14	H	0.824812	0.598417	0.282561
	H15	H	0.154012	0.402961	0.282286
	H16	H	0.389666	0.716131	0.834233
	H17	H	0.588059	0.718183	0.160913
	H18	H	0.589921	0.284522	0.835262
	H19	H	0.389337	0.287673	0.161358
	H20	H	0.703139	0.837785	0.396767
	H21	H	0.703511	0.165483	0.595781
	H22	H	0.273920	0.838471	0.594373
	H23	H	0.273903	0.165615	0.398817
	H24	H	0.890687	0.336978	0.209764
	H25	H	0.087356	0.664696	0.212121
	H26	H	0.088146	0.338209	0.779644
	H27	H	0.889500	0.665152	0.782975
	H28	H	0.204038	0.902130	0.333133
	H29	H	0.202872	0.102017	0.660317
	H30	H	0.774790	0.098201	0.332644
	H31	H	0.773517	0.903704	0.660520
	H32	H	0.325909	0.215342	0.900745
	H33	H	0.653628	0.216862	0.096658
	H34	H	0.323993	0.788958	0.095119
	H35	H	0.652384	0.785045	0.896649
	H36	H	0.324892	0.903647	0.211269
	H37	H	0.652994	0.101608	0.212577
	H38	H	0.325425	0.100079	0.784004
	H39	H	0.652640	0.901664	0.781097
	H40	H	0.889567	0.215146	0.332689
	H41	H	0.088584	0.219093	0.659312
	H42	H	0.087916	0.786222	0.333228
	H43	H	0.888765	0.787028	0.660419
	H44	H	0.203962	0.337640	0.896762
	H45	H	0.202275	0.665594	0.096360
	H46	H	0.774261	0.337538	0.094690
	H47	H	0.774877	0.664894	0.899631
	H48	H	0.394378	0.117878	0.588527
	H49	H	0.585872	0.885841	0.582165
	H50	H	0.585355	0.118885	0.405635
	H51	H	0.395013	0.881736	0.392139
	H52	H	0.585049	0.406567	0.116721
	H53	H	0.583844	0.588972	0.882058
	H54	H	0.393570	0.593383	0.114348
	H55	H	0.391440	0.413202	0.881390
	H56	H	0.105034	0.593418	0.405996
	H57	H	0.871777	0.595210	0.593598
	H58	H	0.105572	0.408601	0.585660
	H59	H	0.873502	0.406800	0.407659
	H60	H	0.104045	0.412958	0.587644
	H61	H	0.872330	0.598001	0.586347
	H62	H	0.106069	0.592525	0.400775
	H63	H	0.872800	0.411957	0.399833
	H64	H	0.398913	0.595791	0.112843
	H65	H	0.576673	0.593040	0.883833
	H66	H	0.583043	0.414427	0.112399
	H67	H	0.405151	0.409312	0.884014
	H68	H	0.582022	0.119640	0.400827
	H69	H	0.581727	0.883055	0.594507
	H70	H	0.394695	0.119799	0.593685
	H71	H	0.407543	0.890558	0.406882
	H72	H	0.896630	0.617386	0.090976
	H73	H	0.083647	0.383142	0.090005
	H74	H	0.076235	0.617732	0.900966
	H75	H	0.890349	0.381584	0.896381
	H76	H	0.084299	0.911647	0.614666
	H77	H	0.087936	0.095082	0.377617
	H78	H	0.898763	0.099099	0.613325
	H79	H	0.898593	0.911811	0.382255
	H80	H	0.606626	0.087259	0.898208
	H81	H	0.370218	0.101184	0.090882
	H82	H	0.607460	0.905712	0.094278
	H83	H	0.373572	0.908457	0.908435
	H84	H	0.604413	0.906514	0.082584
	H85	H	0.375240	0.092472	0.083524
	H86	H	0.609241	0.101720	0.902393
	H87	H	0.372245	0.911916	0.900251
	H88	H	0.891984	0.095305	0.613791
	H89	H	0.081231	0.087093	0.381849
	H90	H	0.078898	0.910554	0.612033
	H91	H	0.899321	0.904220	0.379815
	H92	H	0.080901	0.614708	0.911391
	H93	H	0.081820	0.384215	0.089726
	H94	H	0.896380	0.617515	0.091156
	H95	H	0.906608	0.386819	0.899526
	H96	H	0.398778	0.117312	0.591809
	H97	H	0.573218	0.888478	0.586347
	H98	H	0.579224	0.117095	0.406023
	H99	H	0.386821	0.885379	0.411620
	H100	H	0.577129	0.407899	0.112903
	H101	H	0.583049	0.596739	0.879976
	H102	H	0.394737	0.598758	0.114558
	H103	H	0.395494	0.399311	0.878663
	H104	H	0.106900	0.597586	0.402976
	H105	H	0.874701	0.590157	0.588568
	H106	H	0.106270	0.409682	0.590374
	H107	H	0.870330	0.403288	0.399524
	H108	H	0.896359	0.618398	0.091159
	H109	H	0.083265	0.384396	0.087979
	H110	H	0.087530	0.620273	0.903140
	H111	H	0.894312	0.386982	0.912407
	H112	H	0.082405	0.905791	0.613829
	H113	H	0.077646	0.097334	0.380210
	H114	H	0.898433	0.091941	0.610886
	H115	H	0.892576	0.907999	0.379307
	H116	H	0.603962	0.091872	0.912555
	H117	H	0.373393	0.090100	0.095928
	H118	H	0.603511	0.916309	0.089260
	H119	H	0.370594	0.903922	0.901856
	C120	C	0.367065	0.010258	0.618986
	C121	C	0.610048	0.993593	0.617816
	C122	C	0.610618	0.010111	0.374710
	C123	C	0.367108	0.993659	0.375107
	C124	C	0.611033	0.380132	0.006067
	C125	C	0.610214	0.622874	0.989709
	C126	C	0.367255	0.623881	0.005688
	C127	C	0.367941	0.379772	0.989334
	C128	C	-0.002631	0.622755	0.374875
	C129	C	0.980935	0.623711	0.618478
	C130	C	-0.002769	0.381064	0.617076
	C131	C	0.980665	0.379149	0.373787
	C132	C	0.867726	0.509439	0.118566
	C133	C	0.110866	0.492710	0.118128
	C134	C	0.110928	0.509559	0.875166
	C135	C	0.867782	0.493210	0.875232
	C136	C	0.110803	0.880165	0.505243
	C137	C	0.110849	0.123258	0.487998
	C138	C	0.867566	0.123126	0.504806
	C139	C	0.867313	0.879552	0.488339
	C140	C	0.498354	0.122387	0.876364
	C141	C	0.481048	0.123952	0.119329
	C142	C	0.497029	0.880956	0.117725
	C143	C	0.480378	0.879108	0.874625
	C144	C	0.369026	0.887073	0.673387
	C145	C	0.609084	0.116096	0.675103
	C146	C	0.608211	0.887164	0.318900
	C147	C	0.369313	0.116557	0.320462
	C148	C	0.666898	0.381088	0.883442
	C149	C	0.665878	0.621765	0.112475
	C150	C	0.312470	0.620436	0.882476
	C151	C	0.312412	0.383717	0.112449
	C152	C	0.874307	0.678587	0.376389
	C153	C	0.103955	0.679335	0.616259
	C154	C	0.873967	0.325538	0.614588
	C155	C	0.104411	0.324403	0.376312
	C156	C	0.873895	0.383077	0.672661
	C157	C	0.103804	0.623040	0.674691
	C158	C	0.873812	0.619658	0.319931
	C159	C	0.104624	0.382257	0.319349
	C160	C	0.369458	0.678501	0.882837
	C161	C	0.608407	0.679889	0.112269
	C162	C	0.610016	0.323054	0.883704
	C163	C	0.369298	0.325333	0.112453
	C164	C	0.665490	0.886869	0.376556
	C165	C	0.665998	0.116449	0.616591
	C166	C	0.312061	0.887145	0.615090
	C167	C	0.311667	0.116633	0.378182
	C168	C	0.870221	0.385709	0.172194
	C169	C	0.107910	0.615780	0.174136
	C170	C	0.108833	0.386893	0.818401
	C171	C	0.869491	0.616413	0.820602
	C172	C	0.166029	0.882077	0.381982
	C173	C	0.165765	0.122100	0.611304
	C174	C	0.812820	0.118920	0.381352
	C175	C	0.811147	0.882614	0.611473
	C176	C	0.374800	0.177625	0.879621
	C177	C	0.604501	0.178810	0.116830
	C178	C	0.373214	0.826343	0.115410
	C179	C	0.603432	0.823130	0.876388
	C180	C	0.373772	0.883343	0.173267
	C181	C	0.604138	0.121664	0.174450
	C182	C	0.374428	0.120115	0.821979
	C183	C	0.603854	0.881256	0.819316
	C184	C	0.870073	0.177210	0.381373
	C185	C	0.109029	0.180427	0.610720
	C186	C	0.108525	0.824208	0.382178
	C187	C	0.868587	0.824759	0.611353
	C188	C	0.166581	0.386712	0.876302
	C189	C	0.165198	0.616278	0.116480
	C190	C	0.812450	0.386139	0.115158
	C191	C	0.812413	0.616082	0.878545
	C192	C	0.389597	0.096139	0.597548
	C193	C	0.587088	0.907909	0.594411
	C194	C	0.588524	0.096173	0.397399
	C195	C	0.389874	0.908055	0.397003
	C196	C	0.588322	0.402935	0.092095
	C197	C	0.587683	0.599565	0.904076
	C198	C	0.389350	0.602289	0.091533
	C199	C	0.390597	0.401027	0.903440
	C200	C	0.083594	0.601092	0.396815
	C201	C	0.895157	0.601016	0.596123
	C202	C	0.083148	0.403722	0.594503
	C203	C	0.894422	0.400887	0.395831
	C204	C	0.889894	0.595479	0.097469
	C205	C	0.089315	0.406362	0.095590
	C206	C	0.088205	0.595316	0.898418
	C207	C	0.890452	0.407430	0.896593
	C208	C	0.088388	0.902643	0.591310
	C209	C	0.088677	0.099911	0.402217
	C210	C	0.889843	0.101803	0.590441
	C211	C	0.890062	0.901598	0.402690
	C212	C	0.584216	0.100126	0.898008
	C213	C	0.395110	0.101251	0.096739
	C214	C	0.582917	0.902992	0.095204
	C215	C	0.394525	0.901512	0.896992
	Zn216	Zn	0.489143	0.001577	0.746997
	Zn217	Zn	0.489056	0.001843	0.246731
	Zn218	Zn	0.739449	0.501081	-0.002767
	Zn219	Zn	0.239386	0.501759	-0.003082
	Zn220	Zn	-0.010818	0.751280	0.497064
	Zn221	Zn	-0.010562	0.251687	0.495727
	Zn222	Zn	-0.011024	0.502268	0.746502
	Zn223	Zn	-0.010771	0.500595	0.246204
	Zn224	Zn	0.488418	0.751994	-0.002531
	Zn225	Zn	0.489937	0.251406	-0.002078
	Zn226	Zn	0.738614	0.001506	0.496844
	Zn227	Zn	0.238735	0.001945	0.496667
	N228	N	0.402339	0.964784	0.676191
	N229	N	0.574983	0.038689	0.675867
	N230	N	0.574861	0.964812	0.317755
	N231	N	0.403093	0.039060	0.318358
	N232	N	0.667479	0.415823	0.960702
	N233	N	0.667225	0.587085	0.035210
	N234	N	0.310907	0.587267	0.959882
	N235	N	0.311362	0.416876	0.034967
	N236	N	0.952005	0.680284	0.410263
	N237	N	0.026548	0.680112	0.582341
	N238	N	0.951574	0.324494	0.580539
	N239	N	0.026391	0.322229	0.409309
	N240	N	0.951511	0.416955	0.674284
	N241	N	0.026229	0.588874	0.676009
	N242	N	0.951210	0.585594	0.318950
	N243	N	0.026781	0.415431	0.317620
	N244	N	0.402683	0.680710	0.960446
	N245	N	0.574358	0.680692	0.034965
	N246	N	0.575882	0.322521	0.960971
	N247	N	0.403354	0.322789	0.034849
	N248	N	0.667274	0.964401	0.410618
	N249	N	0.666412	0.039283	0.581584
	N250	N	0.310693	0.964724	0.582147
	N251	N	0.310224	0.039129	0.411111
	N252	N	0.903980	0.463344	0.174384
	N253	N	0.074948	0.537852	0.175422
	N254	N	0.075219	0.464427	0.817499
	N255	N	0.903073	0.538956	0.818212
	N256	N	0.167646	0.915910	0.459585
	N257	N	0.166978	0.087358	0.534146
	N258	N	0.811054	0.086017	0.458970
	N259	N	0.810108	0.915864	0.533982
	N260	N	0.452620	0.179127	0.912698
	N261	N	0.526785	0.180370	0.083536
	N262	N	0.450931	0.824736	0.081651
	N263	N	0.525776	0.821772	0.910107
	N264	N	0.451671	0.916669	0.174745
	N265	N	0.526356	0.088142	0.176102
	N266	N	0.452210	0.086465	0.819727
	N267	N	0.526274	0.915194	0.817924
	N268	N	0.903568	0.179743	0.458909
	N269	N	0.075473	0.181044	0.533122
	N270	N	0.074622	0.823311	0.459730
	N271	N	0.902608	0.822590	0.533844
	N272	N	0.168085	0.464073	0.910735
	N273	N	0.166895	0.538805	0.082208
	N274	N	0.810898	0.463979	0.082669
	N275	N	0.811159	0.538495	0.911596
	O276	O	0.435143	0.504666	0.548916
	H277	H	0.434815	0.500231	0.551344
	H278	H	0.432106	0.510530	0.548701
	O279	O	0.536833	0.413983	0.504614
	H280	H	0.542428	0.417451	0.510920
	H281	H	0.550774	0.418661	0.509680
	O282	O	0.506054	0.424312	0.529556
	H283	H	0.503612	0.423755	0.528544
	H284	H	0.500635	0.430010	0.533403
	O285	O	0.006678	0.963803	0.986869
	H286	H	0.007136	0.957982	0.982485
	H287	H	0.007660	0.970847	0.991196
	O288	O	0.471132	0.509596	0.453913
	H289	H	0.464185	0.499644	0.463581
	H290	H	0.469743	0.519771	0.437792
	O291	O	0.526144	0.511679	1.473370
	H292	H	0.524485	0.517191	1.466336
	H293	H	0.528209	0.494889	1.463903
	O294	O	0.473313	0.535424	0.493848
	H295	H	0.469927	0.533192	0.495997
	H296	H	0.476993	0.533029	0.499673
	O297	O	0.469298	0.605113	0.504508
	H298	H	0.468504	0.610861	0.511704
	H299	H	0.464878	0.610896	0.519856
	O300	O	0.569709	0.628150	0.532035
	H301	H	0.559972	0.621413	0.542056
	H302	H	0.574740	0.638520	0.530083
	O303	O	0.504810	0.512189	0.538822
	H304	H	0.521674	0.520187	0.535632
	H305	H	0.508099	0.511053	0.527920
	O306	O	1.032797	-0.001293	0.986520
	H307	H	1.034622	-0.000276	0.986360
	H308	H	1.041082	-0.003049	0.988388
	O309	O	0.454043	0.421478	0.484696
	H310	H	0.458189	0.417272	0.481459
	H311	H	0.451624	0.412931	0.479546
	O312	O	0.589407	0.518869	0.529779
	H313	H	0.597157	0.526243	0.528291
	H314	H	0.591634	0.503907	0.529078
	O315	O	0.991774	-0.013582	0.989298
	H316	H	0.991106	-0.010752	0.986097
	H317	H	0.994872	-0.015796	0.998874
	O318	O	0.475441	-0.547794	-0.518740
	H319	H	0.483090	-0.543702	-0.526552
	H320	H	0.481028	-0.553222	-0.518158
	O321	O	0.569163	0.626758	0.614963
	H322	H	0.567415	0.624163	0.619076
	H323	H	0.569434	0.623786	0.613219
	O324	O	1.021378	0.000204	-0.020322
	H325	H	1.017974	-0.004642	-0.018534
	H326	H	1.024127	-0.005931	-0.022635
	O327	O	1.022816	0.993891	-0.006554
	H328	H	1.020152	0.989445	-0.003095
	H329	H	1.020128	1.007580	-0.021264
	O330	O	0.550320	0.591513	0.584661
	H331	H	0.549823	0.590831	0.587108
	H332	H	0.546095	0.588002	0.588054
	O333	O	0.507188	0.432845	0.524563
	H334	H	0.500332	0.430985	0.531780
	H335	H	0.501574	0.441113	0.526496
