data_Molecule from HDF5

_cell_length_a		16.572649
_cell_length_b		16.710246
_cell_length_c		16.652084
_cell_angle_alpha	89.890482
_cell_angle_beta	90.099827
_cell_angle_gamma	89.974212
_symmetry_space_group_name_H-M	'P 1'
_symmetry_Int_Tables_number		1

loop_
	_symmetry_equiv_pos_as_xyz
	x,y,z

loop_
	_atom_site_label
	_atom_site_type_symbol
	_atom_site_fract_x
	_atom_site_fract_y
	_atom_site_fract_z
	H0	H	0.399395	0.839877	0.732429
	H1	H	0.608320	0.150078	0.737631
	H2	H	0.610060	0.844068	0.290830
	H3	H	0.397628	0.151217	0.292829
	H4	H	0.723694	0.391118	0.859720
	H5	H	0.720585	0.598087	0.170818
	H6	H	0.284071	0.598141	0.857630
	H7	H	0.286846	0.397045	0.171079
	H8	H	0.847096	0.718913	0.407714
	H9	H	0.157439	0.718066	0.620367
	H10	H	0.848074	0.272779	0.623703
	H11	H	0.158528	0.276536	0.410873
	H12	H	0.848062	0.388826	0.738776
	H13	H	0.158091	0.600686	0.735639
	H14	H	0.847854	0.603366	0.291938
	H15	H	0.159623	0.394376	0.296518
	H16	H	0.398006	0.717151	0.859225
	H17	H	0.608039	0.717245	0.169149
	H18	H	0.607365	0.274581	0.859416
	H19	H	0.398848	0.276593	0.169746
	H20	H	0.725825	0.843465	0.407231
	H21	H	0.724498	0.150868	0.621460
	H22	H	0.285286	0.839473	0.613728
	H23	H	0.282083	0.151904	0.410770
	H24	H	0.898980	0.342008	0.234773
	H25	H	0.106267	0.651638	0.233387
	H26	H	0.108503	0.342957	0.791334
	H27	H	0.896566	0.651419	0.793171
	H28	H	0.222026	0.893557	0.359281
	H29	H	0.223786	0.100575	0.670705
	H30	H	0.782277	0.100230	0.359475
	H31	H	0.783170	0.893378	0.671807
	H32	H	0.344699	0.216556	0.909936
	H33	H	0.656457	0.218423	0.120855
	H34	H	0.344950	0.778330	0.116862
	H35	H	0.657617	0.776144	0.910049
	H36	H	0.345734	0.893163	0.233758
	H37	H	0.657682	0.100484	0.235003
	H38	H	0.343719	0.099906	0.795204
	H39	H	0.657699	0.893708	0.794947
	H40	H	0.896501	0.219150	0.360879
	H41	H	0.108966	0.218631	0.669496
	H42	H	0.109342	0.774715	0.361635
	H43	H	0.898058	0.775996	0.670809
	H44	H	0.222187	0.340183	0.911245
	H45	H	0.220782	0.652915	0.114444
	H46	H	0.782584	0.342407	0.118802
	H47	H	0.779502	0.650793	0.908851
	H48	H	0.416361	0.106984	0.605766
	H49	H	0.591705	0.884706	0.606088
	H50	H	0.591330	0.103975	0.434189
	H51	H	0.403376	0.884421	0.431648
	H52	H	0.591847	0.411217	0.123002
	H53	H	0.592510	0.578173	0.905278
	H54	H	0.410840	0.588949	0.127545
	H55	H	0.405568	0.401004	0.898077
	H56	H	0.114347	0.587900	0.424089
	H57	H	0.889428	0.589017	0.604932
	H58	H	0.113362	0.410834	0.605949
	H59	H	0.889535	0.404981	0.422319
	H60	H	0.114053	0.405721	0.603332
	H61	H	0.891634	0.586988	0.599214
	H62	H	0.114149	0.587748	0.426982
	H63	H	0.891542	0.407287	0.430374
	H64	H	0.411096	0.586008	0.126146
	H65	H	0.582039	0.588909	0.904617
	H66	H	0.586769	0.405310	0.123932
	H67	H	0.411101	0.412477	0.903267
	H68	H	0.596650	0.111253	0.422507
	H69	H	0.588453	0.886973	0.603764
	H70	H	0.409629	0.108430	0.601703
	H71	H	0.411747	0.881463	0.413282
	H72	H	0.911388	0.608315	0.104679
	H73	H	0.094843	0.383950	0.107910
	H74	H	0.093975	0.607796	0.925744
	H75	H	0.915269	0.387387	0.925866
	H76	H	0.096063	0.905394	0.628894
	H77	H	0.096134	0.085294	0.402995
	H78	H	0.915658	0.090364	0.627368
	H79	H	0.914873	0.906274	0.403437
	H80	H	0.612274	0.083313	0.925847
	H81	H	0.390921	0.081510	0.102488
	H82	H	0.612654	0.908617	0.098871
	H83	H	0.387464	0.907848	0.917551
	H84	H	0.614431	0.909405	0.108205
	H85	H	0.387709	0.086877	0.106756
	H86	H	0.613760	0.086544	0.924243
	H87	H	0.387507	0.898989	0.926734
	H88	H	0.910243	0.084929	0.628096
	H89	H	0.087780	0.085274	0.405867
	H90	H	0.091427	0.912405	0.624761
	H91	H	0.911063	0.908107	0.403853
	H92	H	0.092573	0.608249	0.922839
	H93	H	0.094120	0.383950	0.105989
	H94	H	0.913373	0.607370	0.104618
	H95	H	0.915688	0.387752	0.927187
	H96	H	0.410062	0.110291	0.608845
	H97	H	0.592624	0.886066	0.601879
	H98	H	0.582977	0.106701	0.422209
	H99	H	0.422043	0.890413	0.428430
	H100	H	0.593553	0.404866	0.127386
	H101	H	0.595592	0.591643	0.898748
	H102	H	0.414312	0.587674	0.126763
	H103	H	0.418663	0.401512	0.901997
	H104	H	0.114292	0.585380	0.425619
	H105	H	0.891397	0.583055	0.603941
	H106	H	0.111686	0.410690	0.600458
	H107	H	0.891476	0.412773	0.424151
	H108	H	0.912670	0.608653	0.102595
	H109	H	0.095823	0.383855	0.106218
	H110	H	0.091115	0.606921	0.924920
	H111	H	0.914776	0.386344	0.927713
	H112	H	0.086992	0.904125	0.625804
	H113	H	0.091453	0.093027	0.402188
	H114	H	0.916982	0.083603	0.624910
	H115	H	0.914363	0.910049	0.404962
	H116	H	0.612951	0.085833	0.927996
	H117	H	0.389818	0.088863	0.099515
	H118	H	0.616056	0.901740	0.104045
	H119	H	0.391912	0.910752	0.929049
	C120	C	0.380693	0.005209	0.635808
	C121	C	0.623398	0.988195	0.636371
	C122	C	0.623356	0.005377	0.393582
	C123	C	0.380460	0.987859	0.392518
	C124	C	0.623113	0.374709	0.022741
	C125	C	0.623046	0.617746	1.005772
	C126	C	0.380506	0.618205	0.023411
	C127	C	0.380882	0.374564	1.005090
	C128	C	0.011032	0.618933	0.393012
	C129	C	0.993639	0.617850	0.635285
	C130	C	0.010541	0.376040	0.636222
	C131	C	0.994278	0.376674	0.394396
	C132	C	0.881140	0.505490	0.135843
	C133	C	0.124643	0.487930	0.135961
	C134	C	0.124687	0.505043	0.892366
	C135	C	0.881211	0.488583	0.893424
	C136	C	0.123135	0.876211	0.523587
	C137	C	0.124261	0.118974	0.506536
	C138	C	0.881372	0.118568	0.523991
	C139	C	0.881359	0.876036	0.507020
	C140	C	0.509302	0.116932	0.893866
	C141	C	0.492955	0.117566	0.134997
	C142	C	0.510779	0.875212	0.135488
	C143	C	0.492936	0.875393	0.893314
	C144	C	0.380768	0.886786	0.692760
	C145	C	0.626078	0.104140	0.696879
	C146	C	0.627504	0.889983	0.332002
	C147	C	0.378868	0.104843	0.333000
	C148	C	0.683315	0.372562	0.906042
	C149	C	0.681825	0.617860	0.123383
	C150	C	0.322829	0.617939	0.904956
	C151	C	0.324552	0.376218	0.123641
	C152	C	0.894105	0.678773	0.390187
	C153	C	0.110878	0.677726	0.638370
	C154	C	0.894634	0.313877	0.640800
	C155	C	0.111932	0.317001	0.392583
	C156	C	0.894374	0.371881	0.697802
	C157	C	0.111126	0.619547	0.695514
	C158	C	0.894658	0.621574	0.332233
	C159	C	0.112447	0.375462	0.335759
	C160	C	0.379389	0.676688	0.905448
	C161	C	0.625688	0.676965	0.122690
	C162	C	0.625480	0.314920	0.905988
	C163	C	0.380304	0.316684	0.123099
	C164	C	0.685087	0.889786	0.390048
	C165	C	0.683869	0.104396	0.639110
	C166	C	0.323482	0.886873	0.634524
	C167	C	0.321861	0.105327	0.391649
	C168	C	0.880448	0.388619	0.195036
	C169	C	0.125059	0.605444	0.193401
	C170	C	0.126661	0.388642	0.832175
	C171	C	0.877893	0.604731	0.832806
	C172	C	0.182511	0.874790	0.406365
	C173	C	0.184293	0.120061	0.623588
	C174	C	0.821853	0.119703	0.406599
	C175	C	0.822602	0.874759	0.624661
	C176	C	0.391637	0.176710	0.891727
	C177	C	0.609938	0.178076	0.138345
	C178	C	0.392449	0.817175	0.136039
	C179	C	0.610830	0.816313	0.891656
	C180	C	0.392856	0.874306	0.194148
	C181	C	0.610663	0.119523	0.195009
	C182	C	0.391154	0.118564	0.834732
	C183	C	0.610932	0.874652	0.834640
	C184	C	0.878576	0.178589	0.407142
	C185	C	0.126973	0.178378	0.623378
	C186	C	0.126469	0.815709	0.407456
	C187	C	0.879417	0.816080	0.624076
	C188	C	0.183066	0.387456	0.891557
	C189	C	0.181868	0.605899	0.134622
	C190	C	0.822494	0.388823	0.137408
	C191	C	0.819825	0.604481	0.890224
	C192	C	0.404918	0.087238	0.612275
	C193	C	0.598105	0.907072	0.611070
	C194	C	0.597391	0.086235	0.418861
	C195	C	0.405279	0.906524	0.417317
	C196	C	0.597845	0.399681	0.103811
	C197	C	0.597429	0.593216	0.924192
	C198	C	0.405004	0.594376	0.105307
	C199	C	0.404868	0.398142	0.922652
	C200	C	0.093030	0.594021	0.418312
	C201	C	0.912095	0.593152	0.610007
	C202	C	0.091964	0.401908	0.610488
	C203	C	0.912353	0.401145	0.418767
	C204	C	0.905452	0.586994	0.111010
	C205	C	0.101459	0.405449	0.113455
	C206	C	0.099778	0.586529	0.917368
	C207	C	0.907501	0.408189	0.919380
	C208	C	0.098511	0.900406	0.605276
	C209	C	0.099000	0.094629	0.424935
	C210	C	0.906950	0.093573	0.605535
	C211	C	0.906444	0.900830	0.425429
	C212	C	0.591543	0.092242	0.918748
	C213	C	0.411007	0.092777	0.110062
	C214	C	0.592974	0.899357	0.110932
	C215	C	0.410486	0.899119	0.917412
	Zn216	Zn	0.501085	-0.003530	0.765068
	Zn217	Zn	0.501961	-0.003184	0.263854
	Zn218	Zn	0.751844	0.496070	0.014246
	Zn219	Zn	0.252864	0.496164	0.013725
	Zn220	Zn	0.002502	0.747001	0.514980
	Zn221	Zn	0.002986	0.247445	0.515464
	Zn222	Zn	0.001649	0.496937	0.764528
	Zn223	Zn	0.002929	0.496970	0.264719
	Zn224	Zn	0.501732	0.746600	0.014456
	Zn225	Zn	0.501850	0.245884	0.013785
	Zn226	Zn	0.752240	-0.003445	0.515154
	Zn227	Zn	0.251870	-0.003041	0.514401
	N228	N	0.415236	0.961528	0.694073
	N229	N	0.588973	0.030786	0.695343
	N230	N	0.589454	0.962797	0.334140
	N231	N	0.414432	0.030745	0.333138
	N232	N	0.682335	0.408912	0.979779
	N233	N	0.680528	0.581790	0.049402
	N234	N	0.323365	0.582374	0.979195
	N235	N	0.324609	0.411329	0.049109
	N236	N	0.967959	0.677458	0.427353
	N237	N	0.036862	0.676867	0.601631
	N238	N	0.967864	0.316367	0.602970
	N239	N	0.037325	0.317241	0.428156
	N240	N	0.967679	0.409955	0.695127
	N241	N	0.037234	0.582937	0.693845
	N242	N	0.968493	0.584803	0.334047
	N243	N	0.038208	0.411780	0.336399
	N244	N	0.414302	0.677374	0.980203
	N245	N	0.590085	0.677412	0.048290
	N246	N	0.588880	0.315960	0.979670
	N247	N	0.414424	0.315341	0.048011
	N248	N	0.682785	0.962721	0.427670
	N249	N	0.682222	0.031125	0.602012
	N250	N	0.323136	0.961570	0.599936
	N251	N	0.322407	0.031572	0.427716
	N252	N	0.916101	0.462431	0.194564
	N253	N	0.090579	0.530851	0.194742
	N254	N	0.090914	0.462847	0.832610
	N255	N	0.915346	0.531692	0.834644
	N256	N	0.180542	0.911936	0.479568
	N257	N	0.182903	0.084102	0.549682
	N258	N	0.823049	0.083386	0.480526
	N259	N	0.823409	0.910949	0.550661
	N260	N	0.466325	0.176020	0.927746
	N261	N	0.535680	0.177210	0.101838
	N262	N	0.467114	0.817182	0.100570
	N263	N	0.536372	0.816571	0.927605
	N264	N	0.467586	0.909540	0.194205
	N265	N	0.536765	0.082832	0.193389
	N266	N	0.465519	0.082283	0.835732
	N267	N	0.536417	0.910388	0.835473
	N268	N	0.914563	0.178450	0.481432
	N269	N	0.090654	0.178072	0.549290
	N270	N	0.090115	0.816401	0.481291
	N271	N	0.915155	0.816477	0.549724
	N272	N	0.182255	0.461032	0.927898
	N273	N	0.181942	0.531587	0.099709
	N274	N	0.822589	0.462560	0.101439
	N275	N	0.821582	0.531154	0.927322
	O276	O	-0.688794	1.688918	-0.491976
	H277	H	-0.668714	1.699077	-0.492287
	H278	H	-0.709151	1.692181	-0.504625
	O279	O	-0.212640	-0.008805	0.026076
	H280	H	-0.213843	-0.000465	0.034414
	H281	H	-0.215082	0.000862	0.054572
	O282	O	0.718415	-0.277188	0.731250
	H283	H	0.747858	-0.260528	0.761080
	H284	H	0.720409	-0.310909	0.732615
	O285	O	0.721947	0.460677	0.294253
	H286	H	0.720268	0.445964	0.286675
	H287	H	0.737258	0.467868	0.287542
	O288	O	0.265070	0.549088	0.577387
	H289	H	0.260987	0.549013	0.577499
	H290	H	0.277188	0.545892	0.563483
	O291	O	0.554271	0.731106	0.457180
	H292	H	0.573598	0.732784	0.463358
	H293	H	0.547702	0.729149	0.431041
	O294	O	0.779846	0.212174	0.991283
	H295	H	0.771437	0.224694	0.980360
	H296	H	0.774414	0.226076	0.986630
	O297	O	0.688217	0.307360	0.700203
	H298	H	0.691981	0.293012	0.712627
	H299	H	0.667085	0.317181	0.688415
	O300	O	-0.044861	-0.157885	0.961336
	H301	H	-0.052751	-0.149022	0.964544
	H302	H	-0.048152	-0.164742	0.961382
	O303	O	0.690943	0.688145	0.321551
	H304	H	0.689060	0.685499	0.333483
	H305	H	0.712291	0.717504	0.300498
	O306	O	1.234166	-0.238001	0.244390
	H307	H	1.228558	-0.222969	0.238331
	H308	H	1.206318	-0.266187	0.237062
	O309	O	0.277475	0.442051	0.457761
	H310	H	0.279852	0.434851	0.468278
	H311	H	0.287253	0.426677	0.462721
	O312	O	0.472039	0.272970	0.737480
	H313	H	0.472111	0.258947	0.743608
	H314	H	0.447235	0.264093	0.741718
	O315	O	1.204655	1.136126	0.895810
	H316	H	1.195013	1.129874	0.880349
	H317	H	1.195788	1.114424	0.903821
	O318	O	0.977951	0.779418	0.234930
	H319	H	0.975028	0.779720	0.251379
	H320	H	0.973720	0.775524	0.231501
	O321	O	0.486206	0.676016	0.527105
	H322	H	0.493428	0.668077	0.528515
	H323	H	0.488636	0.674856	0.513502
	O324	O	1.135275	1.167269	0.061191
	H325	H	1.140402	1.183959	0.050300
	H326	H	1.138084	1.143137	0.046636
	O327	O	-0.001715	0.128522	1.065501
	H328	H	0.006133	0.115538	1.048160
	H329	H	0.010593	0.134395	1.078814
	O330	O	1.016120	-0.240203	0.025244
	H331	H	1.006660	-0.238954	0.027815
	H332	H	1.024802	-0.238995	0.029610
	O333	O	0.498628	0.500927	0.567809
	H334	H	0.494961	0.502943	0.545512
	H335	H	0.520796	0.495385	0.562350
	O336	O	0.467510	0.386140	0.569393
	H337	H	0.454582	0.394250	0.579720
	H338	H	0.469275	0.387589	0.562829
	O339	O	1.042586	-0.112122	1.123430
	H340	H	1.048918	-0.115787	1.117274
	H341	H	1.047542	-0.093919	1.121805
	O342	O	-0.153908	-0.183098	-0.175858
	H343	H	-0.146243	-0.164908	-0.158404
	H344	H	-0.138179	-0.171920	-0.163894
	O345	O	0.224864	0.957628	0.788089
	H346	H	0.235600	0.939401	0.778657
	H347	H	0.231849	0.947209	0.773571
	O348	O	-0.118706	0.147917	0.032190
	H349	H	-0.113493	0.163004	0.035753
	H350	H	-0.115952	0.153400	0.058559
	O351	O	0.467392	0.410077	0.291999
	H352	H	0.480667	0.441510	0.293448
	H353	H	0.487256	0.397705	0.287364
	O354	O	-0.187803	0.182751	1.201900
	H355	H	-0.174415	0.186798	1.222145
	H356	H	-0.197505	0.201402	1.213352
	O357	O	-0.196091	0.956707	0.909047
	H358	H	-0.187613	0.950525	0.910616
	H359	H	-0.198433	0.963907	0.907579
	O360	O	0.281601	0.279568	0.574096
	H361	H	0.254944	0.250897	0.593313
	H362	H	0.289103	0.288157	0.595959
	O363	O	-0.468904	0.717562	-0.264422
	H364	H	-0.465657	0.750189	-0.244935
	H365	H	-0.436878	0.714131	-0.278339
	O366	O	0.442726	0.571631	0.738042
	H367	H	0.454715	0.585244	0.733719
	H368	H	0.460157	0.579164	0.721783
	O369	O	0.545475	0.363183	0.676323
	H370	H	0.534165	0.351560	0.672724
	H371	H	0.545789	0.373633	0.680967
	O372	O	0.948355	1.080720	0.222414
	H373	H	0.958337	1.090737	0.214826
	H374	H	0.970182	1.095120	0.234764
	O375	O	1.316623	0.310286	0.323457
	H376	H	1.338405	0.328570	0.337758
	H377	H	1.333666	0.323934	0.347664
	O378	O	0.110823	-0.041923	0.020526
	H379	H	0.111530	-0.033039	0.009174
	H380	H	0.113460	-0.040074	0.026250
	O381	O	-0.024859	0.890320	0.820784
	H382	H	-0.003106	0.895862	0.813236
	H383	H	-0.007717	0.874867	0.824786
	O384	O	1.309146	-0.312104	0.709905
	H385	H	1.325265	-0.323391	0.682956
	H386	H	1.332528	-0.330807	0.696803
	O387	O	1.024607	0.847319	-0.145490
	H388	H	1.033416	0.831149	-0.150952
	H389	H	1.045364	0.847468	-0.137158
	O390	O	0.277643	0.541161	0.293297
	H391	H	0.266807	0.538901	0.301985
	H392	H	0.264641	0.526717	0.278461
	O393	O	0.304010	0.292797	0.687313
	H394	H	0.311069	0.315961	0.688530
	H395	H	0.292828	0.296286	0.700046
	O396	O	-0.219724	0.782868	1.046333
	H397	H	-0.248744	0.753236	1.048231
	H398	H	-0.217417	0.804085	1.067099
	O399	O	-0.208265	-0.037731	1.223527
	H400	H	-0.215419	-0.020484	1.233107
	H401	H	-0.193181	-0.020016	1.228723
	O402	O	0.621775	0.585499	0.566830
	H403	H	0.617886	0.589965	0.561627
	H404	H	0.627064	0.602674	0.554880
	O405	O	1.019374	0.087911	0.848124
	H406	H	0.990809	0.083817	0.846316
	H407	H	1.032515	0.075706	0.838576
	O408	O	0.487237	0.549447	-0.649635
	H409	H	0.488174	0.558385	-0.651937
	H410	H	0.485347	0.563378	-0.643559
	O411	O	0.540305	0.313528	0.370140
	H412	H	0.543444	0.309603	0.359370
	H413	H	0.541366	0.313047	0.378136
	O414	O	0.716791	0.555166	0.423323
	H415	H	0.723122	0.590643	0.422458
	H416	H	0.727748	0.535091	0.415081
	O417	O	0.725412	0.273059	0.480673
	H418	H	0.737179	0.274305	0.498208
	H419	H	0.748733	0.273599	0.496274
	O420	O	0.719821	0.527040	0.726910
	H421	H	0.705567	0.516473	0.731002
	H422	H	0.723925	0.514875	0.750218
	O423	O	0.013003	0.009747	0.788645
	H424	H	0.006588	0.016202	0.789587
	H425	H	0.013755	0.007987	0.794540
	O426	O	0.462609	0.284698	0.418875
	H427	H	0.482636	0.271931	0.406279
	H428	H	0.453031	0.281463	0.432639
	O429	O	0.792857	0.790938	1.222067
	H430	H	0.797247	0.835979	1.219771
	H431	H	0.821542	0.790936	1.208221
	O432	O	0.903044	0.953753	1.015208
	H433	H	0.898083	0.956449	1.018476
	H434	H	0.901382	0.947191	1.012847
	O435	O	0.053579	0.980747	0.014346
	H436	H	0.047270	0.981678	0.015781
	H437	H	0.065024	0.969415	0.005773
	O438	O	0.029392	0.220942	0.242845
	H439	H	0.045666	0.244570	0.268243
	H440	H	0.066026	0.218598	0.238690
	O441	O	0.223753	0.029039	0.238368
	H442	H	0.234795	0.057203	0.245568
	H443	H	0.235368	0.053704	0.254283
	O444	O	0.476567	0.461986	0.436718
	H445	H	0.494151	0.459500	0.441803
	H446	H	0.472187	0.480660	0.426068
	O447	O	0.205562	1.056212	1.049789
	H448	H	0.209576	1.060263	1.037264
	H449	H	0.196568	1.053630	1.052475
	O450	O	-0.263037	0.424241	1.555458
	H451	H	-0.267531	0.437984	1.572437
	H452	H	-0.260269	0.439900	1.559254
	O453	O	0.315464	0.712471	0.373408
	H454	H	0.336987	0.693405	0.357376
	H455	H	0.297065	0.730408	0.371217
	O456	O	0.522995	0.580777	0.411265
	H457	H	0.515608	0.589989	0.407969
	H458	H	0.547708	0.589639	0.429198
	O459	O	0.903569	1.211635	-0.113575
	H460	H	0.902782	1.196665	-0.098664
	H461	H	0.909912	1.202795	-0.106832
	O462	O	1.219325	-0.222398	-0.025497
	H463	H	1.220242	-0.214310	-0.022950
	H464	H	1.236918	-0.231291	-0.031768
	O465	O	1.151501	0.160022	-0.074050
	H466	H	1.140109	0.145462	-0.075189
	H467	H	1.149127	0.152807	-0.078515
	O468	O	0.286992	0.460180	0.726054
	H469	H	0.273870	0.471423	0.738767
	H470	H	0.290983	0.478838	0.721448
	O471	O	0.580322	0.493606	0.654407
	H472	H	0.586996	0.471765	0.654747
	H473	H	0.562524	0.493009	0.643067
	O474	O	0.212303	0.207057	0.227479
	H475	H	0.216852	0.214916	0.174047
	H476	H	0.246435	0.241633	0.253475
	O477	O	0.726403	0.725194	1.542233
	H478	H	0.734093	0.733861	1.571838
	H479	H	0.739014	0.744672	1.556564
	O480	O	0.208384	0.789206	-0.190362
	H481	H	0.221363	0.769050	-0.179436
	H482	H	0.222931	0.782837	-0.201383
	O483	O	0.561727	0.306534	0.531006
	H484	H	0.569096	0.311141	0.532469
	H485	H	0.558894	0.301821	0.528248
	O486	O	0.474060	0.722977	0.288498
	H487	H	0.458993	0.718621	0.284659
	H488	H	0.463673	0.748053	0.269754
	O489	O	0.995283	1.213758	-0.181280
	H490	H	0.977695	1.208797	-0.167373
	H491	H	0.984957	1.233132	-0.191279
	O492	O	-0.286273	0.285138	0.310977
	H493	H	-0.292151	0.309455	0.331121
	H494	H	-0.307171	0.282555	0.337328
	O495	O	0.140767	0.879631	1.198861
	H496	H	0.137510	0.901551	1.205387
	H497	H	0.139746	0.868028	1.190780
	O498	O	1.027677	1.052698	1.146835
	H499	H	1.037465	1.060246	1.151936
	H500	H	1.022952	1.066521	1.136855
	O501	O	0.797545	0.097794	0.821536
	H502	H	0.792312	0.071923	0.820690
	H503	H	0.792406	0.100926	0.811144
