data_Molecule from HDF5

_cell_length_a		16.400873
_cell_length_b		16.426819
_cell_length_c		16.294210
_cell_angle_alpha	89.895071
_cell_angle_beta	89.954513
_cell_angle_gamma	89.856773
_symmetry_space_group_name_H-M	'P 1'
_symmetry_Int_Tables_number		1

loop_
	_symmetry_equiv_pos_as_xyz
	x,y,z

loop_
	_atom_site_label
	_atom_site_type_symbol
	_atom_site_fract_x
	_atom_site_fract_y
	_atom_site_fract_z
	H0	H	0.396020	0.840972	0.717061
	H1	H	0.602424	0.159574	0.713551
	H2	H	0.602877	0.840166	0.275221
	H3	H	0.396285	0.159897	0.277201
	H4	H	0.720656	0.395652	0.836418
	H5	H	0.718294	0.602927	0.157042
	H6	H	0.280350	0.605599	0.833946
	H7	H	0.281200	0.398745	0.156188
	H8	H	0.840274	0.718433	0.391041
	H9	H	0.160616	0.718997	0.600180
	H10	H	0.840629	0.280457	0.596898
	H11	H	0.160661	0.278140	0.389026
	H12	H	0.840778	0.396617	0.714089
	H13	H	0.160447	0.602552	0.715474
	H14	H	0.839596	0.600078	0.277137
	H15	H	0.160836	0.396247	0.274707
	H16	H	0.396294	0.722127	0.834989
	H17	H	0.601733	0.718315	0.157928
	H18	H	0.605178	0.279756	0.836074
	H19	H	0.395394	0.281428	0.156050
	H20	H	0.720466	0.839906	0.390065
	H21	H	0.720621	0.158879	0.599933
	H22	H	0.281273	0.839717	0.600547
	H23	H	0.277978	0.157435	0.391198
	H24	H	0.897903	0.339687	0.214526
	H25	H	0.102370	0.659453	0.213465
	H26	H	0.104765	0.339949	0.775288
	H27	H	0.898458	0.659511	0.775650
	H28	H	0.221420	0.893867	0.335694
	H29	H	0.220478	0.102870	0.655860
	H30	H	0.780067	0.102888	0.334536
	H31	H	0.782282	0.896026	0.657185
	H32	H	0.340697	0.223033	0.888638
	H33	H	0.658160	0.221738	0.101590
	H34	H	0.340076	0.780217	0.101081
	H35	H	0.659260	0.779069	0.891041
	H36	H	0.339172	0.898833	0.213704
	H37	H	0.658836	0.104679	0.216458
	H38	H	0.340146	0.104082	0.774918
	H39	H	0.660579	0.897417	0.776820
	H40	H	0.896439	0.217939	0.333249
	H41	H	0.106887	0.220902	0.654037
	H42	H	0.105330	0.778522	0.334858
	H43	H	0.897740	0.780008	0.656965
	H44	H	0.224938	0.342601	0.886055
	H45	H	0.219044	0.659381	0.099053
	H46	H	0.778601	0.341232	0.102180
	H47	H	0.779597	0.659124	0.890108
	H48	H	0.407738	0.112676	0.579100
	H49	H	0.587732	0.887446	0.583596
	H50	H	0.588898	0.109964	0.413135
	H51	H	0.412357	0.886837	0.407738
	H52	H	0.577109	0.407644	0.107510
	H53	H	0.592686	0.587710	0.881084
	H54	H	0.410081	0.597215	0.111860
	H55	H	0.410984	0.416771	0.882216
	H56	H	0.113580	0.582356	0.400415
	H57	H	0.885942	0.584559	0.593882
	H58	H	0.112217	0.413874	0.581986
	H59	H	0.881516	0.396508	0.401299
	H60	H	0.117424	0.407187	0.590524
	H61	H	0.885437	0.598634	0.582661
	H62	H	0.117431	0.595211	0.401210
	H63	H	0.891878	0.409826	0.416444
	H64	H	0.402589	0.587540	0.110609
	H65	H	0.585668	0.589939	0.883705
	H66	H	0.596639	0.402040	0.115830
	H67	H	0.417328	0.412212	0.883269
	H68	H	0.599043	0.115713	0.404835
	H69	H	0.593755	0.885570	0.582384
	H70	H	0.407573	0.114845	0.586919
	H71	H	0.406599	0.884316	0.406123
	H72	H	0.914466	0.609398	0.077897
	H73	H	0.084822	0.387194	0.085717
	H74	H	0.097856	0.617224	0.902711
	H75	H	0.909808	0.385781	0.906683
	H76	H	0.091985	0.911121	0.609563
	H77	H	0.092024	0.083176	0.381828
	H78	H	0.907866	0.091073	0.610442
	H79	H	0.906462	0.909599	0.380325
	H80	H	0.614533	0.092299	0.903907
	H81	H	0.386107	0.094620	0.081318
	H82	H	0.612342	0.917817	0.090168
	H83	H	0.384000	0.910812	0.901159
	H84	H	0.616838	0.901605	0.088467
	H85	H	0.386707	0.087029	0.085004
	H86	H	0.611588	0.091620	0.909369
	H87	H	0.386622	0.906458	0.909820
	H88	H	0.909989	0.085588	0.608499
	H89	H	0.085622	0.086267	0.383680
	H90	H	0.086517	0.908624	0.609249
	H91	H	0.913018	0.909865	0.382795
	H92	H	0.082068	0.612167	0.899000
	H93	H	0.091025	0.388340	0.077441
	H94	H	0.899899	0.615082	0.082758
	H95	H	0.908238	0.385423	0.905390
	H96	H	0.414126	0.111698	0.583813
	H97	H	0.590964	0.884934	0.588566
	H98	H	0.586169	0.113928	0.399414
	H99	H	0.411851	0.884880	0.401800
	H100	H	0.593330	0.422449	0.108419
	H101	H	0.590027	0.594416	0.879251
	H102	H	0.414153	0.586728	0.106140
	H103	H	0.410282	0.409161	0.879674
	H104	H	0.111601	0.589760	0.412019
	H105	H	0.891336	0.582542	0.576188
	H106	H	0.115528	0.402520	0.579394
	H107	H	0.886951	0.417394	0.395610
	H108	H	0.912846	0.615009	0.092876
	H109	H	0.095401	0.383590	0.086251
	H110	H	0.088475	0.609458	0.914500
	H111	H	0.909848	0.386162	0.904350
	H112	H	0.091143	0.905560	0.610987
	H113	H	0.090758	0.089806	0.379616
	H114	H	0.913753	0.090334	0.608478
	H115	H	0.910336	0.904052	0.380051
	H116	H	0.612316	0.086651	0.905404
	H117	H	0.383827	0.093417	0.089719
	H118	H	0.610077	0.910265	0.075273
	H119	H	0.388783	0.916028	0.908745
	C120	C	0.378364	0.008041	0.616653
	C121	C	0.621777	0.991699	0.616297
	C122	C	0.622012	0.007872	0.373869
	C123	C	0.378227	0.990548	0.373983
	C124	C	0.621207	0.378729	0.005072
	C125	C	0.620552	0.621509	0.987976
	C126	C	0.377658	0.622673	0.003629
	C127	C	0.379764	0.380618	0.987208
	C128	C	0.008539	0.620427	0.373486
	C129	C	0.992830	0.619933	0.615873
	C130	C	0.009074	0.377421	0.615641
	C131	C	0.992417	0.376927	0.372689
	C132	C	0.878192	0.508128	0.117014
	C133	C	0.121261	0.491714	0.115315
	C134	C	0.122243	0.508300	0.872880
	C135	C	0.878166	0.491268	0.873918
	C136	C	0.122068	0.876665	0.504056
	C137	C	0.121721	0.119215	0.486844
	C138	C	0.879455	0.119956	0.502749
	C139	C	0.878778	0.877092	0.487398
	C140	C	0.507821	0.122574	0.873659
	C141	C	0.490772	0.122577	0.117261
	C142	C	0.507900	0.878859	0.116742
	C143	C	0.491862	0.879564	0.874453
	C144	C	0.377217	0.888529	0.677273
	C145	C	0.621969	0.111787	0.674372
	C146	C	0.622593	0.888005	0.314581
	C147	C	0.376992	0.111339	0.315814
	C148	C	0.680859	0.377139	0.884235
	C149	C	0.679077	0.622020	0.108907
	C150	C	0.319562	0.624141	0.882482
	C151	C	0.320233	0.379322	0.108055
	C152	C	0.888023	0.678467	0.372948
	C153	C	0.112829	0.679205	0.618185
	C154	C	0.888811	0.319503	0.616280
	C155	C	0.112679	0.317960	0.370804
	C156	C	0.888851	0.377542	0.674489
	C157	C	0.112822	0.621476	0.675819
	C158	C	0.887678	0.619619	0.316041
	C159	C	0.112701	0.376591	0.313778
	C160	C	0.377368	0.682080	0.882892
	C161	C	0.620864	0.679265	0.109309
	C162	C	0.623508	0.319408	0.884211
	C163	C	0.377179	0.321002	0.107838
	C164	C	0.681251	0.888014	0.371667
	C165	C	0.680871	0.111287	0.617699
	C166	C	0.320397	0.887660	0.619059
	C167	C	0.318366	0.110381	0.372749
	C168	C	0.878046	0.387717	0.175771
	C169	C	0.121199	0.611563	0.174129
	C170	C	0.123907	0.388271	0.814016
	C171	C	0.878397	0.611565	0.814820
	C172	C	0.181811	0.875013	0.383677
	C173	C	0.180929	0.121210	0.607705
	C174	C	0.820193	0.121110	0.382253
	C175	C	0.820556	0.876560	0.608662
	C176	C	0.388385	0.182730	0.870744
	C177	C	0.610495	0.181844	0.119664
	C178	C	0.387825	0.819884	0.119049
	C179	C	0.611722	0.819320	0.872563
	C180	C	0.387385	0.878757	0.175413
	C181	C	0.610836	0.123589	0.177108
	C182	C	0.388123	0.123541	0.814077
	C183	C	0.612204	0.878037	0.815681
	C184	C	0.878142	0.178378	0.381565
	C185	C	0.124530	0.180231	0.606613
	C186	C	0.123859	0.817839	0.383175
	C187	C	0.878323	0.818879	0.608629
	C188	C	0.183944	0.389730	0.869080
	C189	C	0.179374	0.611660	0.117125
	C190	C	0.818750	0.388572	0.119672
	C191	C	0.819233	0.611293	0.871739
	C192	C	0.402620	0.091371	0.590763
	C193	C	0.597740	0.907964	0.591833
	C194	C	0.598190	0.091420	0.398461
	C195	C	0.402927	0.906924	0.398336
	C196	C	0.596232	0.403442	0.088735
	C197	C	0.596501	0.597716	0.903329
	C198	C	0.401813	0.597655	0.087721
	C199	C	0.405386	0.405547	0.903562
	C200	C	0.092583	0.596146	0.397454
	C201	C	0.909326	0.595567	0.591204
	C202	C	0.093148	0.401059	0.591204
	C203	C	0.908471	0.400873	0.397425
	C204	C	0.902114	0.591467	0.091921
	C205	C	0.097421	0.408133	0.090125
	C206	C	0.096678	0.591352	0.898115
	C207	C	0.902216	0.407589	0.898355
	C208	C	0.097001	0.901327	0.587987
	C209	C	0.096603	0.093708	0.403431
	C210	C	0.903649	0.096064	0.587113
	C211	C	0.902852	0.901018	0.402954
	C212	C	0.591119	0.097483	0.898968
	C213	C	0.407228	0.098526	0.092545
	C214	C	0.591490	0.902981	0.091858
	C215	C	0.408527	0.904239	0.899274
	Zn216	Zn	0.500128	0.000336	0.744933
	Zn217	Zn	0.499483	0.000024	0.245501
	Zn218	Zn	0.749203	0.500303	-0.003619
	Zn219	Zn	0.250021	0.500253	-0.005463
	Zn220	Zn	0.000407	0.748975	0.495574
	Zn221	Zn	0.001235	0.248133	0.493795
	Zn222	Zn	0.000936	0.499621	0.745017
	Zn223	Zn	0.000461	0.498908	0.244517
	Zn224	Zn	0.499703	0.750544	-0.004007
	Zn225	Zn	0.499644	0.251169	-0.004402
	Zn226	Zn	0.750967	-0.000811	0.495580
	Zn227	Zn	0.250033	-0.001630	0.495967
	N228	N	0.412790	0.964326	0.675865
	N229	N	0.585853	0.036388	0.673500
	N230	N	0.586522	0.963510	0.315735
	N231	N	0.413721	0.035963	0.316741
	N232	N	0.679565	0.413330	0.960203
	N233	N	0.678877	0.586795	0.032430
	N234	N	0.319695	0.587921	0.958516
	N235	N	0.321862	0.415771	0.032074
	N236	N	0.964338	0.679173	0.407879
	N237	N	0.037294	0.678326	0.581620
	N238	N	0.964560	0.319387	0.580405
	N239	N	0.036672	0.317893	0.406460
	N240	N	0.964866	0.412605	0.674390
	N241	N	0.037355	0.585227	0.674414
	N242	N	0.963876	0.584667	0.315992
	N243	N	0.037030	0.412526	0.315028
	N244	N	0.412495	0.681500	0.959372
	N245	N	0.585085	0.679038	0.032902
	N246	N	0.587352	0.320061	0.960312
	N247	N	0.413405	0.321756	0.031770
	N248	N	0.681197	0.963564	0.407827
	N249	N	0.680868	0.035395	0.582426
	N250	N	0.321134	0.962759	0.582075
	N251	N	0.318900	0.034300	0.408043
	N252	N	0.914451	0.462908	0.174055
	N253	N	0.085816	0.535826	0.173226
	N254	N	0.086520	0.463056	0.815964
	N255	N	0.914055	0.535829	0.815688
	N256	N	0.180776	0.910942	0.459788
	N257	N	0.179179	0.083816	0.532267
	N258	N	0.821132	0.085279	0.458474
	N259	N	0.820511	0.911976	0.532100
	N260	N	0.463905	0.182349	0.906965
	N261	N	0.535079	0.181225	0.083025
	N262	N	0.463880	0.819811	0.083280
	N263	N	0.535821	0.819788	0.908185
	N264	N	0.462994	0.914623	0.174288
	N265	N	0.535319	0.087544	0.175801
	N266	N	0.463551	0.086929	0.815730
	N267	N	0.536736	0.914768	0.816687
	N268	N	0.914484	0.177952	0.457608
	N269	N	0.088461	0.179129	0.530604
	N270	N	0.087422	0.818683	0.459110
	N271	N	0.913574	0.819047	0.532122
	N272	N	0.183201	0.465555	0.904862
	N273	N	0.179579	0.536016	0.081191
	N274	N	0.818843	0.464392	0.083724
	N275	N	0.818858	0.535396	0.907592
	O276	O	0.453647	0.447319	0.381265
	H277	H	0.456241	0.453149	0.382305
	H278	H	0.457707	0.455777	0.391914
	O279	O	0.651976	0.357986	0.561512
	H280	H	0.645661	0.360707	0.551996
	H281	H	0.652784	0.367360	0.550049
	O282	O	0.487086	0.395004	0.561909
	H283	H	0.499745	0.398030	0.565368
	H284	H	0.498250	0.381295	0.560671
	O285	O	1.109425	-0.048908	0.117257
	H286	H	1.114106	-0.047764	0.127630
	H287	H	1.103499	-0.037842	0.119200
	O288	O	-0.089682	-0.138776	0.961529
	H289	H	-0.092908	-0.124693	0.968791
	H290	H	-0.076381	-0.159178	0.984061
	O291	O	0.423457	0.665963	0.558070
	H292	H	0.425762	0.658536	0.565664
	H293	H	0.423462	0.669377	0.554565
	O294	O	0.518486	0.383401	0.415785
	H295	H	0.502715	0.375019	0.407786
	H296	H	0.530504	0.387676	0.428613
	O297	O	0.963383	1.056178	1.192871
	H298	H	0.965582	1.047543	1.201393
	H299	H	0.950943	1.061916	1.187824
	O300	O	-0.088160	0.014470	0.076292
	H301	H	-0.092889	0.028109	0.068745
	H302	H	-0.089265	0.002441	0.084455
	O303	O	0.373331	0.530339	0.432825
	H304	H	0.385776	0.524687	0.428193
	H305	H	0.372131	0.535577	0.438831
	O306	O	0.796241	0.055420	0.021079
	H307	H	0.798936	0.068984	0.004330
	H308	H	0.791773	0.068452	0.010942
	O309	O	0.579015	0.421246	0.608432
	H310	H	0.579180	0.416498	0.607942
	H311	H	0.571116	0.436763	0.609753
	O312	O	0.811630	0.811987	0.172855
	H313	H	0.801864	0.841703	0.179313
	H314	H	0.825160	0.813118	0.151136
	O315	O	0.331726	0.370001	0.671669
	H316	H	0.343460	0.372508	0.670900
	H317	H	0.336999	0.352344	0.676629
	O318	O	0.362626	0.539116	0.381750
	H319	H	0.358402	0.538484	0.388096
	H320	H	0.369935	0.537680	0.387873
	O321	O	1.197304	0.135623	1.107001
	H322	H	1.192453	0.138881	1.123857
	H323	H	1.214212	0.148066	1.120000
	O324	O	-0.194131	0.006602	0.997026
	H325	H	-0.204206	0.004308	1.001832
	H326	H	-0.181839	0.010670	0.975347
	O327	O	0.479934	0.664523	0.519412
	H328	H	0.480335	0.670024	0.508531
	H329	H	0.475746	0.665792	0.519266
	O330	O	0.530276	0.410896	0.631431
	H331	H	0.514166	0.409065	0.633978
	H332	H	0.528604	0.400280	0.620742
	O333	O	1.034816	1.173492	1.131238
	H334	H	1.024180	1.155812	1.141892
	H335	H	1.026681	1.172101	1.134952
	O336	O	0.529495	0.571017	0.625062
	H337	H	0.525649	0.590753	0.613329
	H338	H	0.533476	0.565373	0.629686
	O339	O	1.043897	-0.091531	1.064885
	H340	H	1.051831	-0.110333	1.068440
	H341	H	1.048619	-0.092677	1.051919
	O342	O	-0.107536	0.908586	0.915721
	H343	H	-0.112741	0.925164	0.907225
	H344	H	-0.106473	0.919150	0.936015
	O345	O	-0.191606	0.793228	1.009285
	H346	H	-0.205964	0.795792	1.003462
	H347	H	-0.183006	0.788606	1.027028
	O348	O	0.466255	0.666516	0.434687
	H349	H	0.461329	0.671150	0.427772
	H350	H	0.463076	0.661208	0.426778
	O351	O	0.097046	0.049361	0.072672
	H352	H	0.091599	0.060768	0.066269
	H353	H	0.082758	0.033574	0.061943
	O354	O	0.962917	0.791343	0.195991
	H355	H	0.969942	0.772247	0.220674
	H356	H	0.944707	0.794894	0.178809
	O357	O	0.011933	1.156529	-0.061207
	H358	H	0.026675	1.165094	-0.052742
	H359	H	0.007429	1.147561	-0.042858
	O360	O	0.562647	0.449220	0.350220
	H361	H	0.561653	0.461200	0.350175
	H362	H	0.557378	0.456809	0.351526
	O363	O	0.395877	0.364694	0.476652
	H364	H	0.407592	0.355831	0.475997
	H365	H	0.399665	0.368301	0.463577
	O366	O	0.621158	0.516477	0.651007
	H367	H	0.623159	0.525926	0.668997
	H368	H	0.617038	0.516755	0.650385
	O369	O	0.406664	0.507489	0.647223
	H370	H	0.400143	0.509107	0.655664
	H371	H	0.404453	0.505278	0.641434
	O372	O	0.601451	0.428618	0.430369
	H373	H	0.604561	0.428163	0.422830
	H374	H	0.599113	0.431173	0.421101
	O375	O	0.628791	0.668048	0.461207
	H376	H	0.624782	0.671668	0.457323
	H377	H	0.622953	0.667050	0.466387
	O378	O	0.428148	0.504548	0.459733
	H379	H	0.416754	0.511632	0.457340
	H380	H	0.420421	0.499878	0.472557
	O381	O	0.565838	0.456567	0.334061
	H382	H	0.566104	0.457276	0.322180
	H383	H	0.566928	0.464553	0.339960
	O384	O	0.201257	0.872635	0.941707
	H385	H	0.188542	0.886717	0.909422
	H386	H	0.226450	0.856834	0.932745
	O387	O	1.080079	1.122213	-0.118290
	H388	H	1.100755	1.123656	-0.111129
	H389	H	1.064988	1.119661	-0.112083
	O390	O	0.422553	0.350641	0.439895
	H391	H	0.412128	0.355061	0.443128
	H392	H	0.423232	0.338357	0.445970
	O393	O	0.986451	0.163318	0.781413
	H394	H	1.006023	0.172354	0.800579
	H395	H	0.995092	0.176455	0.764547
	O396	O	-0.192976	1.190357	0.837451
	H397	H	-0.170974	1.183168	0.816756
	H398	H	-0.192169	1.191286	0.823978
	O399	O	0.589286	0.484407	0.468559
	H400	H	0.585918	0.501165	0.480912
	H401	H	0.590071	0.483351	0.479416
	O402	O	1.196232	0.071779	0.985989
	H403	H	1.193669	0.080385	0.998913
	H404	H	1.199319	0.070942	0.996663
	O405	O	-0.049072	0.173469	0.068079
	H406	H	-0.066789	0.168799	0.065620
	H407	H	-0.044023	0.153891	0.069149
	O408	O	0.925259	0.960517	0.833410
	H409	H	0.940439	0.954265	0.845899
	H410	H	0.923588	0.961866	0.846901
	O411	O	0.798504	1.186146	-0.086157
	H412	H	0.798792	1.188953	-0.125456
	H413	H	0.777497	1.206092	-0.093352
	O414	O	0.086590	-0.013289	0.867541
	H415	H	0.094009	0.004507	0.882319
	H416	H	0.095822	-0.010019	0.875533
	O417	O	0.517647	0.652148	0.546541
	H418	H	0.507551	0.648116	0.546801
	H419	H	0.525000	0.657554	0.539207
	O420	O	0.112951	0.984060	0.136619
	H421	H	0.129206	0.976166	0.124834
	H422	H	0.093057	0.973356	0.138190
	O423	O	1.166913	-0.154289	-0.190098
	H424	H	1.175073	-0.126378	-0.196865
	H425	H	1.137706	-0.160855	-0.191875
	O426	O	0.074659	-0.154741	0.893632
	H427	H	0.053209	-0.143656	0.900908
	H428	H	0.068060	-0.153135	0.891526
	O429	O	0.662436	0.553897	0.497845
	H430	H	0.676623	0.555938	0.511179
	H431	H	0.670036	0.558319	0.502266
