data_Molecule from HDF5

_cell_length_a		16.376285
_cell_length_b		16.578707
_cell_length_c		16.365000
_cell_angle_alpha	90.015292
_cell_angle_beta	89.953267
_cell_angle_gamma	89.782955
_symmetry_space_group_name_H-M	'P 1'
_symmetry_Int_Tables_number		1

loop_
	_symmetry_equiv_pos_as_xyz
	x,y,z

loop_
	_atom_site_label
	_atom_site_type_symbol
	_atom_site_fract_x
	_atom_site_fract_y
	_atom_site_fract_z
	H0	H	0.396776	0.861740	0.734797
	H1	H	0.611258	0.174345	0.736184
	H2	H	0.608205	0.861409	0.290119
	H3	H	0.394567	0.175057	0.287749
	H4	H	0.722588	0.411662	0.853356
	H5	H	0.719837	0.622113	0.171240
	H6	H	0.279548	0.624546	0.851741
	H7	H	0.279770	0.414528	0.170253
	H8	H	0.844199	0.742863	0.404284
	H9	H	0.160823	0.738618	0.618944
	H10	H	0.846553	0.291508	0.623187
	H11	H	0.158893	0.293026	0.400141
	H12	H	0.843141	0.412445	0.733264
	H13	H	0.159461	0.624078	0.734915
	H14	H	0.842075	0.622913	0.292241
	H15	H	0.160562	0.412778	0.288934
	H16	H	0.391314	0.744542	0.854148
	H17	H	0.608720	0.741693	0.169362
	H18	H	0.610919	0.292571	0.855001
	H19	H	0.389386	0.293969	0.168523
	H20	H	0.726999	0.862406	0.404119
	H21	H	0.725220	0.175633	0.618449
	H22	H	0.279501	0.861979	0.619968
	H23	H	0.277427	0.174883	0.403601
	H24	H	0.893468	0.362437	0.235241
	H25	H	0.106278	0.674125	0.233714
	H26	H	0.108731	0.363031	0.786963
	H27	H	0.890572	0.674671	0.786701
	H28	H	0.222270	0.915264	0.353365
	H29	H	0.226177	0.127356	0.669835
	H30	H	0.780636	0.124768	0.353596
	H31	H	0.782097	0.914346	0.671047
	H32	H	0.344966	0.243139	0.902591
	H33	H	0.657522	0.245893	0.123318
	H34	H	0.346120	0.794794	0.122151
	H35	H	0.657876	0.790508	0.898417
	H36	H	0.346049	0.912244	0.235933
	H37	H	0.661401	0.124988	0.233118
	H38	H	0.344952	0.126513	0.787159
	H39	H	0.660164	0.909672	0.786730
	H40	H	0.891725	0.244296	0.355445
	H41	H	0.114548	0.246569	0.666798
	H42	H	0.108967	0.796489	0.355137
	H43	H	0.893884	0.795857	0.670303
	H44	H	0.227111	0.363414	0.900120
	H45	H	0.224578	0.673384	0.118024
	H46	H	0.778546	0.361543	0.117391
	H47	H	0.774668	0.673756	0.902866
	H48	H	0.410872	0.129961	0.597800
	H49	H	0.588920	0.909415	0.598009
	H50	H	0.593119	0.130948	0.423443
	H51	H	0.412749	0.906674	0.424273
	H52	H	0.583645	0.425689	0.124883
	H53	H	0.587763	0.600294	0.900398
	H54	H	0.415817	0.603233	0.120661
	H55	H	0.411391	0.435814	0.899591
	H56	H	0.114277	0.605977	0.423147
	H57	H	0.887701	0.610720	0.599777
	H58	H	0.113894	0.430765	0.597167
	H59	H	0.887994	0.430316	0.420977
	H60	H	0.112689	0.432829	0.596041
	H61	H	0.889062	0.608467	0.596282
	H62	H	0.116153	0.608716	0.420420
	H63	H	0.889406	0.427697	0.429331
	H64	H	0.416289	0.612230	0.124132
	H65	H	0.581369	0.608025	0.900036
	H66	H	0.592995	0.428951	0.127238
	H67	H	0.421178	0.429090	0.900798
	H68	H	0.591048	0.131772	0.421706
	H69	H	0.595700	0.906847	0.596788
	H70	H	0.416476	0.130408	0.602677
	H71	H	0.415218	0.907603	0.421693
	H72	H	0.909503	0.631571	0.101261
	H73	H	0.091831	0.406351	0.096170
	H74	H	0.090730	0.629949	0.925287
	H75	H	0.912652	0.408332	0.925530
	H76	H	0.097733	0.933440	0.627160
	H77	H	0.084966	0.104647	0.401316
	H78	H	0.924142	0.106255	0.621899
	H79	H	0.917818	0.923948	0.397489
	H80	H	0.618634	0.112910	0.920729
	H81	H	0.389935	0.104485	0.100914
	H82	H	0.616270	0.927929	0.098016
	H83	H	0.389399	0.931929	0.920853
	H84	H	0.615625	0.930566	0.097457
	H85	H	0.388077	0.109021	0.100315
	H86	H	0.611225	0.107292	0.936278
	H87	H	0.390288	0.928502	0.928423
	H88	H	0.914760	0.110599	0.627118
	H89	H	0.088829	0.109312	0.398190
	H90	H	0.084572	0.931543	0.624241
	H91	H	0.910066	0.931946	0.398018
	H92	H	0.086649	0.630290	0.922022
	H93	H	0.090366	0.405022	0.103430
	H94	H	0.911475	0.630678	0.101630
	H95	H	0.909797	0.406015	0.921549
	H96	H	0.417324	0.127421	0.596153
	H97	H	0.592470	0.904900	0.603362
	H98	H	0.590937	0.130296	0.423948
	H99	H	0.415621	0.908092	0.425494
	H100	H	0.585968	0.435730	0.123039
	H101	H	0.590592	0.608886	0.896053
	H102	H	0.408652	0.607157	0.125594
	H103	H	0.411500	0.425006	0.895970
	H104	H	0.114992	0.609816	0.424486
	H105	H	0.888414	0.606534	0.600052
	H106	H	0.114171	0.433168	0.598752
	H107	H	0.891620	0.435415	0.426412
	H108	H	0.910802	0.630377	0.099401
	H109	H	0.085112	0.407918	0.099509
	H110	H	0.086111	0.628407	0.926892
	H111	H	0.915389	0.406873	0.920979
	H112	H	0.091752	0.921451	0.629654
	H113	H	0.091824	0.103049	0.399724
	H114	H	0.913823	0.100584	0.622239
	H115	H	0.920441	0.933820	0.402630
	H116	H	0.612263	0.096378	0.922018
	H117	H	0.390630	0.106331	0.096630
	H118	H	0.616158	0.929925	0.099507
	H119	H	0.392941	0.936081	0.926649
	C120	C	0.381588	0.026415	0.633074
	C121	C	0.625319	1.010140	0.633184
	C122	C	0.624832	0.027248	0.390037
	C123	C	0.380457	1.010572	0.389812
	C124	C	0.621385	0.396833	0.020507
	C125	C	0.621009	0.639184	1.003269
	C126	C	0.379578	0.641083	0.019230
	C127	C	0.380104	0.397172	1.002979
	C128	C	0.010475	0.640592	0.390096
	C129	C	0.993138	0.640359	0.633015
	C130	C	0.010331	0.397386	0.632169
	C131	C	0.993826	0.397751	0.390567
	C132	C	0.878291	0.527047	0.133420
	C133	C	0.122075	0.509788	0.132288
	C134	C	0.122006	0.526936	0.890227
	C135	C	0.878179	0.510034	0.889145
	C136	C	0.124028	0.896949	0.521879
	C137	C	0.123635	0.140082	0.503437
	C138	C	0.882423	0.139788	0.520101
	C139	C	0.882099	0.897161	0.503655
	C140	C	0.510168	0.139122	0.891548
	C141	C	0.493455	0.140511	0.133487
	C142	C	0.511645	0.897292	0.132178
	C143	C	0.494308	0.897161	0.890323
	C144	C	0.378438	0.909000	0.694863
	C145	C	0.628887	0.127387	0.695516
	C146	C	0.627238	0.908940	0.329569
	C147	C	0.376982	0.128060	0.328535
	C148	C	0.682867	0.393398	0.901200
	C149	C	0.681122	0.641093	0.123033
	C150	C	0.318791	0.643460	0.899951
	C151	C	0.318957	0.395409	0.122273
	C152	C	0.891636	0.701947	0.387041
	C153	C	0.112564	0.699573	0.636825
	C154	C	0.893123	0.333561	0.638705
	C155	C	0.111943	0.334985	0.384262
	C156	C	0.891084	0.393965	0.693512
	C157	C	0.111994	0.642464	0.694720
	C158	C	0.890436	0.642234	0.331115
	C159	C	0.112630	0.394565	0.328510
	C160	C	0.374377	0.703395	0.901150
	C161	C	0.625474	0.700461	0.122162
	C162	C	0.626926	0.334115	0.902098
	C163	C	0.374056	0.335469	0.121384
	C164	C	0.686294	0.909506	0.386579
	C165	C	0.685821	0.128030	0.636597
	C166	C	0.320162	0.909001	0.637375
	C167	C	0.318201	0.127827	0.386023
	C168	C	0.875637	0.409375	0.194778
	C169	C	0.124657	0.627406	0.193164
	C170	C	0.126562	0.409869	0.827318
	C171	C	0.873371	0.627300	0.827427
	C172	C	0.183202	0.895967	0.401559
	C173	C	0.186164	0.144804	0.621874
	C174	C	0.820618	0.143108	0.401322
	C175	C	0.821364	0.895565	0.623383
	C176	C	0.391997	0.201750	0.885633
	C177	C	0.611188	0.203466	0.138988
	C178	C	0.393205	0.835953	0.137938
	C179	C	0.611451	0.832897	0.883479
	C180	C	0.393247	0.894363	0.195050
	C181	C	0.613021	0.143398	0.194162
	C182	C	0.392256	0.143701	0.828063
	C183	C	0.612478	0.892275	0.827613
	C184	C	0.876224	0.202450	0.402334
	C185	C	0.130398	0.204179	0.620521
	C186	C	0.126754	0.837088	0.402337
	C187	C	0.877580	0.836732	0.622821
	C188	C	0.185187	0.410042	0.884245
	C189	C	0.183556	0.626947	0.135829
	C190	C	0.818395	0.408857	0.135875
	C191	C	0.815420	0.627158	0.885439
	C192	C	0.407511	0.107896	0.606567
	C193	C	0.599634	0.928270	0.606835
	C194	C	0.599079	0.109503	0.415538
	C195	C	0.406927	0.928742	0.416190
	C196	C	0.595101	0.422754	0.103377
	C197	C	0.594344	0.613283	0.920528
	C198	C	0.405970	0.615036	0.101926
	C199	C	0.407047	0.422649	0.920366
	C200	C	0.093695	0.615359	0.415435
	C201	C	0.910112	0.615471	0.606437
	C202	C	0.092202	0.424335	0.605009
	C203	C	0.911438	0.423605	0.417648
	C204	C	0.903289	0.609340	0.107806
	C205	C	0.096612	0.427808	0.106960
	C206	C	0.095306	0.608195	0.917186
	C207	C	0.904895	0.428379	0.915359
	C208	C	0.098617	0.921696	0.605297
	C209	C	0.096390	0.113224	0.421261
	C210	C	0.909702	0.113378	0.602234
	C211	C	0.908534	0.922589	0.420763
	C212	C	0.592367	0.113011	0.918681
	C213	C	0.411227	0.114156	0.106837
	C214	C	0.594302	0.922376	0.105849
	C215	C	0.412224	0.924507	0.917650
	Zn216	Zn	0.503103	0.018581	0.761722
	Zn217	Zn	0.503185	0.018894	0.260989
	Zn218	Zn	0.749359	0.518277	0.011656
	Zn219	Zn	0.251971	0.518132	0.010709
	Zn220	Zn	0.002560	0.768690	0.512564
	Zn221	Zn	0.002742	0.268806	0.511065
	Zn222	Zn	0.000799	0.518755	0.760488
	Zn223	Zn	0.000650	0.518479	0.262051
	Zn224	Zn	0.501870	0.768642	0.010878
	Zn225	Zn	0.501031	0.268766	0.012057
	Zn226	Zn	0.754413	0.018764	0.511785
	Zn227	Zn	0.251639	0.019037	0.512416
	N228	N	0.415724	0.983068	0.692364
	N229	N	0.592381	0.052858	0.693906
	N230	N	0.589925	0.983359	0.331371
	N231	N	0.414800	0.053971	0.330712
	N232	N	0.679509	0.431631	0.975633
	N233	N	0.678481	0.603755	0.048002
	N234	N	0.321757	0.605457	0.974457
	N235	N	0.322490	0.433027	0.047507
	N236	N	0.967524	0.701065	0.422923
	N237	N	0.037490	0.698531	0.599416
	N238	N	0.968298	0.335517	0.601355
	N239	N	0.037157	0.336895	0.422156
	N240	N	0.964907	0.433045	0.689712
	N241	N	0.036359	0.606709	0.692807
	N242	N	0.965321	0.604851	0.332721
	N243	N	0.037976	0.432778	0.332212
	N244	N	0.411227	0.702249	0.976551
	N245	N	0.589200	0.699524	0.046471
	N246	N	0.589629	0.335959	0.977423
	N247	N	0.411304	0.336365	0.046008
	N248	N	0.685083	0.984160	0.423118
	N249	N	0.683870	0.054062	0.598782
	N250	N	0.321823	0.982960	0.599702
	N251	N	0.320374	0.053622	0.423531
	N252	N	0.912124	0.483938	0.193293
	N253	N	0.087219	0.553502	0.191162
	N254	N	0.087668	0.483551	0.830873
	N255	N	0.911612	0.553495	0.829384
	N256	N	0.181958	0.932158	0.477064
	N257	N	0.181933	0.105509	0.547965
	N258	N	0.824419	0.104693	0.475570
	N259	N	0.824054	0.932580	0.548214
	N260	N	0.466309	0.199148	0.924416
	N261	N	0.535887	0.201899	0.102008
	N262	N	0.467587	0.837886	0.099385
	N263	N	0.536951	0.836066	0.922036
	N264	N	0.467798	0.931978	0.191564
	N265	N	0.538832	0.104858	0.190882
	N266	N	0.466742	0.105448	0.831561
	N267	N	0.538735	0.931792	0.831935
	N268	N	0.913792	0.200584	0.477381
	N269	N	0.092280	0.201353	0.545935
	N270	N	0.091056	0.837439	0.478308
	N271	N	0.914585	0.837613	0.547450
	N272	N	0.182589	0.483671	0.922590
	N273	N	0.181964	0.552891	0.098721
	N274	N	0.819701	0.483114	0.098647
	N275	N	0.818240	0.553202	0.923212
	O276	O	0.294918	0.733402	0.442438
	H277	H	0.258799	0.764613	0.428952
	H278	H	0.304173	0.713578	0.403059
	O279	O	0.923667	-0.196660	0.929011
	H280	H	0.925854	-0.200601	0.962658
	H281	H	0.903955	-0.188253	0.948393
	O282	O	0.596576	0.378563	0.607483
	H283	H	0.580905	0.376788	0.594858
	H284	H	0.620186	0.366032	0.599560
	O285	O	0.153296	-0.155851	1.162048
	H286	H	0.142604	-0.137425	1.156238
	H287	H	0.143650	-0.144283	1.150841
	O288	O	1.215894	0.804870	-0.007744
	H289	H	1.252362	0.777773	-0.010930
	H290	H	1.216042	0.838644	0.012019
	O291	O	0.485757	0.722637	0.579874
	H292	H	0.471684	0.724612	0.590321
	H293	H	0.468154	0.728912	0.555417
	O294	O	-0.057599	0.026325	1.023141
	H295	H	-0.059280	0.028189	1.002496
	H296	H	-0.049415	0.017826	1.034017
	O297	O	1.024005	0.070586	0.220139
	H298	H	1.025569	0.063393	0.232683
	H299	H	1.017205	0.082146	0.203126
	O300	O	0.818027	1.204535	-0.176694
	H301	H	0.862300	1.214324	-0.176776
	H302	H	0.817177	1.205609	-0.142437
	O303	O	0.680729	0.307738	0.500049
	H304	H	0.706645	0.284618	0.506993
	H305	H	0.682158	0.318577	0.460279
	O306	O	0.614816	0.422462	0.524427
	H307	H	0.619709	0.412643	0.521402
	H308	H	0.619879	0.415342	0.505831
	O309	O	0.307588	0.503790	0.507629
	H310	H	0.302962	0.509347	0.500485
	H311	H	0.297883	0.503994	0.492584
	O312	O	0.083637	1.092302	1.007114
	H313	H	0.068136	1.079625	0.989866
	H314	H	0.090343	1.096127	0.991078
	O315	O	0.302206	0.672413	0.314516
	H316	H	0.301383	0.639021	0.312020
	H317	H	0.303951	0.681509	0.286852
	O318	O	0.784682	0.043985	-0.201544
	H319	H	0.747067	0.047720	-0.237494
	H320	H	0.795626	0.080576	-0.184619
	O321	O	-0.211558	0.228670	-0.013691
	H322	H	-0.208888	0.208756	0.004938
	H323	H	-0.238035	0.250215	-0.010850
	O324	O	0.294200	0.311823	0.526306
	H325	H	0.285423	0.301210	0.541574
	H326	H	0.291191	0.303421	0.544953
	O327	O	0.449812	0.311360	0.458203
	H328	H	0.456322	0.305221	0.443049
	H329	H	0.445663	0.307807	0.465866
	O330	O	-0.173436	1.056918	0.097265
	H331	H	-0.167947	1.030241	0.102862
	H332	H	-0.173392	1.044895	0.101103
	O333	O	-0.048492	0.973224	0.829695
	H334	H	-0.050052	0.949795	0.833927
	H335	H	-0.083844	0.976636	0.827538
	O336	O	-0.031192	-0.138879	0.139499
	H337	H	-0.029428	-0.127685	0.144774
	H338	H	-0.036461	-0.148516	0.127691
	O339	O	0.084541	1.097341	0.798074
	H340	H	0.122631	1.083286	0.788686
	H341	H	0.064089	1.058120	0.795096
	O342	O	0.214196	1.037266	1.221873
	H343	H	0.202762	1.068358	1.208903
	H344	H	0.236223	1.045784	1.252619
	O345	O	1.520932	0.309504	-0.698247
	H346	H	1.508684	0.317680	-0.690003
	H347	H	1.530378	0.291306	-0.723177
	O348	O	-0.018825	0.193088	0.163741
	H349	H	-0.009312	0.216637	0.180188
	H350	H	-0.023319	0.198845	0.141912
	O351	O	0.183573	0.844841	0.830082
	H352	H	0.159978	0.829840	0.847567
	H353	H	0.162806	0.834545	0.851172
	O354	O	-0.504300	0.696696	0.302776
	H355	H	-0.489056	0.709613	0.307489
	H356	H	-0.513959	0.705043	0.299996
	O357	O	-0.494969	-0.359513	0.654309
	H358	H	-0.507008	-0.358400	0.665668
	H359	H	-0.505514	-0.376107	0.641792
	O360	O	0.708019	0.507811	0.335889
	H361	H	0.719161	0.519704	0.339102
	H362	H	0.709765	0.517298	0.332717
	O363	O	-0.541998	-0.457239	1.539968
	H364	H	-0.544259	-0.445337	1.543529
	H365	H	-0.528035	-0.464970	1.541262
	O366	O	0.787997	-0.009215	1.223900
	H367	H	0.794940	-0.007636	1.232571
	H368	H	0.768866	-0.014196	1.239406
	O369	O	0.463471	0.654327	0.627789
	H370	H	0.454117	0.654890	0.628773
	H371	H	0.452295	0.654231	0.612505
	O372	O	0.825996	-0.200106	1.036748
	H373	H	0.803427	-0.203495	1.038257
	H374	H	0.814098	-0.189635	1.054504
	O375	O	-0.142716	-0.006023	-0.046963
	H376	H	-0.143653	0.001827	-0.051062
	H377	H	-0.141324	0.011671	-0.055039
	O378	O	0.645395	0.593301	0.490708
	H379	H	0.651548	0.596705	0.483973
	H380	H	0.634087	0.604035	0.500097
	O381	O	0.400501	0.586636	0.502996
	H382	H	0.402201	0.596898	0.488017
	H383	H	0.388762	0.580182	0.497165
	O384	O	0.688997	0.713010	0.623549
	H385	H	0.665415	0.725260	0.636628
	H386	H	0.692472	0.681267	0.643660
	O387	O	0.025468	-0.194777	0.797664
	H388	H	-0.006740	-0.195110	0.831846
	H389	H	0.024327	-0.235004	0.770145
	O390	O	-0.697940	-0.470618	0.351259
	H391	H	-0.689240	-0.474114	0.341300
	H392	H	-0.705835	-0.494470	0.351108
	O393	O	1.183855	1.219324	1.022184
	H394	H	1.207029	1.245827	1.014244
	H395	H	1.177084	1.202520	0.996826
	O396	O	2.025371	0.798052	-0.892978
	H397	H	2.037667	0.786718	-0.890503
	H398	H	2.020490	0.809017	-0.886867
	O399	O	1.217201	0.000872	0.794965
	H400	H	1.198356	-0.044485	0.804351
	H401	H	1.250716	-0.009707	0.760114
	O402	O	1.547065	0.502482	0.380889
	H403	H	1.526448	0.518434	0.384246
	H404	H	1.551240	0.513585	0.398076
	O405	O	0.979601	0.996946	0.224509
	H406	H	0.993053	0.984236	0.218020
	H407	H	0.991036	1.020805	0.228516
	O408	O	0.929423	0.218267	0.098840
	H409	H	0.913755	0.209564	0.096258
	H410	H	0.948886	0.216129	0.068263
	O411	O	1.129009	1.131212	-0.039539
	H412	H	1.125436	1.118204	-0.061285
	H413	H	1.135957	1.140502	-0.048038
	O414	O	0.640849	0.729334	0.502557
	H415	H	0.633031	0.727180	0.513612
	H416	H	0.656120	0.735736	0.520133
	O417	O	0.641869	0.663131	0.367400
	H418	H	0.645736	0.653654	0.370777
	H419	H	0.631444	0.680145	0.390398
	O420	O	0.031512	0.119100	-0.045229
	H421	H	0.023768	0.116944	-0.058764
	H422	H	0.038847	0.117283	-0.044526
	O423	O	0.495898	0.512695	0.526668
	H424	H	0.493009	0.512230	0.536805
	H425	H	0.498188	0.523175	0.530198
	O426	O	0.821386	0.829833	0.194372
	H427	H	0.812900	0.827606	0.195309
	H428	H	0.841021	0.846234	0.188167
	O429	O	0.317648	0.332573	0.693461
	H430	H	0.352257	0.331863	0.692686
	H431	H	0.316510	0.373873	0.694936
	O432	O	0.479768	0.307986	0.719534
	H433	H	0.492367	0.292973	0.721984
	H434	H	0.480214	0.303124	0.719785
	O435	O	0.706463	0.538192	0.714378
	H436	H	0.714402	0.529531	0.724251
	H437	H	0.716192	0.519175	0.712635
	O438	O	0.180049	0.197460	0.172558
	H439	H	0.162746	0.198965	0.151300
	H440	H	0.166011	0.214149	0.150521
	O441	O	0.984388	0.224319	-0.194278
	H442	H	1.000048	0.206929	-0.199034
	H443	H	0.998741	0.223473	-0.218601
	O444	O	0.224889	0.957809	1.067379
	H445	H	0.227639	0.968800	1.076246
	H446	H	0.224426	0.989307	1.060303
	O447	O	0.683955	0.329129	0.329541
	H448	H	0.662519	0.322972	0.328506
	H449	H	0.682189	0.368290	0.320394
	O450	O	0.298689	0.494988	0.674850
	H451	H	0.287013	0.509578	0.684875
	H452	H	0.302307	0.506682	0.663483
	O453	O	0.576355	0.433287	0.653903
	H454	H	0.569381	0.422401	0.643859
	H455	H	0.595027	0.441772	0.656200
