data_Molecule from HDF5

_cell_length_a		16.397328
_cell_length_b		16.441575
_cell_length_c		16.779359
_cell_angle_alpha	90.003183
_cell_angle_beta	90.026020
_cell_angle_gamma	89.957094
_symmetry_space_group_name_H-M	'P 1'
_symmetry_Int_Tables_number		1

loop_
	_symmetry_equiv_pos_as_xyz
	x,y,z

loop_
	_atom_site_label
	_atom_site_type_symbol
	_atom_site_fract_x
	_atom_site_fract_y
	_atom_site_fract_z
	H0	H	0.400295	0.822347	0.747394
	H1	H	0.616742	0.134605	0.745512
	H2	H	0.616262	0.822335	0.302164
	H3	H	0.402559	0.136476	0.302085
	H4	H	0.730816	0.374569	0.866819
	H5	H	0.728762	0.580105	0.178915
	H6	H	0.290788	0.581419	0.864744
	H7	H	0.293170	0.378879	0.180160
	H8	H	0.852207	0.695179	0.423322
	H9	H	0.169812	0.697498	0.627432
	H10	H	0.852274	0.260607	0.624338
	H11	H	0.171513	0.261478	0.422646
	H12	H	0.853749	0.371070	0.745301
	H13	H	0.166664	0.587911	0.748367
	H14	H	0.853730	0.584318	0.302743
	H15	H	0.169288	0.371818	0.301896
	H16	H	0.407259	0.699669	0.865201
	H17	H	0.612246	0.698913	0.178348
	H18	H	0.614745	0.256153	0.867648
	H19	H	0.408078	0.259147	0.179178
	H20	H	0.728226	0.819910	0.421955
	H21	H	0.728802	0.137108	0.625508
	H22	H	0.292926	0.819070	0.625728
	H23	H	0.290370	0.137219	0.421910
	H24	H	0.903792	0.321400	0.243896
	H25	H	0.114062	0.635668	0.242293
	H26	H	0.116845	0.323060	0.800773
	H27	H	0.897038	0.633016	0.795805
	H28	H	0.234447	0.871843	0.370122
	H29	H	0.237148	0.087379	0.677100
	H30	H	0.785197	0.086930	0.371060
	H31	H	0.785208	0.869631	0.677205
	H32	H	0.351019	0.197099	0.919958
	H33	H	0.668814	0.197190	0.125377
	H34	H	0.350428	0.761232	0.124494
	H35	H	0.669306	0.760233	0.920964
	H36	H	0.353041	0.872593	0.245186
	H37	H	0.667526	0.084372	0.243722
	H38	H	0.353185	0.086936	0.799395
	H39	H	0.667157	0.870267	0.799695
	H40	H	0.902983	0.203326	0.370663
	H41	H	0.122465	0.206925	0.675551
	H42	H	0.117263	0.753971	0.370754
	H43	H	0.903153	0.753629	0.678335
	H44	H	0.229116	0.320552	0.920153
	H45	H	0.226329	0.638377	0.121856
	H46	H	0.791052	0.319943	0.125081
	H47	H	0.787089	0.636143	0.916938
	H48	H	0.428613	0.090410	0.617265
	H49	H	0.596743	0.865251	0.612486
	H50	H	0.604199	0.095832	0.429517
	H51	H	0.425311	0.867278	0.436007
	H52	H	0.596121	0.387318	0.131329
	H53	H	0.593209	0.564344	0.914513
	H54	H	0.420190	0.574525	0.133633
	H55	H	0.423770	0.384574	0.911542
	H56	H	0.126662	0.568977	0.432241
	H57	H	0.894296	0.573135	0.611429
	H58	H	0.121109	0.398388	0.610262
	H59	H	0.897550	0.387028	0.435538
	H60	H	0.125321	0.394255	0.617821
	H61	H	0.902699	0.560863	0.603407
	H62	H	0.125179	0.563901	0.433919
	H63	H	0.900701	0.395194	0.433374
	H64	H	0.414392	0.570681	0.134628
	H65	H	0.596927	0.576008	0.909903
	H66	H	0.602278	0.384203	0.135428
	H67	H	0.415593	0.385762	0.909706
	H68	H	0.591865	0.091505	0.428511
	H69	H	0.596861	0.865842	0.612398
	H70	H	0.428248	0.088102	0.607286
	H71	H	0.421704	0.865663	0.432222
	H72	H	0.921201	0.591428	0.111448
	H73	H	0.103319	0.363142	0.114675
	H74	H	0.096999	0.590925	0.938319
	H75	H	0.926196	0.367896	0.933673
	H76	H	0.100547	0.890598	0.634449
	H77	H	0.105882	0.062391	0.414054
	H78	H	0.920531	0.067089	0.634771
	H79	H	0.918111	0.888576	0.413543
	H80	H	0.624082	0.063746	0.928278
	H81	H	0.393628	0.071604	0.115945
	H82	H	0.625254	0.887806	0.114606
	H83	H	0.400059	0.896276	0.936998
	H84	H	0.621906	0.891517	0.110479
	H85	H	0.397524	0.067517	0.108744
	H86	H	0.623908	0.069271	0.935288
	H87	H	0.395170	0.893569	0.926235
	H88	H	0.924366	0.064139	0.631857
	H89	H	0.092573	0.063450	0.417983
	H90	H	0.098771	0.888886	0.633918
	H91	H	0.923511	0.889483	0.415107
	H92	H	0.099205	0.593009	0.932844
	H93	H	0.102537	0.362260	0.117726
	H94	H	0.919139	0.593637	0.115420
	H95	H	0.923043	0.368045	0.936527
	H96	H	0.419432	0.091821	0.611665
	H97	H	0.597211	0.865835	0.612483
	H98	H	0.598396	0.091002	0.439909
	H99	H	0.426896	0.867048	0.431048
	H100	H	0.602941	0.391374	0.133570
	H101	H	0.605721	0.565604	0.909958
	H102	H	0.420680	0.567746	0.131290
	H103	H	0.420288	0.392472	0.912739
	H104	H	0.126002	0.564824	0.428912
	H105	H	0.898539	0.558093	0.619360
	H106	H	0.124277	0.389384	0.609704
	H107	H	0.896168	0.390711	0.427524
	H108	H	0.923829	0.591790	0.115763
	H109	H	0.100248	0.363788	0.115779
	H110	H	0.093460	0.590464	0.933047
	H111	H	0.922479	0.366787	0.932449
	H112	H	0.101171	0.888048	0.635217
	H113	H	0.098494	0.074434	0.411872
	H114	H	0.925590	0.069616	0.633417
	H115	H	0.922079	0.884803	0.412481
	H116	H	0.620731	0.060673	0.935576
	H117	H	0.396273	0.063352	0.116662
	H118	H	0.623700	0.893735	0.116646
	H119	H	0.395454	0.885082	0.935165
	C120	C	0.390809	-0.013440	0.644480
	C121	C	0.630403	0.969797	0.644336
	C122	C	0.631111	-0.011853	0.401864
	C123	C	0.390021	0.970454	0.401870
	C124	C	0.632490	0.355649	0.031110
	C125	C	0.630744	0.600168	1.014352
	C126	C	0.387765	0.601778	0.029832
	C127	C	0.388718	0.356978	1.014573
	C128	C	0.020500	0.598224	0.401879
	C129	C	1.002036	0.598480	0.644749
	C130	C	0.019447	0.359678	0.644152
	C131	C	1.002816	0.357828	0.401077
	C132	C	0.889581	0.487127	0.144296
	C133	C	0.132126	0.468943	0.144898
	C134	C	0.130025	0.487700	0.902270
	C135	C	0.889379	0.470782	0.901533
	C136	C	0.133056	0.856098	0.533029
	C137	C	0.133714	0.101132	0.515730
	C138	C	0.889396	0.100539	0.532257
	C139	C	0.888076	0.854958	0.515474
	C140	C	0.518680	0.098360	0.901375
	C141	C	0.501050	0.099274	0.144323
	C142	C	0.518578	0.858718	0.144543
	C143	C	0.501755	0.858603	0.901606
	C144	C	0.385011	0.868870	0.705772
	C145	C	0.634322	0.087908	0.704881
	C146	C	0.633958	0.869585	0.342357
	C147	C	0.385488	0.089245	0.342477
	C148	C	0.691479	0.354992	0.913894
	C149	C	0.689388	0.600116	0.132058
	C150	C	0.329933	0.601144	0.911875
	C151	C	0.331522	0.358468	0.132772
	C152	C	0.900210	0.656348	0.403179
	C153	C	0.121593	0.658780	0.646759
	C154	C	0.899946	0.299768	0.644316
	C155	C	0.122954	0.299433	0.401928
	C156	C	0.900751	0.354960	0.704249
	C157	C	0.119822	0.604303	0.706995
	C158	C	0.901185	0.601393	0.343094
	C159	C	0.121760	0.354425	0.341915
	C160	C	0.387592	0.660191	0.912113
	C161	C	0.631304	0.658866	0.131900
	C162	C	0.633644	0.296203	0.914045
	C163	C	0.388795	0.298999	0.132456
	C164	C	0.689675	0.868271	0.402051
	C165	C	0.689905	0.089087	0.645199
	C166	C	0.330754	0.867478	0.645576
	C167	C	0.329661	0.089591	0.402002
	C168	C	0.886671	0.368340	0.203306
	C169	C	0.132889	0.588682	0.202452
	C170	C	0.134068	0.369565	0.841692
	C171	C	0.881995	0.587167	0.838508
	C172	C	0.193785	0.853399	0.416544
	C173	C	0.196598	0.105481	0.630758
	C174	C	0.826176	0.104724	0.417258
	C175	C	0.826644	0.852203	0.631297
	C176	C	0.399340	0.158336	0.900304
	C177	C	0.621017	0.157894	0.144591
	C178	C	0.398656	0.800012	0.144445
	C179	C	0.621467	0.799160	0.901283
	C180	C	0.399891	0.855260	0.204321
	C181	C	0.620193	0.102123	0.203632
	C182	C	0.400263	0.103232	0.840503
	C183	C	0.620260	0.854005	0.841190
	C184	C	0.884785	0.162659	0.416881
	C185	C	0.139344	0.164899	0.630027
	C186	C	0.135780	0.794689	0.416859
	C187	C	0.885434	0.794295	0.631740
	C188	C	0.189881	0.368354	0.901062
	C189	C	0.188726	0.589694	0.143010
	C190	C	0.830247	0.367888	0.144415
	C191	C	0.826928	0.588474	0.898455
	C192	C	0.417690	0.068852	0.619341
	C193	C	0.604521	0.887245	0.619626
	C194	C	0.605631	0.071133	0.425978
	C195	C	0.416818	0.888179	0.426213
	C196	C	0.607477	0.380118	0.112230
	C197	C	0.605897	0.575735	0.932764
	C198	C	0.411653	0.577927	0.111752
	C199	C	0.412924	0.380591	0.932685
	C200	C	0.104251	0.573249	0.425336
	C201	C	0.919874	0.571808	0.618836
	C202	C	0.101963	0.386360	0.619690
	C203	C	0.919710	0.383624	0.425153
	C204	C	0.914411	0.570530	0.120723
	C205	C	0.108635	0.384759	0.122494
	C206	C	0.103927	0.570142	0.927411
	C207	C	0.916416	0.388855	0.926977
	C208	C	0.107449	0.881786	0.613629
	C209	C	0.106512	0.074180	0.435506
	C210	C	0.915994	0.074372	0.612544
	C211	C	0.913873	0.880385	0.434707
	C212	C	0.601341	0.072032	0.926037
	C213	C	0.417615	0.074453	0.120575
	C214	C	0.601956	0.883933	0.120620
	C215	C	0.418534	0.884357	0.925779
	Zn216	Zn	0.510187	-0.021854	0.773060
	Zn217	Zn	0.509822	-0.020704	0.272958
	Zn218	Zn	0.761385	0.478871	0.022507
	Zn219	Zn	0.258728	0.479004	0.021974
	Zn220	Zn	0.011156	0.725862	0.524298
	Zn221	Zn	0.011426	0.230692	0.523383
	Zn222	Zn	0.010020	0.479326	0.773230
	Zn223	Zn	0.010874	0.478392	0.272610
	Zn224	Zn	0.509911	0.731317	0.022408
	Zn225	Zn	0.510017	0.226168	0.022514
	Zn226	Zn	0.759259	-0.021685	0.524206
	Zn227	Zn	0.262798	-0.021816	0.524206
	N228	N	0.421362	0.944099	0.705332
	N229	N	0.598203	0.012651	0.704583
	N230	N	0.598628	0.945338	0.341883
	N231	N	0.422141	0.014107	0.342135
	N232	N	0.691174	0.391033	0.987578
	N233	N	0.689171	0.564424	0.057883
	N234	N	0.329588	0.565849	0.986162
	N235	N	0.330903	0.393423	0.058328
	N236	N	0.975564	0.654772	0.438954
	N237	N	0.047387	0.655334	0.608750
	N238	N	0.974916	0.302234	0.607866
	N239	N	0.047702	0.301301	0.437976
	N240	N	0.976080	0.391261	0.704360
	N241	N	0.044392	0.568041	0.706173
	N242	N	0.977206	0.566225	0.341984
	N243	N	0.045842	0.389698	0.341027
	N244	N	0.422424	0.661023	0.986544
	N245	N	0.596004	0.659250	0.057696
	N246	N	0.597903	0.296123	0.988036
	N247	N	0.423300	0.297697	0.057876
	N248	N	0.688510	0.943280	0.438082
	N249	N	0.687715	0.014592	0.608428
	N250	N	0.334173	0.941827	0.608038
	N251	N	0.332034	0.014623	0.437918
	N252	N	0.922946	0.443679	0.203489
	N253	N	0.099029	0.512355	0.204050
	N254	N	0.097765	0.444859	0.842207
	N255	N	0.920364	0.513056	0.840378
	N256	N	0.192498	0.890589	0.489751
	N257	N	0.193142	0.066389	0.558479
	N258	N	0.828997	0.066500	0.489836
	N259	N	0.828145	0.889352	0.557964
	N260	N	0.473960	0.155648	0.937318
	N261	N	0.545741	0.156433	0.108453
	N262	N	0.473571	0.802122	0.107784
	N263	N	0.546613	0.801824	0.937802
	N264	N	0.475596	0.890891	0.204688
	N265	N	0.544536	0.066650	0.203642
	N266	N	0.475621	0.066613	0.840918
	N267	N	0.544433	0.889708	0.840923
	N268	N	0.923484	0.160274	0.489389
	N269	N	0.100799	0.161999	0.557429
	N270	N	0.098929	0.796014	0.490283
	N271	N	0.923048	0.795898	0.558722
	N272	N	0.187420	0.442929	0.937985
	N273	N	0.188415	0.514206	0.107849
	N274	N	0.831983	0.442807	0.108279
	N275	N	0.831476	0.515071	0.937052
	O276	O	1.035908	0.999999	0.094661
	H277	H	1.032491	0.990400	0.090062
	H278	H	1.059056	1.000381	0.075212
	O279	O	0.490343	0.685169	0.313137
	H280	H	0.471180	0.683723	0.313281
	H281	H	0.476646	0.694440	0.303047
	O282	O	1.094595	-0.177018	0.081075
	H283	H	1.098051	-0.172977	0.063173
	H284	H	1.084757	-0.187476	0.075137
	O285	O	-0.142678	0.903787	0.009207
	H286	H	-0.150631	0.896295	0.001404
	H287	H	-0.154681	0.912560	0.022618
	O288	O	1.042074	0.045040	0.830796
	H289	H	1.027249	0.030599	0.825925
	H290	H	1.038443	0.067232	0.832303
	O291	O	-0.206541	-0.058015	0.248569
	H292	H	-0.225934	-0.065246	0.271210
	H293	H	-0.191725	-0.045093	0.258950
	O294	O	-0.188959	-0.074490	-0.179032
	H295	H	-0.202569	-0.059041	-0.196218
	H296	H	-0.182358	-0.065458	-0.152556
	O297	O	0.496922	0.691945	0.683256
	H298	H	0.493193	0.692274	0.673577
	H299	H	0.513095	0.711801	0.675482
	O300	O	-0.209946	-0.243871	0.059852
	H301	H	-0.235063	-0.266005	0.071848
	H302	H	-0.210423	-0.242279	0.100417
	O303	O	-0.051211	-0.253457	-0.039645
	H304	H	-0.063417	-0.258607	-0.037886
	H305	H	-0.078706	-0.251995	-0.032087
	O306	O	0.228905	0.064754	-0.022897
	H307	H	0.226153	0.045722	-0.007225
	H308	H	0.242471	0.090028	0.007603
	O309	O	1.065338	0.004814	-0.181839
	H310	H	1.066667	-0.006383	-0.176979
	H311	H	1.057442	-0.010955	-0.179342
	O312	O	0.388010	0.432084	0.387289
	H313	H	0.383275	0.445241	0.382211
	H314	H	0.393524	0.399795	0.381741
	O315	O	0.710084	0.515573	0.705062
	H316	H	0.691563	0.516532	0.693374
	H317	H	0.727697	0.514485	0.734490
	O318	O	1.229625	1.193706	0.243217
	H319	H	1.202622	1.200800	0.256619
	H320	H	1.237075	1.169003	0.255360
	O321	O	-0.018166	0.769793	1.242452
	H322	H	-0.028012	0.753759	1.248180
	H323	H	-0.024035	0.761567	1.231975
	O324	O	1.093658	-0.101068	1.245221
	H325	H	1.083116	-0.103039	1.240370
	H326	H	1.074189	-0.104867	1.235164
	O327	O	0.323333	0.672008	0.328806
	H328	H	0.288911	0.702168	0.298220
	H329	H	0.325019	0.683890	0.369023
	O330	O	-0.513756	1.330319	0.732141
	H331	H	-0.531898	1.326946	0.746302
	H332	H	-0.541331	1.333821	0.734016
	O333	O	0.057463	0.763133	0.802965
	H334	H	0.043111	0.744592	0.792733
	H335	H	0.040931	0.764379	0.806377
	O336	O	0.044942	1.195191	0.250200
	H337	H	0.032175	1.208000	0.250602
	H338	H	0.045324	1.211660	0.247914
	O339	O	-0.009858	1.041418	-0.112695
	H340	H	-0.009339	1.043274	-0.114816
	H341	H	-0.001560	1.045531	-0.115568
	O342	O	0.356906	0.276723	-0.269789
	H343	H	0.341173	0.285350	-0.266579
	H344	H	0.338690	0.273610	-0.267490
	O345	O	0.722441	0.386480	0.373651
	H346	H	0.711170	0.381454	0.375694
	H347	H	0.726091	0.366986	0.371107
	O348	O	0.538274	0.697247	0.477328
	H349	H	0.536795	0.683486	0.483181
	H350	H	0.546721	0.699906	0.466323
	O351	O	0.221059	-0.048558	0.806934
	H352	H	0.215219	-0.025747	0.816192
	H353	H	0.239973	-0.036656	0.789306
	O354	O	1.231274	0.198740	1.091354
	H355	H	1.230801	0.211376	1.112985
	H356	H	1.244475	0.216617	1.117793
	O357	O	-0.470593	0.289767	-0.443481
	H358	H	-0.469722	0.291590	-0.431736
	H359	H	-0.494359	0.287752	-0.430679
	O360	O	0.231971	-0.241826	0.982957
	H361	H	0.248559	-0.260014	0.961778
	H362	H	0.241220	-0.250519	0.950559
	O363	O	0.717044	0.428487	0.538278
	H364	H	0.708523	0.427975	0.542077
	H365	H	0.713489	0.416267	0.543842
	O366	O	1.001874	0.197704	0.821504
	H367	H	0.994510	0.218834	0.801417
	H368	H	0.984907	0.190743	0.835091
	O369	O	-0.193845	0.169605	0.815660
	H370	H	-0.202861	0.161870	0.845833
	H371	H	-0.202607	0.193502	0.796226
	O372	O	0.204837	0.809648	0.847551
	H373	H	0.168906	0.805407	0.839303
	H374	H	0.201566	0.846755	0.832521
	O375	O	0.535689	0.265682	-0.692007
	H376	H	0.551552	0.233253	-0.720064
	H377	H	0.575700	0.274696	-0.679816
	O378	O	-0.188074	1.118839	0.181852
	H379	H	-0.178044	1.110870	0.163382
	H380	H	-0.168904	1.093138	0.181950
	O381	O	0.712702	1.680594	0.542053
	H382	H	0.731269	1.686848	0.541167
	H383	H	0.706321	1.674705	0.546203
	O384	O	1.326646	1.280949	0.550054
	H385	H	1.320336	1.270539	0.556241
	H386	H	1.325224	1.276217	0.532176
	O387	O	0.148884	1.134955	0.900122
	H388	H	0.156104	1.111431	0.915004
	H389	H	0.131959	1.134854	0.893833
	O390	O	0.065949	0.867303	0.983842
	H391	H	0.036335	0.860777	0.979426
	H392	H	0.073076	0.859713	0.965967
	O393	O	0.382791	0.539575	-0.385723
	H394	H	0.384961	0.538970	-0.391794
	H395	H	0.390978	0.545841	-0.393574
	O396	O	0.834481	0.812067	0.789199
	H397	H	0.818533	0.811522	0.773644
	H398	H	0.846417	0.822848	0.802825
	O399	O	0.302870	0.455206	0.730233
	H400	H	0.302924	0.449752	0.733018
	H401	H	0.293826	0.465367	0.736700
	O402	O	1.657903	0.328524	1.710626
	H403	H	1.631459	0.339860	1.713213
	H404	H	1.645900	0.340930	1.696820
	O405	O	0.325288	0.506060	0.324792
	H406	H	0.323238	0.542946	0.316219
	H407	H	0.310674	0.519044	0.308753
	O408	O	0.914449	-0.020195	0.079649
	H409	H	0.900716	-0.037747	0.067720
	H410	H	0.945513	-0.014512	0.073946
	O411	O	0.558580	1.397565	-0.377059
	H412	H	0.556443	1.407425	-0.369091
	H413	H	0.551959	1.379999	-0.376030
	O414	O	0.216573	0.004717	0.241116
	H415	H	0.226664	0.005674	0.253088
	H416	H	0.203443	-0.002633	0.248792
	O417	O	0.704327	0.280276	0.323437
	H418	H	0.713084	0.309872	0.339835
	H419	H	0.733148	0.257402	0.318913
	O420	O	1.699559	-0.332258	0.331318
	H421	H	1.676747	-0.350210	0.347449
	H422	H	1.681858	-0.352588	0.349781
	O423	O	1.213779	0.769219	0.232880
	H424	H	1.189175	0.782643	0.215288
	H425	H	1.193339	0.782805	0.214075
	O426	O	0.424675	0.473379	0.658060
	H427	H	0.449101	0.494197	0.663932
	H428	H	0.417451	0.474415	0.649915
	O429	O	0.479600	0.521283	0.484716
	H430	H	0.484923	0.500118	0.481712
	H431	H	0.476334	0.515151	0.476153
	O432	O	1.392396	0.600224	1.627285
	H433	H	1.392437	0.591173	1.622480
	H434	H	1.380426	0.600946	1.646240
	O435	O	0.154184	-0.021621	0.115771
	H436	H	0.150559	-0.051738	0.113822
	H437	H	0.153646	-0.021265	0.120114
	O438	O	0.492598	0.387247	0.383683
	H439	H	0.496601	0.380595	0.371258
	H440	H	0.469527	0.398827	0.379797
	O441	O	0.803846	0.769255	0.230386
	H442	H	0.771957	0.737296	0.264490
	H443	H	0.820831	0.800645	0.241006
	O444	O	0.660412	0.527341	0.395873
	H445	H	0.666402	0.514170	0.394057
	H446	H	0.640906	0.515664	0.399110
	O447	O	0.298934	0.690013	0.487963
	H448	H	0.298011	0.671766	0.504167
	H449	H	0.271140	0.709406	0.489736
	O450	O	0.816712	0.114376	-0.093695
	H451	H	0.816405	0.118636	-0.096851
	H452	H	0.794794	0.120275	-0.102205
	O453	O	0.618128	0.275587	0.506970
	H454	H	0.620142	0.278486	0.497691
	H455	H	0.610491	0.280618	0.503160
	O456	O	-0.302437	0.826704	0.885821
	H457	H	-0.312177	0.832077	0.886867
	H458	H	-0.316247	0.833631	0.885286
	O459	O	0.806229	1.084119	0.975167
	H460	H	0.810417	1.082284	0.994937
	H461	H	0.799707	1.091144	0.974500
	O462	O	0.664202	0.602948	0.639056
	H463	H	0.643833	0.597394	0.649386
	H464	H	0.655984	0.618130	0.620249
	O465	O	0.348675	0.377588	0.456751
	H466	H	0.352865	0.392924	0.461483
	H467	H	0.351305	0.367774	0.458170
	O468	O	0.967953	2.011204	0.259135
	H469	H	0.974782	2.023285	0.245933
	H470	H	0.985435	2.020091	0.263360
	O471	O	0.577553	0.481661	0.472381
	H472	H	0.570967	0.475859	0.457682
	H473	H	0.568867	0.483339	0.471459
	O474	O	1.030056	1.197521	-0.011338
	H475	H	1.036469	1.203021	-0.019169
	H476	H	1.041188	1.191946	-0.019362
	O477	O	-0.053972	0.178020	1.125072
	H478	H	-0.063236	0.176568	1.101596
	H479	H	-0.036801	0.170140	1.113066
