data_Molecule from HDF5

_cell_length_a		16.386620
_cell_length_b		16.400932
_cell_length_c		16.442065
_cell_angle_alpha	89.978290
_cell_angle_beta	90.005578
_cell_angle_gamma	90.005773
_symmetry_space_group_name_H-M	'P 1'
_symmetry_Int_Tables_number		1

loop_
	_symmetry_equiv_pos_as_xyz
	x,y,z

loop_
	_atom_site_label
	_atom_site_type_symbol
	_atom_site_fract_x
	_atom_site_fract_y
	_atom_site_fract_z
	H0	H	0.391683	0.839345	0.712478
	H1	H	0.603702	0.157139	0.714423
	H2	H	0.604994	0.841891	0.269138
	H3	H	0.390032	0.157762	0.267622
	H4	H	0.719904	0.392308	0.834916
	H5	H	0.720847	0.607380	0.150161
	H6	H	0.276310	0.604668	0.832586
	H7	H	0.275269	0.394139	0.150290
	H8	H	0.839688	0.723985	0.382611
	H9	H	0.157703	0.718599	0.593659
	H10	H	0.839845	0.276778	0.599375
	H11	H	0.155456	0.277375	0.383670
	H12	H	0.839417	0.393562	0.714320
	H13	H	0.155995	0.607406	0.713560
	H14	H	0.840185	0.610660	0.265705
	H15	H	0.155328	0.393143	0.268818
	H16	H	0.390791	0.721963	0.833792
	H17	H	0.604208	0.722175	0.150066
	H18	H	0.602225	0.278035	0.834360
	H19	H	0.389296	0.275584	0.149552
	H20	H	0.718628	0.840774	0.386111
	H21	H	0.720769	0.157121	0.599957
	H22	H	0.276151	0.839871	0.596128
	H23	H	0.276171	0.158300	0.385661
	H24	H	0.890759	0.341066	0.214983
	H25	H	0.102908	0.659013	0.213293
	H26	H	0.102766	0.341935	0.769613
	H27	H	0.890250	0.658934	0.771322
	H28	H	0.218866	0.895414	0.332843
	H29	H	0.219106	0.106367	0.650398
	H30	H	0.774234	0.106962	0.333669
	H31	H	0.776730	0.894984	0.649952
	H32	H	0.338924	0.220236	0.884766
	H33	H	0.655476	0.222806	0.098500
	H34	H	0.338937	0.778365	0.098155
	H35	H	0.657237	0.778334	0.888663
	H36	H	0.339523	0.894152	0.214265
	H37	H	0.656216	0.106859	0.213935
	H38	H	0.339195	0.103845	0.770093
	H39	H	0.657053	0.892292	0.770890
	H40	H	0.891098	0.222542	0.332973
	H41	H	0.103349	0.222986	0.649307
	H42	H	0.103976	0.778415	0.332787
	H43	H	0.891259	0.778151	0.649350
	H44	H	0.217473	0.341096	0.886846
	H45	H	0.217063	0.659449	0.095710
	H46	H	0.775407	0.340125	0.098192
	H47	H	0.774789	0.658538	0.888315
	H48	H	0.411391	0.111636	0.583535
	H49	H	0.587724	0.884624	0.581322
	H50	H	0.583476	0.113603	0.398127
	H51	H	0.409850	0.884222	0.395373
	H52	H	0.584533	0.407011	0.106108
	H53	H	0.580163	0.584946	0.882685
	H54	H	0.407893	0.587847	0.104917
	H55	H	0.409396	0.411016	0.879863
	H56	H	0.107153	0.588678	0.410416
	H57	H	0.886030	0.583953	0.580331
	H58	H	0.106481	0.416578	0.573328
	H59	H	0.882701	0.409285	0.402360
	H60	H	0.111699	0.417427	0.587549
	H61	H	0.880848	0.591330	0.587821
	H62	H	0.108916	0.582019	0.399584
	H63	H	0.886406	0.411881	0.407367
	H64	H	0.408926	0.588683	0.104895
	H65	H	0.586024	0.594270	0.878467
	H66	H	0.587857	0.413678	0.106078
	H67	H	0.408119	0.407694	0.878418
	H68	H	0.582652	0.110283	0.407144
	H69	H	0.584351	0.887014	0.581528
	H70	H	0.409495	0.110907	0.578841
	H71	H	0.417212	0.890925	0.406575
	H72	H	0.916248	0.606981	0.073398
	H73	H	0.089787	0.384504	0.083802
	H74	H	0.085673	0.612685	0.905854
	H75	H	0.908077	0.387345	0.907146
	H76	H	0.082944	0.902021	0.605471
	H77	H	0.081617	0.092292	0.379732
	H78	H	0.904430	0.077824	0.601454
	H79	H	0.909849	0.911415	0.378579
	H80	H	0.613669	0.091702	0.898125
	H81	H	0.382119	0.091976	0.082818
	H82	H	0.610053	0.915389	0.083377
	H83	H	0.387754	0.916339	0.904958
	H84	H	0.613125	0.905959	0.081452
	H85	H	0.386885	0.087435	0.073746
	H86	H	0.609461	0.090580	0.910661
	H87	H	0.383082	0.910783	0.895062
	H88	H	0.921643	0.088183	0.598635
	H89	H	0.091718	0.090910	0.375949
	H90	H	0.094751	0.912130	0.606345
	H91	H	0.907546	0.911409	0.377368
	H92	H	0.089026	0.614670	0.901458
	H93	H	0.080590	0.387796	0.083861
	H94	H	0.899757	0.614401	0.075021
	H95	H	0.905295	0.385299	0.900208
	H96	H	0.406606	0.112801	0.582090
	H97	H	0.586971	0.886975	0.578196
	H98	H	0.591250	0.114390	0.404171
	H99	H	0.402686	0.886690	0.408387
	H100	H	0.580889	0.412520	0.103114
	H101	H	0.590591	0.583258	0.878725
	H102	H	0.407715	0.588872	0.104115
	H103	H	0.406132	0.410821	0.878739
	H104	H	0.113023	0.593773	0.400308
	H105	H	0.882855	0.595276	0.577233
	H106	H	0.113801	0.404559	0.579765
	H107	H	0.885008	0.415530	0.402376
	H108	H	0.910400	0.614009	0.088817
	H109	H	0.085781	0.388448	0.075423
	H110	H	0.082965	0.613641	0.900386
	H111	H	0.912477	0.387479	0.901313
	H112	H	0.080911	0.916337	0.600115
	H113	H	0.086673	0.082877	0.380936
	H114	H	0.905335	0.097328	0.608291
	H115	H	0.908649	0.913191	0.378927
	H116	H	0.608125	0.080176	0.903030
	H117	H	0.385757	0.080425	0.083166
	H118	H	0.608188	0.911707	0.074251
	H119	H	0.383795	0.904258	0.905972
	C120	C	0.376338	0.007040	0.613491
	C121	C	0.618943	0.990979	0.613260
	C122	C	0.619065	0.008294	0.370135
	C123	C	0.376865	0.992037	0.370415
	C124	C	0.617853	0.378209	0.000952
	C125	C	0.618222	0.620159	0.984402
	C126	C	0.375712	0.620955	-0.000118
	C127	C	0.374912	0.377180	0.983287
	C128	C	0.005394	0.621637	0.369847
	C129	C	0.988423	0.622269	0.613433
	C130	C	0.005686	0.379407	0.612972
	C131	C	0.989080	0.378939	0.370212
	C132	C	0.875738	0.507590	0.113273
	C133	C	0.118176	0.491745	0.113263
	C134	C	0.118249	0.508971	0.870177
	C135	C	0.875038	0.491262	0.870683
	C136	C	0.118648	0.878558	0.499366
	C137	C	0.119294	0.121864	0.483181
	C138	C	0.876807	0.121416	0.499168
	C139	C	0.876271	0.878944	0.482699
	C140	C	0.505793	0.120007	0.870616
	C141	C	0.489198	0.120520	0.113015
	C142	C	0.505859	0.878315	0.113065
	C143	C	0.489483	0.877040	0.869921
	C144	C	0.373588	0.887349	0.672888
	C145	C	0.621788	0.109584	0.674371
	C146	C	0.622320	0.889291	0.309381
	C147	C	0.373094	0.110502	0.308814
	C148	C	0.679312	0.374801	0.882240
	C149	C	0.679736	0.624269	0.102928
	C150	C	0.315612	0.623330	0.880709
	C151	C	0.314641	0.375297	0.102422
	C152	C	0.887145	0.683483	0.365484
	C153	C	0.109114	0.680874	0.613753
	C154	C	0.887267	0.317464	0.616730
	C155	C	0.107743	0.317684	0.366523
	C156	C	0.887064	0.375639	0.674114
	C157	C	0.108256	0.625049	0.673169
	C158	C	0.887549	0.626942	0.306907
	C159	C	0.107735	0.375174	0.308890
	C160	C	0.372776	0.681956	0.881204
	C161	C	0.621684	0.681657	0.102995
	C162	C	0.620626	0.318105	0.881612
	C163	C	0.371519	0.316250	0.102118
	C164	C	0.679006	0.888727	0.367937
	C165	C	0.679953	0.109747	0.617058
	C166	C	0.316072	0.887608	0.615052
	C167	C	0.316339	0.110841	0.367669
	C168	C	0.872516	0.388478	0.174626
	C169	C	0.120655	0.611302	0.173122
	C170	C	0.120459	0.389430	0.809811
	C171	C	0.872282	0.611170	0.811295
	C172	C	0.178904	0.876988	0.380370
	C173	C	0.179238	0.124542	0.602357
	C174	C	0.814865	0.124851	0.380752
	C175	C	0.816369	0.876744	0.602054
	C176	C	0.386567	0.180194	0.867283
	C177	C	0.608196	0.182298	0.116287
	C178	C	0.386608	0.818363	0.115989
	C179	C	0.609393	0.817551	0.868878
	C180	C	0.387054	0.875611	0.174222
	C181	C	0.608439	0.124594	0.173709
	C182	C	0.386962	0.122491	0.809593
	C183	C	0.609232	0.874455	0.810320
	C184	C	0.873309	0.182205	0.380273
	C185	C	0.121789	0.182801	0.602015
	C186	C	0.121548	0.818803	0.380221
	C187	C	0.873522	0.818416	0.601677
	C188	C	0.177623	0.388998	0.868222
	C189	C	0.177685	0.611530	0.114725
	C190	C	0.815180	0.387903	0.116532
	C191	C	0.814576	0.610833	0.869485
	C192	C	0.401798	0.090283	0.588757
	C193	C	0.593629	0.907886	0.587636
	C194	C	0.593333	0.091191	0.395618
	C195	C	0.402595	0.908996	0.396081
	C196	C	0.591922	0.403494	0.083506
	C197	C	0.592685	0.594772	0.901684
	C198	C	0.401008	0.595779	0.082849
	C199	C	0.400491	0.402355	0.900529
	C200	C	0.088182	0.595630	0.395937
	C201	C	0.905026	0.597428	0.588880
	C202	C	0.088880	0.405321	0.587315
	C203	C	0.906104	0.405102	0.396212
	C204	C	0.901320	0.590141	0.086946
	C205	C	0.092742	0.408584	0.088250
	C206	C	0.093065	0.591949	0.895272
	C207	C	0.901094	0.408579	0.895516
	C208	C	0.093428	0.903359	0.582356
	C209	C	0.093841	0.096350	0.400562
	C210	C	0.902837	0.095333	0.581521
	C211	C	0.901477	0.904419	0.399824
	C212	C	0.588734	0.094629	0.896412
	C213	C	0.406485	0.094270	0.087177
	C214	C	0.588939	0.903750	0.087161
	C215	C	0.406504	0.902925	0.894787
	Zn216	Zn	0.497799	-0.001720	0.741798
	Zn217	Zn	0.498101	-0.000375	0.241557
	Zn218	Zn	0.746615	0.498986	-0.007128
	Zn219	Zn	0.246601	0.500068	-0.008179
	Zn220	Zn	-0.002522	0.749535	0.491017
	Zn221	Zn	-0.002387	0.250721	0.491341
	Zn222	Zn	-0.002998	0.501278	0.741515
	Zn223	Zn	-0.003142	0.499869	0.241835
	Zn224	Zn	0.497855	0.749419	-0.007943
	Zn225	Zn	0.496960	0.248966	-0.008129
	Zn226	Zn	0.747272	0.000088	0.491582
	Zn227	Zn	0.247631	-0.000378	0.491840
	N228	N	0.410330	0.962723	0.672196
	N229	N	0.584680	0.034631	0.672058
	N230	N	0.585690	0.964520	0.310679
	N231	N	0.410192	0.035447	0.310548
	N232	N	0.677759	0.411332	0.957424
	N233	N	0.677614	0.586583	0.028310
	N234	N	0.317181	0.586321	0.955594
	N235	N	0.316335	0.412373	0.027488
	N236	N	0.961646	0.680299	0.403878
	N237	N	0.033591	0.679378	0.577338
	N238	N	0.962304	0.319980	0.579367
	N239	N	0.032850	0.320046	0.403936
	N240	N	0.961931	0.413408	0.672011
	N241	N	0.032194	0.589756	0.673502
	N242	N	0.962193	0.589073	0.309544
	N243	N	0.032916	0.412656	0.311132
	N244	N	0.409343	0.680757	0.956504
	N245	N	0.584110	0.679177	0.028296
	N246	N	0.583078	0.320052	0.956326
	N247	N	0.408051	0.317278	0.027021
	N248	N	0.677114	0.963775	0.405135
	N249	N	0.678320	0.034894	0.579719
	N250	N	0.317532	0.963113	0.578768
	N251	N	0.318715	0.036202	0.405336
	N252	N	0.909354	0.463838	0.172803
	N253	N	0.084553	0.535621	0.172522
	N254	N	0.084444	0.465116	0.810730
	N255	N	0.909328	0.536071	0.811966
	N256	N	0.177069	0.913564	0.455554
	N257	N	0.178096	0.087643	0.527412
	N258	N	0.816904	0.087797	0.455704
	N259	N	0.817908	0.913666	0.527081
	N260	N	0.461621	0.178908	0.904512
	N261	N	0.532911	0.180130	0.079290
	N262	N	0.461661	0.819788	0.078713
	N263	N	0.533998	0.819167	0.905229
	N264	N	0.462287	0.912122	0.172334
	N265	N	0.533586	0.087015	0.171878
	N266	N	0.462072	0.085538	0.811790
	N267	N	0.533613	0.910858	0.810917
	N268	N	0.911005	0.180427	0.454908
	N269	N	0.085239	0.181328	0.526810
	N270	N	0.084514	0.819750	0.455098
	N271	N	0.909912	0.819479	0.526319
	N272	N	0.176325	0.464164	0.905102
	N273	N	0.176262	0.536153	0.078249
	N274	N	0.817068	0.462843	0.079117
	N275	N	0.815861	0.535116	0.905206
	O276	O	-0.160168	0.848631	0.002348
	H277	H	-0.163168	0.850830	-0.013765
	H278	H	-0.152711	0.839468	-0.005484
	O279	O	0.705967	0.470632	0.582458
	H280	H	0.700487	0.468414	0.584562
	H281	H	0.708672	0.475423	0.619901
	O282	O	0.444745	0.381997	0.536158
	H283	H	0.441249	0.377805	0.546229
	H284	H	0.441752	0.373269	0.529987
	O285	O	0.794242	1.185892	-0.100921
	H286	H	0.807527	1.172106	-0.121398
	H287	H	0.777756	1.203154	-0.115205
	O288	O	0.416596	0.328830	0.634463
	H289	H	0.436151	0.325242	0.638755
	H290	H	0.420825	0.322513	0.628218
	O291	O	0.680360	0.510665	0.711704
	H292	H	0.687157	0.530515	0.721895
	H293	H	0.675053	0.518970	0.725396
	O294	O	1.183336	1.155045	1.067162
	H295	H	1.193393	1.164147	1.081577
	H296	H	1.180906	1.140557	1.089509
	O297	O	0.387215	0.632250	0.617004
	H298	H	0.406976	0.611561	0.613910
	H299	H	0.351349	0.615499	0.615185
	O300	O	0.430231	0.624772	0.506696
	H301	H	0.451211	0.646396	0.512615
	H302	H	0.423406	0.617891	0.533802
	O303	O	0.697749	0.217036	0.672112
	H304	H	0.709840	0.202440	0.664611
	H305	H	0.694807	0.220077	0.655392
	O306	O	-0.109810	-0.110234	0.863756
	H307	H	-0.089865	-0.112541	0.861583
	H308	H	-0.112235	-0.115916	0.847760
	O309	O	0.849896	0.088317	-0.000675
	H310	H	0.846663	0.087869	-0.021414
	H311	H	0.857733	0.089685	-0.005204
	O312	O	0.533857	0.546685	0.283099
	H313	H	0.563820	0.539720	0.275905
	H314	H	0.527677	0.546590	0.284598
	O315	O	0.700094	0.290684	0.487007
	H316	H	0.707197	0.316026	0.477359
	H317	H	0.709379	0.271735	0.465455
	O318	O	0.073116	-0.187066	0.081931
	H319	H	0.083283	-0.193014	0.080379
	H320	H	0.071764	-0.192257	0.074686
	O321	O	0.481127	0.606871	0.421993
	H322	H	0.491002	0.616086	0.430616
	H323	H	0.469892	0.618759	0.414755
	O324	O	0.868724	0.130608	0.803408
	H325	H	0.879144	0.125696	0.792136
	H326	H	0.865755	0.100617	0.798837
	O327	O	0.896315	0.040980	1.101515
	H328	H	0.873332	0.043016	1.091941
	H329	H	0.886655	0.037485	1.092855
	O330	O	0.082926	1.169905	1.032945
	H331	H	0.069365	1.160251	1.058460
	H332	H	0.094516	1.164779	1.047855
	O333	O	0.016463	0.789766	-0.223200
	H334	H	0.036233	0.784473	-0.216482
	H335	H	0.031665	0.772295	-0.243034
	O336	O	0.954225	1.041479	0.071693
	H337	H	0.931116	1.034786	0.073877
	H338	H	0.968990	1.029256	0.071466
	O339	O	-0.056668	1.101441	0.901495
	H340	H	-0.058435	1.119118	0.908221
	H341	H	-0.045749	1.116226	0.900106
	O342	O	0.405610	0.395376	0.534895
	H343	H	0.404227	0.377455	0.537759
	H344	H	0.417539	0.398740	0.541357
	O345	O	0.035372	-0.090528	0.935325
	H346	H	0.035827	-0.080460	0.923634
	H347	H	0.050255	-0.082692	0.920218
	O348	O	0.666859	0.332846	0.328813
	H349	H	0.657636	0.351447	0.345716
	H350	H	0.631145	0.326186	0.322974
	O351	O	1.176465	1.060856	-0.078067
	H352	H	1.159294	1.068361	-0.070006
	H353	H	1.177475	1.065102	-0.076472
	O354	O	1.200556	1.046849	1.110232
	H355	H	1.207656	1.059866	1.120856
	H356	H	1.191308	1.033162	1.118869
	O357	O	0.193388	-0.055189	-0.148075
	H358	H	0.189845	-0.038878	-0.141945
	H359	H	0.189131	-0.026172	-0.152785
	O360	O	0.511694	0.293086	0.294817
	H361	H	0.502824	0.282770	0.292750
	H362	H	0.492940	0.305692	0.288593
	O363	O	1.057488	0.163881	-0.149778
	H364	H	1.063141	0.182627	-0.147313
	H365	H	1.061973	0.165843	-0.125525
	O366	O	-0.700877	-0.454320	1.551096
	H367	H	-0.682719	-0.469101	1.552680
	H368	H	-0.712982	-0.454494	1.566277
	O369	O	0.998680	0.000613	1.135524
	H370	H	0.999384	0.001428	1.141455
	H371	H	0.985438	-0.007120	1.127735
	O372	O	0.372070	0.550324	0.296182
	H373	H	0.338146	0.552793	0.274203
	H374	H	0.376477	0.558663	0.319089
	O375	O	0.184551	-0.168052	0.952506
	H376	H	0.203238	-0.166797	0.957745
	H377	H	0.191273	-0.168745	0.965434
	O378	O	0.490526	0.701063	0.479570
	H379	H	0.486407	0.698670	0.470160
	H380	H	0.486668	0.695271	0.493171
	O381	O	0.350763	0.679346	0.315032
	H382	H	0.377334	0.690047	0.325885
	H383	H	0.352231	0.656452	0.324452
	O384	O	0.480679	0.369912	0.486615
	H385	H	0.482125	0.387987	0.467774
	H386	H	0.485598	0.364674	0.497802
	O387	O	0.445489	0.453600	0.350510
	H388	H	0.429009	0.466744	0.347326
	H389	H	0.444906	0.473176	0.350985
	O390	O	0.963308	0.901332	0.075280
	H391	H	0.965163	0.906870	0.065975
	H392	H	0.949720	0.897691	0.088393
	O393	O	0.973566	-0.024052	0.867153
	H394	H	0.970152	-0.032895	0.874634
	H395	H	0.982033	-0.021384	0.862040
	O396	O	0.292139	0.298207	0.555886
	H397	H	0.279163	0.268768	0.538466
	H398	H	0.318989	0.294329	0.559322
	O399	O	0.296584	0.405309	0.694752
	H400	H	0.292885	0.382636	0.673839
	H401	H	0.304167	0.387474	0.702730
	O402	O	0.952138	1.104608	0.066250
	H403	H	0.949705	1.117188	0.075112
	H404	H	0.955031	1.105270	0.051445
	O405	O	0.360808	0.400317	0.422716
	H406	H	0.358308	0.410299	0.422395
	H407	H	0.367326	0.419049	0.399979
	O408	O	0.392511	0.625058	0.402531
	H409	H	0.386155	0.624892	0.403657
	H410	H	0.396993	0.621588	0.393774
	O411	O	1.078835	1.093114	1.165465
	H412	H	1.045885	1.104804	1.173272
	H413	H	1.076914	1.070162	1.174080
	O414	O	0.662109	0.688954	0.677593
	H415	H	0.619133	0.700535	0.687121
	H416	H	0.669189	0.681377	0.641288
	O417	O	0.191427	0.858404	0.840184
	H418	H	0.209509	0.851603	0.865002
	H419	H	0.196864	0.877679	0.814880
	O420	O	-0.144931	0.878126	1.011277
	H421	H	-0.124707	0.885362	1.005680
	H422	H	-0.133655	0.867662	0.990919
	O423	O	-0.193893	0.903989	0.141852
	H424	H	-0.194734	0.889964	0.131329
	H425	H	-0.206983	0.907053	0.144595
	O426	O	0.510987	0.685360	0.697514
	H427	H	0.497180	0.697350	0.719939
	H428	H	0.491423	0.671048	0.695945
	O429	O	0.716343	0.479661	0.272808
	H430	H	0.727283	0.467797	0.280038
	H431	H	0.737517	0.461915	0.260591
	O432	O	0.705783	0.707158	0.530688
	H433	H	0.690274	0.690430	0.529790
	H434	H	0.738069	0.727768	0.527541
	O435	O	0.060887	0.113304	0.167536
	H436	H	0.037888	0.094590	0.185103
	H437	H	0.055980	0.114425	0.185552
	O438	O	-0.484517	1.481666	1.666710
	H439	H	-0.486160	1.477172	1.662541
	H440	H	-0.475663	1.472527	1.660901
	O441	O	0.707133	0.560365	0.431372
	H442	H	0.709716	0.558290	0.430694
	H443	H	0.706954	0.556423	0.435622
