data_Molecule from HDF5

_cell_length_a		16.361678
_cell_length_b		16.222667
_cell_length_c		16.278641
_cell_angle_alpha	89.888952
_cell_angle_beta	90.108001
_cell_angle_gamma	89.917593
_symmetry_space_group_name_H-M	'P 1'
_symmetry_Int_Tables_number		1

loop_
	_symmetry_equiv_pos_as_xyz
	x,y,z

loop_
	_atom_site_label
	_atom_site_type_symbol
	_atom_site_fract_x
	_atom_site_fract_y
	_atom_site_fract_z
	H0	H	0.404468	0.839028	0.711723
	H1	H	0.598295	0.167865	0.709750
	H2	H	0.599892	0.838448	0.283725
	H3	H	0.403347	0.167799	0.284100
	H4	H	0.716292	0.402927	0.833453
	H5	H	0.717657	0.602086	0.160333
	H6	H	0.285350	0.603344	0.834181
	H7	H	0.286721	0.401407	0.159950
	H8	H	0.837626	0.717974	0.398525
	H9	H	0.163751	0.717997	0.597263
	H10	H	0.837579	0.289062	0.594508
	H11	H	0.164645	0.288263	0.400892
	H12	H	0.837626	0.403935	0.712461
	H13	H	0.163607	0.601648	0.713786
	H14	H	0.838119	0.602461	0.281497
	H15	H	0.163842	0.402138	0.282178
	H16	H	0.403225	0.718437	0.832724
	H17	H	0.599529	0.715658	0.161084
	H18	H	0.598875	0.288380	0.832887
	H19	H	0.405296	0.288646	0.160892
	H20	H	0.717371	0.839204	0.398557
	H21	H	0.715815	0.166818	0.596783
	H22	H	0.286428	0.839406	0.598459
	H23	H	0.286012	0.166604	0.397834
	H24	H	0.904965	0.337834	0.210407
	H25	H	0.098586	0.667675	0.210924
	H26	H	0.098819	0.338145	0.784841
	H27	H	0.903859	0.667204	0.784814
	H28	H	0.216950	0.903288	0.334518
	H29	H	0.216459	0.101997	0.660524
	H30	H	0.785471	0.102366	0.334838
	H31	H	0.786791	0.903590	0.661205
	H32	H	0.338708	0.216793	0.899356
	H33	H	0.664639	0.215752	0.095067
	H34	H	0.338201	0.788177	0.095426
	H35	H	0.665166	0.789114	0.900815
	H36	H	0.338981	0.903692	0.212581
	H37	H	0.663861	0.100838	0.213108
	H38	H	0.339036	0.102006	0.781623
	H39	H	0.665310	0.903940	0.782973
	H40	H	0.903957	0.216341	0.333576
	H41	H	0.097819	0.214984	0.661985
	H42	H	0.098842	0.788784	0.333420
	H43	H	0.904811	0.789157	0.661876
	H44	H	0.216283	0.338427	0.898934
	H45	H	0.217822	0.666882	0.097017
	H46	H	0.786836	0.338689	0.096709
	H47	H	0.786894	0.666503	0.898533
	H48	H	0.416125	0.116285	0.587155
	H49	H	0.596234	0.885820	0.588688
	H50	H	0.588152	0.121978	0.391932
	H51	H	0.405379	0.886206	0.407573
	H52	H	0.591738	0.402162	0.114216
	H53	H	0.592919	0.598697	0.880416
	H54	H	0.415121	0.595020	0.111164
	H55	H	0.406861	0.410030	0.880147
	H56	H	0.114930	0.601588	0.415755
	H57	H	0.885164	0.598974	0.588226
	H58	H	0.114405	0.408798	0.583333
	H59	H	0.886372	0.403589	0.413057
	H60	H	0.116179	0.417394	0.596940
	H61	H	0.886898	0.591890	0.589533
	H62	H	0.113255	0.583322	0.404662
	H63	H	0.887867	0.420686	0.403774
	H64	H	0.407051	0.598156	0.114514
	H65	H	0.599069	0.596631	0.879038
	H66	H	0.602650	0.410812	0.114896
	H67	H	0.408726	0.410551	0.880667
	H68	H	0.585449	0.113360	0.414843
	H69	H	0.597448	0.884577	0.592476
	H70	H	0.401977	0.120073	0.583764
	H71	H	0.408942	0.884584	0.400839
	H72	H	0.905917	0.616971	0.080350
	H73	H	0.094189	0.388081	0.085648
	H74	H	0.095115	0.620138	0.902949
	H75	H	0.903960	0.383285	0.901583
	H76	H	0.095416	0.913510	0.612985
	H77	H	0.088795	0.100387	0.381490
	H78	H	0.905994	0.097826	0.615347
	H79	H	0.901761	0.912522	0.379953
	H80	H	0.620122	0.097234	0.897539
	H81	H	0.383922	0.097644	0.092712
	H82	H	0.620084	0.905402	0.096943
	H83	H	0.388575	0.919092	0.904686
	H84	H	0.616849	0.905816	0.085760
	H85	H	0.385317	0.097564	0.088763
	H86	H	0.618289	0.100197	0.907114
	H87	H	0.382725	0.907120	0.895472
	H88	H	0.906621	0.093539	0.613654
	H89	H	0.100281	0.097911	0.378548
	H90	H	0.091773	0.908399	0.613466
	H91	H	0.912443	0.915499	0.384355
	H92	H	0.091375	0.618495	0.906072
	H93	H	0.099904	0.385033	0.090531
	H94	H	0.902711	0.622535	0.095178
	H95	H	0.912700	0.385320	0.903227
	H96	H	0.407118	0.122824	0.598132
	H97	H	0.594085	0.886440	0.591456
	H98	H	0.607516	0.122689	0.407845
	H99	H	0.412966	0.888295	0.406919
	H100	H	0.591091	0.414912	0.110517
	H101	H	0.594625	0.592276	0.881521
	H102	H	0.407512	0.588927	0.111894
	H103	H	0.408592	0.408875	0.880145
	H104	H	0.120549	0.601578	0.394669
	H105	H	0.884137	0.595757	0.594961
	H106	H	0.120662	0.401957	0.596487
	H107	H	0.881441	0.404855	0.394074
	H108	H	0.917574	0.617341	0.091482
	H109	H	0.093192	0.386125	0.094222
	H110	H	0.096888	0.619364	0.907806
	H111	H	0.906656	0.386488	0.910152
	H112	H	0.097234	0.908363	0.615171
	H113	H	0.093315	0.089718	0.382872
	H114	H	0.910532	0.096414	0.614105
	H115	H	0.910284	0.904904	0.380164
	H116	H	0.616302	0.090533	0.904320
	H117	H	0.385644	0.094379	0.090682
	H118	H	0.615905	0.915581	0.092317
	H119	H	0.386503	0.903662	0.910909
	C120	C	0.379913	0.011553	0.619221
	C121	C	0.623506	0.994615	0.619116
	C122	C	0.622629	0.010906	0.376397
	C123	C	0.380302	0.994689	0.376444
	C124	C	0.623276	0.380816	0.005124
	C125	C	0.623587	0.624070	0.988595
	C126	C	0.380539	0.623931	0.005006
	C127	C	0.380412	0.381193	0.988334
	C128	C	0.008605	0.624457	0.375714
	C129	C	0.992787	0.624448	0.619949
	C130	C	0.009031	0.380903	0.620140
	C131	C	0.992767	0.380972	0.375942
	C132	C	0.880108	0.510647	0.118101
	C133	C	0.123962	0.494685	0.119140
	C134	C	0.122620	0.510839	0.876999
	C135	C	0.880074	0.494018	0.876586
	C136	C	0.123240	0.881180	0.506006
	C137	C	0.122584	0.124246	0.488999
	C138	C	0.878950	0.125090	0.506365
	C139	C	0.879744	0.881610	0.489376
	C140	C	0.510334	0.124512	0.875048
	C141	C	0.492757	0.124430	0.119227
	C142	C	0.509916	0.880203	0.119783
	C143	C	0.493975	0.881466	0.875759
	C144	C	0.383212	0.887913	0.674312
	C145	C	0.619489	0.118322	0.673062
	C146	C	0.620386	0.887537	0.321460
	C147	C	0.382257	0.118396	0.321102
	C148	C	0.678211	0.382759	0.882010
	C149	C	0.679006	0.621504	0.111846
	C150	C	0.324466	0.623075	0.882340
	C151	C	0.325202	0.382150	0.111360
	C152	C	0.886314	0.680062	0.377765
	C153	C	0.115382	0.679566	0.617481
	C154	C	0.886358	0.326209	0.616164
	C155	C	0.115848	0.325839	0.379544
	C156	C	0.886303	0.383621	0.674359
	C157	C	0.115128	0.621894	0.675481
	C158	C	0.886632	0.622508	0.319736
	C159	C	0.115415	0.382466	0.320666
	C160	C	0.383154	0.679979	0.881726
	C161	C	0.620782	0.678466	0.112021
	C162	C	0.619824	0.326067	0.881789
	C163	C	0.384047	0.326232	0.111971
	C164	C	0.678814	0.887995	0.378424
	C165	C	0.677699	0.118142	0.616685
	C166	C	0.324857	0.888145	0.617738
	C167	C	0.324091	0.117808	0.377859
	C168	C	0.883557	0.387085	0.173154
	C169	C	0.120249	0.618405	0.173835
	C170	C	0.119699	0.387095	0.822284
	C171	C	0.883136	0.618072	0.822224
	C172	C	0.178827	0.882756	0.383150
	C173	C	0.177777	0.121751	0.612141
	C174	C	0.823824	0.122817	0.383258
	C175	C	0.825033	0.883452	0.612596
	C176	C	0.387433	0.179423	0.878237
	C177	C	0.616058	0.177755	0.115424
	C178	C	0.387260	0.825698	0.116284
	C179	C	0.616573	0.826418	0.879250
	C180	C	0.387416	0.883082	0.174454
	C181	C	0.615462	0.121417	0.174565
	C182	C	0.387625	0.122231	0.820038
	C183	C	0.616457	0.883482	0.820654
	C184	C	0.882493	0.179489	0.382944
	C185	C	0.119341	0.178356	0.612659
	C186	C	0.119658	0.826463	0.382510
	C187	C	0.883417	0.826540	0.612765
	C188	C	0.177856	0.387108	0.879100
	C189	C	0.179267	0.618118	0.117161
	C190	C	0.824923	0.387422	0.116719
	C191	C	0.824846	0.617573	0.878270
	C192	C	0.401887	0.097539	0.596283
	C193	C	0.602261	0.907850	0.597222
	C194	C	0.600325	0.097150	0.398393
	C195	C	0.402590	0.908543	0.398556
	C196	C	0.601656	0.403003	0.090842
	C197	C	0.601986	0.602121	0.902642
	C198	C	0.403244	0.600829	0.090389
	C199	C	0.401748	0.403448	0.902605
	C200	C	0.094001	0.602002	0.398220
	C201	C	0.907360	0.602200	0.597547
	C202	C	0.094898	0.402678	0.598597
	C203	C	0.907355	0.403172	0.397268
	C204	C	0.902062	0.596768	0.095463
	C205	C	0.102258	0.408673	0.096682
	C206	C	0.100882	0.597118	0.899174
	C207	C	0.901543	0.407597	0.898526
	C208	C	0.101298	0.903364	0.591747
	C209	C	0.100637	0.102401	0.403074
	C210	C	0.901208	0.102462	0.592291
	C211	C	0.901656	0.904372	0.403662
	C212	C	0.596153	0.102348	0.896616
	C213	C	0.406974	0.102904	0.097200
	C214	C	0.595522	0.902360	0.098080
	C215	C	0.408082	0.903522	0.897283
	Zn216	Zn	0.502270	0.002780	0.746807
	Zn217	Zn	0.501092	0.002895	0.247591
	Zn218	Zn	0.751978	0.502424	-0.003262
	Zn219	Zn	0.251970	0.502507	-0.003244
	Zn220	Zn	0.000864	0.752811	0.497408
	Zn221	Zn	0.001545	0.252680	0.497889
	Zn222	Zn	0.001109	0.502568	0.748951
	Zn223	Zn	0.001269	0.502336	0.246850
	Zn224	Zn	0.501751	0.752253	-0.002945
	Zn225	Zn	0.501692	0.252665	-0.003023
	Zn226	Zn	0.750933	0.002955	0.498338
	Zn227	Zn	0.251601	0.003025	0.497650
	N228	N	0.416931	0.965434	0.675185
	N229	N	0.586460	0.040382	0.674621
	N230	N	0.585873	0.964988	0.320270
	N231	N	0.416565	0.040815	0.319935
	N232	N	0.680376	0.416357	0.959570
	N233	N	0.680861	0.588340	0.034039
	N234	N	0.322759	0.589033	0.959684
	N235	N	0.322955	0.415891	0.033674
	N236	N	0.963274	0.681220	0.411941
	N237	N	0.038252	0.681105	0.583440
	N238	N	0.963741	0.324578	0.583145
	N239	N	0.038893	0.324899	0.413318
	N240	N	0.963692	0.416752	0.677096
	N241	N	0.037957	0.588207	0.676926
	N242	N	0.963797	0.588728	0.318344
	N243	N	0.038092	0.416125	0.318321
	N244	N	0.417226	0.680658	0.959225
	N245	N	0.587067	0.680407	0.034634
	N246	N	0.586526	0.324413	0.959272
	N247	N	0.417623	0.325239	0.034599
	N248	N	0.680287	0.965761	0.411834
	N249	N	0.680134	0.040117	0.583655
	N250	N	0.322645	0.966072	0.584150
	N251	N	0.322873	0.039917	0.411674
	N252	N	0.917476	0.464722	0.173988
	N253	N	0.086733	0.540670	0.175206
	N254	N	0.085927	0.464862	0.821011
	N255	N	0.916645	0.540115	0.820757
	N256	N	0.181032	0.916045	0.460615
	N257	N	0.179927	0.088714	0.534220
	N258	N	0.821652	0.089508	0.460999
	N259	N	0.822657	0.917080	0.534954
	N260	N	0.464741	0.180958	0.911711
	N261	N	0.538774	0.179837	0.081807
	N262	N	0.464513	0.823825	0.083174
	N263	N	0.539604	0.825371	0.912930
	N264	N	0.464768	0.916178	0.176819
	N265	N	0.537932	0.088849	0.176678
	N266	N	0.464944	0.088947	0.818030
	N267	N	0.539086	0.916964	0.818567
	N268	N	0.915983	0.180974	0.460541
	N269	N	0.085599	0.179701	0.535384
	N270	N	0.085992	0.825169	0.460024
	N271	N	0.916869	0.825522	0.535344
	N272	N	0.179649	0.465065	0.912357
	N273	N	0.181786	0.540278	0.084000
	N274	N	0.822673	0.465361	0.083381
	N275	N	0.822926	0.539640	0.911366
	O276	O	-0.612178	-0.369118	1.437057
	H277	H	-0.616137	-0.353550	1.435835
	H278	H	-0.613004	-0.379343	1.437545
	O279	O	0.358347	0.557278	0.531170
	H280	H	0.355746	0.560562	0.541701
	H281	H	0.353594	0.547769	0.524704
	O282	O	0.427817	0.465873	0.483313
	H283	H	0.426412	0.466282	0.470294
	H284	H	0.429320	0.465724	0.482498
	O285	O	0.457341	0.537163	0.461509
	H286	H	0.445310	0.537308	0.466136
	H287	H	0.454737	0.535341	0.461374
	O288	O	0.444028	0.575269	0.454609
	H289	H	0.456521	0.572846	0.453871
	H290	H	0.445522	0.575720	0.447060
	O291	O	0.424608	1.558793	1.407136
	H292	H	0.424637	1.565997	1.415329
	H293	H	0.428448	1.568398	1.407664
	O294	O	0.497949	0.555504	0.423134
	H295	H	0.494673	0.561611	0.421984
	H296	H	0.492014	0.564668	0.423828
	O297	O	1.437980	-0.477436	-0.520371
	H298	H	1.443364	-0.485208	-0.522990
	H299	H	1.442382	-0.477631	-0.527303
