data_Molecule from HDF5

_cell_length_a		16.244248
_cell_length_b		16.235663
_cell_length_c		16.312228
_cell_angle_alpha	90.066359
_cell_angle_beta	89.899895
_cell_angle_gamma	90.244417
_symmetry_space_group_name_H-M	'P 1'
_symmetry_Int_Tables_number		1

loop_
	_symmetry_equiv_pos_as_xyz
	x,y,z

loop_
	_atom_site_label
	_atom_site_type_symbol
	_atom_site_fract_x
	_atom_site_fract_y
	_atom_site_fract_z
	H0	H	0.392823	0.837120	0.714272
	H1	H	0.594285	0.164545	0.713911
	H2	H	0.591606	0.837173	0.282881
	H3	H	0.393497	0.164328	0.284091
	H4	H	0.708334	0.403362	0.835075
	H5	H	0.709363	0.602151	0.161544
	H6	H	0.280901	0.599616	0.834451
	H7	H	0.278130	0.403314	0.161660
	H8	H	0.828534	0.711755	0.402130
	H9	H	0.157805	0.715809	0.595894
	H10	H	0.829883	0.284425	0.597522
	H11	H	0.158571	0.285755	0.399222
	H12	H	0.830810	0.399340	0.714244
	H13	H	0.158099	0.600874	0.713072
	H14	H	0.829915	0.598425	0.283614
	H15	H	0.157721	0.400511	0.281965
	H16	H	0.397584	0.715038	0.835238
	H17	H	0.592996	0.717259	0.161704
	H18	H	0.593814	0.285523	0.835701
	H19	H	0.393649	0.286804	0.161934
	H20	H	0.705238	0.835742	0.400371
	H21	H	0.709159	0.163706	0.597621
	H22	H	0.279395	0.836524	0.596313
	H23	H	0.280815	0.165349	0.402011
	H24	H	0.893157	0.336945	0.212608
	H25	H	0.092456	0.664874	0.211849
	H26	H	0.093771	0.335632	0.784347
	H27	H	0.895920	0.663607	0.782779
	H28	H	0.208205	0.902225	0.334422
	H29	H	0.207015	0.097984	0.662698
	H30	H	0.779266	0.098269	0.334584
	H31	H	0.777930	0.900466	0.661279
	H32	H	0.328638	0.213987	0.900909
	H33	H	0.657338	0.216703	0.097309
	H34	H	0.329108	0.786331	0.098024
	H35	H	0.658278	0.789370	0.902103
	H36	H	0.328694	0.903622	0.212375
	H37	H	0.656671	0.101865	0.215059
	H38	H	0.329906	0.099709	0.784168
	H39	H	0.656527	0.900520	0.782468
	H40	H	0.896793	0.213924	0.334302
	H41	H	0.093326	0.215486	0.661413
	H42	H	0.090351	0.786965	0.333331
	H43	H	0.894678	0.785677	0.661510
	H44	H	0.208676	0.337009	0.899923
	H45	H	0.207394	0.665052	0.094652
	H46	H	0.776935	0.337830	0.098081
	H47	H	0.782736	0.666109	0.901496
	H48	H	0.403266	0.117410	0.593791
	H49	H	0.583497	0.880707	0.603080
	H50	H	0.596324	0.119922	0.409304
	H51	H	0.399907	0.883153	0.403222
	H52	H	0.591937	0.411664	0.115366
	H53	H	0.588361	0.598792	0.880053
	H54	H	0.400300	0.597702	0.116183
	H55	H	0.406994	0.402860	0.882078
	H56	H	0.111256	0.597960	0.405492
	H57	H	0.876020	0.591413	0.597397
	H58	H	0.113936	0.403993	0.596160
	H59	H	0.873252	0.401004	0.396271
	H60	H	0.109392	0.405422	0.585303
	H61	H	0.876983	0.596542	0.588700
	H62	H	0.109222	0.590925	0.408739
	H63	H	0.878967	0.401064	0.414738
	H64	H	0.397208	0.591984	0.115574
	H65	H	0.590276	0.592052	0.882276
	H66	H	0.580632	0.412422	0.112152
	H67	H	0.394376	0.405628	0.879710
	H68	H	0.582332	0.119415	0.396664
	H69	H	0.574155	0.888726	0.585952
	H70	H	0.400256	0.117307	0.589827
	H71	H	0.401414	0.884456	0.406402
	H72	H	0.903069	0.616277	0.089882
	H73	H	0.090145	0.383197	0.085954
	H74	H	0.095528	0.620219	0.905337
	H75	H	0.898888	0.383009	0.904151
	H76	H	0.083823	0.915481	0.610672
	H77	H	0.076918	0.090313	0.385685
	H78	H	0.896268	0.089802	0.614398
	H79	H	0.890413	0.907124	0.379422
	H80	H	0.608468	0.090017	0.904659
	H81	H	0.374280	0.097420	0.096101
	H82	H	0.609839	0.908287	0.091244
	H83	H	0.381868	0.913009	0.915987
	H84	H	0.609369	0.911325	0.091795
	H85	H	0.378004	0.095391	0.087406
	H86	H	0.612037	0.096823	0.902963
	H87	H	0.375148	0.914743	0.896182
	H88	H	0.904709	0.089915	0.612009
	H89	H	0.089206	0.104761	0.378312
	H90	H	0.080264	0.900803	0.614207
	H91	H	0.904158	0.912017	0.384647
	H92	H	0.083954	0.617794	0.897104
	H93	H	0.089109	0.380836	0.097407
	H94	H	0.899929	0.618095	0.091704
	H95	H	0.903658	0.384717	0.905208
	H96	H	0.398690	0.119151	0.594616
	H97	H	0.594400	0.882844	0.584614
	H98	H	0.579005	0.112862	0.413848
	H99	H	0.398447	0.883486	0.406100
	H100	H	0.584580	0.403406	0.116398
	H101	H	0.584106	0.594022	0.883292
	H102	H	0.403127	0.592199	0.113522
	H103	H	0.401878	0.414959	0.884929
	H104	H	0.111210	0.591768	0.400629
	H105	H	0.880267	0.586563	0.589365
	H106	H	0.109364	0.413748	0.592754
	H107	H	0.881358	0.417170	0.404493
	H108	H	0.902933	0.618160	0.093802
	H109	H	0.080129	0.385978	0.090936
	H110	H	0.083566	0.614316	0.910685
	H111	H	0.899843	0.384648	0.909146
	H112	H	0.094607	0.905937	0.617181
	H113	H	0.095818	0.085466	0.381479
	H114	H	0.901760	0.097359	0.614705
	H115	H	0.902540	0.897654	0.379931
	H116	H	0.609110	0.095596	0.909642
	H117	H	0.376839	0.088715	0.094164
	H118	H	0.610704	0.909636	0.094410
	H119	H	0.372806	0.896265	0.905803
	C120	C	0.371893	0.009427	0.620748
	C121	C	0.614180	0.992193	0.620258
	C122	C	0.614311	0.008757	0.377397
	C123	C	0.371753	0.992159	0.377247
	C124	C	0.615057	0.380002	0.007087
	C125	C	0.616040	0.623730	0.990201
	C126	C	0.372571	0.622874	0.006609
	C127	C	0.371686	0.379523	0.990130
	C128	C	0.002114	0.621599	0.376613
	C129	C	0.985898	0.621638	0.620165
	C130	C	0.002645	0.378273	0.620122
	C131	C	0.986182	0.378397	0.376536
	C132	C	0.871982	0.509549	0.120490
	C133	C	0.115346	0.492027	0.119395
	C134	C	0.116075	0.508921	0.876175
	C135	C	0.872914	0.492452	0.877564
	C136	C	0.115067	0.878673	0.505898
	C137	C	0.116046	0.122312	0.490055
	C138	C	0.872252	0.121357	0.506132
	C139	C	0.870405	0.877162	0.489267
	C140	C	0.501702	0.122389	0.877392
	C141	C	0.484707	0.123019	0.121289
	C142	C	0.501579	0.880524	0.120704
	C143	C	0.485025	0.879722	0.877219
	C144	C	0.372856	0.886038	0.676266
	C145	C	0.613760	0.115343	0.675957
	C146	C	0.611581	0.885697	0.321602
	C147	C	0.373922	0.115795	0.322570
	C148	C	0.671361	0.381847	0.884199
	C149	C	0.671309	0.622084	0.112847
	C150	C	0.318304	0.620141	0.883594
	C151	C	0.315974	0.382410	0.113075
	C152	C	0.877924	0.674986	0.380356
	C153	C	0.108807	0.678075	0.617213
	C154	C	0.879131	0.322392	0.617679
	C155	C	0.109672	0.323671	0.378876
	C156	C	0.879424	0.379480	0.675830
	C157	C	0.109102	0.620408	0.675068
	C158	C	0.878495	0.618187	0.321985
	C159	C	0.109341	0.380883	0.320960
	C160	C	0.376422	0.677378	0.883867
	C161	C	0.613271	0.679062	0.112973
	C162	C	0.613675	0.323895	0.884274
	C163	C	0.373310	0.324411	0.113071
	C164	C	0.668465	0.885275	0.379632
	C165	C	0.670679	0.115129	0.617895
	C166	C	0.316449	0.885823	0.617645
	C167	C	0.317887	0.116165	0.380978
	C168	C	0.873119	0.386092	0.175096
	C169	C	0.113015	0.615769	0.174336
	C170	C	0.113653	0.384875	0.821908
	C171	C	0.875675	0.615417	0.821504
	C172	C	0.170160	0.881458	0.383056
	C173	C	0.170250	0.119104	0.613379
	C174	C	0.817241	0.119076	0.383284
	C175	C	0.815735	0.879936	0.612449
	C176	C	0.378062	0.176746	0.880483
	C177	C	0.608066	0.178874	0.118397
	C178	C	0.378037	0.824768	0.118044
	C179	C	0.608968	0.825960	0.880723
	C180	C	0.377636	0.882557	0.175055
	C181	C	0.608010	0.121650	0.176631
	C182	C	0.378634	0.120277	0.822119
	C183	C	0.608154	0.881616	0.821372
	C184	C	0.875760	0.176357	0.383209
	C185	C	0.113457	0.177381	0.612846
	C186	C	0.111408	0.824587	0.382423
	C187	C	0.873638	0.822849	0.612584
	C188	C	0.171023	0.385409	0.879188
	C189	C	0.169827	0.616104	0.115965
	C190	C	0.815017	0.386775	0.118407
	C191	C	0.819195	0.616522	0.880124
	C192	C	0.394295	0.095568	0.599212
	C193	C	0.590827	0.906234	0.597883
	C194	C	0.592262	0.095120	0.399928
	C195	C	0.393564	0.906036	0.398784
	C196	C	0.592400	0.402588	0.092454
	C197	C	0.594008	0.601453	0.904193
	C198	C	0.394054	0.600496	0.093014
	C199	C	0.394285	0.401474	0.904452
	C200	C	0.088264	0.599977	0.398420
	C201	C	0.899821	0.598369	0.598327
	C202	C	0.088646	0.401047	0.597900
	C203	C	0.900255	0.400022	0.398677
	C204	C	0.895210	0.595360	0.098487
	C205	C	0.093146	0.405712	0.097689
	C206	C	0.094228	0.594883	0.897898
	C207	C	0.894561	0.406458	0.899629
	C208	C	0.092781	0.900780	0.591849
	C209	C	0.094015	0.099911	0.404080
	C210	C	0.894345	0.098836	0.591582
	C211	C	0.892537	0.899012	0.403442
	C212	C	0.587789	0.100464	0.899194
	C213	C	0.398619	0.100248	0.099162
	C214	C	0.587774	0.903240	0.098831
	C215	C	0.398909	0.901583	0.899410
	Zn216	Zn	0.493184	0.000916	0.748984
	Zn217	Zn	0.492526	0.001129	0.249326
	Zn218	Zn	0.743970	0.502103	-0.001272
	Zn219	Zn	0.243388	0.501232	-0.002402
	Zn220	Zn	-0.006905	0.749971	0.497830
	Zn221	Zn	-0.005503	0.250025	0.498032
	Zn222	Zn	-0.005451	0.499628	0.748917
	Zn223	Zn	-0.006001	0.499971	0.248126
	Zn224	Zn	0.493954	0.751929	-0.000884
	Zn225	Zn	0.493142	0.250963	-0.001290
	Zn226	Zn	0.742505	-0.000144	0.498420
	Zn227	Zn	0.243954	0.000659	0.498325
	N228	N	0.406556	0.963944	0.678275
	N229	N	0.579283	0.037784	0.677509
	N230	N	0.578738	0.963685	0.320023
	N231	N	0.406690	0.037877	0.320088
	N232	N	0.672287	0.416402	0.961290
	N233	N	0.672898	0.588208	0.035530
	N234	N	0.315685	0.586841	0.961168
	N235	N	0.314615	0.415734	0.035628
	N236	N	0.955527	0.676977	0.413886
	N237	N	0.031153	0.678783	0.583630
	N238	N	0.956782	0.321500	0.583592
	N239	N	0.032104	0.322242	0.412893
	N240	N	0.957084	0.413417	0.677476
	N241	N	0.031573	0.585985	0.676840
	N242	N	0.956696	0.585696	0.319600
	N243	N	0.031592	0.414077	0.319129
	N244	N	0.409292	0.678967	0.961431
	N245	N	0.579673	0.680344	0.035594
	N246	N	0.579696	0.322483	0.961507
	N247	N	0.407107	0.322553	0.035624
	N248	N	0.669887	0.962837	0.413872
	N249	N	0.671106	0.037550	0.584031
	N250	N	0.315507	0.963390	0.583948
	N251	N	0.316468	0.038368	0.414325
	N252	N	0.907899	0.463292	0.176580
	N253	N	0.079706	0.537576	0.176482
	N254	N	0.080307	0.462523	0.819865
	N255	N	0.908151	0.537180	0.819603
	N256	N	0.172627	0.914276	0.460903
	N257	N	0.171920	0.085348	0.535825
	N258	N	0.815070	0.085532	0.460682
	N259	N	0.813636	0.913137	0.534853
	N260	N	0.455716	0.178200	0.914310
	N261	N	0.530452	0.179914	0.084866
	N262	N	0.456142	0.823254	0.085037
	N263	N	0.531526	0.824775	0.914880
	N264	N	0.455217	0.916633	0.176735
	N265	N	0.530063	0.087820	0.178656
	N266	N	0.456300	0.087120	0.820358
	N267	N	0.530012	0.913960	0.818851
	N268	N	0.909252	0.177986	0.460592
	N269	N	0.080596	0.179329	0.535293
	N270	N	0.077944	0.822717	0.459879
	N271	N	0.906758	0.820703	0.534993
	N272	N	0.172737	0.463507	0.912247
	N273	N	0.171440	0.538344	0.082744
	N274	N	0.814367	0.464507	0.084934
	N275	N	0.817341	0.539209	0.914427
	O276	O	0.519621	0.585706	0.582020
	H277	H	0.525225	0.587854	0.587056
	H278	H	0.525287	0.574794	0.580005
	O279	O	0.537235	0.511147	0.529587
	H280	H	0.537597	0.526499	0.525171
	H281	H	0.543981	0.506139	0.528205
	O282	O	0.524376	0.483108	0.476633
	H283	H	0.528712	0.486900	0.482216
	H284	H	0.519926	0.484364	0.467389
	O285	O	-0.028351	0.987610	0.954633
	H286	H	-0.030236	0.984258	0.958114
	H287	H	-0.022637	0.993925	0.951532
	O288	O	0.540435	0.478352	0.536561
	H289	H	0.532231	0.473695	0.556122
	H290	H	0.549092	0.484090	0.540659
	O291	O	0.295762	0.273048	1.291458
	H292	H	0.280660	0.283523	1.292735
	H293	H	0.300765	0.271046	1.302632
	O294	O	0.496761	0.514953	0.512000
	H295	H	0.496572	0.511197	0.514785
	H296	H	0.500025	0.517260	0.518800
	O297	O	0.501562	0.479977	0.536505
	H298	H	0.502543	0.481677	0.534131
	H299	H	0.491680	0.479335	0.526884
	O300	O	0.517397	0.570842	0.491470
	H301	H	0.522450	0.569699	0.486232
	H302	H	0.517660	0.569470	0.489359
	O303	O	0.550008	0.373486	0.423693
	H304	H	0.552254	0.373598	0.414869
	H305	H	0.548164	0.366490	0.429426
	O306	O	0.980454	0.027879	0.947966
	H307	H	0.985761	0.018288	0.950318
	H308	H	0.982726	0.035268	0.940378
	O309	O	0.589291	0.557085	0.472658
	H310	H	0.593959	0.548611	0.470724
	H311	H	0.590335	0.557182	0.477972
	O312	O	0.521251	0.469685	0.413874
	H313	H	0.516653	0.469369	0.410798
	H314	H	0.521727	0.476627	0.401529
	O315	O	0.988802	0.011427	0.973059
	H316	H	0.990921	0.009894	0.977999
	H317	H	0.995868	0.011238	0.973385
	O318	O	0.057666	-0.063040	-0.120096
	H319	H	0.049906	-0.071574	-0.112315
	H320	H	0.063014	-0.058124	-0.119298
	O321	O	0.467043	0.484949	0.458217
	H322	H	0.469231	0.485253	0.458914
	H323	H	0.469148	0.491668	0.460383
	O324	O	0.984080	0.070637	-0.045919
	H325	H	0.974985	0.072228	-0.045031
	H326	H	0.975618	0.068724	-0.050877
	O327	O	1.040165	1.028328	-0.002731
	H328	H	1.034939	1.024923	-0.003571
	H329	H	1.038521	1.033388	-0.007053
	O330	O	0.467241	0.417075	0.564057
	H331	H	0.458938	0.411946	0.557885
	H332	H	0.467864	0.414955	0.565958
	O333	O	0.480329	0.506424	0.479578
	H334	H	0.475324	0.512522	0.488021
	H335	H	0.470925	0.506093	0.479288
