data_Molecule from HDF5

_cell_length_a		16.435413
_cell_length_b		16.354359
_cell_length_c		16.417641
_cell_angle_alpha	90.066955
_cell_angle_beta	90.014410
_cell_angle_gamma	89.913510
_symmetry_space_group_name_H-M	'P 1'
_symmetry_Int_Tables_number		1

loop_
	_symmetry_equiv_pos_as_xyz
	x,y,z

loop_
	_atom_site_label
	_atom_site_type_symbol
	_atom_site_fract_x
	_atom_site_fract_y
	_atom_site_fract_z
	H0	H	0.400897	0.849201	0.706765
	H1	H	0.607796	0.169267	0.707475
	H2	H	0.611116	0.850493	0.263797
	H3	H	0.395624	0.167552	0.264738
	H4	H	0.726062	0.403503	0.827867
	H5	H	0.726680	0.614416	0.146007
	H6	H	0.281674	0.616465	0.829149
	H7	H	0.282508	0.403013	0.144755
	H8	H	0.847491	0.734727	0.377757
	H9	H	0.164114	0.727647	0.589671
	H10	H	0.845929	0.287616	0.592217
	H11	H	0.163233	0.285800	0.381701
	H12	H	0.847198	0.402905	0.708184
	H13	H	0.163131	0.613166	0.707540
	H14	H	0.846591	0.616360	0.264214
	H15	H	0.163469	0.402029	0.265465
	H16	H	0.401771	0.728002	0.827336
	H17	H	0.608379	0.728765	0.147081
	H18	H	0.609297	0.287964	0.827601
	H19	H	0.397594	0.286234	0.144146
	H20	H	0.726921	0.851002	0.378673
	H21	H	0.724961	0.169013	0.593332
	H22	H	0.284573	0.849293	0.592892
	H23	H	0.284096	0.168913	0.384285
	H24	H	0.898562	0.349838	0.208959
	H25	H	0.112114	0.666697	0.210970
	H26	H	0.108865	0.348423	0.766822
	H27	H	0.899241	0.666827	0.765081
	H28	H	0.229022	0.900909	0.330329
	H29	H	0.226621	0.116719	0.645928
	H30	H	0.776499	0.121239	0.331418
	H31	H	0.783505	0.902787	0.644988
	H32	H	0.345493	0.231599	0.881016
	H33	H	0.661362	0.232700	0.094247
	H34	H	0.345513	0.787375	0.092761
	H35	H	0.662594	0.786724	0.880945
	H36	H	0.345673	0.902256	0.209539
	H37	H	0.660635	0.118761	0.212406
	H38	H	0.344568	0.113695	0.767221
	H39	H	0.661582	0.902442	0.764259
	H40	H	0.896368	0.232493	0.328652
	H41	H	0.106828	0.228598	0.646804
	H42	H	0.113914	0.784515	0.329652
	H43	H	0.901158	0.788286	0.644932
	H44	H	0.224376	0.348524	0.882766
	H45	H	0.227432	0.667355	0.094561
	H46	H	0.783230	0.349830	0.093052
	H47	H	0.782673	0.666639	0.879955
	H48	H	0.421909	0.119958	0.573933
	H49	H	0.590805	0.898917	0.569171
	H50	H	0.594035	0.119649	0.405917
	H51	H	0.419948	0.896551	0.397362
	H52	H	0.593352	0.423338	0.098538
	H53	H	0.598981	0.594127	0.873382
	H54	H	0.416922	0.602141	0.101038
	H55	H	0.417658	0.427833	0.877381
	H56	H	0.115438	0.592303	0.398008
	H57	H	0.889264	0.597479	0.582781
	H58	H	0.119109	0.420434	0.578663
	H59	H	0.891621	0.423646	0.393984
	H60	H	0.118872	0.415764	0.574882
	H61	H	0.890635	0.603423	0.572161
	H62	H	0.118790	0.599749	0.396300
	H63	H	0.890635	0.415838	0.397766
	H64	H	0.410728	0.597211	0.102495
	H65	H	0.588689	0.594874	0.876652
	H66	H	0.591185	0.418714	0.099796
	H67	H	0.420950	0.416008	0.872923
	H68	H	0.592096	0.123881	0.396381
	H69	H	0.600631	0.893664	0.575874
	H70	H	0.406724	0.124628	0.571857
	H71	H	0.416038	0.896711	0.402334
	H72	H	0.913008	0.622201	0.074333
	H73	H	0.093705	0.397672	0.068028
	H74	H	0.090308	0.622725	0.893616
	H75	H	0.917923	0.393703	0.894310
	H76	H	0.092038	0.916616	0.600556
	H77	H	0.095097	0.099934	0.373060
	H78	H	0.914504	0.097274	0.599613
	H79	H	0.920218	0.919046	0.373907
	H80	H	0.616244	0.099385	0.900286
	H81	H	0.392909	0.096143	0.071893
	H82	H	0.617681	0.922130	0.081477
	H83	H	0.391631	0.923878	0.894613
	H84	H	0.617262	0.916284	0.073412
	H85	H	0.391998	0.094218	0.076442
	H86	H	0.615737	0.094875	0.898379
	H87	H	0.388100	0.914868	0.895067
	H88	H	0.915005	0.097370	0.599373
	H89	H	0.097153	0.093104	0.373969
	H90	H	0.097350	0.919450	0.603212
	H91	H	0.912228	0.922079	0.371907
	H92	H	0.091907	0.620095	0.901768
	H93	H	0.098977	0.392712	0.078988
	H94	H	0.918194	0.622412	0.077743
	H95	H	0.916100	0.395394	0.900186
	H96	H	0.413257	0.126421	0.586425
	H97	H	0.588815	0.894978	0.582153
	H98	H	0.584121	0.118757	0.400843
	H99	H	0.414074	0.894715	0.397267
	H100	H	0.596570	0.419199	0.101145
	H101	H	0.594133	0.603712	0.872526
	H102	H	0.417318	0.594000	0.098510
	H103	H	0.409110	0.420281	0.870968
	H104	H	0.115384	0.598050	0.403433
	H105	H	0.894005	0.591900	0.572967
	H106	H	0.116791	0.421001	0.572728
	H107	H	0.894679	0.422570	0.402601
	H108	H	0.918411	0.620096	0.072404
	H109	H	0.086231	0.397066	0.078609
	H110	H	0.097768	0.623801	0.897300
	H111	H	0.912750	0.392959	0.895989
	H112	H	0.092915	0.923034	0.599223
	H113	H	0.090543	0.095563	0.375991
	H114	H	0.914954	0.098197	0.599947
	H115	H	0.917584	0.927240	0.376334
	H116	H	0.618170	0.098586	0.895540
	H117	H	0.390667	0.099356	0.075705
	H118	H	0.614029	0.925602	0.073087
	H119	H	0.392952	0.918740	0.902608
	C120	C	0.382819	0.017772	0.609141
	C121	C	0.625161	1.001195	0.608533
	C122	C	0.624815	0.017160	0.365742
	C123	C	0.383205	1.000818	0.366546
	C124	C	0.626208	0.387592	-0.005045
	C125	C	0.626679	0.630432	0.979005
	C126	C	0.382785	0.630143	-0.004239
	C127	C	0.382996	0.388231	0.978089
	C128	C	0.012732	0.630697	0.365566
	C129	C	0.995900	0.629739	0.607970
	C130	C	0.013458	0.387092	0.607758
	C131	C	0.996582	0.386950	0.365386
	C132	C	0.883945	0.516759	0.107805
	C133	C	0.125911	0.500493	0.108295
	C134	C	0.125867	0.516842	0.865570
	C135	C	0.883299	0.499326	0.864959
	C136	C	0.127267	0.886994	0.496166
	C137	C	0.125522	0.129298	0.479396
	C138	C	0.881207	0.131502	0.495494
	C139	C	0.884412	0.889237	0.478358
	C140	C	0.512222	0.130430	0.865722
	C141	C	0.495451	0.130697	0.108667
	C142	C	0.511835	0.888349	0.108391
	C143	C	0.495757	0.886916	0.864973
	C144	C	0.381854	0.897282	0.667892
	C145	C	0.626464	0.121288	0.668241
	C146	C	0.628685	0.898401	0.303838
	C147	C	0.378797	0.120067	0.305444
	C148	C	0.686455	0.384901	0.875601
	C149	C	0.686998	0.632690	0.098200
	C150	C	0.322401	0.633492	0.876695
	C151	C	0.322484	0.385156	0.097384
	C152	C	0.894589	0.693340	0.361003
	C153	C	0.115806	0.689110	0.609505
	C154	C	0.893804	0.327570	0.610101
	C155	C	0.115677	0.326180	0.363467
	C156	C	0.894282	0.384810	0.668092
	C157	C	0.115530	0.631763	0.668002
	C158	C	0.894075	0.634159	0.304341
	C159	C	0.115842	0.384178	0.305593
	C160	C	0.382103	0.689251	0.875626
	C161	C	0.628219	0.689867	0.098826
	C162	C	0.628370	0.327455	0.875391
	C163	C	0.379887	0.326944	0.096970
	C164	C	0.686852	0.898750	0.361003
	C165	C	0.684963	0.120931	0.611284
	C166	C	0.324097	0.897329	0.610965
	C167	C	0.323127	0.120781	0.364909
	C168	C	0.880655	0.397552	0.168908
	C169	C	0.129279	0.619557	0.169981
	C170	C	0.128014	0.396578	0.806033
	C171	C	0.881093	0.619202	0.805124
	C172	C	0.188566	0.883512	0.377609
	C173	C	0.185731	0.133407	0.598638
	C174	C	0.818465	0.137099	0.377897
	C175	C	0.823792	0.885312	0.597264
	C176	C	0.392922	0.191303	0.863081
	C177	C	0.613748	0.192638	0.112448
	C178	C	0.393011	0.827550	0.110917
	C179	C	0.614772	0.826710	0.862707
	C180	C	0.392947	0.885058	0.169037
	C181	C	0.613355	0.135612	0.171342
	C182	C	0.392581	0.132573	0.806363
	C183	C	0.614484	0.884138	0.804290
	C184	C	0.878258	0.192641	0.376649
	C185	C	0.126357	0.189477	0.598983
	C186	C	0.130807	0.825582	0.377258
	C187	C	0.882463	0.828504	0.597580
	C188	C	0.185287	0.396669	0.864113
	C189	C	0.186865	0.619744	0.112048
	C190	C	0.823349	0.397355	0.111026
	C191	C	0.822917	0.618845	0.862276
	C192	C	0.407116	0.101671	0.584655
	C193	C	0.600493	0.917591	0.583187
	C194	C	0.597700	0.099486	0.392961
	C195	C	0.409192	0.917745	0.391739
	C196	C	0.601012	0.412953	0.077962
	C197	C	0.601452	0.605006	0.895762
	C198	C	0.407720	0.605074	0.079029
	C199	C	0.408591	0.414010	0.895419
	C200	C	0.095225	0.604282	0.391596
	C201	C	0.912982	0.604929	0.583028
	C202	C	0.096500	0.411950	0.582652
	C203	C	0.913690	0.413241	0.390802
	C204	C	0.909127	0.599764	0.082297
	C205	C	0.100384	0.417394	0.082451
	C206	C	0.100743	0.600510	0.890330
	C207	C	0.908442	0.415824	0.889629
	C208	C	0.101443	0.912532	0.579264
	C209	C	0.101251	0.103510	0.396261
	C210	C	0.907253	0.105219	0.577916
	C211	C	0.909476	0.915339	0.395553
	C212	C	0.594988	0.105018	0.891038
	C213	C	0.413217	0.104209	0.082260
	C214	C	0.594774	0.913838	0.083160
	C215	C	0.412507	0.912107	0.890133
	Zn216	Zn	0.503512	0.009250	0.737130
	Zn217	Zn	0.503348	0.009026	0.237462
	Zn218	Zn	0.755161	0.507920	-0.013014
	Zn219	Zn	0.254247	0.508679	-0.013092
	Zn220	Zn	0.004721	0.759419	0.486836
	Zn221	Zn	0.004433	0.258245	0.487098
	Zn222	Zn	0.004631	0.507597	0.736513
	Zn223	Zn	0.004902	0.508595	0.236715
	Zn224	Zn	0.504483	0.758617	-0.012256
	Zn225	Zn	0.504195	0.259259	-0.013680
	Zn226	Zn	0.753878	0.009019	0.487170
	Zn227	Zn	0.255124	0.009227	0.488246
	N228	N	0.417554	0.973241	0.666787
	N229	N	0.590365	0.045504	0.666924
	N230	N	0.591088	0.973494	0.306484
	N231	N	0.415301	0.044570	0.306257
	N232	N	0.685134	0.421427	0.951010
	N233	N	0.686295	0.596774	0.022368
	N234	N	0.322349	0.597943	0.952470
	N235	N	0.324453	0.422463	0.022439
	N236	N	0.969500	0.691392	0.398143
	N237	N	0.040628	0.687929	0.572885
	N238	N	0.968868	0.328904	0.573238
	N239	N	0.040338	0.327719	0.399924
	N240	N	0.969575	0.421188	0.666654
	N241	N	0.039968	0.595835	0.667701
	N242	N	0.968614	0.595978	0.306916
	N243	N	0.040655	0.421070	0.306675
	N244	N	0.418901	0.687453	0.950766
	N245	N	0.591713	0.688678	0.023637
	N246	N	0.591814	0.328668	0.950771
	N247	N	0.416856	0.328783	0.021954
	N248	N	0.684771	0.973709	0.398760
	N249	N	0.684400	0.045222	0.574946
	N250	N	0.324211	0.973391	0.575407
	N251	N	0.325581	0.045465	0.402012
	N252	N	0.917407	0.472874	0.167375
	N253	N	0.091949	0.544477	0.167563
	N254	N	0.091843	0.472416	0.806650
	N255	N	0.917767	0.543786	0.806569
	N256	N	0.186467	0.920940	0.452663
	N257	N	0.185216	0.096544	0.523248
	N258	N	0.820206	0.099683	0.452818
	N259	N	0.824818	0.922328	0.522075
	N260	N	0.468371	0.190137	0.899347
	N261	N	0.539511	0.189655	0.074049
	N262	N	0.467889	0.829595	0.073672
	N263	N	0.539807	0.828192	0.899668
	N264	N	0.467912	0.922060	0.167627
	N265	N	0.538768	0.097796	0.169039
	N266	N	0.467612	0.095550	0.807768
	N267	N	0.539382	0.920890	0.805730
	N268	N	0.916621	0.189210	0.450777
	N269	N	0.089503	0.187057	0.523934
	N270	N	0.093514	0.827593	0.452184
	N271	N	0.919044	0.830460	0.522489
	N272	N	0.184092	0.472507	0.900300
	N273	N	0.184803	0.544785	0.074415
	N274	N	0.825053	0.472483	0.073864
	N275	N	0.824173	0.543347	0.898976
	O276	O	-0.164530	1.192776	-0.205094
	H277	H	-0.150519	1.203896	-0.185607
	H278	H	-0.142976	1.204084	-0.188699
	O279	O	0.394929	0.596692	0.587560
	H280	H	0.383017	0.604717	0.598427
	H281	H	0.380439	0.584461	0.584542
	O282	O	-0.212394	0.026914	-0.224691
	H283	H	-0.218304	0.059060	-0.228321
	H284	H	-0.221104	0.047508	-0.241578
	O285	O	0.977339	1.167427	0.106038
	H286	H	0.996287	1.181926	0.106212
	H287	H	0.988434	1.162965	0.083796
	O288	O	0.339282	0.720225	0.440898
	H289	H	0.324860	0.739505	0.414678
	H290	H	0.329105	0.722970	0.418682
	O291	O	0.634121	0.603075	0.354111
	H292	H	0.640073	0.609582	0.371961
	H293	H	0.647299	0.609130	0.351981
	O294	O	1.149518	0.844945	0.793279
	H295	H	1.138726	0.834084	0.794784
	H296	H	1.136554	0.829777	0.822951
	O297	O	0.583281	0.342000	0.521843
	H298	H	0.567810	0.335899	0.509878
	H299	H	0.579059	0.347508	0.526955
	O300	O	0.619145	0.497300	0.686426
	H301	H	0.613586	0.500188	0.684389
	H302	H	0.632646	0.501320	0.704998
	O303	O	0.944418	0.069522	1.208271
	H304	H	0.930164	0.068419	1.208772
	H305	H	0.954111	0.077167	1.193659
	O306	O	0.186914	0.191527	1.164570
	H307	H	0.187530	0.201301	1.120259
	H308	H	0.157147	0.187283	1.169134
	O309	O	0.556643	-0.693790	0.289136
	H310	H	0.569910	-0.700532	0.275981
	H311	H	0.566747	-0.691214	0.289812
	O312	O	0.541981	0.671327	0.472021
	H313	H	0.553822	0.667589	0.484896
	H314	H	0.530542	0.671718	0.485218
	O315	O	0.310932	0.495951	0.670324
	H316	H	0.312776	0.484255	0.663079
	H317	H	0.293415	0.485959	0.691044
	O318	O	-0.007052	0.195244	-0.028171
	H319	H	-0.002838	0.179117	-0.036610
	H320	H	-0.027236	0.202124	-0.023235
	O321	O	0.714083	0.493343	0.600797
	H322	H	0.717634	0.508600	0.592610
	H323	H	0.721928	0.487907	0.620255
	O324	O	1.088502	0.213247	1.124309
	H325	H	1.082870	0.233302	1.130522
	H326	H	1.082905	0.194292	1.117429
	O327	O	0.791349	-0.211628	1.005581
	H328	H	0.753680	-0.248434	1.012156
	H329	H	0.804174	-0.197731	1.056746
	O330	O	0.090122	0.926139	1.174057
	H331	H	0.083218	0.951782	1.171885
	H332	H	0.108914	0.947994	1.167764
	O333	O	-0.178202	0.958793	-0.043111
	H334	H	-0.180211	0.950384	-0.056477
	H335	H	-0.186547	0.936518	-0.050556
	O336	O	1.092588	0.843886	0.033584
	H337	H	1.075878	0.830594	0.026560
	H338	H	1.077568	0.846135	0.045804
	O339	O	-0.204683	1.218521	0.947910
	H340	H	-0.211888	1.207506	0.965924
	H341	H	-0.225358	1.223378	0.954877
	O342	O	0.325942	0.677428	0.347304
	H343	H	0.359806	0.678664	0.340053
	H344	H	0.322610	0.637542	0.341342
	O345	O	0.149166	0.057030	1.118058
	H346	H	0.162078	0.048828	1.128919
	H347	H	0.127149	0.081776	1.110533
	O348	O	0.555532	0.513905	0.561313
	H349	H	0.555389	0.530661	0.564058
	H350	H	0.559388	0.523443	0.568278
	O351	O	0.938929	0.922290	-0.093970
	H352	H	0.930390	0.925155	-0.091455
	H353	H	0.933689	0.925507	-0.086357
	O354	O	0.984898	0.799425	1.199556
	H355	H	1.005688	0.818437	1.215967
	H356	H	0.994376	0.789125	1.222579
	O357	O	-0.543096	-0.379773	0.433717
	H358	H	-0.539690	-0.371924	0.448783
	H359	H	-0.547653	-0.391470	0.430464
	O360	O	0.454531	0.594864	0.556827
	H361	H	0.442279	0.590519	0.553246
	H362	H	0.449868	0.592299	0.560817
	O363	O	0.792358	0.090928	0.049738
	H364	H	0.811682	0.088767	0.059482
	H365	H	0.787754	0.060498	0.022648
	O366	O	-0.322571	-0.485795	1.421713
	H367	H	-0.323293	-0.465081	1.422048
	H368	H	-0.307057	-0.501201	1.433368
	O369	O	1.120247	0.007367	1.027023
	H370	H	1.135143	0.013036	1.017458
	H371	H	1.122765	-0.014073	1.028411
	O372	O	0.447056	0.560922	0.611549
	H373	H	0.437336	0.577801	0.605646
	H374	H	0.424278	0.548456	0.599807
	O375	O	-0.032652	-0.190489	0.967157
	H376	H	-0.027261	-0.182870	0.943902
	H377	H	-0.054580	-0.199145	0.977167
	O378	O	0.477235	0.425860	0.347228
	H379	H	0.505309	0.421273	0.350761
	H380	H	0.488881	0.421059	0.334612
	O381	O	0.327245	0.339570	0.665096
	H382	H	0.348308	0.342055	0.665108
	H383	H	0.316759	0.329300	0.627501
	O384	O	0.690336	0.392452	0.297895
	H385	H	0.698465	0.409509	0.325419
	H386	H	0.691486	0.406070	0.297973
	O387	O	0.421734	0.453203	0.331939
	H388	H	0.436542	0.463592	0.338655
	H389	H	0.430408	0.433486	0.315247
	O390	O	1.018787	0.921182	-0.214297
	H391	H	1.031524	0.921083	-0.219490
	H392	H	1.010284	0.922848	-0.214441
	O393	O	1.191154	-0.001508	1.041720
	H394	H	1.201847	-0.009467	1.045700
	H395	H	1.206458	-0.021024	1.043446
	O396	O	0.298115	0.456347	0.358902
	H397	H	0.334452	0.432594	0.350516
	H398	H	0.273468	0.439221	0.336760
	O399	O	0.214053	0.798214	0.940944
	H400	H	0.204414	0.781757	0.955733
	H401	H	0.222396	0.777634	0.935021
	O402	O	0.999679	0.829531	-0.176056
	H403	H	0.979115	0.840682	-0.169924
	H404	H	1.013352	0.819842	-0.173433
	O405	O	0.308921	0.421013	0.476531
	H406	H	0.315524	0.410651	0.470225
	H407	H	0.299066	0.421712	0.468483
	O408	O	0.514178	0.338374	0.519916
	H409	H	0.524155	0.329010	0.519516
	H410	H	0.520308	0.353169	0.515701
	O411	O	0.792718	0.996505	1.192324
	H412	H	0.768109	0.998460	1.218001
	H413	H	0.798630	1.013378	1.178745
	O414	O	0.715966	0.725125	0.509364
	H415	H	0.730953	0.741848	0.536119
	H416	H	0.721164	0.729306	0.527582
	O417	O	-0.172874	0.831137	1.157169
	H418	H	-0.183292	0.880911	1.172067
	H419	H	-0.121874	0.821492	1.168884
	O420	O	0.110164	1.083336	0.849804
	H421	H	0.113934	1.068428	0.851307
	H422	H	0.104713	1.072059	0.844358
	O423	O	-0.016018	1.163626	-0.180456
	H424	H	0.005846	1.165409	-0.178806
	H425	H	0.001415	1.149140	-0.184974
	O426	O	0.637663	0.696178	0.675638
	H427	H	0.604557	0.694980	0.682531
	H428	H	0.631480	0.694607	0.678854
	O429	O	0.532809	0.421569	0.659659
	H430	H	0.527021	0.432557	0.658911
	H431	H	0.531489	0.421122	0.665623
	O432	O	1.160935	0.176816	-0.050969
	H433	H	1.150990	0.156144	-0.062325
	H434	H	1.185953	0.177776	-0.047942
	O435	O	0.159745	0.014344	-0.215799
	H436	H	0.151242	-0.016741	-0.206282
	H437	H	0.181883	0.002590	-0.233176
	O438	O	-0.287305	1.350508	1.485628
	H439	H	-0.274421	1.333606	1.485563
	H440	H	-0.295695	1.342431	1.505151
	O441	O	0.491841	0.554945	0.282288
	H442	H	0.503783	0.560376	0.274990
	H443	H	0.509295	0.561608	0.287143
