data_Molecule from HDF5

_cell_length_a		16.551686
_cell_length_b		16.524268
_cell_length_c		16.572364
_cell_angle_alpha	89.993393
_cell_angle_beta	89.903593
_cell_angle_gamma	89.999002
_symmetry_space_group_name_H-M	'P 1'
_symmetry_Int_Tables_number		1

loop_
	_symmetry_equiv_pos_as_xyz
	x,y,z

loop_
	_atom_site_label
	_atom_site_type_symbol
	_atom_site_fract_x
	_atom_site_fract_y
	_atom_site_fract_z
	H0	H	0.407085	0.845079	0.726186
	H1	H	0.612993	0.161183	0.728737
	H2	H	0.614423	0.848343	0.287869
	H3	H	0.405044	0.162095	0.287114
	H4	H	0.729735	0.403204	0.851369
	H5	H	0.730302	0.609640	0.165686
	H6	H	0.288852	0.608794	0.851094
	H7	H	0.285714	0.396453	0.163936
	H8	H	0.853224	0.724528	0.404550
	H9	H	0.169015	0.724420	0.610235
	H10	H	0.853577	0.285825	0.611174
	H11	H	0.166304	0.281759	0.401779
	H12	H	0.853857	0.401803	0.728097
	H13	H	0.168900	0.609065	0.727331
	H14	H	0.853936	0.609797	0.286490
	H15	H	0.165575	0.395975	0.284065
	H16	H	0.404615	0.725771	0.850629
	H17	H	0.614350	0.726637	0.164514
	H18	H	0.614578	0.284279	0.852107
	H19	H	0.402279	0.280249	0.163631
	H20	H	0.729216	0.848022	0.404986
	H21	H	0.729975	0.161741	0.612201
	H22	H	0.290744	0.845233	0.610187
	H23	H	0.289083	0.161802	0.403846
	H24	H	0.905727	0.346618	0.228662
	H25	H	0.116189	0.660858	0.230486
	H26	H	0.116187	0.347689	0.787398
	H27	H	0.907201	0.662129	0.787971
	H28	H	0.230722	0.899912	0.350219
	H29	H	0.228993	0.107607	0.664579
	H30	H	0.787530	0.110868	0.351244
	H31	H	0.792874	0.904766	0.666258
	H32	H	0.352359	0.224330	0.905191
	H33	H	0.667011	0.225843	0.113116
	H34	H	0.351295	0.785420	0.111565
	H35	H	0.667598	0.786221	0.905748
	H36	H	0.352645	0.899706	0.230075
	H37	H	0.666972	0.109809	0.229354
	H38	H	0.351833	0.107729	0.789052
	H39	H	0.667149	0.901476	0.787625
	H40	H	0.902665	0.228421	0.351458
	H41	H	0.111155	0.222692	0.665182
	H42	H	0.113753	0.784061	0.350188
	H43	H	0.909354	0.787430	0.665583
	H44	H	0.230278	0.347218	0.904869
	H45	H	0.231928	0.661154	0.113734
	H46	H	0.790937	0.346572	0.111028
	H47	H	0.791618	0.662498	0.905075
	H48	H	0.417979	0.115628	0.595109
	H49	H	0.596942	0.890729	0.602420
	H50	H	0.595347	0.117943	0.415980
	H51	H	0.416050	0.887931	0.412587
	H52	H	0.601871	0.421961	0.119276
	H53	H	0.604091	0.585837	0.898139
	H54	H	0.424137	0.589246	0.117035
	H55	H	0.425386	0.411769	0.896799
	H56	H	0.122446	0.594869	0.418575
	H57	H	0.899776	0.590012	0.600410
	H58	H	0.123535	0.414982	0.597759
	H59	H	0.897481	0.412357	0.420716
	H60	H	0.124869	0.414251	0.598287
	H61	H	0.896123	0.598374	0.603690
	H62	H	0.121413	0.592407	0.421495
	H63	H	0.901434	0.418830	0.423785
	H64	H	0.423394	0.597990	0.120142
	H65	H	0.592498	0.600004	0.897341
	H66	H	0.592739	0.412699	0.119588
	H67	H	0.416826	0.417338	0.896617
	H68	H	0.597522	0.116412	0.422582
	H69	H	0.597990	0.893342	0.592873
	H70	H	0.416267	0.117856	0.600308
	H71	H	0.430152	0.894913	0.417103
	H72	H	0.924105	0.616568	0.100780
	H73	H	0.101658	0.389772	0.100033
	H74	H	0.102683	0.618668	0.916156
	H75	H	0.923268	0.392800	0.918609
	H76	H	0.103449	0.917993	0.619641
	H77	H	0.100775	0.092159	0.395386
	H78	H	0.925063	0.089769	0.616340
	H79	H	0.913562	0.918121	0.393800
	H80	H	0.620978	0.087706	0.915719
	H81	H	0.398938	0.090224	0.096376
	H82	H	0.622291	0.915910	0.101509
	H83	H	0.394752	0.917435	0.908806
	H84	H	0.622428	0.912412	0.095962
	H85	H	0.397891	0.092794	0.098011
	H86	H	0.625691	0.098069	0.912877
	H87	H	0.394486	0.905971	0.919809
	H88	H	0.922272	0.100977	0.620275
	H89	H	0.097365	0.090883	0.396342
	H90	H	0.095759	0.915890	0.618358
	H91	H	0.925225	0.918926	0.398362
	H92	H	0.096323	0.616633	0.916624
	H93	H	0.092118	0.394162	0.097693
	H94	H	0.920959	0.615540	0.094677
	H95	H	0.919064	0.392330	0.920167
	H96	H	0.421706	0.115996	0.599677
	H97	H	0.605740	0.889242	0.598015
	H98	H	0.602271	0.119285	0.417747
	H99	H	0.417493	0.894551	0.427485
	H100	H	0.604349	0.410324	0.124459
	H101	H	0.609152	0.601894	0.891393
	H102	H	0.416352	0.592909	0.119751
	H103	H	0.425647	0.420937	0.900646
	H104	H	0.122479	0.591306	0.417671
	H105	H	0.898890	0.597735	0.594227
	H106	H	0.123438	0.413359	0.597305
	H107	H	0.897801	0.419178	0.415447
	H108	H	0.917306	0.618766	0.100630
	H109	H	0.100056	0.394043	0.090544
	H110	H	0.100107	0.616066	0.922102
	H111	H	0.919536	0.391660	0.916013
	H112	H	0.100527	0.910384	0.621435
	H113	H	0.097716	0.094812	0.395135
	H114	H	0.913489	0.092387	0.620672
	H115	H	0.921315	0.908552	0.393241
	H116	H	0.620990	0.095896	0.923728
	H117	H	0.399161	0.093086	0.095101
	H118	H	0.619826	0.918414	0.095981
	H119	H	0.400444	0.920299	0.923410
	C120	C	0.387690	0.012095	0.629476
	C121	C	0.630930	0.995488	0.629528
	C122	C	0.630518	0.014037	0.387119
	C123	C	0.388857	0.996272	0.386942
	C124	C	0.631434	0.383705	0.017055
	C125	C	0.632619	0.627027	0.999569
	C126	C	0.388657	0.625686	0.015697
	C127	C	0.388690	0.383151	1.000316
	C128	C	0.018821	0.625323	0.386981
	C129	C	1.002566	0.626652	0.630088
	C130	C	0.019967	0.383132	0.629371
	C131	C	1.001781	0.382575	0.386414
	C132	C	0.888961	0.512725	0.129951
	C133	C	0.131399	0.495949	0.129086
	C134	C	0.131555	0.513051	0.887219
	C135	C	0.889726	0.496573	0.887006
	C136	C	0.131773	0.882795	0.516029
	C137	C	0.130189	0.124765	0.499259
	C138	C	0.887250	0.127367	0.516032
	C139	C	0.889163	0.884121	0.499323
	C140	C	0.518617	0.125914	0.886400
	C141	C	0.502061	0.124987	0.128720
	C142	C	0.517755	0.883369	0.129686
	C143	C	0.500877	0.883229	0.886504
	C144	C	0.387780	0.892682	0.687236
	C145	C	0.631982	0.114090	0.689034
	C146	C	0.632584	0.895524	0.327826
	C147	C	0.386556	0.114832	0.327083
	C148	C	0.690181	0.383554	0.898616
	C149	C	0.691193	0.628576	0.118103
	C150	C	0.328767	0.627473	0.897988
	C151	C	0.326630	0.378922	0.117156
	C152	C	0.900535	0.685126	0.385420
	C153	C	0.121466	0.684869	0.629475
	C154	C	0.900766	0.325037	0.630181
	C155	C	0.119255	0.321778	0.383458
	C156	C	0.901193	0.382590	0.688336
	C157	C	0.121448	0.627544	0.687961
	C158	C	0.900909	0.627984	0.326850
	C159	C	0.119007	0.378878	0.325083
	C160	C	0.386688	0.685387	0.897738
	C161	C	0.633517	0.686681	0.117735
	C162	C	0.633055	0.324563	0.898853
	C163	C	0.384736	0.321176	0.117092
	C164	C	0.689978	0.895492	0.385671
	C165	C	0.690048	0.114380	0.631240
	C166	C	0.329834	0.892824	0.629642
	C167	C	0.329055	0.114665	0.385214
	C168	C	0.887131	0.394018	0.188974
	C169	C	0.134092	0.613922	0.189820
	C170	C	0.134031	0.394829	0.827587
	C171	C	0.888628	0.614999	0.828116
	C172	C	0.190853	0.881481	0.397274
	C173	C	0.189077	0.126120	0.617504
	C174	C	0.827196	0.129656	0.398324
	C175	C	0.831639	0.884571	0.618513
	C176	C	0.399693	0.184565	0.886446
	C177	C	0.619880	0.185659	0.131323
	C178	C	0.399234	0.824188	0.130892
	C179	C	0.620178	0.825289	0.886328
	C180	C	0.399719	0.881202	0.189715
	C181	C	0.619901	0.127875	0.189088
	C182	C	0.399398	0.126593	0.828646
	C183	C	0.619853	0.882522	0.827608
	C184	C	0.884537	0.187998	0.398500
	C185	C	0.130708	0.183472	0.617840
	C186	C	0.132634	0.824005	0.397260
	C187	C	0.889414	0.826356	0.618391
	C188	C	0.190727	0.394575	0.886081
	C189	C	0.191734	0.614143	0.131831
	C190	C	0.829838	0.394062	0.130736
	C191	C	0.831154	0.615193	0.886312
	C192	C	0.411706	0.094994	0.605341
	C193	C	0.607038	0.912803	0.604854
	C194	C	0.605576	0.096551	0.411841
	C195	C	0.414068	0.913996	0.411901
	C196	C	0.606571	0.408083	0.099666
	C197	C	0.608743	0.602631	0.917112
	C198	C	0.414140	0.600373	0.097697
	C199	C	0.415060	0.409401	0.918992
	C200	C	0.100824	0.600041	0.412081
	C201	C	0.919789	0.602357	0.606423
	C202	C	0.102564	0.407087	0.604689
	C203	C	0.919979	0.409069	0.412470
	C204	C	0.913689	0.595371	0.105618
	C205	C	0.105451	0.414082	0.103348
	C206	C	0.106786	0.595640	0.911355
	C207	C	0.913886	0.413816	0.911334
	C208	C	0.106936	0.907644	0.598480
	C209	C	0.105442	0.099947	0.416995
	C210	C	0.912850	0.101749	0.597792
	C211	C	0.912970	0.908185	0.416509
	C212	C	0.601020	0.100981	0.910507
	C213	C	0.420149	0.099454	0.103488
	C214	C	0.600140	0.908324	0.104973
	C215	C	0.418244	0.907505	0.910515
	Zn216	Zn	0.509114	0.004015	0.757429
	Zn217	Zn	0.509698	0.005282	0.258404
	Zn218	Zn	0.760673	0.505203	0.008748
	Zn219	Zn	0.259966	0.504451	0.008327
	Zn220	Zn	0.010578	0.754589	0.507715
	Zn221	Zn	0.010086	0.254672	0.507270
	Zn222	Zn	0.011419	0.504661	0.758069
	Zn223	Zn	0.010333	0.503710	0.258048
	Zn224	Zn	0.509659	0.754806	0.008240
	Zn225	Zn	0.510209	0.254591	0.008619
	Zn226	Zn	0.759364	0.004910	0.507820
	Zn227	Zn	0.259806	0.003933	0.507538
	N228	N	0.422605	0.968130	0.687598
	N229	N	0.596192	0.039143	0.688213
	N230	N	0.596646	0.970377	0.328248
	N231	N	0.423022	0.040204	0.328036
	N232	N	0.689397	0.419351	0.973334
	N233	N	0.691118	0.592635	0.043417
	N234	N	0.329823	0.591147	0.972491
	N235	N	0.329256	0.417020	0.043701
	N236	N	0.974952	0.683684	0.422035
	N237	N	0.046459	0.684503	0.594099
	N238	N	0.975660	0.325131	0.594360
	N239	N	0.045349	0.324379	0.421033
	N240	N	0.976296	0.417740	0.688248
	N241	N	0.046475	0.592016	0.688414
	N242	N	0.975403	0.591436	0.327615
	N243	N	0.044776	0.416143	0.326975
	N244	N	0.423313	0.684280	0.972084
	N245	N	0.597846	0.686096	0.042993
	N246	N	0.597427	0.324438	0.973714
	N247	N	0.422900	0.323755	0.043411
	N248	N	0.689036	0.970293	0.421732
	N249	N	0.689644	0.039673	0.595052
	N250	N	0.329540	0.968069	0.594516
	N251	N	0.330241	0.039973	0.421518
	N252	N	0.922970	0.468943	0.188872
	N253	N	0.097310	0.539417	0.188329
	N254	N	0.097766	0.469587	0.828162
	N255	N	0.924369	0.540116	0.828343
	N256	N	0.190549	0.917073	0.472260
	N257	N	0.189034	0.090339	0.542769
	N258	N	0.828322	0.092889	0.472600
	N259	N	0.831215	0.919509	0.543404
	N260	N	0.474999	0.184837	0.921086
	N261	N	0.545709	0.183995	0.094426
	N262	N	0.473765	0.825434	0.094470
	N263	N	0.545137	0.825397	0.921835
	N264	N	0.474574	0.917252	0.189502
	N265	N	0.545625	0.090786	0.187655
	N266	N	0.474577	0.091105	0.828024
	N267	N	0.544617	0.917562	0.827299
	N268	N	0.921171	0.186659	0.472765
	N269	N	0.095063	0.182959	0.543100
	N270	N	0.096810	0.824639	0.471981
	N271	N	0.924467	0.825782	0.543187
	N272	N	0.189554	0.469346	0.922147
	N273	N	0.190365	0.539746	0.095016
	N274	N	0.830692	0.469005	0.095030
	N275	N	0.831918	0.540485	0.922665
	O276	O	0.832431	0.816733	-0.168062
	H277	H	0.853711	0.834331	-0.153142
	H278	H	0.848308	0.832785	-0.148442
	O279	O	0.402986	0.609509	0.641332
	H280	H	0.413776	0.585829	0.632981
	H281	H	0.404976	0.607732	0.650114
	O282	O	0.726531	0.459932	0.549537
	H283	H	0.718525	0.462048	0.562062
	H284	H	0.729448	0.448624	0.537437
	O285	O	0.610309	0.550448	0.565354
	H286	H	0.600986	0.552366	0.555986
	H287	H	0.609155	0.562194	0.579570
	O288	O	0.801910	0.027523	0.799332
	H289	H	0.796229	0.020010	0.797242
	H290	H	0.791806	0.025423	0.803887
	O291	O	0.716797	0.542891	0.380923
	H292	H	0.728165	0.533909	0.395637
	H293	H	0.721982	0.532371	0.371338
	O294	O	0.034941	-0.205432	-0.205079
	H295	H	0.032015	-0.215844	-0.196538
	H296	H	0.045072	-0.213370	-0.206553
	O297	O	0.721189	0.406385	0.289575
	H298	H	0.717247	0.377748	0.306246
	H299	H	0.740927	0.415683	0.270988
	O300	O	0.027042	0.071492	0.010536
	H301	H	0.028641	0.083177	-0.005487
	H302	H	0.026102	0.069078	0.024761
	O303	O	-0.211205	-0.053263	-0.051155
	H304	H	-0.208053	-0.072784	-0.032209
	H305	H	-0.207694	-0.034662	-0.031873
	O306	O	0.797690	0.080156	0.055626
	H307	H	0.805267	0.080178	0.063511
	H308	H	0.802516	0.095498	0.057058
	O309	O	0.639755	0.326638	0.322122
	H310	H	0.630721	0.335498	0.322744
	H311	H	0.645198	0.322681	0.311019
	O312	O	0.315514	0.521303	0.292762
	H313	H	0.289530	0.526743	0.281505
	H314	H	0.320254	0.519204	0.304363
	O315	O	0.722711	0.525175	0.706544
	H316	H	0.711472	0.519338	0.700152
	H317	H	0.730405	0.528727	0.716328
	O318	O	1.204266	0.815241	-0.093360
	H319	H	1.200177	0.806697	-0.076846
	H320	H	1.186309	0.808751	-0.095223
	O321	O	-0.055436	0.971933	1.069805
	H322	H	-0.062907	0.985252	1.082914
	H323	H	-0.045845	0.982575	1.067504
	O324	O	1.169548	-0.170478	1.168520
	H325	H	1.152297	-0.175004	1.172532
	H326	H	1.157412	-0.171413	1.138771
	O327	O	0.348985	0.464171	0.649773
	H328	H	0.356845	0.479083	0.635971
	H329	H	0.343847	0.476813	0.653443
	O330	O	0.199969	1.194192	-0.180356
	H331	H	0.187305	1.168653	-0.164076
	H332	H	0.178798	1.180092	-0.157952
	O333	O	0.460339	0.454651	0.557662
	H334	H	0.445243	0.449289	0.556385
	H335	H	0.464158	0.460155	0.565805
	O336	O	0.313601	0.702823	0.385991
	H337	H	0.325965	0.698502	0.383917
	H338	H	0.319548	0.687879	0.383594
	O339	O	-0.017956	0.788120	0.222949
	H340	H	-0.044529	0.772450	0.241042
	H341	H	-0.043471	0.788560	0.231551
	O342	O	-0.018078	0.799540	-0.051033
	H343	H	-0.013962	0.811126	-0.041006
	H344	H	-0.036119	0.797903	-0.035231
	O345	O	0.304471	0.295655	0.706442
	H346	H	0.270970	0.267580	0.736542
	H347	H	0.299156	0.332790	0.696512
	O348	O	0.289004	0.733183	0.713997
	H349	H	0.300067	0.728372	0.704508
	H350	H	0.291916	0.750368	0.707316
	O351	O	0.229487	-0.046867	0.793916
	H352	H	0.236684	-0.057798	0.772499
	H353	H	0.231846	-0.066272	0.782678
	O354	O	0.984601	-0.024100	0.794745
	H355	H	0.987566	-0.028843	0.791500
	H356	H	0.978568	-0.029172	0.791245
	O357	O	0.561726	0.623599	0.513248
	H358	H	0.557521	0.628094	0.522486
	H359	H	0.579234	0.632821	0.526080
	O360	O	0.551958	0.523112	0.354078
	H361	H	0.565220	0.531800	0.366823
	H362	H	0.552437	0.524949	0.340615
	O363	O	0.403548	0.372494	0.363475
	H364	H	0.402092	0.372858	0.366899
	H365	H	0.410282	0.375120	0.369875
	O366	O	0.807061	0.170914	0.981397
	H367	H	0.783018	0.199516	0.985669
	H368	H	0.810347	0.159324	0.970302
	O369	O	0.087712	0.056581	0.852910
	H370	H	0.083985	0.057638	0.834321
	H371	H	0.082499	0.044028	0.857195
	O372	O	0.146436	1.062402	0.862562
	H373	H	0.141059	1.043629	0.885885
	H374	H	0.143593	1.058391	0.836158
	O375	O	1.215725	-0.079803	0.110065
	H376	H	1.235174	-0.097992	0.107761
	H377	H	1.196217	-0.087654	0.125668
	O378	O	0.717701	0.297197	0.481024
	H379	H	0.726051	0.276855	0.484661
	H380	H	0.703708	0.292678	0.495032
	O381	O	-0.196571	1.201511	-0.196858
	H382	H	-0.226799	1.223184	-0.222398
	H383	H	-0.204668	1.175442	-0.190795
	O384	O	0.388730	0.715482	0.294400
	H385	H	0.403170	0.714520	0.324448
	H386	H	0.376380	0.740090	0.265801
	O387	O	0.143286	1.133480	1.013409
	H388	H	0.154724	1.129195	1.002909
	H389	H	0.126622	1.145623	1.004340
	O390	O	0.030116	1.168696	1.215873
	H391	H	0.047238	1.179772	1.225375
	H392	H	0.062530	1.172532	1.206438
	O393	O	0.893755	0.116214	0.191451
	H394	H	0.904790	0.116940	0.187317
	H395	H	0.902894	0.129480	0.198899
	O396	O	0.386736	0.370388	0.495528
	H397	H	0.413009	0.367015	0.475408
	H398	H	0.379262	0.370069	0.496630
	O399	O	0.509916	0.358797	0.417811
	H400	H	0.509963	0.363205	0.418620
	H401	H	0.509608	0.354802	0.416062
	O402	O	1.113750	0.002712	1.222813
	H403	H	1.108198	-0.006491	1.230561
	H404	H	1.125029	0.012570	1.221198
	O405	O	0.609297	0.377516	0.367792
	H406	H	0.577202	0.368809	0.370401
	H407	H	0.619220	0.366267	0.385468
	O408	O	0.720628	0.712304	0.715891
	H409	H	0.737706	0.697364	0.733391
	H410	H	0.723145	0.727658	0.728201
	O411	O	0.802822	0.797061	0.218545
	H412	H	0.793789	0.830910	0.212471
	H413	H	0.770580	0.775640	0.250738
	O414	O	-0.057870	0.216121	0.062239
	H415	H	-0.048411	0.225820	0.063662
	H416	H	-0.069827	0.212712	0.060763
	O417	O	0.698442	0.316619	0.699415
	H418	H	0.676369	0.334031	0.684147
	H419	H	0.681519	0.339800	0.687154
	O420	O	1.475801	-0.719605	0.730210
	H421	H	1.462027	-0.740841	0.754614
	H422	H	1.436210	-0.721535	0.733946
	O423	O	0.796286	0.788606	0.043258
	H424	H	0.769864	0.772212	0.043443
	H425	H	0.799689	0.787929	0.076688
	O426	O	0.720228	0.707009	0.554205
	H427	H	0.728153	0.705445	0.583341
	H428	H	0.736815	0.719732	0.558412
	O429	O	0.350857	0.583283	0.524572
	H430	H	0.347375	0.577977	0.500139
	H431	H	0.347556	0.598128	0.525269
	O432	O	1.059003	0.193809	0.972659
	H433	H	1.046712	0.206181	0.963203
	H434	H	1.050909	0.187419	0.965555
	O435	O	0.204754	0.060842	0.088082
	H436	H	0.190494	0.053241	0.081572
	H437	H	0.208371	0.047769	0.083803
	O438	O	0.293535	0.352116	0.498124
	H439	H	0.299276	0.346852	0.521854
	H440	H	0.278144	0.332232	0.500196
	O441	O	0.693696	0.692906	0.330394
	H442	H	0.678543	0.683085	0.354098
	H443	H	0.673276	0.678232	0.343821
	O444	O	0.505716	0.594555	0.296459
	H445	H	0.508415	0.598655	0.294963
	H446	H	0.488715	0.592020	0.288018
	O447	O	0.547956	0.721888	0.727891
	H448	H	0.564147	0.737406	0.744725
	H449	H	0.550246	0.726767	0.732441
	O450	O	1.129488	-0.091799	0.049304
	H451	H	1.120437	-0.079002	0.045609
	H452	H	1.120192	-0.096939	0.056987
	O453	O	0.433490	0.307679	0.411489
	H454	H	0.421713	0.304698	0.417513
	H455	H	0.441283	0.321064	0.407221
	O456	O	-0.001481	1.219933	0.826879
	H457	H	-0.027351	1.203455	0.825303
	H458	H	-0.016798	1.240125	0.797872
	O459	O	0.566721	0.408610	0.703654
	H460	H	0.543679	0.411548	0.697726
	H461	H	0.542430	0.404245	0.717539
	O462	O	0.447788	0.658171	0.483923
	H463	H	0.446697	0.636645	0.486212
	H464	H	0.447522	0.642311	0.496173
	O465	O	0.355120	0.549131	0.476687
	H466	H	0.336203	0.559570	0.462558
	H467	H	0.375831	0.543408	0.465757
	O468	O	0.200218	1.200825	0.145563
	H469	H	0.220755	1.201600	0.137927
	H470	H	0.197880	1.191954	0.125836
	O471	O	0.454705	0.566547	0.727191
	H472	H	0.444031	0.578272	0.735724
	H473	H	0.447610	0.571245	0.706728
	O474	O	1.046990	0.867813	0.138406
	H475	H	1.043718	0.865856	0.138271
	H476	H	1.043617	0.861473	0.158536
	O477	O	-0.206191	-0.015331	1.203427
	H478	H	-0.197203	0.007112	1.201983
	H479	H	-0.219077	-0.005978	1.221138
