data_Molecule from HDF5

_cell_length_a		16.270884
_cell_length_b		16.324360
_cell_length_c		16.295516
_cell_angle_alpha	89.993441
_cell_angle_beta	89.951700
_cell_angle_gamma	89.923139
_symmetry_space_group_name_H-M	'P 1'
_symmetry_Int_Tables_number		1

loop_
	_symmetry_equiv_pos_as_xyz
	x,y,z

loop_
	_atom_site_label
	_atom_site_type_symbol
	_atom_site_fract_x
	_atom_site_fract_y
	_atom_site_fract_z
	H0	H	0.401835	0.836864	0.715945
	H1	H	0.598368	0.163961	0.714692
	H2	H	0.599295	0.837051	0.284313
	H3	H	0.401763	0.163309	0.285691
	H4	H	0.713495	0.402956	0.836054
	H5	H	0.713455	0.598226	0.164208
	H6	H	0.286380	0.596634	0.835694
	H7	H	0.285625	0.402564	0.163820
	H8	H	0.836917	0.714882	0.402458
	H9	H	0.164681	0.712914	0.597923
	H10	H	0.835978	0.285852	0.598016
	H11	H	0.163151	0.283839	0.399896
	H12	H	0.835386	0.402232	0.714133
	H13	H	0.163622	0.597618	0.714942
	H14	H	0.835796	0.598259	0.287106
	H15	H	0.163525	0.400979	0.284817
	H16	H	0.400797	0.714881	0.836166
	H17	H	0.597392	0.715340	0.162958
	H18	H	0.597452	0.285976	0.836588
	H19	H	0.400752	0.284952	0.163448
	H20	H	0.714038	0.836096	0.402418
	H21	H	0.713440	0.164168	0.596780
	H22	H	0.287447	0.835856	0.596873
	H23	H	0.284746	0.162326	0.401174
	H24	H	0.901776	0.336305	0.214077
	H25	H	0.097359	0.663290	0.214289
	H26	H	0.097435	0.336512	0.785614
	H27	H	0.900318	0.663307	0.784866
	H28	H	0.214564	0.901339	0.336191
	H29	H	0.215194	0.097613	0.663551
	H30	H	0.786935	0.097176	0.336439
	H31	H	0.786144	0.901260	0.664259
	H32	H	0.335286	0.213409	0.902367
	H33	H	0.663466	0.214766	0.097901
	H34	H	0.335289	0.788399	0.097115
	H35	H	0.663001	0.783718	0.899387
	H36	H	0.336807	0.901605	0.215057
	H37	H	0.664252	0.099122	0.213240
	H38	H	0.336320	0.097939	0.785979
	H39	H	0.664319	0.902791	0.786802
	H40	H	0.901451	0.214237	0.336811
	H41	H	0.099291	0.214998	0.663309
	H42	H	0.098982	0.784862	0.336676
	H43	H	0.902004	0.784797	0.663549
	H44	H	0.214589	0.336108	0.901959
	H45	H	0.213678	0.663566	0.097888
	H46	H	0.786725	0.336037	0.095922
	H47	H	0.784745	0.663642	0.901868
	H48	H	0.412535	0.115630	0.597822
	H49	H	0.590191	0.885255	0.594388
	H50	H	0.601663	0.117097	0.408814
	H51	H	0.394128	0.879633	0.406458
	H52	H	0.592623	0.408302	0.115876
	H53	H	0.590731	0.592729	0.884649
	H54	H	0.404089	0.585458	0.114113
	H55	H	0.408872	0.396246	0.880849
	H56	H	0.116747	0.589591	0.404895
	H57	H	0.884311	0.586863	0.596824
	H58	H	0.115822	0.412918	0.598319
	H59	H	0.883348	0.409625	0.405086
	H60	H	0.118831	0.399307	0.594776
	H61	H	0.881190	0.599586	0.595138
	H62	H	0.117856	0.595820	0.404123
	H63	H	0.882293	0.403428	0.405864
	H64	H	0.415171	0.597366	0.114560
	H65	H	0.593029	0.592777	0.883406
	H66	H	0.591072	0.405392	0.116360
	H67	H	0.397131	0.409435	0.882083
	H68	H	0.592578	0.118069	0.397249
	H69	H	0.596277	0.884571	0.590731
	H70	H	0.409275	0.113213	0.586889
	H71	H	0.415842	0.882608	0.394221
	H72	H	0.901512	0.618576	0.097150
	H73	H	0.093735	0.384565	0.090457
	H74	H	0.097367	0.619277	0.899350
	H75	H	0.905003	0.382554	0.904370
	H76	H	0.102421	0.903263	0.619759
	H77	H	0.087261	0.082464	0.388324
	H78	H	0.913110	0.094173	0.615518
	H79	H	0.899175	0.908927	0.382277
	H80	H	0.618007	0.096325	0.903710
	H81	H	0.382964	0.091089	0.095403
	H82	H	0.613943	0.911932	0.089442
	H83	H	0.385965	0.915069	0.907647
	H84	H	0.617851	0.907220	0.097744
	H85	H	0.381932	0.096681	0.094602
	H86	H	0.616542	0.096820	0.909808
	H87	H	0.381320	0.905029	0.900496
	H88	H	0.903824	0.098012	0.618719
	H89	H	0.086375	0.102508	0.383496
	H90	H	0.093542	0.914891	0.613792
	H91	H	0.913336	0.911196	0.387383
	H92	H	0.085147	0.613288	0.905906
	H93	H	0.095249	0.382601	0.095085
	H94	H	0.911241	0.615510	0.096284
	H95	H	0.909700	0.384976	0.906145
	H96	H	0.401494	0.118382	0.594846
	H97	H	0.596224	0.882729	0.597789
	H98	H	0.587564	0.113614	0.410640
	H99	H	0.414496	0.889131	0.418405
	H100	H	0.594122	0.406134	0.117223
	H101	H	0.592361	0.590873	0.884715
	H102	H	0.399534	0.600570	0.120251
	H103	H	0.414089	0.412287	0.887466
	H104	H	0.116665	0.593386	0.409850
	H105	H	0.885696	0.592829	0.585770
	H106	H	0.113076	0.409049	0.584884
	H107	H	0.884188	0.406697	0.410883
	H108	H	0.904882	0.614567	0.088380
	H109	H	0.090003	0.383882	0.094551
	H110	H	0.097421	0.615342	0.913989
	H111	H	0.904686	0.384947	0.909615
	H112	H	0.087116	0.900579	0.616581
	H113	H	0.104226	0.092163	0.380538
	H114	H	0.904669	0.087841	0.615826
	H115	H	0.909288	0.897830	0.382329
	H116	H	0.616098	0.091388	0.906721
	H117	H	0.384462	0.094240	0.090513
	H118	H	0.617185	0.901938	0.088432
	H119	H	0.383352	0.903359	0.913266
	C120	C	0.378920	0.008056	0.622023
	C121	C	0.622119	0.992320	0.621886
	C122	C	0.622422	0.008352	0.377843
	C123	C	0.379207	0.991318	0.377886
	C124	C	0.621144	0.378376	0.008445
	C125	C	0.620518	0.621233	0.992033
	C126	C	0.377800	0.622261	0.008063
	C127	C	0.378048	0.377962	0.991722
	C128	C	0.008426	0.621401	0.378393
	C129	C	0.992039	0.621141	0.621212
	C130	C	0.007775	0.378691	0.621190
	C131	C	0.991777	0.378240	0.378649
	C132	C	0.877708	0.508262	0.122049
	C133	C	0.121409	0.491582	0.121879
	C134	C	0.121334	0.508000	0.878360
	C135	C	0.877822	0.492085	0.878391
	C136	C	0.122357	0.878077	0.508340
	C137	C	0.121772	0.121102	0.491939
	C138	C	0.878577	0.121705	0.508644
	C139	C	0.878914	0.878283	0.492371
	C140	C	0.508273	0.122151	0.878443
	C141	C	0.491639	0.121941	0.121574
	C142	C	0.508096	0.878944	0.120967
	C143	C	0.491680	0.879016	0.878649
	C144	C	0.381397	0.885228	0.677562
	C145	C	0.619074	0.115318	0.676402
	C146	C	0.619906	0.885534	0.322627
	C147	C	0.381262	0.114443	0.323250
	C148	C	0.675709	0.381786	0.884966
	C149	C	0.675413	0.618849	0.115296
	C150	C	0.323545	0.618321	0.884665
	C151	C	0.323493	0.381418	0.115149
	C152	C	0.885349	0.676581	0.381913
	C153	C	0.115453	0.675865	0.619188
	C154	C	0.884479	0.323563	0.618620
	C155	C	0.114683	0.322518	0.380039
	C156	C	0.884450	0.381325	0.676156
	C157	C	0.115143	0.618370	0.676899
	C158	C	0.885085	0.618805	0.324482
	C159	C	0.114795	0.380753	0.323092
	C160	C	0.380183	0.676952	0.884944
	C161	C	0.618018	0.677165	0.114610
	C162	C	0.618082	0.323883	0.885160
	C163	C	0.380651	0.323278	0.114934
	C164	C	0.677175	0.885206	0.380786
	C165	C	0.676314	0.115326	0.617990
	C166	C	0.324465	0.884953	0.618704
	C167	C	0.323528	0.114187	0.380973
	C168	C	0.880843	0.385144	0.176437
	C169	C	0.118131	0.614726	0.176501
	C170	C	0.118749	0.385130	0.823085
	C171	C	0.880096	0.614788	0.823148
	C172	C	0.176570	0.881285	0.384966
	C173	C	0.177303	0.118474	0.614809
	C174	C	0.824186	0.118202	0.385366
	C175	C	0.823860	0.880861	0.615343
	C176	C	0.384462	0.176056	0.881689
	C177	C	0.614817	0.176661	0.118329
	C178	C	0.384567	0.825102	0.118184
	C179	C	0.614549	0.822628	0.879921
	C180	C	0.385169	0.881857	0.176261
	C181	C	0.615139	0.118833	0.175585
	C182	C	0.384765	0.118724	0.824076
	C183	C	0.615232	0.881678	0.823967
	C184	C	0.881055	0.176342	0.385467
	C185	C	0.120037	0.176847	0.614629
	C186	C	0.119331	0.823460	0.385107
	C187	C	0.881441	0.823109	0.615131
	C188	C	0.176203	0.384834	0.881281
	C189	C	0.175494	0.614869	0.118274
	C190	C	0.823415	0.385108	0.118229
	C191	C	0.822592	0.614911	0.881139
	C192	C	0.401271	0.093551	0.599744
	C193	C	0.600364	0.906219	0.600792
	C194	C	0.600494	0.094167	0.399397
	C195	C	0.401434	0.905714	0.399932
	C196	C	0.599084	0.400157	0.094349
	C197	C	0.598452	0.598813	0.906233
	C198	C	0.399820	0.600805	0.094263
	C199	C	0.400068	0.399568	0.905611
	C200	C	0.094777	0.599488	0.400113
	C201	C	0.905925	0.599456	0.599158
	C202	C	0.093751	0.400527	0.599052
	C203	C	0.905811	0.400177	0.400893
	C204	C	0.899339	0.594281	0.100319
	C205	C	0.099517	0.405747	0.099979
	C206	C	0.099730	0.593943	0.899911
	C207	C	0.899954	0.406095	0.900370
	C208	C	0.100704	0.899660	0.594618
	C209	C	0.099270	0.098873	0.406331
	C210	C	0.900836	0.099838	0.594380
	C211	C	0.900755	0.899659	0.406292
	C212	C	0.594343	0.100900	0.900148
	C213	C	0.405302	0.100239	0.099988
	C214	C	0.594215	0.900601	0.098622
	C215	C	0.405766	0.901265	0.900937
	Zn216	Zn	0.500479	0.000526	0.750666
	Zn217	Zn	0.500586	0.000189	0.249406
	Zn218	Zn	0.749608	0.500099	0.000304
	Zn219	Zn	0.250056	0.499828	-0.000077
	Zn220	Zn	0.001096	0.749658	0.500309
	Zn221	Zn	0.000006	0.249790	0.500130
	Zn222	Zn	-0.000634	0.500191	0.749828
	Zn223	Zn	-0.000081	0.499737	0.250248
	Zn224	Zn	0.499325	0.750534	-0.000388
	Zn225	Zn	0.499442	0.250165	0.000226
	Zn226	Zn	0.750449	-0.000166	0.500085
	Zn227	Zn	0.250590	-0.000531	0.499716
	N228	N	0.414483	0.962853	0.679647
	N229	N	0.586152	0.037761	0.678970
	N230	N	0.586582	0.963110	0.320495
	N231	N	0.415402	0.037267	0.321476
	N232	N	0.677659	0.415012	0.962565
	N233	N	0.677017	0.584730	0.038087
	N234	N	0.322043	0.584960	0.962258
	N235	N	0.321851	0.414753	0.037483
	N236	N	0.963299	0.678437	0.414622
	N237	N	0.038061	0.677309	0.584967
	N238	N	0.962310	0.321873	0.585178
	N239	N	0.037232	0.320919	0.414033
	N240	N	0.961806	0.414908	0.677901
	N241	N	0.037329	0.585381	0.678357
	N242	N	0.962571	0.585053	0.322453
	N243	N	0.037410	0.414766	0.322271
	N244	N	0.413153	0.679554	0.962698
	N245	N	0.584829	0.678799	0.036979
	N246	N	0.584868	0.321675	0.962769
	N247	N	0.413716	0.321055	0.037214
	N248	N	0.678604	0.962391	0.414563
	N249	N	0.678342	0.037849	0.584924
	N250	N	0.322773	0.962135	0.584925
	N251	N	0.322080	0.036741	0.414208
	N252	N	0.913762	0.462647	0.178822
	N253	N	0.085201	0.537063	0.178701
	N254	N	0.085191	0.462618	0.821384
	N255	N	0.913948	0.537512	0.821728
	N256	N	0.178504	0.914502	0.462683
	N257	N	0.178547	0.084471	0.537506
	N258	N	0.822505	0.084914	0.462922
	N259	N	0.822355	0.914602	0.537955
	N260	N	0.462182	0.178265	0.914996
	N261	N	0.536966	0.178622	0.085387
	N262	N	0.462088	0.823183	0.084284
	N263	N	0.536781	0.821046	0.913477
	N264	N	0.462970	0.914568	0.178058
	N265	N	0.537465	0.085724	0.177670
	N266	N	0.462662	0.085923	0.822002
	N267	N	0.537962	0.916019	0.823068
	N268	N	0.914142	0.178750	0.463131
	N269	N	0.085952	0.178351	0.537490
	N270	N	0.086402	0.821166	0.462810
	N271	N	0.915374	0.821540	0.537694
	N272	N	0.178074	0.462191	0.914827
	N273	N	0.177630	0.537371	0.085029
	N274	N	0.821438	0.462740	0.085121
	N275	N	0.821051	0.537515	0.914693
