data_Molecule from HDF5

_cell_length_a		16.490395
_cell_length_b		16.237128
_cell_length_c		16.348324
_cell_angle_alpha	90.174554
_cell_angle_beta	90.043386
_cell_angle_gamma	90.100642
_symmetry_space_group_name_H-M	'P 1'
_symmetry_Int_Tables_number		1

loop_
	_symmetry_equiv_pos_as_xyz
	x,y,z

loop_
	_atom_site_label
	_atom_site_type_symbol
	_atom_site_fract_x
	_atom_site_fract_y
	_atom_site_fract_z
	H0	H	0.393408	0.839407	0.716635
	H1	H	0.599492	0.162149	0.715874
	H2	H	0.597469	0.839058	0.277965
	H3	H	0.392880	0.162534	0.280303
	H4	H	0.719090	0.396500	0.840187
	H5	H	0.718723	0.610687	0.159045
	H6	H	0.276055	0.608946	0.839086
	H7	H	0.277587	0.396416	0.158442
	H8	H	0.837396	0.717638	0.395810
	H9	H	0.157018	0.720495	0.601617
	H10	H	0.836784	0.282601	0.599146
	H11	H	0.155327	0.276733	0.392254
	H12	H	0.838415	0.395072	0.719525
	H13	H	0.157507	0.604163	0.718389
	H14	H	0.838990	0.603440	0.277888
	H15	H	0.156080	0.392421	0.275956
	H16	H	0.397257	0.718675	0.836041
	H17	H	0.598711	0.721664	0.159716
	H18	H	0.601381	0.282018	0.839252
	H19	H	0.394779	0.283180	0.159135
	H20	H	0.716255	0.839139	0.390521
	H21	H	0.717183	0.160224	0.602111
	H22	H	0.276212	0.839895	0.602434
	H23	H	0.275033	0.160285	0.393003
	H24	H	0.895505	0.339169	0.215589
	H25	H	0.099642	0.662634	0.216996
	H26	H	0.102221	0.339071	0.778777
	H27	H	0.897784	0.663108	0.781697
	H28	H	0.218178	0.891776	0.338752
	H29	H	0.218862	0.107210	0.656666
	H30	H	0.775402	0.104110	0.338262
	H31	H	0.774967	0.893115	0.657063
	H32	H	0.338000	0.222423	0.894662
	H33	H	0.655921	0.222896	0.103888
	H34	H	0.337959	0.782270	0.098758
	H35	H	0.657317	0.783866	0.894701
	H36	H	0.338134	0.893970	0.219022
	H37	H	0.654307	0.107576	0.222468
	H38	H	0.337761	0.106341	0.777164
	H39	H	0.655686	0.896696	0.776209
	H40	H	0.893635	0.218751	0.337455
	H41	H	0.101350	0.219475	0.657689
	H42	H	0.096655	0.782455	0.336415
	H43	H	0.896812	0.784180	0.659813
	H44	H	0.219198	0.340532	0.893637
	H45	H	0.216912	0.663462	0.102576
	H46	H	0.772414	0.344406	0.108789
	H47	H	0.780836	0.663733	0.895768
	H48	H	0.398704	0.118111	0.585729
	H49	H	0.592625	0.884506	0.582580
	H50	H	0.581929	0.110475	0.415208
	H51	H	0.413448	0.890694	0.417063
	H52	H	0.588974	0.414204	0.113383
	H53	H	0.588611	0.590467	0.885924
	H54	H	0.408925	0.591791	0.111321
	H55	H	0.403518	0.409802	0.881977
	H56	H	0.110765	0.587806	0.406143
	H57	H	0.885621	0.584380	0.593981
	H58	H	0.113946	0.402667	0.591389
	H59	H	0.884221	0.406372	0.409667
	H60	H	0.107359	0.410664	0.580815
	H61	H	0.881470	0.596276	0.593844
	H62	H	0.112024	0.593190	0.407204
	H63	H	0.887918	0.414306	0.411775
	H64	H	0.406738	0.592813	0.112019
	H65	H	0.590606	0.595033	0.882769
	H66	H	0.585897	0.416963	0.111696
	H67	H	0.406816	0.420115	0.886719
	H68	H	0.592125	0.116147	0.413221
	H69	H	0.587491	0.882381	0.594463
	H70	H	0.412287	0.115527	0.593335
	H71	H	0.396451	0.883056	0.412076
	H72	H	0.912211	0.613229	0.082836
	H73	H	0.088950	0.389021	0.078980
	H74	H	0.082089	0.610715	0.917635
	H75	H	0.908563	0.387680	0.915149
	H76	H	0.090571	0.910609	0.613964
	H77	H	0.079758	0.086670	0.386099
	H78	H	0.903223	0.096816	0.615413
	H79	H	0.908011	0.905609	0.383478
	H80	H	0.609760	0.089831	0.906976
	H81	H	0.384808	0.087045	0.089546
	H82	H	0.605489	0.920669	0.081684
	H83	H	0.383602	0.905865	0.910155
	H84	H	0.611755	0.916959	0.098666
	H85	H	0.381421	0.093992	0.091929
	H86	H	0.609694	0.092295	0.906358
	H87	H	0.386327	0.916094	0.908930
	H88	H	0.899920	0.081592	0.611165
	H89	H	0.088279	0.090750	0.382095
	H90	H	0.085900	0.914063	0.611168
	H91	H	0.900289	0.908522	0.380871
	H92	H	0.099149	0.619548	0.911653
	H93	H	0.096854	0.383365	0.088252
	H94	H	0.902632	0.619152	0.088590
	H95	H	0.904950	0.386046	0.910601
	H96	H	0.410380	0.110593	0.577659
	H97	H	0.579760	0.887111	0.584584
	H98	H	0.584107	0.115545	0.404693
	H99	H	0.409842	0.883503	0.398935
	H100	H	0.584586	0.412968	0.113501
	H101	H	0.593633	0.590424	0.884212
	H102	H	0.406663	0.590324	0.112414
	H103	H	0.414507	0.411032	0.886388
	H104	H	0.110077	0.589722	0.411374
	H105	H	0.885788	0.591488	0.583252
	H106	H	0.109856	0.417146	0.594487
	H107	H	0.884518	0.412775	0.403937
	H108	H	0.913652	0.617295	0.094459
	H109	H	0.083869	0.385590	0.091947
	H110	H	0.084302	0.617642	0.898707
	H111	H	0.911077	0.386901	0.909766
	H112	H	0.084980	0.907695	0.612233
	H113	H	0.088167	0.081067	0.385600
	H114	H	0.914508	0.087896	0.608479
	H115	H	0.906145	0.913602	0.384508
	H116	H	0.609938	0.091870	0.909103
	H117	H	0.384837	0.093479	0.084392
	H118	H	0.612060	0.904119	0.085515
	H119	H	0.382036	0.911247	0.901710
	C120	C	0.375535	0.008855	0.618245
	C121	C	0.618094	0.991340	0.618666
	C122	C	0.617040	0.008152	0.377790
	C123	C	0.374698	0.992038	0.377000
	C124	C	0.618993	0.381679	0.007771
	C125	C	0.620566	0.624391	0.990614
	C126	C	0.376729	0.623273	0.005771
	C127	C	0.376673	0.381186	0.990375
	C128	C	0.005802	0.621173	0.377091
	C129	C	0.989628	0.622119	0.620831
	C130	C	0.005338	0.378211	0.620676
	C131	C	0.989764	0.377703	0.376119
	C132	C	0.876859	0.510670	0.120467
	C133	C	0.120404	0.492489	0.119097
	C134	C	0.119872	0.509361	0.877380
	C135	C	0.877497	0.493236	0.879587
	C136	C	0.118200	0.878402	0.506359
	C137	C	0.117244	0.119579	0.489997
	C138	C	0.874645	0.120532	0.506332
	C139	C	0.874227	0.877616	0.488954
	C140	C	0.505278	0.123722	0.875850
	C141	C	0.488580	0.123344	0.120782
	C142	C	0.505031	0.880702	0.119742
	C143	C	0.488803	0.879699	0.875172
	C144	C	0.374310	0.887935	0.677508
	C145	C	0.618585	0.113322	0.676951
	C146	C	0.617139	0.887018	0.317744
	C147	C	0.373693	0.113446	0.318540
	C148	C	0.679223	0.378449	0.887920
	C149	C	0.679053	0.628098	0.110906
	C150	C	0.316959	0.625953	0.886117
	C151	C	0.317116	0.378428	0.110464
	C152	C	0.885615	0.679095	0.376470
	C153	C	0.109307	0.681132	0.620947
	C154	C	0.884886	0.320942	0.619613
	C155	C	0.108180	0.316706	0.374033
	C156	C	0.885974	0.376985	0.679513
	C157	C	0.109663	0.622930	0.678909
	C158	C	0.886412	0.622055	0.317763
	C159	C	0.108281	0.374327	0.315744
	C160	C	0.377352	0.680757	0.884714
	C161	C	0.619576	0.683659	0.111286
	C162	C	0.620391	0.321764	0.887356
	C163	C	0.375697	0.322275	0.111098
	C164	C	0.675916	0.887149	0.374095
	C165	C	0.677084	0.112426	0.620164
	C166	C	0.315978	0.887907	0.620661
	C167	C	0.315056	0.112497	0.374836
	C168	C	0.876035	0.388388	0.177899
	C169	C	0.119613	0.614257	0.177953
	C170	C	0.121104	0.387834	0.818094
	C171	C	0.877915	0.614799	0.820634
	C172	C	0.177759	0.874741	0.386284
	C173	C	0.177945	0.123742	0.609313
	C174	C	0.815515	0.122492	0.385923
	C175	C	0.815262	0.875501	0.609392
	C176	C	0.385589	0.183131	0.875186
	C177	C	0.608159	0.182983	0.122558
	C178	C	0.385572	0.820989	0.119306
	C179	C	0.609080	0.822159	0.874946
	C180	C	0.385534	0.877272	0.178609
	C181	C	0.607538	0.125712	0.181514
	C182	C	0.385640	0.125368	0.816649
	C183	C	0.608193	0.878584	0.816117
	C184	C	0.874336	0.179279	0.385532
	C185	C	0.119298	0.179864	0.610048
	C186	C	0.117268	0.820406	0.384966
	C187	C	0.875598	0.820850	0.610693
	C188	C	0.179466	0.388401	0.875040
	C189	C	0.177906	0.614604	0.121009
	C190	C	0.814803	0.391055	0.124802
	C191	C	0.819892	0.615017	0.877803
	C192	C	0.400009	0.092820	0.592888
	C193	C	0.593760	0.906593	0.594251
	C194	C	0.592966	0.092284	0.403482
	C195	C	0.399548	0.907698	0.401958
	C196	C	0.593952	0.407205	0.090985
	C197	C	0.597507	0.599172	0.906139
	C198	C	0.400531	0.598889	0.089992
	C199	C	0.401081	0.406353	0.906862
	C200	C	0.089290	0.597128	0.401429
	C201	C	0.905937	0.597727	0.597129
	C202	C	0.088808	0.402720	0.595898
	C203	C	0.906980	0.403486	0.401333
	C204	C	0.902157	0.594600	0.095657
	C205	C	0.096775	0.407936	0.093764
	C206	C	0.095601	0.593754	0.902323
	C207	C	0.901106	0.408910	0.904490
	C208	C	0.094189	0.903570	0.590474
	C209	C	0.092408	0.093659	0.406305
	C210	C	0.898849	0.095923	0.589886
	C211	C	0.897946	0.902130	0.404917
	C212	C	0.588074	0.098629	0.900471
	C213	C	0.405550	0.098693	0.095699
	C214	C	0.588098	0.906529	0.095698
	C215	C	0.405447	0.904026	0.899927
	Zn216	Zn	0.496454	0.001179	0.746731
	Zn217	Zn	0.496164	0.000923	0.249520
	Zn218	Zn	0.748366	0.502716	0.000118
	Zn219	Zn	0.248347	0.502146	-0.001816
	Zn220	Zn	-0.003005	0.750678	0.498395
	Zn221	Zn	-0.002767	0.248810	0.498349
	Zn222	Zn	-0.002333	0.500258	0.750283
	Zn223	Zn	-0.001488	0.500029	0.247262
	Zn224	Zn	0.498371	0.751923	-0.002301
	Zn225	Zn	0.497031	0.252591	-0.000985
	Zn226	Zn	0.746304	-0.000790	0.497640
	Zn227	Zn	0.246147	-0.000241	0.497629
	N228	N	0.410477	0.964093	0.676291
	N229	N	0.582460	0.037031	0.675931
	N230	N	0.581227	0.963191	0.319967
	N231	N	0.410104	0.037325	0.319883
	N232	N	0.678696	0.414885	0.963888
	N233	N	0.679811	0.592099	0.034715
	N234	N	0.316515	0.590960	0.962466
	N235	N	0.317754	0.414622	0.034493
	N236	N	0.960817	0.678503	0.412937
	N237	N	0.033671	0.680620	0.585357
	N238	N	0.960371	0.321229	0.583955
	N239	N	0.033356	0.318865	0.411052
	N240	N	0.962058	0.411667	0.680395
	N241	N	0.034210	0.587056	0.679039
	N242	N	0.962157	0.586925	0.317996
	N243	N	0.033691	0.411695	0.317128
	N244	N	0.414118	0.678966	0.960264
	N245	N	0.583867	0.681409	0.035340
	N246	N	0.583737	0.323394	0.962815
	N247	N	0.411909	0.323619	0.035464
	N248	N	0.676144	0.963620	0.410465
	N249	N	0.676930	0.035510	0.584857
	N250	N	0.316579	0.964140	0.584374
	N251	N	0.315357	0.035872	0.410158
	N252	N	0.914144	0.463721	0.175334
	N253	N	0.084666	0.537204	0.177005
	N254	N	0.084950	0.464104	0.819199
	N255	N	0.912994	0.538027	0.821497
	N256	N	0.178478	0.910079	0.462827
	N257	N	0.176610	0.086923	0.533569
	N258	N	0.815819	0.086456	0.461796
	N259	N	0.814204	0.909921	0.532659
	N260	N	0.460995	0.182559	0.911148
	N261	N	0.533301	0.181509	0.085421
	N262	N	0.460816	0.822966	0.083308
	N263	N	0.533732	0.822580	0.910979
	N264	N	0.460866	0.913452	0.178981
	N265	N	0.532210	0.089544	0.180607
	N266	N	0.460961	0.089358	0.816894
	N267	N	0.532426	0.913570	0.816213
	N268	N	0.910594	0.178210	0.461161
	N269	N	0.082203	0.177323	0.534833
	N270	N	0.081122	0.822338	0.460666
	N271	N	0.911364	0.821828	0.534802
	N272	N	0.178875	0.465055	0.911036
	N273	N	0.178608	0.537930	0.085298
	N274	N	0.815140	0.467904	0.089878
	N275	N	0.819387	0.538557	0.913596
	O276	O	0.523159	0.502764	0.457279
	H277	H	0.539681	0.495091	0.455571
	H278	H	0.535903	0.515998	0.451618
	O279	O	0.554655	0.306454	0.486939
	H280	H	0.557239	0.303744	0.484593
	H281	H	0.546150	0.326857	0.501274
	O282	O	0.463649	0.673424	0.573980
	H283	H	0.452383	0.655912	0.580472
	H284	H	0.465709	0.684433	0.573207
	O285	O	1.022117	0.070503	-0.006152
	H286	H	1.029963	0.085526	-0.027287
	H287	H	0.992670	0.074516	-0.002811
	O288	O	0.055396	0.028835	0.977101
	H289	H	0.071718	0.049835	0.981055
	H290	H	0.052747	0.031176	0.986172
	O291	O	0.678855	0.662988	0.602836
	H292	H	0.682391	0.689305	0.592745
	H293	H	0.670342	0.662958	0.589101
	O294	O	0.344681	0.537742	0.456788
	H295	H	0.334807	0.539456	0.454085
	H296	H	0.355243	0.539440	0.468341
	O297	O	1.025287	1.170110	1.077053
	H298	H	1.026744	1.179553	1.093694
	H299	H	1.011118	1.164067	1.070874
	O300	O	-0.129654	0.089258	0.063721
	H301	H	-0.127650	0.108716	0.043515
	H302	H	-0.152442	0.086795	0.085083
	O303	O	0.431565	0.377050	0.458883
	H304	H	0.430668	0.381199	0.453524
	H305	H	0.430413	0.369388	0.459784
	O306	O	1.194917	0.127319	0.078652
	H307	H	1.159432	0.121387	0.084312
	H308	H	1.206181	0.118372	0.075995
	O309	O	0.678972	0.471835	0.328093
	H310	H	0.696861	0.466118	0.312256
	H311	H	0.678152	0.478227	0.336907
	O312	O	0.806129	0.835945	0.103004
	H313	H	0.787659	0.811539	0.093895
	H314	H	0.825610	0.840076	0.122000
	O315	O	0.462788	0.375259	0.396412
	H316	H	0.467337	0.376674	0.389029
	H317	H	0.479658	0.376551	0.380245
	O318	O	0.412025	0.511333	0.496975
	H319	H	0.396487	0.504522	0.484629
	H320	H	0.408900	0.500496	0.499543
	O321	O	0.785648	0.215343	0.979889
	H322	H	0.780602	0.224603	0.952526
	H323	H	0.772647	0.221816	0.953785
	O324	O	-0.042542	0.093573	0.887761
	H325	H	-0.034973	0.080227	0.885278
	H326	H	-0.054411	0.089694	0.908257
	O327	O	0.532648	0.627267	0.414441
	H328	H	0.529408	0.636970	0.412738
	H329	H	0.539872	0.616265	0.411509
	O330	O	0.388031	0.458191	0.598917
	H331	H	0.385491	0.464956	0.600636
	H332	H	0.384339	0.446259	0.596701
	O333	O	1.177703	0.972468	1.054506
	H334	H	1.155462	0.986619	1.061253
	H335	H	1.179923	0.982657	1.037615
	O336	O	0.338496	0.406513	0.657809
	H337	H	0.332759	0.418788	0.641219
	H338	H	0.346538	0.396037	0.644828
	O339	O	0.865704	-0.029243	0.937863
	H340	H	0.871638	-0.014608	0.934694
	H341	H	0.863944	-0.029340	0.943584
	O342	O	0.042017	1.006088	0.826047
	H343	H	0.038770	1.021342	0.821725
	H344	H	0.060709	0.983713	0.825659
	O345	O	-0.009749	0.966301	1.184278
	H346	H	-0.002187	0.990403	1.191638
	H347	H	-0.025332	0.964371	1.184903
	O348	O	0.463492	0.537320	0.406278
	H349	H	0.454112	0.542636	0.397325
	H350	H	0.451751	0.543727	0.403008
	O351	O	0.073495	-0.070895	-0.081994
	H352	H	0.072646	-0.050862	-0.081670
	H353	H	0.075156	-0.090494	-0.093252
	O354	O	0.837572	0.879572	-0.076982
	H355	H	0.836894	0.867102	-0.061711
	H356	H	0.855259	0.874143	-0.075310
	O357	O	0.146405	1.081405	0.037639
	H358	H	0.157469	1.102132	0.051323
	H359	H	0.150970	1.088271	0.046362
	O360	O	0.505032	0.595059	0.530332
	H361	H	0.505996	0.585817	0.530129
	H362	H	0.513759	0.598754	0.527738
	O363	O	0.350651	0.572178	0.382305
	H364	H	0.336691	0.585860	0.394879
	H365	H	0.345113	0.590824	0.377445
	O366	O	0.370707	0.526849	0.464594
	H367	H	0.376422	0.532026	0.468744
	H368	H	0.358253	0.526982	0.463726
	O369	O	0.349845	0.684012	0.433399
	H370	H	0.333879	0.701122	0.445767
	H371	H	0.360379	0.672710	0.451356
	O372	O	0.525896	0.303011	0.608723
	H373	H	0.521007	0.290238	0.626874
	H374	H	0.516928	0.305515	0.590988
	O375	O	0.516380	0.660827	0.642596
	H376	H	0.503889	0.678442	0.650125
	H377	H	0.513005	0.655691	0.622220
	O378	O	0.488446	0.510975	0.681444
	H379	H	0.478171	0.498834	0.692069
	H380	H	0.488377	0.506413	0.675962
	O381	O	0.587907	0.540382	0.479725
	H382	H	0.591520	0.534076	0.479508
	H383	H	0.586172	0.540728	0.483435
	O384	O	0.103899	0.812826	0.856827
	H385	H	0.107136	0.801079	0.860528
	H386	H	0.114073	0.815553	0.853473
	O387	O	1.153327	0.854197	-0.100186
	H388	H	1.150605	0.856630	-0.092105
	H389	H	1.155475	0.852947	-0.094400
	O390	O	0.583198	0.369831	0.521690
	H391	H	0.590637	0.381054	0.535333
	H392	H	0.581840	0.369166	0.534637
	O393	O	1.055415	0.077737	1.021697
	H394	H	1.037235	0.087362	1.014781
	H395	H	1.066838	0.083987	1.007190
	O396	O	0.201030	1.098883	1.128423
	H397	H	0.211499	1.090744	1.126122
	H398	H	0.212249	1.108020	1.128285
	O399	O	0.672037	0.490538	0.617899
	H400	H	0.685757	0.511265	0.627085
	H401	H	0.667814	0.502032	0.618765
	O402	O	0.890596	-0.001713	1.068897
	H403	H	0.883490	-0.000606	1.089930
	H404	H	0.873024	0.002910	1.053291
	O405	O	-0.200047	-0.096626	0.179926
	H406	H	-0.214522	-0.077691	0.192546
	H407	H	-0.178090	-0.111682	0.181863
	O408	O	0.898461	1.179189	0.842345
	H409	H	0.901140	1.169905	0.839827
	H410	H	0.901251	1.172615	0.837071
	O411	O	0.929376	0.963343	0.110117
	H412	H	0.923750	0.962728	0.103455
	H413	H	0.926081	0.968775	0.105428
	O414	O	-0.062330	-0.077571	0.973873
	H415	H	-0.064839	-0.082515	0.964761
	H416	H	-0.053358	-0.081031	0.980341
	O417	O	0.572844	0.303049	0.421107
	H418	H	0.576277	0.289619	0.450132
	H419	H	0.575882	0.304444	0.410806
	O420	O	0.080612	0.883602	0.054349
	H421	H	0.085206	0.901033	0.064940
	H422	H	0.081364	0.877495	0.055346
	O423	O	1.511514	-0.401925	-0.611774
	H424	H	1.508917	-0.404088	-0.589746
	H425	H	1.525523	-0.403500	-0.616651
	O426	O	-0.088592	0.085776	0.836963
	H427	H	-0.095630	0.067295	0.839494
	H428	H	-0.070802	0.101984	0.823610
	O429	O	0.653983	0.438925	0.479024
	H430	H	0.649058	0.441166	0.488234
	H431	H	0.658974	0.438229	0.485854
