data_Molecule from HDF5

_cell_length_a		16.216888
_cell_length_b		16.334792
_cell_length_c		16.176410
_cell_angle_alpha	89.885423
_cell_angle_beta	89.844023
_cell_angle_gamma	90.160790
_symmetry_space_group_name_H-M	'P 1'
_symmetry_Int_Tables_number		1

loop_
	_symmetry_equiv_pos_as_xyz
	x,y,z

loop_
	_atom_site_label
	_atom_site_type_symbol
	_atom_site_fract_x
	_atom_site_fract_y
	_atom_site_fract_z
	H0	H	0.411380	0.841500	0.704666
	H1	H	0.609280	0.168292	0.703988
	H2	H	0.609138	0.842985	0.274532
	H3	H	0.411886	0.169096	0.273809
	H4	H	0.723992	0.407379	0.825271
	H5	H	0.722027	0.602805	0.154479
	H6	H	0.295690	0.603293	0.825360
	H7	H	0.296545	0.406615	0.155157
	H8	H	0.846534	0.721148	0.389981
	H9	H	0.173621	0.723420	0.591971
	H10	H	0.847635	0.287046	0.593852
	H11	H	0.173148	0.290745	0.389027
	H12	H	0.844799	0.407517	0.703497
	H13	H	0.174758	0.604482	0.704169
	H14	H	0.845565	0.602611	0.277846
	H15	H	0.173718	0.407124	0.276088
	H16	H	0.409498	0.720247	0.825847
	H17	H	0.609126	0.720261	0.152861
	H18	H	0.610996	0.290098	0.826149
	H19	H	0.407975	0.289219	0.154050
	H20	H	0.724268	0.841871	0.392123
	H21	H	0.726037	0.168941	0.588166
	H22	H	0.293744	0.842426	0.589622
	H23	H	0.296768	0.169599	0.390745
	H24	H	0.910732	0.342239	0.206522
	H25	H	0.109559	0.668676	0.205085
	H26	H	0.109287	0.342233	0.774237
	H27	H	0.910606	0.668066	0.773869
	H28	H	0.224200	0.909234	0.324358
	H29	H	0.225170	0.104724	0.654397
	H30	H	0.797382	0.105281	0.325360
	H31	H	0.797026	0.907298	0.653876
	H32	H	0.346640	0.220376	0.889451
	H33	H	0.673217	0.221103	0.089110
	H34	H	0.346597	0.788363	0.091853
	H35	H	0.674067	0.789416	0.888720
	H36	H	0.346520	0.906545	0.205006
	H37	H	0.675354	0.103097	0.200782
	H38	H	0.345886	0.101712	0.776456
	H39	H	0.675562	0.907507	0.776426
	H40	H	0.912155	0.220898	0.326000
	H41	H	0.111818	0.221712	0.653975
	H42	H	0.112090	0.790969	0.325577
	H43	H	0.910149	0.792030	0.653349
	H44	H	0.224199	0.341725	0.890988
	H45	H	0.226934	0.667982	0.091075
	H46	H	0.793228	0.342200	0.091073
	H47	H	0.796293	0.668993	0.891472
	H48	H	0.415110	0.122187	0.584783
	H49	H	0.601172	0.889156	0.586448
	H50	H	0.604272	0.123324	0.391065
	H51	H	0.418915	0.890530	0.399355
	H52	H	0.612466	0.404858	0.112855
	H53	H	0.597718	0.609817	0.869828
	H54	H	0.416858	0.598028	0.107561
	H55	H	0.418822	0.417199	0.873853
	H56	H	0.128949	0.594319	0.387500
	H57	H	0.896258	0.597902	0.577544
	H58	H	0.128822	0.411479	0.584768
	H59	H	0.892083	0.403103	0.406408
	H60	H	0.125444	0.412319	0.577860
	H61	H	0.892240	0.595473	0.586970
	H62	H	0.130186	0.611391	0.399363
	H63	H	0.897523	0.421776	0.403770
	H64	H	0.418901	0.596466	0.106061
	H65	H	0.615456	0.595821	0.868774
	H66	H	0.602732	0.426917	0.103340
	H67	H	0.420656	0.408337	0.872826
	H68	H	0.602671	0.121065	0.397991
	H69	H	0.603321	0.890358	0.578868
	H70	H	0.421872	0.120889	0.584814
	H71	H	0.415840	0.890198	0.397564
	H72	H	0.917164	0.622118	0.088434
	H73	H	0.110779	0.386112	0.084320
	H74	H	0.105443	0.624498	0.887507
	H75	H	0.922064	0.388880	0.894082
	H76	H	0.091180	0.909147	0.604561
	H77	H	0.110124	0.095875	0.372886
	H78	H	0.922679	0.086363	0.603020
	H79	H	0.925676	0.919142	0.375344
	H80	H	0.624655	0.097735	0.904890
	H81	H	0.395167	0.089170	0.081879
	H82	H	0.628921	0.904121	0.079976
	H83	H	0.392887	0.905132	0.902320
	H84	H	0.624740	0.916341	0.076113
	H85	H	0.390059	0.100844	0.088785
	H86	H	0.627924	0.093525	0.892612
	H87	H	0.396822	0.917791	0.901803
	H88	H	0.926893	0.106758	0.607112
	H89	H	0.097332	0.096723	0.374512
	H90	H	0.109833	0.906523	0.610849
	H91	H	0.920365	0.902590	0.369178
	H92	H	0.092570	0.617686	0.900148
	H93	H	0.097589	0.388508	0.090829
	H94	H	0.918519	0.620341	0.081208
	H95	H	0.916528	0.390832	0.903962
	H96	H	0.418294	0.120680	0.579062
	H97	H	0.609014	0.886703	0.583599
	H98	H	0.609092	0.123984	0.396534
	H99	H	0.418704	0.890260	0.395887
	H100	H	0.588586	0.405627	0.105251
	H101	H	0.595086	0.588754	0.876845
	H102	H	0.419071	0.598747	0.107805
	H103	H	0.412825	0.411321	0.871064
	H104	H	0.122267	0.593534	0.408102
	H105	H	0.891586	0.605710	0.583197
	H106	H	0.125224	0.417964	0.582755
	H107	H	0.888526	0.411588	0.389261
	H108	H	0.911815	0.622956	0.083351
	H109	H	0.099752	0.392444	0.076244
	H110	H	0.110730	0.620966	0.905465
	H111	H	0.911017	0.387377	0.894794
	H112	H	0.104601	0.924902	0.604348
	H113	H	0.104486	0.106977	0.369882
	H114	H	0.907230	0.098848	0.611062
	H115	H	0.908628	0.916454	0.369148
	H116	H	0.630556	0.106665	0.895578
	H117	H	0.393842	0.102198	0.075491
	H118	H	0.629108	0.914421	0.088656
	H119	H	0.391509	0.912384	0.890915
	C120	C	0.388789	0.013455	0.611563
	C121	C	0.633122	0.996668	0.611266
	C122	C	0.633352	0.014436	0.367425
	C123	C	0.389057	0.997792	0.368143
	C124	C	0.630680	0.384110	-0.001539
	C125	C	0.631259	0.626707	0.980387
	C126	C	0.388555	0.626673	-0.001555
	C127	C	0.388255	0.383350	0.981597
	C128	C	0.018744	0.627634	0.369347
	C129	C	1.001736	0.628311	0.611763
	C130	C	0.018211	0.384178	0.611408
	C131	C	1.001023	0.384091	0.369690
	C132	C	0.887018	0.513791	0.113092
	C133	C	0.131926	0.497083	0.112478
	C134	C	0.131757	0.513380	0.868571
	C135	C	0.888466	0.496626	0.868759
	C136	C	0.131554	0.885077	0.498000
	C137	C	0.132358	0.128115	0.481472
	C138	C	0.890047	0.126762	0.498332
	C139	C	0.889532	0.884631	0.480599
	C140	C	0.518930	0.126693	0.868658
	C141	C	0.501610	0.126633	0.110270
	C142	C	0.518898	0.882823	0.111303
	C143	C	0.501983	0.883452	0.868673
	C144	C	0.390518	0.890569	0.667042
	C145	C	0.630365	0.119596	0.666542
	C146	C	0.629794	0.891557	0.312729
	C147	C	0.391871	0.120525	0.312361
	C148	C	0.686707	0.386464	0.874707
	C149	C	0.684948	0.623480	0.105017
	C150	C	0.333110	0.624167	0.874727
	C151	C	0.333172	0.385635	0.105519
	C152	C	0.895309	0.682777	0.370854
	C153	C	0.124874	0.684406	0.610816
	C154	C	0.895689	0.326995	0.611889
	C155	C	0.124265	0.328908	0.369982
	C156	C	0.894513	0.386578	0.666741
	C157	C	0.125488	0.625063	0.666695
	C158	C	0.894734	0.623783	0.315140
	C159	C	0.124686	0.386906	0.313970
	C160	C	0.389920	0.682309	0.874921
	C161	C	0.628889	0.681857	0.104284
	C162	C	0.630042	0.328360	0.875025
	C163	C	0.388916	0.327367	0.104974
	C164	C	0.687175	0.891039	0.370932
	C165	C	0.688058	0.120007	0.608484
	C166	C	0.332052	0.891072	0.609860
	C167	C	0.334115	0.120560	0.370013
	C168	C	0.889989	0.390835	0.168574
	C169	C	0.129709	0.619791	0.167520
	C170	C	0.129552	0.390859	0.812462
	C171	C	0.890528	0.619677	0.812658
	C172	C	0.186973	0.888258	0.373919
	C173	C	0.187477	0.125121	0.605224
	C174	C	0.835140	0.125292	0.374479
	C175	C	0.834767	0.887154	0.604597
	C176	C	0.395213	0.181641	0.870055
	C177	C	0.624658	0.182779	0.108709
	C178	C	0.395717	0.826896	0.110769
	C179	C	0.625253	0.827834	0.869302
	C180	C	0.395527	0.885670	0.167068
	C181	C	0.625862	0.124090	0.164206
	C182	C	0.395166	0.123060	0.813646
	C183	C	0.626043	0.886701	0.813588
	C184	C	0.891704	0.183224	0.375064
	C185	C	0.131081	0.183352	0.605008
	C186	C	0.131265	0.829464	0.374454
	C187	C	0.890811	0.829522	0.604203
	C188	C	0.186932	0.390726	0.870386
	C189	C	0.188179	0.619435	0.110632
	C190	C	0.831339	0.390975	0.111301
	C191	C	0.833385	0.619907	0.870714
	C192	C	0.411618	0.099023	0.589257
	C193	C	0.611014	0.910907	0.589404
	C194	C	0.612031	0.100477	0.389125
	C195	C	0.411425	0.912370	0.390870
	C196	C	0.607884	0.405871	0.084769
	C197	C	0.609333	0.604486	0.894039
	C198	C	0.411434	0.604247	0.084727
	C199	C	0.410939	0.405680	0.895061
	C200	C	0.104805	0.606203	0.391746
	C201	C	0.915527	0.606205	0.589249
	C202	C	0.104273	0.406888	0.588409
	C203	C	0.915003	0.405730	0.392859
	C204	C	0.909193	0.599692	0.090875
	C205	C	0.109191	0.411269	0.090348
	C206	C	0.109552	0.598873	0.891016
	C207	C	0.910240	0.411263	0.891037
	C208	C	0.108649	0.907097	0.584094
	C209	C	0.110223	0.106302	0.394834
	C210	C	0.912402	0.104161	0.584696
	C211	C	0.911828	0.906397	0.393723
	C212	C	0.605304	0.105611	0.891265
	C213	C	0.415298	0.104108	0.088429
	C214	C	0.605156	0.905107	0.088374
	C215	C	0.415878	0.905374	0.891509
	Zn216	Zn	0.510920	0.004937	0.740306
	Zn217	Zn	0.510820	0.006103	0.239259
	Zn218	Zn	0.758855	0.505125	-0.010182
	Zn219	Zn	0.260863	0.504756	-0.009962
	Zn220	Zn	0.010798	0.756792	0.489367
	Zn221	Zn	0.010609	0.255565	0.490676
	Zn222	Zn	0.009771	0.505533	0.739691
	Zn223	Zn	0.009866	0.505665	0.241886
	Zn224	Zn	0.510403	0.754721	-0.010704
	Zn225	Zn	0.509332	0.255529	-0.009799
	Zn226	Zn	0.762335	0.005576	0.488994
	Zn227	Zn	0.259953	0.006173	0.489692
	N228	N	0.425091	0.967624	0.668220
	N229	N	0.596913	0.042226	0.668277
	N230	N	0.597108	0.969208	0.310463
	N231	N	0.425157	0.043097	0.310869
	N232	N	0.687209	0.420280	0.952446
	N233	N	0.686573	0.589938	0.027031
	N234	N	0.332380	0.590195	0.952571
	N235	N	0.332754	0.419920	0.027738
	N236	N	0.973418	0.685290	0.403868
	N237	N	0.046942	0.686441	0.577304
	N238	N	0.973807	0.325191	0.578467
	N239	N	0.046397	0.327002	0.404011
	N240	N	0.971832	0.421572	0.666456
	N241	N	0.047952	0.590758	0.667362
	N242	N	0.972315	0.590262	0.314113
	N243	N	0.047033	0.420424	0.313420
	N244	N	0.423682	0.683929	0.952937
	N245	N	0.596175	0.683878	0.025974
	N246	N	0.596034	0.326679	0.953030
	N247	N	0.422811	0.326144	0.026874
	N248	N	0.689347	0.968496	0.404230
	N249	N	0.690111	0.042478	0.574934
	N250	N	0.330931	0.968498	0.576194
	N251	N	0.332340	0.043383	0.404178
	N252	N	0.923964	0.468164	0.169806
	N253	N	0.095538	0.542444	0.168882
	N254	N	0.096099	0.468147	0.811094
	N255	N	0.923934	0.542412	0.811059
	N256	N	0.187408	0.922023	0.451723
	N257	N	0.188478	0.091680	0.527291
	N258	N	0.833926	0.091079	0.452138
	N259	N	0.833768	0.920710	0.526642
	N260	N	0.473177	0.184246	0.903376
	N261	N	0.546432	0.184490	0.076126
	N262	N	0.473566	0.824983	0.076893
	N263	N	0.547318	0.825751	0.903077
	N264	N	0.473168	0.919650	0.167820
	N265	N	0.548328	0.089731	0.165405
	N266	N	0.473077	0.089725	0.812637
	N267	N	0.548346	0.920497	0.813010
	N268	N	0.925272	0.184091	0.453172
	N269	N	0.097703	0.185512	0.526960
	N270	N	0.097432	0.827397	0.452584
	N271	N	0.924402	0.827942	0.525982
	N272	N	0.188319	0.467754	0.904791
	N273	N	0.189736	0.542085	0.077178
	N274	N	0.829412	0.468389	0.077596
	N275	N	0.831674	0.542672	0.904973
	O276	O	1.055312	0.933898	-0.089556
	H277	H	1.064376	0.944992	-0.089361
	H278	H	1.057926	0.933272	-0.097092
	O279	O	0.081399	-0.023553	1.034980
	H280	H	0.073929	-0.015578	1.038459
	H281	H	0.079482	-0.017812	1.035634
	O282	O	0.076951	-0.053003	-0.021288
	H283	H	0.071004	-0.043244	-0.015540
	H284	H	0.077112	-0.063923	-0.024073
	O285	O	0.456873	0.464359	0.556855
	H286	H	0.454881	0.467862	0.557841
	H287	H	0.459572	0.465079	0.557502
	O288	O	-0.027524	-0.038725	-0.043847
	H289	H	-0.019846	-0.048973	-0.045677
	H290	H	-0.029975	-0.037446	-0.046853
	O291	O	-0.013854	0.969949	0.032105
	H292	H	-0.004060	0.965306	0.027858
	H293	H	-0.011698	0.962062	0.042092
	O294	O	0.028493	0.939345	0.040511
	H295	H	0.029538	0.933295	0.029611
	H296	H	0.032556	0.938356	0.048127
	O297	O	0.469193	0.500784	0.479417
	H298	H	0.467439	0.491418	0.486602
	H299	H	0.467703	0.504193	0.480316
	O300	O	0.532697	0.562953	0.490525
	H301	H	0.532026	0.567359	0.485652
	H302	H	0.538455	0.552400	0.483509
	O303	O	1.058946	0.000245	0.960688
	H304	H	1.058108	-0.005627	0.959381
	H305	H	1.063486	0.007109	0.963428
	O306	O	-0.027710	0.998418	0.999120
	H307	H	-0.026598	0.995880	1.001810
	H308	H	-0.026269	0.994036	0.990666
	O309	O	-0.465446	0.528042	1.486208
	H310	H	-0.465767	0.526289	1.494781
	H311	H	-0.467816	0.520903	1.480137
	O312	O	0.021197	-0.019743	0.955903
	H313	H	0.020881	-0.024817	0.959198
	H314	H	0.015349	-0.022493	0.964564
	O315	O	0.436539	0.508488	0.446701
	H316	H	0.438322	0.501935	0.454253
	H317	H	0.436910	0.512202	0.442643
	O318	O	-0.005050	0.008350	0.995999
	H319	H	0.003191	0.003890	0.997212
	H320	H	-0.011739	0.001010	0.990278
	O321	O	1.037897	1.086600	0.940402
	H322	H	1.043878	1.092714	0.940642
	H323	H	1.037315	1.093729	0.937721
	O324	O	-0.066195	-0.983658	0.999332
	H325	H	-0.065171	-0.982513	1.003500
	H326	H	-0.060300	-0.977932	0.997400
	O327	O	1.017045	1.008635	1.020908
	H328	H	1.013493	1.027882	1.020061
	H329	H	0.999600	0.995034	1.006806
	O330	O	0.422988	0.480347	0.505949
	H331	H	0.431414	0.484487	0.503756
	H332	H	0.414575	0.485623	0.503411
	O333	O	0.413633	0.462715	0.507113
	H334	H	0.399746	0.457353	0.514725
	H335	H	0.416319	0.473446	0.508067
	O336	O	0.475399	0.526449	0.463611
	H337	H	0.474918	0.532716	0.460112
	H338	H	0.468612	0.519648	0.454656
	O339	O	0.493723	0.491326	0.409605
	H340	H	0.495089	0.493990	0.412023
	H341	H	0.492694	0.491388	0.405037
	O342	O	0.527375	0.518324	0.492597
	H343	H	0.528380	0.519251	0.483814
	H344	H	0.527016	0.525952	0.503246
	O345	O	0.462065	0.456730	0.449625
	H346	H	0.458757	0.458110	0.444650
	H347	H	0.468411	0.449558	0.447606
