data_Molecule from HDF5

_cell_length_a		16.227849
_cell_length_b		16.195834
_cell_length_c		16.306978
_cell_angle_alpha	90.497780
_cell_angle_beta	90.160790
_cell_angle_gamma	90.321681
_symmetry_space_group_name_H-M	'P 1'
_symmetry_Int_Tables_number		1

loop_
	_symmetry_equiv_pos_as_xyz
	x,y,z

loop_
	_atom_site_label
	_atom_site_type_symbol
	_atom_site_fract_x
	_atom_site_fract_y
	_atom_site_fract_z
	H0	H	0.394191	0.836258	0.712186
	H1	H	0.599508	0.162140	0.718882
	H2	H	0.593140	0.835985	0.282923
	H3	H	0.395844	0.164758	0.287403
	H4	H	0.708863	0.400209	0.837553
	H5	H	0.710586	0.603090	0.163688
	H6	H	0.278207	0.598341	0.837387
	H7	H	0.278425	0.402865	0.163416
	H8	H	0.828974	0.709760	0.405709
	H9	H	0.159248	0.713740	0.600336
	H10	H	0.831058	0.283985	0.598536
	H11	H	0.158145	0.285286	0.400173
	H12	H	0.830801	0.398656	0.714639
	H13	H	0.156826	0.602728	0.718933
	H14	H	0.830396	0.597867	0.284898
	H15	H	0.157160	0.398089	0.283508
	H16	H	0.395480	0.711971	0.836098
	H17	H	0.593042	0.718064	0.164091
	H18	H	0.595359	0.281940	0.839164
	H19	H	0.393800	0.287102	0.164293
	H20	H	0.707586	0.834630	0.400334
	H21	H	0.713112	0.162315	0.602657
	H22	H	0.280636	0.835829	0.596780
	H23	H	0.281066	0.164476	0.401850
	H24	H	0.894062	0.335220	0.212668
	H25	H	0.095266	0.662643	0.218237
	H26	H	0.093036	0.336897	0.783292
	H27	H	0.894184	0.664441	0.787190
	H28	H	0.206728	0.901365	0.336119
	H29	H	0.213462	0.103097	0.663081
	H30	H	0.779178	0.096703	0.337073
	H31	H	0.778156	0.899612	0.663005
	H32	H	0.329768	0.212698	0.902050
	H33	H	0.657600	0.218604	0.102328
	H34	H	0.329363	0.788914	0.095337
	H35	H	0.658353	0.786374	0.902633
	H36	H	0.330240	0.902180	0.212854
	H37	H	0.658261	0.101979	0.216800
	H38	H	0.331736	0.099537	0.782735
	H39	H	0.658139	0.898155	0.784220
	H40	H	0.895627	0.211892	0.336295
	H41	H	0.097176	0.219063	0.662367
	H42	H	0.092592	0.783130	0.337467
	H43	H	0.896443	0.787244	0.665290
	H44	H	0.207226	0.335777	0.900546
	H45	H	0.207448	0.665021	0.100191
	H46	H	0.777257	0.336969	0.098304
	H47	H	0.780533	0.665472	0.904184
	H48	H	0.409270	0.115346	0.589751
	H49	H	0.584524	0.881699	0.592253
	H50	H	0.585426	0.112393	0.419034
	H51	H	0.393121	0.880707	0.405923
	H52	H	0.584986	0.407082	0.116815
	H53	H	0.586476	0.586774	0.887369
	H54	H	0.400877	0.590476	0.115234
	H55	H	0.400779	0.401418	0.882380
	H56	H	0.112163	0.597215	0.411066
	H57	H	0.876479	0.591357	0.597805
	H58	H	0.110081	0.411742	0.592497
	H59	H	0.877630	0.408603	0.404434
	H60	H	0.110196	0.411842	0.592973
	H61	H	0.875864	0.596883	0.596217
	H62	H	0.107856	0.587042	0.411644
	H63	H	0.876332	0.403549	0.405163
	H64	H	0.404879	0.598158	0.115984
	H65	H	0.582233	0.598309	0.883739
	H66	H	0.589870	0.412352	0.117152
	H67	H	0.396042	0.410622	0.884048
	H68	H	0.598796	0.120088	0.407806
	H69	H	0.586903	0.882447	0.590004
	H70	H	0.401462	0.117086	0.590352
	H71	H	0.404567	0.881126	0.397891
	H72	H	0.909543	0.617682	0.101633
	H73	H	0.079819	0.385498	0.086656
	H74	H	0.086533	0.618504	0.906868
	H75	H	0.899174	0.383936	0.909055
	H76	H	0.082211	0.911641	0.614114
	H77	H	0.092877	0.094111	0.382719
	H78	H	0.899348	0.089777	0.617321
	H79	H	0.888474	0.899208	0.379788
	H80	H	0.609331	0.087483	0.910944
	H81	H	0.376351	0.095190	0.097313
	H82	H	0.612823	0.899853	0.087183
	H83	H	0.375973	0.904354	0.902676
	H84	H	0.607472	0.918993	0.087827
	H85	H	0.377033	0.095673	0.091887
	H86	H	0.612027	0.092379	0.905878
	H87	H	0.378017	0.906759	0.908049
	H88	H	0.908981	0.087913	0.612670
	H89	H	0.088174	0.086660	0.385537
	H90	H	0.089254	0.900078	0.619178
	H91	H	0.903539	0.917379	0.388545
	H92	H	0.084420	0.616831	0.909802
	H93	H	0.094343	0.381233	0.088294
	H94	H	0.904523	0.614581	0.086495
	H95	H	0.898697	0.381711	0.904148
	H96	H	0.406109	0.118198	0.597540
	H97	H	0.587766	0.881399	0.593028
	H98	H	0.580413	0.116919	0.400748
	H99	H	0.405340	0.885438	0.411001
	H100	H	0.583052	0.414012	0.115292
	H101	H	0.593806	0.594861	0.881660
	H102	H	0.396774	0.597499	0.118934
	H103	H	0.406535	0.409540	0.887596
	H104	H	0.112138	0.591267	0.402987
	H105	H	0.877870	0.592245	0.592370
	H106	H	0.110876	0.410894	0.593082
	H107	H	0.878546	0.406002	0.409307
	H108	H	0.893926	0.620221	0.097396
	H109	H	0.084057	0.380103	0.100848
	H110	H	0.088254	0.617250	0.910695
	H111	H	0.903449	0.384063	0.906026
	H112	H	0.096480	0.913363	0.617901
	H113	H	0.083787	0.094741	0.384347
	H114	H	0.907073	0.098065	0.616252
	H115	H	0.912281	0.894302	0.384746
	H116	H	0.610571	0.095304	0.912797
	H117	H	0.377784	0.091330	0.093944
	H118	H	0.614168	0.909821	0.104686
	H119	H	0.378147	0.910647	0.903420
	C120	C	0.374932	0.008563	0.620552
	C121	C	0.617300	0.990309	0.622058
	C122	C	0.616090	0.007789	0.379127
	C123	C	0.373029	0.991410	0.377743
	C124	C	0.615206	0.380289	0.009179
	C125	C	0.616419	0.623444	0.992262
	C126	C	0.372090	0.622932	0.009047
	C127	C	0.371683	0.378684	0.992307
	C128	C	0.002325	0.619938	0.380052
	C129	C	0.985373	0.622722	0.624339
	C130	C	0.002582	0.380295	0.621393
	C131	C	0.985761	0.377230	0.377560
	C132	C	0.872907	0.509126	0.122166
	C133	C	0.115394	0.491206	0.121709
	C134	C	0.114761	0.508902	0.879361
	C135	C	0.872119	0.491997	0.879121
	C136	C	0.116757	0.878474	0.508944
	C137	C	0.118458	0.123009	0.491537
	C138	C	0.874589	0.120252	0.508147
	C139	C	0.872491	0.876122	0.492305
	C140	C	0.502559	0.120538	0.879581
	C141	C	0.485607	0.123952	0.123707
	C142	C	0.502749	0.880626	0.120780
	C143	C	0.485723	0.877740	0.876775
	C144	C	0.374713	0.885168	0.674931
	C145	C	0.617923	0.113087	0.680124
	C146	C	0.613458	0.884715	0.321844
	C147	C	0.375588	0.115343	0.324011
	C148	C	0.670976	0.380701	0.886470
	C149	C	0.672575	0.622944	0.114962
	C150	C	0.316807	0.618976	0.885862
	C151	C	0.316029	0.382000	0.114841
	C152	C	0.878408	0.673400	0.383857
	C153	C	0.109119	0.677787	0.621777
	C154	C	0.879838	0.322754	0.618712
	C155	C	0.109039	0.322608	0.379861
	C156	C	0.879632	0.379862	0.676689
	C157	C	0.108217	0.622115	0.680475
	C158	C	0.879183	0.617472	0.323978
	C159	C	0.108428	0.378689	0.321772
	C160	C	0.374998	0.675738	0.885455
	C161	C	0.614002	0.679968	0.115189
	C162	C	0.614516	0.321859	0.887166
	C163	C	0.373687	0.324334	0.115191
	C164	C	0.670303	0.884004	0.380456
	C165	C	0.674617	0.113327	0.622260
	C166	C	0.318106	0.885152	0.617588
	C167	C	0.318559	0.115416	0.381338
	C168	C	0.873703	0.384679	0.175858
	C169	C	0.114668	0.614023	0.179193
	C170	C	0.112662	0.385419	0.822545
	C171	C	0.874330	0.615559	0.824964
	C172	C	0.170130	0.880401	0.385509
	C173	C	0.175252	0.122676	0.614008
	C174	C	0.817730	0.117250	0.385717
	C175	C	0.816457	0.879182	0.614710
	C176	C	0.379226	0.175398	0.881348
	C177	C	0.608911	0.180328	0.122182
	C178	C	0.378799	0.825860	0.117119
	C179	C	0.609283	0.823126	0.881024
	C180	C	0.379251	0.882300	0.175378
	C181	C	0.608994	0.122273	0.179064
	C182	C	0.380306	0.119089	0.821785
	C183	C	0.609085	0.878772	0.822090
	C184	C	0.875748	0.174440	0.385288
	C185	C	0.117247	0.180329	0.613876
	C186	C	0.113372	0.821583	0.386132
	C187	C	0.875612	0.823505	0.616060
	C188	C	0.169941	0.385249	0.880407
	C189	C	0.170436	0.615222	0.120308
	C190	C	0.815909	0.385420	0.119093
	C191	C	0.817848	0.616068	0.883116
	C192	C	0.398678	0.094456	0.598890
	C193	C	0.593338	0.904255	0.598571
	C194	C	0.594456	0.094167	0.402364
	C195	C	0.394726	0.904982	0.398739
	C196	C	0.592607	0.404091	0.094500
	C197	C	0.594072	0.600200	0.906481
	C198	C	0.394263	0.601766	0.094643
	C199	C	0.394318	0.400564	0.906834
	C200	C	0.088605	0.598429	0.402088
	C201	C	0.899014	0.600193	0.602152
	C202	C	0.088359	0.404359	0.599280
	C203	C	0.899733	0.399330	0.399953
	C204	C	0.895912	0.595090	0.101438
	C205	C	0.092688	0.404508	0.098533
	C206	C	0.092740	0.595191	0.902293
	C207	C	0.894153	0.405715	0.900197
	C208	C	0.095565	0.901443	0.594904
	C209	C	0.094825	0.099135	0.406296
	C210	C	0.898258	0.098360	0.593291
	C211	C	0.894873	0.897384	0.406639
	C212	C	0.588371	0.097984	0.903066
	C213	C	0.399491	0.100937	0.101002
	C214	C	0.588970	0.902908	0.099381
	C215	C	0.399748	0.900426	0.898436
	Zn216	Zn	0.495336	-0.000792	0.749223
	Zn217	Zn	0.494622	0.000800	0.250386
	Zn218	Zn	0.744797	0.501185	0.000821
	Zn219	Zn	0.243426	0.500714	0.000250
	Zn220	Zn	-0.005149	0.749167	0.501743
	Zn221	Zn	-0.004929	0.250568	0.499751
	Zn222	Zn	-0.006565	0.500541	0.750746
	Zn223	Zn	-0.005795	0.498400	0.249937
	Zn224	Zn	0.494072	0.751406	0.000120
	Zn225	Zn	0.494215	0.250654	0.000845
	Zn226	Zn	0.745181	-0.000995	0.500355
	Zn227	Zn	0.246313	0.000142	0.499958
	N228	N	0.409304	0.962895	0.677014
	N229	N	0.583150	0.035380	0.680061
	N230	N	0.580635	0.962845	0.320814
	N231	N	0.408750	0.037313	0.321699
	N232	N	0.671582	0.416333	0.963458
	N233	N	0.674034	0.588503	0.037550
	N234	N	0.314782	0.586855	0.963663
	N235	N	0.314818	0.415156	0.037487
	N236	N	0.955918	0.674829	0.418229
	N237	N	0.031539	0.678185	0.587613
	N238	N	0.957182	0.322934	0.584955
	N239	N	0.031760	0.321847	0.414121
	N240	N	0.957189	0.414869	0.678400
	N241	N	0.030137	0.588764	0.682366
	N242	N	0.957290	0.584892	0.321622
	N243	N	0.030741	0.412078	0.320329
	N244	N	0.408784	0.678329	0.962900
	N245	N	0.579890	0.680437	0.037800
	N246	N	0.580605	0.321549	0.964291
	N247	N	0.407601	0.322289	0.037929
	N248	N	0.671947	0.961747	0.415364
	N249	N	0.674384	0.036001	0.586909
	N250	N	0.318059	0.962990	0.584495
	N251	N	0.316754	0.037364	0.414014
	N252	N	0.908556	0.462303	0.177862
	N253	N	0.081153	0.535948	0.179958
	N254	N	0.079117	0.463363	0.821847
	N255	N	0.907585	0.537546	0.822387
	N256	N	0.172235	0.915107	0.462694
	N257	N	0.175912	0.087705	0.536833
	N258	N	0.817122	0.084314	0.463110
	N259	N	0.814565	0.911299	0.536857
	N260	N	0.456481	0.176623	0.916469
	N261	N	0.530843	0.181691	0.088759
	N262	N	0.456455	0.824676	0.083667
	N263	N	0.531403	0.821988	0.914025
	N264	N	0.457408	0.915509	0.177673
	N265	N	0.531242	0.088226	0.180317
	N266	N	0.458143	0.085839	0.820631
	N267	N	0.531351	0.911918	0.819378
	N268	N	0.910363	0.176775	0.462528
	N269	N	0.082820	0.180854	0.536685
	N270	N	0.080723	0.820303	0.464066
	N271	N	0.909675	0.821334	0.538913
	N272	N	0.171324	0.463058	0.914901
	N273	N	0.171123	0.537498	0.085499
	N274	N	0.814972	0.463549	0.086611
	N275	N	0.816440	0.538231	0.916005
	O276	O	-0.107649	0.012662	0.069256
	H277	H	-0.111205	0.000781	0.071040
	H278	H	-0.114684	0.009674	0.064531
	O279	O	0.540584	0.406010	0.486624
	H280	H	0.547238	0.409472	0.490057
	H281	H	0.550770	0.413638	0.481427
	O282	O	0.544337	0.439408	0.527199
	H283	H	0.546381	0.427777	0.531960
	H284	H	0.541317	0.436501	0.535948
	O285	O	0.434595	1.659053	0.488751
	H286	H	0.431844	1.676948	0.500602
	H287	H	0.449464	1.650827	0.485205
	O288	O	0.456176	0.453707	0.545852
	H289	H	0.463992	0.442341	0.550168
	H290	H	0.451236	0.460070	0.549818
	O291	O	0.954982	0.917291	0.960656
	H292	H	0.949782	0.904318	0.948144
	H293	H	0.961388	0.915142	0.966059
	O294	O	0.994227	0.867934	1.021687
	H295	H	1.001588	0.862508	1.019318
	H296	H	0.998698	0.877514	1.023046
	O297	O	0.998956	0.127593	0.904274
	H298	H	0.999138	0.134480	0.910313
	H299	H	1.008564	0.124982	0.917522
	O300	O	0.449232	0.559888	0.465646
	H301	H	0.460233	0.567607	0.480262
	H302	H	0.455028	0.554564	0.466602
	O303	O	1.104316	0.062211	-0.011313
	H304	H	1.109291	0.059544	-0.013810
	H305	H	1.097350	0.065556	-0.009105
	O306	O	0.023131	0.976074	0.977929
	H307	H	0.037198	0.969402	0.976245
	H308	H	0.016950	0.976050	0.964579
	O309	O	0.631765	0.483079	0.417680
	H310	H	0.632176	0.473501	0.411597
	H311	H	0.628116	0.477229	0.416034
	O312	O	1.011533	-0.072557	1.067923
	H313	H	1.005172	-0.078337	1.059637
	H314	H	1.014620	-0.082245	1.068441
	O315	O	0.529345	0.487411	0.552198
	H316	H	0.536468	0.483520	0.558639
	H317	H	0.536624	0.487162	0.539276
	O318	O	0.418952	0.483481	0.530646
	H319	H	0.425258	0.481808	0.541765
	H320	H	0.417367	0.480782	0.531206
	O321	O	0.974621	1.093372	0.995323
	H322	H	0.989738	1.093042	1.003495
	H323	H	0.978553	1.095253	0.999310
	O324	O	0.492762	0.463056	0.601703
	H325	H	0.508195	0.473512	0.586884
	H326	H	0.482492	0.473164	0.612676
	O327	O	0.550105	0.497076	0.522738
	H328	H	0.540695	0.488222	0.517838
	H329	H	0.542534	0.495127	0.522682
	O330	O	1.086174	0.032810	0.923006
	H331	H	1.083946	0.047715	0.932548
	H332	H	1.087462	0.026410	0.929961
	O333	O	0.923896	1.018881	-0.078713
	H334	H	0.921707	1.024661	-0.083781
	H335	H	0.925890	1.033231	-0.083741
	O336	O	0.477654	0.482643	0.498360
	H337	H	0.479983	0.481065	0.499631
	H338	H	0.480408	0.489281	0.484496
	O339	O	0.398660	0.599428	0.545530
	H340	H	0.393475	0.590540	0.544505
	H341	H	0.411311	0.606335	0.552280
	O342	O	-0.030750	1.038796	-0.078686
	H343	H	-0.024894	1.047011	-0.070560
	H344	H	-0.041488	1.037079	-0.091105
	O345	O	-0.008255	0.008065	-0.092141
	H346	H	-0.022245	0.019533	-0.095480
	H347	H	0.001435	-0.004082	-0.091567
	O348	O	0.457964	0.549391	0.524065
	H349	H	0.455802	0.549494	0.516366
	H350	H	0.454218	0.541386	0.533071
	O351	O	0.552816	0.378713	0.546326
	H352	H	0.556291	0.381082	0.536895
	H353	H	0.558225	0.389410	0.551746
	O354	O	0.451117	0.459815	0.478176
	H355	H	0.442949	0.452672	0.466105
	H356	H	0.448698	0.468582	0.477374
	O357	O	0.600705	0.574287	0.492575
	H358	H	0.595539	0.583303	0.489452
	H359	H	0.597186	0.580198	0.502155
	O360	O	-0.052546	-0.008965	-0.018866
	H361	H	-0.053438	-0.010112	-0.027191
	H362	H	-0.037748	-0.013677	-0.026293
	O363	O	0.481598	0.479838	0.484956
	H364	H	0.468270	0.473321	0.474262
	H365	H	0.471781	0.464209	0.488191
	O366	O	0.000072	-0.105807	0.981209
	H367	H	-0.005823	-0.104210	0.976192
	H368	H	-0.009026	-0.106439	0.981727
	O369	O	0.464752	0.382686	0.481851
	H370	H	0.474460	0.385089	0.480584
	H371	H	0.454273	0.380697	0.476748
