data_Molecule from HDF5

_cell_length_a		16.378656
_cell_length_b		16.310458
_cell_length_c		16.010062
_cell_angle_alpha	89.268462
_cell_angle_beta	89.933437
_cell_angle_gamma	89.704761
_symmetry_space_group_name_H-M	'P 1'
_symmetry_Int_Tables_number		1

loop_
	_symmetry_equiv_pos_as_xyz
	x,y,z

loop_
	_atom_site_label
	_atom_site_type_symbol
	_atom_site_fract_x
	_atom_site_fract_y
	_atom_site_fract_z
	H0	H	0.400559	0.836767	0.718913
	H1	H	0.592062	0.164157	0.710836
	H2	H	0.592704	0.833844	0.290715
	H3	H	0.399381	0.163171	0.287418
	H4	H	0.712570	0.399376	0.834732
	H5	H	0.711788	0.596459	0.164775
	H6	H	0.281710	0.603115	0.833826
	H7	H	0.281625	0.397146	0.164321
	H8	H	0.835279	0.718326	0.394448
	H9	H	0.158444	0.713440	0.598127
	H10	H	0.834048	0.279087	0.602901
	H11	H	0.157636	0.278515	0.397083
	H12	H	0.833593	0.399073	0.715308
	H13	H	0.160758	0.591285	0.709671
	H14	H	0.833613	0.597022	0.283935
	H15	H	0.161503	0.403353	0.288612
	H16	H	0.395415	0.719490	0.836103
	H17	H	0.594503	0.708106	0.167637
	H18	H	0.596998	0.287278	0.835068
	H19	H	0.399094	0.286215	0.165985
	H20	H	0.714616	0.836857	0.398963
	H21	H	0.714473	0.160310	0.602525
	H22	H	0.279929	0.836166	0.606800
	H23	H	0.276171	0.159878	0.395162
	H24	H	0.902979	0.334245	0.214352
	H25	H	0.092296	0.662874	0.209362
	H26	H	0.093188	0.333143	0.790009
	H27	H	0.898734	0.661386	0.781461
	H28	H	0.212991	0.898461	0.335057
	H29	H	0.208133	0.094817	0.665078
	H30	H	0.780101	0.101098	0.334660
	H31	H	0.782808	0.895710	0.665726
	H32	H	0.334617	0.219938	0.898144
	H33	H	0.658888	0.214578	0.101204
	H34	H	0.333983	0.780217	0.105668
	H35	H	0.657974	0.782847	0.901146
	H36	H	0.331217	0.903073	0.215493
	H37	H	0.660140	0.093596	0.213292
	H38	H	0.332593	0.099438	0.786316
	H39	H	0.659535	0.902814	0.787591
	H40	H	0.895560	0.214235	0.333556
	H41	H	0.094086	0.208052	0.664665
	H42	H	0.093911	0.790280	0.331620
	H43	H	0.897023	0.780529	0.663511
	H44	H	0.215633	0.336790	0.899194
	H45	H	0.212520	0.660976	0.098795
	H46	H	0.781580	0.335453	0.103099
	H47	H	0.777804	0.660230	0.893119
	H48	H	0.397241	0.117164	0.594561
	H49	H	0.596012	0.882099	0.589071
	H50	H	0.588667	0.113798	0.411795
	H51	H	0.406227	0.883916	0.413232
	H52	H	0.582653	0.407942	0.116471
	H53	H	0.584515	0.584078	0.885001
	H54	H	0.396044	0.580789	0.117749
	H55	H	0.410665	0.415274	0.883729
	H56	H	0.115417	0.598195	0.401113
	H57	H	0.886003	0.587809	0.578590
	H58	H	0.108946	0.408224	0.586441
	H59	H	0.885928	0.415168	0.412849
	H60	H	0.114447	0.401952	0.601548
	H61	H	0.881080	0.583362	0.596928
	H62	H	0.111603	0.596330	0.409753
	H63	H	0.877767	0.405219	0.398225
	H64	H	0.413700	0.586788	0.114773
	H65	H	0.582118	0.600123	0.880949
	H66	H	0.592124	0.398039	0.122137
	H67	H	0.407191	0.404008	0.879811
	H68	H	0.592990	0.116383	0.406281
	H69	H	0.590519	0.881113	0.600850
	H70	H	0.404111	0.113945	0.589413
	H71	H	0.399430	0.881773	0.413842
	H72	H	0.895075	0.616279	0.089225
	H73	H	0.090950	0.377576	0.107785
	H74	H	0.081933	0.610818	0.909397
	H75	H	0.910487	0.383564	0.906636
	H76	H	0.079887	0.898951	0.616862
	H77	H	0.084808	0.092235	0.380318
	H78	H	0.903571	0.091904	0.619429
	H79	H	0.909722	0.915822	0.384867
	H80	H	0.612299	0.088063	0.899013
	H81	H	0.379934	0.089075	0.098962
	H82	H	0.611267	0.899029	0.091176
	H83	H	0.380637	0.909597	0.910196
	H84	H	0.610580	0.906920	0.095303
	H85	H	0.377896	0.102303	0.093560
	H86	H	0.614720	0.104178	0.907434
	H87	H	0.380559	0.908012	0.911781
	H88	H	0.900370	0.083965	0.617517
	H89	H	0.091042	0.090087	0.379073
	H90	H	0.096283	0.897636	0.622494
	H91	H	0.906036	0.900610	0.379073
	H92	H	0.098399	0.616782	0.909495
	H93	H	0.080015	0.387223	0.085853
	H94	H	0.906952	0.615304	0.094854
	H95	H	0.901180	0.384100	0.917097
	H96	H	0.395726	0.115452	0.585790
	H97	H	0.583907	0.886623	0.591545
	H98	H	0.585554	0.114309	0.405445
	H99	H	0.402923	0.880798	0.407161
	H100	H	0.596083	0.411830	0.118888
	H101	H	0.596262	0.593507	0.879140
	H102	H	0.400451	0.598092	0.122349
	H103	H	0.398881	0.413882	0.880786
	H104	H	0.111859	0.589350	0.403258
	H105	H	0.877583	0.601468	0.589967
	H106	H	0.113001	0.391458	0.588046
	H107	H	0.880392	0.397098	0.414657
	H108	H	0.904283	0.611963	0.081855
	H109	H	0.104973	0.379596	0.086162
	H110	H	0.089128	0.617175	0.894977
	H111	H	0.897576	0.378597	0.903970
	H112	H	0.090217	0.912090	0.616697
	H113	H	0.086209	0.085953	0.382179
	H114	H	0.908986	0.086376	0.616334
	H115	H	0.894754	0.912459	0.378560
	H116	H	0.607638	0.089273	0.916389
	H117	H	0.383211	0.092234	0.085527
	H118	H	0.613030	0.900308	0.099820
	H119	H	0.381856	0.909740	0.911776
	C120	C	0.372673	0.007828	0.622180
	C121	C	0.618167	0.990918	0.621969
	C122	C	0.617889	0.006984	0.379315
	C123	C	0.373929	0.989781	0.379955
	C124	C	0.618782	0.377843	0.009279
	C125	C	0.617115	0.619914	0.991501
	C126	C	0.374358	0.620613	0.008981
	C127	C	0.376392	0.380011	0.990617
	C128	C	0.005786	0.622987	0.374849
	C129	C	0.988563	0.618859	0.618493
	C130	C	0.004613	0.372551	0.622102
	C131	C	0.988495	0.376803	0.378777
	C132	C	0.874745	0.506602	0.120242
	C133	C	0.118934	0.490022	0.120622
	C134	C	0.118753	0.506945	0.877075
	C135	C	0.874010	0.489662	0.876992
	C136	C	0.117939	0.876101	0.508773
	C137	C	0.115707	0.117158	0.490209
	C138	C	0.874551	0.118752	0.508240
	C139	C	0.874724	0.878152	0.490272
	C140	C	0.504465	0.123572	0.878318
	C141	C	0.488017	0.121688	0.122288
	C142	C	0.503768	0.875102	0.124965
	C143	C	0.488113	0.879517	0.880948
	C144	C	0.378197	0.885232	0.680464
	C145	C	0.614116	0.114574	0.675014
	C146	C	0.614431	0.883515	0.326407
	C147	C	0.377034	0.113397	0.323654
	C148	C	0.674550	0.379834	0.884391
	C149	C	0.673406	0.616705	0.115854
	C150	C	0.318949	0.622117	0.883933
	C151	C	0.320054	0.378791	0.115196
	C152	C	0.883517	0.679456	0.375161
	C153	C	0.110445	0.674351	0.617348
	C154	C	0.882704	0.317439	0.621748
	C155	C	0.110210	0.319338	0.379042
	C156	C	0.882127	0.377287	0.677513
	C157	C	0.111648	0.613572	0.672908
	C158	C	0.882697	0.619029	0.320454
	C159	C	0.111765	0.380923	0.324695
	C160	C	0.375381	0.680031	0.885093
	C161	C	0.614943	0.672432	0.116986
	C162	C	0.617162	0.323970	0.884424
	C163	C	0.378526	0.323627	0.116053
	C164	C	0.675135	0.884983	0.380444
	C165	C	0.674936	0.112615	0.621042
	C166	C	0.318021	0.885150	0.624886
	C167	C	0.316192	0.111998	0.377785
	C168	C	0.880386	0.383365	0.176744
	C169	C	0.113853	0.613652	0.173037
	C170	C	0.115171	0.382955	0.825309
	C171	C	0.877131	0.612493	0.819364
	C172	C	0.174342	0.878914	0.384048
	C173	C	0.170395	0.114380	0.615447
	C174	C	0.818089	0.119733	0.383997
	C175	C	0.820162	0.877099	0.615533
	C176	C	0.383105	0.180915	0.878815
	C177	C	0.610382	0.176228	0.120959
	C178	C	0.381818	0.819724	0.124347
	C179	C	0.609667	0.822112	0.881542
	C180	C	0.380651	0.880455	0.179342
	C181	C	0.610960	0.115857	0.176636
	C182	C	0.381960	0.121352	0.822778
	C183	C	0.610661	0.882242	0.825492
	C184	C	0.875502	0.176226	0.383489
	C185	C	0.113927	0.171182	0.615076
	C186	C	0.114976	0.825286	0.382311
	C187	C	0.877218	0.819984	0.614581
	C188	C	0.176068	0.384747	0.879563
	C189	C	0.173917	0.612616	0.118330
	C190	C	0.819908	0.384112	0.121600
	C191	C	0.817259	0.612033	0.875176
	C192	C	0.392995	0.093423	0.597228
	C193	C	0.596495	0.905434	0.600342
	C194	C	0.595586	0.092750	0.401393
	C195	C	0.396376	0.904312	0.404303
	C196	C	0.596834	0.399439	0.096612
	C197	C	0.594281	0.598970	0.904505
	C198	C	0.396776	0.595792	0.095716
	C199	C	0.398970	0.403935	0.904021
	C200	C	0.090795	0.601238	0.398012
	C201	C	0.903688	0.597162	0.595322
	C202	C	0.090059	0.394137	0.598781
	C203	C	0.903309	0.399241	0.401819
	C204	C	0.895858	0.592445	0.095651
	C205	C	0.098272	0.403797	0.099427
	C206	C	0.096436	0.592737	0.898382
	C207	C	0.896435	0.404184	0.901824
	C208	C	0.095585	0.896719	0.596046
	C209	C	0.093714	0.095838	0.402977
	C210	C	0.897581	0.094522	0.595416
	C211	C	0.896842	0.902600	0.403312
	C212	C	0.589625	0.100545	0.901064
	C213	C	0.402492	0.100667	0.099329
	C214	C	0.589336	0.895943	0.102072
	C215	C	0.402838	0.902547	0.904406
	Zn216	Zn	0.496218	0.001082	0.750093
	Zn217	Zn	0.495756	-0.001455	0.251730
	Zn218	Zn	0.744910	0.498663	-0.000925
	Zn219	Zn	0.247536	0.499109	-0.001021
	Zn220	Zn	-0.003599	0.750766	0.497753
	Zn221	Zn	-0.003861	0.244951	0.499096
	Zn222	Zn	-0.003210	0.496925	0.748831
	Zn223	Zn	-0.002838	0.498785	0.248977
	Zn224	Zn	0.495958	0.747482	0.001590
	Zn225	Zn	0.497051	0.252490	0.000502
	Zn226	Zn	0.747004	-0.000985	0.500535
	Zn227	Zn	0.243540	-0.002341	0.500033
	N228	N	0.411472	0.962527	0.679052
	N229	N	0.579484	0.037896	0.675712
	N230	N	0.579721	0.960551	0.325408
	N231	N	0.412343	0.036658	0.325012
	N232	N	0.675716	0.412532	0.963156
	N233	N	0.674915	0.584710	0.036893
	N234	N	0.317962	0.586045	0.962069
	N235	N	0.318795	0.413372	0.036583
	N236	N	0.960856	0.682116	0.408528
	N237	N	0.033013	0.677708	0.584322
	N238	N	0.959957	0.314441	0.588023
	N239	N	0.032525	0.316543	0.411934
	N240	N	0.959006	0.410870	0.678011
	N241	N	0.034902	0.579822	0.673679
	N242	N	0.959539	0.584780	0.319870
	N243	N	0.035214	0.416153	0.324618
	N244	N	0.409209	0.679023	0.963701
	N245	N	0.580817	0.674750	0.038519
	N246	N	0.583276	0.322294	0.963027
	N247	N	0.412988	0.324196	0.037636
	N248	N	0.677428	0.962795	0.412580
	N249	N	0.677590	0.034887	0.588809
	N250	N	0.314374	0.962315	0.589521
	N251	N	0.314039	0.034134	0.412065
	N252	N	0.913404	0.460719	0.176064
	N253	N	0.080597	0.536442	0.174669
	N254	N	0.080290	0.459867	0.823600
	N255	N	0.911895	0.535443	0.820520
	N256	N	0.176376	0.909965	0.463521
	N257	N	0.171694	0.081483	0.536752
	N258	N	0.817365	0.084745	0.462748
	N259	N	0.818455	0.912485	0.537082
	N260	N	0.460439	0.182662	0.912203
	N261	N	0.533008	0.179723	0.087593
	N262	N	0.459497	0.815923	0.091428
	N263	N	0.532433	0.820402	0.915435
	N264	N	0.457448	0.913958	0.179898
	N265	N	0.533866	0.082579	0.177543
	N266	N	0.458518	0.086250	0.822222
	N267	N	0.533830	0.916891	0.824691
	N268	N	0.909963	0.175631	0.461829
	N269	N	0.080527	0.172861	0.536292
	N270	N	0.080326	0.823567	0.460707
	N271	N	0.910258	0.820300	0.535631
	N272	N	0.178412	0.462874	0.910981
	N273	N	0.177089	0.534774	0.086240
	N274	N	0.816468	0.461797	0.086903
	N275	N	0.815151	0.534593	0.910081
	O276	O	-0.097609	-0.048900	-0.052148
	H277	H	-0.095279	-0.039482	-0.061792
	H278	H	-0.098748	-0.049478	-0.050832
	O279	O	0.441512	0.448431	0.585003
	H280	H	0.440305	0.465623	0.581829
	H281	H	0.433931	0.452651	0.579302
	O282	O	0.504135	0.428436	0.521490
	H283	H	0.489565	0.434145	0.517672
	H284	H	0.490132	0.429107	0.537821
	O285	O	0.424131	1.627271	0.582087
	H286	H	0.425277	1.631312	0.578301
	H287	H	0.428477	1.627849	0.582638
	O288	O	0.481114	0.561519	0.611948
	H289	H	0.478814	0.555369	0.617833
	H290	H	0.480496	0.563708	0.612527
	O291	O	1.013100	0.991018	0.954246
	H292	H	1.015023	0.990736	0.957949
	H293	H	1.013354	0.991275	0.945453
	O294	O	0.881707	1.035373	0.993598
	H295	H	0.880418	1.038620	1.000445
	H296	H	0.866880	1.035700	1.000512
	O297	O	1.001782	-0.049584	0.964260
	H298	H	1.006270	-0.050637	0.963563
	H299	H	0.996417	-0.038644	0.963976
	O300	O	0.473806	0.504692	0.399922
	H301	H	0.481696	0.502334	0.400979
	H302	H	0.476322	0.516836	0.383413
	O303	O	0.972026	0.011107	-0.015224
	H304	H	0.984106	0.013303	-0.014371
	H305	H	0.973693	0.020614	-0.023646
	O306	O	0.052999	1.050480	1.040900
	H307	H	0.060088	1.049927	1.035171
	H308	H	0.046637	1.053105	1.044180
	O309	O	0.493455	0.515447	0.484134
	H310	H	0.505697	0.509386	0.488341
	H311	H	0.503639	0.514712	0.487557
	O312	O	0.880276	-0.002630	1.003938
	H313	H	0.887345	-0.003784	1.009962
	H314	H	0.868325	-0.011522	1.014870
	O315	O	0.377730	0.621689	0.397099
	H316	H	0.385252	0.635799	0.403650
	H317	H	0.362026	0.632478	0.394732
	O318	O	0.525496	0.472974	0.604650
	H319	H	0.534327	0.461803	0.599188
	H320	H	0.520196	0.475363	0.601178
	O321	O	0.902928	0.970688	1.075193
	H322	H	0.905911	0.964474	1.085735
	H323	H	0.892237	0.967528	1.074967
	O324	O	0.538100	0.509296	0.457697
	H325	H	0.543002	0.486347	0.460300
	H326	H	0.541473	0.506285	0.460773
	O327	O	0.577523	0.471982	0.454059
	H328	H	0.578279	0.460153	0.457024
	H329	H	0.564709	0.471581	0.453258
	O330	O	0.999351	-0.081050	0.937112
	H331	H	0.999584	-0.094815	0.947567
	H332	H	1.003489	-0.075501	0.927632
	O333	O	0.987697	0.977209	-0.061699
	H334	H	0.999609	0.982172	-0.060026
	H335	H	0.985776	0.974137	-0.060254
	O336	O	0.510949	0.500861	0.588483
	H337	H	0.516171	0.493128	0.602386
	H338	H	0.499917	0.495820	0.591307
	O339	O	0.473209	0.583976	0.556221
	H340	H	0.471300	0.583014	0.555917
	H341	H	0.469579	0.582144	0.544686
	O342	O	-0.017474	0.952572	-0.010491
	H343	H	-0.025801	0.949994	-0.016811
	H344	H	-0.022632	0.948199	-0.003045
	O345	O	0.084314	0.026420	0.019427
	H346	H	0.084730	0.022924	0.014719
	H347	H	0.080604	0.025193	0.020608
	O348	O	0.546496	0.483660	0.453802
	H349	H	0.554625	0.492547	0.450665
	H350	H	0.558899	0.491886	0.449083
	O351	O	0.546931	0.599690	0.433794
	H352	H	0.546487	0.606791	0.418935
	H353	H	0.543633	0.600486	0.442244
	O354	O	0.538482	0.455823	0.566775
	H355	H	0.539465	0.445604	0.563670
	H356	H	0.534592	0.453197	0.568215
	O357	O	0.435336	0.447236	0.451019
	H358	H	0.436264	0.457321	0.459253
	H359	H	0.438916	0.433318	0.455972
	O360	O	-0.050014	-0.085755	0.043105
	H361	H	-0.046346	-0.091110	0.041648
	H362	H	-0.045220	-0.090208	0.035480
	O363	O	0.524068	0.543725	0.411387
	H364	H	0.522083	0.559379	0.409935
	H365	H	0.521287	0.532309	0.412056
	O366	O	0.045883	0.024142	0.954664
	H367	H	0.046244	0.011631	0.951114
	H368	H	0.035245	0.023904	0.940229
	O369	O	0.471963	0.480729	0.490029
	H370	H	0.475819	0.476462	0.484927
	H371	H	0.471898	0.483290	0.490830
