data_Molecule from HDF5

_cell_length_a		16.339120
_cell_length_b		16.286597
_cell_length_c		16.227561
_cell_angle_alpha	90.060715
_cell_angle_beta	89.677570
_cell_angle_gamma	89.665110
_symmetry_space_group_name_H-M	'P 1'
_symmetry_Int_Tables_number		1

loop_
	_symmetry_equiv_pos_as_xyz
	x,y,z

loop_
	_atom_site_label
	_atom_site_type_symbol
	_atom_site_fract_x
	_atom_site_fract_y
	_atom_site_fract_z
	H0	H	0.402353	0.851291	0.711812
	H1	H	0.594938	0.180475	0.711520
	H2	H	0.598296	0.851948	0.284963
	H3	H	0.401251	0.179719	0.285418
	H4	H	0.715512	0.415533	0.833390
	H5	H	0.712246	0.614257	0.161299
	H6	H	0.283716	0.616334	0.834576
	H7	H	0.282270	0.416673	0.161003
	H8	H	0.835627	0.732728	0.399836
	H9	H	0.162327	0.729422	0.594894
	H10	H	0.834795	0.303393	0.595912
	H11	H	0.162104	0.300295	0.396867
	H12	H	0.835389	0.419949	0.712674
	H13	H	0.161797	0.613546	0.711882
	H14	H	0.834475	0.614696	0.284915
	H15	H	0.162112	0.417843	0.281837
	H16	H	0.400284	0.731421	0.834486
	H17	H	0.594764	0.728484	0.162839
	H18	H	0.599026	0.300692	0.833372
	H19	H	0.399813	0.302411	0.161821
	H20	H	0.716408	0.853261	0.397990
	H21	H	0.712171	0.180152	0.596215
	H22	H	0.283092	0.852821	0.598715
	H23	H	0.283488	0.179285	0.399549
	H24	H	0.901423	0.351847	0.212530
	H25	H	0.095460	0.679947	0.211126
	H26	H	0.097229	0.351597	0.783549
	H27	H	0.899711	0.680228	0.784630
	H28	H	0.215144	0.916229	0.334033
	H29	H	0.209953	0.113834	0.662566
	H30	H	0.784639	0.116417	0.333404
	H31	H	0.784434	0.919179	0.662235
	H32	H	0.335352	0.230965	0.901043
	H33	H	0.662362	0.229799	0.095786
	H34	H	0.335228	0.803143	0.097803
	H35	H	0.661487	0.799493	0.897955
	H36	H	0.334904	0.919563	0.213174
	H37	H	0.662750	0.111772	0.210433
	H38	H	0.335007	0.115378	0.785101
	H39	H	0.662401	0.916773	0.782081
	H40	H	0.902075	0.229975	0.332717
	H41	H	0.094924	0.229877	0.662005
	H42	H	0.097937	0.801997	0.333371
	H43	H	0.898261	0.801909	0.661365
	H44	H	0.216334	0.353112	0.897175
	H45	H	0.211572	0.678926	0.096518
	H46	H	0.784184	0.351442	0.096321
	H47	H	0.781823	0.678809	0.898067
	H48	H	0.412270	0.128422	0.587318
	H49	H	0.588124	0.902038	0.585110
	H50	H	0.588106	0.129995	0.410956
	H51	H	0.407424	0.899829	0.408172
	H52	H	0.596137	0.427831	0.114142
	H53	H	0.588082	0.615470	0.879850
	H54	H	0.404320	0.612327	0.116183
	H55	H	0.411369	0.420025	0.880947
	H56	H	0.109243	0.594776	0.407554
	H57	H	0.885009	0.608656	0.586998
	H58	H	0.114386	0.424175	0.591691
	H59	H	0.887034	0.435374	0.405083
	H60	H	0.115854	0.419427	0.591179
	H61	H	0.882349	0.607576	0.594631
	H62	H	0.119851	0.611503	0.388754
	H63	H	0.878338	0.418495	0.394568
	H64	H	0.401650	0.607682	0.115796
	H65	H	0.598342	0.606977	0.878751
	H66	H	0.584288	0.423986	0.112192
	H67	H	0.403287	0.422042	0.879112
	H68	H	0.599319	0.135021	0.405513
	H69	H	0.598744	0.899365	0.587833
	H70	H	0.394843	0.133062	0.585637
	H71	H	0.404238	0.898787	0.406937
	H72	H	0.905108	0.631361	0.093890
	H73	H	0.091486	0.401771	0.082582
	H74	H	0.088882	0.631616	0.903641
	H75	H	0.903529	0.395624	0.895680
	H76	H	0.079193	0.929525	0.609028
	H77	H	0.089453	0.110389	0.381234
	H78	H	0.903195	0.111729	0.614950
	H79	H	0.909864	0.921594	0.380765
	H80	H	0.616004	0.114132	0.907476
	H81	H	0.384160	0.104218	0.094842
	H82	H	0.615446	0.917464	0.089181
	H83	H	0.385734	0.924231	0.911564
	H84	H	0.613157	0.924661	0.088666
	H85	H	0.379930	0.115525	0.097432
	H86	H	0.612176	0.103573	0.907024
	H87	H	0.383829	0.929036	0.903564
	H88	H	0.903521	0.109784	0.614646
	H89	H	0.095949	0.110469	0.378826
	H90	H	0.091310	0.909197	0.618450
	H91	H	0.904139	0.924202	0.380099
	H92	H	0.091228	0.631609	0.907182
	H93	H	0.098306	0.397147	0.091223
	H94	H	0.905457	0.630409	0.088366
	H95	H	0.916013	0.402909	0.906679
	H96	H	0.403568	0.134709	0.601415
	H97	H	0.590374	0.899578	0.595646
	H98	H	0.588863	0.133470	0.398214
	H99	H	0.407381	0.899451	0.405065
	H100	H	0.592927	0.416009	0.116154
	H101	H	0.586806	0.602572	0.883961
	H102	H	0.406468	0.607860	0.113677
	H103	H	0.408547	0.428282	0.883600
	H104	H	0.114681	0.620950	0.413826
	H105	H	0.881617	0.614669	0.590845
	H106	H	0.113744	0.421614	0.586929
	H107	H	0.883428	0.416248	0.415133
	H108	H	0.900490	0.633158	0.090459
	H109	H	0.086069	0.399293	0.093406
	H110	H	0.093628	0.633122	0.904090
	H111	H	0.899630	0.400304	0.913103
	H112	H	0.103754	0.931386	0.615988
	H113	H	0.093173	0.105063	0.381424
	H114	H	0.905296	0.110594	0.613920
	H115	H	0.908777	0.927920	0.382847
	H116	H	0.617091	0.108286	0.897616
	H117	H	0.384083	0.113382	0.086331
	H118	H	0.615717	0.921872	0.094763
	H119	H	0.381272	0.919929	0.904312
	C120	C	0.375853	0.024136	0.620778
	C121	C	0.619691	1.008423	0.618565
	C122	C	0.621421	0.024712	0.376132
	C123	C	0.377622	1.007537	0.377784
	C124	C	0.620757	0.393839	0.005708
	C125	C	0.619267	0.636640	0.989473
	C126	C	0.376033	0.638707	0.006911
	C127	C	0.378160	0.395239	0.989441
	C128	C	0.006623	0.638163	0.375805
	C129	C	0.990424	0.638564	0.619437
	C130	C	0.006865	0.394402	0.618924
	C131	C	0.990615	0.394346	0.375597
	C132	C	0.875677	0.523759	0.119689
	C133	C	0.119435	0.507536	0.117980
	C134	C	0.120472	0.524033	0.875830
	C135	C	0.877008	0.507675	0.876380
	C136	C	0.120707	0.894423	0.506151
	C137	C	0.119705	0.137084	0.489526
	C138	C	0.876587	0.138735	0.505570
	C139	C	0.878342	0.896316	0.489558
	C140	C	0.506844	0.137668	0.876334
	C141	C	0.490702	0.138367	0.120633
	C142	C	0.506768	0.894388	0.120012
	C143	C	0.490945	0.894905	0.876781
	C144	C	0.380908	0.900556	0.674729
	C145	C	0.615983	0.131597	0.673638
	C146	C	0.618975	0.901128	0.321830
	C147	C	0.380546	0.131006	0.323320
	C148	C	0.677053	0.395694	0.882299
	C149	C	0.674056	0.634234	0.112746
	C150	C	0.321359	0.636845	0.883527
	C151	C	0.321374	0.397377	0.112373
	C152	C	0.884082	0.694485	0.378488
	C153	C	0.113392	0.692500	0.616117
	C154	C	0.883811	0.340862	0.616393
	C155	C	0.113292	0.338611	0.377025
	C156	C	0.883913	0.398471	0.674422
	C157	C	0.113269	0.634611	0.673769
	C158	C	0.883591	0.635648	0.321673
	C159	C	0.113383	0.396797	0.319737
	C160	C	0.379440	0.693791	0.883407
	C161	C	0.615794	0.691221	0.113383
	C162	C	0.619870	0.338082	0.882520
	C163	C	0.379586	0.340329	0.112731
	C164	C	0.677630	0.901721	0.378046
	C165	C	0.674198	0.131487	0.616343
	C166	C	0.321497	0.901288	0.618629
	C167	C	0.322194	0.130796	0.380054
	C168	C	0.879976	0.400438	0.174493
	C169	C	0.115684	0.630899	0.172971
	C170	C	0.117894	0.400709	0.821138
	C171	C	0.879365	0.631062	0.821907
	C172	C	0.176929	0.896071	0.382889
	C173	C	0.173064	0.134395	0.613344
	C174	C	0.822110	0.136653	0.382335
	C175	C	0.822137	0.898561	0.613068
	C176	C	0.384160	0.193264	0.880081
	C177	C	0.613788	0.191826	0.116410
	C178	C	0.383955	0.840412	0.118234
	C179	C	0.613243	0.838458	0.877967
	C180	C	0.383841	0.898426	0.175516
	C181	C	0.613835	0.133755	0.173771
	C182	C	0.383814	0.135665	0.822661
	C183	C	0.613570	0.896584	0.820446
	C184	C	0.880614	0.193049	0.382040
	C185	C	0.115975	0.192143	0.612951
	C186	C	0.118651	0.839281	0.382643
	C187	C	0.879336	0.840667	0.612893
	C188	C	0.177410	0.401632	0.877018
	C189	C	0.174168	0.630358	0.116704
	C190	C	0.821455	0.400539	0.117255
	C191	C	0.820730	0.630437	0.878476
	C192	C	0.397201	0.110047	0.598159
	C193	C	0.598691	0.922486	0.596117
	C194	C	0.598785	0.110649	0.398295
	C195	C	0.399875	0.921583	0.400056
	C196	C	0.597936	0.416073	0.091797
	C197	C	0.597502	0.614905	0.903181
	C198	C	0.397736	0.615885	0.092878
	C199	C	0.401034	0.417190	0.903418
	C200	C	0.092352	0.615567	0.397041
	C201	C	0.904957	0.616702	0.597313
	C202	C	0.092674	0.415597	0.596597
	C203	C	0.905036	0.416952	0.398274
	C204	C	0.897184	0.609470	0.097458
	C205	C	0.098221	0.421646	0.095660
	C206	C	0.097843	0.609902	0.898440
	C207	C	0.899640	0.421644	0.898702
	C208	C	0.098124	0.916874	0.592123
	C209	C	0.099000	0.115025	0.402853
	C210	C	0.897654	0.116977	0.592112
	C211	C	0.900966	0.918297	0.403490
	C212	C	0.592892	0.115245	0.897739
	C213	C	0.404750	0.117202	0.099299
	C214	C	0.592562	0.915299	0.097579
	C215	C	0.405647	0.917712	0.899755
	Zn216	Zn	0.498583	0.016399	0.748123
	Zn217	Zn	0.498911	0.015707	0.249207
	Zn218	Zn	0.748016	0.515370	-0.002796
	Zn219	Zn	0.248775	0.516160	-0.002446
	Zn220	Zn	-0.001165	0.767058	0.497816
	Zn221	Zn	-0.000998	0.265661	0.497271
	Zn222	Zn	-0.001224	0.516254	0.747914
	Zn223	Zn	-0.001383	0.516110	0.247112
	Zn224	Zn	0.498368	0.765583	-0.001638
	Zn225	Zn	0.499129	0.266082	-0.002311
	Zn226	Zn	0.748826	0.016644	0.497414
	Zn227	Zn	0.248298	0.016121	0.498368
	N228	N	0.413790	0.978244	0.676261
	N229	N	0.582835	0.054241	0.675019
	N230	N	0.584826	0.978597	0.320558
	N231	N	0.414213	0.053407	0.321684
	N232	N	0.677591	0.429651	0.959893
	N233	N	0.676412	0.601012	0.034751
	N234	N	0.319191	0.603160	0.961191
	N235	N	0.320634	0.430987	0.034565
	N236	N	0.961458	0.696147	0.411292
	N237	N	0.035840	0.695114	0.583298
	N238	N	0.961201	0.338208	0.582800
	N239	N	0.035912	0.337046	0.411060
	N240	N	0.961332	0.431455	0.675927
	N241	N	0.035909	0.601984	0.676170
	N242	N	0.960823	0.601245	0.319893
	N243	N	0.036248	0.430906	0.318913
	N244	N	0.412577	0.695022	0.961127
	N245	N	0.582511	0.692730	0.035647
	N246	N	0.585282	0.336932	0.960077
	N247	N	0.414237	0.338936	0.035383
	N248	N	0.679091	0.979502	0.411184
	N249	N	0.676784	0.053748	0.583023
	N250	N	0.318397	0.979053	0.585830
	N251	N	0.320463	0.053063	0.413402
	N252	N	0.912615	0.478032	0.176348
	N253	N	0.082332	0.553422	0.173974
	N254	N	0.083529	0.478034	0.820085
	N255	N	0.913762	0.553666	0.820506
	N256	N	0.178320	0.929645	0.460775
	N257	N	0.175387	0.100756	0.535569
	N258	N	0.819410	0.103369	0.460358
	N259	N	0.821659	0.932626	0.535540
	N260	N	0.461778	0.194556	0.912836
	N261	N	0.536158	0.194893	0.084241
	N262	N	0.461146	0.837977	0.084206
	N263	N	0.536243	0.837287	0.912391
	N264	N	0.461270	0.931278	0.176701
	N265	N	0.536315	0.101216	0.176559
	N266	N	0.461022	0.101839	0.820240
	N267	N	0.536356	0.931123	0.819754
	N268	N	0.913621	0.194521	0.459773
	N269	N	0.083627	0.193796	0.534864
	N270	N	0.084253	0.838280	0.460155
	N271	N	0.913690	0.839195	0.535264
	N272	N	0.179145	0.479477	0.910033
	N273	N	0.176529	0.552863	0.083112
	N274	N	0.818854	0.478141	0.083764
	N275	N	0.819561	0.552848	0.911703
	O276	O	0.462019	0.460908	0.491804
	H277	H	0.471264	0.476971	0.486176
	H278	H	0.468070	0.465183	0.495773
	O279	O	0.060914	-0.072222	-0.047275
	H280	H	0.065944	-0.078976	-0.041783
	H281	H	0.064865	-0.071841	-0.041140
	O282	O	1.012407	-0.029769	0.954379
	H283	H	1.023773	-0.032055	0.945144
	H284	H	1.008823	-0.029386	0.944571
	O285	O	1.028138	-0.036556	0.941660
	H286	H	1.028041	-0.037656	0.938438
	H287	H	1.026154	-0.044186	0.941035
	O288	O	0.941693	-0.041827	0.000886
	H289	H	0.935245	-0.045771	0.001365
	H290	H	0.935856	-0.042915	-0.005282
	O291	O	-0.479688	0.394705	-0.503848
	H292	H	-0.495716	0.386403	-0.516274
	H293	H	-0.489557	0.383634	-0.481431
	O294	O	0.562345	0.460245	0.497169
	H295	H	0.555449	0.449537	0.497426
	H296	H	0.577703	0.460099	0.492836
	O297	O	0.036479	0.967025	-0.012288
	H298	H	0.034853	0.970671	-0.011368
	H299	H	0.038554	0.964800	-0.011664
	O300	O	1.003181	-0.007104	0.976813
	H301	H	1.009593	0.002062	0.976116
	H302	H	1.002779	-0.010278	0.973410
	O303	O	0.458711	0.399776	0.470792
	H304	H	0.448025	0.404175	0.471983
	H305	H	0.457473	0.401969	0.461957
	O306	O	-0.031182	0.934083	1.020728
	H307	H	-0.033980	0.933983	1.018591
	H308	H	-0.029509	0.930860	1.032435
	O309	O	0.510250	0.494643	0.493402
	H310	H	0.514970	0.490202	0.496099
	H311	H	0.521039	0.485689	0.490390
