data_Molecule from HDF5

_cell_length_a		16.285098
_cell_length_b		16.311946
_cell_length_c		16.277066
_cell_angle_alpha	90.053401
_cell_angle_beta	89.997486
_cell_angle_gamma	90.091873
_symmetry_space_group_name_H-M	'P 1'
_symmetry_Int_Tables_number		1

loop_
	_symmetry_equiv_pos_as_xyz
	x,y,z

loop_
	_atom_site_label
	_atom_site_type_symbol
	_atom_site_fract_x
	_atom_site_fract_y
	_atom_site_fract_z
	H0	H	0.401745	0.836697	0.713229
	H1	H	0.598263	0.163838	0.714186
	H2	H	0.597907	0.835888	0.285404
	H3	H	0.403555	0.163763	0.286007
	H4	H	0.714523	0.401778	0.836098
	H5	H	0.713859	0.597599	0.163392
	H6	H	0.286752	0.596961	0.836096
	H7	H	0.286125	0.401663	0.163971
	H8	H	0.836122	0.713709	0.403051
	H9	H	0.163364	0.714891	0.598143
	H10	H	0.836437	0.286447	0.598444
	H11	H	0.163305	0.285059	0.401467
	H12	H	0.836520	0.402752	0.713751
	H13	H	0.163487	0.598717	0.713737
	H14	H	0.836218	0.598551	0.285512
	H15	H	0.164087	0.403535	0.286527
	H16	H	0.401889	0.713785	0.836262
	H17	H	0.597860	0.713631	0.164380
	H18	H	0.598650	0.285362	0.836239
	H19	H	0.401965	0.285554	0.163927
	H20	H	0.713971	0.836524	0.402064
	H21	H	0.714403	0.163577	0.598346
	H22	H	0.284794	0.837352	0.597557
	H23	H	0.286419	0.163708	0.401951
	H24	H	0.902683	0.336987	0.213840
	H25	H	0.099444	0.663316	0.214268
	H26	H	0.098600	0.336594	0.784549
	H27	H	0.903376	0.663470	0.787000
	H28	H	0.213599	0.902156	0.335694
	H29	H	0.213967	0.098243	0.663626
	H30	H	0.787140	0.097758	0.336100
	H31	H	0.786497	0.902510	0.663430
	H32	H	0.336437	0.215153	0.901235
	H33	H	0.663311	0.213394	0.098771
	H34	H	0.336548	0.785570	0.098126
	H35	H	0.664050	0.785804	0.901973
	H36	H	0.335715	0.901739	0.213308
	H37	H	0.663993	0.096349	0.212627
	H38	H	0.335641	0.096921	0.786879
	H39	H	0.664038	0.902713	0.786217
	H40	H	0.901753	0.214470	0.337302
	H41	H	0.097767	0.214402	0.664542
	H42	H	0.098408	0.785324	0.336759
	H43	H	0.902487	0.786814	0.663820
	H44	H	0.214281	0.336106	0.901720
	H45	H	0.214904	0.663902	0.097833
	H46	H	0.785664	0.336949	0.097949
	H47	H	0.785140	0.663091	0.901900
	H48	H	0.405572	0.115042	0.586581
	H49	H	0.588354	0.884770	0.594200
	H50	H	0.606083	0.118110	0.414304
	H51	H	0.412891	0.885478	0.402734
	H52	H	0.597712	0.413881	0.116462
	H53	H	0.593708	0.612108	0.878078
	H54	H	0.405862	0.593351	0.116483
	H55	H	0.400564	0.408513	0.882273
	H56	H	0.114450	0.589883	0.410665
	H57	H	0.883444	0.600580	0.585019
	H58	H	0.118417	0.396706	0.589778
	H59	H	0.884512	0.406931	0.409086
	H60	H	0.112752	0.414424	0.585623
	H61	H	0.886245	0.583212	0.592635
	H62	H	0.117475	0.591450	0.401922
	H63	H	0.883349	0.408427	0.404834
	H64	H	0.406813	0.592688	0.116839
	H65	H	0.609153	0.582430	0.881888
	H66	H	0.584655	0.405820	0.114552
	H67	H	0.411115	0.410665	0.886093
	H68	H	0.594283	0.120118	0.392041
	H69	H	0.594859	0.884455	0.588440
	H70	H	0.400641	0.120073	0.598044
	H71	H	0.405369	0.885557	0.414319
	H72	H	0.913020	0.616190	0.097701
	H73	H	0.096505	0.381686	0.098954
	H74	H	0.101231	0.620472	0.900046
	H75	H	0.902127	0.383795	0.911443
	H76	H	0.086168	0.899802	0.616462
	H77	H	0.096274	0.096807	0.382249
	H78	H	0.902408	0.098488	0.619966
	H79	H	0.898647	0.915017	0.383007
	H80	H	0.615992	0.094596	0.908944
	H81	H	0.380382	0.098169	0.095345
	H82	H	0.615642	0.914635	0.098398
	H83	H	0.384539	0.907597	0.908622
	H84	H	0.620370	0.897804	0.097514
	H85	H	0.384097	0.093144	0.088591
	H86	H	0.615786	0.090927	0.906031
	H87	H	0.383306	0.907448	0.904478
	H88	H	0.903478	0.086836	0.616407
	H89	H	0.094691	0.088671	0.384970
	H90	H	0.102702	0.905215	0.620151
	H91	H	0.917195	0.908430	0.386530
	H92	H	0.082752	0.614024	0.903230
	H93	H	0.087208	0.385139	0.092937
	H94	H	0.908334	0.614173	0.085636
	H95	H	0.905865	0.381035	0.900404
	H96	H	0.413235	0.116557	0.597595
	H97	H	0.596146	0.881743	0.597065
	H98	H	0.581722	0.111190	0.411941
	H99	H	0.399844	0.880710	0.402608
	H100	H	0.597287	0.399009	0.119667
	H101	H	0.576547	0.585799	0.890100
	H102	H	0.407139	0.593194	0.117521
	H103	H	0.408451	0.399884	0.881921
	H104	H	0.117766	0.598657	0.408347
	H105	H	0.878917	0.597618	0.603956
	H106	H	0.119162	0.410085	0.603153
	H107	H	0.882757	0.404329	0.406120
	H108	H	0.900581	0.619543	0.094970
	H109	H	0.097201	0.384091	0.088213
	H110	H	0.096528	0.613171	0.917984
	H111	H	0.912949	0.386452	0.908447
	H112	H	0.090762	0.916787	0.612886
	H113	H	0.088108	0.094599	0.384717
	H114	H	0.913127	0.094323	0.615442
	H115	H	0.903159	0.895185	0.379620
	H116	H	0.617700	0.094523	0.904399
	H117	H	0.383414	0.089261	0.096639
	H118	H	0.614047	0.905954	0.082954
	H119	H	0.383178	0.904098	0.907231
	C120	C	0.377810	0.008886	0.621949
	C121	C	0.621669	0.991734	0.621840
	C122	C	0.621816	0.008101	0.377800
	C123	C	0.378130	0.991797	0.378086
	C124	C	0.621315	0.378251	0.008147
	C125	C	0.621377	0.621791	0.991692
	C126	C	0.378358	0.621155	0.008731
	C127	C	0.378377	0.378253	0.991910
	C128	C	0.008233	0.621318	0.378725
	C129	C	0.991127	0.621845	0.621936
	C130	C	0.008999	0.378661	0.621408
	C131	C	0.991623	0.378555	0.378497
	C132	C	0.878652	0.508815	0.121332
	C133	C	0.121933	0.491812	0.121614
	C134	C	0.121632	0.507722	0.878338
	C135	C	0.878389	0.491566	0.878366
	C136	C	0.121353	0.878897	0.508293
	C137	C	0.121619	0.122057	0.491815
	C138	C	0.878432	0.121398	0.508721
	C139	C	0.878220	0.878276	0.491552
	C140	C	0.508224	0.121361	0.878443
	C141	C	0.491345	0.121051	0.121314
	C142	C	0.508250	0.877903	0.121696
	C143	C	0.491863	0.878265	0.878466
	C144	C	0.381120	0.885522	0.675655
	C145	C	0.618825	0.114841	0.676695
	C146	C	0.618534	0.884837	0.323385
	C147	C	0.381990	0.114911	0.323435
	C148	C	0.676285	0.381238	0.884954
	C149	C	0.676055	0.618320	0.114921
	C150	C	0.323972	0.618300	0.885246
	C151	C	0.323766	0.381088	0.115047
	C152	C	0.885048	0.676293	0.381684
	C153	C	0.114512	0.677245	0.619209
	C154	C	0.885363	0.323829	0.619274
	C155	C	0.114962	0.323985	0.381477
	C156	C	0.885418	0.381604	0.676352
	C157	C	0.114651	0.619310	0.676412
	C158	C	0.885046	0.618666	0.323628
	C159	C	0.115381	0.382293	0.324190
	C160	C	0.381154	0.676198	0.885421
	C161	C	0.618572	0.676086	0.115043
	C162	C	0.618787	0.323535	0.885032
	C163	C	0.381074	0.323235	0.114867
	C164	C	0.676740	0.885238	0.380780
	C165	C	0.676554	0.114726	0.618954
	C166	C	0.322819	0.885994	0.618263
	C167	C	0.323972	0.114973	0.381045
	C168	C	0.881576	0.385708	0.176272
	C169	C	0.119225	0.615023	0.176158
	C170	C	0.119013	0.384988	0.822938
	C171	C	0.881771	0.614732	0.824336
	C172	C	0.175883	0.881665	0.384893
	C173	C	0.176467	0.119064	0.614929
	C174	C	0.824510	0.118392	0.385461
	C175	C	0.824090	0.881876	0.614823
	C176	C	0.385102	0.176691	0.881014
	C177	C	0.614552	0.175481	0.118620
	C178	C	0.385199	0.822981	0.119177
	C179	C	0.615003	0.823208	0.881042
	C180	C	0.384954	0.880892	0.176247
	C181	C	0.614770	0.117240	0.175404
	C182	C	0.384567	0.118255	0.824085
	C183	C	0.615046	0.881347	0.823733
	C184	C	0.881596	0.176351	0.385748
	C185	C	0.118838	0.176663	0.615323
	C186	C	0.118598	0.823725	0.385132
	C187	C	0.881641	0.824280	0.614832
	C188	C	0.176606	0.384969	0.881057
	C189	C	0.176721	0.614895	0.118504
	C190	C	0.823719	0.385639	0.118483
	C191	C	0.823295	0.614432	0.881334
	C192	C	0.399867	0.095039	0.600416
	C193	C	0.599626	0.905714	0.599684
	C194	C	0.600363	0.094067	0.399653
	C195	C	0.399766	0.906046	0.400152
	C196	C	0.599619	0.399902	0.094502
	C197	C	0.599688	0.599898	0.905504
	C198	C	0.400168	0.599440	0.094626
	C199	C	0.400170	0.399885	0.905654
	C200	C	0.094254	0.599818	0.400643
	C201	C	0.905138	0.600173	0.600200
	C202	C	0.094621	0.400708	0.599382
	C203	C	0.905796	0.400021	0.400239
	C204	C	0.900522	0.594470	0.099334
	C205	C	0.100080	0.405778	0.099837
	C206	C	0.099966	0.593861	0.900505
	C207	C	0.900437	0.405847	0.900225
	C208	C	0.099656	0.900692	0.594308
	C209	C	0.099576	0.100135	0.405995
	C210	C	0.900018	0.099627	0.594928
	C211	C	0.900013	0.899665	0.405058
	C212	C	0.594043	0.099787	0.900213
	C213	C	0.404783	0.099806	0.099777
	C214	C	0.594454	0.899810	0.099511
	C215	C	0.405951	0.900067	0.900438
	Zn216	Zn	0.500090	0.000270	0.750147
	Zn217	Zn	0.499705	-0.000521	0.249348
	Zn218	Zn	0.749509	0.499924	-0.000162
	Zn219	Zn	0.250016	0.499742	0.000141
	Zn220	Zn	0.000347	0.749925	0.500531
	Zn221	Zn	0.000008	0.250135	0.500530
	Zn222	Zn	0.000151	0.500129	0.749722
	Zn223	Zn	0.000091	0.500297	0.249819
	Zn224	Zn	0.499677	0.750010	0.000218
	Zn225	Zn	0.499906	0.249649	-0.000306
	Zn226	Zn	0.750017	-0.000087	0.500047
	Zn227	Zn	0.250008	0.000488	0.499713
	N228	N	0.414736	0.962871	0.677724
	N229	N	0.585432	0.037483	0.678485
	N230	N	0.585103	0.962188	0.321462
	N231	N	0.415039	0.037472	0.321616
	N232	N	0.677824	0.414684	0.962558
	N233	N	0.677931	0.585362	0.037154
	N234	N	0.322372	0.584422	0.962556
	N235	N	0.321914	0.414373	0.037457
	N236	N	0.962518	0.677975	0.415246
	N237	N	0.036916	0.678654	0.585746
	N238	N	0.962836	0.321919	0.585848
	N239	N	0.037233	0.321486	0.414322
	N240	N	0.963018	0.415133	0.677812
	N241	N	0.037198	0.585800	0.678245
	N242	N	0.962586	0.585321	0.321776
	N243	N	0.037833	0.415601	0.322226
	N244	N	0.414280	0.678105	0.963024
	N245	N	0.585269	0.678227	0.037457
	N246	N	0.585591	0.321393	0.962662
	N247	N	0.414519	0.321484	0.037393
	N248	N	0.678766	0.962797	0.413987
	N249	N	0.678339	0.037230	0.585564
	N250	N	0.320970	0.963650	0.585537
	N251	N	0.321659	0.037533	0.414265
	N252	N	0.915046	0.462966	0.177826
	N253	N	0.085910	0.537566	0.178142
	N254	N	0.085506	0.462302	0.821426
	N255	N	0.915342	0.537556	0.822488
	N256	N	0.177561	0.915360	0.462346
	N257	N	0.178443	0.085927	0.537244
	N258	N	0.822318	0.085042	0.463003
	N259	N	0.821957	0.914650	0.537090
	N260	N	0.462735	0.178556	0.914072
	N261	N	0.536763	0.178033	0.085754
	N262	N	0.462790	0.821135	0.085806
	N263	N	0.537427	0.821315	0.914502
	N264	N	0.462440	0.914345	0.177695
	N265	N	0.537176	0.084138	0.177025
	N266	N	0.462043	0.084567	0.822322
	N267	N	0.537598	0.914851	0.821979
	N268	N	0.914650	0.178102	0.463380
	N269	N	0.085462	0.178641	0.537825
	N270	N	0.085447	0.821786	0.462767
	N271	N	0.914927	0.822162	0.537191
	N272	N	0.178145	0.462224	0.914788
	N273	N	0.178465	0.537344	0.085289
	N274	N	0.822029	0.462918	0.084766
	N275	N	0.821251	0.536898	0.914373
