data_Molecule from HDF5

_cell_length_a		16.520676
_cell_length_b		16.581242
_cell_length_c		16.526965
_cell_angle_alpha	89.998803
_cell_angle_beta	89.969064
_cell_angle_gamma	90.076672
_symmetry_space_group_name_H-M	'P 1'
_symmetry_Int_Tables_number		1

loop_
	_symmetry_equiv_pos_as_xyz
	x,y,z

loop_
	_atom_site_label
	_atom_site_type_symbol
	_atom_site_fract_x
	_atom_site_fract_y
	_atom_site_fract_z
	H0	H	0.399167	0.827990	0.745580
	H1	H	0.614114	0.140784	0.747034
	H2	H	0.608330	0.828867	0.302713
	H3	H	0.402990	0.142401	0.304610
	H4	H	0.727800	0.382563	0.865814
	H5	H	0.721707	0.586663	0.182146
	H6	H	0.281319	0.593621	0.866082
	H7	H	0.286280	0.381912	0.179099
	H8	H	0.847999	0.704139	0.421310
	H9	H	0.161959	0.709942	0.631906
	H10	H	0.849019	0.263969	0.630264
	H11	H	0.165200	0.269469	0.424464
	H12	H	0.849200	0.379472	0.746575
	H13	H	0.161860	0.594037	0.747911
	H14	H	0.848190	0.585864	0.306278
	H15	H	0.166424	0.388331	0.309648
	H16	H	0.398558	0.708122	0.864901
	H17	H	0.606420	0.704600	0.180230
	H18	H	0.613817	0.264837	0.865237
	H19	H	0.401271	0.264314	0.177758
	H20	H	0.725866	0.828974	0.418458
	H21	H	0.729427	0.141590	0.630046
	H22	H	0.280977	0.829373	0.631411
	H23	H	0.287710	0.142730	0.423415
	H24	H	0.905077	0.328236	0.242285
	H25	H	0.110834	0.641990	0.244695
	H26	H	0.115535	0.331463	0.797529
	H27	H	0.898422	0.641210	0.799280
	H28	H	0.223650	0.884246	0.365814
	H29	H	0.228102	0.091944	0.680159
	H30	H	0.787701	0.087759	0.365327
	H31	H	0.781092	0.878305	0.678917
	H32	H	0.351010	0.209571	0.913920
	H33	H	0.663112	0.206754	0.126680
	H34	H	0.348536	0.764328	0.126526
	H35	H	0.662826	0.764430	0.917403
	H36	H	0.347501	0.881874	0.242188
	H37	H	0.662921	0.089897	0.243173
	H38	H	0.349758	0.090408	0.801074
	H39	H	0.662904	0.880004	0.801485
	H40	H	0.902770	0.206286	0.366327
	H41	H	0.111188	0.207997	0.680754
	H42	H	0.107765	0.767915	0.365892
	H43	H	0.896183	0.761923	0.679093
	H44	H	0.229904	0.330336	0.915014
	H45	H	0.229428	0.641172	0.129027
	H46	H	0.786657	0.328857	0.126635
	H47	H	0.784665	0.642248	0.918702
	H48	H	0.420942	0.092148	0.603898
	H49	H	0.593142	0.875707	0.609098
	H50	H	0.597914	0.096791	0.438642
	H51	H	0.415859	0.872183	0.431801
	H52	H	0.596333	0.397048	0.134426
	H53	H	0.598795	0.580032	0.908225
	H54	H	0.425507	0.578706	0.131848
	H55	H	0.423680	0.400518	0.912682
	H56	H	0.120296	0.579853	0.434236
	H57	H	0.895417	0.571536	0.609658
	H58	H	0.119227	0.396418	0.613941
	H59	H	0.894106	0.396627	0.436823
	H60	H	0.116253	0.396766	0.605380
	H61	H	0.895464	0.573322	0.612697
	H62	H	0.118887	0.576661	0.435221
	H63	H	0.890644	0.397560	0.427617
	H64	H	0.411589	0.578988	0.137031
	H65	H	0.599765	0.571611	0.909615
	H66	H	0.593588	0.394415	0.135364
	H67	H	0.419340	0.393902	0.908252
	H68	H	0.601697	0.102114	0.428215
	H69	H	0.593134	0.875286	0.610707
	H70	H	0.409488	0.098722	0.611491
	H71	H	0.413891	0.872580	0.434094
	H72	H	0.912713	0.598854	0.112759
	H73	H	0.094875	0.372411	0.117386
	H74	H	0.094787	0.597086	0.935456
	H75	H	0.912475	0.372877	0.934521
	H76	H	0.090556	0.898678	0.634516
	H77	H	0.090627	0.073967	0.414405
	H78	H	0.917001	0.071147	0.634698
	H79	H	0.916262	0.899501	0.413197
	H80	H	0.620218	0.080626	0.935527
	H81	H	0.393625	0.075542	0.111973
	H82	H	0.620054	0.892114	0.114024
	H83	H	0.395684	0.899985	0.938801
	H84	H	0.616397	0.895688	0.107551
	H85	H	0.393161	0.076091	0.111400
	H86	H	0.615663	0.069636	0.938774
	H87	H	0.391604	0.898175	0.928254
	H88	H	0.919758	0.076726	0.635354
	H89	H	0.095641	0.083943	0.409525
	H90	H	0.093344	0.896485	0.637449
	H91	H	0.919100	0.893729	0.411171
	H92	H	0.088664	0.594941	0.936788
	H93	H	0.094020	0.374956	0.112391
	H94	H	0.910438	0.601190	0.119320
	H95	H	0.923638	0.375250	0.930998
	H96	H	0.422957	0.096113	0.618160
	H97	H	0.591767	0.875802	0.609418
	H98	H	0.590340	0.097727	0.429464
	H99	H	0.412950	0.870785	0.431609
	H100	H	0.597292	0.394143	0.136378
	H101	H	0.591784	0.575238	0.910914
	H102	H	0.416823	0.566494	0.130359
	H103	H	0.415031	0.401884	0.909929
	H104	H	0.120981	0.577287	0.431948
	H105	H	0.894907	0.574857	0.609496
	H106	H	0.115317	0.403804	0.610464
	H107	H	0.890546	0.388682	0.432051
	H108	H	0.917828	0.599376	0.118528
	H109	H	0.098642	0.372506	0.112588
	H110	H	0.093678	0.594260	0.941027
	H111	H	0.920023	0.377928	0.942491
	H112	H	0.094231	0.900553	0.635904
	H113	H	0.102254	0.073338	0.410150
	H114	H	0.913788	0.075361	0.637698
	H115	H	0.913099	0.894625	0.409473
	H116	H	0.619332	0.071543	0.927442
	H117	H	0.393126	0.075091	0.111209
	H118	H	0.616983	0.899609	0.114874
	H119	H	0.391853	0.889842	0.935383
	C120	C	0.384369	-0.007243	0.644775
	C121	C	0.626616	0.977908	0.643666
	C122	C	0.627257	-0.005452	0.401169
	C123	C	0.383945	0.976465	0.402162
	C124	C	0.628257	0.364045	0.031304
	C125	C	0.627182	0.607004	1.014081
	C126	C	0.384375	0.607234	0.029917
	C127	C	0.386090	0.365430	1.013369
	C128	C	0.015257	0.607802	0.402521
	C129	C	0.997883	0.607356	0.644902
	C130	C	0.013948	0.365372	0.644381
	C131	C	0.997472	0.364810	0.402891
	C132	C	0.883889	0.494969	0.146620
	C133	C	0.128109	0.476955	0.145133
	C134	C	0.126947	0.493736	0.902471
	C135	C	0.885490	0.478138	0.902950
	C136	C	0.125208	0.866067	0.532116
	C137	C	0.127815	0.108313	0.515477
	C138	C	0.885307	0.106285	0.531720
	C139	C	0.883114	0.863449	0.514338
	C140	C	0.515050	0.106878	0.900884
	C141	C	0.497455	0.107193	0.143502
	C142	C	0.513715	0.863938	0.143869
	C143	C	0.497060	0.863835	0.901462
	C144	C	0.381123	0.875305	0.705713
	C145	C	0.630692	0.094636	0.705674
	C146	C	0.627562	0.876074	0.342493
	C147	C	0.383822	0.095534	0.344328
	C148	C	0.688251	0.363305	0.913056
	C149	C	0.683771	0.606851	0.133956
	C150	C	0.322490	0.610806	0.912647
	C151	C	0.326018	0.363280	0.131746
	C152	C	0.895946	0.665088	0.402084
	C153	C	0.115061	0.669354	0.649492
	C154	C	0.896075	0.304476	0.648128
	C155	C	0.117747	0.308601	0.404281
	C156	C	0.896275	0.361932	0.705957
	C157	C	0.114856	0.611643	0.707261
	C158	C	0.895745	0.606381	0.344954
	C159	C	0.118343	0.367420	0.347511
	C160	C	0.381213	0.667624	0.911850
	C161	C	0.626608	0.665305	0.133078
	C162	C	0.631248	0.304884	0.912878
	C163	C	0.383310	0.305024	0.131039
	C164	C	0.685706	0.875963	0.400294
	C165	C	0.688510	0.094910	0.647779
	C166	C	0.322410	0.875788	0.648610
	C167	C	0.326134	0.095395	0.402591
	C168	C	0.884957	0.375667	0.203509
	C169	C	0.130182	0.595043	0.204773
	C170	C	0.132223	0.377689	0.839076
	C171	C	0.881534	0.595024	0.841076
	C172	C	0.184339	0.865096	0.413366
	C173	C	0.187849	0.110267	0.633381
	C174	C	0.826795	0.107419	0.412652
	C175	C	0.821527	0.860303	0.631926
	C176	C	0.397596	0.168327	0.897065
	C177	C	0.615840	0.166804	0.145451
	C178	C	0.395501	0.804422	0.145301
	C179	C	0.615441	0.804036	0.898918
	C180	C	0.395219	0.862482	0.203125
	C181	C	0.615627	0.108979	0.203497
	C182	C	0.396888	0.109165	0.840808
	C183	C	0.615378	0.861552	0.841174
	C184	C	0.884157	0.165961	0.413295
	C185	C	0.129525	0.167666	0.633754
	C186	C	0.126668	0.807262	0.413365
	C187	C	0.878982	0.802491	0.632065
	C188	C	0.189089	0.376887	0.897645
	C189	C	0.188810	0.594420	0.147362
	C190	C	0.826332	0.375927	0.146086
	C191	C	0.824871	0.595470	0.900314
	C192	C	0.410541	0.074487	0.618657
	C193	C	0.600333	0.896873	0.617341
	C194	C	0.603634	0.077275	0.425246
	C195	C	0.407655	0.893607	0.425712
	C196	C	0.602924	0.388274	0.113811
	C197	C	0.603583	0.582687	0.931165
	C198	C	0.410539	0.581917	0.111742
	C199	C	0.411930	0.391410	0.931544
	C200	C	0.098602	0.584512	0.426855
	C201	C	0.916416	0.580805	0.618265
	C202	C	0.095655	0.391475	0.617692
	C203	C	0.913715	0.387465	0.425601
	C204	C	0.907006	0.578156	0.123436
	C205	C	0.103075	0.394656	0.121071
	C206	C	0.100178	0.574392	0.929805
	C207	C	0.911293	0.396604	0.928680
	C208	C	0.099771	0.891063	0.614505
	C209	C	0.103308	0.083971	0.432912
	C210	C	0.909841	0.081509	0.614408
	C211	C	0.908898	0.888789	0.432589
	C212	C	0.596951	0.081378	0.926441
	C213	C	0.414870	0.082693	0.118753
	C214	C	0.596337	0.888731	0.119082
	C215	C	0.414633	0.888824	0.926786
	Zn216	Zn	0.505950	-0.015191	0.773377
	Zn217	Zn	0.504959	-0.014427	0.272353
	Zn218	Zn	0.756189	0.485852	0.023858
	Zn219	Zn	0.256206	0.485653	0.022143
	Zn220	Zn	0.005664	0.736248	0.524174
	Zn221	Zn	0.005770	0.236275	0.524350
	Zn222	Zn	0.006117	0.485767	0.773340
	Zn223	Zn	0.006768	0.485728	0.274252
	Zn224	Zn	0.505435	0.735552	0.021776
	Zn225	Zn	0.506821	0.235720	0.021523
	Zn226	Zn	0.755863	-0.013913	0.523151
	Zn227	Zn	0.255161	-0.014645	0.524215
	N228	N	0.419005	0.949252	0.703480
	N229	N	0.592828	0.020925	0.703146
	N230	N	0.592113	0.950811	0.342617
	N231	N	0.418757	0.020381	0.343616
	N232	N	0.686617	0.399375	0.987770
	N233	N	0.684362	0.571245	0.058884
	N234	N	0.324164	0.573971	0.987040
	N235	N	0.327432	0.400027	0.057379
	N236	N	0.971429	0.666149	0.436817
	N237	N	0.041158	0.667218	0.611609
	N238	N	0.970115	0.306693	0.610286
	N239	N	0.041479	0.306407	0.437444
	N240	N	0.970786	0.398926	0.703948
	N241	N	0.040858	0.574004	0.704633
	N242	N	0.971312	0.571735	0.344832
	N243	N	0.042489	0.401496	0.346382
	N244	N	0.418958	0.665570	0.985845
	N245	N	0.592504	0.665744	0.057443
	N246	N	0.594818	0.304950	0.987560
	N247	N	0.419602	0.306022	0.056352
	N248	N	0.685946	0.950835	0.435708
	N249	N	0.686314	0.021413	0.609960
	N250	N	0.324103	0.949993	0.611745
	N251	N	0.326020	0.020323	0.437509
	N252	N	0.919835	0.450871	0.204260
	N253	N	0.093209	0.520961	0.203579
	N254	N	0.094356	0.451304	0.841976
	N255	N	0.918480	0.521009	0.842625
	N256	N	0.183385	0.900864	0.488309
	N257	N	0.186669	0.073732	0.558883
	N258	N	0.827455	0.071164	0.487388
	N259	N	0.823956	0.897621	0.557831
	N260	N	0.472168	0.167056	0.933570
	N261	N	0.541231	0.165937	0.109050
	N262	N	0.470310	0.805221	0.109326
	N263	N	0.540658	0.805158	0.935342
	N264	N	0.469832	0.898988	0.202272
	N265	N	0.540814	0.072773	0.202567
	N266	N	0.470952	0.071722	0.842971
	N267	N	0.540674	0.897697	0.842366
	N268	N	0.919431	0.165693	0.488538
	N269	N	0.092795	0.166599	0.559482
	N270	N	0.090777	0.807599	0.488286
	N271	N	0.916638	0.804102	0.557987
	N272	N	0.186094	0.450089	0.936401
	N273	N	0.187716	0.520006	0.110994
	N274	N	0.825327	0.451327	0.111857
	N275	N	0.827248	0.521839	0.938219
	O276	O	0.978670	0.834612	-0.073704
	H277	H	0.980942	0.838425	-0.082545
	H278	H	0.949146	0.840900	-0.069068
	O279	O	0.705014	0.507477	0.534583
	H280	H	0.711976	0.502967	0.554916
	H281	H	0.709201	0.489924	0.549087
	O282	O	1.150450	-0.021242	-0.112015
	H283	H	1.144746	-0.031409	-0.103007
	H284	H	1.158513	-0.015939	-0.120910
	O285	O	-0.162909	1.159175	0.216391
	H286	H	-0.143156	1.143434	0.203547
	H287	H	-0.153277	1.140698	0.197655
	O288	O	1.001432	0.160570	0.898029
	H289	H	1.024613	0.156969	0.903472
	H290	H	0.989359	0.165706	0.922675
	O291	O	0.308398	0.283164	0.320484
	H292	H	0.323464	0.301714	0.332658
	H293	H	0.328761	0.294503	0.348249
	O294	O	0.187490	-0.203057	0.208140
	H295	H	0.170488	-0.205375	0.189052
	H296	H	0.177422	-0.175356	0.192550
	O297	O	0.724952	0.267703	0.494369
	H298	H	0.745749	0.247508	0.489220
	H299	H	0.718498	0.263672	0.468740
	O300	O	-0.195586	0.157394	0.016836
	H301	H	-0.203165	0.168802	0.012361
	H302	H	-0.195903	0.143260	0.024009
	O303	O	0.032265	-0.230636	-0.194976
	H304	H	0.018434	-0.237685	-0.197743
	H305	H	0.025144	-0.244398	-0.206041
	O306	O	0.696869	0.674745	-0.666725
	H307	H	0.683576	0.660664	-0.638753
	H308	H	0.671913	0.652461	-0.658203
	O309	O	1.224100	0.209209	0.050468
	H310	H	1.238057	0.221596	0.077759
	H311	H	1.236646	0.219371	0.073604
	O312	O	0.533716	0.406913	0.690296
	H313	H	0.509406	0.392397	0.695774
	H314	H	0.516501	0.426407	0.691335
	O315	O	0.504324	0.490976	0.699547
	H316	H	0.495635	0.515908	0.695744
	H317	H	0.500182	0.484960	0.702979
	O318	O	0.971130	1.006075	0.180293
	H319	H	0.967549	1.012522	0.188669
	H320	H	0.986142	1.004703	0.174437
	O321	O	0.063157	0.829984	1.042035
	H322	H	0.057582	0.827775	1.040623
	H323	H	0.069566	0.830592	1.034954
	O324	O	1.073624	0.138191	1.019632
	H325	H	1.072908	0.146113	1.025369
	H326	H	1.071991	0.137206	1.018828
	O327	O	0.429368	0.643122	0.633617
	H328	H	0.424296	0.638276	0.639492
	H329	H	0.429462	0.658300	0.640807
	O330	O	-0.290079	1.281775	0.321549
	H331	H	-0.292547	1.320803	0.319322
	H332	H	-0.258509	1.256471	0.295388
	O333	O	0.462471	0.536924	0.531888
	H334	H	0.477189	0.543745	0.542284
	H335	H	0.468133	0.547481	0.540744
	O336	O	-0.072032	0.840793	0.068101
	H337	H	-0.086341	0.839832	0.068240
	H338	H	-0.076519	0.832270	0.075601
	O339	O	-0.146583	1.016453	0.122259
	H340	H	-0.146920	1.019020	0.129467
	H341	H	-0.150946	1.007239	0.129261
	O342	O	-0.214230	0.768223	0.061694
	H343	H	-0.222657	0.774750	0.070533
	H344	H	-0.229629	0.751046	0.060514
	O345	O	0.416004	0.560591	0.321192
	H346	H	0.409974	0.559579	0.337328
	H347	H	0.415530	0.541692	0.323644
	O348	O	0.555581	0.351181	0.571758
	H349	H	0.550925	0.347256	0.581672
	H350	H	0.559963	0.358221	0.581410
	O351	O	0.195547	-0.198293	0.835258
	H352	H	0.175604	-0.190096	0.832351
	H353	H	0.181887	-0.198438	0.855908
	O354	O	1.075211	0.112116	1.040152
	H355	H	1.078796	0.116329	1.015409
	H356	H	1.091291	0.119274	1.044346
	O357	O	0.136153	0.935061	0.174862
	H358	H	0.112889	0.947634	0.174744
	H359	H	0.131387	0.926071	0.161490
	O360	O	0.315924	0.298068	0.722814
	H361	H	0.291108	0.299649	0.736281
	H362	H	0.305689	0.311533	0.696811
	O363	O	0.619497	0.434114	0.604851
	H364	H	0.611276	0.415783	0.606439
	H365	H	0.608352	0.440513	0.609365
	O366	O	0.857190	-0.205866	0.877558
	H367	H	0.852470	-0.189690	0.874207
	H368	H	0.859888	-0.191635	0.890589
	O369	O	0.000338	-0.232134	1.179058
	H370	H	0.001151	-0.227737	1.190528
	H371	H	-0.005117	-0.235157	1.182829
	O372	O	0.060802	0.983882	0.907518
	H373	H	0.075028	0.982104	0.905645
	H374	H	0.062390	0.977954	0.906982
	O375	O	0.707725	0.693858	-0.445040
	H376	H	0.696652	0.692649	-0.449412
	H377	H	0.724068	0.715516	-0.427067
	O378	O	0.373158	0.415902	0.518193
	H379	H	0.369754	0.405108	0.544503
	H380	H	0.380476	0.418775	0.508322
	O381	O	-0.066599	0.968554	-0.158502
	H382	H	-0.066520	0.965264	-0.159839
	H383	H	-0.061216	0.990178	-0.166583
	O384	O	1.158545	1.027635	0.035504
	H385	H	1.160761	1.011314	0.029396
	H386	H	1.176888	1.039679	0.038061
	O387	O	-0.137666	0.972100	0.990112
	H388	H	-0.130248	0.978600	0.978149
	H389	H	-0.147853	0.986210	0.987570
	O390	O	-0.216113	0.953927	1.241949
	H391	H	-0.234520	0.938007	1.261758
	H392	H	-0.220683	0.917653	1.246069
	O393	O	1.201105	0.183469	0.217040
	H394	H	1.198738	0.145553	0.223985
	H395	H	1.229337	0.208823	0.248129
	O396	O	0.440400	0.439841	0.403563
	H397	H	0.448615	0.428734	0.409987
	H398	H	0.445970	0.461200	0.402062
	O399	O	0.626058	0.470045	0.443807
	H400	H	0.625729	0.481553	0.458605
	H401	H	0.632986	0.468340	0.474555
	O402	O	1.531043	0.713763	1.510039
	H403	H	1.529297	0.716887	1.520868
	H404	H	1.530152	0.714488	1.516561
	O405	O	0.715095	0.511890	0.729981
	H406	H	0.713995	0.504611	0.736756
	H407	H	0.705370	0.511585	0.745759
	O408	O	0.883763	0.188740	-0.177387
	H409	H	0.881857	0.215351	-0.196937
	H410	H	0.889256	0.193044	-0.157789
	O411	O	0.790073	1.185534	-0.210690
	H412	H	0.790260	1.209928	-0.196108
	H413	H	0.793439	1.186462	-0.214140
	O414	O	0.065060	0.142671	-0.176264
	H415	H	0.051412	0.134094	-0.175420
	H416	H	0.056112	0.143373	-0.169840
	O417	O	0.480376	0.264813	0.743610
	H418	H	0.454865	0.252636	0.756816
	H419	H	0.456157	0.253672	0.757270
	O420	O	1.538967	-0.730983	0.306131
	H421	H	1.571476	-0.728270	0.314476
	H422	H	1.544366	-0.753983	0.282446
	O423	O	1.029258	0.967565	0.161486
	H424	H	1.040888	0.955501	0.164542
	H425	H	1.016448	0.976432	0.159826
	O426	O	0.712078	0.449057	0.313526
	H427	H	0.726690	0.459958	0.302587
	H428	H	0.709320	0.458950	0.317364
	O429	O	0.317777	0.537322	0.541328
	H430	H	0.306830	0.528110	0.525045
	H431	H	0.319221	0.559759	0.543247
	O432	O	1.281722	0.710807	1.495124
	H433	H	1.269650	0.723478	1.473330
	H434	H	1.269595	0.726874	1.465736
	O435	O	0.044663	0.208158	0.247663
	H436	H	0.075818	0.210511	0.249630
	H437	H	0.043189	0.221050	0.272752
	O438	O	0.428254	0.268145	0.508155
	H439	H	0.433493	0.251912	0.493745
	H440	H	0.452362	0.275049	0.502135
	O441	O	0.359706	0.519435	0.415001
	H442	H	0.362444	0.528977	0.415583
	H443	H	0.363751	0.519979	0.427734
	O444	O	0.698812	0.677722	0.720354
	H445	H	0.690685	0.662838	0.712640
	H446	H	0.707697	0.682464	0.717299
	O447	O	0.301607	0.695742	0.324058
	H448	H	0.299402	0.671990	0.307756
	H449	H	0.287708	0.687656	0.300981
	O450	O	1.088250	0.120560	-0.124555
	H451	H	1.073023	0.114682	-0.124889
	H452	H	1.098286	0.117524	-0.117130
	O453	O	0.560172	0.597508	0.360064
	H454	H	0.551187	0.597066	0.344281
	H455	H	0.558869	0.598135	0.356824
	O456	O	-0.196868	1.001764	0.840297
	H457	H	-0.191660	1.027472	0.843451
	H458	H	-0.209862	1.014819	0.822220
	O459	O	0.380559	0.338691	0.446333
	H460	H	0.391650	0.325317	0.443273
	H461	H	0.396734	0.330070	0.448055
	O462	O	0.417857	0.588135	0.380102
	H463	H	0.422002	0.584755	0.373453
	H464	H	0.392208	0.584141	0.367153
	O465	O	0.295461	0.497887	0.691452
	H466	H	0.283162	0.504716	0.679284
	H467	H	0.303447	0.504175	0.685792
	O468	O	0.795202	1.778645	0.230461
	H469	H	0.764765	1.744105	0.262520
	H470	H	0.819646	1.770896	0.207963
	O471	O	0.534445	0.705442	0.740270
	H472	H	0.536727	0.738284	0.775871
	H473	H	0.548267	0.690809	0.729306
	O474	O	1.219223	1.020739	0.236845
	H475	H	1.231543	1.016727	0.262947
	H476	H	1.208361	1.009278	0.225040
	O477	O	0.216753	-0.225392	0.999159
	H478	H	0.221261	-0.241287	0.982565
	H479	H	0.210977	-0.230208	1.013872
