data_Molecule from HDF5

_cell_length_a		16.630279
_cell_length_b		16.615422
_cell_length_c		16.712466
_cell_angle_alpha	90.003371
_cell_angle_beta	89.863939
_cell_angle_gamma	89.890740
_symmetry_space_group_name_H-M	'P 1'
_symmetry_Int_Tables_number		1

loop_
	_symmetry_equiv_pos_as_xyz
	x,y,z

loop_
	_atom_site_label
	_atom_site_type_symbol
	_atom_site_fract_x
	_atom_site_fract_y
	_atom_site_fract_z
	H0	H	0.402806	0.841408	0.725057
	H1	H	0.611689	0.153016	0.726837
	H2	H	0.609195	0.842635	0.286092
	H3	H	0.402034	0.154613	0.286096
	H4	H	0.727985	0.394072	0.849425
	H5	H	0.727268	0.602209	0.159794
	H6	H	0.279964	0.611463	0.853727
	H7	H	0.284557	0.393526	0.157349
	H8	H	0.850356	0.718983	0.399553
	H9	H	0.162631	0.717842	0.606995
	H10	H	0.850599	0.281368	0.607004
	H11	H	0.163153	0.279709	0.401142
	H12	H	0.851715	0.394964	0.724489
	H13	H	0.160306	0.607724	0.727451
	H14	H	0.849305	0.600940	0.285660
	H15	H	0.162321	0.395195	0.284283
	H16	H	0.400186	0.723257	0.851419
	H17	H	0.611698	0.719485	0.159991
	H18	H	0.613629	0.276384	0.850577
	H19	H	0.401497	0.278004	0.157499
	H20	H	0.724524	0.841929	0.403113
	H21	H	0.728426	0.153341	0.611515
	H22	H	0.286340	0.841735	0.609379
	H23	H	0.287531	0.155282	0.403229
	H24	H	0.900489	0.343965	0.225229
	H25	H	0.114642	0.651503	0.228441
	H26	H	0.118533	0.347512	0.777356
	H27	H	0.901539	0.654283	0.782637
	H28	H	0.227687	0.894388	0.349331
	H29	H	0.226022	0.101838	0.659494
	H30	H	0.784033	0.105433	0.351349
	H31	H	0.781431	0.889994	0.656843
	H32	H	0.354243	0.224026	0.895244
	H33	H	0.661013	0.220158	0.109371
	H34	H	0.352861	0.775831	0.111967
	H35	H	0.660949	0.775834	0.897498
	H36	H	0.353120	0.890630	0.228459
	H37	H	0.661181	0.105335	0.226316
	H38	H	0.352657	0.106035	0.781627
	H39	H	0.659990	0.889382	0.779689
	H40	H	0.900708	0.221066	0.350704
	H41	H	0.110632	0.219817	0.659105
	H42	H	0.111198	0.778661	0.348752
	H43	H	0.899162	0.774315	0.656878
	H44	H	0.233070	0.346534	0.894254
	H45	H	0.231021	0.651992	0.112747
	H46	H	0.786055	0.343481	0.108401
	H47	H	0.785925	0.654089	0.900273
	H48	H	0.416993	0.106526	0.586834
	H49	H	0.596696	0.884494	0.597113
	H50	H	0.594097	0.111266	0.413591
	H51	H	0.415938	0.886793	0.417567
	H52	H	0.599709	0.410704	0.116309
	H53	H	0.605027	0.582422	0.892601
	H54	H	0.421636	0.581760	0.111715
	H55	H	0.419809	0.417507	0.895291
	H56	H	0.117143	0.589415	0.417039
	H57	H	0.893076	0.589140	0.596089
	H58	H	0.115573	0.415632	0.593296
	H59	H	0.897122	0.413460	0.417579
	H60	H	0.121983	0.408323	0.596653
	H61	H	0.896385	0.588540	0.588007
	H62	H	0.117332	0.583525	0.413458
	H63	H	0.892608	0.410100	0.406560
	H64	H	0.422784	0.590071	0.114860
	H65	H	0.588540	0.585198	0.897840
	H66	H	0.594062	0.408593	0.114745
	H67	H	0.425640	0.410241	0.894473
	H68	H	0.597280	0.111142	0.416619
	H69	H	0.587650	0.890181	0.592550
	H70	H	0.408586	0.112774	0.597285
	H71	H	0.417526	0.885160	0.413419
	H72	H	0.917338	0.610719	0.094239
	H73	H	0.096383	0.385222	0.096849
	H74	H	0.094675	0.610192	0.916339
	H75	H	0.923222	0.388435	0.915068
	H76	H	0.099289	0.905577	0.616738
	H77	H	0.089948	0.095310	0.393794
	H78	H	0.912295	0.085235	0.616618
	H79	H	0.912750	0.910628	0.391882
	H80	H	0.616135	0.081975	0.917731
	H81	H	0.396136	0.085096	0.094163
	H82	H	0.617910	0.912525	0.095995
	H83	H	0.398259	0.913846	0.917839
	H84	H	0.619747	0.908058	0.095298
	H85	H	0.393773	0.088420	0.096910
	H86	H	0.617994	0.085831	0.912700
	H87	H	0.394830	0.911680	0.913795
	H88	H	0.921669	0.084457	0.613011
	H89	H	0.105242	0.089428	0.389635
	H90	H	0.096270	0.913096	0.614134
	H91	H	0.919875	0.912106	0.395523
	H92	H	0.090167	0.608294	0.915932
	H93	H	0.088629	0.390390	0.091348
	H94	H	0.916636	0.610492	0.094017
	H95	H	0.915369	0.386982	0.917849
	H96	H	0.422850	0.109768	0.600097
	H97	H	0.597553	0.888643	0.586202
	H98	H	0.597647	0.112795	0.412793
	H99	H	0.420332	0.888135	0.416026
	H100	H	0.597730	0.405622	0.117977
	H101	H	0.597401	0.597937	0.889924
	H102	H	0.414993	0.585750	0.116360
	H103	H	0.417165	0.410114	0.890652
	H104	H	0.119642	0.589431	0.411165
	H105	H	0.896754	0.581328	0.593375
	H106	H	0.118342	0.407735	0.587185
	H107	H	0.891775	0.401689	0.416271
	H108	H	0.916977	0.610861	0.094413
	H109	H	0.098443	0.388249	0.086596
	H110	H	0.092827	0.607294	0.920533
	H111	H	0.917219	0.386657	0.909633
	H112	H	0.090879	0.905991	0.614614
	H113	H	0.094334	0.079302	0.396470
	H114	H	0.918170	0.093163	0.616801
	H115	H	0.918545	0.905046	0.392280
	H116	H	0.617273	0.088482	0.918460
	H117	H	0.395045	0.089623	0.092609
	H118	H	0.617146	0.909755	0.091780
	H119	H	0.396001	0.908931	0.918456
	C120	C	0.384596	0.006480	0.626737
	C121	C	0.627054	0.990071	0.625466
	C122	C	0.628099	0.008107	0.383171
	C123	C	0.385817	0.989981	0.384251
	C124	C	0.629197	0.376631	0.013496
	C125	C	0.628570	0.620438	0.996337
	C126	C	0.385754	0.620650	0.013428
	C127	C	0.386593	0.378823	0.995100
	C128	C	0.014913	0.619358	0.382051
	C129	C	0.997630	0.619887	0.624993
	C130	C	0.015563	0.379051	0.624504
	C131	C	0.997499	0.376857	0.382315
	C132	C	0.885460	0.507331	0.125318
	C133	C	0.127614	0.489819	0.125223
	C134	C	0.128342	0.507938	0.882381
	C135	C	0.886051	0.490417	0.882970
	C136	C	0.127692	0.877005	0.512426
	C137	C	0.127655	0.119471	0.496087
	C138	C	0.885458	0.119882	0.513159
	C139	C	0.884808	0.876417	0.495394
	C140	C	0.515285	0.119380	0.883124
	C141	C	0.497772	0.120253	0.126191
	C142	C	0.515505	0.877724	0.126209
	C143	C	0.498407	0.877726	0.883670
	C144	C	0.383875	0.888561	0.685482
	C145	C	0.629924	0.106575	0.686501
	C146	C	0.628645	0.889724	0.325301
	C147	C	0.383924	0.107742	0.325873
	C148	C	0.688377	0.375176	0.896364
	C149	C	0.687357	0.621008	0.113211
	C150	C	0.322427	0.627105	0.898860
	C151	C	0.325175	0.375621	0.110939
	C152	C	0.897333	0.678993	0.380869
	C153	C	0.115258	0.679263	0.626247
	C154	C	0.897831	0.320407	0.625810
	C155	C	0.115778	0.318757	0.381852
	C156	C	0.898421	0.377282	0.684139
	C157	C	0.114233	0.624060	0.685745
	C158	C	0.896876	0.620423	0.324195
	C159	C	0.115500	0.376220	0.323857
	C160	C	0.381966	0.683021	0.898017
	C161	C	0.630095	0.679445	0.113399
	C162	C	0.631446	0.316660	0.896897
	C163	C	0.383187	0.317937	0.110930
	C164	C	0.685778	0.889462	0.383420
	C165	C	0.687817	0.106744	0.629131
	C166	C	0.325960	0.888692	0.628158
	C167	C	0.326799	0.107894	0.383940
	C168	C	0.882924	0.390382	0.184858
	C169	C	0.132213	0.605253	0.187731
	C170	C	0.134834	0.393189	0.819013
	C171	C	0.883274	0.607674	0.823164
	C172	C	0.187431	0.875722	0.395790
	C173	C	0.186722	0.121182	0.612976
	C174	C	0.824746	0.123023	0.397242
	C175	C	0.823069	0.872637	0.611040
	C176	C	0.399786	0.182310	0.878621
	C177	C	0.614511	0.180048	0.127826
	C178	C	0.399183	0.816600	0.129450
	C179	C	0.614471	0.816101	0.879818
	C180	C	0.399246	0.873665	0.187554
	C181	C	0.614403	0.123030	0.186051
	C182	C	0.399247	0.123816	0.821996
	C183	C	0.613986	0.872677	0.821254
	C184	C	0.882775	0.180568	0.397178
	C185	C	0.129179	0.179421	0.612732
	C186	C	0.129460	0.818194	0.395411
	C187	C	0.881445	0.815189	0.611058
	C188	C	0.191825	0.392798	0.877108
	C189	C	0.189541	0.605800	0.129770
	C190	C	0.825745	0.390291	0.127096
	C191	C	0.825970	0.607685	0.881402
	C192	C	0.409001	0.088307	0.601907
	C193	C	0.601304	0.908728	0.599517
	C194	C	0.603461	0.090355	0.407246
	C195	C	0.410726	0.908085	0.408520
	C196	C	0.604478	0.401152	0.095031
	C197	C	0.603982	0.595847	0.914735
	C198	C	0.412260	0.593540	0.093384
	C199	C	0.413135	0.405173	0.914620
	C200	C	0.096750	0.594592	0.406667
	C201	C	0.916700	0.593903	0.599755
	C202	C	0.097450	0.403576	0.599583
	C203	C	0.915220	0.401267	0.406247
	C204	C	0.910156	0.589378	0.100872
	C205	C	0.101841	0.409060	0.098837
	C206	C	0.100530	0.587980	0.909735
	C207	C	0.911442	0.408722	0.907395
	C208	C	0.102768	0.901304	0.593850
	C209	C	0.103425	0.094886	0.414569
	C210	C	0.910192	0.094690	0.594371
	C211	C	0.909980	0.902005	0.414224
	C212	C	0.596124	0.092904	0.909162
	C213	C	0.416293	0.094806	0.101479
	C214	C	0.597042	0.903062	0.101506
	C215	C	0.417310	0.904018	0.909456
	Zn216	Zn	0.506102	-0.001666	0.754423
	Zn217	Zn	0.506259	-0.000991	0.254931
	Zn218	Zn	0.757052	0.498792	0.004175
	Zn219	Zn	0.256461	0.499570	0.003712
	Zn220	Zn	0.006613	0.747359	0.503494
	Zn221	Zn	0.006858	0.249410	0.504478
	Zn222	Zn	0.007103	0.499318	0.754186
	Zn223	Zn	0.006096	0.498347	0.253740
	Zn224	Zn	0.507411	0.749360	0.005349
	Zn225	Zn	0.507005	0.248334	0.003527
	Zn226	Zn	0.755896	-0.001107	0.505063
	Zn227	Zn	0.257147	-0.002033	0.505130
	N228	N	0.419417	0.963043	0.685000
	N229	N	0.592834	0.032821	0.684492
	N230	N	0.593772	0.964747	0.324573
	N231	N	0.419857	0.033376	0.325858
	N232	N	0.687419	0.411543	0.969969
	N233	N	0.686638	0.585295	0.039228
	N234	N	0.324657	0.588749	0.971474
	N235	N	0.326877	0.412574	0.037630
	N236	N	0.971908	0.678687	0.415978
	N237	N	0.041695	0.677014	0.589234
	N238	N	0.971870	0.321160	0.589509
	N239	N	0.041271	0.318899	0.417364
	N240	N	0.972912	0.412659	0.683907
	N241	N	0.040036	0.587895	0.685436
	N242	N	0.971263	0.584298	0.324513
	N243	N	0.040676	0.411313	0.323711
	N244	N	0.420520	0.679451	0.970550
	N245	N	0.594440	0.679521	0.039413
	N246	N	0.595476	0.317181	0.970866
	N247	N	0.420535	0.319538	0.037735
	N248	N	0.686121	0.964386	0.418116
	N249	N	0.686248	0.033163	0.592006
	N250	N	0.326041	0.963128	0.592564
	N251	N	0.327629	0.033472	0.419632
	N252	N	0.919207	0.464388	0.184092
	N253	N	0.094135	0.532285	0.184832
	N254	N	0.095983	0.465979	0.822143
	N255	N	0.920002	0.533740	0.824074
	N256	N	0.186648	0.911368	0.469714
	N257	N	0.186021	0.084685	0.539370
	N258	N	0.826278	0.085684	0.470416
	N259	N	0.824969	0.910216	0.537883
	N260	N	0.472896	0.179433	0.916389
	N261	N	0.540697	0.178808	0.091393
	N262	N	0.472348	0.819273	0.091750
	N263	N	0.541655	0.819265	0.918225
	N264	N	0.472572	0.911344	0.185708
	N265	N	0.540556	0.086623	0.185387
	N266	N	0.472123	0.085311	0.824480
	N267	N	0.540559	0.910412	0.823408
	N268	N	0.919829	0.178836	0.470289
	N269	N	0.093101	0.178541	0.538973
	N270	N	0.092982	0.818503	0.469058
	N271	N	0.919158	0.817520	0.538072
	N272	N	0.187929	0.465380	0.915967
	N273	N	0.186951	0.532836	0.091392
	N274	N	0.827113	0.464157	0.090638
	N275	N	0.827524	0.533689	0.917921
	O276	O	-0.199007	1.210407	-0.212727
	H277	H	-0.205675	1.194160	-0.178469
	H278	H	-0.235988	1.240635	-0.241186
	O279	O	-0.211350	0.216034	-0.040007
	H280	H	-0.212059	0.203813	-0.035350
	H281	H	-0.223734	0.243896	-0.030858
	O282	O	0.816994	-0.026826	1.228641
	H283	H	0.841245	-0.001241	1.241238
	H284	H	0.798921	-0.016046	1.247785
	O285	O	0.690509	0.675645	0.324885
	H286	H	0.685301	0.670410	0.342169
	H287	H	0.706924	0.690718	0.304753
	O288	O	0.327810	0.486423	0.526009
	H289	H	0.337991	0.515361	0.527371
	H290	H	0.340153	0.465262	0.533480
	O291	O	0.535709	0.280138	0.284063
	H292	H	0.566554	0.273766	0.280167
	H293	H	0.549579	0.264045	0.268505
	O294	O	0.780119	-0.225148	1.029773
	H295	H	0.762662	-0.242205	1.053095
	H296	H	0.766477	-0.219791	1.044483
	O297	O	0.460906	0.563532	0.740005
	H298	H	0.464263	0.575383	0.744204
	H299	H	0.428397	0.550952	0.736754
	O300	O	0.222227	0.206443	1.176566
	H301	H	0.255308	0.238141	1.202718
	H302	H	0.229957	0.204846	1.132370
	O303	O	0.728337	0.552739	0.449818
	H304	H	0.723583	0.575362	0.459131
	H305	H	0.731701	0.562724	0.448097
	O306	O	0.714114	0.286403	0.295901
	H307	H	0.723203	0.336191	0.290476
	H308	H	0.740526	0.265515	0.269067
	O309	O	0.544480	0.713913	0.722817
	H310	H	0.531164	0.716938	0.735496
	H311	H	0.531758	0.724414	0.708245
	O312	O	0.528826	0.615840	0.597294
	H313	H	0.520985	0.612091	0.583477
	H314	H	0.518056	0.611407	0.588511
	O315	O	0.895001	1.062784	1.006567
	H316	H	0.920154	1.056551	0.993738
	H317	H	0.879453	1.045607	1.015070
	O318	O	0.984366	1.025675	0.188459
	H319	H	1.012169	1.027108	0.201637
	H320	H	0.989168	1.031604	0.172949
	O321	O	0.715982	0.704330	0.711613
	H322	H	0.741306	0.730263	0.742078
	H323	H	0.672963	0.712603	0.723020
	O324	O	0.974777	0.772963	0.225216
	H325	H	0.977988	0.747245	0.251038
	H326	H	0.989003	0.787542	0.217423
	O327	O	-0.063221	-0.160500	0.912439
	H328	H	-0.067365	-0.149702	0.925062
	H329	H	-0.073453	-0.157572	0.921614
	O330	O	0.443917	0.452090	0.424256
	H331	H	0.433754	0.469755	0.424899
	H332	H	0.441250	0.461386	0.421985
	O333	O	0.553779	0.442930	0.710814
	H334	H	0.543786	0.469596	0.716661
	H335	H	0.562409	0.448361	0.711626
	O336	O	0.524206	0.287024	0.509294
	H337	H	0.542302	0.309797	0.505260
	H338	H	0.536031	0.279254	0.488154
	O339	O	1.110586	-0.011191	1.131223
	H340	H	1.111874	0.003236	1.129408
	H341	H	1.115022	0.004515	1.125141
	O342	O	-0.212165	-0.013616	0.044242
	H343	H	-0.200878	-0.011001	0.054213
	H344	H	-0.229297	-0.011941	0.033018
	O345	O	0.226691	0.780296	0.976023
	H346	H	0.232419	0.776665	0.978717
	H347	H	0.236780	0.770061	0.968494
	O348	O	0.048659	-0.213073	-0.191709
	H349	H	0.030146	-0.204889	-0.192528
	H350	H	0.040447	-0.215531	-0.194016
	O351	O	0.505209	0.477920	0.424122
	H352	H	0.513943	0.481779	0.426632
	H353	H	0.503891	0.476198	0.431713
	O354	O	-0.062496	-0.112481	1.046251
	H355	H	-0.063061	-0.121883	1.045093
	H356	H	-0.066428	-0.107853	1.031117
	O357	O	0.209238	0.792961	0.803209
	H358	H	0.160366	0.791102	0.800687
	H359	H	0.211949	0.812424	0.829638
	O360	O	0.414887	0.660936	0.558254
	H361	H	0.400997	0.670765	0.581281
	H362	H	0.398492	0.671019	0.552228
	O363	O	-0.019266	-0.071942	-0.231489
	H364	H	0.000823	-0.055657	-0.232207
	H365	H	-0.022418	-0.065453	-0.225775
	O366	O	0.300049	0.299601	0.604913
	H367	H	0.313378	0.297150	0.603526
	H368	H	0.296322	0.294861	0.583158
	O369	O	0.715209	0.460925	0.293027
	H370	H	0.716669	0.481361	0.283788
	H371	H	0.702910	0.480288	0.291914
	O372	O	1.191666	0.965865	0.019791
	H373	H	1.202827	0.969212	0.011579
	H374	H	1.193297	0.966951	0.036823
	O375	O	1.218758	0.108360	0.000352
	H376	H	1.227416	0.103288	-0.004504
	H377	H	1.208606	0.106924	-0.030389
	O378	O	0.195617	0.218590	0.028598
	H379	H	0.187118	0.224072	0.027323
	H380	H	0.200352	0.225696	0.009735
	O381	O	-0.018867	1.230005	0.777939
	H382	H	-0.027204	1.263020	0.747052
	H383	H	-0.062852	1.220617	0.782554
	O384	O	0.942797	0.184404	1.072780
	H385	H	0.945225	0.201404	1.076466
	H386	H	0.955867	0.159303	1.068996
	O387	O	0.893238	1.043919	-0.031662
	H388	H	0.898820	1.031241	-0.030262
	H389	H	0.891068	1.043886	-0.039365
	O390	O	0.417797	0.363831	0.518479
	H391	H	0.438049	0.374113	0.520456
	H392	H	0.436523	0.349384	0.507326
	O393	O	0.296871	0.531043	0.289399
	H394	H	0.296299	0.511062	0.290265
	H395	H	0.297683	0.529623	0.276925
	O396	O	-0.212343	1.022713	0.783567
	H397	H	-0.211856	1.028781	0.768556
	H398	H	-0.223754	1.042669	0.781621
	O399	O	-0.026470	0.143728	1.012216
	H400	H	-0.029260	0.146217	1.009386
	H401	H	-0.043188	0.136309	1.026258
	O402	O	0.717762	0.278772	0.486014
	H403	H	0.723774	0.287626	0.451513
	H404	H	0.741987	0.272644	0.473109
	O405	O	1.196888	-0.194793	1.192850
	H406	H	1.181687	-0.176401	1.173699
	H407	H	1.183711	-0.181928	1.183819
	O408	O	0.145638	0.193452	-0.149931
	H409	H	0.167516	0.210650	-0.169532
	H410	H	0.124482	0.199435	-0.147808
	O411	O	0.723972	0.709466	0.542884
	H412	H	0.738395	0.733277	0.559414
	H413	H	0.725933	0.712458	0.576517
	O414	O	0.318906	0.320418	0.325789
	H415	H	0.340396	0.333585	0.338720
	H416	H	0.335734	0.342331	0.338416
	O417	O	0.646360	0.410870	0.562234
	H418	H	0.666629	0.425080	0.554192
	H419	H	0.656733	0.428787	0.571235
	O420	O	0.429544	0.303691	0.502716
	H421	H	0.441868	0.324737	0.484930
	H422	H	0.435379	0.294579	0.489571
	O423	O	0.059375	0.224926	1.230841
	H424	H	0.078095	0.237153	1.249938
	H425	H	0.077409	0.234021	1.239844
	O426	O	0.569824	0.547120	0.278775
	H427	H	0.558950	0.581448	0.280916
	H428	H	0.564377	0.544210	0.294628
	O429	O	0.799402	0.794054	1.207669
	H430	H	0.840771	0.793990	1.209632
	H431	H	0.797980	0.838231	1.208773
	O432	O	0.632216	0.479357	0.528017
	H433	H	0.640896	0.488198	0.530397
	H434	H	0.634046	0.485625	0.544986
	O435	O	0.117066	0.998102	0.234254
	H436	H	0.138271	0.988954	0.232705
	H437	H	0.133193	1.022698	0.234910
	O438	O	0.036298	0.076304	-0.185652
	H439	H	0.040658	0.095543	-0.180754
	H440	H	0.042132	0.083654	-0.190751
	O441	O	-0.010610	0.072194	-0.053826
	H442	H	0.002611	0.079955	-0.067202
	H443	H	-0.001787	0.076630	-0.054094
	O444	O	0.339124	0.540478	0.506027
	H445	H	0.328568	0.548759	0.522359
	H446	H	0.342801	0.553179	0.513069
	O447	O	0.020528	0.763416	0.999802
	H448	H	0.015113	0.766958	1.006682
	H449	H	0.012143	0.765100	0.984782
	O450	O	-0.501631	0.713154	1.335951
	H451	H	-0.501744	0.714273	1.346888
	H452	H	-0.516264	0.725396	1.338714
	O453	O	0.344669	0.674488	0.656992
	H454	H	0.347541	0.637740	0.666687
	H455	H	0.316624	0.702317	0.685273
	O456	O	0.725223	0.532067	0.720395
	H457	H	0.727282	0.549361	0.728038
	H458	H	0.737154	0.555097	0.732647
	O459	O	1.116904	0.986573	-0.066523
	H460	H	1.126630	0.985840	-0.063039
	H461	H	1.133466	0.999424	-0.083109
	O462	O	0.829738	0.197239	0.186813
	H463	H	0.838784	0.172732	0.176298
	H464	H	0.851639	0.192803	0.164592
	O465	O	1.061098	-0.155493	0.142579
	H466	H	1.071718	-0.151652	0.133729
	H467	H	1.051605	-0.137349	0.137363
	O468	O	0.282970	0.724605	0.471069
	H469	H	0.282137	0.723933	0.434506
	H470	H	0.259437	0.750425	0.457780
	O471	O	0.486916	0.293840	0.709142
	H472	H	0.501735	0.297834	0.705205
	H473	H	0.494784	0.286224	0.698235
	O474	O	0.515167	0.677345	0.425226
	H475	H	0.511202	0.672063	0.414790
	H476	H	0.535716	0.674662	0.418148
	O477	O	0.457998	0.523330	1.277907
	H478	H	0.466632	0.531780	1.282238
	H479	H	0.465103	0.522108	1.284782
	O480	O	0.297966	0.709251	0.293804
	H481	H	0.298764	0.680207	0.285244
	H482	H	0.284236	0.724115	0.267965
	O483	O	0.276515	0.262155	0.739568
	H484	H	0.318055	0.274897	0.734195
	H485	H	0.275670	0.258671	0.729115
	O486	O	0.693708	0.307520	0.697178
	H487	H	0.676278	0.334156	0.682959
	H488	H	0.672449	0.315629	0.673298
	O489	O	0.812707	0.807768	-0.190582
	H490	H	0.831948	0.825697	-0.172548
	H491	H	0.828186	0.833932	-0.179161
	O492	O	-0.106412	0.096509	0.034037
	H493	H	-0.102727	0.094806	0.017221
	H494	H	-0.105793	0.109464	0.048197
	O495	O	0.232069	0.964413	0.781435
	H496	H	0.223977	0.950122	0.775816
	H497	H	0.250549	0.958501	0.752613
	O498	O	1.208230	0.971566	1.115069
	H499	H	1.206307	0.981000	1.101913
	H500	H	1.212437	0.988137	1.137224
	O501	O	0.290001	0.489358	0.731145
	H502	H	0.279806	0.476253	0.716767
	H503	H	0.273578	0.464481	0.738706
