data_Molecule from HDF5

_cell_length_a		16.236150
_cell_length_b		16.318879
_cell_length_c		16.300302
_cell_angle_alpha	89.951329
_cell_angle_beta	89.717750
_cell_angle_gamma	89.281196
_symmetry_space_group_name_H-M	'P 1'
_symmetry_Int_Tables_number		1

loop_
	_symmetry_equiv_pos_as_xyz
	x,y,z

loop_
	_atom_site_label
	_atom_site_type_symbol
	_atom_site_fract_x
	_atom_site_fract_y
	_atom_site_fract_z
	H0	H	0.395774	0.838451	0.718775
	H1	H	0.596555	0.161301	0.715064
	H2	H	0.599380	0.835920	0.282054
	H3	H	0.395028	0.161887	0.283146
	H4	H	0.716088	0.398334	0.838903
	H5	H	0.706878	0.596136	0.165107
	H6	H	0.275331	0.604746	0.839078
	H7	H	0.280828	0.401847	0.163600
	H8	H	0.833896	0.720607	0.399933
	H9	H	0.158206	0.716656	0.604972
	H10	H	0.831152	0.287147	0.601032
	H11	H	0.158467	0.281718	0.399231
	H12	H	0.831926	0.402140	0.717372
	H13	H	0.157285	0.601016	0.719261
	H14	H	0.831377	0.602117	0.287023
	H15	H	0.158305	0.397387	0.283334
	H16	H	0.392603	0.718530	0.837494
	H17	H	0.595696	0.717341	0.161827
	H18	H	0.601376	0.281824	0.837552
	H19	H	0.396647	0.284228	0.162564
	H20	H	0.716807	0.837256	0.395978
	H21	H	0.707291	0.163184	0.593630
	H22	H	0.280902	0.837532	0.602285
	H23	H	0.278358	0.161883	0.398352
	H24	H	0.894822	0.338674	0.219800
	H25	H	0.093960	0.662874	0.218935
	H26	H	0.099563	0.338748	0.784223
	H27	H	0.891141	0.662327	0.784114
	H28	H	0.216277	0.896628	0.337845
	H29	H	0.212345	0.100079	0.662024
	H30	H	0.784045	0.099507	0.333914
	H31	H	0.778604	0.900467	0.660354
	H32	H	0.334585	0.220865	0.896622
	H33	H	0.660474	0.211269	0.096523
	H34	H	0.332727	0.784848	0.101572
	H35	H	0.657601	0.779288	0.895606
	H36	H	0.334520	0.897963	0.217570
	H37	H	0.660055	0.095502	0.211548
	H38	H	0.333537	0.103997	0.782165
	H39	H	0.659097	0.897097	0.782541
	H40	H	0.896572	0.218610	0.337605
	H41	H	0.095512	0.215259	0.662984
	H42	H	0.102987	0.778400	0.339137
	H43	H	0.894685	0.785561	0.662145
	H44	H	0.215044	0.338856	0.900402
	H45	H	0.209689	0.663921	0.102981
	H46	H	0.782835	0.336833	0.101698
	H47	H	0.777456	0.662800	0.903151
	H48	H	0.398874	0.117632	0.592439
	H49	H	0.593243	0.883013	0.587439
	H50	H	0.591438	0.114529	0.408662
	H51	H	0.412848	0.885161	0.406436
	H52	H	0.586292	0.402478	0.116456
	H53	H	0.583829	0.591729	0.885689
	H54	H	0.410127	0.601126	0.116315
	H55	H	0.410645	0.410295	0.886379
	H56	H	0.110120	0.581245	0.407564
	H57	H	0.878745	0.594610	0.595298
	H58	H	0.113730	0.398848	0.594039
	H59	H	0.876405	0.403677	0.407226
	H60	H	0.108202	0.409104	0.584491
	H61	H	0.880693	0.594756	0.587886
	H62	H	0.113601	0.592411	0.405978
	H63	H	0.881511	0.409010	0.417318
	H64	H	0.393431	0.593965	0.119201
	H65	H	0.589659	0.588719	0.883960
	H66	H	0.590871	0.403343	0.117599
	H67	H	0.403345	0.407775	0.882846
	H68	H	0.592226	0.118263	0.397353
	H69	H	0.588726	0.882377	0.594216
	H70	H	0.410155	0.113815	0.592687
	H71	H	0.404974	0.885271	0.412111
	H72	H	0.897477	0.618838	0.098555
	H73	H	0.090133	0.386314	0.089499
	H74	H	0.081563	0.616017	0.906981
	H75	H	0.905300	0.383241	0.905352
	H76	H	0.091998	0.917536	0.613437
	H77	H	0.088872	0.095731	0.382209
	H78	H	0.902221	0.103491	0.618590
	H79	H	0.909298	0.904463	0.382649
	H80	H	0.610430	0.087462	0.912140
	H81	H	0.378290	0.092191	0.094860
	H82	H	0.613171	0.907048	0.091607
	H83	H	0.382059	0.911632	0.912866
	H84	H	0.613045	0.903442	0.087235
	H85	H	0.378240	0.097716	0.089966
	H86	H	0.612923	0.085416	0.899480
	H87	H	0.380602	0.914092	0.905603
	H88	H	0.891061	0.090322	0.616887
	H89	H	0.090054	0.086193	0.385627
	H90	H	0.077850	0.905780	0.612965
	H91	H	0.905513	0.910487	0.383031
	H92	H	0.083370	0.614539	0.913096
	H93	H	0.088958	0.385423	0.094965
	H94	H	0.905425	0.614790	0.095922
	H95	H	0.910645	0.386004	0.910166
	H96	H	0.403248	0.112132	0.582567
	H97	H	0.585467	0.886502	0.587480
	H98	H	0.581933	0.113637	0.402730
	H99	H	0.404532	0.882327	0.404140
	H100	H	0.588266	0.406771	0.115506
	H101	H	0.584809	0.585094	0.886682
	H102	H	0.406402	0.583665	0.110712
	H103	H	0.404234	0.414873	0.885525
	H104	H	0.109300	0.588830	0.416924
	H105	H	0.881554	0.588300	0.592172
	H106	H	0.111893	0.412234	0.598074
	H107	H	0.879870	0.415258	0.406473
	H108	H	0.898199	0.616339	0.089199
	H109	H	0.084675	0.387027	0.091193
	H110	H	0.087864	0.617022	0.909005
	H111	H	0.903028	0.384831	0.912786
	H112	H	0.094447	0.900108	0.619770
	H113	H	0.080507	0.091505	0.386734
	H114	H	0.907250	0.088693	0.612083
	H115	H	0.912290	0.911108	0.385626
	H116	H	0.614722	0.096915	0.905086
	H117	H	0.381652	0.091004	0.088358
	H118	H	0.610084	0.909588	0.086703
	H119	H	0.378428	0.906836	0.907203
	C120	C	0.374935	0.007927	0.620760
	C121	C	0.617580	0.991469	0.618730
	C122	C	0.619741	0.007860	0.374263
	C123	C	0.375620	0.991105	0.377425
	C124	C	0.620016	0.375548	0.009115
	C125	C	0.615133	0.619059	0.992453
	C126	C	0.372422	0.623889	0.008490
	C127	C	0.375867	0.380721	0.992122
	C128	C	0.003688	0.620157	0.380538
	C129	C	0.987493	0.621725	0.622405
	C130	C	0.003487	0.378559	0.622706
	C131	C	0.986853	0.378472	0.379305
	C132	C	0.872938	0.508682	0.123742
	C133	C	0.116631	0.493267	0.122501
	C134	C	0.116870	0.509281	0.879213
	C135	C	0.874046	0.491805	0.879877
	C136	C	0.119817	0.876221	0.508903
	C137	C	0.116510	0.120587	0.491871
	C138	C	0.872826	0.123087	0.507671
	C139	C	0.877252	0.879864	0.490772
	C140	C	0.505476	0.121990	0.876023
	C141	C	0.487883	0.120615	0.119278
	C142	C	0.504586	0.877856	0.119648
	C143	C	0.487457	0.878653	0.877738
	C144	C	0.375941	0.886547	0.679376
	C145	C	0.615633	0.113189	0.675496
	C146	C	0.619288	0.885074	0.319377
	C147	C	0.375350	0.113272	0.321059
	C148	C	0.677981	0.377672	0.887249
	C149	C	0.670013	0.617293	0.115671
	C150	C	0.314614	0.623591	0.887170
	C151	C	0.319495	0.381835	0.114904
	C152	C	0.881981	0.680473	0.380840
	C153	C	0.109627	0.677909	0.623184
	C154	C	0.880377	0.324375	0.621171
	C155	C	0.109751	0.320670	0.379580
	C156	C	0.880890	0.381412	0.679274
	C157	C	0.108990	0.620425	0.680267
	C158	C	0.880636	0.621549	0.324642
	C159	C	0.109454	0.377884	0.321695
	C160	C	0.372762	0.680622	0.886525
	C161	C	0.614437	0.677432	0.114019
	C162	C	0.620565	0.320099	0.886452
	C163	C	0.376918	0.323199	0.113962
	C164	C	0.677660	0.885551	0.376096
	C165	C	0.670824	0.114123	0.615141
	C166	C	0.318946	0.886055	0.621232
	C167	C	0.317272	0.113136	0.378492
	C168	C	0.875306	0.386876	0.180780
	C169	C	0.114275	0.614676	0.180115
	C170	C	0.118468	0.387330	0.822490
	C171	C	0.872489	0.613856	0.822939
	C172	C	0.177787	0.876297	0.386665
	C173	C	0.173186	0.119141	0.613689
	C174	C	0.820176	0.120340	0.383864
	C175	C	0.817975	0.880875	0.612321
	C176	C	0.383091	0.181340	0.877012
	C177	C	0.611273	0.174345	0.116938
	C178	C	0.381754	0.822662	0.120320
	C179	C	0.609357	0.818907	0.876816
	C180	C	0.382648	0.879082	0.178148
	C181	C	0.611072	0.116615	0.174023
	C182	C	0.382592	0.122791	0.820165
	C183	C	0.609949	0.877490	0.820472
	C184	C	0.876290	0.179545	0.385440
	C185	C	0.115429	0.176934	0.614224
	C186	C	0.121448	0.817528	0.387504
	C187	C	0.876182	0.824091	0.613503
	C188	C	0.175921	0.387426	0.880364
	C189	C	0.171936	0.615097	0.122553
	C190	C	0.819323	0.386025	0.122194
	C191	C	0.816211	0.614255	0.882127
	C192	C	0.397526	0.092408	0.596348
	C193	C	0.595576	0.906107	0.596349
	C194	C	0.595567	0.093228	0.396286
	C195	C	0.400207	0.906220	0.400687
	C196	C	0.595705	0.397820	0.094312
	C197	C	0.592840	0.595491	0.907717
	C198	C	0.396530	0.599957	0.093354
	C199	C	0.399216	0.404215	0.906973
	C200	C	0.088786	0.594820	0.403405
	C201	C	0.902276	0.599012	0.598662
	C202	C	0.089065	0.400341	0.599130
	C203	C	0.901575	0.402326	0.403278
	C204	C	0.894045	0.594433	0.101063
	C205	C	0.094332	0.408245	0.098681
	C206	C	0.091627	0.593831	0.902694
	C207	C	0.898973	0.406912	0.902792
	C208	C	0.095379	0.900602	0.593399
	C209	C	0.093422	0.097798	0.406742
	C210	C	0.893865	0.100739	0.593563
	C211	C	0.901867	0.902266	0.405919
	C212	C	0.590625	0.097321	0.898856
	C213	C	0.401778	0.099613	0.097649
	C214	C	0.589942	0.900088	0.095435
	C215	C	0.402445	0.903496	0.901700
	Zn216	Zn	0.496326	-0.000225	0.748865
	Zn217	Zn	0.496399	-0.001161	0.247495
	Zn218	Zn	0.745967	0.499272	0.001503
	Zn219	Zn	0.245113	0.501865	0.001330
	Zn220	Zn	-0.003124	0.749411	0.500934
	Zn221	Zn	-0.004516	0.250197	0.501020
	Zn222	Zn	-0.005071	0.500480	0.750964
	Zn223	Zn	-0.005113	0.500223	0.251288
	Zn224	Zn	0.495470	0.750229	-0.000815
	Zn225	Zn	0.496652	0.249402	-0.001364
	Zn226	Zn	0.746449	-0.000273	0.496825
	Zn227	Zn	0.246356	-0.000734	0.499279
	N228	N	0.409941	0.963271	0.679132
	N229	N	0.583254	0.035697	0.677824
	N230	N	0.583862	0.962040	0.318098
	N231	N	0.410824	0.036271	0.320231
	N232	N	0.677862	0.411320	0.964692
	N233	N	0.670545	0.581517	0.039263
	N234	N	0.314343	0.588914	0.964078
	N235	N	0.318673	0.416967	0.038081
	N236	N	0.959350	0.679415	0.414975
	N237	N	0.032831	0.678928	0.587949
	N238	N	0.957792	0.322198	0.586840
	N239	N	0.032597	0.320829	0.414654
	N240	N	0.958481	0.414396	0.680019
	N241	N	0.032135	0.585936	0.679692
	N242	N	0.957289	0.584682	0.324404
	N243	N	0.032052	0.412974	0.321313
	N244	N	0.408016	0.680756	0.962955
	N245	N	0.581032	0.678576	0.036530
	N246	N	0.585077	0.318735	0.963140
	N247	N	0.411098	0.322344	0.036506
	N248	N	0.678054	0.962943	0.409346
	N249	N	0.672132	0.037353	0.580643
	N250	N	0.318245	0.962334	0.585284
	N251	N	0.317119	0.036021	0.412551
	N252	N	0.907779	0.464332	0.181952
	N253	N	0.080662	0.537784	0.180180
	N254	N	0.082574	0.464031	0.821600
	N255	N	0.907846	0.536711	0.821589
	N256	N	0.177150	0.912005	0.463008
	N257	N	0.173891	0.084742	0.536617
	N258	N	0.817918	0.086057	0.460916
	N259	N	0.818485	0.914754	0.535109
	N260	N	0.460372	0.180926	0.911059
	N261	N	0.533653	0.176832	0.083536
	N262	N	0.458702	0.821659	0.084869
	N263	N	0.532199	0.819503	0.911661
	N264	N	0.460001	0.912511	0.178078
	N265	N	0.533405	0.083905	0.175708
	N266	N	0.459601	0.086779	0.819381
	N267	N	0.533116	0.913896	0.820810
	N268	N	0.908053	0.181702	0.463573
	N269	N	0.080783	0.177989	0.537381
	N270	N	0.086264	0.817300	0.464521
	N271	N	0.912430	0.823353	0.537011
	N272	N	0.175305	0.464393	0.914711
	N273	N	0.173294	0.538539	0.087342
	N274	N	0.817645	0.462874	0.087615
	N275	N	0.816982	0.537376	0.916424
	O276	O	0.149383	-0.076194	0.104280
	H277	H	0.150254	-0.089723	0.089669
	H278	H	0.144421	-0.087394	0.099391
	O279	O	0.331456	0.615498	0.390327
	H280	H	0.330499	0.619234	0.390379
	H281	H	0.322184	0.607290	0.377426
	O282	O	1.109819	0.126800	0.145489
	H283	H	1.109438	0.119784	0.151872
	H284	H	1.103312	0.130543	0.136825
	O285	O	-0.020554	0.925104	-0.002674
	H286	H	-0.026602	0.936498	-0.004746
	H287	H	-0.020475	0.933308	-0.002589
	O288	O	0.621078	0.605925	0.647340
	H289	H	0.634087	0.596337	0.639462
	H290	H	0.621913	0.616463	0.664517
	O291	O	1.026861	-0.106227	0.948321
	H292	H	1.013534	-0.116857	0.961133
	H293	H	1.040348	-0.107666	0.934272
	O294	O	1.050828	0.947833	1.041410
	H295	H	1.044398	0.956218	1.039898
	H296	H	1.054832	0.957213	1.038612
	O297	O	0.080831	0.004861	-0.038890
	H298	H	0.085700	-0.002515	-0.057242
	H299	H	0.081806	0.014657	-0.029936
	O300	O	0.436781	0.432994	0.586744
	H301	H	0.435355	0.444986	0.590087
	H302	H	0.430975	0.442074	0.588386
	O303	O	-0.144144	0.962814	0.957091
	H304	H	-0.152621	0.951628	0.950060
	H305	H	-0.130829	0.960808	0.956473
	O306	O	0.603313	0.533955	0.548561
	H307	H	0.613027	0.519506	0.536054
	H308	H	0.588100	0.541738	0.530452
	O309	O	1.051440	-0.106795	-0.053845
	H310	H	1.039397	-0.099742	-0.051305
	H311	H	1.050865	-0.115800	-0.059358
	O312	O	-0.013041	-0.002744	1.027353
	H313	H	-0.019099	-0.011098	1.036751
	H314	H	-0.014244	0.014314	1.038015
	O315	O	0.455317	0.634988	0.459495
	H316	H	0.454746	0.640444	0.453790
	H317	H	0.457412	0.635899	0.472715
	O318	O	0.470637	0.337551	0.577972
	H319	H	0.444908	0.349095	0.578265
	H320	H	0.467839	0.330636	0.576131
	O321	O	0.473487	0.520402	0.536300
	H322	H	0.473376	0.517007	0.527521
	H323	H	0.485116	0.516588	0.539880
	O324	O	0.543356	0.622650	0.532518
	H325	H	0.540701	0.628888	0.524710
	H326	H	0.549608	0.626551	0.547420
	O327	O	-0.088172	1.035216	0.990864
	H328	H	-0.073411	1.045891	0.993806
	H329	H	-0.088611	1.024054	0.986424
	O330	O	0.336370	0.451478	0.544851
	H331	H	0.336206	0.440386	0.542607
	H332	H	0.336119	0.448861	0.546102
	O333	O	0.127593	0.994163	1.022347
	H334	H	0.124438	1.003174	1.026969
	H335	H	0.121811	0.985760	1.041355
	O336	O	0.954283	1.027934	0.901901
	H337	H	0.955447	1.022677	0.902058
	H338	H	0.949914	1.043767	0.908464
	O339	O	0.534608	0.519166	0.631338
	H340	H	0.524332	0.507287	0.644176
	H341	H	0.531111	0.523440	0.636887
	O342	O	1.030331	0.157850	0.002786
	H343	H	1.018349	0.153916	0.000101
	H344	H	1.031857	0.167621	-0.008094
	O345	O	-0.093483	0.870681	-0.110264
	H346	H	-0.089686	0.865640	-0.102727
	H347	H	-0.099932	0.871078	-0.121364
	O348	O	1.077678	0.994048	1.169346
	H349	H	1.077037	0.994210	1.177292
	H350	H	1.077184	1.007661	1.173933
	O351	O	0.880823	1.027524	0.007072
	H352	H	0.876316	1.030913	0.001932
	H353	H	0.883574	1.043561	0.010607
	O354	O	0.441234	0.432321	0.327956
	H355	H	0.442421	0.430677	0.315191
	H356	H	0.452401	0.424011	0.346122
	O357	O	0.649600	0.398935	0.350812
	H358	H	0.657673	0.399372	0.368452
	H359	H	0.650551	0.394071	0.359672
	O360	O	0.028220	0.051218	-0.117907
	H361	H	0.041538	0.045118	-0.123194
	H362	H	0.014436	0.052633	-0.102589
	O363	O	0.539051	0.574972	0.320159
	H364	H	0.541009	0.580427	0.304183
	H365	H	0.550937	0.565391	0.325332
	O366	O	0.561693	0.587426	0.477202
	H367	H	0.562145	0.597798	0.489246
	H368	H	0.559672	0.583395	0.477006
	O369	O	0.533075	0.427122	0.398026
	H370	H	0.538470	0.446440	0.400530
	H371	H	0.544966	0.410466	0.392823
	O372	O	0.469256	0.442671	0.609753
	H373	H	0.446508	0.425910	0.628479
	H374	H	0.469430	0.437952	0.613363
	O375	O	0.403214	0.594483	0.576564
	H376	H	0.415760	0.594818	0.585941
	H377	H	0.398295	0.606165	0.576488
	O378	O	0.325279	0.458859	0.462035
	H379	H	0.327063	0.477790	0.471652
	H380	H	0.329587	0.467207	0.462957
	O381	O	0.363819	0.355067	0.601798
	H382	H	0.354088	0.361471	0.598315
	H383	H	0.366294	0.351479	0.574529
	O384	O	0.065663	0.989121	-0.142133
	H385	H	0.073853	0.982341	-0.147593
	H386	H	0.060875	0.984195	-0.141091
	O387	O	1.012092	0.161550	1.075275
	H388	H	1.013112	0.152980	1.070793
	H389	H	1.009339	0.165455	1.074733
	O390	O	0.622640	0.551183	-0.346940
	H391	H	0.617195	0.549064	-0.351841
	H392	H	0.612294	0.547882	-0.351695
	O393	O	0.882215	1.033435	-0.124371
	H394	H	0.890711	1.039913	-0.121300
	H395	H	0.886142	1.031974	-0.116347
	O396	O	0.533325	0.518935	0.415566
	H397	H	0.534991	0.524613	0.413970
	H398	H	0.528994	0.521957	0.412955
	O399	O	-0.076406	1.097102	1.044077
	H400	H	-0.084822	1.097430	1.041780
	H401	H	-0.067623	1.095782	1.042568
	O402	O	0.969630	0.960872	1.134139
	H403	H	0.974783	0.952532	1.133310
	H404	H	0.982329	0.973426	1.139812
	O405	O	0.549608	0.385018	0.487742
	H406	H	0.556654	0.415242	0.486230
	H407	H	0.535378	0.382857	0.498026
