data_Molecule from HDF5

_cell_length_a		16.324562
_cell_length_b		16.380603
_cell_length_c		16.359818
_cell_angle_alpha	90.044150
_cell_angle_beta	90.009142
_cell_angle_gamma	89.846943
_symmetry_space_group_name_H-M	'P 1'
_symmetry_Int_Tables_number		1

loop_
	_symmetry_equiv_pos_as_xyz
	x,y,z

loop_
	_atom_site_label
	_atom_site_type_symbol
	_atom_site_fract_x
	_atom_site_fract_y
	_atom_site_fract_z
	H0	H	0.388957	0.846457	0.719198
	H1	H	0.599738	0.165185	0.719169
	H2	H	0.595518	0.844530	0.279580
	H3	H	0.391490	0.167251	0.280029
	H4	H	0.715484	0.403329	0.841029
	H5	H	0.711575	0.609125	0.162133
	H6	H	0.268640	0.612801	0.843542
	H7	H	0.276889	0.401431	0.162744
	H8	H	0.833174	0.725052	0.398547
	H9	H	0.151910	0.727870	0.609762
	H10	H	0.832420	0.286097	0.605488
	H11	H	0.152818	0.283705	0.395817
	H12	H	0.834069	0.400761	0.722752
	H13	H	0.151961	0.612609	0.724704
	H14	H	0.832038	0.608044	0.283176
	H15	H	0.153737	0.400445	0.282417
	H16	H	0.387844	0.724847	0.840100
	H17	H	0.595915	0.725939	0.160023
	H18	H	0.601744	0.285982	0.840332
	H19	H	0.391775	0.284324	0.160275
	H20	H	0.712409	0.844038	0.395884
	H21	H	0.711656	0.166518	0.599190
	H22	H	0.277001	0.845315	0.600356
	H23	H	0.272630	0.165342	0.392922
	H24	H	0.893425	0.343263	0.217088
	H25	H	0.095523	0.664506	0.222304
	H26	H	0.102600	0.346982	0.779069
	H27	H	0.886865	0.663795	0.779597
	H28	H	0.210283	0.902739	0.337679
	H29	H	0.216055	0.110074	0.658866
	H30	H	0.778104	0.105142	0.338185
	H31	H	0.774840	0.903394	0.660073
	H32	H	0.334615	0.227692	0.894510
	H33	H	0.656492	0.221603	0.099615
	H34	H	0.332536	0.787963	0.100671
	H35	H	0.654762	0.785439	0.894796
	H36	H	0.332335	0.904947	0.215646
	H37	H	0.655415	0.108820	0.217904
	H38	H	0.333569	0.111858	0.778596
	H39	H	0.655391	0.904051	0.780910
	H40	H	0.890186	0.224105	0.340324
	H41	H	0.100078	0.227012	0.659581
	H42	H	0.095546	0.784465	0.340417
	H43	H	0.889755	0.787468	0.661422
	H44	H	0.212461	0.344818	0.900874
	H45	H	0.213345	0.664456	0.108924
	H46	H	0.776860	0.344382	0.102855
	H47	H	0.776073	0.665747	0.899973
	H48	H	0.403574	0.119338	0.585413
	H49	H	0.583906	0.892758	0.586485
	H50	H	0.595790	0.120331	0.413714
	H51	H	0.403699	0.893202	0.409985
	H52	H	0.592051	0.407810	0.119202
	H53	H	0.582092	0.593732	0.887493
	H54	H	0.408169	0.598819	0.113862
	H55	H	0.403583	0.416655	0.887276
	H56	H	0.106728	0.591544	0.412229
	H57	H	0.879539	0.591192	0.596060
	H58	H	0.106832	0.410800	0.584357
	H59	H	0.878512	0.410767	0.415840
	H60	H	0.104267	0.422032	0.588134
	H61	H	0.877796	0.599740	0.589421
	H62	H	0.107894	0.593909	0.410889
	H63	H	0.879640	0.420668	0.409657
	H64	H	0.402590	0.599623	0.116580
	H65	H	0.584301	0.598292	0.884554
	H66	H	0.587138	0.425167	0.113141
	H67	H	0.403019	0.419367	0.888128
	H68	H	0.584985	0.123676	0.395632
	H69	H	0.587066	0.890743	0.589330
	H70	H	0.404734	0.119690	0.589518
	H71	H	0.400941	0.889537	0.404515
	H72	H	0.889339	0.624883	0.094353
	H73	H	0.092086	0.386554	0.095532
	H74	H	0.079829	0.617544	0.916348
	H75	H	0.898050	0.388502	0.911923
	H76	H	0.081957	0.913717	0.613892
	H77	H	0.078053	0.091134	0.389054
	H78	H	0.906545	0.096500	0.613764
	H79	H	0.897882	0.912977	0.382997
	H80	H	0.609264	0.091871	0.901931
	H81	H	0.376129	0.103949	0.091691
	H82	H	0.610583	0.910899	0.087985
	H83	H	0.380767	0.915677	0.913493
	H84	H	0.605838	0.917310	0.082583
	H85	H	0.382773	0.095938	0.080031
	H86	H	0.611820	0.102674	0.908215
	H87	H	0.380018	0.920747	0.904657
	H88	H	0.899935	0.097007	0.616583
	H89	H	0.079838	0.098848	0.385387
	H90	H	0.088421	0.913443	0.615948
	H91	H	0.906123	0.918648	0.386748
	H92	H	0.083360	0.618059	0.915407
	H93	H	0.077551	0.391491	0.097212
	H94	H	0.911123	0.621161	0.104760
	H95	H	0.911128	0.391380	0.905661
	H96	H	0.407515	0.118361	0.586162
	H97	H	0.582549	0.891140	0.590626
	H98	H	0.574972	0.114944	0.412971
	H99	H	0.406897	0.891667	0.403902
	H100	H	0.574543	0.410782	0.112261
	H101	H	0.587673	0.593514	0.886219
	H102	H	0.404559	0.593844	0.114693
	H103	H	0.406253	0.417948	0.888030
	H104	H	0.107387	0.593873	0.413564
	H105	H	0.882248	0.590389	0.585456
	H106	H	0.110310	0.414404	0.595655
	H107	H	0.874596	0.410989	0.404862
	H108	H	0.907623	0.614647	0.081825
	H109	H	0.084822	0.393321	0.083638
	H110	H	0.080360	0.618336	0.912298
	H111	H	0.908108	0.394574	0.919987
	H112	H	0.086184	0.919020	0.613011
	H113	H	0.086081	0.092708	0.385646
	H114	H	0.902608	0.091170	0.614063
	H115	H	0.907841	0.907979	0.385135
	H116	H	0.605422	0.093802	0.913917
	H117	H	0.380625	0.089495	0.093973
	H118	H	0.607634	0.919442	0.091706
	H119	H	0.376701	0.911366	0.905276
	C120	C	0.373744	0.013873	0.618762
	C121	C	0.615847	0.997242	0.619979
	C122	C	0.615709	0.013449	0.376579
	C123	C	0.372504	0.997437	0.375707
	C124	C	0.616960	0.383808	0.009000
	C125	C	0.615544	0.626879	0.991875
	C126	C	0.371728	0.628044	0.009492
	C127	C	0.373813	0.385186	0.993321
	C128	C	0.001521	0.625283	0.380755
	C129	C	0.984937	0.626891	0.623420
	C130	C	0.001533	0.383879	0.622207
	C131	C	0.984044	0.382661	0.379214
	C132	C	0.872385	0.513862	0.123550
	C133	C	0.115867	0.495667	0.124677
	C134	C	0.114931	0.513352	0.881506
	C135	C	0.873399	0.496690	0.880718
	C136	C	0.115929	0.883457	0.508471
	C137	C	0.114871	0.126571	0.491586
	C138	C	0.872358	0.126002	0.508610
	C139	C	0.872763	0.883637	0.491462
	C140	C	0.503194	0.128552	0.876447
	C141	C	0.486194	0.127024	0.119610
	C142	C	0.501852	0.885184	0.118755
	C143	C	0.485538	0.884333	0.876865
	C144	C	0.371323	0.894056	0.678817
	C145	C	0.617583	0.117558	0.679020
	C146	C	0.615238	0.892511	0.318745
	C147	C	0.372034	0.118710	0.318473
	C148	C	0.676401	0.383653	0.888851
	C149	C	0.673155	0.628261	0.113351
	C150	C	0.309992	0.630052	0.890504
	C151	C	0.316025	0.382822	0.114325
	C152	C	0.881069	0.685122	0.379611
	C153	C	0.104369	0.687694	0.627079
	C154	C	0.880840	0.325275	0.624006
	C155	C	0.104991	0.323506	0.377802
	C156	C	0.881649	0.382349	0.682549
	C157	C	0.104241	0.630259	0.684407
	C158	C	0.880667	0.626979	0.322066
	C159	C	0.105137	0.381601	0.321025
	C160	C	0.369207	0.686293	0.888800
	C161	C	0.615902	0.686558	0.112224
	C162	C	0.619369	0.325429	0.888513
	C163	C	0.373490	0.324780	0.113026
	C164	C	0.673338	0.892219	0.376571
	C165	C	0.673341	0.118337	0.619457
	C166	C	0.315651	0.893231	0.619549
	C167	C	0.312719	0.117629	0.374661
	C168	C	0.873338	0.391927	0.179274
	C169	C	0.115362	0.616415	0.183516
	C170	C	0.119440	0.394532	0.819994
	C171	C	0.870156	0.616449	0.820404
	C172	C	0.172062	0.883228	0.386644
	C173	C	0.175633	0.128439	0.611329
	C174	C	0.816026	0.125117	0.386781
	C175	C	0.813967	0.884180	0.612270
	C176	C	0.382671	0.188249	0.875504
	C177	C	0.607922	0.183765	0.119381
	C178	C	0.380536	0.827443	0.119542
	C179	C	0.606349	0.824962	0.875821
	C180	C	0.380616	0.885511	0.176842
	C181	C	0.607234	0.127747	0.178363
	C182	C	0.382032	0.130111	0.818119
	C183	C	0.606833	0.883992	0.819147
	C184	C	0.871559	0.184362	0.387999
	C185	C	0.117587	0.186474	0.611894
	C186	C	0.115277	0.824104	0.388091
	C187	C	0.871223	0.826375	0.612864
	C188	C	0.174433	0.393373	0.880525
	C189	C	0.173912	0.616453	0.127003
	C190	C	0.815219	0.392509	0.122768
	C191	C	0.814788	0.617561	0.880240
	C192	C	0.398190	0.097298	0.594103
	C193	C	0.591436	0.913233	0.595934
	C194	C	0.592274	0.097712	0.400372
	C195	C	0.396946	0.913195	0.399230
	C196	C	0.591919	0.407850	0.093173
	C197	C	0.591836	0.602222	0.907984
	C198	C	0.397607	0.604055	0.093463
	C199	C	0.397457	0.410730	0.909624
	C200	C	0.085516	0.600322	0.405269
	C201	C	0.901703	0.601293	0.597407
	C202	C	0.085254	0.408662	0.596898
	C203	C	0.899496	0.407047	0.403325
	C204	C	0.895718	0.598095	0.100516
	C205	C	0.091823	0.412123	0.099397
	C206	C	0.088685	0.596381	0.907270
	C207	C	0.898547	0.413382	0.905310
	C208	C	0.092282	0.908211	0.592381
	C209	C	0.088974	0.101542	0.408313
	C210	C	0.896118	0.102023	0.592863
	C211	C	0.896988	0.906616	0.406950
	C212	C	0.586882	0.103315	0.900656
	C213	C	0.401892	0.103320	0.095537
	C214	C	0.586204	0.908997	0.094388
	C215	C	0.401252	0.908744	0.900661
	Zn216	Zn	0.494139	0.006296	0.748230
	Zn217	Zn	0.494464	0.006092	0.247664
	Zn218	Zn	0.744594	0.505542	0.001975
	Zn219	Zn	0.244120	0.505585	0.003295
	Zn220	Zn	-0.006648	0.754832	0.501687
	Zn221	Zn	-0.007547	0.254758	0.500524
	Zn222	Zn	-0.005794	0.505160	0.751665
	Zn223	Zn	-0.007084	0.503895	0.251746
	Zn224	Zn	0.493662	0.755767	-0.001015
	Zn225	Zn	0.495302	0.256088	-0.000888
	Zn226	Zn	0.744384	0.005037	0.498793
	Zn227	Zn	0.244712	0.005599	0.498093
	N228	N	0.406706	0.970056	0.678712
	N229	N	0.582355	0.041309	0.679281
	N230	N	0.580192	0.968833	0.318727
	N231	N	0.408422	0.042997	0.319084
	N232	N	0.674627	0.419434	0.964774
	N233	N	0.673135	0.591977	0.037507
	N234	N	0.311430	0.594742	0.966864
	N235	N	0.315982	0.419763	0.038989
	N236	N	0.957257	0.684317	0.415260
	N237	N	0.028946	0.685826	0.589772
	N238	N	0.956644	0.325848	0.587340
	N239	N	0.028737	0.324358	0.413475
	N240	N	0.957750	0.417831	0.681727
	N241	N	0.029203	0.592897	0.682134
	N242	N	0.956521	0.590395	0.322639
	N243	N	0.028954	0.417771	0.321886
	N244	N	0.407028	0.684942	0.963830
	N245	N	0.580773	0.685932	0.035841
	N246	N	0.582950	0.325595	0.964316
	N247	N	0.408707	0.326009	0.036660
	N248	N	0.673889	0.968416	0.411802
	N249	N	0.672360	0.042505	0.583494
	N250	N	0.316745	0.968843	0.583038
	N251	N	0.312581	0.041049	0.409129
	N252	N	0.907791	0.468272	0.180065
	N253	N	0.080047	0.540379	0.182183
	N254	N	0.083236	0.470406	0.820453
	N255	N	0.906141	0.540394	0.820637
	N256	N	0.172922	0.919067	0.462648
	N257	N	0.174003	0.091961	0.535567
	N258	N	0.816246	0.089559	0.462858
	N259	N	0.814674	0.918850	0.535793
	N260	N	0.458992	0.187401	0.910984
	N261	N	0.531580	0.183616	0.083770
	N262	N	0.456864	0.827355	0.083847
	N263	N	0.529684	0.824659	0.910572
	N264	N	0.457075	0.920536	0.176562
	N265	N	0.530483	0.093341	0.178771
	N266	N	0.458035	0.093774	0.818262
	N267	N	0.530621	0.919952	0.819439
	N268	N	0.905979	0.184801	0.464645
	N269	N	0.080643	0.185420	0.536376
	N270	N	0.081472	0.823725	0.464972
	N271	N	0.907257	0.825979	0.536887
	N272	N	0.171738	0.468397	0.918139
	N273	N	0.174565	0.540421	0.091239
	N274	N	0.814094	0.469413	0.088998
	N275	N	0.816477	0.542199	0.916952
	O276	O	0.618047	0.343049	0.361646
	H277	H	0.605596	0.333400	0.361383
	H278	H	0.612044	0.336916	0.361216
	O279	O	0.331404	0.507599	0.706162
	H280	H	0.316323	0.520116	0.720065
	H281	H	0.316504	0.526027	0.680518
	O282	O	0.551907	0.564241	0.415586
	H283	H	0.553988	0.554294	0.419996
	H284	H	0.565205	0.575595	0.407616
	O285	O	1.140260	-0.064001	-0.069414
	H286	H	1.143753	-0.071445	-0.081901
	H287	H	1.134187	-0.079481	-0.083352
	O288	O	-0.147508	0.026445	1.132037
	H289	H	-0.135103	0.027690	1.144774
	H290	H	-0.143429	0.018622	1.114439
	O291	O	0.502561	0.372288	0.323552
	H292	H	0.486328	0.381201	0.341098
	H293	H	0.507457	0.355285	0.318710
	O294	O	0.652360	0.385099	0.513981
	H295	H	0.632004	0.381702	0.517029
	H296	H	0.658301	0.394124	0.514930
	O297	O	1.066420	1.151585	1.138264
	H298	H	1.072096	1.168512	1.146531
	H299	H	1.056958	1.144389	1.137850
	O300	O	-0.047725	-0.158165	0.110090
	H301	H	-0.034453	-0.149601	0.105250
	H302	H	-0.047262	-0.169532	0.108461
	O303	O	0.574609	0.671160	0.447440
	H304	H	0.555834	0.661293	0.458875
	H305	H	0.566579	0.677529	0.455351
	O306	O	1.138481	0.006639	0.192034
	H307	H	1.169201	0.016291	0.206207
	H308	H	1.133714	0.040051	0.187131
	O309	O	0.503795	0.533892	0.650196
	H310	H	0.510650	0.528172	0.641389
	H311	H	0.482617	0.541706	0.653213
	O312	O	0.981725	1.025512	0.167713
	H313	H	0.989379	1.026335	0.145097
	H314	H	0.984640	1.013399	0.177532
	O315	O	0.331361	0.395489	0.438673
	H316	H	0.318219	0.396804	0.443158
	H317	H	0.334641	0.405248	0.451785
	O318	O	0.475577	0.484311	0.586376
	H319	H	0.468306	0.498045	0.596737
	H320	H	0.489418	0.496205	0.593859
	O321	O	1.148324	0.162921	1.050526
	H322	H	1.146337	0.156221	1.052770
	H323	H	1.146725	0.172212	1.031901
	O324	O	-0.158451	-0.023885	0.917784
	H325	H	-0.154799	-0.026408	0.937380
	H326	H	-0.174419	-0.027273	0.929068
	O327	O	0.427557	0.572643	0.501895
	H328	H	0.430386	0.561145	0.508807
	H329	H	0.421783	0.579285	0.499212
	O330	O	0.646252	0.606223	0.444066
	H331	H	0.637231	0.596927	0.451202
	H332	H	0.648128	0.589084	0.447735
	O333	O	1.176896	0.868147	1.203765
	H334	H	1.178216	0.845382	1.212211
	H335	H	1.194265	0.865824	1.206975
	O336	O	0.681295	0.676866	0.679168
	H337	H	0.677669	0.676717	0.670006
	H338	H	0.678826	0.655696	0.673724
	O339	O	0.979066	0.007235	0.826580
	H340	H	0.966600	0.008141	0.816853
	H341	H	0.981428	-0.016785	0.827774
	O342	O	0.040808	1.165799	1.044324
	H343	H	0.034001	1.150071	1.023964
	H344	H	0.029798	1.162680	1.041175
	O345	O	-0.091666	1.076617	1.043571
	H346	H	-0.093565	1.078777	1.036455
	H347	H	-0.076412	1.064425	1.047535
	O348	O	0.273590	0.719141	0.454781
	H349	H	0.296279	0.710763	0.409094
	H350	H	0.237174	0.758005	0.447946
	O351	O	0.024969	0.075103	-0.186248
	H352	H	0.027677	0.095961	-0.196518
	H353	H	0.009920	0.072153	-0.181534
	O354	O	0.800142	1.085202	-0.145639
	H355	H	0.800582	1.086817	-0.139119
	H356	H	0.787324	1.078622	-0.131864
	O357	O	-0.177009	0.903479	0.083752
	H358	H	-0.161219	0.882399	0.087676
	H359	H	-0.192273	0.897909	0.103505
	O360	O	0.526340	0.714714	0.713654
	H361	H	0.532204	0.718474	0.724900
	H362	H	0.537454	0.726319	0.724239
	O363	O	0.319165	0.331983	0.677443
	H364	H	0.350491	0.336690	0.688804
	H365	H	0.323610	0.358052	0.687373
	O366	O	0.543271	0.312757	0.569574
	H367	H	0.547538	0.311610	0.563979
	H368	H	0.527406	0.319146	0.559733
	O369	O	0.604327	0.505175	0.664009
	H370	H	0.616406	0.498039	0.678221
	H371	H	0.592410	0.511946	0.652543
	O372	O	0.363854	0.648344	0.318153
	H373	H	0.354147	0.622338	0.300115
	H374	H	0.389832	0.658025	0.325941
	O375	O	0.676850	0.322420	0.439404
	H376	H	0.677711	0.313755	0.418787
	H377	H	0.663362	0.330867	0.442783
	O378	O	0.542640	0.677579	0.473383
	H379	H	0.562862	0.683223	0.468725
	H380	H	0.560464	0.668661	0.468773
	O381	O	0.634928	0.552655	0.377090
	H382	H	0.637015	0.542815	0.369058
	H383	H	0.644536	0.560471	0.380816
	O384	O	-0.077541	0.822652	0.939725
	H385	H	-0.087533	0.830453	0.954543
	H386	H	-0.087528	0.825383	0.933133
	O387	O	0.949296	1.184567	-0.081757
	H388	H	0.948360	1.184121	-0.091230
	H389	H	0.945626	1.177236	-0.066703
	O390	O	0.358261	0.623107	0.546606
	H391	H	0.360219	0.632683	0.534605
	H392	H	0.359797	0.640494	0.541628
	O393	O	1.299833	-0.459837	0.346591
	H394	H	1.294884	-0.462177	0.339361
	H395	H	1.300152	-0.462442	0.347623
	O396	O	0.009420	1.158247	0.904485
	H397	H	0.019903	1.169738	0.915506
	H398	H	-0.000075	1.130341	0.905163
	O399	O	0.550752	0.482099	0.475156
	H400	H	0.535045	0.472662	0.477444
	H401	H	0.550504	0.488259	0.476776
	O402	O	0.946695	0.003659	1.066968
	H403	H	0.947493	0.015087	1.049625
	H404	H	0.952439	0.017050	1.080913
	O405	O	-0.173761	0.061545	-0.009027
	H406	H	-0.172750	0.078610	-0.013119
	H407	H	-0.182559	0.056186	-0.020254
	O408	O	1.098793	0.940802	0.901408
	H409	H	1.079338	0.935556	0.895525
	H410	H	1.112289	0.940896	0.888001
	O411	O	1.160684	0.938815	-0.080355
	H412	H	1.164707	0.953441	-0.071832
	H413	H	1.156145	0.929537	-0.058620
	O414	O	0.076427	-0.141389	1.062517
	H415	H	0.090920	-0.149240	1.050599
	H416	H	0.076037	-0.117730	1.060916
	O417	O	0.451931	0.314635	0.703071
	H418	H	0.466144	0.320492	0.704960
	H419	H	0.461040	0.304925	0.722206
	O420	O	0.003679	0.855337	-0.097567
	H421	H	-0.002825	0.850522	-0.108382
	H422	H	0.023988	0.864487	-0.094347
	O423	O	1.548712	-0.584957	-0.694216
	H424	H	1.542770	-0.599908	-0.690072
	H425	H	1.547203	-0.603223	-0.695469
	O426	O	0.128723	-0.148624	0.937551
	H427	H	0.142384	-0.154032	0.942328
	H428	H	0.112765	-0.143903	0.938330
	O429	O	0.282895	0.317317	0.541310
	H430	H	0.288518	0.321705	0.577739
	H431	H	0.251668	0.295178	0.553695
