data_Molecule from HDF5

_cell_length_a		16.232025
_cell_length_b		16.326961
_cell_length_c		16.425362
_cell_angle_alpha	90.024191
_cell_angle_beta	90.329488
_cell_angle_gamma	89.529296
_symmetry_space_group_name_H-M	'P 1'
_symmetry_Int_Tables_number		1

loop_
	_symmetry_equiv_pos_as_xyz
	x,y,z

loop_
	_atom_site_label
	_atom_site_type_symbol
	_atom_site_fract_x
	_atom_site_fract_y
	_atom_site_fract_z
	H0	H	0.397565	0.831995	0.728279
	H1	H	0.603013	0.152737	0.729313
	H2	H	0.602059	0.831430	0.290048
	H3	H	0.392900	0.154399	0.290452
	H4	H	0.713164	0.393252	0.846948
	H5	H	0.716430	0.593250	0.169988
	H6	H	0.275622	0.596362	0.849193
	H7	H	0.285342	0.393195	0.171767
	H8	H	0.836164	0.709135	0.409192
	H9	H	0.162312	0.704162	0.613748
	H10	H	0.837335	0.273018	0.612216
	H11	H	0.161193	0.272121	0.410339
	H12	H	0.835621	0.390113	0.725049
	H13	H	0.159779	0.590573	0.730229
	H14	H	0.835407	0.594743	0.291711
	H15	H	0.159944	0.385231	0.292535
	H16	H	0.393376	0.712084	0.847808
	H17	H	0.599749	0.710503	0.169977
	H18	H	0.601543	0.273548	0.848592
	H19	H	0.397362	0.274374	0.168630
	H20	H	0.716303	0.830097	0.408588
	H21	H	0.716671	0.153084	0.611581
	H22	H	0.288246	0.828126	0.605676
	H23	H	0.277478	0.153727	0.407231
	H24	H	0.895370	0.329515	0.227291
	H25	H	0.101004	0.650181	0.232712
	H26	H	0.103617	0.329873	0.791960
	H27	H	0.890164	0.651266	0.787473
	H28	H	0.212725	0.890791	0.347542
	H29	H	0.217458	0.092286	0.669384
	H30	H	0.778218	0.094595	0.350220
	H31	H	0.779729	0.887345	0.669562
	H32	H	0.335654	0.211694	0.906855
	H33	H	0.660739	0.209418	0.110926
	H34	H	0.336555	0.777922	0.110597
	H35	H	0.658946	0.773690	0.906939
	H36	H	0.335761	0.894750	0.224170
	H37	H	0.658183	0.098351	0.231535
	H38	H	0.337801	0.100743	0.786895
	H39	H	0.659461	0.888570	0.791744
	H40	H	0.893647	0.210793	0.351198
	H41	H	0.105130	0.210588	0.669453
	H42	H	0.100710	0.770143	0.349650
	H43	H	0.898219	0.772496	0.670394
	H44	H	0.217951	0.330331	0.910149
	H45	H	0.214440	0.652475	0.114700
	H46	H	0.782603	0.328889	0.107864
	H47	H	0.779795	0.654551	0.908276
	H48	H	0.412210	0.103741	0.594179
	H49	H	0.598275	0.875854	0.596167
	H50	H	0.591311	0.107120	0.421742
	H51	H	0.410705	0.877830	0.413877
	H52	H	0.584501	0.401672	0.120811
	H53	H	0.586858	0.585409	0.894737
	H54	H	0.405552	0.576905	0.120945
	H55	H	0.409193	0.395177	0.893263
	H56	H	0.115205	0.583655	0.422574
	H57	H	0.882614	0.588904	0.592349
	H58	H	0.116375	0.397757	0.605174
	H59	H	0.879451	0.398382	0.411721
	H60	H	0.113591	0.398737	0.599075
	H61	H	0.886286	0.574041	0.597726
	H62	H	0.110026	0.573843	0.426103
	H63	H	0.882896	0.395736	0.425116
	H64	H	0.415775	0.590311	0.121069
	H65	H	0.588447	0.585209	0.895246
	H66	H	0.592860	0.395893	0.126619
	H67	H	0.398349	0.405713	0.893123
	H68	H	0.586969	0.108512	0.415305
	H69	H	0.588129	0.875062	0.610372
	H70	H	0.401491	0.108710	0.596353
	H71	H	0.408239	0.878623	0.418638
	H72	H	0.904933	0.607304	0.101465
	H73	H	0.091514	0.374446	0.104914
	H74	H	0.081074	0.604448	0.915258
	H75	H	0.907099	0.378529	0.921302
	H76	H	0.090215	0.887870	0.626929
	H77	H	0.079874	0.083724	0.397474
	H78	H	0.912897	0.078706	0.621959
	H79	H	0.911866	0.888153	0.393665
	H80	H	0.611688	0.085250	0.927819
	H81	H	0.383397	0.087725	0.094450
	H82	H	0.612483	0.911020	0.102333
	H83	H	0.385231	0.907495	0.923390
	H84	H	0.617403	0.897708	0.106330
	H85	H	0.384730	0.080452	0.099791
	H86	H	0.611559	0.073456	0.916558
	H87	H	0.382191	0.909179	0.912321
	H88	H	0.910922	0.083545	0.624836
	H89	H	0.091691	0.086238	0.392386
	H90	H	0.103629	0.899137	0.627446
	H91	H	0.898003	0.903324	0.393488
	H92	H	0.081030	0.602590	0.925213
	H93	H	0.087765	0.376499	0.102423
	H94	H	0.908970	0.606270	0.103779
	H95	H	0.902617	0.374779	0.915409
	H96	H	0.409830	0.108578	0.604955
	H97	H	0.581519	0.881743	0.595653
	H98	H	0.583155	0.105640	0.421106
	H99	H	0.405284	0.875846	0.414266
	H100	H	0.594404	0.406413	0.123435
	H101	H	0.587158	0.583333	0.894871
	H102	H	0.400083	0.591432	0.127192
	H103	H	0.412319	0.408282	0.897816
	H104	H	0.113912	0.575090	0.414793
	H105	H	0.879417	0.584569	0.607398
	H106	H	0.113466	0.403293	0.602410
	H107	H	0.885536	0.408003	0.419326
	H108	H	0.908695	0.604471	0.099632
	H109	H	0.091889	0.375999	0.100153
	H110	H	0.089137	0.607067	0.921551
	H111	H	0.911263	0.377073	0.914560
	H112	H	0.088246	0.903834	0.621007
	H113	H	0.088768	0.074401	0.397655
	H114	H	0.907128	0.079148	0.623925
	H115	H	0.916687	0.906698	0.400764
	H116	H	0.617931	0.088469	0.913298
	H117	H	0.380737	0.087827	0.102641
	H118	H	0.613065	0.900110	0.092625
	H119	H	0.380079	0.899608	0.917252
	C120	C	0.378020	0.000601	0.629452
	C121	C	0.620693	0.983488	0.631533
	C122	C	0.619182	0.000832	0.388175
	C123	C	0.376024	0.984409	0.386137
	C124	C	0.620200	0.370999	0.017169
	C125	C	0.619174	0.614810	1.000772
	C126	C	0.375004	0.616504	0.017129
	C127	C	0.377711	0.372542	1.001126
	C128	C	0.006293	0.610459	0.389558
	C129	C	0.990001	0.612040	0.631739
	C130	C	0.007134	0.369709	0.631831
	C131	C	0.990011	0.369354	0.389169
	C132	C	0.876871	0.499376	0.131030
	C133	C	0.120147	0.482147	0.133449
	C134	C	0.117225	0.498875	0.890235
	C135	C	0.875440	0.483376	0.886691
	C136	C	0.122098	0.867489	0.518557
	C137	C	0.119567	0.112222	0.501293
	C138	C	0.877478	0.112603	0.518617
	C139	C	0.878198	0.869257	0.502006
	C140	C	0.507088	0.114945	0.887439
	C141	C	0.489575	0.115570	0.130489
	C142	C	0.506852	0.873473	0.129998
	C143	C	0.489048	0.873132	0.887688
	C144	C	0.378736	0.879681	0.688212
	C145	C	0.621802	0.104485	0.689895
	C146	C	0.620820	0.879517	0.329704
	C147	C	0.374684	0.106054	0.329473
	C148	C	0.675674	0.372494	0.895536
	C149	C	0.677459	0.613533	0.121799
	C150	C	0.315335	0.616045	0.896992
	C151	C	0.322601	0.373264	0.122928
	C152	C	0.884349	0.669724	0.389578
	C153	C	0.112814	0.667170	0.632936
	C154	C	0.885397	0.312221	0.630980
	C155	C	0.112281	0.310870	0.390209
	C156	C	0.884585	0.370254	0.687461
	C157	C	0.111647	0.610562	0.690921
	C158	C	0.884382	0.613326	0.330775
	C159	C	0.111694	0.367080	0.331532
	C160	C	0.373938	0.673698	0.896150
	C161	C	0.619303	0.671872	0.121701
	C162	C	0.619996	0.313174	0.896442
	C163	C	0.378798	0.314484	0.121503
	C164	C	0.677426	0.878688	0.388771
	C165	C	0.678548	0.104649	0.631481
	C166	C	0.324121	0.877748	0.627323
	C167	C	0.316872	0.105548	0.387223
	C168	C	0.876627	0.377720	0.188114
	C169	C	0.120094	0.602592	0.192767
	C170	C	0.120764	0.377992	0.831674
	C171	C	0.872801	0.603782	0.827637
	C172	C	0.176001	0.869747	0.396266
	C173	C	0.178448	0.111541	0.621680
	C174	C	0.818048	0.113644	0.398415
	C175	C	0.819433	0.868640	0.621915
	C176	C	0.384932	0.173683	0.886784
	C177	C	0.611757	0.171998	0.130996
	C178	C	0.384889	0.816581	0.129650
	C179	C	0.610714	0.813211	0.887864
	C180	C	0.384484	0.874754	0.186142
	C181	C	0.610297	0.116789	0.190996
	C182	C	0.385780	0.117998	0.827408
	C183	C	0.611071	0.870553	0.830674
	C184	C	0.875416	0.171430	0.398690
	C185	C	0.122537	0.170645	0.621532
	C186	C	0.120355	0.809680	0.397576
	C187	C	0.878441	0.811562	0.622519
	C188	C	0.177914	0.378187	0.890590
	C189	C	0.176395	0.603793	0.133726
	C190	C	0.820834	0.377516	0.128461
	C191	C	0.817890	0.605520	0.887920
	C192	C	0.400996	0.085010	0.605482
	C193	C	0.596325	0.899441	0.607581
	C194	C	0.594314	0.084898	0.412141
	C195	C	0.400914	0.899566	0.409091
	C196	C	0.597246	0.394465	0.101575
	C197	C	0.594600	0.591361	0.916618
	C198	C	0.399901	0.593108	0.101108
	C199	C	0.400189	0.396149	0.916756
	C200	C	0.090820	0.584929	0.414113
	C201	C	0.904984	0.589343	0.606730
	C202	C	0.092299	0.393123	0.608942
	C203	C	0.904923	0.393659	0.412137
	C204	C	0.900599	0.584079	0.108321
	C205	C	0.097252	0.397600	0.109352
	C206	C	0.091149	0.582870	0.913832
	C207	C	0.899787	0.398561	0.910334
	C208	C	0.100453	0.890255	0.603296
	C209	C	0.094050	0.088490	0.417603
	C210	C	0.902974	0.087600	0.601964
	C211	C	0.901875	0.892659	0.417846
	C212	C	0.591719	0.089772	0.912067
	C213	C	0.404953	0.092180	0.106033
	C214	C	0.592090	0.896263	0.107132
	C215	C	0.404415	0.898102	0.910912
	Zn216	Zn	0.498739	-0.006607	0.759323
	Zn217	Zn	0.498382	-0.006559	0.258679
	Zn218	Zn	0.748710	0.492063	0.008828
	Zn219	Zn	0.247588	0.492533	0.010877
	Zn220	Zn	-0.000105	0.739269	0.510230
	Zn221	Zn	-0.001519	0.241772	0.510779
	Zn222	Zn	-0.002569	0.490588	0.759096
	Zn223	Zn	-0.002392	0.489841	0.260546
	Zn224	Zn	0.497547	0.745471	0.008844
	Zn225	Zn	0.498405	0.243310	0.008442
	Zn226	Zn	0.748646	-0.008530	0.509630
	Zn227	Zn	0.248642	-0.008795	0.508409
	N228	N	0.411331	0.957124	0.689621
	N229	N	0.586702	0.028096	0.690195
	N230	N	0.585445	0.956417	0.329184
	N231	N	0.410678	0.029556	0.328678
	N232	N	0.676242	0.407585	0.971613
	N233	N	0.677660	0.578920	0.045466
	N234	N	0.315572	0.581519	0.973346
	N235	N	0.321732	0.408629	0.047055
	N236	N	0.961320	0.668198	0.425224
	N237	N	0.035940	0.668521	0.597023
	N238	N	0.962651	0.311734	0.597119
	N239	N	0.035689	0.312100	0.425286
	N240	N	0.961369	0.405094	0.688046
	N241	N	0.034171	0.577376	0.690297
	N242	N	0.961159	0.577313	0.330487
	N243	N	0.034579	0.402608	0.330618
	N244	N	0.409909	0.674403	0.972100
	N245	N	0.584108	0.672906	0.045359
	N246	N	0.586434	0.311980	0.973237
	N247	N	0.412117	0.313771	0.044665
	N248	N	0.676612	0.954939	0.424488
	N249	N	0.678137	0.028403	0.596042
	N250	N	0.323313	0.953993	0.591556
	N251	N	0.317747	0.028849	0.421759
	N252	N	0.910924	0.454494	0.189628
	N253	N	0.086008	0.525995	0.192599
	N254	N	0.083591	0.454063	0.831450
	N255	N	0.907818	0.526899	0.826811
	N256	N	0.177399	0.904627	0.472480
	N257	N	0.176769	0.075720	0.545892
	N258	N	0.819113	0.077911	0.473984
	N259	N	0.819395	0.903884	0.545881
	N260	N	0.461258	0.171982	0.923152
	N261	N	0.535831	0.171114	0.093737
	N262	N	0.461990	0.815607	0.095286
	N263	N	0.533714	0.814574	0.922439
	N264	N	0.461382	0.909301	0.186430
	N265	N	0.533332	0.082666	0.191059
	N266	N	0.462851	0.082241	0.827441
	N267	N	0.534684	0.907399	0.830545
	N268	N	0.911562	0.171065	0.474618
	N269	N	0.086414	0.171021	0.545750
	N270	N	0.087821	0.807977	0.474670
	N271	N	0.914320	0.811947	0.547062
	N272	N	0.175926	0.454288	0.926278
	N273	N	0.176588	0.527820	0.097545
	N274	N	0.820439	0.454263	0.094026
	N275	N	0.819477	0.529578	0.923909
	O276	O	0.413600	0.565958	0.373303
	H277	H	0.430514	0.581072	0.375294
	H278	H	0.406835	0.585710	0.357630
	O279	O	0.562447	0.394035	0.328416
	H280	H	0.553115	0.391786	0.323528
	H281	H	0.571835	0.397306	0.339032
	O282	O	1.075471	0.075611	0.890153
	H283	H	1.081564	0.087947	0.900145
	H284	H	1.072630	0.066507	0.899045
	O285	O	0.483360	0.568244	0.359532
	H286	H	0.475431	0.548190	0.356857
	H287	H	0.469923	0.572931	0.365430
	O288	O	0.865707	1.116998	0.878661
	H289	H	0.883310	1.121840	0.879761
	H290	H	0.864349	1.120325	0.897866
	O291	O	-0.193661	0.876919	0.061701
	H292	H	-0.199214	0.865194	0.065163
	H293	H	-0.179734	0.885750	0.070305
	O294	O	0.700205	0.297207	0.432331
	H295	H	0.706583	0.279995	0.429389
	H296	H	0.694186	0.305268	0.429141
	O297	O	0.588312	0.627628	0.540655
	H298	H	0.576551	0.626797	0.534902
	H299	H	0.597288	0.630668	0.542670
	O300	O	0.362564	0.380299	0.656595
	H301	H	0.359136	0.377782	0.626973
	H302	H	0.353092	0.397977	0.660456
	O303	O	0.440675	0.469566	0.649528
	H304	H	0.427009	0.461711	0.666062
	H305	H	0.422280	0.465729	0.623174
	O306	O	0.379405	0.569517	0.511243
	H307	H	0.370343	0.573562	0.513531
	H308	H	0.383787	0.583084	0.505147
	O309	O	0.524327	0.459866	0.332316
	H310	H	0.539989	0.456429	0.326722
	H311	H	0.522380	0.461001	0.334803
	O312	O	0.152031	-0.001849	0.117578
	H313	H	0.167223	0.000496	0.117604
	H314	H	0.154695	0.006829	0.119458
	O315	O	0.381717	0.683827	0.313583
	H316	H	0.381641	0.698210	0.296444
	H317	H	0.391354	0.681239	0.308995
	O318	O	-0.097192	1.081268	0.968123
	H319	H	-0.105887	1.070700	0.961018
	H320	H	-0.111775	1.073994	0.960849
	O321	O	0.531652	0.500969	0.552912
	H322	H	0.536090	0.507268	0.563741
	H323	H	0.538147	0.517946	0.537054
	O324	O	-0.141249	0.915623	0.115659
	H325	H	-0.138905	0.899993	0.110919
	H326	H	-0.146356	0.911178	0.121860
	O327	O	1.122435	1.023384	0.155917
	H328	H	1.121366	1.030454	0.144166
	H329	H	1.114131	1.028230	0.159406
	O330	O	0.191726	-0.209392	1.047150
	H331	H	0.193626	-0.199877	1.019699
	H332	H	0.199446	-0.213847	1.024010
	O333	O	-0.123211	0.046273	0.882886
	H334	H	-0.132114	0.059101	0.882320
	H335	H	-0.127639	0.053007	0.884488
	O336	O	0.495424	0.417431	0.553789
	H337	H	0.496331	0.421727	0.543424
	H338	H	0.489186	0.405863	0.558059
	O339	O	1.136318	0.032347	0.058032
	H340	H	1.116914	0.036891	0.063526
	H341	H	1.135037	0.039980	0.044685
	O342	O	-0.025109	0.005851	-0.014226
	H343	H	-0.030994	0.019127	-0.015186
	H344	H	-0.005861	-0.003268	-0.025245
	O345	O	0.853287	0.134263	1.056814
	H346	H	0.837466	0.140108	1.055776
	H347	H	0.849874	0.127325	1.073929
	O348	O	1.013282	1.044353	-0.001283
	H349	H	1.005058	1.044988	0.005099
	H350	H	0.996674	1.060901	0.001140
	O351	O	0.509032	0.564787	0.648615
	H352	H	0.508326	0.562015	0.652942
	H353	H	0.508465	0.565975	0.661624
	O354	O	0.898296	-0.137010	1.059027
	H355	H	0.887342	-0.157301	1.064148
	H356	H	0.918168	-0.144996	1.061305
	O357	O	0.381738	0.335743	0.551565
	H358	H	0.373837	0.347429	0.534613
	H359	H	0.364005	0.332425	0.554989
	O360	O	0.417687	0.407540	0.490323
	H361	H	0.401861	0.409901	0.478378
	H362	H	0.411277	0.412379	0.506083
	O363	O	0.082165	1.052354	0.928067
	H364	H	0.070960	1.067450	0.920597
	H365	H	0.079597	1.055540	0.930564
	O366	O	0.538884	0.390621	0.556525
	H367	H	0.541198	0.397894	0.556169
	H368	H	0.545577	0.392068	0.564406
	O369	O	-0.012808	0.872563	0.094826
	H370	H	0.007722	0.854951	0.083040
	H371	H	-0.020438	0.876047	0.078586
	O372	O	0.597332	0.512334	0.631190
	H373	H	0.604130	0.491699	0.638050
	H374	H	0.598537	0.501921	0.628029
	O375	O	0.311298	0.591715	0.458995
	H376	H	0.312645	0.588574	0.437321
	H377	H	0.311509	0.604310	0.456270
	O378	O	0.952281	0.919720	-0.122679
	H379	H	0.968823	0.916831	-0.146171
	H380	H	0.948355	0.910289	-0.110956
	O381	O	0.896074	0.113048	0.146104
	H382	H	0.907822	0.108125	0.140322
	H383	H	0.881165	0.097954	0.154739
	O384	O	0.680255	1.319767	-0.328951
	H385	H	0.676884	1.322102	-0.327765
	H386	H	0.670692	1.297564	-0.330027
	O387	O	0.022378	0.077882	-0.049324
	H388	H	0.015872	0.080958	-0.042595
	H389	H	0.025999	0.066092	-0.045338
	O390	O	0.037752	0.802215	-0.183964
	H391	H	0.022645	0.817832	-0.189758
	H392	H	0.034738	0.786420	-0.203434
	O393	O	1.413956	0.524659	0.574045
	H394	H	1.434537	0.523891	0.567505
	H395	H	1.407912	0.534242	0.576000
	O396	O	0.554703	0.571432	0.465054
	H397	H	0.540693	0.568874	0.482173
	H398	H	0.558561	0.575590	0.463401
	O399	O	0.168426	0.861028	0.865644
	H400	H	0.161472	0.881762	0.872161
	H401	H	0.158792	0.854969	0.846172
	O402	O	0.591412	0.572469	0.403323
	H403	H	0.600410	0.566012	0.408582
	H404	H	0.600615	0.567831	0.431267
	O405	O	1.081710	0.968969	0.137028
	H406	H	1.081412	0.962361	0.145929
	H407	H	1.085303	0.963662	0.109177
	O408	O	0.985407	1.095468	-0.059359
	H409	H	0.986348	1.102067	-0.061886
	H410	H	0.994663	1.097177	-0.061707
	O411	O	0.887867	-0.195783	1.149993
	H412	H	0.898421	-0.203853	1.149658
	H413	H	0.891358	-0.200741	1.148366
	O414	O	0.086000	0.048115	1.028095
	H415	H	0.096411	0.070345	1.033821
	H416	H	0.072977	0.058672	1.033825
	O417	O	0.648247	0.415579	0.421742
	H418	H	0.649213	0.405643	0.419511
	H419	H	0.639303	0.412539	0.425171
