data_Molecule from HDF5

_cell_length_a		16.238690
_cell_length_b		16.349621
_cell_length_c		16.277533
_cell_angle_alpha	90.059656
_cell_angle_beta	89.962829
_cell_angle_gamma	90.099582
_symmetry_space_group_name_H-M	'P 1'
_symmetry_Int_Tables_number		1

loop_
	_symmetry_equiv_pos_as_xyz
	x,y,z

loop_
	_atom_site_label
	_atom_site_type_symbol
	_atom_site_fract_x
	_atom_site_fract_y
	_atom_site_fract_z
	H0	H	0.400002	0.840194	0.710416
	H1	H	0.597638	0.165879	0.710481
	H2	H	0.597668	0.840022	0.280073
	H3	H	0.400168	0.166084	0.280581
	H4	H	0.712827	0.405844	0.832009
	H5	H	0.714252	0.601691	0.160495
	H6	H	0.285120	0.600895	0.832673
	H7	H	0.285396	0.404828	0.160303
	H8	H	0.834984	0.717357	0.397432
	H9	H	0.162417	0.718044	0.595794
	H10	H	0.835332	0.287533	0.596282
	H11	H	0.162550	0.288663	0.398422
	H12	H	0.835379	0.404098	0.711803
	H13	H	0.163573	0.600678	0.709483
	H14	H	0.834719	0.600585	0.283067
	H15	H	0.163230	0.404364	0.282562
	H16	H	0.400182	0.717081	0.832212
	H17	H	0.600315	0.719722	0.158797
	H18	H	0.599259	0.287275	0.833053
	H19	H	0.398683	0.287028	0.159145
	H20	H	0.713834	0.839765	0.396811
	H21	H	0.714180	0.165865	0.593684
	H22	H	0.283455	0.839696	0.594651
	H23	H	0.284137	0.166330	0.397938
	H24	H	0.899678	0.339848	0.212993
	H25	H	0.097598	0.666085	0.211995
	H26	H	0.098515	0.340253	0.780445
	H27	H	0.901677	0.665960	0.782582
	H28	H	0.212741	0.906240	0.332610
	H29	H	0.212083	0.100146	0.660482
	H30	H	0.786289	0.099982	0.331370
	H31	H	0.783962	0.905044	0.659683
	H32	H	0.335501	0.217672	0.896825
	H33	H	0.662399	0.218463	0.095228
	H34	H	0.334659	0.787444	0.094806
	H35	H	0.663308	0.788940	0.896975
	H36	H	0.334909	0.903698	0.211252
	H37	H	0.662981	0.101376	0.209633
	H38	H	0.334549	0.098694	0.783325
	H39	H	0.663538	0.906417	0.782041
	H40	H	0.899558	0.218677	0.333583
	H41	H	0.097502	0.216693	0.660606
	H42	H	0.098035	0.787995	0.332892
	H43	H	0.899990	0.788204	0.660346
	H44	H	0.212266	0.339010	0.899430
	H45	H	0.214671	0.666221	0.095426
	H46	H	0.783273	0.339591	0.096488
	H47	H	0.786717	0.666392	0.899918
	H48	H	0.408413	0.118618	0.592155
	H49	H	0.594073	0.884137	0.595588
	H50	H	0.592020	0.120519	0.396136
	H51	H	0.404910	0.887123	0.402284
	H52	H	0.587876	0.394606	0.116183
	H53	H	0.591444	0.591487	0.881738
	H54	H	0.404716	0.598876	0.114365
	H55	H	0.404037	0.404940	0.877539
	H56	H	0.112500	0.593494	0.410904
	H57	H	0.884309	0.591089	0.587317
	H58	H	0.116374	0.406046	0.585306
	H59	H	0.881473	0.405124	0.406477
	H60	H	0.113961	0.414930	0.587658
	H61	H	0.880576	0.595326	0.595222
	H62	H	0.116273	0.591262	0.398438
	H63	H	0.884609	0.413628	0.408578
	H64	H	0.406380	0.591732	0.111764
	H65	H	0.589050	0.598483	0.880296
	H66	H	0.604996	0.415978	0.114722
	H67	H	0.403692	0.414771	0.880821
	H68	H	0.588040	0.116785	0.405068
	H69	H	0.583837	0.889631	0.588047
	H70	H	0.405212	0.118723	0.587123
	H71	H	0.408528	0.888022	0.402410
	H72	H	0.902734	0.619803	0.092827
	H73	H	0.096154	0.386490	0.088230
	H74	H	0.085736	0.616719	0.901355
	H75	H	0.897189	0.382431	0.898121
	H76	H	0.101639	0.900005	0.619179
	H77	H	0.095884	0.097360	0.378544
	H78	H	0.907468	0.100235	0.613281
	H79	H	0.915584	0.914000	0.384236
	H80	H	0.613550	0.094479	0.907566
	H81	H	0.380735	0.091555	0.098283
	H82	H	0.616552	0.901698	0.084965
	H83	H	0.381350	0.905650	0.903463
	H84	H	0.611643	0.916604	0.081927
	H85	H	0.379825	0.105122	0.086096
	H86	H	0.616332	0.093454	0.898473
	H87	H	0.382999	0.909391	0.903051
	H88	H	0.902006	0.094101	0.612992
	H89	H	0.091040	0.091228	0.381707
	H90	H	0.095137	0.923105	0.609656
	H91	H	0.907532	0.896675	0.376958
	H92	H	0.096101	0.617837	0.910222
	H93	H	0.091707	0.386117	0.094185
	H94	H	0.910760	0.617692	0.093072
	H95	H	0.915008	0.387542	0.897647
	H96	H	0.403097	0.120691	0.591750
	H97	H	0.595917	0.887829	0.582351
	H98	H	0.597942	0.119753	0.404622
	H99	H	0.406208	0.888213	0.405725
	H100	H	0.579204	0.418901	0.106282
	H101	H	0.595913	0.596301	0.878905
	H102	H	0.412231	0.597476	0.111581
	H103	H	0.412098	0.408925	0.881990
	H104	H	0.117519	0.603748	0.404400
	H105	H	0.881494	0.600668	0.587030
	H106	H	0.117400	0.408894	0.594097
	H107	H	0.882018	0.411603	0.399285
	H108	H	0.906608	0.616834	0.085627
	H109	H	0.089066	0.388660	0.087864
	H110	H	0.097743	0.622071	0.897014
	H111	H	0.904825	0.389432	0.913095
	H112	H	0.077398	0.904609	0.610141
	H113	H	0.087441	0.099067	0.379956
	H114	H	0.909953	0.092790	0.611491
	H115	H	0.896471	0.913567	0.378520
	H116	H	0.617730	0.101175	0.902910
	H117	H	0.386236	0.088702	0.080612
	H118	H	0.616940	0.912529	0.096008
	H119	H	0.380789	0.908015	0.900136
	C120	C	0.376851	0.011537	0.618196
	C121	C	0.620243	0.994677	0.617210
	C122	C	0.621239	0.011318	0.373326
	C123	C	0.377263	0.995358	0.374407
	C124	C	0.619974	0.381333	0.004231
	C125	C	0.621118	0.624372	0.988185
	C126	C	0.378717	0.623901	0.004311
	C127	C	0.377609	0.380832	0.987906
	C128	C	0.007051	0.624315	0.375628
	C129	C	0.990367	0.624250	0.617978
	C130	C	0.007615	0.381377	0.618073
	C131	C	0.990721	0.381525	0.375856
	C132	C	0.877502	0.510558	0.119263
	C133	C	0.121369	0.494924	0.118875
	C134	C	0.121238	0.510955	0.874688
	C135	C	0.877787	0.494270	0.874761
	C136	C	0.120086	0.881110	0.504955
	C137	C	0.120481	0.124520	0.488322
	C138	C	0.877753	0.124019	0.504263
	C139	C	0.877770	0.880680	0.488163
	C140	C	0.507334	0.124136	0.874826
	C141	C	0.490524	0.124108	0.117013
	C142	C	0.506920	0.881246	0.117152
	C143	C	0.490714	0.880639	0.873934
	C144	C	0.379272	0.888651	0.672733
	C145	C	0.617866	0.117445	0.672331
	C146	C	0.618294	0.888574	0.318128
	C147	C	0.379736	0.117498	0.318854
	C148	C	0.675356	0.384728	0.881168
	C149	C	0.676696	0.622073	0.111249
	C150	C	0.323220	0.621078	0.881312
	C151	C	0.322345	0.383512	0.111171
	C152	C	0.883844	0.679256	0.377564
	C153	C	0.113791	0.679380	0.615710
	C154	C	0.884088	0.325730	0.616552
	C155	C	0.113780	0.325952	0.377494
	C156	C	0.884162	0.383676	0.673864
	C157	C	0.114316	0.620991	0.672112
	C158	C	0.883779	0.621227	0.320637
	C159	C	0.114121	0.383747	0.320333
	C160	C	0.380315	0.679087	0.881173
	C161	C	0.620356	0.681095	0.110404
	C162	C	0.618779	0.325961	0.881636
	C163	C	0.379386	0.325408	0.110685
	C164	C	0.676274	0.888511	0.375816
	C165	C	0.675731	0.117428	0.614411
	C166	C	0.321389	0.888467	0.615190
	C167	C	0.321909	0.117594	0.376839
	C168	C	0.879842	0.388020	0.174313
	C169	C	0.118699	0.617419	0.174102
	C170	C	0.118348	0.388374	0.819522
	C171	C	0.880808	0.617199	0.820199
	C172	C	0.175216	0.884651	0.381583
	C173	C	0.174715	0.121094	0.611585
	C174	C	0.823717	0.120838	0.380708
	C175	C	0.821845	0.884045	0.611090
	C176	C	0.384011	0.179049	0.876937
	C177	C	0.613870	0.179771	0.114898
	C178	C	0.383678	0.825598	0.115219
	C179	C	0.614365	0.826707	0.876440
	C180	C	0.383686	0.883376	0.172901
	C181	C	0.614056	0.122035	0.171942
	C182	C	0.383531	0.120256	0.820490
	C183	C	0.614396	0.884966	0.819441
	C184	C	0.879856	0.179681	0.381698
	C185	C	0.118097	0.179465	0.611363
	C186	C	0.118141	0.826271	0.381645
	C187	C	0.879451	0.825979	0.611418
	C188	C	0.175297	0.387977	0.878252
	C189	C	0.176355	0.617480	0.115800
	C190	C	0.821873	0.388033	0.116591
	C191	C	0.823615	0.617382	0.878390
	C192	C	0.398849	0.097119	0.596437
	C193	C	0.597858	0.909434	0.595200
	C194	C	0.599289	0.096839	0.395762
	C195	C	0.399799	0.909929	0.396872
	C196	C	0.597510	0.403264	0.090218
	C197	C	0.598555	0.602088	0.902493
	C198	C	0.401240	0.602359	0.090197
	C199	C	0.399937	0.403002	0.902304
	C200	C	0.093195	0.602477	0.397961
	C201	C	0.904234	0.602353	0.596067
	C202	C	0.093586	0.403387	0.595644
	C203	C	0.904824	0.403758	0.398118
	C204	C	0.900297	0.596160	0.097268
	C205	C	0.098905	0.409161	0.096679
	C206	C	0.099663	0.596944	0.896699
	C207	C	0.899300	0.408534	0.896614
	C208	C	0.097865	0.902783	0.590866
	C209	C	0.098039	0.102446	0.402196
	C210	C	0.899952	0.102108	0.590293
	C211	C	0.900029	0.901852	0.402106
	C212	C	0.593636	0.102697	0.896513
	C213	C	0.404495	0.101661	0.094896
	C214	C	0.592874	0.903614	0.094315
	C215	C	0.404016	0.901475	0.895620
	Zn216	Zn	0.499068	0.002868	0.746517
	Zn217	Zn	0.499074	0.003105	0.245180
	Zn218	Zn	0.749202	0.502507	-0.002959
	Zn219	Zn	0.249998	0.502759	-0.003431
	Zn220	Zn	-0.001030	0.752170	0.496670
	Zn221	Zn	-0.000962	0.253022	0.496542
	Zn222	Zn	-0.000639	0.502998	0.746109
	Zn223	Zn	-0.001019	0.502626	0.247698
	Zn224	Zn	0.499370	0.752553	-0.004351
	Zn225	Zn	0.498821	0.252290	-0.003936
	Zn226	Zn	0.749354	0.002787	0.495470
	Zn227	Zn	0.248481	0.003229	0.496376
	N228	N	0.413208	0.965853	0.674785
	N229	N	0.583973	0.040291	0.674098
	N230	N	0.584887	0.965897	0.316436
	N231	N	0.413369	0.040276	0.317215
	N232	N	0.676015	0.418866	0.958574
	N233	N	0.677206	0.587386	0.034165
	N234	N	0.322267	0.587276	0.958707
	N235	N	0.321272	0.417501	0.033913
	N236	N	0.961545	0.681067	0.411011
	N237	N	0.035946	0.681358	0.582640
	N238	N	0.961635	0.324376	0.582354
	N239	N	0.036179	0.324465	0.411326
	N240	N	0.961814	0.417451	0.674835
	N241	N	0.036528	0.587179	0.673595
	N242	N	0.961386	0.587754	0.319345
	N243	N	0.036721	0.417827	0.319453
	N244	N	0.414160	0.680830	0.958699
	N245	N	0.586463	0.682496	0.033008
	N246	N	0.585035	0.323990	0.959088
	N247	N	0.412981	0.323666	0.033118
	N248	N	0.678217	0.965825	0.409443
	N249	N	0.677433	0.040265	0.580999
	N250	N	0.319821	0.965941	0.582097
	N251	N	0.320340	0.040653	0.410687
	N252	N	0.913527	0.465291	0.175945
	N253	N	0.085205	0.540169	0.176054
	N254	N	0.085505	0.465829	0.817416
	N255	N	0.913475	0.539628	0.817673
	N256	N	0.176563	0.918059	0.459103
	N257	N	0.176181	0.087726	0.533969
	N258	N	0.822247	0.087036	0.458076
	N259	N	0.820638	0.917344	0.533413
	N260	N	0.461874	0.181409	0.909899
	N261	N	0.536044	0.181254	0.081565
	N262	N	0.461256	0.824175	0.081244
	N263	N	0.536473	0.824150	0.909713
	N264	N	0.461293	0.917344	0.173995
	N265	N	0.536465	0.088072	0.173310
	N266	N	0.461229	0.086734	0.819292
	N267	N	0.536313	0.917464	0.817719
	N268	N	0.913079	0.181666	0.459433
	N269	N	0.084939	0.181609	0.533517
	N270	N	0.084496	0.824153	0.459250
	N271	N	0.913178	0.823858	0.534104
	N272	N	0.177163	0.465318	0.911877
	N273	N	0.178244	0.540129	0.082552
	N274	N	0.820424	0.465218	0.082981
	N275	N	0.821513	0.539975	0.911715
	O276	O	-0.524105	-0.483633	1.493300
	H277	H	-0.529457	-0.485932	1.499303
	H278	H	-0.524041	-0.485487	1.491954
	O279	O	0.465511	0.573153	0.496953
	H280	H	0.468728	0.570484	0.496150
	H281	H	0.469957	0.570969	0.493795
	O282	O	0.450696	0.541393	0.451306
	H283	H	0.457361	0.538146	0.452765
	H284	H	0.453616	0.539666	0.460205
	O285	O	0.473583	0.555370	0.547455
	H286	H	0.481547	0.554645	0.546721
	H287	H	0.469682	0.561207	0.548723
	O288	O	0.483549	0.535443	0.477412
	H289	H	0.488949	0.540632	0.475637
	H290	H	0.487537	0.537482	0.482163
	O291	O	0.406068	1.540038	1.444836
	H292	H	0.395989	1.535690	1.433739
	H293	H	0.405704	1.543780	1.450249
	O294	O	0.534949	0.530348	0.482940
	H295	H	0.533066	0.534913	0.482175
	H296	H	0.534940	0.529035	0.474126
	O297	O	1.510045	-0.397700	-0.540547
	H298	H	1.504485	-0.389063	-0.538023
	H299	H	1.504133	-0.401439	-0.545907
