data_Molecule from HDF5

_cell_length_a		16.363939
_cell_length_b		16.327695
_cell_length_c		16.304037
_cell_angle_alpha	89.593531
_cell_angle_beta	89.815078
_cell_angle_gamma	90.111258
_symmetry_space_group_name_H-M	'P 1'
_symmetry_Int_Tables_number		1

loop_
	_symmetry_equiv_pos_as_xyz
	x,y,z

loop_
	_atom_site_label
	_atom_site_type_symbol
	_atom_site_fract_x
	_atom_site_fract_y
	_atom_site_fract_z
	H0	H	0.394528	0.832422	0.722635
	H1	H	0.600077	0.155237	0.722647
	H2	H	0.599443	0.831847	0.288486
	H3	H	0.396142	0.154875	0.284168
	H4	H	0.713507	0.392780	0.843262
	H5	H	0.714367	0.597204	0.164434
	H6	H	0.276330	0.597724	0.844012
	H7	H	0.274535	0.386954	0.165439
	H8	H	0.836349	0.715180	0.402997
	H9	H	0.157854	0.711781	0.605830
	H10	H	0.836734	0.273488	0.608956
	H11	H	0.156760	0.277432	0.399173
	H12	H	0.834808	0.390880	0.723769
	H13	H	0.156811	0.597073	0.723512
	H14	H	0.836069	0.601079	0.285214
	H15	H	0.156869	0.394939	0.285627
	H16	H	0.392967	0.712738	0.843565
	H17	H	0.596711	0.709863	0.165131
	H18	H	0.597293	0.278253	0.843172
	H19	H	0.391048	0.273215	0.166152
	H20	H	0.715943	0.833122	0.403308
	H21	H	0.718903	0.153861	0.609775
	H22	H	0.276141	0.834265	0.609228
	H23	H	0.278398	0.155724	0.398891
	H24	H	0.889925	0.335421	0.227153
	H25	H	0.097470	0.655878	0.219321
	H26	H	0.099350	0.332318	0.785741
	H27	H	0.892728	0.654212	0.784438
	H28	H	0.216497	0.893930	0.344082
	H29	H	0.217163	0.100234	0.665361
	H30	H	0.777625	0.099943	0.344655
	H31	H	0.777500	0.889882	0.666170
	H32	H	0.334935	0.211894	0.902476
	H33	H	0.657168	0.212574	0.106819
	H34	H	0.336154	0.772474	0.110991
	H35	H	0.656269	0.776627	0.901180
	H36	H	0.337930	0.886790	0.228927
	H37	H	0.658093	0.095064	0.221150
	H38	H	0.335778	0.098091	0.784898
	H39	H	0.658114	0.895500	0.788731
	H40	H	0.894477	0.214412	0.343627
	H41	H	0.100243	0.214773	0.665391
	H42	H	0.100504	0.778029	0.343571
	H43	H	0.892238	0.774082	0.665472
	H44	H	0.215247	0.332553	0.901302
	H45	H	0.217930	0.652596	0.109104
	H46	H	0.777532	0.332843	0.107871
	H47	H	0.776555	0.654348	0.898974
	H48	H	0.412243	0.107129	0.593329
	H49	H	0.591465	0.877917	0.596835
	H50	H	0.583070	0.108076	0.409176
	H51	H	0.405102	0.878108	0.411659
	H52	H	0.588624	0.404364	0.120246
	H53	H	0.584521	0.584529	0.889330
	H54	H	0.404528	0.582562	0.119596
	H55	H	0.406867	0.400969	0.890255
	H56	H	0.112127	0.585435	0.409142
	H57	H	0.884620	0.576256	0.598563
	H58	H	0.106373	0.415716	0.593382
	H59	H	0.880780	0.401680	0.416670
	H60	H	0.114740	0.402345	0.603959
	H61	H	0.878051	0.591764	0.600305
	H62	H	0.112131	0.590543	0.411542
	H63	H	0.883849	0.407933	0.419380
	H64	H	0.405597	0.580612	0.118701
	H65	H	0.587049	0.587730	0.888633
	H66	H	0.583800	0.404438	0.118988
	H67	H	0.402286	0.403463	0.889434
	H68	H	0.587305	0.106056	0.419178
	H69	H	0.585590	0.879579	0.599327
	H70	H	0.403335	0.109122	0.589847
	H71	H	0.411981	0.883057	0.420278
	H72	H	0.904537	0.610530	0.096502
	H73	H	0.085138	0.379777	0.093293
	H74	H	0.082266	0.606234	0.913913
	H75	H	0.908389	0.377864	0.907850
	H76	H	0.086165	0.898185	0.622238
	H77	H	0.091820	0.079375	0.391064
	H78	H	0.902161	0.085929	0.621541
	H79	H	0.914624	0.907126	0.393463
	H80	H	0.615835	0.089528	0.902013
	H81	H	0.383107	0.084302	0.089314
	H82	H	0.613356	0.895422	0.095695
	H83	H	0.383588	0.902457	0.924024
	H84	H	0.607869	0.903793	0.088820
	H85	H	0.384426	0.076630	0.094996
	H86	H	0.610908	0.095155	0.922219
	H87	H	0.382627	0.911375	0.909882
	H88	H	0.907670	0.077405	0.617289
	H89	H	0.080480	0.086661	0.392783
	H90	H	0.092612	0.909383	0.619630
	H91	H	0.904734	0.897592	0.387026
	H92	H	0.085837	0.605158	0.918725
	H93	H	0.085500	0.378252	0.097318
	H94	H	0.905569	0.607769	0.091530
	H95	H	0.907976	0.382188	0.921695
	H96	H	0.405270	0.111230	0.599161
	H97	H	0.587154	0.881022	0.593238
	H98	H	0.593387	0.111527	0.411546
	H99	H	0.400786	0.880414	0.422899
	H100	H	0.585509	0.399830	0.120581
	H101	H	0.587711	0.583454	0.888377
	H102	H	0.407332	0.582728	0.119433
	H103	H	0.406453	0.406688	0.891209
	H104	H	0.110715	0.585969	0.414554
	H105	H	0.883668	0.586855	0.585292
	H106	H	0.109536	0.398777	0.586409
	H107	H	0.882060	0.407892	0.412700
	H108	H	0.901126	0.610491	0.092631
	H109	H	0.082008	0.379605	0.096039
	H110	H	0.087392	0.607971	0.913131
	H111	H	0.896197	0.376440	0.916061
	H112	H	0.080472	0.907511	0.616491
	H113	H	0.091284	0.092834	0.386934
	H114	H	0.912847	0.087350	0.619793
	H115	H	0.900176	0.912076	0.390018
	H116	H	0.606498	0.074546	0.915357
	H117	H	0.380251	0.084530	0.098552
	H118	H	0.610788	0.906096	0.100337
	H119	H	0.377194	0.895514	0.910166
	C120	C	0.374955	0.003153	0.626440
	C121	C	0.618550	0.985906	0.626574
	C122	C	0.619058	0.002185	0.383390
	C123	C	0.375500	0.986331	0.384344
	C124	C	0.616742	0.373009	0.013269
	C125	C	0.617115	0.615238	0.995021
	C126	C	0.374257	0.614174	0.013100
	C127	C	0.373560	0.371422	0.996555
	C128	C	0.005125	0.618331	0.381774
	C129	C	0.988267	0.615870	0.625802
	C130	C	0.004458	0.372930	0.626404
	C131	C	0.988005	0.375168	0.383983
	C132	C	0.872529	0.503609	0.126251
	C133	C	0.116257	0.485308	0.125614
	C134	C	0.116935	0.501158	0.883489
	C135	C	0.873453	0.484907	0.882904
	C136	C	0.117960	0.874556	0.513146
	C137	C	0.118889	0.117207	0.496278
	C138	C	0.875921	0.115937	0.513529
	C139	C	0.875476	0.873454	0.496524
	C140	C	0.504642	0.117057	0.882285
	C141	C	0.488598	0.113441	0.125207
	C142	C	0.504919	0.870402	0.127050
	C143	C	0.487509	0.873060	0.883455
	C144	C	0.374919	0.881416	0.684276
	C145	C	0.619351	0.106789	0.684117
	C146	C	0.618766	0.880330	0.327131
	C147	C	0.376148	0.106821	0.323813
	C148	C	0.674588	0.373643	0.891683
	C149	C	0.675114	0.615808	0.116210
	C150	C	0.315797	0.615937	0.892169
	C151	C	0.314201	0.369021	0.117474
	C152	C	0.884451	0.676442	0.382966
	C153	C	0.109520	0.673382	0.625576
	C154	C	0.884418	0.313392	0.627886
	C155	C	0.108625	0.316897	0.381515
	C156	C	0.883464	0.371654	0.685141
	C157	C	0.108989	0.616089	0.683827
	C158	C	0.884346	0.619537	0.324377
	C159	C	0.108655	0.375340	0.324732
	C160	C	0.373438	0.673825	0.892173
	C161	C	0.616424	0.671763	0.116792
	C162	C	0.616485	0.316586	0.891561
	C163	C	0.372448	0.312317	0.117891
	C164	C	0.677101	0.881319	0.383843
	C165	C	0.678475	0.106276	0.627727
	C166	C	0.315957	0.882287	0.627830
	C167	C	0.317502	0.107364	0.381045
	C168	C	0.871856	0.382873	0.186517
	C169	C	0.116904	0.607220	0.181502
	C170	C	0.117723	0.380238	0.825311
	C171	C	0.873463	0.605991	0.823692
	C172	C	0.176991	0.874489	0.392111
	C173	C	0.177647	0.118491	0.617236
	C174	C	0.816946	0.118044	0.392687
	C175	C	0.817093	0.871541	0.617816
	C176	C	0.383530	0.173871	0.882568
	C177	C	0.608871	0.173187	0.125988
	C178	C	0.384562	0.811477	0.129530
	C179	C	0.608497	0.815665	0.882773
	C180	C	0.385239	0.868519	0.188165
	C181	C	0.609585	0.114172	0.182775
	C182	C	0.383893	0.116729	0.824464
	C183	C	0.609133	0.874625	0.826265
	C184	C	0.875120	0.175081	0.391941
	C185	C	0.119560	0.175756	0.617265
	C186	C	0.119142	0.817005	0.391885
	C187	C	0.874250	0.813977	0.617652
	C188	C	0.175878	0.380512	0.882470
	C189	C	0.176708	0.605474	0.126540
	C190	C	0.815720	0.381732	0.127233
	C191	C	0.815434	0.605795	0.880849
	C192	C	0.399842	0.087300	0.601390
	C193	C	0.594698	0.901365	0.603282
	C194	C	0.594827	0.086623	0.406650
	C195	C	0.399238	0.902278	0.410586
	C196	C	0.592704	0.396093	0.098023
	C197	C	0.593315	0.592066	0.910664
	C198	C	0.398559	0.589155	0.097370
	C199	C	0.398022	0.396469	0.912211
	C200	C	0.089687	0.594373	0.404928
	C201	C	0.903946	0.591978	0.601663
	C202	C	0.088552	0.398319	0.601730
	C203	C	0.904098	0.398966	0.408879
	C204	C	0.896663	0.587706	0.101003
	C205	C	0.091523	0.401245	0.102210
	C206	C	0.092299	0.584769	0.908168
	C207	C	0.897339	0.400634	0.908033
	C208	C	0.093550	0.898258	0.597393
	C209	C	0.094808	0.093274	0.412256
	C210	C	0.900384	0.090875	0.597415
	C211	C	0.899548	0.898306	0.412057
	C212	C	0.589040	0.093469	0.906287
	C213	C	0.404331	0.088810	0.101318
	C214	C	0.588943	0.894832	0.102315
	C215	C	0.403095	0.896355	0.907592
	Zn216	Zn	0.496455	-0.005211	0.755089
	Zn217	Zn	0.497310	-0.007377	0.255314
	Zn218	Zn	0.744992	0.493943	0.004425
	Zn219	Zn	0.245515	0.492591	0.005036
	Zn220	Zn	-0.002855	0.745574	0.504875
	Zn221	Zn	-0.003077	0.245004	0.503946
	Zn222	Zn	-0.003917	0.494001	0.755048
	Zn223	Zn	-0.004974	0.495655	0.254187
	Zn224	Zn	0.495582	0.742978	0.004090
	Zn225	Zn	0.495478	0.243926	0.005107
	Zn226	Zn	0.747369	-0.005592	0.504934
	Zn227	Zn	0.246772	-0.004336	0.505220
	N228	N	0.410729	0.957629	0.683630
	N229	N	0.582711	0.031095	0.683518
	N230	N	0.583322	0.956671	0.326668
	N231	N	0.411438	0.030571	0.325823
	N232	N	0.674858	0.407906	0.968483
	N233	N	0.675672	0.581424	0.039612
	N234	N	0.316335	0.579563	0.968488
	N235	N	0.314826	0.405049	0.041035
	N236	N	0.960881	0.675956	0.417711
	N237	N	0.033309	0.673255	0.590196
	N238	N	0.960705	0.314088	0.592423
	N239	N	0.032638	0.316710	0.417671
	N240	N	0.959451	0.407942	0.684308
	N241	N	0.032528	0.581272	0.684196
	N242	N	0.960453	0.584268	0.323407
	N243	N	0.032523	0.410823	0.325902
	N244	N	0.408944	0.673043	0.968408
	N245	N	0.581088	0.671735	0.040387
	N246	N	0.581230	0.315913	0.968219
	N247	N	0.408618	0.313724	0.041714
	N248	N	0.677460	0.958057	0.417939
	N249	N	0.677871	0.030091	0.592417
	N250	N	0.316060	0.959107	0.592512
	N251	N	0.317200	0.031394	0.417947
	N252	N	0.906562	0.459668	0.186158
	N253	N	0.079660	0.531704	0.181009
	N254	N	0.081985	0.456304	0.825590
	N255	N	0.908763	0.529809	0.824746
	N256	N	0.176389	0.909601	0.468528
	N257	N	0.177553	0.083196	0.541088
	N258	N	0.817283	0.081968	0.469197
	N259	N	0.817705	0.907628	0.541544
	N260	N	0.459775	0.174091	0.917741
	N261	N	0.532569	0.172581	0.090786
	N262	N	0.459931	0.812547	0.092184
	N263	N	0.531960	0.814724	0.917906
	N264	N	0.461199	0.904464	0.186717
	N265	N	0.533749	0.077851	0.182487
	N266	N	0.460358	0.082034	0.824187
	N267	N	0.532826	0.909428	0.826676
	N268	N	0.910968	0.174066	0.468016
	N269	N	0.083632	0.175013	0.541114
	N270	N	0.083204	0.816825	0.468060
	N271	N	0.910198	0.815114	0.541243
	N272	N	0.175394	0.456532	0.918162
	N273	N	0.176234	0.528747	0.092405
	N274	N	0.816022	0.457750	0.090694
	N275	N	0.815159	0.529386	0.916833
	O276	O	0.460383	0.461064	0.602092
	H277	H	0.467434	0.467757	0.583721
	H278	H	0.468797	0.442049	0.602245
	O279	O	0.546247	0.500339	0.516912
	H280	H	0.553669	0.491643	0.521205
	H281	H	0.534508	0.486883	0.529907
	O282	O	1.044000	0.115211	0.875737
	H283	H	1.028997	0.116939	0.889833
	H284	H	1.039724	0.102463	0.858918
	O285	O	0.551894	0.689175	0.532818
	H286	H	0.547950	0.696911	0.522987
	H287	H	0.549208	0.700890	0.523888
	O288	O	0.952546	0.847118	0.827099
	H289	H	0.983720	0.846708	0.836434
	H290	H	0.950626	0.838957	0.792936
	O291	O	0.067985	0.870736	-0.072021
	H292	H	0.090171	0.863457	-0.074462
	H293	H	0.055368	0.886421	-0.069458
	O294	O	0.490890	0.479503	0.561444
	H295	H	0.491753	0.493856	0.552571
	H296	H	0.503243	0.489317	0.565033
	O297	O	0.664434	0.492066	0.414829
	H298	H	0.671497	0.479572	0.412484
	H299	H	0.675753	0.489559	0.420751
	O300	O	0.550449	0.430496	0.536221
	H301	H	0.553445	0.422837	0.538709
	H302	H	0.549576	0.432285	0.549094
	O303	O	0.334443	0.520895	0.536541
	H304	H	0.333593	0.520934	0.549066
	H305	H	0.342999	0.531655	0.527063
	O306	O	0.634003	0.557587	0.479196
	H307	H	0.630300	0.549417	0.478736
	H308	H	0.637319	0.574571	0.490244
	O309	O	0.465236	0.433437	0.497963
	H310	H	0.463300	0.414435	0.504059
	H311	H	0.457284	0.426173	0.489251
	O312	O	0.128141	-0.065069	-0.137987
	H313	H	0.123744	-0.047987	-0.133967
	H314	H	0.117193	-0.065603	-0.131804
	O315	O	0.501246	0.561458	0.435268
	H316	H	0.509807	0.555705	0.435239
	H317	H	0.502977	0.564259	0.425645
	O318	O	-0.042356	1.118429	1.055804
	H319	H	-0.041084	1.119402	1.064271
	H320	H	-0.034195	1.108396	1.066213
	O321	O	0.495425	0.320423	0.319857
	H322	H	0.508372	0.334565	0.311663
	H323	H	0.483234	0.306927	0.318720
	O324	O	0.060408	0.956592	0.127767
	H325	H	0.053957	0.951591	0.124864
	H326	H	0.055366	0.959540	0.132976
	O327	O	0.309875	0.414818	0.573402
	H328	H	0.302629	0.417488	0.587062
	H329	H	0.296904	0.414824	0.575351
	O330	O	-0.091985	-0.116642	1.136872
	H331	H	-0.094084	-0.123795	1.142360
	H332	H	-0.095073	-0.120095	1.132682
	O333	O	0.017980	0.015232	1.071615
	H334	H	0.007699	0.030052	1.066649
	H335	H	0.032288	0.028544	1.065087
	O336	O	0.346263	0.420975	0.546750
	H337	H	0.356274	0.426439	0.539313
	H338	H	0.326322	0.407416	0.565104
	O339	O	0.919636	0.107611	-0.091618
	H340	H	0.909839	0.104086	-0.082716
	H341	H	0.916441	0.105262	-0.087007
	O342	O	0.180385	-0.032399	-0.170206
	H343	H	0.153463	-0.035471	-0.172488
	H344	H	0.197607	-0.032400	-0.192320
	O345	O	0.948091	-0.210749	1.209186
	H346	H	0.945232	-0.212320	1.208187
	H347	H	0.933256	-0.229009	1.224872
	O348	O	0.995191	1.100143	0.080887
	H349	H	1.000362	1.096370	0.084950
	H350	H	0.991352	1.107488	0.073499
	O351	O	0.354508	0.629409	0.464638
	H352	H	0.354925	0.642283	0.465712
	H353	H	0.339564	0.611716	0.453538
	O354	O	1.182225	-0.121680	1.005882
	H355	H	1.193221	-0.124283	1.036432
	H356	H	1.180362	-0.089779	1.001287
	O357	O	0.635281	0.495719	0.685350
	H358	H	0.636801	0.511251	0.692508
	H359	H	0.634759	0.503707	0.679751
	O360	O	0.643761	0.570067	0.411326
	H361	H	0.640301	0.576065	0.432163
	H362	H	0.656546	0.557431	0.399642
	O363	O	-0.166016	1.014719	1.055626
	H364	H	-0.170422	1.021371	1.064467
	H365	H	-0.161932	1.007758	1.046431
	O366	O	0.633910	0.597245	0.574571
	H367	H	0.616985	0.592246	0.588580
	H368	H	0.636224	0.598605	0.562999
	O369	O	-0.140177	0.835157	-0.065857
	H370	H	-0.148112	0.822187	-0.063347
	H371	H	-0.121091	0.834432	-0.071569
	O372	O	0.447253	0.496092	0.548446
	H373	H	0.446519	0.490927	0.543015
	H374	H	0.442504	0.491244	0.545309
	O375	O	0.675362	0.313545	0.415035
	H376	H	0.692973	0.290985	0.422081
	H377	H	0.648049	0.319274	0.412182
	O378	O	0.854607	1.084442	-0.103099
	H379	H	0.837393	1.080012	-0.091294
	H380	H	0.845889	1.082696	-0.106433
	O381	O	1.185076	0.018526	0.124468
	H382	H	1.183807	0.025602	0.129879
	H383	H	1.178777	0.022469	0.125596
	O384	O	0.891722	0.897685	0.167344
	H385	H	0.891004	0.911152	0.173273
	H386	H	0.869569	0.892199	0.149071
	O387	O	0.078130	0.152726	0.175367
	H388	H	0.089223	0.148697	0.142784
	H389	H	0.077270	0.137563	0.184446
	O390	O	-0.112199	0.929854	0.015591
	H391	H	-0.104781	0.909080	0.002720
	H392	H	-0.100868	0.934780	0.025833
	O393	O	1.356264	0.520270	0.690180
	H394	H	1.356982	0.527319	0.691178
	H395	H	1.349078	0.516395	0.681067
	O396	O	0.353629	0.684254	0.393643
	H397	H	0.345328	0.682127	0.387912
	H398	H	0.355008	0.676118	0.380720
	O399	O	-0.014943	0.868768	1.032152
	H400	H	-0.023406	0.861302	1.032599
	H401	H	0.007334	0.884638	1.039652
	O402	O	0.358663	0.320603	0.662105
	H403	H	0.368382	0.319124	0.672490
	H404	H	0.362417	0.340150	0.684256
	O405	O	0.874545	1.088704	-0.148819
	H406	H	0.861516	1.088011	-0.151571
	H407	H	0.865813	1.093882	-0.135127
	O408	O	0.983096	1.132411	0.046713
	H409	H	0.979299	1.130480	0.051310
	H410	H	0.988782	1.130345	0.047739
	O411	O	1.126036	0.081151	0.944537
	H412	H	1.133416	0.076554	0.930811
	H413	H	1.130104	0.094277	0.936528
	O414	O	0.565457	0.426556	0.331546
	H415	H	0.568994	0.441563	0.339669
	H416	H	0.548747	0.438781	0.326721
	O417	O	0.438911	0.388606	0.518233
	H418	H	0.432033	0.383089	0.513645
	H419	H	0.443285	0.380162	0.525307
