data_Molecule from HDF5

_cell_length_a		16.129513
_cell_length_b		16.325004
_cell_length_c		16.238962
_cell_angle_alpha	90.274824
_cell_angle_beta	90.272196
_cell_angle_gamma	90.597109
_symmetry_space_group_name_H-M	'P 1'
_symmetry_Int_Tables_number		1

loop_
	_symmetry_equiv_pos_as_xyz
	x,y,z

loop_
	_atom_site_label
	_atom_site_type_symbol
	_atom_site_fract_x
	_atom_site_fract_y
	_atom_site_fract_z
	H0	H	0.384226	0.833049	0.709311
	H1	H	0.588058	0.158897	0.713688
	H2	H	0.583149	0.833467	0.279342
	H3	H	0.387114	0.158783	0.279630
	H4	H	0.697318	0.396994	0.830844
	H5	H	0.702242	0.595154	0.160062
	H6	H	0.274115	0.588538	0.831196
	H7	H	0.272298	0.397762	0.160927
	H8	H	0.819756	0.707375	0.398321
	H9	H	0.148668	0.716748	0.599343
	H10	H	0.822388	0.278942	0.595808
	H11	H	0.149901	0.283237	0.395778
	H12	H	0.821168	0.396892	0.708578
	H13	H	0.151408	0.597769	0.709783
	H14	H	0.821328	0.593657	0.280769
	H15	H	0.150789	0.400488	0.284613
	H16	H	0.386441	0.707391	0.831440
	H17	H	0.589996	0.713410	0.159010
	H18	H	0.583228	0.280180	0.831696
	H19	H	0.383609	0.278939	0.159450
	H20	H	0.695540	0.832544	0.398691
	H21	H	0.701795	0.160206	0.595568
	H22	H	0.268467	0.833696	0.592696
	H23	H	0.275269	0.160970	0.398672
	H24	H	0.885398	0.332558	0.210995
	H25	H	0.087358	0.659414	0.211770
	H26	H	0.084099	0.333829	0.779091
	H27	H	0.887809	0.659842	0.782405
	H28	H	0.194537	0.901436	0.329758
	H29	H	0.202651	0.097108	0.659828
	H30	H	0.773949	0.091932	0.331175
	H31	H	0.771633	0.900354	0.660107
	H32	H	0.320420	0.205886	0.896489
	H33	H	0.649749	0.214051	0.097964
	H34	H	0.321478	0.778480	0.093527
	H35	H	0.651140	0.780943	0.895344
	H36	H	0.319472	0.896194	0.206568
	H37	H	0.650382	0.096354	0.210508
	H38	H	0.320798	0.091023	0.781307
	H39	H	0.650995	0.897250	0.781104
	H40	H	0.886428	0.210168	0.332866
	H41	H	0.089227	0.215237	0.659189
	H42	H	0.083786	0.779908	0.333429
	H43	H	0.884943	0.783199	0.661028
	H44	H	0.194564	0.330608	0.900247
	H45	H	0.202846	0.658064	0.095021
	H46	H	0.771577	0.331289	0.092006
	H47	H	0.771940	0.658837	0.898178
	H48	H	0.398749	0.109976	0.584238
	H49	H	0.582294	0.880186	0.584285
	H50	H	0.571005	0.110547	0.403052
	H51	H	0.389113	0.880051	0.404302
	H52	H	0.583131	0.407488	0.113052
	H53	H	0.578352	0.594511	0.877831
	H54	H	0.395068	0.587227	0.112702
	H55	H	0.391869	0.402823	0.879727
	H56	H	0.102245	0.584603	0.400478
	H57	H	0.868255	0.584873	0.590403
	H58	H	0.105088	0.399013	0.582890
	H59	H	0.869116	0.403685	0.408229
	H60	H	0.100466	0.414102	0.583651
	H61	H	0.865157	0.592009	0.593085
	H62	H	0.107323	0.599476	0.402509
	H63	H	0.867721	0.406307	0.399791
	H64	H	0.397209	0.588073	0.112597
	H65	H	0.583990	0.583944	0.879269
	H66	H	0.572270	0.406469	0.109170
	H67	H	0.392533	0.395130	0.879035
	H68	H	0.586296	0.112842	0.409668
	H69	H	0.577713	0.878583	0.594805
	H70	H	0.389734	0.114335	0.589331
	H71	H	0.386276	0.878668	0.398877
	H72	H	0.906008	0.606247	0.083818
	H73	H	0.081768	0.376963	0.094454
	H74	H	0.085779	0.615248	0.898438
	H75	H	0.890576	0.376816	0.893296
	H76	H	0.074471	0.910539	0.610552
	H77	H	0.086675	0.087619	0.377283
	H78	H	0.887048	0.094977	0.617172
	H79	H	0.897275	0.909058	0.382689
	H80	H	0.604831	0.085544	0.897579
	H81	H	0.368138	0.090109	0.081533
	H82	H	0.605973	0.893009	0.085427
	H83	H	0.366033	0.907934	0.885379
	H84	H	0.598139	0.911808	0.080641
	H85	H	0.369976	0.080768	0.088467
	H86	H	0.604906	0.096184	0.907494
	H87	H	0.363761	0.882553	0.904419
	H88	H	0.894314	0.080276	0.611043
	H89	H	0.071437	0.087908	0.382250
	H90	H	0.075587	0.901450	0.613238
	H91	H	0.896352	0.890117	0.378048
	H92	H	0.074236	0.611389	0.902094
	H93	H	0.073161	0.379390	0.093758
	H94	H	0.884626	0.612558	0.082823
	H95	H	0.899209	0.382456	0.902250
	H96	H	0.399094	0.113402	0.594539
	H97	H	0.571561	0.882702	0.585274
	H98	H	0.583460	0.116653	0.393296
	H99	H	0.392532	0.880184	0.398266
	H100	H	0.578433	0.397649	0.114329
	H101	H	0.572567	0.585724	0.881528
	H102	H	0.395534	0.590013	0.113767
	H103	H	0.385536	0.398831	0.877284
	H104	H	0.100987	0.590892	0.414519
	H105	H	0.868074	0.591712	0.585124
	H106	H	0.105654	0.407065	0.596913
	H107	H	0.866163	0.397753	0.402276
	H108	H	0.896563	0.614807	0.102121
	H109	H	0.078656	0.379158	0.086463
	H110	H	0.084780	0.612012	0.909556
	H111	H	0.886567	0.378993	0.906041
	H112	H	0.082432	0.907089	0.614318
	H113	H	0.078417	0.100220	0.375887
	H114	H	0.904863	0.094767	0.611835
	H115	H	0.879644	0.901422	0.375710
	H116	H	0.600210	0.083234	0.912025
	H117	H	0.365757	0.090966	0.092502
	H118	H	0.606015	0.908431	0.100077
	H119	H	0.375763	0.909898	0.916382
	C120	C	0.364809	0.004824	0.617233
	C121	C	0.607739	0.988208	0.617899
	C122	C	0.607153	0.005149	0.373640
	C123	C	0.362921	0.988021	0.372782
	C124	C	0.606155	0.374424	0.003912
	C125	C	0.608521	0.617763	0.987420
	C126	C	0.365755	0.616165	0.004500
	C127	C	0.362313	0.371729	0.987533
	C128	C	-0.005499	0.618542	0.376058
	C129	C	0.976527	0.619351	0.618361
	C130	C	-0.004934	0.376317	0.616558
	C131	C	0.976562	0.375206	0.375021
	C132	C	0.864849	0.503766	0.118020
	C133	C	0.107830	0.486768	0.119272
	C134	C	0.107811	0.504400	0.874911
	C135	C	0.864334	0.487583	0.873499
	C136	C	0.105590	0.877075	0.504379
	C137	C	0.108819	0.120790	0.487083
	C138	C	0.865761	0.117591	0.504797
	C139	C	0.862448	0.873524	0.487545
	C140	C	0.494223	0.115511	0.875579
	C141	C	0.476838	0.117602	0.117649
	C142	C	0.494421	0.874472	0.116565
	C143	C	0.477726	0.872751	0.873503
	C144	C	0.364810	0.881960	0.671565
	C145	C	0.607655	0.110418	0.674972
	C146	C	0.603312	0.882198	0.318187
	C147	C	0.366756	0.110503	0.317834
	C148	C	0.660325	0.376690	0.880087
	C149	C	0.664776	0.615718	0.110755
	C150	C	0.310733	0.611154	0.880596
	C151	C	0.308927	0.376153	0.111577
	C152	C	0.869501	0.670894	0.377837
	C153	C	0.100190	0.676782	0.617477
	C154	C	0.871236	0.318424	0.615293
	C155	C	0.100694	0.320924	0.376452
	C156	C	0.870663	0.376996	0.671383
	C157	C	0.101345	0.618005	0.673054
	C158	C	0.870330	0.614255	0.319541
	C159	C	0.101145	0.379018	0.320907
	C160	C	0.366859	0.669985	0.880733
	C161	C	0.608843	0.674582	0.110340
	C162	C	0.603549	0.318464	0.880512
	C163	C	0.364684	0.317105	0.110666
	C164	C	0.659794	0.881880	0.377071
	C165	C	0.664274	0.111164	0.616331
	C166	C	0.307196	0.882358	0.613440
	C167	C	0.310986	0.111517	0.376770
	C168	C	0.865694	0.381146	0.173011
	C169	C	0.107423	0.610024	0.174227
	C170	C	0.104361	0.382130	0.818163
	C171	C	0.867105	0.610717	0.819671
	C172	C	0.158541	0.879880	0.379817
	C173	C	0.165068	0.118352	0.610564
	C174	C	0.811089	0.113146	0.380768
	C175	C	0.808671	0.878506	0.611236
	C176	C	0.369804	0.168939	0.876771
	C177	C	0.600568	0.175108	0.116986
	C178	C	0.370465	0.817375	0.113827
	C179	C	0.601799	0.818571	0.875372
	C180	C	0.369351	0.875955	0.170023
	C181	C	0.600932	0.116727	0.173222
	C182	C	0.369924	0.111680	0.819543
	C183	C	0.601883	0.876531	0.818631
	C184	C	0.866975	0.172078	0.381414
	C185	C	0.108692	0.177018	0.610239
	C186	C	0.103292	0.819678	0.381662
	C187	C	0.864602	0.819960	0.611458
	C188	C	0.159106	0.380398	0.878656
	C189	C	0.164716	0.609537	0.116144
	C190	C	0.808940	0.380502	0.114092
	C191	C	0.809769	0.610321	0.877439
	C192	C	0.388962	0.090635	0.595718
	C193	C	0.583987	0.902789	0.594793
	C194	C	0.586415	0.090998	0.395557
	C195	C	0.383394	0.901913	0.394227
	C196	C	0.584442	0.397134	0.089917
	C197	C	0.585032	0.594712	0.901714
	C198	C	0.389074	0.594685	0.090764
	C199	C	0.383535	0.392585	0.900974
	C200	C	0.080983	0.597829	0.399042
	C201	C	0.889777	0.596248	0.596137
	C202	C	0.081316	0.399926	0.594301
	C203	C	0.889952	0.396285	0.397012
	C204	C	0.888726	0.589237	0.096120
	C205	C	0.084702	0.400824	0.097815
	C206	C	0.087544	0.590543	0.897012
	C207	C	0.885843	0.401762	0.894395
	C208	C	0.083914	0.899790	0.590521
	C209	C	0.085663	0.098494	0.400869
	C210	C	0.888732	0.096261	0.590922
	C211	C	0.884487	0.894225	0.401153
	C212	C	0.580839	0.094442	0.898788
	C213	C	0.390405	0.094129	0.094284
	C214	C	0.580923	0.897680	0.095252
	C215	C	0.390857	0.893896	0.895515
	Zn216	Zn	0.486399	-0.004724	0.746645
	Zn217	Zn	0.485051	-0.004070	0.244929
	Zn218	Zn	0.735995	0.495178	-0.004400
	Zn219	Zn	0.236224	0.494934	-0.003312
	Zn220	Zn	-0.015637	0.747114	0.497266
	Zn221	Zn	-0.013601	0.247674	0.496036
	Zn222	Zn	-0.013724	0.497260	0.745090
	Zn223	Zn	-0.013738	0.496161	0.248016
	Zn224	Zn	0.487001	0.745628	-0.004470
	Zn225	Zn	0.485146	0.245179	-0.004213
	Zn226	Zn	0.736355	-0.003301	0.495763
	Zn227	Zn	0.235520	-0.002266	0.495142
	N228	N	0.399839	0.959017	0.673897
	N229	N	0.573209	0.032980	0.676044
	N230	N	0.571473	0.960000	0.315719
	N231	N	0.398161	0.032512	0.315151
	N232	N	0.662172	0.410771	0.957736
	N233	N	0.664948	0.581011	0.033348
	N234	N	0.309788	0.578420	0.958458
	N235	N	0.307368	0.409469	0.033948
	N236	N	0.947603	0.673754	0.412175
	N237	N	0.021663	0.677700	0.584288
	N238	N	0.949438	0.317881	0.581965
	N239	N	0.022175	0.318082	0.409188
	N240	N	0.948624	0.412342	0.672257
	N241	N	0.023374	0.583038	0.673763
	N242	N	0.948985	0.582359	0.318176
	N243	N	0.023172	0.412137	0.319971
	N244	N	0.400374	0.673101	0.958879
	N245	N	0.574729	0.676051	0.032681
	N246	N	0.570535	0.317103	0.958457
	N247	N	0.396918	0.314138	0.032481
	N248	N	0.662273	0.959284	0.410920
	N249	N	0.664644	0.034207	0.581587
	N250	N	0.307088	0.959948	0.580564
	N251	N	0.308429	0.034291	0.410147
	N252	N	0.899636	0.458860	0.175670
	N253	N	0.072758	0.532769	0.176333
	N254	N	0.073251	0.460228	0.815735
	N255	N	0.900364	0.533553	0.817150
	N256	N	0.160150	0.914740	0.457250
	N257	N	0.165234	0.084182	0.533032
	N258	N	0.810011	0.080117	0.458579
	N259	N	0.807112	0.910941	0.533200
	N260	N	0.447949	0.171332	0.911069
	N261	N	0.522293	0.175778	0.083071
	N262	N	0.448967	0.816452	0.081354
	N263	N	0.523600	0.816515	0.908932
	N264	N	0.447437	0.911003	0.171848
	N265	N	0.522947	0.081836	0.173781
	N266	N	0.448384	0.079367	0.818665
	N267	N	0.523701	0.909459	0.817260
	N268	N	0.900274	0.175029	0.459443
	N269	N	0.074492	0.178608	0.532414
	N270	N	0.071100	0.817856	0.459972
	N271	N	0.897151	0.816764	0.533379
	N272	N	0.161407	0.457568	0.913142
	N273	N	0.165203	0.531904	0.082903
	N274	N	0.808343	0.457779	0.080679
	N275	N	0.807656	0.532684	0.910023
	O276	O	-0.001634	0.046094	-0.082577
	H277	H	-0.006354	0.040896	-0.083825
	H278	H	0.014955	0.049476	-0.076059
	O279	O	1.029046	0.094284	0.008090
	H280	H	1.033350	0.094927	0.018503
	H281	H	1.027808	0.104342	0.014744
	O282	O	0.515073	0.610640	0.459122
	H283	H	0.514078	0.614928	0.461783
	H284	H	0.503940	0.610610	0.461376
	O285	O	0.532123	1.554645	0.527572
	H286	H	0.533186	1.552027	0.533839
	H287	H	0.537599	1.559636	0.529085
	O288	O	0.491276	0.408634	0.487197
	H289	H	0.495436	0.403408	0.490381
	H290	H	0.494334	0.413078	0.483058
	O291	O	1.041192	1.053226	1.102182
	H292	H	1.033959	1.051564	1.120125
	H293	H	1.043150	1.066321	1.090803
	O294	O	0.923608	0.926753	1.080432
	H295	H	0.917554	0.907944	1.079464
	H296	H	0.920260	0.920141	1.085916
	O297	O	1.363336	0.433290	1.539346
	H298	H	1.362392	0.416015	1.547486
	H299	H	1.374397	0.435578	1.539457
	O300	O	0.405702	0.548398	0.480213
	H301	H	0.397014	0.545480	0.475913
	H302	H	0.407142	0.533230	0.484365
	O303	O	1.006061	-0.020418	0.040239
	H304	H	1.011996	-0.020991	0.040559
	H305	H	1.003704	-0.012025	0.037777
	O306	O	-0.035086	1.031693	0.923147
	H307	H	-0.037673	1.015101	0.928031
	H308	H	-0.032158	1.023287	0.916000
	O309	O	1.022403	0.971211	0.974547
	H310	H	1.029158	0.974031	0.971597
	H311	H	1.018104	0.980092	0.967896
	O312	O	0.870129	-0.131115	1.017727
	H313	H	0.864684	-0.134601	1.025670
	H314	H	0.866175	-0.139898	1.025140
	O315	O	0.507660	0.433422	0.498082
	H316	H	0.514912	0.431789	0.498348
	H317	H	0.509499	0.440625	0.500638
	O318	O	0.420896	0.529326	0.442355
	H319	H	0.421916	0.521507	0.439904
	H320	H	0.415415	0.533537	0.440524
	O321	O	1.015131	0.906313	0.976967
	H322	H	1.014481	0.910813	0.986366
	H323	H	1.018012	0.908430	0.976100
	O324	O	0.536631	0.412638	0.435005
	H325	H	0.540404	0.401941	0.417501
	H326	H	0.545924	0.419302	0.434850
	O327	O	0.484490	0.538891	0.518236
	H328	H	0.492862	0.543439	0.519850
	H329	H	0.480525	0.544615	0.513069
	O330	O	0.957728	0.009983	1.038721
	H331	H	0.964735	0.005462	1.041440
	H332	H	0.972720	0.011087	1.040327
	O333	O	1.024374	0.991465	0.078469
	H334	H	1.035087	0.991341	0.085640
	H335	H	1.014058	0.999464	0.074714
	O336	O	0.409477	0.447057	0.447895
	H337	H	0.401387	0.444397	0.456137
	H338	H	0.407790	0.443827	0.452163
	O339	O	0.525071	0.613485	0.428325
	H340	H	0.527771	0.598740	0.419467
	H341	H	0.511077	0.614746	0.436617
	O342	O	0.026832	1.028288	-0.013096
	H343	H	0.026400	1.031997	-0.006767
	H344	H	0.016277	1.025577	-0.017991
	O345	O	-0.011143	-0.115855	-0.007574
	H346	H	-0.004501	-0.116311	-0.016631
	H347	H	-0.016433	-0.126012	-0.000613
	O348	O	0.493346	0.482039	0.472405
	H349	H	0.483703	0.484183	0.487612
	H350	H	0.499145	0.484405	0.471789
	O351	O	0.452492	0.448484	0.588252
	H352	H	0.466893	0.445332	0.591442
	H353	H	0.463988	0.450239	0.586019
	O354	O	0.563205	0.503138	0.547365
	H355	H	0.583078	0.512315	0.557301
	H356	H	0.556536	0.499838	0.542618
	O357	O	0.535634	0.542471	0.544237
	H358	H	0.546217	0.542173	0.534831
	H359	H	0.539862	0.542948	0.552558
	O360	O	-0.019221	-0.006927	0.051196
	H361	H	-0.020584	0.000700	0.041739
	H362	H	-0.021594	-0.020961	0.051067
	O363	O	0.595517	0.536414	0.517291
	H364	H	0.587813	0.537180	0.520175
	H365	H	0.587376	0.524320	0.511832
	O366	O	-0.043988	0.023997	0.959322
	H367	H	-0.036324	0.027234	0.951831
	H368	H	-0.049811	0.033662	0.957573
	O369	O	0.487249	0.567290	0.397722
	H370	H	0.477672	0.579065	0.395295
	H371	H	0.471944	0.570482	0.385876
