data_Molecule from HDF5

_cell_length_a		16.505345
_cell_length_b		16.349672
_cell_length_c		16.113606
_cell_angle_alpha	89.897072
_cell_angle_beta	89.986067
_cell_angle_gamma	90.051892
_symmetry_space_group_name_H-M	'P 1'
_symmetry_Int_Tables_number		1

loop_
	_symmetry_equiv_pos_as_xyz
	x,y,z

loop_
	_atom_site_label
	_atom_site_type_symbol
	_atom_site_fract_x
	_atom_site_fract_y
	_atom_site_fract_z
	H0	H	0.397270	0.833225	0.718660
	H1	H	0.594875	0.157932	0.717045
	H2	H	0.597021	0.833654	0.286515
	H3	H	0.399014	0.158408	0.287160
	H4	H	0.716880	0.390972	0.839209
	H5	H	0.718433	0.599002	0.163100
	H6	H	0.278754	0.601603	0.839012
	H7	H	0.282176	0.392644	0.164235
	H8	H	0.839259	0.715571	0.396147
	H9	H	0.158241	0.716367	0.605751
	H10	H	0.839495	0.276650	0.605307
	H11	H	0.158444	0.276289	0.398134
	H12	H	0.838784	0.394300	0.719468
	H13	H	0.159936	0.594888	0.717661
	H14	H	0.838789	0.596248	0.282312
	H15	H	0.160014	0.396399	0.284880
	H16	H	0.396531	0.714176	0.837773
	H17	H	0.601332	0.712203	0.164260
	H18	H	0.598335	0.279148	0.839003
	H19	H	0.399206	0.281013	0.165903
	H20	H	0.719584	0.836680	0.394354
	H21	H	0.718528	0.155302	0.608874
	H22	H	0.275532	0.835575	0.609240
	H23	H	0.277455	0.155895	0.397812
	H24	H	0.900893	0.333446	0.216864
	H25	H	0.103292	0.656022	0.219738
	H26	H	0.098989	0.332263	0.784742
	H27	H	0.902071	0.657437	0.785316
	H28	H	0.217281	0.891802	0.340359
	H29	H	0.214922	0.099485	0.665147
	H30	H	0.777115	0.101799	0.339586
	H31	H	0.780086	0.892650	0.664818
	H32	H	0.338304	0.216126	0.898469
	H33	H	0.657615	0.215721	0.106904
	H34	H	0.339966	0.773019	0.108571
	H35	H	0.656564	0.774784	0.895110
	H36	H	0.337274	0.895072	0.219489
	H37	H	0.658085	0.097556	0.221377
	H38	H	0.336123	0.096772	0.785096
	H39	H	0.657349	0.896384	0.784625
	H40	H	0.897393	0.212180	0.337557
	H41	H	0.098768	0.211698	0.665473
	H42	H	0.099504	0.780278	0.337985
	H43	H	0.896067	0.777350	0.665037
	H44	H	0.221431	0.335110	0.893070
	H45	H	0.223441	0.654055	0.108352
	H46	H	0.778981	0.335352	0.106038
	H47	H	0.776137	0.653317	0.890085
	H48	H	0.400198	0.110796	0.588881
	H49	H	0.584893	0.880928	0.595672
	H50	H	0.586861	0.106589	0.422132
	H51	H	0.409124	0.884648	0.421678
	H52	H	0.591333	0.409202	0.118231
	H53	H	0.591181	0.586036	0.883704
	H54	H	0.418110	0.580089	0.112289
	H55	H	0.410204	0.406284	0.885101
	H56	H	0.110991	0.595680	0.420964
	H57	H	0.886979	0.586413	0.587544
	H58	H	0.112141	0.405427	0.591967
	H59	H	0.883406	0.396333	0.410922
	H60	H	0.114072	0.400721	0.593589
	H61	H	0.885963	0.584405	0.593898
	H62	H	0.108751	0.576839	0.412005
	H63	H	0.887929	0.407714	0.416826
	H64	H	0.409768	0.591820	0.119164
	H65	H	0.587998	0.580491	0.886986
	H66	H	0.587830	0.405097	0.117389
	H67	H	0.409807	0.403843	0.884411
	H68	H	0.597022	0.112531	0.412806
	H69	H	0.588622	0.883076	0.585227
	H70	H	0.402800	0.112875	0.598213
	H71	H	0.397062	0.878725	0.413778
	H72	H	0.911606	0.611387	0.098654
	H73	H	0.098174	0.378266	0.092593
	H74	H	0.087765	0.606391	0.915125
	H75	H	0.908986	0.381593	0.914341
	H76	H	0.080863	0.900976	0.617392
	H77	H	0.087663	0.085848	0.385654
	H78	H	0.912939	0.084201	0.615259
	H79	H	0.909756	0.910619	0.388446
	H80	H	0.614878	0.088390	0.897783
	H81	H	0.383114	0.090796	0.096036
	H82	H	0.609355	0.907614	0.088712
	H83	H	0.385151	0.900811	0.919176
	H84	H	0.611787	0.906238	0.098280
	H85	H	0.384913	0.089943	0.090782
	H86	H	0.611684	0.099889	0.919476
	H87	H	0.385705	0.910110	0.912575
	H88	H	0.906059	0.090175	0.619798
	H89	H	0.089455	0.087159	0.384197
	H90	H	0.094855	0.903734	0.621821
	H91	H	0.909975	0.902926	0.385468
	H92	H	0.095368	0.609136	0.914670
	H93	H	0.086741	0.380543	0.094889
	H94	H	0.913434	0.606045	0.081395
	H95	H	0.902825	0.378677	0.912459
	H96	H	0.409677	0.108803	0.591855
	H97	H	0.595383	0.878447	0.592707
	H98	H	0.582777	0.110077	0.408340
	H99	H	0.410421	0.879939	0.406586
	H100	H	0.592326	0.403988	0.120565
	H101	H	0.584764	0.586261	0.885312
	H102	H	0.403430	0.577500	0.116505
	H103	H	0.407634	0.406162	0.884196
	H104	H	0.116540	0.592253	0.400870
	H105	H	0.883916	0.590534	0.592271
	H106	H	0.112315	0.402049	0.589417
	H107	H	0.884065	0.407673	0.402897
	H108	H	0.898215	0.611947	0.087349
	H109	H	0.091208	0.382569	0.083908
	H110	H	0.089733	0.610287	0.907684
	H111	H	0.908553	0.379481	0.908047
	H112	H	0.086390	0.913931	0.615576
	H113	H	0.089483	0.084461	0.385736
	H114	H	0.903669	0.080878	0.616861
	H115	H	0.903244	0.907925	0.384548
	H116	H	0.605740	0.076178	0.917002
	H117	H	0.384882	0.085758	0.094885
	H118	H	0.613570	0.898610	0.091474
	H119	H	0.382056	0.900866	0.907979
	C120	C	0.374745	0.003971	0.624251
	C121	C	0.619638	0.986956	0.623198
	C122	C	0.619584	0.004105	0.381710
	C123	C	0.375731	0.987672	0.382230
	C124	C	0.620101	0.374540	0.010956
	C125	C	0.619834	0.615862	0.992504
	C126	C	0.378579	0.615746	0.009062
	C127	C	0.378801	0.375140	0.992645
	C128	C	0.007166	0.618722	0.378438
	C129	C	0.991030	0.617583	0.622715
	C130	C	0.007262	0.373410	0.622654
	C131	C	0.990866	0.373729	0.379322
	C132	C	0.878047	0.503563	0.120779
	C133	C	0.122339	0.486688	0.122189
	C134	C	0.121779	0.502898	0.879637
	C135	C	0.877140	0.486375	0.879531
	C136	C	0.118444	0.875313	0.510674
	C137	C	0.119012	0.116556	0.493287
	C138	C	0.876379	0.117194	0.509981
	C139	C	0.876810	0.875041	0.493265
	C140	C	0.505280	0.118422	0.880525
	C141	C	0.489998	0.118697	0.124740
	C142	C	0.506312	0.873310	0.124227
	C143	C	0.489018	0.873298	0.880862
	C144	C	0.376661	0.881952	0.681066
	C145	C	0.616608	0.108957	0.679866
	C146	C	0.617809	0.882523	0.324036
	C147	C	0.377906	0.109303	0.324796
	C148	C	0.677559	0.372867	0.888020
	C149	C	0.679061	0.617391	0.114412
	C150	C	0.319227	0.618694	0.887281
	C151	C	0.321084	0.374298	0.115463
	C152	C	0.887234	0.676345	0.377292
	C153	C	0.110848	0.676343	0.623958
	C154	C	0.887245	0.315557	0.624193
	C155	C	0.110736	0.315782	0.379197
	C156	C	0.886910	0.374559	0.680613
	C157	C	0.111663	0.615963	0.679975
	C158	C	0.887068	0.617304	0.320304
	C159	C	0.111678	0.375577	0.322949
	C160	C	0.377339	0.675462	0.886915
	C161	C	0.620483	0.673373	0.115231
	C162	C	0.618808	0.317023	0.887918
	C163	C	0.379238	0.318872	0.116458
	C164	C	0.678989	0.884066	0.377735
	C165	C	0.678011	0.107662	0.625793
	C166	C	0.315941	0.883344	0.626695
	C167	C	0.317722	0.108363	0.380174
	C168	C	0.879936	0.381976	0.178595
	C169	C	0.122665	0.607647	0.180901
	C170	C	0.120175	0.381385	0.821898
	C171	C	0.880246	0.608456	0.822420
	C172	C	0.177297	0.874254	0.388472
	C173	C	0.176336	0.117701	0.616054
	C174	C	0.817214	0.119349	0.388066
	C175	C	0.819060	0.873486	0.615994
	C176	C	0.385692	0.176437	0.879958
	C177	C	0.609805	0.176511	0.125501
	C178	C	0.387245	0.813549	0.126471
	C179	C	0.609056	0.815105	0.877923
	C180	C	0.385856	0.874408	0.181831
	C181	C	0.610108	0.117770	0.182764
	C182	C	0.384666	0.117038	0.823381
	C183	C	0.609455	0.875419	0.822594
	C184	C	0.876892	0.174590	0.386941
	C185	C	0.117999	0.173355	0.616348
	C186	C	0.118710	0.818564	0.387385
	C187	C	0.877001	0.816496	0.616144
	C188	C	0.180665	0.382520	0.876506
	C189	C	0.182583	0.606572	0.125348
	C190	C	0.819509	0.382996	0.123494
	C191	C	0.817425	0.606179	0.874675
	C192	C	0.397670	0.088799	0.600076
	C193	C	0.596536	0.902813	0.598491
	C194	C	0.595933	0.087974	0.407245
	C195	C	0.398818	0.903090	0.406821
	C196	C	0.597075	0.399077	0.096457
	C197	C	0.595049	0.591523	0.907422
	C198	C	0.403255	0.590577	0.093813
	C199	C	0.402337	0.398642	0.907007
	C200	C	0.090516	0.595064	0.403678
	C201	C	0.907337	0.593949	0.598254
	C202	C	0.091025	0.396130	0.598523
	C203	C	0.906955	0.396995	0.403106
	C204	C	0.901132	0.587750	0.096161
	C205	C	0.098724	0.402573	0.097598
	C206	C	0.097975	0.586806	0.905046
	C207	C	0.900083	0.401975	0.904409
	C208	C	0.094256	0.899356	0.595980
	C209	C	0.095810	0.092686	0.407503
	C210	C	0.900579	0.092295	0.595266
	C211	C	0.900719	0.900047	0.408215
	C212	C	0.588983	0.094840	0.904445
	C213	C	0.405939	0.095502	0.100794
	C214	C	0.589800	0.897141	0.099774
	C215	C	0.405910	0.896922	0.906161
	Zn216	Zn	0.496513	-0.004611	0.752099
	Zn217	Zn	0.497878	-0.004160	0.253907
	Zn218	Zn	0.748168	0.495407	0.000473
	Zn219	Zn	0.250891	0.494386	0.000611
	Zn220	Zn	-0.001411	0.747313	0.501377
	Zn221	Zn	-0.001642	0.244232	0.501396
	Zn222	Zn	-0.000408	0.495030	0.751963
	Zn223	Zn	-0.000469	0.495604	0.249980
	Zn224	Zn	0.498868	0.744148	0.001831
	Zn225	Zn	0.498135	0.248179	0.002572
	Zn226	Zn	0.748744	-0.004203	0.501963
	Zn227	Zn	0.246304	-0.004358	0.503049
	N228	N	0.412450	0.957989	0.679889
	N229	N	0.580875	0.032944	0.678536
	N230	N	0.581628	0.958200	0.326351
	N231	N	0.413260	0.033219	0.326052
	N232	N	0.678558	0.407729	0.965608
	N233	N	0.678794	0.582347	0.036947
	N234	N	0.319699	0.582495	0.964231
	N235	N	0.320518	0.408430	0.037355
	N236	N	0.962987	0.677479	0.412618
	N237	N	0.034849	0.677282	0.589089
	N238	N	0.962985	0.314714	0.588784
	N239	N	0.034381	0.314506	0.413510
	N240	N	0.962436	0.409890	0.679801
	N241	N	0.036208	0.580152	0.679351
	N242	N	0.962901	0.582563	0.320627
	N243	N	0.036214	0.410903	0.323109
	N244	N	0.413400	0.673790	0.963796
	N245	N	0.584405	0.672611	0.038409
	N246	N	0.584055	0.317846	0.965393
	N247	N	0.414229	0.319233	0.039195
	N248	N	0.680308	0.960706	0.412804
	N249	N	0.679998	0.030813	0.591299
	N250	N	0.314759	0.960267	0.592250
	N251	N	0.316345	0.031703	0.415124
	N252	N	0.915667	0.458089	0.177288
	N253	N	0.085891	0.532273	0.179033
	N254	N	0.083968	0.457116	0.823959
	N255	N	0.916712	0.532932	0.825232
	N256	N	0.177210	0.908973	0.466119
	N257	N	0.176771	0.082756	0.538452
	N258	N	0.816888	0.084348	0.465726
	N259	N	0.818631	0.908896	0.538544
	N260	N	0.461677	0.177361	0.914899
	N261	N	0.534014	0.177019	0.090116
	N262	N	0.463193	0.812640	0.091570
	N263	N	0.533405	0.813704	0.913522
	N264	N	0.461025	0.910975	0.180723
	N265	N	0.534613	0.082507	0.182513
	N266	N	0.460097	0.081622	0.823502
	N267	N	0.533975	0.910928	0.824164
	N268	N	0.912876	0.173393	0.463861
	N269	N	0.082913	0.172691	0.539038
	N270	N	0.083012	0.818934	0.464397
	N271	N	0.912179	0.817259	0.538786
	N272	N	0.181957	0.459166	0.911598
	N273	N	0.182578	0.530266	0.089595
	N274	N	0.818419	0.459490	0.088227
	N275	N	0.815573	0.529328	0.909514
	O276	O	0.604544	0.418286	0.496088
	H277	H	0.608161	0.421154	0.495605
	H278	H	0.617816	0.412318	0.491643
	O279	O	0.584191	0.426822	0.429489
	H280	H	0.585033	0.418748	0.433144
	H281	H	0.581763	0.426033	0.423232
	O282	O	1.139062	-0.077752	1.021613
	H283	H	1.132836	-0.079762	1.009781
	H284	H	1.141452	-0.063643	1.018482
	O285	O	0.349655	0.593328	0.437414
	H286	H	0.356033	0.592451	0.438067
	H287	H	0.353315	0.586189	0.428791
	O288	O	0.966397	1.000233	0.905741
	H289	H	0.957008	1.005672	0.910755
	H290	H	0.953488	1.013207	0.902453
	O291	O	-0.174106	1.072257	-0.067272
	H292	H	-0.175008	1.078808	-0.050013
	H293	H	-0.169528	1.057066	-0.071690
	O294	O	0.505767	0.371817	0.410683
	H295	H	0.498610	0.374866	0.429298
	H296	H	0.507435	0.367092	0.411714
	O297	O	0.577525	0.470775	0.534923
	H298	H	0.588807	0.475898	0.542144
	H299	H	0.576056	0.475396	0.548271
	O300	O	0.600177	0.494769	0.518332
	H301	H	0.609366	0.494117	0.508858
	H302	H	0.600034	0.487220	0.516649
	O303	O	0.683305	0.664984	0.597600
	H304	H	0.686210	0.670264	0.593184
	H305	H	0.675303	0.664531	0.605519
	O306	O	0.520351	0.366388	0.375698
	H307	H	0.524907	0.361596	0.369210
	H308	H	0.518578	0.358636	0.377567
	O309	O	0.589485	0.485342	0.519051
	H310	H	0.579563	0.481924	0.512259
	H311	H	0.586430	0.488478	0.530862
	O312	O	0.044145	-0.096924	-0.051151
	H313	H	0.041345	-0.097341	-0.051536
	H314	H	0.053362	-0.092422	-0.060551
	O315	O	0.490676	0.536225	0.327991
	H316	H	0.499321	0.523620	0.325071
	H317	H	0.504250	0.545229	0.332324
	O318	O	0.171887	0.991691	1.115438
	H319	H	0.177818	0.993432	1.115164
	H320	H	0.166202	0.986447	1.103890
	O321	O	0.403547	0.520351	0.446211
	H322	H	0.407300	0.514321	0.444987
	H323	H	0.407338	0.514888	0.450267
	O324	O	-0.096310	1.172323	0.082663
	H325	H	-0.092271	1.176226	0.077779
	H326	H	-0.085987	1.168907	0.094244
	O327	O	0.581465	0.574729	0.597638
	H328	H	0.582066	0.567517	0.600386
	H329	H	0.585841	0.587805	0.616464
	O330	O	-0.050366	-0.160902	1.001220
	H331	H	-0.040573	-0.160806	1.016235
	H332	H	-0.065374	-0.151125	0.998516
	O333	O	0.167951	0.069901	1.049330
	H334	H	0.169610	0.054211	1.030548
	H335	H	0.163055	0.066985	1.043251
	O336	O	0.454370	0.542178	0.525101
	H337	H	0.460925	0.528773	0.515929
	H338	H	0.447995	0.551383	0.534312
	O339	O	0.945384	-0.028183	-0.062472
	H340	H	0.944258	-0.025498	-0.056367
	H341	H	0.928141	-0.032705	-0.057986
	O342	O	-0.125668	0.091818	-0.059082
	H343	H	-0.120042	0.094546	-0.042980
	H344	H	-0.142248	0.100250	-0.065396
	O345	O	1.062968	-0.199826	1.131372
	H346	H	1.077221	-0.204186	1.100460
	H347	H	1.070271	-0.226343	1.132751
	O348	O	0.926332	1.133262	0.075000
	H349	H	0.930104	1.108926	0.070978
	H350	H	0.950243	1.149415	0.080543
	O351	O	0.423263	0.545647	0.541485
	H352	H	0.421977	0.544765	0.534091
	H353	H	0.413302	0.539936	0.532277
	O354	O	0.867090	-0.211214	1.108000
	H355	H	0.873896	-0.220701	1.139941
	H356	H	0.867463	-0.226315	1.097331
	O357	O	0.531776	0.438436	0.544857
	H358	H	0.532461	0.434815	0.547037
	H359	H	0.524376	0.445155	0.551153
	O360	O	0.331277	0.426661	0.542883
	H361	H	0.338197	0.432661	0.544865
	H362	H	0.321809	0.422777	0.535962
	O363	O	-0.193971	1.093587	1.049677
	H364	H	-0.199882	1.110235	1.058215
	H365	H	-0.190580	1.103743	1.057222
	O366	O	0.385402	0.410612	0.657403
	H367	H	0.379255	0.415347	0.655045
	H368	H	0.377130	0.407899	0.657513
	O369	O	0.111447	0.904483	-0.025037
	H370	H	0.096505	0.889479	-0.036668
	H371	H	0.107169	0.918257	-0.045828
	O372	O	0.332576	0.461549	0.516778
	H373	H	0.333677	0.464931	0.511783
	H374	H	0.321617	0.469553	0.504181
	O375	O	0.382091	0.590545	0.520153
	H376	H	0.373362	0.584680	0.524682
	H377	H	0.382035	0.588395	0.512592
	O378	O	0.808630	0.905586	0.182789
	H379	H	0.803914	0.928251	0.202616
	H380	H	0.834905	0.900503	0.190322
	O381	O	1.086010	-0.073867	-0.174422
	H382	H	1.062398	-0.079023	-0.178104
	H383	H	1.091309	-0.067340	-0.179829
	O384	O	1.144955	1.128321	0.121593
	H385	H	1.155881	1.129407	0.108869
	H386	H	1.150885	1.119754	0.129966
	O387	O	0.105790	-0.138940	-0.099718
	H388	H	0.111488	-0.140462	-0.109909
	H389	H	0.098800	-0.144792	-0.095986
	O390	O	-0.006004	0.940086	0.081802
	H391	H	0.000296	0.939112	0.081352
	H392	H	-0.000538	0.941578	0.081576
	O393	O	1.498762	0.463238	0.550104
	H394	H	1.499376	0.458133	0.552251
	H395	H	1.498074	0.466880	0.551743
	O396	O	0.611730	0.490837	0.515463
	H397	H	0.612317	0.492514	0.500135
	H398	H	0.616666	0.483072	0.510543
	O399	O	0.000124	1.175358	0.992256
	H400	H	-0.007384	1.172800	0.994114
	H401	H	0.010263	1.183302	0.995376
	O402	O	0.572354	0.502527	0.478069
	H403	H	0.565216	0.511918	0.481928
	H404	H	0.579550	0.493122	0.467328
	O405	O	0.827170	0.919752	-0.105973
	H406	H	0.828738	0.915017	-0.096659
	H407	H	0.819713	0.904642	-0.082396
	O408	O	1.157686	0.973829	-0.007968
	H409	H	1.153782	0.971697	-0.013565
	H410	H	1.162100	0.963701	-0.030719
	O411	O	1.101469	0.188085	1.178281
	H412	H	1.118966	0.185047	1.173883
	H413	H	1.113490	0.181968	1.191590
	O414	O	-0.107603	0.053976	0.826803
	H415	H	-0.115266	0.053997	0.846086
	H416	H	-0.121685	0.043343	0.815091
	O417	O	0.491463	0.595470	0.517477
	H418	H	0.493252	0.599494	0.507667
	H419	H	0.505944	0.599972	0.520850
