data_Molecule from HDF5

_cell_length_a		16.311582
_cell_length_b		16.267808
_cell_length_c		16.304944
_cell_angle_alpha	90.043991
_cell_angle_beta	89.986888
_cell_angle_gamma	89.946584
_symmetry_space_group_name_H-M	'P 1'
_symmetry_Int_Tables_number		1

loop_
	_symmetry_equiv_pos_as_xyz
	x,y,z

loop_
	_atom_site_label
	_atom_site_type_symbol
	_atom_site_fract_x
	_atom_site_fract_y
	_atom_site_fract_z
	H0	H	0.401397	0.836131	0.714232
	H1	H	0.597256	0.164313	0.713953
	H2	H	0.598469	0.836622	0.284946
	H3	H	0.403052	0.164512	0.286716
	H4	H	0.715037	0.401135	0.836261
	H5	H	0.714230	0.598603	0.163258
	H6	H	0.285901	0.597621	0.836671
	H7	H	0.286662	0.402702	0.163836
	H8	H	0.835936	0.713736	0.402087
	H9	H	0.163632	0.714815	0.598129
	H10	H	0.836520	0.286171	0.597922
	H11	H	0.163079	0.284862	0.402197
	H12	H	0.836664	0.401764	0.714606
	H13	H	0.163976	0.599038	0.715444
	H14	H	0.836559	0.597441	0.285987
	H15	H	0.163748	0.401865	0.286621
	H16	H	0.401813	0.713260	0.835771
	H17	H	0.596910	0.714210	0.163169
	H18	H	0.597181	0.286930	0.835632
	H19	H	0.402509	0.286171	0.163252
	H20	H	0.714049	0.836661	0.402055
	H21	H	0.713870	0.164549	0.598481
	H22	H	0.286038	0.836013	0.596872
	H23	H	0.284988	0.163858	0.401700
	H24	H	0.902487	0.335265	0.214424
	H25	H	0.098492	0.663413	0.214605
	H26	H	0.098330	0.335802	0.785681
	H27	H	0.902775	0.664006	0.786395
	H28	H	0.214318	0.901105	0.336812
	H29	H	0.215076	0.098995	0.662950
	H30	H	0.786419	0.097752	0.336786
	H31	H	0.785236	0.901779	0.663876
	H32	H	0.335838	0.213844	0.902120
	H33	H	0.663961	0.213966	0.096794
	H34	H	0.336181	0.786723	0.098461
	H35	H	0.663418	0.786092	0.901826
	H36	H	0.336280	0.902841	0.214478
	H37	H	0.664116	0.098471	0.213185
	H38	H	0.335773	0.097236	0.786810
	H39	H	0.663280	0.901666	0.784823
	H40	H	0.900922	0.214579	0.337234
	H41	H	0.098311	0.214121	0.663430
	H42	H	0.097594	0.785218	0.336158
	H43	H	0.902100	0.786276	0.664206
	H44	H	0.214833	0.336539	0.901966
	H45	H	0.214113	0.664029	0.098368
	H46	H	0.785135	0.335794	0.099061
	H47	H	0.785826	0.664368	0.902234
	H48	H	0.412399	0.113812	0.590501
	H49	H	0.598141	0.883453	0.589897
	H50	H	0.596138	0.119176	0.401385
	H51	H	0.408627	0.881914	0.399925
	H52	H	0.598261	0.407364	0.117917
	H53	H	0.592728	0.597460	0.882268
	H54	H	0.402092	0.600642	0.119760
	H55	H	0.399928	0.409747	0.882965
	H56	H	0.117387	0.600916	0.410844
	H57	H	0.887423	0.587207	0.589341
	H58	H	0.115196	0.400354	0.583076
	H59	H	0.885702	0.411546	0.408934
	H60	H	0.113068	0.418198	0.593453
	H61	H	0.883593	0.591471	0.600524
	H62	H	0.112051	0.586023	0.411811
	H63	H	0.881752	0.406221	0.400193
	H64	H	0.402830	0.586359	0.115633
	H65	H	0.598495	0.591289	0.881765
	H66	H	0.590296	0.411495	0.113297
	H67	H	0.411437	0.410735	0.886104
	H68	H	0.588310	0.115291	0.405942
	H69	H	0.591850	0.882750	0.598096
	H70	H	0.400819	0.116478	0.589309
	H71	H	0.412870	0.886221	0.410287
	H72	H	0.915847	0.612061	0.091027
	H73	H	0.099727	0.381214	0.094688
	H74	H	0.090368	0.615729	0.906197
	H75	H	0.906779	0.382540	0.904865
	H76	H	0.091502	0.904480	0.616648
	H77	H	0.096538	0.095936	0.381276
	H78	H	0.910141	0.082773	0.613082
	H79	H	0.901554	0.908386	0.383638
	H80	H	0.617554	0.097741	0.907596
	H81	H	0.382828	0.098940	0.092639
	H82	H	0.617672	0.910910	0.100632
	H83	H	0.383781	0.917365	0.895231
	H84	H	0.618099	0.898041	0.091021
	H85	H	0.385086	0.091140	0.089827
	H86	H	0.614546	0.090744	0.908038
	H87	H	0.378042	0.892730	0.903739
	H88	H	0.912725	0.101710	0.617180
	H89	H	0.094665	0.086890	0.384818
	H90	H	0.096589	0.905464	0.617682
	H91	H	0.909750	0.909241	0.385704
	H92	H	0.095085	0.616652	0.910181
	H93	H	0.090131	0.383031	0.097801
	H94	H	0.900997	0.616438	0.086767
	H95	H	0.907946	0.384153	0.907919
	H96	H	0.406650	0.118586	0.599595
	H97	H	0.588216	0.886183	0.589078
	H98	H	0.596472	0.116216	0.411041
	H99	H	0.401032	0.883091	0.408928
	H100	H	0.590228	0.402224	0.116254
	H101	H	0.591005	0.590248	0.885067
	H102	H	0.414179	0.595219	0.114269
	H103	H	0.407738	0.400874	0.881736
	H104	H	0.118353	0.591163	0.398718
	H105	H	0.883267	0.598837	0.590536
	H106	H	0.121028	0.401013	0.602995
	H107	H	0.883309	0.400887	0.409652
	H108	H	0.906186	0.618493	0.101423
	H109	H	0.092431	0.385077	0.088341
	H110	H	0.095818	0.618044	0.904307
	H111	H	0.904288	0.383563	0.907561
	H112	H	0.093205	0.909374	0.615156
	H113	H	0.087922	0.093788	0.384705
	H114	H	0.895750	0.093667	0.620102
	H115	H	0.907098	0.902002	0.382224
	H116	H	0.617622	0.093603	0.901549
	H117	H	0.383060	0.092384	0.097903
	H118	H	0.612060	0.911983	0.085941
	H119	H	0.389308	0.910409	0.920375
	C120	C	0.378370	0.008056	0.621556
	C121	C	0.621381	0.992156	0.621330
	C122	C	0.621826	0.008805	0.378053
	C123	C	0.379059	0.992175	0.378305
	C124	C	0.621261	0.378633	0.007713
	C125	C	0.621477	0.621667	0.991406
	C126	C	0.378166	0.621730	0.008507
	C127	C	0.378487	0.378786	0.991681
	C128	C	0.007907	0.621178	0.378902
	C129	C	0.992580	0.621295	0.621715
	C130	C	0.008459	0.377956	0.621900
	C131	C	0.991608	0.378058	0.378496
	C132	C	0.878741	0.507395	0.121705
	C133	C	0.122043	0.491662	0.122090
	C134	C	0.121656	0.508298	0.878847
	C135	C	0.878617	0.491777	0.878602
	C136	C	0.121864	0.878056	0.508435
	C137	C	0.121279	0.120674	0.491718
	C138	C	0.877809	0.121326	0.508801
	C139	C	0.878040	0.878258	0.492172
	C140	C	0.508072	0.121921	0.878079
	C141	C	0.492038	0.122301	0.121241
	C142	C	0.507996	0.879083	0.120795
	C143	C	0.491643	0.878324	0.878105
	C144	C	0.380815	0.885053	0.676721
	C145	C	0.618069	0.115676	0.676033
	C146	C	0.619238	0.885357	0.322924
	C147	C	0.381726	0.115548	0.323792
	C148	C	0.676194	0.381306	0.884809
	C149	C	0.676315	0.619239	0.114621
	C150	C	0.323177	0.618979	0.885275
	C151	C	0.324429	0.382041	0.114956
	C152	C	0.885099	0.676046	0.381501
	C153	C	0.115075	0.676878	0.618925
	C154	C	0.885323	0.323534	0.618816
	C155	C	0.114503	0.322606	0.381071
	C156	C	0.885609	0.380832	0.677029
	C157	C	0.115317	0.619067	0.676966
	C158	C	0.885152	0.618413	0.323785
	C159	C	0.114851	0.380598	0.323698
	C160	C	0.380961	0.676026	0.884876
	C161	C	0.618144	0.676484	0.114394
	C162	C	0.618174	0.324129	0.884592
	C163	C	0.382105	0.324446	0.114739
	C164	C	0.676456	0.885322	0.381031
	C165	C	0.676029	0.115581	0.618791
	C166	C	0.323661	0.884776	0.618330
	C167	C	0.323251	0.115109	0.380995
	C168	C	0.881639	0.384287	0.176737
	C169	C	0.118984	0.614796	0.176854
	C170	C	0.118693	0.384655	0.824126
	C171	C	0.882011	0.615494	0.824019
	C172	C	0.176699	0.880628	0.385361
	C173	C	0.176667	0.118988	0.614505
	C174	C	0.823562	0.118317	0.385629
	C175	C	0.823185	0.880971	0.615105
	C176	C	0.384876	0.176382	0.881465
	C177	C	0.615153	0.176467	0.117592
	C178	C	0.384727	0.824761	0.118129
	C179	C	0.614450	0.823301	0.880746
	C180	C	0.384853	0.882570	0.175795
	C181	C	0.615280	0.119367	0.175642
	C182	C	0.384787	0.118542	0.823886
	C183	C	0.614624	0.881120	0.822991
	C184	C	0.881002	0.175976	0.385768
	C185	C	0.118683	0.176082	0.614712
	C186	C	0.118538	0.823388	0.385108
	C187	C	0.881411	0.823757	0.615354
	C188	C	0.176807	0.385048	0.881388
	C189	C	0.176431	0.614951	0.119059
	C190	C	0.823238	0.384399	0.119451
	C191	C	0.824112	0.615370	0.881664
	C192	C	0.400057	0.094279	0.599595
	C193	C	0.599233	0.906323	0.598860
	C194	C	0.600044	0.094690	0.399750
	C195	C	0.401172	0.905947	0.399985
	C196	C	0.599421	0.400669	0.093893
	C197	C	0.600168	0.599625	0.905257
	C198	C	0.399917	0.600327	0.094355
	C199	C	0.400036	0.400809	0.905574
	C200	C	0.093720	0.599045	0.400632
	C201	C	0.906898	0.598911	0.600022
	C202	C	0.094349	0.400112	0.599793
	C203	C	0.905643	0.399844	0.400064
	C204	C	0.901044	0.593504	0.099577
	C205	C	0.100385	0.405544	0.100183
	C206	C	0.100110	0.594610	0.900513
	C207	C	0.900068	0.405652	0.900243
	C208	C	0.100173	0.900118	0.594289
	C209	C	0.099524	0.098788	0.405838
	C210	C	0.899788	0.099230	0.594792
	C211	C	0.899658	0.900144	0.405915
	C212	C	0.594455	0.100370	0.899384
	C213	C	0.405776	0.100580	0.099778
	C214	C	0.593731	0.900625	0.099030
	C215	C	0.405738	0.900324	0.899964
	Zn216	Zn	0.500077	0.000379	0.749782
	Zn217	Zn	0.500231	0.000428	0.249493
	Zn218	Zn	0.750064	0.499762	0.000159
	Zn219	Zn	0.250121	0.500225	0.000505
	Zn220	Zn	-0.000351	0.750182	0.500035
	Zn221	Zn	-0.000235	0.249229	0.500058
	Zn222	Zn	0.000442	0.499782	0.750498
	Zn223	Zn	0.000369	0.499573	0.250326
	Zn224	Zn	0.499098	0.749859	-0.000345
	Zn225	Zn	0.500061	0.250219	-0.000362
	Zn226	Zn	0.749839	0.000031	0.500504
	Zn227	Zn	0.249796	-0.000144	0.499828
	N228	N	0.414110	0.962673	0.678610
	N229	N	0.584884	0.037888	0.677828
	N230	N	0.585888	0.962947	0.320910
	N231	N	0.415579	0.038058	0.322044
	N232	N	0.678345	0.414391	0.962533
	N233	N	0.678584	0.585882	0.037053
	N234	N	0.321624	0.585707	0.962751
	N235	N	0.322120	0.415117	0.037340
	N236	N	0.962351	0.677540	0.415344
	N237	N	0.037769	0.678190	0.585230
	N238	N	0.962803	0.321622	0.585335
	N239	N	0.036984	0.320820	0.414345
	N240	N	0.963138	0.414074	0.678929
	N241	N	0.038035	0.585401	0.678908
	N242	N	0.962575	0.584898	0.322073
	N243	N	0.037517	0.414436	0.321976
	N244	N	0.414345	0.678044	0.962422
	N245	N	0.584660	0.677806	0.036914
	N246	N	0.584557	0.322661	0.961992
	N247	N	0.414791	0.322363	0.037053
	N248	N	0.678080	0.962906	0.414689
	N249	N	0.678130	0.037906	0.585456
	N250	N	0.322136	0.962315	0.584536
	N251	N	0.321742	0.037416	0.414289
	N252	N	0.915577	0.461819	0.178054
	N253	N	0.085924	0.537096	0.178718
	N254	N	0.084937	0.462197	0.822660
	N255	N	0.915225	0.537702	0.822064
	N256	N	0.178583	0.914048	0.462821
	N257	N	0.178287	0.085159	0.537137
	N258	N	0.821722	0.085009	0.463234
	N259	N	0.821148	0.914203	0.537477
	N260	N	0.462509	0.178420	0.914542
	N261	N	0.537590	0.178264	0.084689
	N262	N	0.462252	0.822540	0.084735
	N263	N	0.536966	0.821479	0.914227
	N264	N	0.462409	0.915719	0.177646
	N265	N	0.537568	0.086334	0.178091
	N266	N	0.462415	0.085340	0.821885
	N267	N	0.537399	0.914942	0.821524
	N268	N	0.913890	0.178010	0.463322
	N269	N	0.084741	0.177148	0.537398
	N270	N	0.085086	0.821709	0.462600
	N271	N	0.914902	0.822189	0.537869
	N272	N	0.178658	0.462771	0.914806
	N273	N	0.178422	0.537275	0.085664
	N274	N	0.821437	0.462071	0.086003
	N275	N	0.822104	0.537694	0.915038
