data_Molecule from HDF5

_cell_length_a		16.592800
_cell_length_b		16.554308
_cell_length_c		16.481595
_cell_angle_alpha	89.834330
_cell_angle_beta	89.919274
_cell_angle_gamma	90.062199
_symmetry_space_group_name_H-M	'P 1'
_symmetry_Int_Tables_number		1

loop_
	_symmetry_equiv_pos_as_xyz
	x,y,z

loop_
	_atom_site_label
	_atom_site_type_symbol
	_atom_site_fract_x
	_atom_site_fract_y
	_atom_site_fract_z
	H0	H	0.407628	0.826340	0.745892
	H1	H	0.617538	0.139887	0.742027
	H2	H	0.615544	0.824698	0.302288
	H3	H	0.410149	0.139718	0.300859
	H4	H	0.735706	0.376646	0.864276
	H5	H	0.733536	0.585395	0.179448
	H6	H	0.290857	0.590895	0.865730
	H7	H	0.293906	0.379054	0.178988
	H8	H	0.856395	0.701952	0.417078
	H9	H	0.171144	0.700827	0.623152
	H10	H	0.857180	0.258370	0.628114
	H11	H	0.170716	0.261078	0.416529
	H12	H	0.855924	0.376174	0.743661
	H13	H	0.169618	0.585485	0.741705
	H14	H	0.856085	0.583604	0.302942
	H15	H	0.170236	0.377550	0.299668
	H16	H	0.408667	0.706364	0.865327
	H17	H	0.616408	0.700708	0.180431
	H18	H	0.618195	0.261928	0.863688
	H19	H	0.410035	0.262755	0.179115
	H20	H	0.736024	0.826030	0.415271
	H21	H	0.735897	0.139064	0.626799
	H22	H	0.291494	0.826004	0.628682
	H23	H	0.292014	0.138743	0.415505
	H24	H	0.911376	0.323270	0.240205
	H25	H	0.116746	0.639355	0.240988
	H26	H	0.115529	0.323778	0.803293
	H27	H	0.909626	0.639113	0.799953
	H28	H	0.232860	0.880526	0.363671
	H29	H	0.234531	0.086011	0.679100
	H30	H	0.795005	0.085851	0.364027
	H31	H	0.793985	0.876988	0.680814
	H32	H	0.357728	0.203995	0.915920
	H33	H	0.670746	0.204865	0.126183
	H34	H	0.358143	0.761697	0.125634
	H35	H	0.670641	0.758932	0.913722
	H36	H	0.357482	0.880110	0.241339
	H37	H	0.672327	0.084715	0.239492
	H38	H	0.358489	0.088030	0.799259
	H39	H	0.670524	0.875021	0.797167
	H40	H	0.910300	0.203118	0.364869
	H41	H	0.119326	0.202766	0.679389
	H42	H	0.114736	0.765532	0.362372
	H43	H	0.911612	0.762726	0.681312
	H44	H	0.233824	0.325432	0.917435
	H45	H	0.234446	0.638261	0.125522
	H46	H	0.794563	0.323599	0.124109
	H47	H	0.790446	0.638720	0.912959
	H48	H	0.422429	0.094211	0.608391
	H49	H	0.602857	0.870674	0.611077
	H50	H	0.607498	0.096497	0.430182
	H51	H	0.426219	0.870689	0.434205
	H52	H	0.598571	0.386672	0.135139
	H53	H	0.605936	0.570880	0.907995
	H54	H	0.428655	0.573290	0.133558
	H55	H	0.427383	0.392687	0.909077
	H56	H	0.127360	0.572154	0.427767
	H57	H	0.900793	0.571301	0.611710
	H58	H	0.123213	0.395604	0.610821
	H59	H	0.904301	0.395857	0.435984
	H60	H	0.125624	0.392062	0.613657
	H61	H	0.901320	0.573514	0.609215
	H62	H	0.127594	0.577405	0.431330
	H63	H	0.900853	0.392375	0.427634
	H64	H	0.420861	0.571361	0.135259
	H65	H	0.600924	0.569258	0.909834
	H66	H	0.611277	0.392177	0.135872
	H67	H	0.421527	0.391020	0.906943
	H68	H	0.602017	0.094774	0.430147
	H69	H	0.600473	0.871336	0.609579
	H70	H	0.424766	0.094400	0.612309
	H71	H	0.420416	0.870008	0.434166
	H72	H	0.921054	0.595813	0.115259
	H73	H	0.111163	0.367528	0.110865
	H74	H	0.106643	0.596551	0.929344
	H75	H	0.916042	0.371735	0.944204
	H76	H	0.102092	0.886883	0.636242
	H77	H	0.103146	0.070860	0.409227
	H78	H	0.927208	0.066040	0.632613
	H79	H	0.921831	0.898386	0.410932
	H80	H	0.626502	0.073739	0.931638
	H81	H	0.401719	0.072920	0.112298
	H82	H	0.624476	0.894446	0.108087
	H83	H	0.405773	0.897165	0.937757
	H84	H	0.628080	0.893165	0.116352
	H85	H	0.401240	0.074094	0.112355
	H86	H	0.625525	0.073060	0.934980
	H87	H	0.403458	0.896042	0.931806
	H88	H	0.927077	0.072106	0.634978
	H89	H	0.102245	0.071256	0.409857
	H90	H	0.108094	0.892544	0.636626
	H91	H	0.930377	0.888427	0.409989
	H92	H	0.097361	0.593637	0.930542
	H93	H	0.099298	0.369044	0.117476
	H94	H	0.925915	0.593595	0.110655
	H95	H	0.919664	0.365456	0.922836
	H96	H	0.426679	0.092241	0.608782
	H97	H	0.603031	0.871652	0.607943
	H98	H	0.605094	0.093677	0.434587
	H99	H	0.423606	0.868545	0.429571
	H100	H	0.600553	0.399679	0.130695
	H101	H	0.601727	0.574758	0.908525
	H102	H	0.425487	0.566109	0.131824
	H103	H	0.422820	0.397109	0.908729
	H104	H	0.124109	0.571848	0.433233
	H105	H	0.902442	0.570455	0.608956
	H106	H	0.123892	0.390840	0.608875
	H107	H	0.900459	0.386946	0.435157
	H108	H	0.919651	0.594684	0.108494
	H109	H	0.100155	0.372363	0.104171
	H110	H	0.103612	0.592435	0.937691
	H111	H	0.936374	0.375003	0.934636
	H112	H	0.100765	0.894468	0.633862
	H113	H	0.102766	0.071884	0.409196
	H114	H	0.921795	0.068667	0.635180
	H115	H	0.917405	0.887184	0.405986
	H116	H	0.625651	0.070440	0.932651
	H117	H	0.401867	0.073895	0.111350
	H118	H	0.628564	0.886597	0.110691
	H119	H	0.404077	0.891526	0.936279
	C120	C	0.392431	-0.009567	0.643282
	C121	C	0.634727	0.974432	0.642406
	C122	C	0.635712	-0.009110	0.400054
	C123	C	0.392354	0.973746	0.400446
	C124	C	0.634601	0.361316	0.029558
	C125	C	0.634964	0.603297	1.013023
	C126	C	0.392626	0.603803	0.030017
	C127	C	0.392586	0.361469	1.012652
	C128	C	0.022271	0.604350	0.399642
	C129	C	1.005016	0.603164	0.642028
	C130	C	0.021433	0.359691	0.643941
	C131	C	1.005715	0.360618	0.401064
	C132	C	0.891815	0.490195	0.142462
	C133	C	0.134791	0.473551	0.142605
	C134	C	0.134754	0.490629	0.900218
	C135	C	0.892052	0.474028	0.900509
	C136	C	0.134636	0.861177	0.530410
	C137	C	0.134985	0.103182	0.513506
	C138	C	0.893520	0.101852	0.530233
	C139	C	0.891902	0.859794	0.513529
	C140	C	0.522607	0.104303	0.900480
	C141	C	0.505679	0.104655	0.143392
	C142	C	0.523196	0.860706	0.143214
	C143	C	0.507074	0.861539	0.900846
	C144	C	0.389590	0.873250	0.705182
	C145	C	0.636609	0.092711	0.702147
	C146	C	0.635833	0.872267	0.341150
	C147	C	0.391138	0.092258	0.340500
	C148	C	0.694888	0.358936	0.911207
	C149	C	0.693723	0.604128	0.132261
	C150	C	0.331947	0.608040	0.912335
	C151	C	0.333459	0.360133	0.131524
	C152	C	0.903802	0.662654	0.398446
	C153	C	0.123635	0.661848	0.642884
	C154	C	0.903935	0.298766	0.646779
	C155	C	0.123668	0.300935	0.398360
	C156	C	0.903216	0.357575	0.703842
	C157	C	0.122976	0.604427	0.701549
	C158	C	0.903691	0.603912	0.341341
	C159	C	0.123454	0.358958	0.340433
	C160	C	0.390388	0.665349	0.912208
	C161	C	0.636021	0.661868	0.132514
	C162	C	0.636478	0.301795	0.910919
	C163	C	0.391209	0.302430	0.131675
	C164	C	0.695278	0.872773	0.397650
	C165	C	0.695532	0.092094	0.645098
	C166	C	0.331743	0.872883	0.647095
	C167	C	0.332601	0.091950	0.397830
	C168	C	0.892072	0.370931	0.200729
	C169	C	0.135639	0.591965	0.201386
	C170	C	0.135122	0.371848	0.841737
	C171	C	0.890485	0.592071	0.839610
	C172	C	0.193204	0.861164	0.410962
	C173	C	0.194670	0.104848	0.632040
	C174	C	0.834524	0.104150	0.411452
	C175	C	0.833439	0.858627	0.633064
	C176	C	0.404732	0.164072	0.897598
	C177	C	0.624025	0.164142	0.144383
	C178	C	0.404832	0.801740	0.144735
	C179	C	0.624009	0.800071	0.896627
	C180	C	0.404621	0.860406	0.202030
	C181	C	0.624636	0.104768	0.201044
	C182	C	0.404954	0.106075	0.840064
	C183	C	0.623818	0.857682	0.838329
	C184	C	0.891672	0.162648	0.412012
	C185	C	0.137355	0.162832	0.632012
	C186	C	0.134399	0.804269	0.410304
	C187	C	0.891622	0.801308	0.633256
	C188	C	0.194129	0.372425	0.898547
	C189	C	0.194157	0.591700	0.144010
	C190	C	0.833897	0.371024	0.142911
	C191	C	0.831511	0.591796	0.896255
	C192	C	0.417179	0.072356	0.617037
	C193	C	0.609305	0.892694	0.616845
	C194	C	0.611751	0.073400	0.424718
	C195	C	0.416481	0.891317	0.425292
	C196	C	0.610160	0.385726	0.112280
	C197	C	0.609991	0.578598	0.930280
	C198	C	0.417817	0.577638	0.112163
	C199	C	0.417082	0.386346	0.929861
	C200	C	0.104851	0.580615	0.423941
	C201	C	0.922818	0.578643	0.617116
	C202	C	0.102986	0.385383	0.618423
	C203	C	0.923385	0.384887	0.425873
	C204	C	0.915406	0.573064	0.118532
	C205	C	0.110385	0.391086	0.117915
	C206	C	0.109840	0.572859	0.925474
	C207	C	0.916787	0.392115	0.926631
	C208	C	0.110737	0.884774	0.613872
	C209	C	0.110076	0.078313	0.430890
	C210	C	0.918284	0.076290	0.612886
	C211	C	0.916181	0.884304	0.430429
	C212	C	0.604633	0.079750	0.926006
	C213	C	0.423067	0.080638	0.119089
	C214	C	0.605716	0.884622	0.118687
	C215	C	0.425828	0.887608	0.927481
	Zn216	Zn	0.514180	-0.017134	0.772285
	Zn217	Zn	0.514172	-0.017220	0.271492
	Zn218	Zn	0.762938	0.482386	0.021146
	Zn219	Zn	0.263735	0.482658	0.021107
	Zn220	Zn	0.013297	0.732634	0.521373
	Zn221	Zn	0.014153	0.231253	0.522039
	Zn222	Zn	0.012811	0.481810	0.771601
	Zn223	Zn	0.013731	0.481768	0.271685
	Zn224	Zn	0.514424	0.732239	0.021881
	Zn225	Zn	0.513539	0.232673	0.021268
	Zn226	Zn	0.763952	-0.018400	0.521896
	Zn227	Zn	0.263686	-0.017759	0.522061
	N228	N	0.426754	0.947306	0.702852
	N229	N	0.599689	0.018532	0.700803
	N230	N	0.599559	0.946770	0.342511
	N231	N	0.427453	0.017767	0.341737
	N232	N	0.693942	0.395173	0.985997
	N233	N	0.693677	0.569022	0.056781
	N234	N	0.333242	0.570394	0.986567
	N235	N	0.333946	0.396029	0.056302
	N236	N	0.978639	0.663086	0.433827
	N237	N	0.049160	0.661307	0.606643
	N238	N	0.978302	0.299951	0.610171
	N239	N	0.049433	0.301969	0.435386
	N240	N	0.977198	0.394733	0.702325
	N241	N	0.048369	0.568604	0.701041
	N242	N	0.978546	0.568507	0.341557
	N243	N	0.049125	0.395297	0.341963
	N244	N	0.427337	0.662850	0.986545
	N245	N	0.600260	0.661548	0.057243
	N246	N	0.599741	0.303058	0.985599
	N247	N	0.427123	0.302996	0.056667
	N248	N	0.695289	0.947543	0.433495
	N249	N	0.694541	0.017435	0.608865
	N250	N	0.333377	0.946829	0.609252
	N251	N	0.333116	0.017227	0.434336
	N252	N	0.927147	0.446036	0.200814
	N253	N	0.099532	0.517501	0.200609
	N254	N	0.099140	0.446543	0.842521
	N255	N	0.927317	0.517892	0.842071
	N256	N	0.193792	0.895369	0.486851
	N257	N	0.193528	0.068504	0.557333
	N258	N	0.835597	0.067111	0.486124
	N259	N	0.833070	0.894008	0.557472
	N260	N	0.478921	0.163061	0.934492
	N261	N	0.548899	0.164292	0.109363
	N262	N	0.479576	0.801734	0.109261
	N263	N	0.550360	0.802273	0.934906
	N264	N	0.479326	0.896264	0.201428
	N265	N	0.550083	0.068756	0.200642
	N266	N	0.479391	0.070009	0.841443
	N267	N	0.550188	0.895438	0.841085
	N268	N	0.927689	0.161348	0.486998
	N269	N	0.101128	0.162077	0.557091
	N270	N	0.098832	0.804036	0.485754
	N271	N	0.926913	0.801690	0.557831
	N272	N	0.194283	0.447579	0.933853
	N273	N	0.193752	0.516985	0.108108
	N274	N	0.833073	0.446461	0.107855
	N275	N	0.832246	0.517381	0.933345
	O276	O	0.872281	0.947811	-0.020490
	H277	H	0.883530	0.958595	-0.031070
	H278	H	0.854105	0.945778	-0.020559
	O279	O	0.300002	0.703849	0.482533
	H280	H	0.281630	0.723813	0.471822
	H281	H	0.295467	0.702938	0.458602
	O282	O	0.875848	0.055769	0.157314
	H283	H	0.893437	0.053048	0.180589
	H284	H	0.882274	0.027509	0.143949
	O285	O	-0.201074	0.948485	0.235358
	H286	H	-0.206464	0.949618	0.258151
	H287	H	-0.198810	0.945525	0.236458
	O288	O	1.160545	-0.017592	0.947595
	H289	H	1.163609	-0.011197	0.935142
	H290	H	1.165636	-0.047549	0.939490
	O291	O	-0.002151	-0.233394	0.010265
	H292	H	-0.008621	-0.230195	0.004524
	H293	H	-0.013352	-0.230429	0.014685
	O294	O	0.093926	-0.006837	-0.031311
	H295	H	0.089511	-0.008184	-0.005285
	H296	H	0.091119	-0.004240	-0.040072
	O297	O	0.479342	0.693899	0.331196
	H298	H	0.474968	0.697515	0.332534
	H299	H	0.481610	0.705936	0.326252
	O300	O	-0.135805	0.131531	0.196419
	H301	H	-0.122205	0.114714	0.192987
	H302	H	-0.125547	0.122708	0.170138
	O303	O	0.232917	0.189556	0.048850
	H304	H	0.233323	0.199097	0.071200
	H305	H	0.241970	0.212281	0.050813
	O306	O	0.297283	0.467708	-0.309616
	H307	H	0.284310	0.449190	-0.302453
	H308	H	0.297273	0.469445	-0.300923
	O309	O	1.218105	-0.038988	-0.182521
	H310	H	1.238232	-0.050570	-0.207833
	H311	H	1.211520	-0.062303	-0.163902
	O312	O	0.603860	0.290642	0.470498
	H313	H	0.610683	0.300096	0.464555
	H314	H	0.621453	0.277081	0.445656
	O315	O	0.701907	0.268016	0.506376
	H316	H	0.699970	0.284831	0.494616
	H317	H	0.716818	0.248939	0.503388
	O318	O	1.219344	1.175490	0.223819
	H319	H	1.203868	1.143758	0.229098
	H320	H	1.243649	1.198594	0.235791
	O321	O	-0.019855	0.767674	1.234081
	H322	H	-0.014334	0.750104	1.239215
	H323	H	-0.017657	0.760431	1.229048
	O324	O	1.030047	0.079939	1.018192
	H325	H	1.030475	0.078077	1.014004
	H326	H	1.025226	0.070371	1.002686
	O327	O	0.454505	0.464505	0.402680
	H328	H	0.461617	0.474977	0.408921
	H329	H	0.452449	0.471420	0.411626
	O330	O	-0.522198	1.320274	0.673778
	H331	H	-0.525716	1.306158	0.692468
	H332	H	-0.530652	1.327877	0.662006
	O333	O	-0.093417	0.814192	0.908203
	H334	H	-0.109541	0.804221	0.918776
	H335	H	-0.094971	0.812036	0.910057
	O336	O	0.002530	1.066789	0.107229
	H337	H	-0.008961	1.074280	0.110309
	H338	H	0.004214	1.068040	0.109379
	O339	O	-0.195111	1.155171	0.006500
	H340	H	-0.202405	1.135685	0.014994
	H341	H	-0.206065	1.161641	0.002288
	O342	O	0.206771	0.786117	-0.182219
	H343	H	0.224882	0.763786	-0.197208
	H344	H	0.167627	0.792809	-0.181662
	O345	O	0.728977	0.363199	0.311354
	H346	H	0.684259	0.358674	0.302716
	H347	H	0.754987	0.342548	0.277548
	O348	O	0.557471	0.683345	0.508449
	H349	H	0.559459	0.678852	0.518425
	H350	H	0.574973	0.680123	0.514418
	O351	O	0.181813	0.120767	0.920294
	H352	H	0.173966	0.127304	0.939869
	H353	H	0.187266	0.100867	0.906031
	O354	O	1.001116	0.122479	1.036689
	H355	H	1.009039	0.119949	1.036432
	H356	H	1.008864	0.121494	1.031490
	O357	O	-0.265643	0.709213	-0.450524
	H358	H	-0.268245	0.699966	-0.407740
	H359	H	-0.234835	0.736244	-0.437535
	O360	O	0.140792	-0.166187	1.004751
	H361	H	0.156868	-0.164912	1.006269
	H362	H	0.130741	-0.158541	0.994341
	O363	O	0.518761	0.691973	0.693270
	H364	H	0.511076	0.689885	0.680599
	H365	H	0.505849	0.692566	0.697393
	O366	O	0.951353	0.195627	0.810783
	H367	H	0.941468	0.210349	0.785571
	H368	H	0.947558	0.189233	0.820471
	O369	O	-0.155337	0.137485	0.837198
	H370	H	-0.164309	0.132008	0.855899
	H371	H	-0.150285	0.141261	0.828143
	O372	O	0.081877	0.784851	0.815472
	H373	H	0.066082	0.772925	0.826566
	H374	H	0.070023	0.787497	0.809267
	O375	O	0.399170	0.484617	-0.457826
	H376	H	0.392625	0.480985	-0.452661
	H377	H	0.391274	0.486915	-0.455459
	O378	O	0.287939	0.701822	0.306999
	H379	H	0.268075	0.705205	0.282809
	H380	H	0.295182	0.704200	0.297728
	O381	O	0.326742	1.368644	0.333139
	H382	H	0.329499	1.379480	0.332982
	H383	H	0.331439	1.367289	0.357637
	O384	O	1.291797	1.433543	0.473367
	H385	H	1.279179	1.438687	0.471872
	H386	H	1.294144	1.423003	0.485556
	O387	O	-0.186869	0.781481	1.215663
	H388	H	-0.153883	0.796682	1.225582
	H389	H	-0.213858	0.767229	1.247296
	O390	O	0.160551	1.140508	0.931513
	H391	H	0.155368	1.135469	0.942553
	H392	H	0.141076	1.137860	0.933129
	O393	O	0.665826	0.285602	-0.274989
	H394	H	0.672354	0.291571	-0.281140
	H395	H	0.663023	0.292697	-0.261031
	O396	O	0.667178	0.417176	0.610959
	H397	H	0.675861	0.408741	0.602530
	H398	H	0.651914	0.421305	0.610431
	O399	O	0.512257	0.498087	0.309469
	H400	H	0.508830	0.508055	0.317396
	H401	H	0.488479	0.507587	0.310474
	O402	O	1.448940	0.262740	1.461865
	H403	H	1.470363	0.261153	1.447547
	H404	H	1.461195	0.265931	1.463702
	O405	O	0.478298	0.507550	0.745958
	H406	H	0.454415	0.489552	0.740365
	H407	H	0.457288	0.512502	0.757957
	O408	O	1.219460	0.010661	0.236893
	H409	H	1.223741	0.014061	0.229760
	H410	H	1.226173	0.004992	0.256297
	O411	O	0.380937	1.662276	-0.333518
	H412	H	0.399338	1.643098	-0.339841
	H413	H	0.393695	1.654602	-0.353008
	O414	O	-0.044204	0.023598	-0.047478
	H415	H	-0.059092	0.031941	-0.068080
	H416	H	-0.045759	0.000901	-0.045853
	O417	O	0.627797	0.508907	0.514854
	H418	H	0.626493	0.516692	0.493357
	H419	H	0.638795	0.502600	0.523063
	O420	O	1.734238	-0.508656	0.378220
	H421	H	1.732001	-0.510914	0.380037
	H422	H	1.740483	-0.530449	0.353468
	O423	O	1.200900	0.777363	0.007977
	H424	H	1.208794	0.760593	-0.014696
	H425	H	1.196751	0.790407	-0.013991
	O426	O	0.508204	0.469917	0.736064
	H427	H	0.515850	0.464558	0.737267
	H428	H	0.490593	0.471150	0.736146
	O429	O	0.635235	0.271623	0.312474
	H430	H	0.634638	0.283400	0.323109
	H431	H	0.633118	0.272774	0.304630
	O432	O	1.444248	0.652683	1.578992
	H433	H	1.454209	0.651909	1.573682
	H434	H	1.415570	0.659577	1.577249
	O435	O	0.051884	0.191240	0.226640
	H436	H	0.063827	0.191637	0.207799
	H437	H	0.058024	0.212306	0.247895
	O438	O	0.455303	0.446928	0.507199
	H439	H	0.453581	0.445839	0.510359
	H440	H	0.439443	0.455414	0.501846
	O441	O	0.714500	0.649405	0.362495
	H442	H	0.695846	0.647697	0.379053
	H443	H	0.707343	0.629619	0.372365
	O444	O	0.695370	0.453940	0.463075
	H445	H	0.685989	0.461737	0.462117
	H446	H	0.709678	0.442657	0.471006
	O447	O	0.318803	0.442655	0.315171
	H448	H	0.327347	0.456300	0.316787
	H449	H	0.313709	0.450828	0.318893
	O450	O	0.792380	0.013025	-0.193960
	H451	H	0.803686	0.034573	-0.191934
	H452	H	0.770453	0.010600	-0.224742
	O453	O	0.693350	0.497117	0.737205
	H454	H	0.704711	0.481427	0.749471
	H455	H	0.696615	0.478013	0.732705
	O456	O	0.013768	0.919449	1.173988
	H457	H	-0.006482	0.903752	1.174127
	H458	H	0.014645	0.923126	1.162479
	O459	O	0.703086	0.672074	0.710016
	H460	H	0.700437	0.632906	0.720038
	H461	H	0.658824	0.668332	0.712900
	O462	O	0.433619	0.456793	0.574163
	H463	H	0.426484	0.449152	0.562601
	H464	H	0.428428	0.457052	0.571015
	O465	O	0.313019	0.284506	0.719573
	H466	H	0.311342	0.267294	0.720161
	H467	H	0.306783	0.277359	0.722010
	O468	O	0.793903	1.760513	0.047663
	H469	H	0.794628	1.761714	0.091434
	H470	H	0.764380	1.741224	0.057607
	O471	O	0.398978	0.265066	0.559037
	H472	H	0.414633	0.254324	0.559917
	H473	H	0.400860	0.251634	0.558844
	O474	O	1.195350	0.803517	0.195359
	H475	H	1.180067	0.808593	0.167304
	H476	H	1.180328	0.828977	0.184022
	O477	O	-0.058502	-0.056266	0.900316
	H478	H	-0.068693	-0.045237	0.905409
	H479	H	-0.059483	-0.052779	0.912181
