data_Molecule from HDF5

_cell_length_a		16.477056
_cell_length_b		16.522868
_cell_length_c		16.482815
_cell_angle_alpha	89.937673
_cell_angle_beta	90.065339
_cell_angle_gamma	90.073248
_symmetry_space_group_name_H-M	'P 1'
_symmetry_Int_Tables_number		1

loop_
	_symmetry_equiv_pos_as_xyz
	x,y,z

loop_
	_atom_site_label
	_atom_site_type_symbol
	_atom_site_fract_x
	_atom_site_fract_y
	_atom_site_fract_z
	H0	H	0.381349	0.847605	0.724606
	H1	H	0.594007	0.160718	0.720286
	H2	H	0.598046	0.847003	0.276006
	H3	H	0.380922	0.158339	0.274324
	H4	H	0.710623	0.397010	0.843554
	H5	H	0.715596	0.612689	0.155355
	H6	H	0.266082	0.609942	0.844555
	H7	H	0.263560	0.393100	0.157348
	H8	H	0.832246	0.724293	0.394530
	H9	H	0.147687	0.724736	0.606143
	H10	H	0.832332	0.280991	0.604511
	H11	H	0.146490	0.279326	0.392431
	H12	H	0.831891	0.397881	0.719596
	H13	H	0.147121	0.607753	0.722002
	H14	H	0.832532	0.609701	0.277261
	H15	H	0.146501	0.395868	0.276727
	H16	H	0.381379	0.725958	0.844346
	H17	H	0.600955	0.730398	0.154093
	H18	H	0.593920	0.281554	0.843490
	H19	H	0.378741	0.276228	0.156433
	H20	H	0.711141	0.845497	0.394670
	H21	H	0.709635	0.160845	0.602536
	H22	H	0.265988	0.846635	0.607837
	H23	H	0.265487	0.158371	0.390677
	H24	H	0.881777	0.345827	0.222836
	H25	H	0.097536	0.659061	0.224714
	H26	H	0.095633	0.345025	0.778867
	H27	H	0.882349	0.657701	0.776205
	H28	H	0.212616	0.895860	0.342479
	H29	H	0.212372	0.108138	0.657303
	H30	H	0.768142	0.107963	0.341832
	H31	H	0.769226	0.898579	0.657982
	H32	H	0.330355	0.223886	0.895938
	H33	H	0.645521	0.228390	0.110027
	H34	H	0.333327	0.778001	0.108890
	H35	H	0.644052	0.779054	0.891014
	H36	H	0.333434	0.892909	0.224931
	H37	H	0.645678	0.111509	0.225147
	H38	H	0.330903	0.108730	0.779160
	H39	H	0.646396	0.899342	0.779870
	H40	H	0.882452	0.225857	0.342534
	H41	H	0.098034	0.225550	0.656894
	H42	H	0.094770	0.781233	0.341357
	H43	H	0.884569	0.781025	0.657564
	H44	H	0.212978	0.346204	0.893857
	H45	H	0.212742	0.659581	0.108187
	H46	H	0.765902	0.346107	0.107436
	H47	H	0.765582	0.657606	0.891411
	H48	H	0.397464	0.116415	0.588040
	H49	H	0.583117	0.887672	0.592522
	H50	H	0.573811	0.114371	0.408639
	H51	H	0.398870	0.892341	0.418059
	H52	H	0.575243	0.417186	0.112248
	H53	H	0.578042	0.587107	0.889213
	H54	H	0.405693	0.589812	0.112301
	H55	H	0.395927	0.416070	0.888064
	H56	H	0.099861	0.591852	0.416415
	H57	H	0.878053	0.591511	0.583738
	H58	H	0.105547	0.407098	0.591065
	H59	H	0.876403	0.408198	0.414557
	H60	H	0.100471	0.414095	0.582981
	H61	H	0.877203	0.586949	0.591701
	H62	H	0.100913	0.587130	0.410820
	H63	H	0.880378	0.418543	0.416262
	H64	H	0.401594	0.591893	0.113665
	H65	H	0.573155	0.591776	0.889047
	H66	H	0.576208	0.415143	0.112917
	H67	H	0.403528	0.417585	0.892173
	H68	H	0.574890	0.111376	0.418096
	H69	H	0.575596	0.890165	0.593937
	H70	H	0.404615	0.115236	0.591470
	H71	H	0.399883	0.888129	0.407561
	H72	H	0.899358	0.614958	0.085592
	H73	H	0.072224	0.393820	0.088493
	H74	H	0.078776	0.616526	0.905755
	H75	H	0.901839	0.388821	0.907907
	H76	H	0.072387	0.902575	0.613648
	H77	H	0.072747	0.087357	0.391154
	H78	H	0.906807	0.085984	0.607327
	H79	H	0.900390	0.916306	0.388166
	H80	H	0.600684	0.092287	0.914025
	H81	H	0.378248	0.086924	0.088908
	H82	H	0.599739	0.914485	0.083630
	H83	H	0.375200	0.916655	0.908289
	H84	H	0.598727	0.919565	0.084962
	H85	H	0.376719	0.092135	0.087918
	H86	H	0.602296	0.092408	0.908047
	H87	H	0.375167	0.911164	0.913357
	H88	H	0.904417	0.097947	0.613745
	H89	H	0.075409	0.095150	0.386222
	H90	H	0.090495	0.915290	0.615871
	H91	H	0.902788	0.910847	0.387825
	H92	H	0.071133	0.611696	0.913027
	H93	H	0.078471	0.392667	0.083261
	H94	H	0.902443	0.615038	0.092186
	H95	H	0.902758	0.391627	0.914731
	H96	H	0.403642	0.112975	0.584092
	H97	H	0.578969	0.890965	0.587153
	H98	H	0.582780	0.115647	0.413082
	H99	H	0.408303	0.893566	0.412689
	H100	H	0.577694	0.416513	0.112590
	H101	H	0.579000	0.593147	0.887090
	H102	H	0.401721	0.587480	0.112197
	H103	H	0.401958	0.410056	0.888521
	H104	H	0.104273	0.593704	0.410047
	H105	H	0.875212	0.595743	0.590936
	H106	H	0.102728	0.417972	0.594047
	H107	H	0.875737	0.415501	0.406421
	H108	H	0.905829	0.613105	0.086351
	H109	H	0.078946	0.389550	0.091278
	H110	H	0.081845	0.614374	0.916603
	H111	H	0.896372	0.388809	0.912737
	H112	H	0.072181	0.923400	0.604843
	H113	H	0.081939	0.087809	0.387719
	H114	H	0.894417	0.088462	0.613419
	H115	H	0.897092	0.911891	0.385675
	H116	H	0.602313	0.097503	0.912058
	H117	H	0.379623	0.089133	0.083791
	H118	H	0.601603	0.916356	0.088808
	H119	H	0.378106	0.917807	0.915243
	C120	C	0.368178	0.011508	0.621430
	C121	C	0.611443	0.994135	0.622504
	C122	C	0.610523	0.010619	0.379318
	C123	C	0.368259	0.994128	0.378242
	C124	C	0.609216	0.382856	0.008894
	C125	C	0.611529	0.625047	0.991293
	C126	C	0.369170	0.623195	0.009298
	C127	C	0.366864	0.380860	0.992898
	C128	C	-0.002109	0.623501	0.379253
	C129	C	0.981266	0.623912	0.621897
	C130	C	-0.001238	0.380865	0.621486
	C131	C	0.981203	0.381607	0.378791
	C132	C	0.868251	0.511225	0.121484
	C133	C	0.111044	0.494590	0.122217
	C134	C	0.110902	0.510665	0.879149
	C135	C	0.867531	0.493199	0.878121
	C136	C	0.111118	0.880956	0.507477
	C137	C	0.110788	0.123466	0.491880
	C138	C	0.868698	0.123668	0.507953
	C139	C	0.867702	0.880697	0.491443
	C140	C	0.497693	0.126011	0.878786
	C141	C	0.481311	0.123818	0.121686
	C142	C	0.497218	0.881759	0.120623
	C143	C	0.480026	0.882291	0.879015
	C144	C	0.363997	0.894283	0.683738
	C145	C	0.613203	0.113088	0.681114
	C146	C	0.614823	0.893579	0.317331
	C147	C	0.363973	0.111442	0.315639
	C148	C	0.670055	0.379502	0.890697
	C149	C	0.674708	0.630121	0.108230
	C150	C	0.307088	0.627142	0.891496
	C151	C	0.304785	0.376440	0.110404
	C152	C	0.879240	0.683954	0.376391
	C153	C	0.100036	0.684204	0.624185
	C154	C	0.879912	0.320700	0.623286
	C155	C	0.099408	0.320150	0.374873
	C156	C	0.879709	0.378946	0.680470
	C157	C	0.099980	0.626231	0.682127
	C158	C	0.879639	0.626756	0.318088
	C159	C	0.099400	0.378271	0.317401
	C160	C	0.364612	0.685072	0.891482
	C161	C	0.617571	0.688822	0.107720
	C162	C	0.611913	0.321938	0.890798
	C163	C	0.362104	0.318045	0.110179
	C164	C	0.671452	0.892886	0.376127
	C165	C	0.670748	0.113220	0.622702
	C166	C	0.306709	0.893906	0.625303
	C167	C	0.306085	0.111516	0.373323
	C168	C	0.864239	0.393068	0.182717
	C169	C	0.115176	0.612035	0.184079
	C170	C	0.113888	0.392580	0.818771
	C171	C	0.864340	0.610718	0.816617
	C172	C	0.172200	0.877837	0.389558
	C173	C	0.172717	0.126731	0.609825
	C174	C	0.807953	0.126601	0.389309
	C175	C	0.808616	0.879526	0.610417
	C176	C	0.378132	0.184451	0.877437
	C177	C	0.598486	0.187117	0.127125
	C178	C	0.380202	0.819104	0.125643
	C179	C	0.597211	0.820434	0.874557
	C180	C	0.380352	0.876428	0.183594
	C181	C	0.598808	0.128780	0.184345
	C182	C	0.378573	0.127372	0.818875
	C183	C	0.598487	0.880147	0.819014
	C184	C	0.865324	0.184999	0.389723
	C185	C	0.115489	0.185089	0.609558
	C186	C	0.113521	0.820588	0.389124
	C187	C	0.865986	0.821165	0.610270
	C188	C	0.172166	0.393001	0.876272
	C189	C	0.172293	0.612501	0.125658
	C190	C	0.806283	0.393431	0.125183
	C191	C	0.806391	0.610815	0.874180
	C192	C	0.394375	0.093464	0.595266
	C193	C	0.586530	0.911360	0.598161
	C194	C	0.584351	0.092506	0.405759
	C195	C	0.394711	0.912687	0.405067
	C196	C	0.583605	0.408800	0.091197
	C197	C	0.584419	0.598348	0.909726
	C198	C	0.395692	0.597197	0.091243
	C199	C	0.393204	0.407013	0.910948
	C200	C	0.080130	0.598014	0.404943
	C201	C	0.898407	0.598764	0.596157
	C202	C	0.081429	0.406005	0.596577
	C203	C	0.899043	0.406868	0.405125
	C204	C	0.894760	0.593071	0.095500
	C205	C	0.084210	0.413122	0.095469
	C206	C	0.084915	0.592889	0.904529
	C207	C	0.892986	0.411068	0.904383
	C208	C	0.085682	0.906555	0.589954
	C209	C	0.084293	0.097617	0.409813
	C210	C	0.894575	0.097909	0.590122
	C211	C	0.892932	0.905805	0.408648
	C212	C	0.580272	0.101162	0.904079
	C213	C	0.399571	0.097064	0.094796
	C214	C	0.578723	0.909038	0.093542
	C215	C	0.397572	0.907889	0.904890
	Zn216	Zn	0.488917	0.003983	0.750623
	Zn217	Zn	0.489979	0.002127	0.249748
	Zn218	Zn	0.739897	0.502609	0.000344
	Zn219	Zn	0.239345	0.503065	0.001142
	Zn220	Zn	-0.010430	0.752262	0.499522
	Zn221	Zn	-0.010086	0.252494	0.499899
	Zn222	Zn	-0.010454	0.502015	0.750116
	Zn223	Zn	-0.010668	0.502788	0.250243
	Zn224	Zn	0.489079	0.753082	0.000264
	Zn225	Zn	0.488929	0.253089	0.001271
	Zn226	Zn	0.739438	0.002855	0.499736
	Zn227	Zn	0.239642	0.002693	0.499773
	N228	N	0.401655	0.968421	0.681269
	N229	N	0.577157	0.038125	0.681134
	N230	N	0.577569	0.967855	0.319321
	N231	N	0.401940	0.037482	0.318522
	N232	N	0.668488	0.416638	0.965166
	N233	N	0.671205	0.591409	0.034634
	N234	N	0.309876	0.589251	0.965577
	N235	N	0.307708	0.414716	0.036533
	N236	N	0.953725	0.682023	0.413738
	N237	N	0.025032	0.683014	0.587537
	N238	N	0.955095	0.321609	0.587395
	N239	N	0.024971	0.321935	0.412319
	N240	N	0.954844	0.415210	0.679604
	N241	N	0.024996	0.589827	0.680917
	N242	N	0.954223	0.589779	0.319975
	N243	N	0.024887	0.415550	0.319673
	N244	N	0.402368	0.682940	0.965928
	N245	N	0.579053	0.685940	0.033796
	N246	N	0.574958	0.323620	0.965613
	N247	N	0.400090	0.320751	0.036076
	N248	N	0.668756	0.966824	0.414085
	N249	N	0.669951	0.037986	0.587277
	N250	N	0.309295	0.967880	0.587147
	N251	N	0.308615	0.037681	0.411631
	N252	N	0.901926	0.467317	0.180803
	N253	N	0.078067	0.537625	0.182175
	N254	N	0.076640	0.466875	0.820342
	N255	N	0.901497	0.536393	0.818892
	N256	N	0.171124	0.914356	0.464369
	N257	N	0.169949	0.089250	0.535452
	N258	N	0.809880	0.089039	0.463811
	N259	N	0.809417	0.915765	0.535328
	N260	N	0.453186	0.184014	0.913649
	N261	N	0.524382	0.184229	0.088854
	N262	N	0.454096	0.822266	0.087248
	N263	N	0.522309	0.821561	0.910998
	N264	N	0.454481	0.914513	0.180749
	N265	N	0.524939	0.090273	0.180998
	N266	N	0.454022	0.091724	0.819586
	N267	N	0.524386	0.917831	0.821547
	N268	N	0.902296	0.183426	0.464505
	N269	N	0.077819	0.183333	0.535079
	N270	N	0.076472	0.822377	0.463688
	N271	N	0.901915	0.821697	0.535134
	N272	N	0.170504	0.467577	0.912968
	N273	N	0.170024	0.538200	0.088135
	N274	N	0.808668	0.467892	0.087990
	N275	N	0.808206	0.536646	0.911728
	O276	O	0.953540	-0.123496	-0.155155
	H277	H	0.962107	-0.131279	-0.147715
	H278	H	0.935469	-0.133558	-0.166513
	O279	O	0.615402	0.396954	0.517143
	H280	H	0.622905	0.416002	0.509870
	H281	H	0.608856	0.413812	0.511853
	O282	O	0.775992	0.788747	0.019990
	H283	H	0.764660	0.782277	0.009870
	H284	H	0.775432	0.772254	0.022669
	O285	O	0.279351	0.474780	0.715800
	H286	H	0.269375	0.490134	0.737728
	H287	H	0.289080	0.496918	0.719933
	O288	O	-0.021535	0.144259	0.028224
	H289	H	-0.017957	0.143510	0.029559
	H290	H	-0.026677	0.136499	0.025788
	O291	O	0.974142	1.111481	0.145854
	H292	H	0.982007	1.129506	0.144255
	H293	H	0.987134	1.105914	0.161102
	O294	O	-0.232716	1.037213	-0.217367
	H295	H	-0.246893	1.041375	-0.239440
	H296	H	-0.239123	1.031924	-0.221380
	O297	O	0.358067	0.332373	0.410670
	H298	H	0.367581	0.359301	0.411784
	H299	H	0.367689	0.330866	0.385271
	O300	O	0.490683	0.550101	0.377239
	H301	H	0.501123	0.546536	0.370662
	H302	H	0.487974	0.529763	0.363302
	O303	O	0.460866	0.284209	0.718969
	H304	H	0.419199	0.283284	0.715637
	H305	H	0.450357	0.262658	0.745865
	O306	O	-0.171613	1.052695	1.174367
	H307	H	-0.166372	1.061507	1.180747
	H308	H	-0.183996	1.059209	1.167749
	O309	O	0.844078	0.852354	0.820916
	H310	H	0.840124	0.854106	0.823710
	H311	H	0.847206	0.849170	0.828015
	O312	O	0.286041	0.591939	0.581321
	H313	H	0.285711	0.592425	0.582417
	H314	H	0.305734	0.605956	0.575425
	O315	O	-0.218165	0.211890	0.858207
	H316	H	-0.215265	0.221988	0.853130
	H317	H	-0.225773	0.209923	0.850254
	O318	O	0.177829	1.117420	-0.071059
	H319	H	0.166411	1.133456	-0.075501
	H320	H	0.176541	1.120161	-0.097197
	O321	O	0.634528	0.359238	0.698281
	H322	H	0.615585	0.355845	0.673042
	H323	H	0.618760	0.378463	0.694939
	O324	O	1.298837	0.312993	0.688462
	H325	H	1.289259	0.305766	0.635770
	H326	H	1.290281	0.365061	0.698114
	O327	O	0.994514	0.206093	0.814996
	H328	H	0.986704	0.223694	0.796408
	H329	H	0.982393	0.189147	0.815974
	O330	O	0.968811	-0.111663	0.026835
	H331	H	0.965349	-0.101751	0.047167
	H332	H	0.971243	-0.108105	0.022881
	O333	O	0.935001	1.161870	0.801254
	H334	H	0.923380	1.143177	0.804782
	H335	H	0.920280	1.154283	0.813782
	O336	O	1.189975	0.202896	1.104728
	H337	H	1.195447	0.205544	1.116135
	H338	H	1.191733	0.203790	1.088037
	O339	O	0.310881	0.684816	0.309718
	H340	H	0.297078	0.672271	0.339522
	H341	H	0.291413	0.672575	0.317964
	O342	O	0.523684	0.282063	0.547304
	H343	H	0.504081	0.274133	0.580035
	H344	H	0.503731	0.287101	0.528721
	O345	O	-0.014847	0.053313	0.105115
	H346	H	-0.032894	0.066240	0.102235
	H347	H	-0.008227	0.048552	0.092182
	O348	O	1.175141	-0.168504	0.993019
	H349	H	1.186383	-0.178318	0.996848
	H350	H	1.176623	-0.163460	0.990598
	O351	O	1.048600	0.936788	0.004388
	H352	H	1.038530	0.934794	0.006470
	H353	H	1.062834	0.940955	-0.004498
	O354	O	0.526134	0.675431	0.450110
	H355	H	0.529261	0.667524	0.459074
	H356	H	0.521312	0.675834	0.415596
	O357	O	0.783816	0.960651	0.929250
	H358	H	0.791304	0.967859	0.945122
	H359	H	0.776472	0.959565	0.911772
	O360	O	0.281859	0.520726	0.284775
	H361	H	0.269650	0.516880	0.293087
	H362	H	0.275107	0.511549	0.263143
	O363	O	0.516592	0.714248	0.716155
	H364	H	0.522792	0.744052	0.743172
	H365	H	0.539513	0.689259	0.712282
	O366	O	1.097058	0.208356	1.202892
	H367	H	1.090252	0.211649	1.204894
	H368	H	1.089531	0.204884	1.213978
	O369	O	0.491787	0.458691	0.618370
	H370	H	0.475564	0.449183	0.615840
	H371	H	0.475815	0.456838	0.610155
	O372	O	0.472523	0.718570	0.279315
	H373	H	0.449511	0.735560	0.264344
	H374	H	0.438465	0.717967	0.275976
	O375	O	0.198886	1.011719	1.159787
	H376	H	0.199304	1.017107	1.148533
	H377	H	0.210318	1.016291	1.163310
	O378	O	0.772105	0.040412	0.095209
	H379	H	0.763551	0.043337	0.093109
	H380	H	0.778820	0.048696	0.095090
	O381	O	1.193172	-0.110829	0.118924
	H382	H	1.186065	-0.092492	0.116084
	H383	H	1.178780	-0.108009	0.106978
	O384	O	0.180636	0.050292	0.942215
	H385	H	0.168963	0.061445	0.936726
	H386	H	0.173532	0.063588	0.935125
	O387	O	-0.195756	0.811295	1.187683
	H388	H	-0.187152	0.846804	1.195554
	H389	H	-0.205564	0.818604	1.150637
	O390	O	-0.000268	-0.213019	0.787636
	H391	H	0.010698	-0.237062	0.764694
	H392	H	0.029560	-0.206188	0.799020
	O393	O	0.870947	1.217509	-0.043665
	H394	H	0.850939	1.237861	-0.058728
	H395	H	0.889086	1.216149	-0.074410
	O396	O	0.504353	0.617923	0.536396
	H397	H	0.501833	0.614856	0.534933
	H398	H	0.518413	0.614845	0.538263
	O399	O	0.222528	0.768734	0.789101
	H400	H	0.220904	0.801149	0.776501
	H401	H	0.233923	0.766849	0.829545
	O402	O	-0.030950	-0.205099	1.206315
	H403	H	-0.054889	-0.204109	1.191962
	H404	H	-0.033186	-0.217468	1.229338
	O405	O	-0.060372	0.064762	0.022336
	H406	H	-0.053554	0.049796	0.027202
	H407	H	-0.063907	0.092829	0.019100
	O408	O	0.666037	0.508739	0.704990
	H409	H	0.646783	0.494451	0.703283
	H410	H	0.676432	0.513171	0.720837
	O411	O	0.690291	0.299630	0.480537
	H412	H	0.697997	0.287457	0.489288
	H413	H	0.675476	0.317027	0.507645
	O414	O	0.683233	0.696927	0.693736
	H415	H	0.681360	0.697094	0.679434
	H416	H	0.686384	0.675154	0.687634
	O417	O	0.277412	0.287531	0.524522
	H418	H	0.266511	0.269326	0.513938
	H419	H	0.287927	0.280452	0.503366
	O420	O	0.406596	0.672546	0.636928
	H421	H	0.423274	0.680641	0.661256
	H422	H	0.439380	0.674471	0.617276
	O423	O	0.052286	0.993979	-0.037949
	H424	H	0.070812	1.011105	-0.031960
	H425	H	0.045432	0.986130	-0.037843
	O426	O	0.661059	1.321484	1.320290
	H427	H	0.673853	1.327113	1.352053
	H428	H	0.674583	1.351499	1.329223
	O429	O	0.700930	0.714773	0.528224
	H430	H	0.694974	0.709586	0.522785
	H431	H	0.716800	0.729349	0.517835
	O432	O	0.694414	0.543555	0.498277
	H433	H	0.700944	0.530954	0.482511
	H434	H	0.676241	0.547603	0.484513
	O435	O	0.505385	-0.478517	0.284194
	H436	H	0.482554	-0.462285	0.269367
	H437	H	0.506202	-0.500281	0.284093
	O438	O	1.074560	0.072481	-0.187378
	H439	H	1.078629	0.086160	-0.199545
	H440	H	1.054106	0.066570	-0.188138
	O441	O	0.275131	0.718649	0.468117
	H442	H	0.257715	0.749700	0.477293
	H443	H	0.297943	0.726577	0.495443
	O444	O	0.613295	0.595452	0.314768
	H445	H	0.595525	0.591752	0.302943
	H446	H	0.600033	0.623055	0.321254
	O447	O	0.504966	0.286800	0.282585
	H448	H	0.534056	0.279095	0.277506
	H449	H	0.527250	0.270714	0.275225
	O450	O	0.306037	0.478476	0.459334
	H451	H	0.313681	0.496492	0.465417
	H452	H	0.301554	0.465124	0.462109
	O453	O	0.706965	0.478271	0.285835
	H454	H	0.701094	0.493007	0.262955
	H455	H	0.718927	0.490325	0.275463
	O456	O	1.057896	-0.002848	0.210124
	H457	H	1.076580	-0.019722	0.196033
	H458	H	1.059080	-0.021588	0.221592
	O459	O	0.487747	0.513110	0.635322
	H460	H	0.492137	0.518387	0.619708
	H461	H	0.495867	0.498191	0.635628
	O462	O	0.434626	0.499917	0.467431
	H463	H	0.423850	0.500040	0.467598
	H464	H	0.449867	0.495808	0.455867
	O465	O	1.071210	-0.207896	-0.057044
	H466	H	1.068789	-0.209278	-0.056410
	H467	H	1.069995	-0.209739	-0.070007
