data_Molecule from HDF5

_cell_length_a		16.240978
_cell_length_b		16.348869
_cell_length_c		16.286767
_cell_angle_alpha	89.805665
_cell_angle_beta	89.993404
_cell_angle_gamma	89.915805
_symmetry_space_group_name_H-M	'P 1'
_symmetry_Int_Tables_number		1

loop_
	_symmetry_equiv_pos_as_xyz
	x,y,z

loop_
	_atom_site_label
	_atom_site_type_symbol
	_atom_site_fract_x
	_atom_site_fract_y
	_atom_site_fract_z
	H0	H	0.401611	0.839616	0.713611
	H1	H	0.600307	0.165627	0.711303
	H2	H	0.599100	0.838005	0.283593
	H3	H	0.402724	0.165260	0.282054
	H4	H	0.716711	0.406205	0.834112
	H5	H	0.714874	0.598331	0.162860
	H6	H	0.289048	0.600376	0.834787
	H7	H	0.289066	0.405034	0.162607
	H8	H	0.837211	0.716076	0.399924
	H9	H	0.165548	0.714669	0.596405
	H10	H	0.836355	0.288638	0.596656
	H11	H	0.165201	0.286355	0.400579
	H12	H	0.837284	0.403917	0.713547
	H13	H	0.166748	0.597001	0.709888
	H14	H	0.836882	0.599910	0.284798
	H15	H	0.166513	0.404259	0.285887
	H16	H	0.403511	0.717746	0.835069
	H17	H	0.600986	0.716737	0.161715
	H18	H	0.602827	0.288699	0.834421
	H19	H	0.404019	0.287461	0.161870
	H20	H	0.715675	0.838261	0.400416
	H21	H	0.715227	0.165138	0.593945
	H22	H	0.287809	0.838880	0.594961
	H23	H	0.285658	0.165334	0.397622
	H24	H	0.906415	0.338430	0.211720
	H25	H	0.100197	0.665788	0.212988
	H26	H	0.100260	0.338870	0.786363
	H27	H	0.903098	0.664869	0.782704
	H28	H	0.214682	0.903949	0.333144
	H29	H	0.214311	0.097694	0.661526
	H30	H	0.788715	0.098865	0.333461
	H31	H	0.788060	0.904497	0.661901
	H32	H	0.338527	0.218172	0.898502
	H33	H	0.666931	0.214935	0.095793
	H34	H	0.338414	0.787763	0.096325
	H35	H	0.666436	0.789143	0.900449
	H36	H	0.337084	0.904514	0.209643
	H37	H	0.666368	0.098673	0.211308
	H38	H	0.337406	0.101191	0.784036
	H39	H	0.666496	0.905412	0.784773
	H40	H	0.900857	0.218216	0.335221
	H41	H	0.100654	0.215685	0.661593
	H42	H	0.100661	0.786162	0.334322
	H43	H	0.902143	0.786415	0.661642
	H44	H	0.216767	0.339558	0.902295
	H45	H	0.215799	0.666376	0.095842
	H46	H	0.788036	0.339177	0.097527
	H47	H	0.788070	0.665594	0.900250
	H48	H	0.412645	0.115803	0.589154
	H49	H	0.598880	0.883614	0.594010
	H50	H	0.602653	0.120969	0.401400
	H51	H	0.407162	0.883542	0.394948
	H52	H	0.595950	0.396026	0.118357
	H53	H	0.596910	0.594174	0.881985
	H54	H	0.412113	0.592777	0.112902
	H55	H	0.415785	0.418092	0.886300
	H56	H	0.116584	0.601953	0.418197
	H57	H	0.885679	0.593189	0.590298
	H58	H	0.116418	0.412383	0.591918
	H59	H	0.884267	0.407719	0.403736
	H60	H	0.119736	0.404376	0.596622
	H61	H	0.884309	0.594575	0.593429
	H62	H	0.113464	0.580305	0.405972
	H63	H	0.885195	0.407978	0.406829
	H64	H	0.411630	0.601133	0.116409
	H65	H	0.592491	0.596283	0.882564
	H66	H	0.606487	0.414729	0.115567
	H67	H	0.414494	0.400113	0.880499
	H68	H	0.588017	0.117567	0.396280
	H69	H	0.590957	0.885974	0.594804
	H70	H	0.404090	0.118587	0.586617
	H71	H	0.415378	0.889715	0.406769
	H72	H	0.912490	0.616055	0.087850
	H73	H	0.095300	0.387363	0.091080
	H74	H	0.095996	0.619073	0.904368
	H75	H	0.899637	0.382746	0.902129
	H76	H	0.108744	0.908772	0.617428
	H77	H	0.098617	0.092381	0.380169
	H78	H	0.895157	0.101474	0.620028
	H79	H	0.905503	0.908989	0.380529
	H80	H	0.620972	0.099476	0.898794
	H81	H	0.385928	0.096329	0.088724
	H82	H	0.619222	0.904145	0.087352
	H83	H	0.385232	0.911946	0.903304
	H84	H	0.616871	0.914501	0.089638
	H85	H	0.385435	0.095264	0.089758
	H86	H	0.618484	0.098317	0.909442
	H87	H	0.384372	0.906978	0.903495
	H88	H	0.907604	0.079640	0.610045
	H89	H	0.087409	0.090743	0.384235
	H90	H	0.087544	0.918618	0.608599
	H91	H	0.911388	0.909458	0.382436
	H92	H	0.097041	0.619396	0.902619
	H93	H	0.097610	0.385995	0.093228
	H94	H	0.901558	0.620122	0.090820
	H95	H	0.917419	0.386624	0.899419
	H96	H	0.406686	0.119641	0.594833
	H97	H	0.594914	0.887100	0.586833
	H98	H	0.592045	0.114523	0.411256
	H99	H	0.400489	0.885103	0.408537
	H100	H	0.585038	0.413040	0.110883
	H101	H	0.596709	0.598977	0.881031
	H102	H	0.404291	0.595796	0.116488
	H103	H	0.398882	0.411310	0.879382
	H104	H	0.123135	0.600579	0.393697
	H105	H	0.884173	0.596808	0.589916
	H106	H	0.117189	0.404073	0.587108
	H107	H	0.885547	0.410927	0.404452
	H108	H	0.910509	0.619974	0.098224
	H109	H	0.095241	0.386747	0.094409
	H110	H	0.095216	0.619946	0.902564
	H111	H	0.910283	0.389043	0.916033
	H112	H	0.088116	0.894896	0.615957
	H113	H	0.091035	0.101411	0.380479
	H114	H	0.921307	0.102820	0.613058
	H115	H	0.908803	0.903888	0.380166
	H116	H	0.616982	0.089343	0.902443
	H117	H	0.385076	0.096763	0.090015
	H118	H	0.621045	0.907472	0.097402
	H119	H	0.386815	0.909264	0.907596
	C120	C	0.379485	0.010514	0.619047
	C121	C	0.622688	0.993863	0.619102
	C122	C	0.622566	0.009540	0.375539
	C123	C	0.379130	0.993714	0.375025
	C124	C	0.624474	0.380881	0.006417
	C125	C	0.623832	0.624269	0.990116
	C126	C	0.381062	0.624634	0.006902
	C127	C	0.381299	0.381218	0.990200
	C128	C	0.009303	0.622881	0.377357
	C129	C	0.993452	0.622597	0.619449
	C130	C	0.009330	0.379355	0.620354
	C131	C	0.993373	0.380325	0.377348
	C132	C	0.880483	0.510622	0.120570
	C133	C	0.124292	0.494532	0.120962
	C134	C	0.124110	0.511068	0.876626
	C135	C	0.881076	0.493990	0.877346
	C136	C	0.123323	0.879051	0.505820
	C137	C	0.121750	0.122758	0.489684
	C138	C	0.879312	0.123407	0.506387
	C139	C	0.879885	0.879827	0.489466
	C140	C	0.510354	0.124314	0.875442
	C141	C	0.494136	0.123402	0.118407
	C142	C	0.510451	0.880726	0.119205
	C143	C	0.493801	0.881177	0.876248
	C144	C	0.381821	0.888035	0.674947
	C145	C	0.620406	0.116797	0.673349
	C146	C	0.619488	0.886595	0.321623
	C147	C	0.381511	0.116408	0.319588
	C148	C	0.679269	0.384850	0.883118
	C149	C	0.677680	0.619896	0.113608
	C150	C	0.326165	0.621640	0.883739
	C151	C	0.326463	0.383968	0.113480
	C152	C	0.885936	0.677887	0.379629
	C153	C	0.116762	0.677130	0.616772
	C154	C	0.885788	0.325265	0.617813
	C155	C	0.116707	0.325127	0.380554
	C156	C	0.886270	0.382547	0.675844
	C157	C	0.117240	0.618591	0.673310
	C158	C	0.885983	0.620180	0.322345
	C159	C	0.117355	0.383478	0.323371
	C160	C	0.383092	0.679741	0.883819
	C161	C	0.621190	0.678686	0.112956
	C162	C	0.622492	0.326626	0.883244
	C163	C	0.383738	0.325600	0.113169
	C164	C	0.677909	0.887010	0.379167
	C165	C	0.677478	0.116546	0.615304
	C166	C	0.325412	0.887550	0.615825
	C167	C	0.323703	0.116671	0.377395
	C168	C	0.884726	0.387333	0.174725
	C169	C	0.121439	0.617178	0.175660
	C170	C	0.121101	0.387901	0.823355
	C171	C	0.883022	0.616576	0.821521
	C172	C	0.176950	0.883119	0.382124
	C173	C	0.176689	0.118825	0.612874
	C174	C	0.825251	0.120407	0.382626
	C175	C	0.825225	0.883085	0.612877
	C176	C	0.387395	0.180167	0.878447
	C177	C	0.617738	0.177520	0.116231
	C178	C	0.387008	0.826073	0.116093
	C179	C	0.617421	0.826651	0.879375
	C180	C	0.386275	0.883870	0.172671
	C181	C	0.617429	0.119620	0.173709
	C182	C	0.386610	0.121949	0.821459
	C183	C	0.617490	0.884644	0.822151
	C184	C	0.881386	0.179394	0.383392
	C185	C	0.120120	0.177283	0.612783
	C186	C	0.120592	0.824433	0.382930
	C187	C	0.882099	0.824675	0.612837
	C188	C	0.178857	0.388221	0.880935
	C189	C	0.178372	0.617577	0.117047
	C190	C	0.825998	0.387761	0.117961
	C191	C	0.826009	0.616900	0.879910
	C192	C	0.401397	0.095935	0.596807
	C193	C	0.601055	0.907801	0.598233
	C194	C	0.600820	0.095416	0.396651
	C195	C	0.401077	0.908166	0.396952
	C196	C	0.602315	0.401844	0.092768
	C197	C	0.602012	0.602796	0.903907
	C198	C	0.402943	0.603073	0.092961
	C199	C	0.403208	0.403375	0.904325
	C200	C	0.095469	0.600770	0.399677
	C201	C	0.906893	0.601169	0.597653
	C202	C	0.095617	0.400727	0.598287
	C203	C	0.907281	0.402299	0.398781
	C204	C	0.901929	0.596564	0.098763
	C205	C	0.102421	0.408860	0.099563
	C206	C	0.102626	0.597161	0.897296
	C207	C	0.902609	0.408384	0.899342
	C208	C	0.101452	0.900958	0.591813
	C209	C	0.099081	0.101175	0.403887
	C210	C	0.901566	0.101181	0.592315
	C211	C	0.902027	0.901328	0.403343
	C212	C	0.596581	0.102165	0.897064
	C213	C	0.407876	0.102068	0.096282
	C214	C	0.596840	0.902299	0.097878
	C215	C	0.407706	0.903028	0.898236
	Zn216	Zn	0.501528	0.002539	0.747524
	Zn217	Zn	0.500889	0.001941	0.246808
	Zn218	Zn	0.752354	0.502425	-0.001252
	Zn219	Zn	0.252548	0.503649	-0.001252
	Zn220	Zn	0.001363	0.751153	0.498264
	Zn221	Zn	0.000591	0.251205	0.498717
	Zn222	Zn	0.002019	0.501667	0.748168
	Zn223	Zn	0.002298	0.502076	0.249121
	Zn224	Zn	0.502033	0.753083	-0.001829
	Zn225	Zn	0.503011	0.252641	-0.002035
	Zn226	Zn	0.751779	0.001598	0.497399
	Zn227	Zn	0.250766	0.002019	0.496871
	N228	N	0.414777	0.965552	0.677028
	N229	N	0.586976	0.039553	0.675870
	N230	N	0.585920	0.963975	0.319278
	N231	N	0.415099	0.039269	0.318142
	N232	N	0.680341	0.418016	0.960721
	N233	N	0.679312	0.586662	0.036180
	N234	N	0.324949	0.587973	0.961169
	N235	N	0.325027	0.417906	0.036089
	N236	N	0.963669	0.679729	0.412867
	N237	N	0.038719	0.679687	0.583986
	N238	N	0.963328	0.323208	0.584011
	N239	N	0.038520	0.322850	0.413054
	N240	N	0.964051	0.415526	0.677441
	N241	N	0.039491	0.585172	0.674820
	N242	N	0.963870	0.586415	0.321008
	N243	N	0.039908	0.417311	0.321492
	N244	N	0.416466	0.681612	0.961459
	N245	N	0.588421	0.681550	0.035115
	N246	N	0.589121	0.324008	0.960879
	N247	N	0.417097	0.323704	0.035541
	N248	N	0.679827	0.964361	0.411925
	N249	N	0.679263	0.039102	0.582462
	N250	N	0.323849	0.964520	0.581677
	N251	N	0.322015	0.039382	0.411191
	N252	N	0.917751	0.464801	0.176427
	N253	N	0.088388	0.539754	0.178090
	N254	N	0.087778	0.465273	0.820454
	N255	N	0.916550	0.539343	0.819964
	N256	N	0.179095	0.916397	0.459714
	N257	N	0.177933	0.085696	0.535276
	N258	N	0.824169	0.086190	0.459876
	N259	N	0.823996	0.916704	0.535491
	N260	N	0.465469	0.181713	0.911502
	N261	N	0.540051	0.179954	0.082681
	N262	N	0.465122	0.823904	0.083613
	N263	N	0.539550	0.824475	0.912406
	N264	N	0.464002	0.917212	0.174699
	N265	N	0.539520	0.086648	0.175231
	N266	N	0.463935	0.087938	0.819622
	N267	N	0.539590	0.917978	0.820181
	N268	N	0.914108	0.181497	0.461358
	N269	N	0.086555	0.179717	0.535252
	N270	N	0.088010	0.821898	0.460829
	N271	N	0.915652	0.822637	0.535196
	N272	N	0.180896	0.465760	0.913212
	N273	N	0.180332	0.540276	0.083997
	N274	N	0.823261	0.465242	0.085037
	N275	N	0.824554	0.539654	0.913910
	O276	O	0.067750	0.059284	1.010106
	H277	H	0.069049	0.064904	1.014796
	H278	H	0.069170	0.050140	1.008577
	O279	O	0.429532	0.420310	0.506508
	H280	H	0.421075	0.427007	0.505050
	H281	H	0.429522	0.421420	0.497915
	O282	O	0.469099	0.432738	0.524582
	H283	H	0.462325	0.426903	0.522561
	H284	H	0.464104	0.425340	0.522477
	O285	O	0.444027	0.497505	0.528597
	H286	H	0.444296	0.497943	0.541565
	H287	H	0.440299	0.497998	0.534574
	O288	O	0.449328	0.485891	0.535242
	H289	H	0.453271	0.485949	0.540898
	H290	H	0.447012	0.477190	0.531902
	O291	O	0.039389	1.106269	0.984270
	H292	H	0.034022	1.113487	0.991436
	H293	H	0.046185	1.111450	0.978316
	O294	O	0.423029	0.468451	0.504276
	H295	H	0.426474	0.466424	0.511108
	H296	H	0.428026	0.472896	0.504315
	O297	O	1.072789	0.026917	-0.003704
	H298	H	1.067508	0.033503	-0.006912
	H299	H	1.075998	0.027201	0.003062
