data_Molecule from HDF5

_cell_length_a		16.299873
_cell_length_b		16.240276
_cell_length_c		16.227345
_cell_angle_alpha	90.377566
_cell_angle_beta	90.237009
_cell_angle_gamma	89.900944
_symmetry_space_group_name_H-M	'P 1'
_symmetry_Int_Tables_number		1

loop_
	_symmetry_equiv_pos_as_xyz
	x,y,z

loop_
	_atom_site_label
	_atom_site_type_symbol
	_atom_site_fract_x
	_atom_site_fract_y
	_atom_site_fract_z
	H0	H	0.409518	0.838307	0.706207
	H1	H	0.607203	0.166017	0.710724
	H2	H	0.607523	0.839004	0.277350
	H3	H	0.408623	0.166964	0.279076
	H4	H	0.721996	0.400536	0.829098
	H5	H	0.724766	0.602485	0.155616
	H6	H	0.290706	0.602270	0.829381
	H7	H	0.294132	0.404448	0.157223
	H8	H	0.845084	0.718304	0.392374
	H9	H	0.171130	0.719436	0.593365
	H10	H	0.845674	0.288291	0.590815
	H11	H	0.171045	0.286005	0.391041
	H12	H	0.843788	0.405136	0.704234
	H13	H	0.170713	0.603999	0.710225
	H14	H	0.844777	0.600656	0.277827
	H15	H	0.170969	0.401398	0.276624
	H16	H	0.407348	0.716357	0.828678
	H17	H	0.606900	0.715754	0.157224
	H18	H	0.606564	0.286139	0.829541
	H19	H	0.410239	0.289453	0.157583
	H20	H	0.724334	0.839735	0.391876
	H21	H	0.724385	0.166264	0.596077
	H22	H	0.293126	0.839906	0.590944
	H23	H	0.292666	0.166598	0.393668
	H24	H	0.909053	0.337495	0.206237
	H25	H	0.106536	0.666027	0.208533
	H26	H	0.106734	0.339157	0.775605
	H27	H	0.908487	0.666805	0.778889
	H28	H	0.223568	0.902125	0.328938
	H29	H	0.225275	0.105241	0.655716
	H30	H	0.790010	0.103466	0.329797
	H31	H	0.793903	0.904316	0.656254
	H32	H	0.345260	0.215949	0.894743
	H33	H	0.671321	0.218782	0.094731
	H34	H	0.344370	0.788854	0.090708
	H35	H	0.671169	0.786188	0.893747
	H36	H	0.344722	0.905583	0.205386
	H37	H	0.671906	0.101927	0.209387
	H38	H	0.345607	0.100008	0.779391
	H39	H	0.671594	0.901970	0.778171
	H40	H	0.908557	0.216444	0.328148
	H41	H	0.108420	0.219210	0.655581
	H42	H	0.107511	0.787336	0.328781
	H43	H	0.910134	0.789692	0.656481
	H44	H	0.222350	0.338210	0.892478
	H45	H	0.223179	0.666092	0.093704
	H46	H	0.793264	0.338126	0.090015
	H47	H	0.791390	0.664966	0.892847
	H48	H	0.408277	0.121663	0.582706
	H49	H	0.602165	0.884572	0.587843
	H50	H	0.605776	0.122586	0.398646
	H51	H	0.410529	0.883423	0.396686
	H52	H	0.598714	0.412808	0.108656
	H53	H	0.597734	0.594324	0.876702
	H54	H	0.414470	0.596527	0.109717
	H55	H	0.418381	0.409817	0.877124
	H56	H	0.126914	0.595526	0.394226
	H57	H	0.891325	0.591176	0.592591
	H58	H	0.126691	0.401065	0.582725
	H59	H	0.890396	0.414180	0.389606
	H60	H	0.120096	0.416956	0.575667
	H61	H	0.888687	0.607029	0.584409
	H62	H	0.125032	0.601034	0.405573
	H63	H	0.889411	0.399536	0.401451
	H64	H	0.415708	0.593951	0.108942
	H65	H	0.601116	0.595290	0.874330
	H66	H	0.601077	0.408667	0.110742
	H67	H	0.414913	0.405711	0.875205
	H68	H	0.592120	0.118265	0.398664
	H69	H	0.599302	0.887754	0.583147
	H70	H	0.417075	0.121704	0.596072
	H71	H	0.421677	0.887421	0.396321
	H72	H	0.920375	0.618354	0.089106
	H73	H	0.101065	0.385986	0.082945
	H74	H	0.089443	0.613741	0.906963
	H75	H	0.923383	0.389289	0.901505
	H76	H	0.101920	0.910613	0.609684
	H77	H	0.106813	0.090737	0.375187
	H78	H	0.924201	0.099865	0.608560
	H79	H	0.917975	0.922455	0.380559
	H80	H	0.622654	0.094179	0.911221
	H81	H	0.391729	0.098021	0.086568
	H82	H	0.627086	0.905505	0.089232
	H83	H	0.394251	0.913294	0.902321
	H84	H	0.623293	0.907054	0.080747
	H85	H	0.392493	0.095524	0.083675
	H86	H	0.625638	0.086460	0.895743
	H87	H	0.390503	0.910287	0.893035
	H88	H	0.911166	0.102063	0.612488
	H89	H	0.096163	0.092112	0.377623
	H90	H	0.103680	0.913172	0.609567
	H91	H	0.924958	0.902561	0.376218
	H92	H	0.109614	0.620024	0.909547
	H93	H	0.103189	0.384589	0.084837
	H94	H	0.916149	0.616403	0.079426
	H95	H	0.907489	0.383875	0.903230
	H96	H	0.422970	0.115755	0.582191
	H97	H	0.604918	0.885607	0.582849
	H98	H	0.600606	0.117325	0.410526
	H99	H	0.416126	0.888579	0.405987
	H100	H	0.604630	0.412741	0.109976
	H101	H	0.601226	0.591569	0.875799
	H102	H	0.417908	0.595970	0.109097
	H103	H	0.412563	0.410810	0.876212
	H104	H	0.121552	0.589174	0.404196
	H105	H	0.896321	0.593272	0.575331
	H106	H	0.125427	0.416148	0.593679
	H107	H	0.896233	0.415810	0.407291
	H108	H	0.909867	0.620405	0.087270
	H109	H	0.100825	0.385718	0.085953
	H110	H	0.099960	0.622452	0.890710
	H111	H	0.915124	0.382490	0.888616
	H112	H	0.100071	0.912884	0.608553
	H113	H	0.101369	0.100047	0.373277
	H114	H	0.914284	0.089437	0.607259
	H115	H	0.904488	0.908394	0.371482
	H116	H	0.628631	0.103443	0.898716
	H117	H	0.393134	0.093886	0.087681
	H118	H	0.623266	0.914244	0.086491
	H119	H	0.390762	0.903846	0.901205
	C120	C	0.387179	0.011369	0.614714
	C121	C	0.630414	0.994032	0.615070
	C122	C	0.629027	0.011219	0.372544
	C123	C	0.386776	0.994703	0.371096
	C124	C	0.629736	0.380831	0.001656
	C125	C	0.629491	0.623382	0.984004
	C126	C	0.386391	0.623858	0.001012
	C127	C	0.386818	0.381112	0.984656
	C128	C	0.016904	0.624434	0.371412
	C129	C	0.999422	0.626094	0.614393
	C130	C	0.016482	0.382280	0.613056
	C131	C	0.999848	0.380335	0.370239
	C132	C	0.886734	0.510263	0.113631
	C133	C	0.130129	0.493647	0.114510
	C134	C	0.129139	0.510783	0.871565
	C135	C	0.886174	0.493453	0.869779
	C136	C	0.130552	0.881996	0.500860
	C137	C	0.130381	0.124493	0.483720
	C138	C	0.886705	0.125438	0.501029
	C139	C	0.887084	0.882231	0.484165
	C140	C	0.517377	0.123000	0.872858
	C141	C	0.500081	0.125085	0.115751
	C142	C	0.516703	0.880980	0.113966
	C143	C	0.499705	0.879362	0.869976
	C144	C	0.389402	0.887517	0.668728
	C145	C	0.627858	0.117282	0.671962
	C146	C	0.627591	0.888202	0.315818
	C147	C	0.388171	0.117877	0.316063
	C148	C	0.684382	0.381387	0.878207
	C149	C	0.686158	0.622317	0.106933
	C150	C	0.329392	0.622139	0.878044
	C151	C	0.331832	0.384114	0.108180
	C152	C	0.893777	0.679705	0.372838
	C153	C	0.122414	0.681426	0.613488
	C154	C	0.894241	0.326163	0.611016
	C155	C	0.122289	0.324199	0.371313
	C156	C	0.893406	0.384554	0.667578
	C157	C	0.122078	0.624263	0.671494
	C158	C	0.893795	0.621417	0.315673
	C159	C	0.122150	0.381789	0.314433
	C160	C	0.387639	0.678790	0.877857
	C161	C	0.627627	0.678739	0.107601
	C162	C	0.626977	0.324419	0.878531
	C163	C	0.389791	0.327040	0.108452
	C164	C	0.685777	0.888535	0.372756
	C165	C	0.685851	0.117358	0.614742
	C166	C	0.331426	0.888214	0.611527
	C167	C	0.330334	0.117601	0.373019
	C168	C	0.888887	0.386706	0.168589
	C169	C	0.127709	0.616926	0.170877
	C170	C	0.126895	0.388051	0.814255
	C171	C	0.888156	0.617418	0.816027
	C172	C	0.185734	0.882593	0.377997
	C173	C	0.186370	0.123976	0.606992
	C174	C	0.829030	0.123568	0.378248
	C175	C	0.831958	0.884237	0.607451
	C176	C	0.394353	0.178184	0.874667
	C177	C	0.622770	0.180753	0.114537
	C178	C	0.393501	0.826131	0.111331
	C179	C	0.622410	0.823902	0.873025
	C180	C	0.393578	0.884388	0.168310
	C181	C	0.622999	0.122620	0.171622
	C182	C	0.394350	0.120428	0.817333
	C183	C	0.622672	0.881577	0.815593
	C184	C	0.888321	0.179247	0.377186
	C185	C	0.128439	0.180917	0.606935
	C186	C	0.127950	0.825485	0.377871
	C187	C	0.889666	0.827083	0.607372
	C188	C	0.184729	0.387652	0.872129
	C189	C	0.185696	0.616838	0.113681
	C190	C	0.831089	0.386752	0.111237
	C191	C	0.829862	0.616569	0.872511
	C192	C	0.409470	0.097297	0.593182
	C193	C	0.608514	0.908198	0.591644
	C194	C	0.606170	0.097292	0.395995
	C195	C	0.409359	0.908820	0.393232
	C196	C	0.607827	0.404497	0.087662
	C197	C	0.606750	0.600550	0.897991
	C198	C	0.409212	0.601857	0.086991
	C199	C	0.408758	0.402500	0.898588
	C200	C	0.102378	0.602041	0.394615
	C201	C	0.914314	0.603711	0.591107
	C202	C	0.102013	0.404714	0.590693
	C203	C	0.914147	0.403157	0.392792
	C204	C	0.908714	0.595998	0.091658
	C205	C	0.108128	0.407549	0.091371
	C206	C	0.106394	0.596727	0.895527
	C207	C	0.908756	0.407470	0.891403
	C208	C	0.108291	0.905417	0.587103
	C209	C	0.107951	0.101152	0.397563
	C210	C	0.909589	0.103563	0.587084
	C211	C	0.909334	0.904540	0.398340
	C212	C	0.603317	0.101134	0.895376
	C213	C	0.414599	0.102373	0.092705
	C214	C	0.602494	0.902542	0.091901
	C215	C	0.414007	0.902317	0.892291
	Zn216	Zn	0.508802	0.002287	0.743110
	Zn217	Zn	0.508338	0.003122	0.243221
	Zn218	Zn	0.758099	0.501709	-0.007957
	Zn219	Zn	0.258618	0.502409	-0.007381
	Zn220	Zn	0.008388	0.754249	0.492741
	Zn221	Zn	0.008768	0.252859	0.491847
	Zn222	Zn	0.007602	0.503391	0.741883
	Zn223	Zn	0.007881	0.501992	0.242549
	Zn224	Zn	0.507984	0.752044	-0.007366
	Zn225	Zn	0.508874	0.252860	-0.006076
	Zn226	Zn	0.758528	0.003562	0.492779
	Zn227	Zn	0.258825	0.003022	0.492806
	N228	N	0.423161	0.965008	0.671013
	N229	N	0.593897	0.039686	0.672225
	N230	N	0.593041	0.965596	0.315569
	N231	N	0.422427	0.040386	0.314640
	N232	N	0.686064	0.415898	0.955910
	N233	N	0.687435	0.588565	0.029016
	N234	N	0.328491	0.588799	0.955722
	N235	N	0.329643	0.416694	0.030087
	N236	N	0.971258	0.681558	0.406900
	N237	N	0.045422	0.682597	0.578512
	N238	N	0.971765	0.324638	0.577814
	N239	N	0.045152	0.323151	0.405268
	N240	N	0.970476	0.418829	0.668865
	N241	N	0.044766	0.590643	0.672320
	N242	N	0.971315	0.587727	0.314555
	N243	N	0.044920	0.415921	0.313643
	N244	N	0.422391	0.679989	0.955333
	N245	N	0.592848	0.679409	0.030182
	N246	N	0.593660	0.324013	0.956219
	N247	N	0.423354	0.324967	0.030761
	N248	N	0.686610	0.966088	0.407303
	N249	N	0.687626	0.039740	0.580292
	N250	N	0.329977	0.966035	0.578514
	N251	N	0.329282	0.039997	0.406440
	N252	N	0.922879	0.464272	0.170234
	N253	N	0.093912	0.539395	0.171613
	N254	N	0.093271	0.465861	0.813638
	N255	N	0.922196	0.539974	0.814034
	N256	N	0.187236	0.917134	0.455699
	N257	N	0.187591	0.089557	0.529426
	N258	N	0.828200	0.090739	0.456120
	N259	N	0.830138	0.917711	0.529812
	N260	N	0.471806	0.179746	0.908560
	N261	N	0.545256	0.182598	0.080729
	N262	N	0.470939	0.824175	0.078151
	N263	N	0.544790	0.822195	0.905863
	N264	N	0.471191	0.917626	0.170379
	N265	N	0.545737	0.088802	0.172416
	N266	N	0.471916	0.086802	0.816103
	N267	N	0.545202	0.915073	0.813504
	N268	N	0.923336	0.180657	0.454585
	N269	N	0.094364	0.181308	0.529193
	N270	N	0.094449	0.825039	0.455473
	N271	N	0.923475	0.825917	0.529783
	N272	N	0.186055	0.465035	0.907050
	N273	N	0.187461	0.539023	0.079549
	N274	N	0.829605	0.464258	0.077639
	N275	N	0.828262	0.538451	0.905246
	O276	O	0.016773	0.035981	0.000911
	H277	H	0.013701	0.029194	0.008518
	H278	H	0.024518	0.032189	-0.001379
	O279	O	0.478605	0.525870	0.394060
	H280	H	0.484157	0.510826	0.392166
	H281	H	0.465510	0.518267	0.397999
	O282	O	0.471989	0.524289	0.494776
	H283	H	0.482021	0.528442	0.477959
	H284	H	0.475985	0.526673	0.497935
	O285	O	1.028189	-0.007532	1.035166
	H286	H	1.026820	-0.012224	1.038141
	H287	H	1.039178	-0.004775	1.026962
	O288	O	0.257430	0.246199	0.694252
	H289	H	0.267940	0.250787	0.694257
	H290	H	0.246781	0.244984	0.694908
	O291	O	0.517378	0.500755	0.576340
	H292	H	0.522248	0.503369	0.575013
	H293	H	0.515424	0.514234	0.582845
	O294	O	0.528832	-0.466878	0.469567
	H295	H	0.536975	-0.468889	0.472157
	H296	H	0.526632	-0.462525	0.459856
	O297	O	-0.028664	-0.017988	0.035489
	H298	H	-0.031303	-0.024293	0.034420
	H299	H	-0.028287	-0.017125	0.034301
	O300	O	0.484296	0.449331	0.484167
	H301	H	0.483544	0.447011	0.497028
	H302	H	0.488094	0.457508	0.484450
	O303	O	0.476426	0.564871	0.407926
	H304	H	0.470381	0.566068	0.407764
	H305	H	0.466516	0.563310	0.411895
	O306	O	1.061858	0.018451	0.012345
	H307	H	1.057892	0.016479	0.005878
	H308	H	1.072626	0.031312	0.010867
	O309	O	0.056624	0.074373	0.936139
	H310	H	0.061024	0.070452	0.932590
	H311	H	0.062167	0.080510	0.940870
	O312	O	1.027971	1.007737	0.961589
	H313	H	1.015235	1.009244	0.961991
	H314	H	1.017316	1.005172	0.959275
	O315	O	0.463831	0.595389	0.535805
	H316	H	0.452252	0.596420	0.540177
	H317	H	0.458858	0.588115	0.529728
	O318	O	0.420997	0.517753	0.583399
	H319	H	0.413173	0.521216	0.589241
	H320	H	0.428977	0.530748	0.585066
	O321	O	0.492310	1.449726	1.450613
	H322	H	0.486537	1.445265	1.457729
	H323	H	0.485763	1.443676	1.455782
	O324	O	0.614194	0.418772	0.513077
	H325	H	0.610255	0.423974	0.524034
	H326	H	0.609474	0.427793	0.517319
	O327	O	0.618224	0.609929	0.485279
	H328	H	0.604360	0.598761	0.484523
	H329	H	0.620105	0.617752	0.474680
	O330	O	0.537331	0.436596	0.445055
	H331	H	0.542617	0.431306	0.451214
	H332	H	0.539039	0.431283	0.443682
	O333	O	0.422241	0.493587	0.574567
	H334	H	0.424100	0.501726	0.566703
	H335	H	0.429295	0.493732	0.572534
	O336	O	0.514619	0.515287	0.599554
	H337	H	0.518521	0.527487	0.603333
	H338	H	0.515022	0.515788	0.604778
	O339	O	1.082357	1.017837	0.004365
	H340	H	1.092517	1.019932	0.005325
	H341	H	1.077706	1.025779	0.011389
	O342	O	0.498341	0.513673	0.569711
	H343	H	0.499792	0.522038	0.563987
	H344	H	0.491796	0.504298	0.567870
	O345	O	0.512995	0.495105	0.539693
	H346	H	0.516567	0.495488	0.547941
	H347	H	0.521285	0.497962	0.532895
	O348	O	-0.020592	-0.045165	0.008385
	H349	H	-0.022364	-0.036216	0.009275
	H350	H	-0.016476	-0.037784	0.016531
	O351	O	0.004180	1.016585	0.932760
	H352	H	-0.001795	1.014020	0.933174
	H353	H	0.008310	1.011921	0.931375
	O354	O	0.551074	0.475301	0.367045
	H355	H	0.551344	0.465276	0.359880
	H356	H	0.554994	0.467118	0.370782
	O357	O	0.011377	0.943722	0.942567
	H358	H	0.012712	0.939753	0.948993
	H359	H	0.015972	0.933835	0.931947
