data_Molecule from HDF5

_cell_length_a		16.323542
_cell_length_b		16.437394
_cell_length_c		16.218397
_cell_angle_alpha	89.866217
_cell_angle_beta	90.432982
_cell_angle_gamma	89.805183
_symmetry_space_group_name_H-M	'P 1'
_symmetry_Int_Tables_number		1

loop_
	_symmetry_equiv_pos_as_xyz
	x,y,z

loop_
	_atom_site_label
	_atom_site_type_symbol
	_atom_site_fract_x
	_atom_site_fract_y
	_atom_site_fract_z
	H0	H	0.394723	0.829736	0.721543
	H1	H	0.598745	0.150471	0.722479
	H2	H	0.596609	0.828636	0.286695
	H3	H	0.395216	0.150800	0.284030
	H4	H	0.717165	0.386596	0.842703
	H5	H	0.715945	0.588879	0.167692
	H6	H	0.276812	0.594335	0.843880
	H7	H	0.284216	0.387192	0.167775
	H8	H	0.837236	0.710614	0.398302
	H9	H	0.156667	0.710942	0.612414
	H10	H	0.835863	0.270764	0.607168
	H11	H	0.157577	0.269495	0.401155
	H12	H	0.836034	0.387493	0.721422
	H13	H	0.159203	0.589712	0.722473
	H14	H	0.837518	0.592162	0.284393
	H15	H	0.161564	0.391472	0.292473
	H16	H	0.391469	0.710041	0.843242
	H17	H	0.604645	0.708661	0.165028
	H18	H	0.602502	0.270437	0.842063
	H19	H	0.397821	0.269407	0.165481
	H20	H	0.717963	0.831145	0.397665
	H21	H	0.715158	0.150743	0.607070
	H22	H	0.279968	0.829564	0.603617
	H23	H	0.277741	0.151302	0.399084
	H24	H	0.902209	0.328352	0.220627
	H25	H	0.101666	0.650723	0.222991
	H26	H	0.103569	0.329399	0.785494
	H27	H	0.894078	0.648817	0.782955
	H28	H	0.209897	0.890937	0.339795
	H29	H	0.216349	0.093545	0.664215
	H30	H	0.776383	0.093471	0.340440
	H31	H	0.778737	0.888182	0.665558
	H32	H	0.339285	0.212883	0.896621
	H33	H	0.659653	0.207220	0.109879
	H34	H	0.339163	0.766033	0.108485
	H35	H	0.658370	0.768658	0.897220
	H36	H	0.334356	0.887496	0.217274
	H37	H	0.658506	0.088163	0.223105
	H38	H	0.336163	0.093711	0.784763
	H39	H	0.658386	0.888969	0.785217
	H40	H	0.891640	0.210070	0.341283
	H41	H	0.099957	0.207550	0.664918
	H42	H	0.098719	0.771871	0.342151
	H43	H	0.892082	0.769860	0.665003
	H44	H	0.218753	0.329272	0.903703
	H45	H	0.220903	0.649224	0.110304
	H46	H	0.783207	0.328867	0.107184
	H47	H	0.777956	0.648844	0.899582
	H48	H	0.399388	0.105618	0.589200
	H49	H	0.578243	0.881049	0.591703
	H50	H	0.582971	0.102083	0.414613
	H51	H	0.399843	0.875108	0.414597
	H52	H	0.592341	0.403771	0.117900
	H53	H	0.591976	0.582125	0.886270
	H54	H	0.414991	0.576210	0.116819
	H55	H	0.412500	0.399008	0.890173
	H56	H	0.112907	0.579769	0.413615
	H57	H	0.882828	0.586096	0.588182
	H58	H	0.112875	0.396536	0.596521
	H59	H	0.881110	0.397324	0.413071
	H60	H	0.112589	0.394623	0.592561
	H61	H	0.885521	0.574847	0.590355
	H62	H	0.115263	0.586858	0.414057
	H63	H	0.884254	0.401387	0.414748
	H64	H	0.413933	0.580498	0.119024
	H65	H	0.589103	0.576488	0.889182
	H66	H	0.584589	0.393667	0.118087
	H67	H	0.405841	0.397705	0.887147
	H68	H	0.587125	0.103541	0.414089
	H69	H	0.593895	0.877514	0.585334
	H70	H	0.404916	0.106926	0.599431
	H71	H	0.400529	0.873413	0.406379
	H72	H	0.903238	0.605774	0.094229
	H73	H	0.086672	0.377349	0.097803
	H74	H	0.090196	0.603581	0.915394
	H75	H	0.906545	0.375190	0.914091
	H76	H	0.084565	0.898418	0.619003
	H77	H	0.086131	0.083085	0.385959
	H78	H	0.902358	0.070878	0.616361
	H79	H	0.906405	0.901351	0.389027
	H80	H	0.608293	0.070926	0.916575
	H81	H	0.385535	0.080688	0.085347
	H82	H	0.609824	0.901740	0.090815
	H83	H	0.383028	0.903005	0.905976
	H84	H	0.613583	0.899996	0.099158
	H85	H	0.383900	0.077519	0.093918
	H86	H	0.616193	0.080475	0.903960
	H87	H	0.381369	0.890540	0.915231
	H88	H	0.916348	0.083609	0.615937
	H89	H	0.085847	0.079636	0.387587
	H90	H	0.091497	0.898977	0.621063
	H91	H	0.906993	0.901321	0.388535
	H92	H	0.087135	0.603197	0.912391
	H93	H	0.097697	0.374889	0.093069
	H94	H	0.910616	0.604063	0.097592
	H95	H	0.909969	0.375998	0.913377
	H96	H	0.410468	0.101236	0.590049
	H97	H	0.589888	0.873216	0.601590
	H98	H	0.584248	0.103544	0.410572
	H99	H	0.406874	0.876559	0.410732
	H100	H	0.596385	0.393480	0.123472
	H101	H	0.585588	0.582294	0.888956
	H102	H	0.410339	0.576850	0.118909
	H103	H	0.407286	0.404489	0.889710
	H104	H	0.112886	0.583705	0.420322
	H105	H	0.880701	0.581806	0.598926
	H106	H	0.111098	0.399658	0.592935
	H107	H	0.881933	0.401834	0.410160
	H108	H	0.908826	0.601881	0.090285
	H109	H	0.095301	0.372485	0.105176
	H110	H	0.086245	0.601370	0.916127
	H111	H	0.909024	0.376404	0.916240
	H112	H	0.088011	0.904312	0.617710
	H113	H	0.083016	0.081829	0.387207
	H114	H	0.899601	0.088841	0.623094
	H115	H	0.906288	0.900674	0.388963
	H116	H	0.613818	0.087586	0.919820
	H117	H	0.381055	0.086186	0.091489
	H118	H	0.613111	0.893368	0.092988
	H119	H	0.387067	0.903534	0.921013
	C120	C	0.375011	-0.001443	0.623721
	C121	C	0.618211	0.982350	0.624635
	C122	C	0.616572	-0.002322	0.382067
	C123	C	0.372653	0.981416	0.379526
	C124	C	0.621364	0.366896	0.012807
	C125	C	0.620516	0.610496	0.995180
	C126	C	0.379317	0.609900	0.012043
	C127	C	0.378595	0.368746	0.995925
	C128	C	0.007028	0.613294	0.382988
	C129	C	0.988743	0.611378	0.625602
	C130	C	0.005857	0.366941	0.625267
	C131	C	0.989300	0.369706	0.383573
	C132	C	0.878554	0.497958	0.125417
	C133	C	0.123320	0.481123	0.128525
	C134	C	0.119687	0.497067	0.884075
	C135	C	0.876259	0.480903	0.881937
	C136	C	0.117654	0.869880	0.511963
	C137	C	0.116827	0.111655	0.494211
	C138	C	0.874536	0.112188	0.511262
	C139	C	0.875125	0.869564	0.495478
	C140	C	0.506790	0.111854	0.881559
	C141	C	0.489752	0.110865	0.123652
	C142	C	0.506224	0.867092	0.124870
	C143	C	0.489607	0.868095	0.882058
	C144	C	0.375733	0.877841	0.682150
	C145	C	0.618305	0.102702	0.683234
	C146	C	0.616960	0.876873	0.324630
	C147	C	0.374387	0.102470	0.322158
	C148	C	0.678367	0.367346	0.890884
	C149	C	0.678061	0.609276	0.118165
	C150	C	0.317395	0.612464	0.891681
	C151	C	0.322129	0.367901	0.118571
	C152	C	0.885536	0.670998	0.380460
	C153	C	0.109114	0.670630	0.629364
	C154	C	0.884539	0.309597	0.626044
	C155	C	0.110153	0.310179	0.383206
	C156	C	0.884512	0.367777	0.682945
	C157	C	0.110254	0.610252	0.684364
	C158	C	0.885935	0.612139	0.323533
	C159	C	0.112271	0.370984	0.329211
	C160	C	0.375031	0.669735	0.891286
	C161	C	0.622467	0.668718	0.117093
	C162	C	0.621275	0.309643	0.890689
	C163	C	0.379006	0.309468	0.117514
	C164	C	0.676995	0.878215	0.380338
	C165	C	0.676088	0.102823	0.625573
	C166	C	0.318465	0.877627	0.623425
	C167	C	0.316133	0.102798	0.379541
	C168	C	0.881275	0.376789	0.182630
	C169	C	0.121924	0.602424	0.184862
	C170	C	0.121492	0.377165	0.825502
	C171	C	0.874941	0.600869	0.822493
	C172	C	0.173147	0.870506	0.389254
	C173	C	0.176337	0.112052	0.615877
	C174	C	0.815846	0.112504	0.389163
	C175	C	0.817270	0.868853	0.617114
	C176	C	0.386812	0.172360	0.878877
	C177	C	0.611261	0.167823	0.126987
	C178	C	0.386264	0.806904	0.126277
	C179	C	0.610341	0.808929	0.879776
	C180	C	0.383907	0.867540	0.180313
	C181	C	0.610740	0.108857	0.183567
	C182	C	0.385024	0.112689	0.823422
	C183	C	0.610415	0.868668	0.823902
	C184	C	0.872826	0.170819	0.389590
	C185	C	0.118235	0.168825	0.616214
	C186	C	0.117450	0.811372	0.390485
	C187	C	0.873901	0.810024	0.616875
	C188	C	0.179091	0.377214	0.884227
	C189	C	0.181226	0.601611	0.128748
	C190	C	0.822142	0.376897	0.125982
	C191	C	0.816861	0.600846	0.880339
	C192	C	0.398197	0.082713	0.599858
	C193	C	0.594283	0.898830	0.600053
	C194	C	0.591864	0.081292	0.406094
	C195	C	0.395703	0.896869	0.403663
	C196	C	0.597890	0.390048	0.097798
	C197	C	0.596013	0.587133	0.910313
	C198	C	0.405492	0.585005	0.096339
	C199	C	0.401578	0.393313	0.911181
	C200	C	0.091645	0.590068	0.408677
	C201	C	0.904786	0.587764	0.600116
	C202	C	0.090207	0.390267	0.601076
	C203	C	0.904541	0.393260	0.406120
	C204	C	0.901116	0.582094	0.101116
	C205	C	0.100151	0.396832	0.105421
	C206	C	0.095115	0.580998	0.907708
	C207	C	0.901240	0.397544	0.907157
	C208	C	0.094572	0.893692	0.597160
	C209	C	0.092224	0.088294	0.408886
	C210	C	0.898961	0.088058	0.596244
	C211	C	0.899515	0.893937	0.410852
	C212	C	0.591030	0.086942	0.906247
	C213	C	0.405517	0.088009	0.097773
	C214	C	0.590350	0.891377	0.101214
	C215	C	0.405685	0.892041	0.906850
	Zn216	Zn	0.496792	-0.009765	0.753615
	Zn217	Zn	0.495926	-0.011081	0.252208
	Zn218	Zn	0.748166	0.488887	0.004650
	Zn219	Zn	0.250342	0.489889	0.005514
	Zn220	Zn	-0.002621	0.741082	0.504811
	Zn221	Zn	-0.003865	0.240035	0.503233
	Zn222	Zn	-0.001837	0.488342	0.753067
	Zn223	Zn	0.000117	0.490227	0.255062
	Zn224	Zn	0.499049	0.739031	0.003680
	Zn225	Zn	0.499376	0.239818	0.003116
	Zn226	Zn	0.746722	-0.008834	0.503069
	Zn227	Zn	0.245618	-0.009320	0.502378
	N228	N	0.410254	0.953997	0.682378
	N229	N	0.582951	0.027031	0.682743
	N230	N	0.580053	0.952122	0.325678
	N231	N	0.408648	0.025828	0.321886
	N232	N	0.678554	0.402252	0.967846
	N233	N	0.676983	0.573777	0.041474
	N234	N	0.320217	0.575729	0.967785
	N235	N	0.321880	0.404280	0.042077
	N236	N	0.961984	0.671752	0.416558
	N237	N	0.032614	0.671444	0.593421
	N238	N	0.961082	0.308799	0.591248
	N239	N	0.032743	0.309158	0.416207
	N240	N	0.961154	0.402334	0.682925
	N241	N	0.034473	0.574059	0.682125
	N242	N	0.962547	0.577121	0.324780
	N243	N	0.036359	0.407420	0.329293
	N244	N	0.412909	0.668157	0.967173
	N245	N	0.587312	0.669774	0.039767
	N246	N	0.586732	0.309121	0.967646
	N247	N	0.413306	0.309913	0.040391
	N248	N	0.676847	0.954332	0.415120
	N249	N	0.676226	0.026948	0.589864
	N250	N	0.317797	0.953696	0.588031
	N251	N	0.314906	0.026411	0.414245
	N252	N	0.915566	0.453106	0.182424
	N253	N	0.086725	0.526639	0.184833
	N254	N	0.085116	0.452696	0.825285
	N255	N	0.911268	0.525335	0.823445
	N256	N	0.173376	0.906169	0.465872
	N257	N	0.175566	0.077173	0.538795
	N258	N	0.816947	0.076907	0.465755
	N259	N	0.818068	0.905306	0.540728
	N260	N	0.463341	0.171678	0.914361
	N261	N	0.535038	0.169094	0.090391
	N262	N	0.463248	0.806405	0.092537
	N263	N	0.534214	0.808485	0.915353
	N264	N	0.459400	0.904440	0.179616
	N265	N	0.534273	0.074108	0.181517
	N266	N	0.460651	0.075381	0.825123
	N267	N	0.534395	0.904584	0.825119
	N268	N	0.908770	0.170742	0.466541
	N269	N	0.081820	0.168563	0.539594
	N270	N	0.083771	0.810737	0.467900
	N271	N	0.909262	0.810266	0.540201
	N272	N	0.177882	0.452916	0.919949
	N273	N	0.182247	0.525185	0.094512
	N274	N	0.820160	0.453175	0.091229
	N275	N	0.817598	0.525168	0.916597
	O276	O	0.411148	0.494353	0.445229
	H277	H	0.392842	0.504860	0.439982
	H278	H	0.416267	0.493317	0.428312
	O279	O	0.595274	0.482210	0.671715
	H280	H	0.590441	0.496131	0.667328
	H281	H	0.602537	0.477998	0.668937
	O282	O	0.993218	0.052027	0.887732
	H283	H	0.990482	0.055851	0.893315
	H284	H	0.994031	0.037931	0.893470
	O285	O	0.602814	0.662089	0.486571
	H286	H	0.602709	0.667366	0.481152
	H287	H	0.588178	0.647658	0.477729
	O288	O	1.170304	0.826980	0.841332
	H289	H	1.169435	0.829947	0.857902
	H290	H	1.159194	0.827748	0.840469
	O291	O	0.008616	1.025533	-0.112770
	H292	H	0.008071	1.020902	-0.131646
	H293	H	0.019841	1.012954	-0.118060
	O294	O	0.427949	0.345762	0.516870
	H295	H	0.436269	0.348975	0.511244
	H296	H	0.430566	0.344655	0.519419
	O297	O	0.392302	0.609808	0.318734
	H298	H	0.401701	0.604034	0.325746
	H299	H	0.407714	0.628284	0.317230
	O300	O	0.514764	0.668286	0.549621
	H301	H	0.522362	0.686498	0.557400
	H302	H	0.507601	0.658994	0.560294
	O303	O	0.371333	0.414193	0.546165
	H304	H	0.366487	0.414819	0.544350
	H305	H	0.370330	0.408009	0.529616
	O306	O	0.614414	0.379835	0.524480
	H307	H	0.615563	0.376039	0.517059
	H308	H	0.617883	0.385535	0.538535
	O309	O	0.454487	0.348648	0.676749
	H310	H	0.460854	0.351355	0.680984
	H311	H	0.461717	0.338599	0.674472
	O312	O	0.128350	0.143368	0.010738
	H313	H	0.131773	0.141445	0.007507
	H314	H	0.122251	0.152587	-0.002718
	O315	O	0.383826	0.527553	0.514962
	H316	H	0.383202	0.519323	0.516565
	H317	H	0.375454	0.538670	0.512736
	O318	O	-0.094516	1.030021	1.127311
	H319	H	-0.090378	1.036574	1.129230
	H320	H	-0.106364	1.017820	1.133469
	O321	O	0.636102	0.503464	0.473833
	H322	H	0.628636	0.495011	0.487816
	H323	H	0.634950	0.496399	0.464751
	O324	O	-0.095969	0.882207	0.091421
	H325	H	-0.083835	0.886085	0.094107
	H326	H	-0.096780	0.871541	0.087476
	O327	O	0.444451	0.627927	0.662384
	H328	H	0.448741	0.630794	0.677727
	H329	H	0.441093	0.612562	0.656028
	O330	O	-0.098793	-0.040052	0.983732
	H331	H	-0.100547	-0.033296	0.974044
	H332	H	-0.117064	-0.044167	0.987056
	O333	O	-0.101523	-0.016866	1.063162
	H334	H	-0.098506	-0.034890	1.063104
	H335	H	-0.113964	-0.013256	1.044988
	O336	O	0.320783	0.482173	0.643353
	H337	H	0.317372	0.470025	0.632939
	H338	H	0.310126	0.483346	0.649871
	O339	O	0.939077	0.095002	0.059994
	H340	H	0.938436	0.080103	0.053357
	H341	H	0.939266	0.101475	0.063347
	O342	O	0.101551	-0.129899	-0.071384
	H343	H	0.103749	-0.134714	-0.050860
	H344	H	0.097145	-0.119748	-0.060548
	O345	O	1.091753	-0.081787	1.051264
	H346	H	1.096240	-0.080233	1.059031
	H347	H	1.095102	-0.084459	1.065038
	O348	O	0.886701	1.022108	-0.085477
	H349	H	0.878133	1.012867	-0.080038
	H350	H	0.873744	1.032193	-0.102027
	O351	O	0.438063	0.529672	0.336415
	H352	H	0.439877	0.520635	0.337324
	H353	H	0.430861	0.527061	0.336175
	O354	O	0.893964	-0.085943	1.042925
	H355	H	0.895349	-0.082181	1.030508
	H356	H	0.902230	-0.089676	1.043257
	O357	O	0.627862	0.588989	0.593861
	H358	H	0.629569	0.585474	0.580488
	H359	H	0.626044	0.612141	0.591062
	O360	O	0.352027	0.597005	0.398170
	H361	H	0.344472	0.594976	0.387571
	H362	H	0.366714	0.619597	0.389251
	O363	O	-0.149984	1.141688	0.903692
	H364	H	-0.137270	1.137564	0.899964
	H365	H	-0.150301	1.127349	0.899387
	O366	O	0.600136	0.323987	0.379685
	H367	H	0.599031	0.320345	0.388768
	H368	H	0.607315	0.311845	0.376729
	O369	O	0.044659	0.919163	0.177996
	H370	H	0.042747	0.942206	0.162753
	H371	H	0.054327	0.922725	0.190386
	O372	O	0.616147	0.472197	0.509004
	H373	H	0.619953	0.471552	0.505779
	H374	H	0.597101	0.470908	0.511329
	O375	O	0.488095	0.508026	0.506025
	H376	H	0.485604	0.508816	0.520423
	H377	H	0.486512	0.501132	0.509235
	O378	O	1.000470	0.950115	-0.172837
	H379	H	1.002423	0.951077	-0.176175
	H380	H	1.009198	0.933028	-0.168158
	O381	O	1.121952	0.065850	0.154663
	H382	H	1.096865	0.072138	0.152199
	H383	H	1.132762	0.084548	0.137919
	O384	O	1.037458	0.929754	0.061943
	H385	H	1.032291	0.934526	0.076614
	H386	H	1.044787	0.951118	0.062339
	O387	O	0.013443	0.038348	0.015728
	H388	H	0.023287	0.035996	0.015888
	H389	H	0.004992	0.040212	-0.008243
	O390	O	-0.041204	1.112195	0.001355
	H391	H	-0.040673	1.110154	-0.016787
	H392	H	-0.044070	1.115877	-0.004945
	O393	O	0.912374	0.970471	1.027561
	H394	H	0.922207	0.956083	1.044215
	H395	H	0.906425	0.982658	1.031148
	O396	O	0.484398	0.483399	0.422865
	H397	H	0.494570	0.465693	0.423386
	H398	H	0.482836	0.476924	0.438710
	O399	O	0.143699	0.977178	0.843984
	H400	H	0.132463	0.975568	0.839678
	H401	H	0.155224	0.962678	0.839453
	O402	O	0.595074	0.429722	0.381287
	H403	H	0.612960	0.428605	0.372161
	H404	H	0.598918	0.414768	0.383923
	O405	O	0.928936	0.801227	0.106221
	H406	H	0.920818	0.795731	0.113850
	H407	H	0.942504	0.791214	0.102012
	O408	O	1.149636	1.072727	0.060480
	H409	H	1.148388	1.075056	0.051892
	H410	H	1.155610	1.076399	0.073212
	O411	O	0.953861	-0.028277	0.876052
	H412	H	0.959197	-0.023028	0.884706
	H413	H	0.956915	-0.039735	0.872541
	O414	O	0.553132	0.413693	0.402727
	H415	H	0.539809	0.415724	0.409557
	H416	H	0.547169	0.433047	0.402011
	O417	O	0.627065	0.528159	0.664756
	H418	H	0.637400	0.544231	0.658303
	H419	H	0.632821	0.512811	0.665538
