data_Molecule from HDF5

_cell_length_a		16.298693
_cell_length_b		16.219617
_cell_length_c		16.311063
_cell_angle_alpha	89.764457
_cell_angle_beta	89.808511
_cell_angle_gamma	89.975541
_symmetry_space_group_name_H-M	'P 1'
_symmetry_Int_Tables_number		1

loop_
	_symmetry_equiv_pos_as_xyz
	x,y,z

loop_
	_atom_site_label
	_atom_site_type_symbol
	_atom_site_fract_x
	_atom_site_fract_y
	_atom_site_fract_z
	H0	H	0.393908	0.838070	0.708897
	H1	H	0.591057	0.166197	0.705574
	H2	H	0.590997	0.837551	0.279369
	H3	H	0.394415	0.165913	0.277825
	H4	H	0.708229	0.403327	0.829256
	H5	H	0.706452	0.598683	0.156428
	H6	H	0.277565	0.602197	0.829232
	H7	H	0.275633	0.399211	0.155081
	H8	H	0.828735	0.715308	0.394537
	H9	H	0.155702	0.715307	0.589958
	H10	H	0.829127	0.286840	0.591206
	H11	H	0.155867	0.287908	0.394214
	H12	H	0.829791	0.400652	0.709201
	H13	H	0.155286	0.601281	0.706936
	H14	H	0.829330	0.600948	0.277487
	H15	H	0.155274	0.401295	0.276312
	H16	H	0.394961	0.716952	0.829496
	H17	H	0.589662	0.714715	0.156897
	H18	H	0.591410	0.288200	0.829275
	H19	H	0.395221	0.286690	0.155955
	H20	H	0.707777	0.837616	0.394320
	H21	H	0.706021	0.166407	0.589153
	H22	H	0.278262	0.837553	0.594465
	H23	H	0.278739	0.166177	0.394649
	H24	H	0.894068	0.337071	0.206769
	H25	H	0.091563	0.665670	0.204986
	H26	H	0.093319	0.337153	0.777288
	H27	H	0.894250	0.665123	0.776795
	H28	H	0.209289	0.902612	0.330217
	H29	H	0.206658	0.100073	0.656117
	H30	H	0.779223	0.101147	0.329590
	H31	H	0.777893	0.902212	0.656135
	H32	H	0.329443	0.216887	0.894350
	H33	H	0.656665	0.214048	0.088458
	H34	H	0.329292	0.786621	0.092122
	H35	H	0.656709	0.788539	0.894784
	H36	H	0.330003	0.901078	0.210089
	H37	H	0.655706	0.100847	0.206623
	H38	H	0.329753	0.101108	0.777913
	H39	H	0.656238	0.903457	0.777724
	H40	H	0.896547	0.214787	0.329014
	H41	H	0.090504	0.216208	0.655626
	H42	H	0.092021	0.787477	0.329535
	H43	H	0.893687	0.785282	0.655572
	H44	H	0.207784	0.336972	0.893432
	H45	H	0.206331	0.665355	0.088747
	H46	H	0.779053	0.337307	0.091092
	H47	H	0.778989	0.665648	0.893441
	H48	H	0.408516	0.115417	0.584907
	H49	H	0.592043	0.882720	0.584244
	H50	H	0.585927	0.119629	0.396254
	H51	H	0.406762	0.884497	0.392397
	H52	H	0.588559	0.410333	0.108862
	H53	H	0.592094	0.592083	0.875113
	H54	H	0.397513	0.596084	0.110597
	H55	H	0.404612	0.393880	0.872447
	H56	H	0.103220	0.589855	0.413459
	H57	H	0.874305	0.598415	0.585015
	H58	H	0.106778	0.411473	0.580406
	H59	H	0.873521	0.408073	0.390828
	H60	H	0.109660	0.412161	0.588524
	H61	H	0.879140	0.589813	0.579868
	H62	H	0.108319	0.582136	0.385684
	H63	H	0.874633	0.401277	0.403359
	H64	H	0.396696	0.589644	0.108084
	H65	H	0.581543	0.591190	0.879052
	H66	H	0.583524	0.407224	0.108758
	H67	H	0.385492	0.415312	0.874328
	H68	H	0.584479	0.118041	0.400479
	H69	H	0.583342	0.884517	0.591579
	H70	H	0.393918	0.117500	0.577164
	H71	H	0.406289	0.889844	0.411604
	H72	H	0.895387	0.619788	0.086108
	H73	H	0.093049	0.379908	0.088939
	H74	H	0.082529	0.617451	0.897345
	H75	H	0.895903	0.383108	0.899532
	H76	H	0.090932	0.910987	0.609506
	H77	H	0.102338	0.090348	0.372851
	H78	H	0.900386	0.095672	0.609207
	H79	H	0.897443	0.913866	0.376886
	H80	H	0.605804	0.084580	0.899718
	H81	H	0.371973	0.098917	0.094877
	H82	H	0.610255	0.904951	0.086259
	H83	H	0.376887	0.910301	0.899289
	H84	H	0.608105	0.910045	0.084154
	H85	H	0.377358	0.099484	0.075473
	H86	H	0.613977	0.098503	0.887752
	H87	H	0.375959	0.907739	0.899466
	H88	H	0.895860	0.093914	0.609925
	H89	H	0.076237	0.082918	0.383283
	H90	H	0.079996	0.909519	0.606263
	H91	H	0.904703	0.908273	0.377588
	H92	H	0.086059	0.617147	0.901251
	H93	H	0.076486	0.385067	0.090659
	H94	H	0.901004	0.619354	0.088309
	H95	H	0.903058	0.384309	0.897447
	H96	H	0.395678	0.122315	0.593580
	H97	H	0.582339	0.887073	0.580592
	H98	H	0.588715	0.119146	0.399527
	H99	H	0.390205	0.882423	0.402774
	H100	H	0.588888	0.403938	0.110330
	H101	H	0.585412	0.600859	0.875887
	H102	H	0.403013	0.592185	0.107298
	H103	H	0.412122	0.419700	0.882922
	H104	H	0.114403	0.609352	0.394003
	H105	H	0.876373	0.588832	0.590288
	H106	H	0.109424	0.404896	0.583990
	H107	H	0.878700	0.415388	0.401966
	H108	H	0.900147	0.618467	0.081473
	H109	H	0.084516	0.387038	0.075842
	H110	H	0.087312	0.618894	0.896508
	H111	H	0.900873	0.385718	0.904322
	H112	H	0.086158	0.901432	0.611327
	H113	H	0.080900	0.109548	0.373394
	H114	H	0.900057	0.091009	0.608398
	H115	H	0.896760	0.904784	0.374036
	H116	H	0.609465	0.102863	0.906518
	H117	H	0.379545	0.082085	0.086248
	H118	H	0.609677	0.909451	0.089869
	H119	H	0.376976	0.908832	0.901427
	C120	C	0.370938	0.009984	0.614716
	C121	C	0.614270	0.993458	0.613548
	C122	C	0.614780	0.010154	0.370810
	C123	C	0.372228	0.993675	0.372591
	C124	C	0.615251	0.379251	0.001221
	C125	C	0.614320	0.622690	0.984882
	C126	C	0.371211	0.622471	0.000717
	C127	C	0.371411	0.379828	0.984340
	C128	C	0.000979	0.623182	0.369578
	C129	C	0.983984	0.621874	0.613297
	C130	C	0.001130	0.379576	0.614043
	C131	C	0.983737	0.380128	0.370383
	C132	C	0.870822	0.510330	0.114061
	C133	C	0.113513	0.492622	0.113368
	C134	C	0.114873	0.509536	0.869767
	C135	C	0.871426	0.493048	0.871233
	C136	C	0.114673	0.879334	0.501124
	C137	C	0.114666	0.123094	0.484355
	C138	C	0.871049	0.122794	0.501190
	C139	C	0.870804	0.879606	0.484099
	C140	C	0.501513	0.123829	0.870326
	C141	C	0.484317	0.122221	0.113419
	C142	C	0.501180	0.879586	0.115066
	C143	C	0.484631	0.880398	0.871132
	C144	C	0.373667	0.886865	0.670715
	C145	C	0.611666	0.116923	0.668292
	C146	C	0.611797	0.886440	0.316760
	C147	C	0.374292	0.117133	0.316206
	C148	C	0.670173	0.382575	0.878092
	C149	C	0.669026	0.619589	0.107746
	C150	C	0.315859	0.621846	0.878117
	C151	C	0.314735	0.380384	0.106445
	C152	C	0.877889	0.678396	0.372825
	C153	C	0.106995	0.677296	0.610265
	C154	C	0.878002	0.324195	0.612089
	C155	C	0.107007	0.325426	0.373578
	C156	C	0.878410	0.380837	0.670640
	C157	C	0.106694	0.620699	0.668598
	C158	C	0.877987	0.621408	0.314888
	C159	C	0.106655	0.382025	0.314879
	C160	C	0.374021	0.679101	0.878302
	C161	C	0.611086	0.677078	0.107939
	C162	C	0.612455	0.325121	0.878263
	C163	C	0.373946	0.324198	0.107123
	C164	C	0.669862	0.886632	0.373888
	C165	C	0.669105	0.117026	0.610736
	C166	C	0.316134	0.886640	0.613635
	C167	C	0.316529	0.117007	0.373899
	C168	C	0.873514	0.386485	0.169207
	C169	C	0.111415	0.616436	0.167560
	C170	C	0.113049	0.386229	0.815013
	C171	C	0.874100	0.616305	0.815518
	C172	C	0.170895	0.882309	0.378695
	C173	C	0.169188	0.120677	0.607304
	C174	C	0.816560	0.121371	0.378234
	C175	C	0.815670	0.881436	0.607248
	C176	C	0.378230	0.178823	0.873648
	C177	C	0.607835	0.176638	0.109628
	C178	C	0.378145	0.824281	0.112794
	C179	C	0.607658	0.825869	0.874056
	C180	C	0.378402	0.880902	0.171551
	C181	C	0.607172	0.120560	0.168291
	C182	C	0.378258	0.121283	0.815960
	C183	C	0.607342	0.882834	0.815549
	C184	C	0.875184	0.177527	0.377952
	C185	C	0.111366	0.178196	0.607044
	C186	C	0.112155	0.825598	0.378047
	C187	C	0.873257	0.823328	0.606833
	C188	C	0.169996	0.386067	0.872885
	C189	C	0.168603	0.616345	0.109783
	C190	C	0.816796	0.386173	0.111365
	C191	C	0.816509	0.616360	0.873047
	C192	C	0.392956	0.096215	0.591926
	C193	C	0.592331	0.907155	0.591846
	C194	C	0.592928	0.096571	0.392388
	C195	C	0.394522	0.907803	0.395459
	C196	C	0.593287	0.400676	0.087151
	C197	C	0.592762	0.600972	0.898961
	C198	C	0.392761	0.599522	0.086533
	C199	C	0.393993	0.402923	0.898613
	C200	C	0.086660	0.600622	0.391345
	C201	C	0.898678	0.599097	0.591491
	C202	C	0.086528	0.402533	0.590889
	C203	C	0.897699	0.401819	0.392163
	C204	C	0.892301	0.596779	0.091716
	C205	C	0.091143	0.406349	0.091571
	C206	C	0.092117	0.595746	0.891767
	C207	C	0.893462	0.406503	0.893750
	C208	C	0.092254	0.900987	0.586916
	C209	C	0.092966	0.100747	0.398720
	C210	C	0.892509	0.100125	0.586935
	C211	C	0.893099	0.902383	0.398382
	C212	C	0.587423	0.101768	0.891610
	C213	C	0.398480	0.100078	0.091890
	C214	C	0.587014	0.901715	0.093258
	C215	C	0.398621	0.902450	0.893491
	Zn216	Zn	0.492805	0.002107	0.742031
	Zn217	Zn	0.492952	0.001786	0.242867
	Zn218	Zn	0.743407	0.501308	-0.007142
	Zn219	Zn	0.241974	0.501045	-0.007912
	Zn220	Zn	-0.007325	0.750547	0.492032
	Zn221	Zn	-0.008005	0.251653	0.492624
	Zn222	Zn	-0.007182	0.500711	0.742292
	Zn223	Zn	-0.007713	0.501758	0.241323
	Zn224	Zn	0.493039	0.751499	-0.007041
	Zn225	Zn	0.493042	0.251177	-0.007473
	Zn226	Zn	0.742807	0.002017	0.492697
	Zn227	Zn	0.243196	0.001257	0.493725
	N228	N	0.407252	0.964554	0.671190
	N229	N	0.578373	0.038971	0.670267
	N230	N	0.578284	0.964155	0.314701
	N231	N	0.408434	0.039339	0.315358
	N232	N	0.672278	0.415454	0.955682
	N233	N	0.671258	0.586650	0.030032
	N234	N	0.313988	0.587240	0.955194
	N235	N	0.312888	0.414098	0.028827
	N236	N	0.955323	0.679679	0.406138
	N237	N	0.029796	0.678020	0.576392
	N238	N	0.955254	0.323284	0.577719
	N239	N	0.029557	0.324124	0.407499
	N240	N	0.955768	0.414684	0.671705
	N241	N	0.029410	0.586763	0.670514
	N242	N	0.955376	0.587651	0.312894
	N243	N	0.029093	0.415473	0.312895
	N244	N	0.407851	0.679469	0.955572
	N245	N	0.577891	0.679137	0.030589
	N246	N	0.579083	0.322879	0.955812
	N247	N	0.408608	0.323969	0.030246
	N248	N	0.671755	0.964590	0.406748
	N249	N	0.670793	0.039330	0.577460
	N250	N	0.314296	0.964402	0.579568
	N251	N	0.315162	0.039513	0.408193
	N252	N	0.906656	0.464512	0.170788
	N253	N	0.078144	0.538456	0.169898
	N254	N	0.079223	0.463965	0.813253
	N255	N	0.907452	0.538473	0.814295
	N256	N	0.172454	0.915129	0.456443
	N257	N	0.171062	0.086861	0.530103
	N258	N	0.814212	0.087699	0.455697
	N259	N	0.814125	0.915696	0.530073
	N260	N	0.455817	0.180289	0.906900
	N261	N	0.530499	0.177727	0.076140
	N262	N	0.455367	0.823339	0.078487
	N263	N	0.530293	0.824318	0.907947
	N264	N	0.455920	0.914397	0.173247
	N265	N	0.529626	0.087321	0.170603
	N266	N	0.455799	0.087836	0.813762
	N267	N	0.529772	0.916000	0.813745
	N268	N	0.908336	0.178523	0.455433
	N269	N	0.078022	0.179810	0.529660
	N270	N	0.078061	0.823491	0.455143
	N271	N	0.906863	0.822081	0.529224
	N272	N	0.171122	0.463850	0.906176
	N273	N	0.170092	0.538398	0.076817
	N274	N	0.814769	0.464250	0.077951
	N275	N	0.815119	0.538591	0.907121
	O276	O	0.479263	0.578078	0.470196
	H277	H	0.475502	0.572731	0.473236
	H278	H	0.482450	0.567321	0.472979
	O279	O	0.442220	0.512759	0.477617
	H280	H	0.447012	0.516774	0.472290
	H281	H	0.441950	0.511128	0.472754
	O282	O	0.897445	-0.027017	1.010098
	H283	H	0.893491	-0.027923	1.012982
	H284	H	0.894415	-0.029106	1.013258
	O285	O	1.552425	0.515013	1.528796
	H286	H	1.555288	0.513271	1.532890
	H287	H	1.542734	0.520288	1.532354
	O288	O	1.491357	0.508225	-0.477944
	H289	H	1.491049	0.517040	-0.482873
	H290	H	1.498405	0.505791	-0.477703
	O291	O	-0.571911	0.476937	-0.454742
	H292	H	-0.572271	0.476353	-0.460232
	H293	H	-0.566762	0.477981	-0.460909
	O294	O	0.430702	0.580821	0.499439
	H295	H	0.427919	0.582658	0.499735
	H296	H	0.435309	0.586748	0.509060
	O297	O	0.450572	0.519648	-0.488613
	H298	H	0.453294	0.514243	-0.493307
	H299	H	0.449453	0.530989	-0.480750
	O300	O	0.895650	-0.022315	0.981077
	H301	H	0.896093	-0.022270	0.982289
	H302	H	0.891446	-0.023523	0.981061
	O303	O	0.487335	0.517267	0.505874
	H304	H	0.486453	0.525533	0.504152
	H305	H	0.490210	0.514137	0.506933
	O306	O	-0.535897	1.498755	1.515409
	H307	H	-0.539205	1.496786	1.514155
	H308	H	-0.542857	1.501154	1.509672
	O309	O	0.434910	0.506597	0.526228
	H310	H	0.430146	0.495183	0.520723
	H311	H	0.424101	0.508115	0.534096
