data_Molecule from HDF5

_cell_length_a		16.163487
_cell_length_b		16.413590
_cell_length_c		16.219997
_cell_angle_alpha	89.988061
_cell_angle_beta	90.417357
_cell_angle_gamma	90.631316
_symmetry_space_group_name_H-M	'P 1'
_symmetry_Int_Tables_number		1

loop_
	_symmetry_equiv_pos_as_xyz
	x,y,z

loop_
	_atom_site_label
	_atom_site_type_symbol
	_atom_site_fract_x
	_atom_site_fract_y
	_atom_site_fract_z
	H0	H	0.405072	0.838132	0.719235
	H1	H	0.610349	0.161700	0.720497
	H2	H	0.605477	0.838682	0.286980
	H3	H	0.407418	0.161248	0.283828
	H4	H	0.718500	0.404407	0.838204
	H5	H	0.724323	0.600555	0.166110
	H6	H	0.294340	0.596885	0.838296
	H7	H	0.294366	0.402099	0.166693
	H8	H	0.845675	0.715569	0.398843
	H9	H	0.171677	0.720304	0.605277
	H10	H	0.846509	0.280793	0.602425
	H11	H	0.171848	0.287589	0.400942
	H12	H	0.842738	0.400732	0.712659
	H13	H	0.172145	0.602450	0.718735
	H14	H	0.843954	0.597840	0.287514
	H15	H	0.172509	0.405758	0.290721
	H16	H	0.405767	0.716354	0.840396
	H17	H	0.612327	0.718784	0.164967
	H18	H	0.606346	0.284470	0.840002
	H19	H	0.402448	0.280710	0.164857
	H20	H	0.720161	0.837941	0.404484
	H21	H	0.727338	0.161633	0.604455
	H22	H	0.288677	0.838332	0.601546
	H23	H	0.294376	0.162912	0.401585
	H24	H	0.907630	0.339354	0.217782
	H25	H	0.112270	0.662775	0.219930
	H26	H	0.104710	0.338673	0.786072
	H27	H	0.908047	0.662247	0.784375
	H28	H	0.218875	0.905052	0.337349
	H29	H	0.224347	0.099692	0.665776
	H30	H	0.792952	0.097026	0.338414
	H31	H	0.796256	0.902082	0.666716
	H32	H	0.342480	0.213488	0.899477
	H33	H	0.668576	0.220635	0.107438
	H34	H	0.344516	0.781058	0.104430
	H35	H	0.671532	0.786518	0.903392
	H36	H	0.343153	0.900287	0.213962
	H37	H	0.671572	0.098719	0.215987
	H38	H	0.342954	0.095803	0.786588
	H39	H	0.672783	0.903924	0.790596
	H40	H	0.908554	0.214587	0.338192
	H41	H	0.114363	0.219474	0.663834
	H42	H	0.108555	0.785323	0.338743
	H43	H	0.904187	0.780941	0.663319
	H44	H	0.219115	0.336930	0.904410
	H45	H	0.226524	0.662368	0.101787
	H46	H	0.791084	0.339196	0.101213
	H47	H	0.794390	0.663841	0.903098
	H48	H	0.419589	0.112073	0.590146
	H49	H	0.602031	0.886608	0.589176
	H50	H	0.608409	0.116194	0.413690
	H51	H	0.422059	0.888578	0.411836
	H52	H	0.604183	0.409487	0.120475
	H53	H	0.596458	0.595886	0.886065
	H54	H	0.418961	0.598481	0.121005
	H55	H	0.407394	0.387046	0.878321
	H56	H	0.124660	0.585714	0.407170
	H57	H	0.887767	0.591630	0.602832
	H58	H	0.123130	0.415456	0.590879
	H59	H	0.890194	0.402106	0.417052
	H60	H	0.127375	0.411340	0.600906
	H61	H	0.890759	0.601760	0.584115
	H62	H	0.129903	0.604349	0.407353
	H63	H	0.892989	0.413411	0.410885
	H64	H	0.413070	0.590669	0.120539
	H65	H	0.600512	0.597714	0.884572
	H66	H	0.595801	0.413923	0.117402
	H67	H	0.400001	0.421953	0.886379
	H68	H	0.600094	0.118233	0.403267
	H69	H	0.605288	0.881496	0.601600
	H70	H	0.413997	0.115778	0.594891
	H71	H	0.403741	0.884651	0.415459
	H72	H	0.918750	0.615741	0.091834
	H73	H	0.096469	0.388624	0.090527
	H74	H	0.101597	0.615153	0.911529
	H75	H	0.905585	0.382952	0.907143
	H76	H	0.098418	0.907141	0.620063
	H77	H	0.100099	0.099850	0.383657
	H78	H	0.911909	0.093995	0.621158
	H79	H	0.911913	0.912405	0.385703
	H80	H	0.624620	0.097732	0.914546
	H81	H	0.387033	0.095426	0.095249
	H82	H	0.623719	0.910217	0.092250
	H83	H	0.387830	0.903835	0.903305
	H84	H	0.625675	0.910653	0.098328
	H85	H	0.391514	0.090749	0.085652
	H86	H	0.622308	0.092934	0.916434
	H87	H	0.391116	0.901151	0.917045
	H88	H	0.922270	0.085903	0.615436
	H89	H	0.105183	0.096039	0.383276
	H90	H	0.100316	0.912598	0.617378
	H91	H	0.921293	0.906886	0.385750
	H92	H	0.100993	0.615932	0.909091
	H93	H	0.106094	0.383268	0.097084
	H94	H	0.913139	0.617616	0.096263
	H95	H	0.917201	0.385276	0.902157
	H96	H	0.422326	0.114543	0.597502
	H97	H	0.593412	0.885926	0.599280
	H98	H	0.595190	0.112233	0.414976
	H99	H	0.410990	0.881052	0.398858
	H100	H	0.595910	0.404404	0.119685
	H101	H	0.599980	0.593160	0.886391
	H102	H	0.422231	0.589471	0.117492
	H103	H	0.433926	0.408872	0.893222
	H104	H	0.122986	0.596175	0.422360
	H105	H	0.896901	0.581047	0.586519
	H106	H	0.126959	0.403960	0.592131
	H107	H	0.887891	0.402837	0.403946
	H108	H	0.919920	0.616948	0.098932
	H109	H	0.095082	0.384787	0.102285
	H110	H	0.099490	0.614715	0.910479
	H111	H	0.914262	0.388279	0.914720
	H112	H	0.094896	0.910558	0.616488
	H113	H	0.099123	0.094154	0.385596
	H114	H	0.924884	0.099301	0.619259
	H115	H	0.911102	0.902560	0.382286
	H116	H	0.623571	0.092990	0.910418
	H117	H	0.391081	0.085142	0.094609
	H118	H	0.626277	0.905252	0.095666
	H119	H	0.393053	0.913446	0.911881
	C120	C	0.386812	0.007882	0.623596
	C121	C	0.631035	0.991340	0.626263
	C122	C	0.629216	0.008694	0.381614
	C123	C	0.384570	0.991681	0.379204
	C124	C	0.627230	0.380246	0.011042
	C125	C	0.629956	0.624027	0.993762
	C126	C	0.387246	0.621477	0.011727
	C127	C	0.384441	0.377333	0.993699
	C128	C	0.017379	0.622784	0.381467
	C129	C	0.999988	0.622438	0.622556
	C130	C	0.017221	0.379731	0.623027
	C131	C	0.999294	0.379789	0.381668
	C132	C	0.886787	0.509616	0.124187
	C133	C	0.130321	0.492579	0.125473
	C134	C	0.128827	0.508357	0.880969
	C135	C	0.884381	0.492428	0.879015
	C136	C	0.127536	0.881413	0.510176
	C137	C	0.131863	0.124863	0.492541
	C138	C	0.888800	0.121374	0.510418
	C139	C	0.885814	0.878050	0.492819
	C140	C	0.515447	0.122203	0.881884
	C141	C	0.497874	0.121269	0.123278
	C142	C	0.516564	0.878502	0.124216
	C143	C	0.499102	0.878793	0.881707
	C144	C	0.385919	0.886295	0.680562
	C145	C	0.630861	0.113033	0.682581
	C146	C	0.625942	0.887068	0.325428
	C147	C	0.387457	0.113124	0.322639
	C148	C	0.681763	0.382900	0.887517
	C149	C	0.686406	0.621075	0.116972
	C150	C	0.331707	0.618062	0.887865
	C151	C	0.330337	0.380505	0.117349
	C152	C	0.894143	0.677427	0.380415
	C153	C	0.122719	0.680991	0.623814
	C154	C	0.894695	0.320570	0.621888
	C155	C	0.122969	0.325757	0.382416
	C156	C	0.892896	0.380324	0.676728
	C157	C	0.123153	0.622087	0.680192
	C158	C	0.893696	0.619250	0.324837
	C159	C	0.123219	0.384634	0.327606
	C160	C	0.387131	0.677460	0.888902
	C161	C	0.630962	0.680156	0.116402
	C162	C	0.625888	0.323307	0.888534
	C163	C	0.384498	0.320437	0.116535
	C164	C	0.682707	0.886362	0.384383
	C165	C	0.688843	0.113091	0.624732
	C166	C	0.327873	0.886614	0.622212
	C167	C	0.331157	0.113874	0.381240
	C168	C	0.887514	0.387588	0.179757
	C169	C	0.130798	0.614401	0.181302
	C170	C	0.125379	0.386556	0.825001
	C171	C	0.887307	0.614031	0.822679
	C172	C	0.182081	0.883874	0.386680
	C173	C	0.187421	0.121290	0.616275
	C174	C	0.831404	0.118296	0.387450
	C175	C	0.832088	0.880613	0.616738
	C176	C	0.391750	0.176275	0.880635
	C177	C	0.620406	0.180333	0.125093
	C178	C	0.393536	0.820410	0.122977
	C179	C	0.622635	0.824273	0.883481
	C180	C	0.392652	0.879488	0.178028
	C181	C	0.621813	0.119815	0.179249
	C182	C	0.391982	0.117682	0.824286
	C183	C	0.623100	0.882692	0.827373
	C184	C	0.888698	0.176576	0.387210
	C185	C	0.132613	0.180991	0.615268
	C186	C	0.126932	0.824718	0.387297
	C187	C	0.886121	0.820343	0.615114
	C188	C	0.182464	0.386071	0.883651
	C189	C	0.187867	0.614175	0.122566
	C190	C	0.829734	0.387658	0.121569
	C191	C	0.831038	0.614841	0.881823
	C192	C	0.411477	0.092233	0.600905
	C193	C	0.607163	0.906585	0.603434
	C194	C	0.607502	0.093509	0.403911
	C195	C	0.405912	0.906618	0.402073
	C196	C	0.604984	0.402705	0.096930
	C197	C	0.605978	0.602065	0.907869
	C198	C	0.411157	0.599480	0.097455
	C199	C	0.407146	0.399334	0.908132
	C200	C	0.103584	0.601497	0.405362
	C201	C	0.914165	0.598438	0.598255
	C202	C	0.103406	0.403366	0.601270
	C203	C	0.912721	0.400214	0.404093
	C204	C	0.910408	0.594728	0.102091
	C205	C	0.106163	0.407599	0.103306
	C206	C	0.107064	0.593187	0.903765
	C207	C	0.905905	0.407478	0.901330
	C208	C	0.104768	0.903710	0.595796
	C209	C	0.108287	0.103162	0.406371
	C210	C	0.912817	0.099570	0.596491
	C211	C	0.908146	0.900537	0.406921
	C212	C	0.601308	0.100873	0.906683
	C213	C	0.411995	0.097450	0.098728
	C214	C	0.602722	0.901862	0.101907
	C215	C	0.412994	0.899964	0.904201
	Zn216	Zn	0.508081	-0.000147	0.754349
	Zn217	Zn	0.506894	-0.000019	0.251570
	Zn218	Zn	0.756613	0.501550	0.002062
	Zn219	Zn	0.258845	0.499807	0.002555
	Zn220	Zn	0.008016	0.751277	0.501340
	Zn221	Zn	0.009334	0.251391	0.501609
	Zn222	Zn	0.007543	0.500475	0.751057
	Zn223	Zn	0.008288	0.501244	0.254669
	Zn224	Zn	0.508094	0.750934	0.003140
	Zn225	Zn	0.506120	0.250394	0.002948
	Zn226	Zn	0.758971	0.000072	0.502951
	Zn227	Zn	0.256845	0.001314	0.501455
	N228	N	0.422058	0.962490	0.681280
	N229	N	0.595801	0.036415	0.683878
	N230	N	0.593103	0.964078	0.323673
	N231	N	0.419864	0.036055	0.320998
	N232	N	0.682883	0.417378	0.964745
	N233	N	0.686058	0.587000	0.039617
	N234	N	0.331617	0.584104	0.965252
	N235	N	0.330109	0.415061	0.040092
	N236	N	0.972132	0.679797	0.414852
	N237	N	0.045013	0.681235	0.588581
	N238	N	0.972879	0.320087	0.589210
	N239	N	0.044793	0.322415	0.415346
	N240	N	0.970017	0.416616	0.677374
	N241	N	0.045762	0.586373	0.679582
	N242	N	0.971420	0.585993	0.325365
	N243	N	0.045258	0.417372	0.326998
	N244	N	0.421015	0.679762	0.967017
	N245	N	0.596619	0.682180	0.038701
	N246	N	0.592743	0.321656	0.966419
	N247	N	0.417598	0.318240	0.038762
	N248	N	0.685093	0.963092	0.418300
	N249	N	0.689283	0.036257	0.590650
	N250	N	0.328175	0.963178	0.587683
	N251	N	0.329202	0.037417	0.415713
	N252	N	0.922174	0.464430	0.181618
	N253	N	0.095594	0.537775	0.183275
	N254	N	0.092709	0.463528	0.823180
	N255	N	0.919683	0.536880	0.820650
	N256	N	0.182610	0.918502	0.463801
	N257	N	0.187320	0.087464	0.538774
	N258	N	0.831204	0.085046	0.465196
	N259	N	0.831557	0.915594	0.539715
	N260	N	0.469521	0.179098	0.915796
	N261	N	0.542220	0.181524	0.091237
	N262	N	0.471700	0.819949	0.089987
	N263	N	0.544525	0.821755	0.916599
	N264	N	0.470065	0.914954	0.178987
	N265	N	0.544437	0.084123	0.178475
	N266	N	0.469838	0.084670	0.825038
	N267	N	0.545279	0.915804	0.826183
	N268	N	0.923682	0.178583	0.464806
	N269	N	0.098743	0.183382	0.537218
	N270	N	0.093788	0.822808	0.465211
	N271	N	0.918872	0.818636	0.537007
	N272	N	0.184847	0.462925	0.917571
	N273	N	0.187617	0.537435	0.088522
	N274	N	0.829055	0.464530	0.087821
	N275	N	0.828781	0.538234	0.915810
	O276	O	0.898016	-0.043238	1.046397
	H277	H	0.889205	-0.044475	1.049317
	H278	H	0.891367	-0.028093	1.037080
	O279	O	-0.147724	0.958277	0.027376
	H280	H	-0.146626	0.958954	0.026648
	H281	H	-0.135034	0.962007	0.013433
	O282	O	0.403226	0.352900	0.456678
	H283	H	0.400807	0.355545	0.446703
	H284	H	0.407488	0.353828	0.463545
	O285	O	0.534193	0.475438	0.472411
	H286	H	0.543823	0.469782	0.477654
	H287	H	0.533212	0.471182	0.479621
	O288	O	0.653610	0.477647	0.476877
	H289	H	0.643393	0.474148	0.471689
	H290	H	0.670548	0.491457	0.481225
	O291	O	-0.026841	0.011004	0.927919
	H292	H	-0.014280	0.015244	0.932166
	H293	H	-0.026151	0.003205	0.930750
	O294	O	0.457518	1.552156	0.529858
	H295	H	0.444153	1.555024	0.528423
	H296	H	0.455435	1.546938	0.532090
	O297	O	1.024607	0.989372	-0.004074
	H298	H	1.027005	0.975677	-0.004604
	H299	H	1.030233	0.991069	-0.000968
	O300	O	0.549330	0.397599	0.433538
	H301	H	0.563569	0.402037	0.435816
	H302	H	0.557180	0.401409	0.454611
	O303	O	0.052439	-0.080072	0.942348
	H304	H	0.059244	-0.088863	0.942692
	H305	H	0.056668	-0.076457	0.950916
	O306	O	0.461930	0.503522	0.430897
	H307	H	0.464884	0.512485	0.422576
	H308	H	0.472320	0.495888	0.427284
	O309	O	0.390986	0.449990	0.594985
	H310	H	0.384228	0.453103	0.594588
	H311	H	0.385645	0.441760	0.582223
	O312	O	1.638312	0.623357	1.475032
	H313	H	1.649776	0.632684	1.486855
	H314	H	1.630721	0.606279	1.475169
	O315	O	1.032878	1.136715	-0.046676
	H316	H	1.028828	1.149178	-0.053994
	H317	H	1.039774	1.139633	-0.039585
	O318	O	0.517669	0.404625	0.369759
	H319	H	0.517975	0.410464	0.373019
	H320	H	0.525234	0.403970	0.379711
	O321	O	0.600154	0.522133	0.579132
	H322	H	0.611663	0.524952	0.584352
	H323	H	0.595576	0.537748	0.584489
	O324	O	0.023811	0.902851	1.101106
	H325	H	0.015801	0.913157	1.102413
	H326	H	0.018256	0.895368	1.108456
	O327	O	0.038751	1.001078	0.998307
	H328	H	0.033019	0.995683	1.006309
	H329	H	0.038524	1.004009	0.992436
	O330	O	-0.000514	-0.040059	-0.072733
	H331	H	0.013993	-0.049902	-0.076631
	H332	H	0.007237	-0.030687	-0.063316
	O333	O	0.624274	0.358631	0.419856
	H334	H	0.616255	0.359076	0.429638
	H335	H	0.632806	0.355823	0.431653
	O336	O	-0.069045	-0.029551	-0.003037
	H337	H	-0.060742	-0.019713	-0.010124
	H338	H	-0.079143	-0.029219	-0.008266
	O339	O	-0.387437	-0.433132	0.589311
	H340	H	-0.401454	-0.418331	0.584485
	H341	H	-0.379322	-0.429632	0.597570
	O342	O	-0.015617	1.088629	-0.099206
	H343	H	-0.020299	1.101318	-0.107919
	H344	H	-0.020409	1.085690	-0.095805
	O345	O	0.023191	0.963881	1.017172
	H346	H	0.024995	0.972538	1.005830
	H347	H	0.022223	0.970823	1.016348
	O348	O	0.010563	1.123988	0.071102
	H349	H	0.014913	1.125085	0.059316
	H350	H	0.010700	1.138035	0.085693
	O351	O	0.506227	0.644420	0.376497
	H352	H	0.503069	0.645728	0.383887
	H353	H	0.508437	0.654734	0.359040
	O354	O	-0.041878	1.099743	0.026775
	H355	H	-0.048477	1.099559	0.023366
	H356	H	-0.041774	1.110302	0.024646
	O357	O	0.497146	0.507896	0.572943
	H358	H	0.508699	0.516940	0.576754
	H359	H	0.487137	0.500379	0.579559
	O360	O	0.566564	0.525395	0.575286
	H361	H	0.575052	0.526878	0.572112
	H362	H	0.561280	0.526899	0.571290
	O363	O	0.438060	0.487297	0.397733
	H364	H	0.452426	0.486729	0.402099
	H365	H	0.442188	0.490506	0.396564
	O366	O	0.498823	0.443598	0.643228
	H367	H	0.498455	0.437920	0.639741
	H368	H	0.498851	0.443592	0.649464
	O369	O	1.020411	-0.103020	0.090872
	H370	H	1.019610	-0.093653	0.084078
	H371	H	1.011439	-0.100803	0.092258
	O372	O	0.495941	0.437888	0.447791
	H373	H	0.501687	0.438672	0.445478
	H374	H	0.496673	0.436983	0.455302
	O375	O	0.934129	-0.014836	1.016148
	H376	H	0.939618	-0.017610	1.013766
	H377	H	0.940473	-0.021990	1.017687
	O378	O	0.108895	0.956218	-0.021897
	H379	H	0.111302	0.956415	-0.009558
	H380	H	0.122057	0.964038	-0.013707
	O381	O	0.613892	0.668747	0.677785
	H382	H	0.610673	0.680676	0.660701
	H383	H	0.614330	0.679063	0.686736
	O384	O	1.054664	0.989062	0.034392
	H385	H	1.054529	0.995552	0.046045
	H386	H	1.049062	0.986846	0.033155
	O387	O	1.085400	-0.013577	1.005198
	H388	H	1.086636	-0.006653	1.012844
	H389	H	1.088810	-0.021366	1.007981
	O390	O	1.424994	0.576896	-0.488870
	H391	H	1.423215	0.583586	-0.500635
	H392	H	1.432352	0.565791	-0.490115
	O393	O	0.482595	0.412048	0.589753
	H394	H	0.473885	0.422023	0.597190
	H395	H	0.462407	0.405547	0.592724
