data_Molecule from HDF5

_cell_length_a		16.234629
_cell_length_b		16.263233
_cell_length_c		16.202168
_cell_angle_alpha	89.484101
_cell_angle_beta	90.210533
_cell_angle_gamma	89.585654
_symmetry_space_group_name_H-M	'P 1'
_symmetry_Int_Tables_number		1

loop_
	_symmetry_equiv_pos_as_xyz
	x,y,z

loop_
	_atom_site_label
	_atom_site_type_symbol
	_atom_site_fract_x
	_atom_site_fract_y
	_atom_site_fract_z
	H0	H	0.407397	0.839575	0.713682
	H1	H	0.602064	0.167827	0.708255
	H2	H	0.605888	0.839174	0.284212
	H3	H	0.404425	0.166499	0.279237
	H4	H	0.719600	0.404011	0.832334
	H5	H	0.719676	0.597752	0.161241
	H6	H	0.289545	0.604590	0.832513
	H7	H	0.293763	0.402919	0.160615
	H8	H	0.841313	0.721837	0.393585
	H9	H	0.168949	0.714345	0.595903
	H10	H	0.840603	0.289201	0.595920
	H11	H	0.168820	0.287448	0.399944
	H12	H	0.840472	0.404242	0.710120
	H13	H	0.168581	0.598866	0.711326
	H14	H	0.840865	0.603956	0.280182
	H15	H	0.169236	0.404057	0.284631
	H16	H	0.403546	0.721024	0.833356
	H17	H	0.603987	0.713729	0.161827
	H18	H	0.604342	0.290883	0.831988
	H19	H	0.408605	0.286684	0.159774
	H20	H	0.722191	0.840336	0.398279
	H21	H	0.718990	0.167332	0.593818
	H22	H	0.293088	0.838476	0.596840
	H23	H	0.287665	0.166244	0.394603
	H24	H	0.907537	0.338862	0.212229
	H25	H	0.103054	0.666969	0.209700
	H26	H	0.104612	0.337697	0.784566
	H27	H	0.905058	0.666013	0.779749
	H28	H	0.218887	0.904437	0.332427
	H29	H	0.219450	0.099093	0.660594
	H30	H	0.790123	0.104804	0.332036
	H31	H	0.792238	0.902988	0.660194
	H32	H	0.343075	0.220815	0.893920
	H33	H	0.670554	0.213529	0.094143
	H34	H	0.342062	0.787259	0.098501
	H35	H	0.669165	0.787117	0.899167
	H36	H	0.341550	0.905796	0.211079
	H37	H	0.669629	0.099822	0.210886
	H38	H	0.341614	0.103733	0.781051
	H39	H	0.671011	0.905158	0.784836
	H40	H	0.904781	0.219638	0.333317
	H41	H	0.104373	0.214606	0.661306
	H42	H	0.104327	0.789156	0.332375
	H43	H	0.907716	0.786917	0.660083
	H44	H	0.223179	0.339129	0.898142
	H45	H	0.220445	0.666150	0.094973
	H46	H	0.793255	0.337895	0.096848
	H47	H	0.788792	0.665893	0.895448
	H48	H	0.409050	0.120395	0.586783
	H49	H	0.600230	0.883618	0.601432
	H50	H	0.609754	0.123490	0.403033
	H51	H	0.417522	0.887346	0.402546
	H52	H	0.598992	0.413011	0.112814
	H53	H	0.594149	0.593343	0.880920
	H54	H	0.419148	0.577800	0.106477
	H55	H	0.406407	0.408822	0.875647
	H56	H	0.121095	0.591784	0.402143
	H57	H	0.892343	0.592169	0.579875
	H58	H	0.120972	0.407493	0.588030
	H59	H	0.886671	0.407680	0.405221
	H60	H	0.122101	0.409692	0.592372
	H61	H	0.887244	0.590750	0.594466
	H62	H	0.122528	0.597468	0.401318
	H63	H	0.888146	0.413495	0.405002
	H64	H	0.425313	0.609358	0.114615
	H65	H	0.596732	0.600490	0.878160
	H66	H	0.595559	0.403237	0.113160
	H67	H	0.413376	0.420423	0.880916
	H68	H	0.590540	0.121738	0.391053
	H69	H	0.591616	0.889629	0.586790
	H70	H	0.411774	0.120259	0.589849
	H71	H	0.410433	0.886792	0.408878
	H72	H	0.912430	0.617206	0.082634
	H73	H	0.104573	0.385489	0.088188
	H74	H	0.089755	0.614254	0.910604
	H75	H	0.913048	0.382482	0.894366
	H76	H	0.101026	0.908228	0.614054
	H77	H	0.095587	0.091178	0.380336
	H78	H	0.904332	0.090516	0.615379
	H79	H	0.913388	0.906629	0.377025
	H80	H	0.626222	0.094863	0.890000
	H81	H	0.393817	0.089581	0.078533
	H82	H	0.627136	0.903027	0.099850
	H83	H	0.388922	0.910709	0.906172
	H84	H	0.621727	0.901678	0.080979
	H85	H	0.386234	0.091737	0.098294
	H86	H	0.625371	0.108263	0.906465
	H87	H	0.389956	0.913882	0.904391
	H88	H	0.919540	0.092595	0.611976
	H89	H	0.092374	0.100938	0.379186
	H90	H	0.098168	0.905999	0.614143
	H91	H	0.908443	0.917450	0.379056
	H92	H	0.107599	0.620759	0.905286
	H93	H	0.100602	0.385194	0.095305
	H94	H	0.907810	0.620407	0.087998
	H95	H	0.919766	0.390099	0.908394
	H96	H	0.412787	0.118645	0.585569
	H97	H	0.608896	0.885273	0.585363
	H98	H	0.590778	0.114932	0.412843
	H99	H	0.408705	0.883992	0.400326
	H100	H	0.604617	0.404711	0.116156
	H101	H	0.601155	0.593983	0.879017
	H102	H	0.395007	0.596502	0.120073
	H103	H	0.421036	0.408359	0.879041
	H104	H	0.120581	0.595742	0.407057
	H105	H	0.884768	0.603658	0.587084
	H106	H	0.123057	0.403635	0.591009
	H107	H	0.886815	0.411139	0.399390
	H108	H	0.914765	0.619348	0.089930
	H109	H	0.096604	0.387888	0.088380
	H110	H	0.092641	0.620902	0.891995
	H111	H	0.904647	0.383673	0.908321
	H112	H	0.101570	0.904922	0.615891
	H113	H	0.101702	0.098013	0.377075
	H114	H	0.911157	0.104568	0.616791
	H115	H	0.919940	0.914899	0.381752
	H116	H	0.619962	0.087789	0.908696
	H117	H	0.385884	0.107793	0.084184
	H118	H	0.619392	0.917808	0.090269
	H119	H	0.387813	0.911971	0.902376
	C120	C	0.383856	0.011244	0.617666
	C121	C	0.627564	0.994744	0.618224
	C122	C	0.626808	0.011855	0.374857
	C123	C	0.382558	0.994285	0.373926
	C124	C	0.627923	0.379898	0.005277
	C125	C	0.626456	0.623106	0.987983
	C126	C	0.383152	0.624857	0.005597
	C127	C	0.385452	0.382327	0.987267
	C128	C	0.013087	0.625539	0.373699
	C129	C	0.996284	0.623135	0.616712
	C130	C	0.013546	0.379740	0.619199
	C131	C	0.996080	0.381496	0.375481
	C132	C	0.884085	0.510714	0.117007
	C133	C	0.127981	0.494285	0.118446
	C134	C	0.126740	0.510614	0.874876
	C135	C	0.882803	0.493630	0.874042
	C136	C	0.127898	0.879399	0.505786
	C137	C	0.125488	0.123776	0.487958
	C138	C	0.882283	0.125763	0.506018
	C139	C	0.885424	0.882835	0.487738
	C140	C	0.515191	0.126145	0.872962
	C141	C	0.497373	0.123769	0.116170
	C142	C	0.514368	0.880257	0.119180
	C143	C	0.497391	0.882139	0.875592
	C144	C	0.387435	0.888213	0.674600
	C145	C	0.623418	0.118630	0.671440
	C146	C	0.625845	0.888329	0.321044
	C147	C	0.384335	0.117499	0.317429
	C148	C	0.682493	0.383503	0.881389
	C149	C	0.681773	0.618892	0.112230
	C150	C	0.327147	0.624488	0.881883
	C151	C	0.331015	0.382921	0.111349
	C152	C	0.890245	0.682822	0.374392
	C153	C	0.119858	0.676849	0.615348
	C154	C	0.889781	0.326148	0.616469
	C155	C	0.119716	0.325661	0.379024
	C156	C	0.889667	0.383868	0.673012
	C157	C	0.119691	0.619565	0.672941
	C158	C	0.890029	0.624455	0.317724
	C159	C	0.119995	0.383767	0.321722
	C160	C	0.383941	0.682188	0.882110
	C161	C	0.624264	0.676525	0.112391
	C162	C	0.625279	0.326857	0.881346
	C163	C	0.388202	0.325357	0.110906
	C164	C	0.683755	0.888981	0.377821
	C165	C	0.681653	0.118405	0.614524
	C166	C	0.330217	0.887724	0.616729
	C167	C	0.326303	0.117443	0.374829
	C168	C	0.887150	0.387667	0.173875
	C169	C	0.124178	0.617674	0.172595
	C170	C	0.124923	0.386936	0.821436
	C171	C	0.884875	0.616999	0.817921
	C172	C	0.181748	0.883543	0.381585
	C173	C	0.181346	0.119796	0.611660
	C174	C	0.827382	0.124498	0.381739
	C175	C	0.830268	0.883452	0.611356
	C176	C	0.391843	0.182239	0.874482
	C177	C	0.621155	0.176922	0.114142
	C178	C	0.391092	0.825220	0.117695
	C179	C	0.620584	0.825678	0.878450
	C180	C	0.390596	0.883992	0.173777
	C181	C	0.620723	0.120230	0.172228
	C182	C	0.391109	0.123983	0.818224
	C183	C	0.621472	0.884664	0.821795
	C184	C	0.884351	0.181698	0.382173
	C185	C	0.123929	0.177050	0.612083
	C186	C	0.124937	0.826030	0.381726
	C187	C	0.887313	0.825306	0.611158
	C188	C	0.184024	0.387701	0.877829
	C189	C	0.182689	0.617450	0.115723
	C190	C	0.830088	0.387301	0.116475
	C191	C	0.827032	0.616875	0.875401
	C192	C	0.404820	0.097367	0.594164
	C193	C	0.606562	0.908401	0.597230
	C194	C	0.603741	0.097961	0.395916
	C195	C	0.405379	0.908338	0.397143
	C196	C	0.606143	0.400746	0.091736
	C197	C	0.604151	0.602216	0.901728
	C198	C	0.406119	0.601337	0.091554
	C199	C	0.407140	0.405751	0.900940
	C200	C	0.099196	0.601867	0.396723
	C201	C	0.910340	0.601753	0.593923
	C202	C	0.099761	0.400822	0.597164
	C203	C	0.909451	0.404038	0.396990
	C204	C	0.905426	0.596857	0.093607
	C205	C	0.106804	0.408276	0.096833
	C206	C	0.103539	0.596566	0.896372
	C207	C	0.905640	0.407700	0.897121
	C208	C	0.106672	0.900258	0.592273
	C209	C	0.103142	0.102887	0.401429
	C210	C	0.904956	0.102612	0.592388
	C211	C	0.907583	0.906105	0.401502
	C212	C	0.601630	0.103627	0.895228
	C213	C	0.410974	0.102568	0.093629
	C214	C	0.600665	0.901486	0.096947
	C215	C	0.411155	0.905495	0.897711
	Zn216	Zn	0.505849	0.003738	0.746518
	Zn217	Zn	0.505469	0.002923	0.246037
	Zn218	Zn	0.754923	0.501438	-0.003321
	Zn219	Zn	0.256049	0.502551	-0.003409
	Zn220	Zn	0.005500	0.752995	0.496186
	Zn221	Zn	0.004376	0.252315	0.497346
	Zn222	Zn	0.004954	0.501776	0.745788
	Zn223	Zn	0.004837	0.503110	0.246423
	Zn224	Zn	0.504978	0.752396	-0.002819
	Zn225	Zn	0.506314	0.253189	-0.004100
	Zn226	Zn	0.756053	0.003837	0.496187
	Zn227	Zn	0.254214	0.002280	0.496512
	N228	N	0.420075	0.965964	0.675273
	N229	N	0.590804	0.040751	0.674068
	N230	N	0.590986	0.965722	0.319066
	N231	N	0.418641	0.039812	0.316700
	N232	N	0.684293	0.415844	0.959546
	N233	N	0.683297	0.586395	0.034087
	N234	N	0.326612	0.589532	0.959642
	N235	N	0.329313	0.417681	0.033594
	N236	N	0.968105	0.683743	0.408452
	N237	N	0.042300	0.679134	0.581044
	N238	N	0.967900	0.323308	0.583615
	N239	N	0.041572	0.324161	0.411675
	N240	N	0.967637	0.416379	0.674796
	N241	N	0.041797	0.586834	0.674020
	N242	N	0.967430	0.589443	0.317298
	N243	N	0.042001	0.417590	0.319393
	N244	N	0.418076	0.682656	0.959968
	N245	N	0.590483	0.679395	0.034218
	N246	N	0.592204	0.324388	0.959290
	N247	N	0.421133	0.324673	0.032703
	N248	N	0.684586	0.966833	0.410472
	N249	N	0.684185	0.040436	0.582006
	N250	N	0.327970	0.965242	0.581770
	N251	N	0.324876	0.039876	0.409144
	N252	N	0.920090	0.465485	0.174162
	N253	N	0.090835	0.540079	0.174717
	N254	N	0.090041	0.464367	0.819310
	N255	N	0.918824	0.539319	0.816838
	N256	N	0.184181	0.915668	0.459777
	N257	N	0.182603	0.087683	0.533394
	N258	N	0.825969	0.090565	0.459807
	N259	N	0.828969	0.918494	0.533814
	N260	N	0.469998	0.183844	0.907739
	N261	N	0.543332	0.179310	0.080081
	N262	N	0.469166	0.822486	0.084665
	N263	N	0.542378	0.824018	0.911154
	N264	N	0.468230	0.917317	0.174908
	N265	N	0.542774	0.087832	0.173570
	N266	N	0.468946	0.089957	0.817035
	N267	N	0.543662	0.918853	0.819807
	N268	N	0.917962	0.182626	0.460324
	N269	N	0.089987	0.179757	0.534113
	N270	N	0.092343	0.823325	0.459901
	N271	N	0.920871	0.825022	0.533300
	N272	N	0.185258	0.465599	0.910399
	N273	N	0.185183	0.539858	0.082875
	N274	N	0.828071	0.464753	0.081687
	N275	N	0.825575	0.539116	0.909548
	O276	O	0.049089	0.072390	0.089182
	H277	H	0.053716	0.076514	0.104500
	H278	H	0.053798	0.064845	0.089504
	O279	O	0.461045	0.487883	0.494141
	H280	H	0.456993	0.486528	0.488219
	H281	H	0.459392	0.486359	0.492896
	O282	O	0.509566	0.592736	0.491999
	H283	H	0.506390	0.594579	0.489354
	H284	H	0.502485	0.597386	0.481821
	O285	O	1.009577	-0.062403	1.027937
	H286	H	1.013138	-0.065948	1.030701
	H287	H	1.016921	-0.079096	1.019169
	O288	O	1.036445	-0.001487	0.005022
	H289	H	1.037984	0.002324	0.000288
	H290	H	1.038780	0.003381	-0.002678
	O291	O	0.515265	0.534594	0.424715
	H292	H	0.525557	0.551716	0.426157
	H293	H	0.518788	0.531422	0.434694
	O294	O	0.966742	0.085914	0.917307
	H295	H	0.960900	0.098733	0.914602
	H296	H	0.959669	0.071815	0.904459
	O297	O	-0.014274	0.001963	-0.015390
	H298	H	-0.021561	0.003379	-0.009246
	H299	H	-0.019283	-0.006926	-0.008130
	O300	O	0.422352	0.508191	0.544328
	H301	H	0.421295	0.513349	0.548302
	H302	H	0.413783	0.510559	0.546034
	O303	O	0.530736	0.494330	0.483601
	H304	H	0.534476	0.502718	0.483397
	H305	H	0.536508	0.485986	0.472078
	O306	O	1.022475	-0.027893	0.014097
	H307	H	1.019097	-0.027169	0.020488
	H308	H	1.026392	-0.029532	0.016653
	O309	O	0.034763	0.022761	1.055825
	H310	H	0.033661	0.016841	1.056891
	H311	H	0.034049	0.029943	1.047069
	O312	O	1.002342	1.022921	1.030440
	H313	H	1.000245	1.039187	1.017279
	H314	H	1.006052	1.014754	1.038835
	O315	O	0.509123	0.461554	0.521359
	H316	H	0.517527	0.451118	0.525242
	H317	H	0.503334	0.470649	0.515096
	O318	O	0.475929	0.589975	0.484291
	H319	H	0.471775	0.592070	0.481359
	H320	H	0.471953	0.592499	0.477074
	O321	O	0.008058	1.078642	0.965554
	H322	H	-0.000998	1.080502	0.965529
	H323	H	0.003754	1.090001	0.962895
	O324	O	0.530633	0.521562	0.399529
	H325	H	0.529229	0.518882	0.390053
	H326	H	0.526273	0.525807	0.399757
	O327	O	0.515608	0.514721	0.559184
	H328	H	0.513901	0.511002	0.552908
	H329	H	0.513289	0.525105	0.566463
	O330	O	0.487565	0.581082	0.457004
	H331	H	0.489893	0.577411	0.465476
	H332	H	0.485183	0.582232	0.462027
	O333	O	0.536312	0.451909	0.530908
	H334	H	0.539876	0.443274	0.536569
	H335	H	0.520548	0.453882	0.535788
	O336	O	0.397303	0.470910	0.517829
	H337	H	0.394886	0.469469	0.510845
	H338	H	0.392062	0.471979	0.523008
	O339	O	0.951672	1.003300	-0.009375
	H340	H	0.957004	1.008028	-0.002617
	H341	H	0.940279	1.000429	-0.007544
	O342	O	0.505589	0.511626	0.495878
	H343	H	0.497349	0.523489	0.500662
	H344	H	0.493149	0.510130	0.508650
	O345	O	0.509969	0.486955	0.532072
	H346	H	0.507795	0.481035	0.528256
	H347	H	0.518379	0.486044	0.538403
	O348	O	0.002304	-0.096963	-0.065180
	H349	H	-0.002986	-0.087727	-0.063078
	H350	H	0.016711	-0.104524	-0.067436
	O351	O	-0.016784	1.013730	1.026195
	H352	H	-0.018086	1.017277	1.036461
	H353	H	-0.024082	1.014060	1.026564
	O354	O	0.505224	0.557240	0.562993
	H355	H	0.512363	0.549329	0.562566
	H356	H	0.504924	0.550869	0.551538
	O357	O	0.077852	1.027295	0.961267
	H358	H	0.067350	1.025279	0.952730
	H359	H	0.076030	1.033750	0.967821
