data_Molecule from HDF5

_cell_length_a		16.557053
_cell_length_b		16.520348
_cell_length_c		16.548189
_cell_angle_alpha	90.023068
_cell_angle_beta	89.952559
_cell_angle_gamma	90.022404
_symmetry_space_group_name_H-M	'P 1'
_symmetry_Int_Tables_number		1

loop_
	_symmetry_equiv_pos_as_xyz
	x,y,z

loop_
	_atom_site_label
	_atom_site_type_symbol
	_atom_site_fract_x
	_atom_site_fract_y
	_atom_site_fract_z
	H0	H	0.402172	0.827945	0.739959
	H1	H	0.610770	0.142440	0.744326
	H2	H	0.609634	0.829959	0.301481
	H3	H	0.396852	0.141738	0.296346
	H4	H	0.727135	0.381218	0.866080
	H5	H	0.723204	0.589418	0.179272
	H6	H	0.282838	0.591632	0.864538
	H7	H	0.282624	0.381045	0.178377
	H8	H	0.848196	0.708577	0.417469
	H9	H	0.163342	0.706638	0.625402
	H10	H	0.847485	0.268265	0.624967
	H11	H	0.162828	0.267488	0.418260
	H12	H	0.846667	0.386587	0.739722
	H13	H	0.161940	0.592345	0.743733
	H14	H	0.847148	0.589742	0.302604
	H15	H	0.161495	0.381984	0.300303
	H16	H	0.399623	0.707384	0.864075
	H17	H	0.606848	0.705921	0.178617
	H18	H	0.611961	0.263600	0.865460
	H19	H	0.399404	0.265368	0.178957
	H20	H	0.725001	0.829810	0.418394
	H21	H	0.725163	0.144048	0.626815
	H22	H	0.285195	0.828582	0.624871
	H23	H	0.282558	0.143442	0.414013
	H24	H	0.896170	0.331292	0.246178
	H25	H	0.109790	0.642204	0.244307
	H26	H	0.109060	0.330143	0.800140
	H27	H	0.896486	0.643401	0.799076
	H28	H	0.224363	0.884372	0.365467
	H29	H	0.228297	0.093813	0.678311
	H30	H	0.783117	0.093453	0.366290
	H31	H	0.782502	0.881899	0.679185
	H32	H	0.348486	0.209347	0.914401
	H33	H	0.660709	0.207853	0.126374
	H34	H	0.346515	0.767956	0.123860
	H35	H	0.662425	0.765830	0.918511
	H36	H	0.348396	0.881538	0.243084
	H37	H	0.661134	0.091751	0.242699
	H38	H	0.348006	0.091310	0.799075
	H39	H	0.663067	0.881364	0.801246
	H40	H	0.900599	0.209043	0.366319
	H41	H	0.109182	0.207900	0.679981
	H42	H	0.107251	0.768744	0.365101
	H43	H	0.898035	0.765015	0.679362
	H44	H	0.227781	0.331107	0.912807
	H45	H	0.225999	0.642882	0.127197
	H46	H	0.780215	0.331409	0.130149
	H47	H	0.781461	0.643433	0.916694
	H48	H	0.424973	0.095927	0.610295
	H49	H	0.591535	0.877316	0.604039
	H50	H	0.593941	0.100717	0.430577
	H51	H	0.422431	0.877848	0.434650
	H52	H	0.587814	0.404432	0.129058
	H53	H	0.593692	0.578880	0.907444
	H54	H	0.410663	0.585453	0.137593
	H55	H	0.414843	0.394253	0.907980
	H56	H	0.117034	0.568782	0.424564
	H57	H	0.893834	0.577837	0.609685
	H58	H	0.115731	0.393923	0.601411
	H59	H	0.890877	0.396320	0.430293
	H60	H	0.115659	0.408899	0.614621
	H61	H	0.893584	0.574098	0.612513
	H62	H	0.121121	0.586477	0.432394
	H63	H	0.893813	0.395956	0.437721
	H64	H	0.408887	0.567385	0.133194
	H65	H	0.597402	0.574652	0.908420
	H66	H	0.587821	0.389730	0.135275
	H67	H	0.413006	0.401623	0.910633
	H68	H	0.591618	0.098591	0.433721
	H69	H	0.602598	0.870936	0.610694
	H70	H	0.411295	0.098438	0.603244
	H71	H	0.411620	0.875378	0.439142
	H72	H	0.913221	0.598866	0.109137
	H73	H	0.092316	0.375350	0.107003
	H74	H	0.092125	0.598678	0.934583
	H75	H	0.920672	0.374280	0.924670
	H76	H	0.096361	0.895245	0.636611
	H77	H	0.095574	0.074073	0.411013
	H78	H	0.921014	0.081669	0.634715
	H79	H	0.912902	0.895385	0.408973
	H80	H	0.616163	0.071150	0.928537
	H81	H	0.393152	0.071228	0.111376
	H82	H	0.617551	0.898710	0.115010
	H83	H	0.392120	0.894713	0.929906
	H84	H	0.618749	0.891797	0.111226
	H85	H	0.391828	0.075742	0.111036
	H86	H	0.617788	0.079897	0.932866
	H87	H	0.393050	0.896118	0.931989
	H88	H	0.908698	0.077204	0.637186
	H89	H	0.092516	0.078675	0.410070
	H90	H	0.095714	0.902155	0.634491
	H91	H	0.914242	0.903414	0.412123
	H92	H	0.094354	0.599427	0.934827
	H93	H	0.095067	0.373758	0.111117
	H94	H	0.914985	0.599567	0.114198
	H95	H	0.919055	0.378832	0.940134
	H96	H	0.413416	0.101977	0.617990
	H97	H	0.590084	0.872817	0.617651
	H98	H	0.595630	0.099798	0.434756
	H99	H	0.413865	0.872634	0.427812
	H100	H	0.600603	0.398822	0.136208
	H101	H	0.591868	0.574508	0.910449
	H102	H	0.424648	0.575998	0.130428
	H103	H	0.420203	0.399311	0.912065
	H104	H	0.111645	0.572890	0.442736
	H105	H	0.891155	0.578777	0.613757
	H106	H	0.122111	0.390699	0.619839
	H107	H	0.894519	0.402049	0.433311
	H108	H	0.918196	0.597735	0.110587
	H109	H	0.089817	0.374319	0.111499
	H110	H	0.093205	0.598909	0.932269
	H111	H	0.906540	0.371866	0.932052
	H112	H	0.089810	0.898124	0.634580
	H113	H	0.097909	0.078270	0.408022
	H114	H	0.918006	0.069051	0.631386
	H115	H	0.920841	0.897673	0.411908
	H116	H	0.612887	0.072103	0.937787
	H117	H	0.393704	0.073671	0.107133
	H118	H	0.615246	0.897813	0.107406
	H119	H	0.392460	0.897822	0.930190
	C120	C	0.384175	-0.005336	0.642429
	C121	C	0.626721	0.977770	0.643020
	C122	C	0.626157	-0.004286	0.400988
	C123	C	0.383607	0.978678	0.400647
	C124	C	0.625559	0.364993	0.030241
	C125	C	0.625704	0.607738	1.012758
	C126	C	0.382597	0.608176	0.029870
	C127	C	0.382955	0.365482	1.013580
	C128	C	0.013275	0.608232	0.400919
	C129	C	0.996623	0.608988	0.644116
	C130	C	0.013319	0.366531	0.643433
	C131	C	0.996361	0.365623	0.400993
	C132	C	0.882663	0.495309	0.144115
	C133	C	0.125360	0.477671	0.142824
	C134	C	0.125916	0.495786	0.900612
	C135	C	0.883084	0.479018	0.900944
	C136	C	0.125395	0.867104	0.531259
	C137	C	0.127260	0.109064	0.513890
	C138	C	0.883794	0.108325	0.531052
	C139	C	0.883185	0.865837	0.514446
	C140	C	0.512362	0.107397	0.900185
	C141	C	0.496057	0.106693	0.142399
	C142	C	0.513397	0.864524	0.143054
	C143	C	0.496622	0.864456	0.899724
	C144	C	0.382843	0.875654	0.700970
	C145	C	0.628857	0.095836	0.703640
	C146	C	0.628020	0.877237	0.341534
	C147	C	0.380017	0.095543	0.338205
	C148	C	0.686797	0.362582	0.912941
	C149	C	0.684236	0.609077	0.131708
	C150	C	0.322622	0.610204	0.911902
	C151	C	0.322854	0.362952	0.131620
	C152	C	0.894978	0.668020	0.399052
	C153	C	0.115430	0.667881	0.644980
	C154	C	0.894772	0.308185	0.644090
	C155	C	0.115088	0.306622	0.399215
	C156	C	0.894181	0.366975	0.700994
	C157	C	0.114921	0.610763	0.703633
	C158	C	0.894651	0.609569	0.341681
	C159	C	0.114534	0.363493	0.340489
	C160	C	0.380740	0.667831	0.911634
	C161	C	0.626580	0.666891	0.131399
	C162	C	0.629236	0.304216	0.912609
	C163	C	0.380933	0.305340	0.131677
	C164	C	0.685728	0.877331	0.399383
	C165	C	0.685776	0.096591	0.645262
	C166	C	0.324591	0.876147	0.643731
	C167	C	0.322685	0.096124	0.396600
	C168	C	0.878920	0.378158	0.205538
	C169	C	0.128028	0.595526	0.203807
	C170	C	0.127882	0.377444	0.840135
	C171	C	0.879395	0.596666	0.840181
	C172	C	0.184400	0.865694	0.412474
	C173	C	0.187686	0.111808	0.631653
	C174	C	0.823126	0.111655	0.413433
	C175	C	0.822781	0.863417	0.632352
	C176	C	0.395087	0.168341	0.896763
	C177	C	0.613709	0.167558	0.144604
	C178	C	0.394302	0.806659	0.143327
	C179	C	0.615278	0.805178	0.898849
	C180	C	0.395250	0.862990	0.202773
	C181	C	0.614114	0.109671	0.202352
	C182	C	0.394914	0.109632	0.839465
	C183	C	0.615548	0.862600	0.840803
	C184	C	0.881567	0.169034	0.413356
	C185	C	0.128718	0.168600	0.632295
	C186	C	0.126389	0.808147	0.412347
	C187	C	0.880575	0.805517	0.632263
	C188	C	0.186706	0.377740	0.896547
	C189	C	0.185568	0.595708	0.145543
	C190	C	0.821283	0.378113	0.147586
	C191	C	0.822094	0.596710	0.898695
	C192	C	0.409344	0.077260	0.617850
	C193	C	0.601821	0.895304	0.617876
	C194	C	0.601063	0.078164	0.425767
	C195	C	0.408917	0.896766	0.426384
	C196	C	0.599465	0.390396	0.112060
	C197	C	0.601382	0.583004	0.930181
	C198	C	0.407504	0.583211	0.112282
	C199	C	0.408528	0.391104	0.931674
	C200	C	0.095188	0.583193	0.426000
	C201	C	0.914362	0.584124	0.619312
	C202	C	0.096179	0.390796	0.619007
	C203	C	0.914482	0.390811	0.426480
	C204	C	0.908271	0.577484	0.118519
	C205	C	0.099674	0.395686	0.117164
	C206	C	0.100602	0.577472	0.926503
	C207	C	0.908376	0.396539	0.925407
	C208	C	0.101080	0.891542	0.613657
	C209	C	0.102393	0.084239	0.431258
	C210	C	0.908828	0.083081	0.613195
	C211	C	0.908793	0.891452	0.432303
	C212	C	0.594371	0.081764	0.925810
	C213	C	0.414262	0.080781	0.117137
	C214	C	0.595856	0.889001	0.118351
	C215	C	0.414111	0.888997	0.923837
	Zn216	Zn	0.505280	-0.014623	0.771136
	Zn217	Zn	0.504940	-0.013729	0.271812
	Zn218	Zn	0.754573	0.486650	0.022655
	Zn219	Zn	0.253848	0.486147	0.021707
	Zn220	Zn	0.004688	0.737401	0.522355
	Zn221	Zn	0.005248	0.237169	0.522617
	Zn222	Zn	0.004863	0.487762	0.772683
	Zn223	Zn	0.004399	0.486890	0.272201
	Zn224	Zn	0.504774	0.736186	0.021186
	Zn225	Zn	0.503806	0.236089	0.021656
	Zn226	Zn	0.754916	-0.012852	0.522194
	Zn227	Zn	0.255002	-0.012797	0.522045
	N228	N	0.419088	0.950472	0.700441
	N229	N	0.592793	0.020906	0.702511
	N230	N	0.591747	0.951906	0.342225
	N231	N	0.417436	0.021410	0.340728
	N232	N	0.684844	0.399410	0.987239
	N233	N	0.683860	0.573055	0.056951
	N234	N	0.323687	0.573900	0.986547
	N235	N	0.323647	0.399210	0.057054
	N236	N	0.969792	0.667486	0.434957
	N237	N	0.040746	0.667103	0.608828
	N238	N	0.969953	0.307798	0.609192
	N239	N	0.040636	0.307405	0.435854
	N240	N	0.969290	0.402377	0.700964
	N241	N	0.039874	0.575389	0.703624
	N242	N	0.969132	0.573095	0.342577
	N243	N	0.039559	0.399150	0.341049
	N244	N	0.417276	0.666971	0.986151
	N245	N	0.591070	0.666229	0.056440
	N246	N	0.591897	0.305530	0.986669
	N247	N	0.417412	0.306428	0.057028
	N248	N	0.684812	0.952211	0.435513
	N249	N	0.684517	0.022233	0.608425
	N250	N	0.325131	0.951300	0.608172
	N251	N	0.325008	0.022627	0.434979
	N252	N	0.916574	0.452078	0.203346
	N253	N	0.091343	0.520988	0.202341
	N254	N	0.090681	0.451643	0.842359
	N255	N	0.916797	0.522533	0.841454
	N256	N	0.184290	0.901248	0.487443
	N257	N	0.187166	0.075918	0.556794
	N258	N	0.824404	0.074638	0.487693
	N259	N	0.824224	0.900113	0.558026
	N260	N	0.469289	0.167097	0.933570
	N261	N	0.539188	0.165888	0.108158
	N262	N	0.468868	0.807408	0.106999
	N263	N	0.540452	0.806157	0.934663
	N264	N	0.470490	0.897975	0.202962
	N265	N	0.539822	0.072563	0.201299
	N266	N	0.469188	0.072732	0.841070
	N267	N	0.540656	0.898563	0.841015
	N268	N	0.918853	0.166951	0.487370
	N269	N	0.092085	0.167111	0.557766
	N270	N	0.090602	0.808540	0.487140
	N271	N	0.917363	0.806849	0.557657
	N272	N	0.185488	0.452212	0.933594
	N273	N	0.184036	0.521521	0.108425
	N274	N	0.823656	0.452091	0.109872
	N275	N	0.824247	0.522374	0.935801
	O276	O	0.825665	1.054625	0.096023
	H277	H	0.836787	1.053285	0.083108
	H278	H	0.823191	1.063169	0.080003
	O279	O	0.714208	0.531989	0.485074
	H280	H	0.719138	0.527946	0.495106
	H281	H	0.707207	0.554531	0.499504
	O282	O	0.981824	-0.055597	-0.141193
	H283	H	0.972566	-0.065267	-0.137174
	H284	H	0.991040	-0.045830	-0.161153
	O285	O	-0.060138	1.097805	0.189850
	H286	H	-0.067344	1.081174	0.185112
	H287	H	-0.059838	1.088466	0.189914
	O288	O	0.803752	0.196347	0.811289
	H289	H	0.831087	0.202235	0.799862
	H290	H	0.809260	0.218023	0.794583
	O291	O	0.446607	0.484349	0.549402
	H292	H	0.459718	0.493882	0.532103
	H293	H	0.448548	0.487383	0.555355
	O294	O	0.192394	-0.202060	0.210278
	H295	H	0.171715	-0.185362	0.196655
	H296	H	0.186186	-0.185831	0.204609
	O297	O	0.649624	0.432523	0.489662
	H298	H	0.642250	0.431075	0.486383
	H299	H	0.637791	0.420757	0.481525
	O300	O	0.101164	0.045532	0.019647
	H301	H	0.096280	0.049493	0.029986
	H302	H	0.099430	0.053818	0.019548
	O303	O	0.034279	-0.234876	-0.202178
	H304	H	0.050109	-0.255155	-0.218338
	H305	H	0.016182	-0.244541	-0.199600
	O306	O	0.670725	0.664145	-0.624125
	H307	H	0.661891	0.664409	-0.606638
	H308	H	0.659880	0.650390	-0.610573
	O309	O	1.223141	0.206148	0.040991
	H310	H	1.227555	0.210194	0.066203
	H311	H	1.235095	0.223967	0.054633
	O312	O	0.441525	0.595428	0.520255
	H313	H	0.438838	0.587567	0.531028
	H314	H	0.435490	0.599250	0.514163
	O315	O	0.574032	0.417280	0.724314
	H316	H	0.565391	0.411597	0.711574
	H317	H	0.558830	0.398313	0.735607
	O318	O	0.865459	0.845973	0.071207
	H319	H	0.848055	0.834269	0.066181
	H320	H	0.868877	0.852493	0.067933
	O321	O	0.077708	0.921748	0.880178
	H322	H	0.068261	0.909546	0.872206
	H323	H	0.073833	0.932663	0.900538
	O324	O	0.936390	0.066944	0.943585
	H325	H	0.937006	0.070873	0.941660
	H326	H	0.938724	0.059788	0.945296
	O327	O	0.317221	0.348106	0.538524
	H328	H	0.321740	0.329468	0.536160
	H329	H	0.316317	0.333078	0.518655
	O330	O	-0.304286	1.291590	0.326156
	H331	H	-0.295226	1.336077	0.326989
	H332	H	-0.277904	1.272784	0.324956
	O333	O	0.485142	0.355221	0.365797
	H334	H	0.497851	0.338355	0.336291
	H335	H	0.503692	0.364639	0.370163
	O336	O	-0.022796	0.773876	0.236702
	H337	H	-0.041721	0.755809	0.247046
	H338	H	-0.051072	0.773594	0.240858
	O339	O	-0.042022	0.906493	-0.000669
	H340	H	-0.034810	0.908716	0.004315
	H341	H	-0.048103	0.912465	0.013283
	O342	O	-0.124299	0.777238	-0.008976
	H343	H	-0.122576	0.788682	-0.024586
	H344	H	-0.125968	0.777705	-0.014932
	O345	O	0.581303	0.560611	0.319700
	H346	H	0.578157	0.557114	0.319899
	H347	H	0.572419	0.576188	0.328233
	O348	O	0.688554	0.281849	0.506721
	H349	H	0.684064	0.275377	0.507731
	H350	H	0.687398	0.278865	0.495631
	O351	O	0.217706	-0.220174	0.807666
	H352	H	0.194450	-0.205954	0.807478
	H353	H	0.224828	-0.214704	0.828187
	O354	O	1.232998	0.010296	0.974766
	H355	H	1.235076	0.027646	0.971152
	H356	H	1.237302	0.009478	0.965170
	O357	O	0.001273	0.889838	0.130572
	H358	H	-0.001172	0.880774	0.142680
	H359	H	-0.011239	0.896012	0.126907
	O360	O	0.295024	0.429054	0.622193
	H361	H	0.281893	0.430151	0.621791
	H362	H	0.298171	0.435309	0.627631
	O363	O	0.690499	0.340190	0.683548
	H364	H	0.667259	0.352395	0.683641
	H365	H	0.686563	0.352604	0.659281
	O366	O	0.899167	0.125105	1.068569
	H367	H	0.895431	0.124851	1.058725
	H368	H	0.889568	0.127681	1.056553
	O369	O	-0.000933	-0.227127	1.022459
	H370	H	-0.009018	-0.218869	1.017789
	H371	H	-0.000423	-0.227127	1.035942
	O372	O	0.075829	1.087662	1.016387
	H373	H	0.071685	1.081138	1.012817
	H374	H	0.069446	1.091731	1.023843
	O375	O	0.719928	0.696757	-0.450077
	H376	H	0.702587	0.692661	-0.418665
	H377	H	0.739659	0.723646	-0.447333
	O378	O	0.422707	0.489860	0.711430
	H379	H	0.415473	0.499175	0.712602
	H380	H	0.426842	0.480817	0.702024
	O381	O	0.115750	1.066562	-0.154966
	H382	H	0.117286	1.070529	-0.141731
	H383	H	0.111157	1.048533	-0.153932
	O384	O	1.108110	0.966967	0.143261
	H385	H	1.108452	0.958535	0.141530
	H386	H	1.110478	0.959320	0.128230
	O387	O	-0.039545	0.930570	1.057266
	H388	H	-0.027020	0.931877	1.059712
	H389	H	-0.044061	0.923327	1.054760
	O390	O	-0.056608	0.946845	1.089584
	H391	H	-0.065668	0.932625	1.093168
	H392	H	-0.057567	0.942595	1.096037
	O393	O	1.208331	0.182101	0.218622
	H394	H	1.212441	0.159298	0.214436
	H395	H	1.166472	0.191170	0.230113
	O396	O	0.534860	0.294567	0.586022
	H397	H	0.530191	0.288774	0.604134
	H398	H	0.530522	0.302736	0.591573
	O399	O	0.402259	0.543492	0.670891
	H400	H	0.407243	0.559983	0.673466
	H401	H	0.390693	0.552529	0.679522
	O402	O	1.525948	0.638487	1.528541
	H403	H	1.521230	0.637724	1.505552
	H404	H	1.514825	0.647052	1.551381
	O405	O	0.704712	0.512970	0.725359
	H406	H	0.696982	0.489034	0.718303
	H407	H	0.698945	0.500717	0.737092
	O408	O	0.790034	0.200435	-0.010615
	H409	H	0.780927	0.211504	-0.032381
	H410	H	0.781385	0.201383	-0.031098
	O411	O	0.855718	0.954654	0.021793
	H412	H	0.863913	0.953031	0.028773
	H413	H	0.852453	0.951796	0.027557
	O414	O	-0.090681	0.020824	-0.066892
	H415	H	-0.096642	0.015365	-0.056802
	H416	H	-0.078516	0.014770	-0.065833
	O417	O	0.476299	0.264517	0.742096
	H418	H	0.465140	0.233282	0.771359
	H419	H	0.431896	0.269666	0.737104
	O420	O	1.470636	-0.740920	0.393026
	H421	H	1.501608	-0.740719	0.381265
	H422	H	1.497803	-0.751536	0.392057
	O423	O	1.064557	1.147219	0.011354
	H424	H	1.089935	1.144425	0.024415
	H425	H	1.042657	1.134215	0.020902
	O426	O	0.701717	0.455851	0.318550
	H427	H	0.695491	0.472026	0.328074
	H428	H	0.712724	0.468317	0.317377
	O429	O	0.300802	0.377910	0.438655
	H430	H	0.305933	0.370736	0.442765
	H431	H	0.302785	0.374882	0.437675
	O432	O	1.314296	0.578754	1.546066
	H433	H	1.318653	0.585103	1.531270
	H434	H	1.302255	0.588384	1.540786
	O435	O	0.041593	0.205738	0.240279
	H436	H	0.021770	0.208632	0.231889
	H437	H	0.031864	0.228409	0.258940
	O438	O	0.311130	0.290454	0.696303
	H439	H	0.299589	0.308677	0.681514
	H440	H	0.297696	0.304923	0.681334
	O441	O	0.475210	0.706711	0.302693
	H442	H	0.467279	0.739750	0.272452
	H443	H	0.431712	0.696280	0.314977
	O444	O	0.547263	0.700772	0.736781
	H445	H	0.552758	0.721387	0.764078
	H446	H	0.563992	0.693004	0.728624
	O447	O	0.297650	0.694487	0.315108
	H448	H	0.290685	0.653880	0.322188
	H449	H	0.272307	0.709083	0.288639
	O450	O	0.969296	0.197040	-0.185433
	H451	H	0.985587	0.193985	-0.189333
	H452	H	0.990791	0.203504	-0.174776
	O453	O	0.518426	0.525106	0.524928
	H454	H	0.513967	0.507983	0.522080
	H455	H	0.510561	0.543180	0.525073
	O456	O	-0.188353	1.027959	0.827168
	H457	H	-0.185460	1.067085	0.833282
	H458	H	-0.204201	1.024651	0.800775
	O459	O	0.439625	0.402533	0.365270
	H460	H	0.467114	0.382136	0.354524
	H461	H	0.435909	0.395839	0.364363
	O462	O	0.320562	0.523186	0.321814
	H463	H	0.317395	0.503344	0.323701
	H464	H	0.316145	0.504722	0.317995
	O465	O	0.346112	0.682667	0.511613
	H466	H	0.352148	0.687640	0.485586
	H467	H	0.331764	0.695256	0.517437
	O468	O	0.797960	1.778629	0.232005
	H469	H	0.771065	1.759575	0.256892
	H470	H	0.785718	1.771859	0.195440
	O471	O	0.681656	0.677679	0.711445
	H472	H	0.682247	0.659741	0.708168
	H473	H	0.683145	0.660473	0.723007
	O474	O	1.212767	0.998701	0.221914
	H475	H	1.209673	1.007398	0.231895
	H476	H	1.215947	0.995061	0.208209
	O477	O	0.211950	-0.226374	0.997504
	H478	H	0.221272	-0.244844	0.998685
	H479	H	0.205324	-0.229923	0.993659
