data_Molecule from HDF5

_cell_length_a		16.515839
_cell_length_b		16.643644
_cell_length_c		16.770089
_cell_angle_alpha	89.953598
_cell_angle_beta	90.031579
_cell_angle_gamma	90.015330
_symmetry_space_group_name_H-M	'P 1'
_symmetry_Int_Tables_number		1

loop_
	_symmetry_equiv_pos_as_xyz
	x,y,z

loop_
	_atom_site_label
	_atom_site_type_symbol
	_atom_site_fract_x
	_atom_site_fract_y
	_atom_site_fract_z
	H0	H	0.398438	0.843864	0.719380
	H1	H	0.615469	0.151635	0.721981
	H2	H	0.612307	0.844979	0.274726
	H3	H	0.394904	0.150093	0.270848
	H4	H	0.729845	0.391778	0.844969
	H5	H	0.726817	0.604478	0.152065
	H6	H	0.284830	0.602084	0.841549
	H7	H	0.282045	0.390581	0.150227
	H8	H	0.848326	0.719034	0.393631
	H9	H	0.164345	0.715463	0.597374
	H10	H	0.849381	0.279454	0.601244
	H11	H	0.161127	0.278404	0.392483
	H12	H	0.849887	0.394209	0.717400
	H13	H	0.163379	0.602482	0.716050
	H14	H	0.852076	0.609324	0.272174
	H15	H	0.162294	0.396030	0.278457
	H16	H	0.400302	0.718537	0.841182
	H17	H	0.610331	0.720062	0.151066
	H18	H	0.616412	0.272971	0.846085
	H19	H	0.394307	0.271798	0.148191
	H20	H	0.725260	0.843425	0.394727
	H21	H	0.729815	0.152619	0.604032
	H22	H	0.284211	0.843143	0.601094
	H23	H	0.284102	0.152458	0.391350
	H24	H	0.895386	0.346037	0.224303
	H25	H	0.112052	0.653980	0.217826
	H26	H	0.110667	0.343624	0.776248
	H27	H	0.898310	0.653005	0.775293
	H28	H	0.228129	0.893011	0.344127
	H29	H	0.231215	0.108322	0.648920
	H30	H	0.782260	0.106286	0.344165
	H31	H	0.782574	0.893057	0.650388
	H32	H	0.351479	0.220814	0.892242
	H33	H	0.659935	0.223306	0.107515
	H34	H	0.349771	0.778894	0.099148
	H35	H	0.661620	0.776338	0.890320
	H36	H	0.350751	0.892298	0.217444
	H37	H	0.659488	0.109240	0.223076
	H38	H	0.350786	0.105044	0.775539
	H39	H	0.661462	0.891639	0.775044
	H40	H	0.896990	0.224778	0.344918
	H41	H	0.115181	0.225236	0.648968
	H42	H	0.111870	0.776767	0.344439
	H43	H	0.897521	0.774784	0.649881
	H44	H	0.224556	0.342750	0.894740
	H45	H	0.224960	0.655227	0.099262
	H46	H	0.781509	0.345283	0.106788
	H47	H	0.786147	0.654006	0.894934
	H48	H	0.418320	0.111653	0.591862
	H49	H	0.596211	0.885504	0.587910
	H50	H	0.595683	0.111001	0.409933
	H51	H	0.422085	0.888277	0.407399
	H52	H	0.593709	0.412605	0.107096
	H53	H	0.595660	0.588497	0.885798
	H54	H	0.412500	0.593580	0.108970
	H55	H	0.421064	0.404734	0.885861
	H56	H	0.118244	0.586515	0.405925
	H57	H	0.892789	0.590980	0.583591
	H58	H	0.119274	0.410543	0.587407
	H59	H	0.896277	0.415101	0.417515
	H60	H	0.118218	0.411247	0.585413
	H61	H	0.894803	0.583753	0.587115
	H62	H	0.119455	0.591326	0.406328
	H63	H	0.894896	0.419199	0.406186
	H64	H	0.413906	0.584925	0.106711
	H65	H	0.596094	0.587041	0.886310
	H66	H	0.590103	0.411520	0.106656
	H67	H	0.412594	0.411970	0.886299
	H68	H	0.592711	0.110869	0.405076
	H69	H	0.589580	0.887942	0.588401
	H70	H	0.424223	0.107184	0.585029
	H71	H	0.416648	0.887739	0.410998
	H72	H	0.915677	0.610832	0.088839
	H73	H	0.088631	0.389651	0.084869
	H74	H	0.102809	0.612710	0.908303
	H75	H	0.916340	0.385381	0.904104
	H76	H	0.093621	0.908973	0.608313
	H77	H	0.086636	0.086629	0.389786
	H78	H	0.915914	0.090445	0.608970
	H79	H	0.914900	0.911653	0.387223
	H80	H	0.617893	0.088279	0.912206
	H81	H	0.395312	0.082377	0.086251
	H82	H	0.619877	0.908122	0.085598
	H83	H	0.393480	0.908381	0.908249
	H84	H	0.618557	0.911281	0.084015
	H85	H	0.394156	0.086925	0.082689
	H86	H	0.615658	0.080249	0.910322
	H87	H	0.393881	0.910395	0.906710
	H88	H	0.917469	0.083995	0.605661
	H89	H	0.095302	0.093822	0.384902
	H90	H	0.095431	0.907648	0.608467
	H91	H	0.919223	0.911375	0.388537
	H92	H	0.093588	0.613797	0.898173
	H93	H	0.100512	0.385345	0.085618
	H94	H	0.924133	0.607909	0.087016
	H95	H	0.923504	0.388890	0.907577
	H96	H	0.414435	0.109626	0.583021
	H97	H	0.593448	0.889355	0.582671
	H98	H	0.590332	0.109201	0.409857
	H99	H	0.416505	0.884886	0.404807
	H100	H	0.593226	0.408568	0.107716
	H101	H	0.594950	0.587502	0.887326
	H102	H	0.420638	0.590923	0.106103
	H103	H	0.422200	0.414761	0.890393
	H104	H	0.116298	0.589191	0.409949
	H105	H	0.890635	0.589384	0.591356
	H106	H	0.118459	0.412705	0.586845
	H107	H	0.891429	0.408201	0.408657
	H108	H	0.917714	0.607169	0.080767
	H109	H	0.093303	0.385278	0.095749
	H110	H	0.090098	0.607693	0.910344
	H111	H	0.915775	0.387806	0.912290
	H112	H	0.095298	0.910032	0.608501
	H113	H	0.098162	0.082345	0.387820
	H114	H	0.922796	0.088752	0.605819
	H115	H	0.917251	0.907744	0.385770
	H116	H	0.619662	0.084670	0.904824
	H117	H	0.397510	0.081993	0.080563
	H118	H	0.619250	0.911349	0.087775
	H119	H	0.392683	0.908213	0.905940
	C120	C	0.385280	0.007131	0.618570
	C121	C	0.626926	0.989795	0.619052
	C122	C	0.626083	0.007726	0.375991
	C123	C	0.384488	0.988896	0.375012
	C124	C	0.627012	0.377170	0.006365
	C125	C	0.627307	0.620010	0.988720
	C126	C	0.383354	0.620863	0.005064
	C127	C	0.384661	0.377178	0.988722
	C128	C	0.014666	0.621644	0.375371
	C129	C	0.997294	0.619300	0.617838
	C130	C	0.015014	0.378597	0.618226
	C131	C	0.997084	0.380552	0.378108
	C132	C	0.884876	0.507236	0.119870
	C133	C	0.126648	0.489990	0.118977
	C134	C	0.126813	0.507691	0.875349
	C135	C	0.885468	0.489902	0.876549
	C136	C	0.126962	0.877252	0.506327
	C137	C	0.127443	0.121119	0.488475
	C138	C	0.884468	0.121180	0.505789
	C139	C	0.883921	0.877302	0.488626
	C140	C	0.515099	0.118554	0.876149
	C141	C	0.497292	0.119022	0.118113
	C142	C	0.515386	0.877850	0.117093
	C143	C	0.496666	0.876788	0.875021
	C144	C	0.381145	0.890326	0.678714
	C145	C	0.632387	0.105585	0.680988
	C146	C	0.630018	0.891137	0.315641
	C147	C	0.379221	0.104476	0.312992
	C148	C	0.689634	0.373426	0.891305
	C149	C	0.686683	0.622122	0.105339
	C150	C	0.324537	0.620989	0.888208
	C151	C	0.322543	0.373342	0.103799
	C152	C	0.896146	0.680302	0.374279
	C153	C	0.116586	0.676892	0.617312
	C154	C	0.896734	0.318879	0.620005
	C155	C	0.114658	0.319410	0.375026
	C156	C	0.896893	0.376063	0.677547
	C157	C	0.116038	0.620872	0.676278
	C158	C	0.897742	0.625466	0.314278
	C159	C	0.115250	0.377715	0.318322
	C160	C	0.382078	0.679076	0.888153
	C161	C	0.629003	0.680195	0.104770
	C162	C	0.632780	0.314526	0.891787
	C163	C	0.378835	0.314056	0.102943
	C164	C	0.685861	0.890445	0.375261
	C165	C	0.688919	0.106188	0.622214
	C166	C	0.324292	0.890036	0.620127
	C167	C	0.323737	0.105564	0.372558
	C168	C	0.879134	0.392041	0.182777
	C169	C	0.129468	0.607376	0.177759
	C170	C	0.128877	0.390272	0.816265
	C171	C	0.881446	0.606460	0.816071
	C172	C	0.187134	0.875130	0.390259
	C173	C	0.190020	0.125383	0.603322
	C174	C	0.822772	0.124228	0.390271
	C175	C	0.823044	0.874818	0.604328
	C176	C	0.398028	0.180165	0.873274
	C177	C	0.613248	0.182215	0.123830
	C178	C	0.397174	0.818011	0.118717
	C179	C	0.614587	0.816352	0.872249
	C180	C	0.397625	0.874560	0.177080
	C181	C	0.613038	0.125373	0.181586
	C182	C	0.397831	0.122910	0.815535
	C183	C	0.614356	0.873649	0.814835
	C184	C	0.879727	0.183172	0.390639
	C185	C	0.132314	0.183539	0.603180
	C186	C	0.129666	0.816992	0.390512
	C187	C	0.880133	0.816163	0.604131
	C188	C	0.185104	0.389513	0.875369
	C189	C	0.185676	0.607742	0.118663
	C190	C	0.822168	0.391638	0.124466
	C191	C	0.825442	0.606991	0.875460
	C192	C	0.411507	0.088420	0.593573
	C193	C	0.600625	0.908769	0.593459
	C194	C	0.600226	0.089192	0.401074
	C195	C	0.410872	0.907979	0.400568
	C196	C	0.600091	0.403452	0.086303
	C197	C	0.602511	0.594828	0.907561
	C198	C	0.408549	0.596705	0.086138
	C199	C	0.410995	0.403267	0.908448
	C200	C	0.096762	0.596149	0.400360
	C201	C	0.914335	0.595069	0.594278
	C202	C	0.097153	0.403994	0.593607
	C203	C	0.915452	0.406798	0.403466
	C204	C	0.911907	0.587529	0.093166
	C205	C	0.101276	0.408118	0.095488
	C206	C	0.102504	0.589845	0.898774
	C207	C	0.911218	0.408459	0.901020
	C208	C	0.101946	0.901983	0.587345
	C209	C	0.100836	0.095140	0.408349
	C210	C	0.911110	0.095096	0.585973
	C211	C	0.909865	0.902934	0.408143
	C212	C	0.596738	0.092129	0.901919
	C213	C	0.416619	0.091584	0.090890
	C214	C	0.597610	0.902920	0.092526
	C215	C	0.414597	0.901888	0.900114
	Zn216	Zn	0.506035	-0.001826	0.747660
	Zn217	Zn	0.505742	-0.001741	0.246260
	Zn218	Zn	0.756813	0.498504	-0.001470
	Zn219	Zn	0.254922	0.498126	-0.003245
	Zn220	Zn	0.005442	0.748024	0.497480
	Zn221	Zn	0.005743	0.250880	0.497074
	Zn222	Zn	0.006117	0.499092	0.746789
	Zn223	Zn	0.005487	0.499542	0.248310
	Zn224	Zn	0.506046	0.749290	-0.003746
	Zn225	Zn	0.506126	0.247155	-0.002592
	Zn226	Zn	0.755010	-0.000825	0.497114
	Zn227	Zn	0.256432	-0.001185	0.496915
	N228	N	0.418114	0.964168	0.678169
	N229	N	0.594481	0.032239	0.679103
	N230	N	0.593837	0.965274	0.315808
	N231	N	0.416382	0.030818	0.314254
	N232	N	0.686324	0.411729	0.963613
	N233	N	0.686107	0.585527	0.031943
	N234	N	0.324965	0.585416	0.961956
	N235	N	0.326223	0.412252	0.031753
	N236	N	0.970054	0.678117	0.411478
	N237	N	0.041505	0.676495	0.581995
	N238	N	0.971331	0.320042	0.584001
	N239	N	0.040191	0.320988	0.411195
	N240	N	0.971672	0.412171	0.677103
	N241	N	0.040690	0.585976	0.676850
	N242	N	0.972561	0.589601	0.314706
	N243	N	0.041088	0.414956	0.319674
	N244	N	0.418155	0.679224	0.961838
	N245	N	0.592688	0.678940	0.031242
	N246	N	0.594659	0.316523	0.964243
	N247	N	0.417220	0.316304	0.030561
	N248	N	0.683936	0.964165	0.411792
	N249	N	0.685681	0.033204	0.584246
	N250	N	0.326600	0.963831	0.583406
	N251	N	0.326932	0.032710	0.410525
	N252	N	0.917235	0.465209	0.180335
	N253	N	0.093339	0.533014	0.178361
	N254	N	0.093515	0.464887	0.815880
	N255	N	0.917769	0.532357	0.816177
	N256	N	0.185802	0.911931	0.463366
	N257	N	0.187176	0.087152	0.530938
	N258	N	0.825395	0.086436	0.462928
	N259	N	0.825335	0.912249	0.531597
	N260	N	0.472262	0.177850	0.910084
	N261	N	0.540195	0.178488	0.085001
	N262	N	0.471584	0.819513	0.082326
	N263	N	0.540126	0.817745	0.908798
	N264	N	0.472334	0.910863	0.176670
	N265	N	0.539732	0.086721	0.178483
	N266	N	0.471766	0.085302	0.817215
	N267	N	0.539968	0.910447	0.816262
	N268	N	0.917375	0.181567	0.463488
	N269	N	0.093847	0.181063	0.530780
	N270	N	0.092926	0.818039	0.463785
	N271	N	0.917317	0.817284	0.531101
	N272	N	0.184148	0.463587	0.911194
	N273	N	0.184296	0.533640	0.082991
	N274	N	0.825636	0.464293	0.085886
	N275	N	0.827487	0.533298	0.912298
	O276	O	-0.097488	0.832497	-0.080066
	H277	H	-0.127483	0.823432	-0.086400
	H278	H	-0.092117	0.826800	-0.055980
	O279	O	0.207945	0.213555	0.213663
	H280	H	0.174725	0.209066	0.203795
	H281	H	0.208249	0.183192	0.187022
	O282	O	0.976430	0.221390	0.778280
	H283	H	0.985823	0.223328	0.754852
	H284	H	0.992165	0.215575	0.770702
	O285	O	0.559413	0.434621	0.728636
	H286	H	0.577198	0.427676	0.727408
	H287	H	0.574014	0.422823	0.729003
	O288	O	0.366616	0.683837	0.607847
	H289	H	0.370379	0.667437	0.608176
	H290	H	0.363190	0.685834	0.620682
	O291	O	0.287508	0.509659	0.560736
	H292	H	0.290275	0.502990	0.540049
	H293	H	0.283249	0.514446	0.551702
	O294	O	0.783479	0.223026	0.978701
	H295	H	0.767035	0.242077	0.966592
	H296	H	0.781461	0.220488	0.951598
	O297	O	0.475237	0.710701	0.280294
	H298	H	0.459516	0.700165	0.281630
	H299	H	0.485151	0.716444	0.254746
	O300	O	-0.016835	0.124710	0.928435
	H301	H	-0.004438	0.128526	0.920873
	H302	H	0.001675	0.122631	0.916720
	O303	O	0.718814	0.709209	0.534994
	H304	H	0.724274	0.693143	0.525007
	H305	H	0.732687	0.726279	0.521008
	O306	O	0.633887	0.448549	0.512577
	H307	H	0.639946	0.444543	0.490361
	H308	H	0.648103	0.430862	0.514204
	O309	O	0.391202	0.544271	0.628221
	H310	H	0.381361	0.556917	0.635456
	H311	H	0.396932	0.538685	0.627714
	O312	O	0.533953	0.715786	0.710847
	H313	H	0.519282	0.720317	0.726687
	H314	H	0.526864	0.705274	0.714914
	O315	O	0.840358	0.954621	0.939780
	H316	H	0.845588	0.941949	0.958846
	H317	H	0.841282	0.958549	0.952416
	O318	O	0.630886	0.626178	0.294709
	H319	H	0.623152	0.600681	0.293951
	H320	H	0.625738	0.608532	0.310707
	O321	O	0.214943	0.786367	0.781779
	H322	H	0.209398	0.786853	0.819472
	H323	H	0.193664	0.782498	0.779389
	O324	O	0.986266	0.781824	0.219797
	H325	H	0.978304	0.756146	0.238777
	H326	H	0.958067	0.793881	0.222799
	O327	O	0.090355	0.218092	0.904359
	H328	H	0.095563	0.225730	0.903279
	H329	H	0.084479	0.211595	0.878374
	O330	O	0.710273	0.323747	0.511052
	H331	H	0.690632	0.324840	0.510226
	H332	H	0.727153	0.307047	0.497586
	O333	O	0.483211	0.275325	0.720359
	H334	H	0.480313	0.261684	0.736934
	H335	H	0.492567	0.275088	0.723835
	O336	O	0.467753	0.265264	0.429274
	H337	H	0.454518	0.268330	0.428258
	H338	H	0.449738	0.265360	0.427931
	O339	O	0.969981	-0.052751	0.847539
	H340	H	0.972955	-0.063308	0.848761
	H341	H	0.978028	-0.062893	0.857168
	O342	O	-0.043795	0.068527	0.236563
	H343	H	-0.036523	0.055868	0.235307
	H344	H	-0.060311	0.065456	0.237030
	O345	O	0.227773	0.864928	0.944069
	H346	H	0.212955	0.880707	0.962124
	H347	H	0.252473	0.844111	0.945803
	O348	O	0.187426	0.088523	0.085230
	H349	H	0.169917	0.083761	0.077062
	H350	H	0.188385	0.092516	0.052398
	O351	O	0.617084	0.714406	0.389685
	H352	H	0.598320	0.705983	0.394407
	H353	H	0.606026	0.702531	0.391495
	O354	O	0.176531	-0.006978	1.059656
	H355	H	0.185290	0.013927	1.070464
	H356	H	0.166998	0.014106	1.048847
	O357	O	0.444596	0.525995	0.452042
	H358	H	0.444203	0.527116	0.458066
	H359	H	0.448601	0.524289	0.461119
	O360	O	0.333007	0.302203	0.668314
	H361	H	0.342756	0.328143	0.661583
	H362	H	0.351383	0.304759	0.651295
	O363	O	-0.063174	0.224330	0.029899
	H364	H	-0.061629	0.227958	0.021766
	H365	H	-0.059302	0.224389	0.035418
	O366	O	0.621194	0.535510	0.523800
	H367	H	0.619965	0.518538	0.524381
	H368	H	0.625584	0.534641	0.528355
	O369	O	0.706977	0.298886	0.301088
	H370	H	0.683415	0.295354	0.291276
	H371	H	0.693147	0.303847	0.317271
	O372	O	0.785040	0.779021	0.026799
	H373	H	0.797634	0.781550	0.061600
	H374	H	0.756111	0.749415	0.041568
	O375	O	0.823238	-0.068637	0.190469
	H376	H	0.803585	-0.051015	0.189897
	H377	H	0.814820	-0.054840	0.192020
	O378	O	0.318457	0.305842	0.306334
	H379	H	0.321781	0.311255	0.297489
	H380	H	0.297427	0.281410	0.292483
	O381	O	0.040433	0.775656	0.765217
	H382	H	0.024729	0.767316	0.778405
	H383	H	0.047301	0.754229	0.746555
	O384	O	0.867457	-0.029699	0.776366
	H385	H	0.885999	-0.056210	0.767973
	H386	H	0.844290	-0.030355	0.779143
	O387	O	1.102398	0.873538	-0.064031
	H388	H	1.114779	0.850308	-0.055885
	H389	H	1.082018	0.865928	-0.054401
	O390	O	0.526685	0.279992	0.278212
	H391	H	0.512766	0.283222	0.287073
	H392	H	0.526108	0.266934	0.256211
	O393	O	0.376820	0.491354	0.544918
	H394	H	0.382997	0.492230	0.541272
	H395	H	0.371695	0.488972	0.527335
	O396	O	0.227378	0.972287	0.767302
	H397	H	0.240980	0.957703	0.750752
	H398	H	0.227693	0.950163	0.753038
	O399	O	0.077948	0.052716	0.807607
	H400	H	0.090898	0.052724	0.811188
	H401	H	0.075029	0.042444	0.806986
	O402	O	0.621918	0.502501	0.390078
	H403	H	0.622867	0.505299	0.390103
	H404	H	0.615655	0.495902	0.397041
	O405	O	0.816701	0.052793	0.853090
	H406	H	0.837076	0.046367	0.868522
	H407	H	0.796403	0.040118	0.828102
	O408	O	0.211112	0.176122	-0.015922
	H409	H	0.195286	0.185809	-0.030188
	H410	H	0.214084	0.148128	-0.024318
	O411	O	0.704899	0.706926	0.701692
	H412	H	0.712146	0.697705	0.659215
	H413	H	0.652531	0.707775	0.706934
	O414	O	0.694038	0.324914	0.689834
	H415	H	0.688681	0.321053	0.660791
	H416	H	0.723992	0.295252	0.711802
	O417	O	0.689852	0.456475	0.544866
	H418	H	0.692487	0.458602	0.562136
	H419	H	0.688542	0.441447	0.559684
	O420	O	0.376746	0.447085	0.335719
	H421	H	0.368191	0.450660	0.322763
	H422	H	0.364219	0.439218	0.340999
	O423	O	-0.030165	0.102826	1.114094
	H424	H	-0.039600	0.110757	1.122224
	H425	H	-0.043936	0.115172	1.108803
	O426	O	0.297675	0.692809	0.470280
	H427	H	0.284525	0.704111	0.478958
	H428	H	0.309431	0.689215	0.479083
	O429	O	0.815757	0.804212	0.799305
	H430	H	0.787408	0.782275	0.782156
	H431	H	0.800746	0.824861	0.813893
	O432	O	0.479998	0.688515	0.509923
	H433	H	0.490842	0.682615	0.524319
	H434	H	0.484598	0.690195	0.509565
	O435	O	0.198958	0.806424	0.199115
	H436	H	0.185362	0.821562	0.178302
	H437	H	0.217622	0.796893	0.204625
	O438	O	0.057430	-0.058924	0.230793
	H439	H	0.069968	-0.053751	0.224888
	H440	H	0.052349	-0.080616	0.235042
	O441	O	0.034235	0.217286	0.217512
	H442	H	0.035757	0.228811	0.228234
	H443	H	0.026523	0.205260	0.233257
	O444	O	0.299610	0.291391	0.510541
	H445	H	0.294052	0.301297	0.513007
	H446	H	0.286396	0.288431	0.510415
	O447	O	0.162913	1.015490	0.875874
	H448	H	0.183757	0.992711	0.851374
	H449	H	0.143090	0.994638	0.873838
	O450	O	0.070177	0.784580	1.014065
	H451	H	0.070973	0.801775	1.025196
	H452	H	0.053140	0.778928	0.999281
	O453	O	0.292667	0.466215	0.716358
	H454	H	0.288357	0.472772	0.709003
	H455	H	0.286847	0.467385	0.726838
	O456	O	0.219182	0.218272	0.778131
	H457	H	0.217635	0.223317	0.799496
	H458	H	0.250481	0.235616	0.745190
	O459	O	0.791283	0.785997	0.211811
	H460	H	0.761445	0.758890	0.244475
	H461	H	0.793272	0.830858	0.218135
	O462	O	0.727512	0.480314	0.280797
	H463	H	0.738673	0.468402	0.269837
	H464	H	0.735845	0.455941	0.277375
	O465	O	0.808023	0.102422	0.192479
	H466	H	0.817084	0.100052	0.178475
	H467	H	0.808451	0.106277	0.189199
	O468	O	0.291424	0.533777	0.274407
	H469	H	0.271642	0.532695	0.247593
	H470	H	0.294135	0.560847	0.282931
	O471	O	0.467249	0.492308	0.484585
	H472	H	0.471425	0.490416	0.479302
	H473	H	0.473741	0.490758	0.482039
	O474	O	0.306384	0.703691	0.288319
	H475	H	0.315163	0.719439	0.286713
	H476	H	0.306081	0.690583	0.318962
	O477	O	0.503191	0.521985	1.275547
	H478	H	0.503114	0.515658	1.276859
	H479	H	0.490029	0.512560	1.272518
	O480	O	0.553493	0.269646	0.557787
	H481	H	0.544245	0.273436	0.553967
	H482	H	0.550282	0.263919	0.568300
	O483	O	0.718163	0.539914	0.717694
	H484	H	0.739040	0.536702	0.731057
	H485	H	0.721415	0.562113	0.726611
	O486	O	0.793090	0.216205	0.773465
	H487	H	0.826767	0.210156	0.778347
	H488	H	0.799720	0.181105	0.785906
	O489	O	0.982930	0.887196	0.066010
	H490	H	0.983490	0.892869	0.074242
	H491	H	0.967117	0.885379	0.064226
	O492	O	0.221578	0.023203	0.215617
	H493	H	0.217166	0.033756	0.209281
	H494	H	0.238327	0.019691	0.226819
	O495	O	-0.028616	0.866945	1.027348
	H496	H	-0.025322	0.856839	1.043074
	H497	H	-0.032647	0.885813	1.039072
	O498	O	0.778521	1.049236	1.064954
	H499	H	0.788005	1.053976	1.052803
	H500	H	0.777392	1.064789	1.047322
	O501	O	0.537879	0.596543	0.601985
	H502	H	0.533038	0.581654	0.608576
	H503	H	0.539012	0.600930	0.610536
