data_Molecule from HDF5

_cell_length_a		16.338764
_cell_length_b		16.091795
_cell_length_c		16.354302
_cell_angle_alpha	90.244037
_cell_angle_beta	90.049346
_cell_angle_gamma	89.729760
_symmetry_space_group_name_H-M	'P 1'
_symmetry_Int_Tables_number		1

loop_
	_symmetry_equiv_pos_as_xyz
	x,y,z

loop_
	_atom_site_label
	_atom_site_type_symbol
	_atom_site_fract_x
	_atom_site_fract_y
	_atom_site_fract_z
	H0	H	0.408403	0.826195	0.724687
	H1	H	0.608073	0.154751	0.722961
	H2	H	0.611577	0.824757	0.290623
	H3	H	0.407732	0.154545	0.292445
	H4	H	0.727183	0.386438	0.845520
	H5	H	0.726317	0.591758	0.169474
	H6	H	0.288734	0.591930	0.846172
	H7	H	0.290383	0.387674	0.168823
	H8	H	0.845490	0.704081	0.410046
	H9	H	0.171177	0.701829	0.607701
	H10	H	0.843321	0.275458	0.604712
	H11	H	0.169439	0.270425	0.407751
	H12	H	0.846444	0.385678	0.726238
	H13	H	0.168710	0.590872	0.726384
	H14	H	0.846180	0.591476	0.291370
	H15	H	0.169630	0.383678	0.289130
	H16	H	0.409268	0.703722	0.844531
	H17	H	0.605500	0.703448	0.171124
	H18	H	0.607836	0.273595	0.844659
	H19	H	0.412238	0.277822	0.171714
	H20	H	0.724869	0.824468	0.407063
	H21	H	0.721917	0.154779	0.607167
	H22	H	0.294367	0.824427	0.609735
	H23	H	0.289911	0.152928	0.406713
	H24	H	0.906975	0.324559	0.223037
	H25	H	0.108741	0.652722	0.225733
	H26	H	0.110721	0.324451	0.789968
	H27	H	0.906137	0.653220	0.791222
	H28	H	0.229109	0.881663	0.347622
	H29	H	0.226248	0.093304	0.669538
	H30	H	0.790640	0.089555	0.345866
	H31	H	0.789598	0.886516	0.669242
	H32	H	0.345685	0.206398	0.909264
	H33	H	0.673118	0.201073	0.104336
	H34	H	0.345091	0.777286	0.104994
	H35	H	0.670397	0.771235	0.905686
	H36	H	0.348113	0.886166	0.226392
	H37	H	0.670761	0.091189	0.225684
	H38	H	0.346849	0.094365	0.789771
	H39	H	0.670364	0.887245	0.789630
	H40	H	0.907140	0.201869	0.345261
	H41	H	0.105344	0.205175	0.670321
	H42	H	0.107848	0.770395	0.345584
	H43	H	0.911318	0.775083	0.671527
	H44	H	0.226152	0.324446	0.905659
	H45	H	0.222190	0.654384	0.108762
	H46	H	0.794861	0.324203	0.105965
	H47	H	0.791926	0.652919	0.906864
	H48	H	0.413704	0.107468	0.599029
	H49	H	0.596421	0.873031	0.601349
	H50	H	0.599313	0.104082	0.421771
	H51	H	0.415276	0.874822	0.426407
	H52	H	0.604120	0.399420	0.122690
	H53	H	0.605361	0.576480	0.892377
	H54	H	0.411255	0.583745	0.124467
	H55	H	0.412391	0.399583	0.892080
	H56	H	0.123841	0.575677	0.414245
	H57	H	0.893276	0.576193	0.599018
	H58	H	0.123513	0.396306	0.605604
	H59	H	0.891487	0.394510	0.415217
	H60	H	0.122701	0.391835	0.594124
	H61	H	0.890644	0.581612	0.604672
	H62	H	0.124199	0.578818	0.414621
	H63	H	0.891974	0.399346	0.412361
	H64	H	0.414578	0.577770	0.121785
	H65	H	0.597334	0.577753	0.894277
	H66	H	0.601283	0.396466	0.123530
	H67	H	0.419604	0.401341	0.894470
	H68	H	0.604751	0.108905	0.414609
	H69	H	0.600177	0.873331	0.594570
	H70	H	0.418214	0.106907	0.600130
	H71	H	0.413332	0.867911	0.408577
	H72	H	0.919112	0.606581	0.102817
	H73	H	0.099894	0.372918	0.094337
	H74	H	0.094141	0.602466	0.922188
	H75	H	0.910979	0.371662	0.922932
	H76	H	0.109624	0.892097	0.627426
	H77	H	0.100087	0.068068	0.396321
	H78	H	0.920373	0.077502	0.620832
	H79	H	0.911297	0.902395	0.394256
	H80	H	0.621712	0.067038	0.906582
	H81	H	0.391258	0.090800	0.100188
	H82	H	0.628262	0.886144	0.101487
	H83	H	0.390114	0.889156	0.913212
	H84	H	0.620847	0.900731	0.089465
	H85	H	0.395934	0.077174	0.095029
	H86	H	0.630280	0.092266	0.907779
	H87	H	0.396893	0.902136	0.924333
	H88	H	0.914377	0.089028	0.626093
	H89	H	0.093013	0.081943	0.393957
	H90	H	0.103431	0.905587	0.620388
	H91	H	0.922944	0.896126	0.394820
	H92	H	0.104511	0.607106	0.918183
	H93	H	0.103228	0.371315	0.099495
	H94	H	0.918216	0.604708	0.097046
	H95	H	0.916942	0.368565	0.906938
	H96	H	0.417561	0.105343	0.596251
	H97	H	0.604433	0.871031	0.600545
	H98	H	0.594996	0.106380	0.413081
	H99	H	0.429324	0.875623	0.414280
	H100	H	0.605345	0.396023	0.123862
	H101	H	0.601188	0.583432	0.890686
	H102	H	0.418567	0.584687	0.122994
	H103	H	0.418068	0.393968	0.891601
	H104	H	0.122495	0.577029	0.416826
	H105	H	0.892270	0.584603	0.597352
	H106	H	0.120115	0.403164	0.596691
	H107	H	0.890448	0.395000	0.409927
	H108	H	0.913208	0.607525	0.100546
	H109	H	0.097531	0.372028	0.099500
	H110	H	0.095458	0.606493	0.910312
	H111	H	0.927325	0.376350	0.918848
	H112	H	0.094246	0.892520	0.622402
	H113	H	0.107447	0.080254	0.389711
	H114	H	0.907132	0.076870	0.624774
	H115	H	0.911907	0.889783	0.389028
	H116	H	0.619421	0.079925	0.929178
	H117	H	0.392404	0.079117	0.109288
	H118	H	0.625114	0.905616	0.109039
	H119	H	0.393106	0.906106	0.906843
	C120	C	0.387729	-0.001777	0.628838
	C121	C	0.629303	0.981226	0.628563
	C122	C	0.630064	-0.002361	0.386395
	C123	C	0.388227	0.981250	0.386733
	C124	C	0.632209	0.367065	0.015901
	C125	C	0.630410	0.610380	0.999450
	C126	C	0.385186	0.611851	0.016145
	C127	C	0.387443	0.368670	0.999683
	C128	C	0.016723	0.608949	0.386210
	C129	C	0.999277	0.610207	0.630001
	C130	C	0.015280	0.367236	0.628332
	C131	C	0.998582	0.365187	0.383488
	C132	C	0.887592	0.497539	0.128782
	C133	C	0.129142	0.480632	0.128502
	C134	C	0.129244	0.496769	0.886357
	C135	C	0.887531	0.480407	0.886285
	C136	C	0.131796	0.865309	0.516527
	C137	C	0.129310	0.109164	0.500059
	C138	C	0.885209	0.110025	0.516510
	C139	C	0.886452	0.866736	0.499953
	C140	C	0.516992	0.111275	0.885312
	C141	C	0.500769	0.110997	0.130033
	C142	C	0.517386	0.868119	0.129254
	C143	C	0.500164	0.867666	0.884426
	C144	C	0.389041	0.874756	0.685980
	C145	C	0.627761	0.105331	0.685015
	C146	C	0.630318	0.873950	0.329424
	C147	C	0.388236	0.104880	0.330614
	C148	C	0.688736	0.367246	0.894156
	C149	C	0.687377	0.610604	0.121211
	C150	C	0.327964	0.611179	0.894285
	C151	C	0.330000	0.368945	0.121067
	C152	C	0.894182	0.665975	0.389142
	C153	C	0.121974	0.664811	0.628061
	C154	C	0.892579	0.312240	0.625778
	C155	C	0.120894	0.308257	0.386481
	C156	C	0.894054	0.367128	0.686181
	C157	C	0.120895	0.609742	0.687366
	C158	C	0.894513	0.609851	0.330179
	C159	C	0.120710	0.364734	0.327507
	C160	C	0.387784	0.666776	0.893489
	C161	C	0.627215	0.666172	0.122094
	C162	C	0.629033	0.311113	0.893581
	C163	C	0.390810	0.314556	0.122666
	C164	C	0.686950	0.873819	0.387222
	C165	C	0.684753	0.105162	0.627640
	C166	C	0.332192	0.874001	0.628799
	C167	C	0.329695	0.104131	0.387468
	C168	C	0.888008	0.373691	0.184650
	C169	C	0.128062	0.603870	0.186425
	C170	C	0.129511	0.373344	0.829017
	C171	C	0.887074	0.603779	0.829254
	C172	C	0.189587	0.863558	0.395612
	C173	C	0.186618	0.111090	0.621391
	C174	C	0.829070	0.108855	0.394294
	C175	C	0.829166	0.867681	0.621356
	C176	C	0.394626	0.168559	0.888122
	C177	C	0.623831	0.164779	0.126226
	C178	C	0.394484	0.813569	0.126390
	C179	C	0.622001	0.809923	0.885906
	C180	C	0.396011	0.868056	0.186680
	C181	C	0.622718	0.109954	0.186478
	C182	C	0.395009	0.112488	0.828931
	C183	C	0.621877	0.867594	0.827961
	C184	C	0.887104	0.164962	0.394031
	C185	C	0.126280	0.166771	0.621782
	C186	C	0.129207	0.808158	0.394412
	C187	C	0.889571	0.811961	0.622541
	C188	C	0.186767	0.373347	0.886742
	C189	C	0.184713	0.604572	0.128393
	C190	C	0.832054	0.373538	0.126494
	C191	C	0.830280	0.603841	0.886973
	C192	C	0.409969	0.084285	0.605382
	C193	C	0.606889	0.894787	0.605453
	C194	C	0.606544	0.084083	0.409796
	C195	C	0.412371	0.894990	0.409756
	C196	C	0.610040	0.390383	0.101317
	C197	C	0.607794	0.586342	0.914406
	C198	C	0.408068	0.588876	0.101012
	C199	C	0.410027	0.391508	0.914605
	C200	C	0.101462	0.584460	0.408666
	C201	C	0.914199	0.587491	0.607076
	C202	C	0.100174	0.390369	0.605534
	C203	C	0.913230	0.389249	0.405840
	C204	C	0.910106	0.583809	0.106652
	C205	C	0.106654	0.394312	0.104845
	C206	C	0.105088	0.582890	0.909938
	C207	C	0.911426	0.394340	0.909507
	C208	C	0.109130	0.889733	0.601462
	C209	C	0.106643	0.084058	0.415338
	C210	C	0.907516	0.087667	0.601588
	C211	C	0.908885	0.889419	0.414840
	C212	C	0.601716	0.086777	0.907931
	C213	C	0.415471	0.088940	0.107882
	C214	C	0.602611	0.890897	0.106429
	C215	C	0.415469	0.891835	0.907911
	Zn216	Zn	0.508387	-0.009996	0.756088
	Zn217	Zn	0.509505	-0.010877	0.258351
	Zn218	Zn	0.760484	0.489296	0.007905
	Zn219	Zn	0.257488	0.489012	0.007568
	Zn220	Zn	0.008848	0.737317	0.508456
	Zn221	Zn	0.006286	0.238024	0.506918
	Zn222	Zn	0.008024	0.488710	0.758161
	Zn223	Zn	0.008108	0.488242	0.256636
	Zn224	Zn	0.507919	0.739253	0.007629
	Zn225	Zn	0.508890	0.239393	0.007985
	Zn226	Zn	0.757140	-0.010593	0.507626
	Zn227	Zn	0.259734	-0.011892	0.508291
	N228	N	0.422670	0.952988	0.686153
	N229	N	0.594134	0.027053	0.685668
	N230	N	0.595965	0.952103	0.328726
	N231	N	0.423796	0.027276	0.330151
	N232	N	0.690672	0.401342	0.971403
	N233	N	0.689331	0.576615	0.043831
	N234	N	0.326305	0.577697	0.971503
	N235	N	0.327951	0.401884	0.043667
	N236	N	0.971092	0.665434	0.423363
	N237	N	0.045309	0.665262	0.593305
	N238	N	0.968962	0.312160	0.590429
	N239	N	0.043939	0.308362	0.420489
	N240	N	0.971440	0.400560	0.688208
	N241	N	0.043598	0.576490	0.688806
	N242	N	0.971544	0.574850	0.328360
	N243	N	0.043474	0.398916	0.325237
	N244	N	0.422437	0.667472	0.970193
	N245	N	0.592580	0.666308	0.045403
	N246	N	0.594849	0.310795	0.970289
	N247	N	0.425885	0.314167	0.046215
	N248	N	0.686872	0.951903	0.422036
	N249	N	0.685804	0.027089	0.593097
	N250	N	0.331114	0.951677	0.593870
	N251	N	0.329397	0.026060	0.421395
	N252	N	0.921646	0.451841	0.186339
	N253	N	0.094170	0.525705	0.186620
	N254	N	0.094529	0.451244	0.828680
	N255	N	0.922060	0.526017	0.828851
	N256	N	0.191203	0.898330	0.472603
	N257	N	0.188747	0.075935	0.544584
	N258	N	0.827802	0.075370	0.471391
	N259	N	0.826861	0.900848	0.543955
	N260	N	0.471377	0.167882	0.922695
	N261	N	0.546922	0.165691	0.091755
	N262	N	0.470930	0.813502	0.091170
	N263	N	0.545214	0.809696	0.920414
	N264	N	0.473555	0.900918	0.188816
	N265	N	0.545096	0.077244	0.188931
	N266	N	0.472021	0.077782	0.826883
	N267	N	0.545188	0.902678	0.827033
	N268	N	0.921628	0.165650	0.470810
	N269	N	0.091709	0.165932	0.545101
	N270	N	0.093976	0.809139	0.470738
	N271	N	0.924451	0.811339	0.546171
	N272	N	0.186655	0.451272	0.921661
	N273	N	0.185402	0.526911	0.093047
	N274	N	0.831718	0.451563	0.092419
	N275	N	0.830142	0.526128	0.921500
	O276	O	1.138140	-0.025261	1.093605
	H277	H	1.142837	-0.023575	1.102707
	H278	H	1.123113	-0.021711	1.091899
	O279	O	-0.023917	0.947964	0.088306
	H280	H	-0.032583	0.956352	0.091949
	H281	H	-0.026570	0.947683	0.086047
	O282	O	0.459685	0.468211	0.643364
	H283	H	0.460642	0.463989	0.646690
	H284	H	0.461737	0.456514	0.646385
	O285	O	0.453651	0.393835	0.600677
	H286	H	0.448179	0.393753	0.593996
	H287	H	0.449106	0.400145	0.608365
	O288	O	0.581055	0.543875	0.560403
	H289	H	0.573721	0.549602	0.563156
	H290	H	0.592938	0.550082	0.556200
	O291	O	0.072964	-0.039691	0.969296
	H292	H	0.061692	-0.048953	0.970386
	H293	H	0.078289	-0.046828	0.969444
	O294	O	0.527935	1.612958	0.603038
	H295	H	0.527066	1.618417	0.605790
	H296	H	0.531846	1.618427	0.597194
	O297	O	0.852685	0.974940	-0.006767
	H298	H	0.846232	0.971519	-0.009093
	H299	H	0.856875	0.954845	0.003379
	O300	O	0.506785	0.422915	0.370951
	H301	H	0.496807	0.435639	0.362301
	H302	H	0.499530	0.406955	0.367353
	O303	O	0.452339	0.595247	0.430744
	H304	H	0.457410	0.586091	0.425635
	H305	H	0.445170	0.596616	0.428724
	O306	O	0.483095	0.426517	0.493682
	H307	H	0.485552	0.427644	0.491296
	H308	H	0.476301	0.422038	0.495220
	O309	O	0.456049	0.433707	0.441681
	H310	H	0.462280	0.436251	0.438331
	H311	H	0.460097	0.429102	0.449521
	O312	O	1.043454	1.085021	0.932827
	H313	H	1.045636	1.083088	0.928395
	H314	H	1.045561	1.075630	0.940365
	O315	O	1.173499	1.093215	0.161676
	H316	H	1.167152	1.093706	0.156337
	H317	H	1.182695	1.098890	0.159218
	O318	O	0.382228	0.495277	0.404001
	H319	H	0.387355	0.500613	0.404960
	H320	H	0.376583	0.492915	0.412155
	O321	O	0.582500	0.406501	0.477455
	H322	H	0.571689	0.392080	0.477505
	H323	H	0.577027	0.411687	0.468786
	O324	O	-0.092660	1.012462	0.929401
	H325	H	-0.096103	1.015719	0.924688
	H326	H	-0.096990	0.994849	0.919177
	O327	O	-0.060087	1.032190	1.096966
	H328	H	-0.055561	1.033248	1.090378
	H329	H	-0.053628	1.045172	1.101088
	O330	O	-0.038326	0.099886	-0.106326
	H331	H	-0.038824	0.089628	-0.111286
	H332	H	-0.051474	0.110673	-0.123268
	O333	O	0.483255	0.534318	0.465067
	H334	H	0.478935	0.532232	0.456860
	H335	H	0.474716	0.534848	0.470908
	O336	O	0.029343	-0.056953	-0.027882
	H337	H	0.012883	-0.061922	-0.024120
	H338	H	0.024899	-0.057368	-0.014086
	O339	O	0.008922	-0.091492	0.145877
	H340	H	0.008516	-0.090689	0.156560
	H341	H	0.012907	-0.071514	0.147633
	O342	O	-0.078647	0.917463	0.117338
	H343	H	-0.069419	0.907568	0.105568
	H344	H	-0.077246	0.938016	0.123920
	O345	O	-0.029237	1.101629	0.898212
	H346	H	-0.029580	1.088894	0.891060
	H347	H	-0.029813	1.094576	0.897474
	O348	O	0.180603	1.066215	0.001644
	H349	H	0.184608	1.067757	0.006658
	H350	H	0.178522	1.062764	-0.020951
	O351	O	0.537601	0.530106	0.554579
	H352	H	0.528268	0.528692	0.551902
	H353	H	0.528857	0.525398	0.544438
	O354	O	-0.014836	1.145147	0.128819
	H355	H	-0.013259	1.156661	0.122828
	H356	H	-0.000607	1.154628	0.134481
	O357	O	0.367122	0.405457	0.535351
	H358	H	0.372864	0.408776	0.550522
	H359	H	0.362663	0.413050	0.539695
	O360	O	0.490329	0.494992	0.547969
	H361	H	0.493927	0.492113	0.544370
	H362	H	0.493245	0.492486	0.540968
	O363	O	0.499645	0.481295	0.507946
	H364	H	0.502226	0.478354	0.503638
	H365	H	0.517820	0.484693	0.510765
	O366	O	0.626649	0.563074	0.453138
	H367	H	0.629150	0.575335	0.457581
	H368	H	0.638311	0.547010	0.445006
	O369	O	1.120548	-0.149885	-0.059800
	H370	H	1.112444	-0.146406	-0.066430
	H371	H	1.135703	-0.159535	-0.048323
	O372	O	0.594297	0.489487	0.527183
	H373	H	0.588446	0.492870	0.518890
	H374	H	0.609484	0.493389	0.530822
	O375	O	1.062223	-0.076448	0.900332
	H376	H	1.068670	-0.088706	0.910667
	H377	H	1.053787	-0.081364	0.908886
	O378	O	0.063678	0.997725	0.014508
	H379	H	0.065501	1.008250	0.020357
	H380	H	0.065809	0.998358	0.020009
	O381	O	0.490495	0.452166	0.579010
	H382	H	0.495988	0.447535	0.588276
	H383	H	0.493356	0.458970	0.583927
	O384	O	0.891853	0.838679	0.069510
	H385	H	0.893714	0.835959	0.077133
	H386	H	0.903626	0.847230	0.078060
	O387	O	0.949943	0.073240	1.016644
	H388	H	0.959600	0.072398	1.011344
	H389	H	0.937773	0.078998	0.999632
	O390	O	1.126920	0.810893	-0.129769
	H391	H	1.126529	0.807562	-0.122230
	H392	H	1.128406	0.813563	-0.130645
	O393	O	0.538455	0.582441	0.459724
	H394	H	0.534538	0.577510	0.470836
	H395	H	0.550712	0.580232	0.465828
