data_Molecule from HDF5

_cell_length_a		16.513764
_cell_length_b		16.599195
_cell_length_c		16.672956
_cell_angle_alpha	90.113282
_cell_angle_beta	90.090674
_cell_angle_gamma	89.810115
_symmetry_space_group_name_H-M	'P 1'
_symmetry_Int_Tables_number		1

loop_
	_symmetry_equiv_pos_as_xyz
	x,y,z

loop_
	_atom_site_label
	_atom_site_type_symbol
	_atom_site_fract_x
	_atom_site_fract_y
	_atom_site_fract_z
	H0	H	0.409086	0.848097	0.715319
	H1	H	0.616848	0.162063	0.714773
	H2	H	0.620262	0.850439	0.271198
	H3	H	0.406429	0.161015	0.273868
	H4	H	0.731340	0.402932	0.836898
	H5	H	0.731966	0.607411	0.150617
	H6	H	0.290402	0.608880	0.839929
	H7	H	0.292162	0.400128	0.150022
	H8	H	0.855319	0.724337	0.392273
	H9	H	0.170683	0.723190	0.597444
	H10	H	0.855445	0.286304	0.599199
	H11	H	0.168654	0.283508	0.391264
	H12	H	0.855615	0.400786	0.715296
	H13	H	0.170371	0.608127	0.714911
	H14	H	0.855641	0.608622	0.275449
	H15	H	0.167497	0.396658	0.272625
	H16	H	0.406635	0.726947	0.840109
	H17	H	0.617775	0.726359	0.150240
	H18	H	0.616418	0.284518	0.836964
	H19	H	0.408192	0.283573	0.149797
	H20	H	0.733872	0.849670	0.389728
	H21	H	0.731732	0.162240	0.597918
	H22	H	0.294141	0.847945	0.596889
	H23	H	0.291953	0.161071	0.391290
	H24	H	0.908719	0.348464	0.214404
	H25	H	0.120440	0.658415	0.219002
	H26	H	0.118512	0.348716	0.773826
	H27	H	0.908210	0.661646	0.774886
	H28	H	0.233439	0.898729	0.339524
	H29	H	0.233602	0.108172	0.651087
	H30	H	0.792407	0.109021	0.339122
	H31	H	0.792953	0.902362	0.651014
	H32	H	0.353986	0.222524	0.892624
	H33	H	0.670947	0.223232	0.097158
	H34	H	0.355445	0.787193	0.095992
	H35	H	0.670047	0.783225	0.889732
	H36	H	0.354660	0.902803	0.212193
	H37	H	0.669860	0.109553	0.214743
	H38	H	0.353562	0.104777	0.777843
	H39	H	0.669821	0.898331	0.773477
	H40	H	0.907981	0.225890	0.340238
	H41	H	0.116774	0.224810	0.651553
	H42	H	0.119453	0.780955	0.340917
	H43	H	0.907949	0.783853	0.650301
	H44	H	0.234239	0.348508	0.889694
	H45	H	0.233559	0.659735	0.100161
	H46	H	0.794438	0.346950	0.095654
	H47	H	0.793035	0.662141	0.892020
	H48	H	0.420703	0.116806	0.584090
	H49	H	0.602398	0.892551	0.585640
	H50	H	0.602815	0.118097	0.403037
	H51	H	0.431136	0.894113	0.401146
	H52	H	0.603563	0.414009	0.105812
	H53	H	0.606568	0.595100	0.881622
	H54	H	0.423321	0.595049	0.106078
	H55	H	0.429062	0.414520	0.884344
	H56	H	0.123571	0.594703	0.414690
	H57	H	0.898263	0.595356	0.588649
	H58	H	0.128346	0.408462	0.587557
	H59	H	0.901166	0.420866	0.403587
	H60	H	0.123633	0.415441	0.577970
	H61	H	0.899762	0.598302	0.582350
	H62	H	0.123793	0.583570	0.403221
	H63	H	0.898161	0.413482	0.403529
	H64	H	0.424662	0.594005	0.105511
	H65	H	0.599954	0.591448	0.883957
	H66	H	0.603581	0.413618	0.105487
	H67	H	0.420500	0.409278	0.880458
	H68	H	0.598062	0.116423	0.403499
	H69	H	0.601313	0.893834	0.583617
	H70	H	0.423659	0.117002	0.588344
	H71	H	0.422533	0.894061	0.409983
	H72	H	0.916192	0.618750	0.084513
	H73	H	0.105620	0.393050	0.076552
	H74	H	0.104905	0.618278	0.903981
	H75	H	0.926655	0.394971	0.906757
	H76	H	0.099627	0.917061	0.605085
	H77	H	0.102597	0.093107	0.383899
	H78	H	0.926003	0.100285	0.607280
	H79	H	0.922668	0.918258	0.384034
	H80	H	0.628262	0.100692	0.904220
	H81	H	0.401408	0.094816	0.078069
	H82	H	0.627455	0.914781	0.087395
	H83	H	0.398828	0.914847	0.901365
	H84	H	0.625744	0.913420	0.080457
	H85	H	0.401098	0.090208	0.086929
	H86	H	0.623437	0.091728	0.909007
	H87	H	0.401067	0.913497	0.906915
	H88	H	0.917869	0.096540	0.609298
	H89	H	0.100084	0.095015	0.384315
	H90	H	0.101709	0.912840	0.607189
	H91	H	0.927304	0.915487	0.384504
	H92	H	0.095748	0.616246	0.902255
	H93	H	0.102680	0.389496	0.089584
	H94	H	0.924739	0.617711	0.091924
	H95	H	0.917246	0.391227	0.905218
	H96	H	0.426149	0.115186	0.583951
	H97	H	0.603885	0.892764	0.583731
	H98	H	0.600664	0.116873	0.407730
	H99	H	0.420112	0.889434	0.398586
	H100	H	0.603436	0.413945	0.105999
	H101	H	0.599893	0.599139	0.882603
	H102	H	0.424899	0.595937	0.105238
	H103	H	0.420177	0.420001	0.883286
	H104	H	0.129308	0.598223	0.399873
	H105	H	0.902113	0.591894	0.583716
	H106	H	0.124609	0.420656	0.589718
	H107	H	0.901196	0.416855	0.410191
	H108	H	0.926020	0.614598	0.081090
	H109	H	0.093150	0.396367	0.082112
	H110	H	0.099524	0.614103	0.910887
	H111	H	0.924140	0.390930	0.897859
	H112	H	0.104900	0.916628	0.606339
	H113	H	0.102983	0.095635	0.382635
	H114	H	0.924349	0.091632	0.605288
	H115	H	0.923033	0.912918	0.382710
	H116	H	0.626666	0.090917	0.898526
	H117	H	0.397671	0.099359	0.086012
	H118	H	0.623537	0.919747	0.083926
	H119	H	0.401249	0.919364	0.904486
	C120	C	0.391939	0.012936	0.616193
	C121	C	0.633736	0.997024	0.615455
	C122	C	0.633586	0.014174	0.372952
	C123	C	0.391561	0.996214	0.372440
	C124	C	0.634337	0.383039	0.002154
	C125	C	0.634097	0.626653	0.986013
	C126	C	0.391504	0.626385	0.003001
	C127	C	0.391993	0.383494	0.985959
	C128	C	0.021606	0.624989	0.373891
	C129	C	1.004329	0.625966	0.616138
	C130	C	0.021384	0.383665	0.616396
	C131	C	1.003457	0.383603	0.373819
	C132	C	0.891168	0.512970	0.115927
	C133	C	0.133820	0.495433	0.116264
	C134	C	0.133336	0.513125	0.873716
	C135	C	0.890804	0.496007	0.872219
	C136	C	0.134504	0.882916	0.503567
	C137	C	0.133810	0.126086	0.486752
	C138	C	0.891178	0.127160	0.503862
	C139	C	0.891918	0.883849	0.486392
	C140	C	0.521141	0.125302	0.873434
	C141	C	0.504302	0.125992	0.114845
	C142	C	0.521507	0.884424	0.115183
	C143	C	0.504495	0.883575	0.873093
	C144	C	0.390492	0.894892	0.675078
	C145	C	0.635394	0.114869	0.674992
	C146	C	0.637518	0.896981	0.312012
	C147	C	0.388547	0.114095	0.313731
	C148	C	0.692296	0.383099	0.883938
	C149	C	0.692901	0.626882	0.103595
	C150	C	0.330575	0.628176	0.886266
	C151	C	0.332251	0.381692	0.103263
	C152	C	0.902833	0.684527	0.372912
	C153	C	0.123577	0.683834	0.616598
	C154	C	0.902793	0.325335	0.617812
	C155	C	0.121453	0.323338	0.372291
	C156	C	0.902889	0.382660	0.675288
	C157	C	0.123320	0.626797	0.674757
	C158	C	0.902909	0.627193	0.314855
	C159	C	0.121199	0.379988	0.313817
	C160	C	0.388174	0.686495	0.886233
	C161	C	0.635949	0.685936	0.103378
	C162	C	0.635167	0.324293	0.884043
	C163	C	0.389910	0.323563	0.103067
	C164	C	0.694043	0.896612	0.371139
	C165	C	0.692498	0.115177	0.616805
	C166	C	0.333716	0.894500	0.616199
	C167	C	0.331766	0.113870	0.372343
	C168	C	0.889980	0.395007	0.174287
	C169	C	0.137553	0.612084	0.177643
	C170	C	0.136347	0.395627	0.813700
	C171	C	0.889410	0.614537	0.814142
	C172	C	0.194198	0.880326	0.386767
	C173	C	0.193621	0.127273	0.604163
	C174	C	0.831969	0.128114	0.386446
	C175	C	0.832427	0.883091	0.604019
	C176	C	0.401577	0.183175	0.873452
	C177	C	0.623321	0.184185	0.115950
	C178	C	0.402684	0.826149	0.115494
	C179	C	0.622985	0.823449	0.871386
	C180	C	0.402484	0.883694	0.173260
	C181	C	0.622930	0.127321	0.174211
	C182	C	0.401314	0.124751	0.816444
	C183	C	0.622688	0.880551	0.813469
	C184	C	0.889634	0.186032	0.386666
	C185	C	0.135786	0.185415	0.604374
	C186	C	0.137399	0.821559	0.387345
	C187	C	0.889581	0.824144	0.603714
	C188	C	0.193933	0.395489	0.871520
	C189	C	0.193920	0.612679	0.118689
	C190	C	0.833417	0.394396	0.115262
	C191	C	0.832133	0.614649	0.872348
	C192	C	0.416298	0.095026	0.592124
	C193	C	0.609496	0.914698	0.591229
	C194	C	0.607749	0.095886	0.397584
	C195	C	0.417380	0.913912	0.396296
	C196	C	0.610196	0.406742	0.084269
	C197	C	0.609115	0.602434	0.903817
	C198	C	0.416836	0.601965	0.084357
	C199	C	0.416367	0.407714	0.904156
	C200	C	0.104033	0.599571	0.398829
	C201	C	0.921709	0.602068	0.591880
	C202	C	0.104020	0.407880	0.592083
	C203	C	0.921360	0.409619	0.398791
	C204	C	0.915341	0.595466	0.092577
	C205	C	0.107802	0.414051	0.090422
	C206	C	0.107519	0.594851	0.898561
	C207	C	0.915532	0.413807	0.896211
	C208	C	0.109240	0.908352	0.585116
	C209	C	0.109027	0.101725	0.404975
	C210	C	0.915763	0.103082	0.585957
	C211	C	0.917287	0.908473	0.405189
	C212	C	0.604397	0.101247	0.897065
	C213	C	0.421568	0.101816	0.090520
	C214	C	0.604102	0.908952	0.090892
	C215	C	0.422020	0.908561	0.897398
	Zn216	Zn	0.512971	0.004283	0.744962
	Zn217	Zn	0.512559	0.005546	0.243533
	Zn218	Zn	0.763034	0.504629	-0.005603
	Zn219	Zn	0.262622	0.504579	-0.005393
	Zn220	Zn	0.013216	0.753737	0.495205
	Zn221	Zn	0.012241	0.255748	0.495444
	Zn222	Zn	0.012851	0.505153	0.744390
	Zn223	Zn	0.012199	0.504194	0.245092
	Zn224	Zn	0.513016	0.755619	-0.006245
	Zn225	Zn	0.513075	0.254026	-0.006262
	Zn226	Zn	0.762429	0.005550	0.495049
	Zn227	Zn	0.263276	0.004720	0.494873
	N228	N	0.426190	0.969394	0.675064
	N229	N	0.599695	0.040164	0.674738
	N230	N	0.600394	0.971146	0.312875
	N231	N	0.424737	0.039526	0.313238
	N232	N	0.692249	0.418597	0.958363
	N233	N	0.691897	0.590823	0.029348
	N234	N	0.332580	0.591566	0.959773
	N235	N	0.333151	0.418092	0.029423
	N236	N	0.977781	0.683605	0.408733
	N237	N	0.048626	0.683582	0.581138
	N238	N	0.977439	0.325865	0.581691
	N239	N	0.047228	0.325422	0.409095
	N240	N	0.977913	0.418087	0.674910
	N241	N	0.048074	0.591785	0.674925
	N242	N	0.977940	0.591187	0.315197
	N243	N	0.046718	0.416711	0.314515
	N244	N	0.425359	0.685744	0.959768
	N245	N	0.600191	0.685979	0.029019
	N246	N	0.600185	0.323792	0.958707
	N247	N	0.426384	0.324440	0.029241
	N248	N	0.691730	0.970369	0.408364
	N249	N	0.691778	0.040831	0.580805
	N250	N	0.334559	0.968802	0.580159
	N251	N	0.333262	0.039375	0.407836
	N252	N	0.925128	0.469831	0.175022
	N253	N	0.100874	0.538104	0.176311
	N254	N	0.099313	0.469768	0.814840
	N255	N	0.925098	0.539691	0.813658
	N256	N	0.192766	0.917744	0.460238
	N257	N	0.192756	0.091281	0.529903
	N258	N	0.832424	0.092465	0.460625
	N259	N	0.833447	0.919239	0.530165
	N260	N	0.477225	0.183797	0.907800
	N261	N	0.548532	0.183644	0.079874
	N262	N	0.477830	0.825957	0.080472
	N263	N	0.548303	0.824993	0.907699
	N264	N	0.477634	0.918782	0.173642
	N265	N	0.547850	0.091905	0.173962
	N266	N	0.477013	0.089923	0.815845
	N267	N	0.548065	0.917071	0.814239
	N268	N	0.925498	0.185740	0.460824
	N269	N	0.099467	0.185204	0.530270
	N270	N	0.100929	0.822955	0.461119
	N271	N	0.925758	0.824069	0.529535
	N272	N	0.192354	0.469616	0.908055
	N273	N	0.191843	0.539102	0.081074
	N274	N	0.834021	0.468821	0.079697
	N275	N	0.832672	0.539973	0.907580
	O276	O	-0.028824	1.064689	0.200753
	H277	H	-0.039551	1.071087	0.201822
	H278	H	-0.029761	1.064751	0.200114
	O279	O	0.613517	0.418288	0.504135
	H280	H	0.602817	0.422688	0.487854
	H281	H	0.617195	0.415788	0.506504
	O282	O	0.719629	-0.700411	1.286389
	H283	H	0.719599	-0.680708	1.304526
	H284	H	0.676921	-0.703244	1.290652
	O285	O	0.292705	0.485408	0.678810
	H286	H	0.304926	0.469736	0.680335
	H287	H	0.276841	0.470622	0.703982
	O288	O	0.400131	0.519477	0.497077
	H289	H	0.391940	0.516184	0.496323
	H290	H	0.415145	0.510481	0.493368
	O291	O	0.587850	0.660946	0.393410
	H292	H	0.594713	0.663646	0.385685
	H293	H	0.591353	0.671215	0.413004
	O294	O	0.812201	0.206503	0.788304
	H295	H	0.805217	0.152694	0.783871
	H296	H	0.866832	0.212451	0.784624
	O297	O	0.372132	0.721546	0.458268
	H298	H	0.356423	0.731658	0.466164
	H299	H	0.373032	0.712488	0.467354
	O300	O	-0.266321	-0.271748	0.711269
	H301	H	-0.281271	-0.280432	0.715252
	H302	H	-0.245399	-0.274574	0.737573
	O303	O	0.504693	0.685136	0.527909
	H304	H	0.516140	0.688495	0.532284
	H305	H	0.495215	0.691324	0.520609
	O306	O	0.727023	0.722428	0.522480
	H307	H	0.740799	0.730212	0.547643
	H308	H	0.732033	0.733317	0.540476
	O309	O	0.620587	0.629905	0.287849
	H310	H	0.623840	0.626908	0.297146
	H311	H	0.611794	0.608121	0.298055
	O312	O	0.372850	0.638480	0.702041
	H313	H	0.399900	0.615731	0.693352
	H314	H	0.379899	0.636133	0.688512
	O315	O	0.945080	1.206934	0.918658
	H316	H	0.941444	1.212225	0.904446
	H317	H	0.948032	1.213203	0.941380
	O318	O	0.718162	0.577883	0.710402
	H319	H	0.739840	0.576456	0.731317
	H320	H	0.710866	0.558829	0.709208
	O321	O	0.047541	1.217496	1.207049
	H322	H	0.048888	1.234383	1.214474
	H323	H	0.054035	1.214658	1.205688
	O324	O	0.798314	0.790152	0.031020
	H325	H	0.799210	0.805633	0.024841
	H326	H	0.780759	0.773811	0.032783
	O327	O	-0.521883	0.409229	0.645009
	H328	H	-0.517450	0.402256	0.638447
	H329	H	-0.515656	0.420615	0.639236
	O330	O	0.475213	0.279032	0.719463
	H331	H	0.435871	0.277848	0.722003
	H332	H	0.468468	0.260655	0.747282
	O333	O	0.322817	0.312746	0.306906
	H334	H	0.332476	0.335930	0.328561
	H335	H	0.348821	0.327333	0.323405
	O336	O	0.787943	0.229479	-0.042884
	H337	H	0.791385	0.229708	-0.084380
	H338	H	0.759774	0.256344	-0.055071
	O339	O	1.092581	-0.030805	0.895628
	H340	H	1.084544	-0.023538	0.894634
	H341	H	1.094521	-0.024826	0.881391
	O342	O	-0.182635	-0.192386	0.198367
	H343	H	-0.169699	-0.198802	0.165813
	H344	H	-0.202043	-0.180190	0.214484
	O345	O	0.003953	1.163912	0.826536
	H346	H	0.018753	1.154827	0.845632
	H347	H	0.002069	1.177008	0.816391
	O348	O	0.180322	0.167406	0.801407
	H349	H	0.167485	0.163186	0.827377
	H350	H	0.158194	0.146579	0.815324
	O351	O	0.503563	0.603391	0.268624
	H352	H	0.508206	0.599093	0.263294
	H353	H	0.515008	0.614126	0.261985
	O354	O	-0.472612	0.303801	0.568130
	H355	H	-0.471481	0.308013	0.575118
	H356	H	-0.482436	0.303387	0.598872
	O357	O	0.218377	0.212374	0.198837
	H358	H	0.197597	0.184287	0.206253
	H359	H	0.248910	0.242584	0.233271
	O360	O	0.088361	-0.113190	1.017664
	H361	H	0.080982	-0.121014	1.018054
	H362	H	0.091821	-0.094895	1.015691
	O363	O	-0.195550	-0.023980	0.206924
	H364	H	-0.210097	-0.021060	0.209133
	H365	H	-0.200777	-0.030152	0.200560
	O366	O	0.543951	0.553722	0.637516
	H367	H	0.565704	0.554098	0.648240
	H368	H	0.529872	0.541151	0.647249
	O369	O	1.015585	-0.192289	-0.215019
	H370	H	1.028968	-0.200921	-0.210135
	H371	H	1.024148	-0.182881	-0.221916
	O372	O	0.831344	1.191255	0.184489
	H373	H	0.812581	1.212925	0.201618
	H374	H	0.840335	1.182819	0.194280
	O375	O	0.917713	-0.000212	0.023232
	H376	H	0.917147	0.009742	0.035305
	H377	H	0.900885	-0.003125	0.042346
	O378	O	0.663946	0.443738	0.651530
	H379	H	0.665410	0.436093	0.641585
	H380	H	0.658969	0.430418	0.653482
	O381	O	-0.004203	0.799367	1.219438
	H382	H	-0.022227	0.798786	1.232716
	H383	H	-0.009201	0.791025	1.233758
	O384	O	1.008419	0.009463	0.774642
	H385	H	1.007625	0.012093	0.762919
	H386	H	1.011748	0.001414	0.798776
	O387	O	0.917622	0.829079	-0.067947
	H388	H	0.921140	0.830470	-0.044030
	H389	H	0.920701	0.820057	-0.075120
	O390	O	0.445610	0.704567	0.543760
	H391	H	0.427983	0.717542	0.567625
	H392	H	0.453278	0.711104	0.537838
	O393	O	0.567185	0.437025	0.486428
	H394	H	0.570223	0.432490	0.496573
	H395	H	0.581456	0.435329	0.484865
	O396	O	-0.167592	0.954620	0.967512
	H397	H	-0.153342	0.969426	0.973275
	H398	H	-0.167793	0.970713	0.978888
	O399	O	0.225802	0.223730	1.025356
	H400	H	0.253086	0.243002	1.036847
	H401	H	0.222932	0.219349	1.065433
	O402	O	0.294794	0.526684	0.273803
	H403	H	0.268282	0.534864	0.252752
	H404	H	0.297589	0.567832	0.278254
	O405	O	1.031991	-0.164572	0.958775
	H406	H	1.032425	-0.171311	0.961332
	H407	H	1.043118	-0.168918	0.967934
	O408	O	0.222859	-0.204740	-0.221844
	H409	H	0.220092	-0.226356	-0.236603
	H410	H	0.228264	-0.195972	-0.182592
	O411	O	0.536748	0.717471	0.707641
	H412	H	0.530612	0.710850	0.708829
	H413	H	0.545358	0.734029	0.719149
	O414	O	0.701040	0.342222	0.668358
	H415	H	0.698579	0.338344	0.647398
	H416	H	0.710665	0.325568	0.681096
	O417	O	0.700056	0.372923	0.415635
	H418	H	0.703166	0.362682	0.438558
	H419	H	0.698570	0.374922	0.423122
	O420	O	0.307066	0.698740	0.337850
	H421	H	0.326891	0.704293	0.352695
	H422	H	0.296083	0.715501	0.338647
	O423	O	-0.204645	0.040447	0.776204
	H424	H	-0.193567	0.015162	0.793253
	H425	H	-0.227016	0.032265	0.748763
	O426	O	0.290483	0.533608	0.586109
	H427	H	0.291669	0.516055	0.605856
	H428	H	0.283555	0.535565	0.592785
	O429	O	1.105788	0.920865	1.209388
	H430	H	1.097027	0.921689	1.220205
	H431	H	1.102836	0.915976	1.195697
	O432	O	0.727926	0.472291	0.278404
	H433	H	0.729064	0.481566	0.304966
	H434	H	0.753816	0.461597	0.254427
	O435	O	-0.166390	1.021216	0.050387
	H436	H	-0.166105	1.027903	0.048345
	H437	H	-0.161481	1.044332	0.048581
	O438	O	0.329828	0.362838	0.457864
	H439	H	0.338039	0.379059	0.449166
	H440	H	0.340424	0.375065	0.449178
	O441	O	0.108409	-0.024065	0.015210
	H442	H	0.105360	-0.025192	0.021830
	H443	H	0.105395	-0.020692	0.037291
	O444	O	0.701445	0.476577	0.463732
	H445	H	0.704700	0.473400	0.485794
	H446	H	0.699867	0.498683	0.462888
	O447	O	0.224520	1.045476	1.213378
	H448	H	0.216096	1.048562	1.214815
	H449	H	0.246264	1.044436	1.230642
	O450	O	0.224501	0.789806	0.965934
	H451	H	0.232607	0.792345	0.970951
	H452	H	0.220380	0.781323	0.977183
	O453	O	0.235316	-0.022389	1.029460
	H454	H	0.236972	-0.019269	1.040112
	H455	H	0.230217	-0.024232	1.024041
	O456	O	0.031934	0.225062	0.966385
	H457	H	0.020144	0.229304	0.980700
	H458	H	0.041580	0.225257	0.983052
	O459	O	1.021511	1.014524	-0.047769
	H460	H	1.030964	1.017241	-0.050698
	H461	H	1.023857	1.013280	-0.044079
	O462	O	0.236025	0.785250	0.218537
	H463	H	0.232378	0.783977	0.221763
	H464	H	0.228406	0.791875	0.215002
	O465	O	1.121983	0.068753	0.049230
	H466	H	1.125406	0.061056	0.054796
	H467	H	1.140762	0.069998	0.063318
	O468	O	0.465389	0.436341	0.346995
	H469	H	0.469680	0.450235	0.337005
	H470	H	0.462819	0.441388	0.343691
	O471	O	0.370488	0.302220	0.489155
	H472	H	0.365077	0.286436	0.500360
	H473	H	0.384334	0.313609	0.477548
	O474	O	0.466675	0.606891	0.303716
	H475	H	0.457855	0.625826	0.298728
	H476	H	0.470574	0.618595	0.300101
	O477	O	0.563054	0.566282	1.427261
	H478	H	0.566498	0.557406	1.442507
	H479	H	0.573803	0.580955	1.424675
	O480	O	0.558340	0.290467	0.276943
	H481	H	0.549965	0.268188	0.245403
	H482	H	0.532124	0.313108	0.289086
	O483	O	0.306485	0.297843	0.700907
	H484	H	0.298662	0.304078	0.674750
	H485	H	0.280003	0.273590	0.698858
	O486	O	1.226554	-0.032915	0.780492
	H487	H	1.226226	-0.054042	0.777040
	H488	H	1.243853	-0.031034	0.770960
	O489	O	0.885770	0.907536	-0.120319
	H490	H	0.907651	0.904121	-0.101589
	H491	H	0.890815	0.930132	-0.116230
