data_Molecule from HDF5

_cell_length_a		16.298974
_cell_length_b		16.296721
_cell_length_c		16.219144
_cell_angle_alpha	89.750570
_cell_angle_beta	89.957247
_cell_angle_gamma	90.285464
_symmetry_space_group_name_H-M	'P 1'
_symmetry_Int_Tables_number		1

loop_
	_symmetry_equiv_pos_as_xyz
	x,y,z

loop_
	_atom_site_label
	_atom_site_type_symbol
	_atom_site_fract_x
	_atom_site_fract_y
	_atom_site_fract_z
	H0	H	0.397219	0.835260	0.710273
	H1	H	0.594483	0.162843	0.709958
	H2	H	0.592214	0.834609	0.284430
	H3	H	0.397698	0.162543	0.279917
	H4	H	0.708708	0.402965	0.832657
	H5	H	0.709254	0.597178	0.161335
	H6	H	0.281643	0.598669	0.833019
	H7	H	0.278528	0.398180	0.160880
	H8	H	0.831224	0.713794	0.397500
	H9	H	0.157811	0.715555	0.594632
	H10	H	0.832190	0.281462	0.598245
	H11	H	0.158203	0.285746	0.396639
	H12	H	0.830919	0.401103	0.711453
	H13	H	0.158738	0.597574	0.709916
	H14	H	0.831934	0.597634	0.281588
	H15	H	0.158982	0.404695	0.283497
	H16	H	0.398169	0.713348	0.833074
	H17	H	0.593824	0.712797	0.161720
	H18	H	0.592564	0.287291	0.831921
	H19	H	0.394275	0.282708	0.160914
	H20	H	0.709906	0.836156	0.398580
	H21	H	0.710916	0.162632	0.594528
	H22	H	0.279006	0.836077	0.596161
	H23	H	0.281337	0.162923	0.396259
	H24	H	0.894901	0.336863	0.213355
	H25	H	0.093583	0.664181	0.209461
	H26	H	0.091702	0.336299	0.783293
	H27	H	0.898533	0.663836	0.783014
	H28	H	0.209309	0.901443	0.332832
	H29	H	0.209985	0.098404	0.661094
	H30	H	0.781541	0.099373	0.332293
	H31	H	0.780457	0.900464	0.660360
	H32	H	0.331386	0.214129	0.895821
	H33	H	0.658516	0.214798	0.094315
	H34	H	0.332067	0.782862	0.096511
	H35	H	0.659085	0.785312	0.897199
	H36	H	0.331539	0.898991	0.211423
	H37	H	0.658952	0.097313	0.209885
	H38	H	0.330931	0.095815	0.781975
	H39	H	0.659451	0.902955	0.782492
	H40	H	0.896384	0.216147	0.332802
	H41	H	0.092973	0.212407	0.661609
	H42	H	0.093197	0.787210	0.332641
	H43	H	0.895835	0.785489	0.660630
	H44	H	0.209246	0.336761	0.897366
	H45	H	0.211427	0.662952	0.095768
	H46	H	0.778856	0.336536	0.097312
	H47	H	0.781211	0.663152	0.897144
	H48	H	0.404422	0.114789	0.587999
	H49	H	0.589973	0.884164	0.582438
	H50	H	0.587757	0.115826	0.400730
	H51	H	0.397499	0.879501	0.393547
	H52	H	0.594957	0.410618	0.114296
	H53	H	0.590897	0.589913	0.880152
	H54	H	0.399810	0.593039	0.116230
	H55	H	0.400498	0.400745	0.878129
	H56	H	0.114815	0.591211	0.386340
	H57	H	0.878540	0.591679	0.588833
	H58	H	0.111521	0.405658	0.590081
	H59	H	0.881680	0.418384	0.403446
	H60	H	0.110816	0.407986	0.589710
	H61	H	0.876627	0.593344	0.592190
	H62	H	0.114711	0.610957	0.408649
	H63	H	0.874470	0.401023	0.397387
	H64	H	0.401049	0.587915	0.113151
	H65	H	0.585179	0.595163	0.880386
	H66	H	0.579854	0.410667	0.110459
	H67	H	0.396382	0.411775	0.880324
	H68	H	0.587100	0.114265	0.403472
	H69	H	0.593026	0.880169	0.594119
	H70	H	0.401004	0.115718	0.586600
	H71	H	0.411883	0.887080	0.405985
	H72	H	0.906948	0.615137	0.088966
	H73	H	0.094809	0.384426	0.080438
	H74	H	0.088289	0.613364	0.913282
	H75	H	0.901462	0.382821	0.902112
	H76	H	0.088287	0.908039	0.613966
	H77	H	0.082746	0.096432	0.381182
	H78	H	0.900152	0.091790	0.613638
	H79	H	0.900592	0.905709	0.378577
	H80	H	0.611854	0.092612	0.898502
	H81	H	0.376493	0.098086	0.090091
	H82	H	0.609892	0.908595	0.086493
	H83	H	0.377998	0.907075	0.899076
	H84	H	0.612208	0.907400	0.093392
	H85	H	0.381120	0.090104	0.080947
	H86	H	0.612216	0.098305	0.903836
	H87	H	0.378109	0.900108	0.904666
	H88	H	0.904240	0.089422	0.612418
	H89	H	0.092509	0.097869	0.377638
	H90	H	0.086436	0.907609	0.613493
	H91	H	0.900423	0.909108	0.378856
	H92	H	0.098544	0.619870	0.899690
	H93	H	0.089329	0.379856	0.100775
	H94	H	0.898675	0.616702	0.085074
	H95	H	0.901682	0.383547	0.906719
	H96	H	0.402050	0.115647	0.590187
	H97	H	0.581345	0.884046	0.591239
	H98	H	0.590773	0.115456	0.402635
	H99	H	0.392961	0.882614	0.412983
	H100	H	0.586182	0.397291	0.115934
	H101	H	0.591888	0.596644	0.878330
	H102	H	0.405774	0.592065	0.114239
	H103	H	0.408155	0.409507	0.883071
	H104	H	0.105250	0.583458	0.414400
	H105	H	0.878299	0.595632	0.589056
	H106	H	0.111373	0.406699	0.591962
	H107	H	0.881327	0.403428	0.415884
	H108	H	0.900125	0.617287	0.093312
	H109	H	0.074550	0.388480	0.087424
	H110	H	0.081707	0.615946	0.896640
	H111	H	0.897408	0.382997	0.904128
	H112	H	0.088086	0.906383	0.614062
	H113	H	0.089844	0.088556	0.381725
	H114	H	0.904909	0.094157	0.613916
	H115	H	0.903760	0.907372	0.379277
	H116	H	0.609412	0.091721	0.906474
	H117	H	0.379174	0.085979	0.093140
	H118	H	0.612130	0.902101	0.087734
	H119	H	0.381843	0.907938	0.907266
	C120	C	0.373664	0.007477	0.617494
	C121	C	0.617113	0.990805	0.617678
	C122	C	0.616883	0.007355	0.374446
	C123	C	0.373079	0.991006	0.374761
	C124	C	0.615886	0.378478	0.005097
	C125	C	0.617414	0.621678	0.988731
	C126	C	0.374091	0.620123	0.005768
	C127	C	0.372249	0.377228	0.988556
	C128	C	0.003562	0.623117	0.374268
	C129	C	0.986202	0.621898	0.618217
	C130	C	0.003074	0.377930	0.619033
	C131	C	0.987037	0.379539	0.376373
	C132	C	0.872814	0.508549	0.118786
	C133	C	0.116054	0.491936	0.118175
	C134	C	0.116844	0.508319	0.875043
	C135	C	0.873386	0.491447	0.875948
	C136	C	0.115643	0.879419	0.505045
	C137	C	0.117090	0.122203	0.488707
	C138	C	0.874355	0.121031	0.504685
	C139	C	0.873191	0.878344	0.487572
	C140	C	0.503164	0.121653	0.873795
	C141	C	0.487068	0.120198	0.117089
	C142	C	0.503337	0.877027	0.118251
	C143	C	0.487241	0.877167	0.874841
	C144	C	0.376143	0.884270	0.672746
	C145	C	0.614920	0.114065	0.672374
	C146	C	0.613402	0.883907	0.321025
	C147	C	0.376735	0.113767	0.318206
	C148	C	0.670870	0.382178	0.881427
	C149	C	0.671608	0.618110	0.112440
	C150	C	0.319815	0.618090	0.881880
	C151	C	0.316476	0.378271	0.111997
	C152	C	0.880526	0.676956	0.376788
	C153	C	0.109147	0.677386	0.615287
	C154	C	0.880454	0.320906	0.617420
	C155	C	0.109764	0.324262	0.377385
	C156	C	0.879731	0.380042	0.673823
	C157	C	0.109703	0.618799	0.672351
	C158	C	0.880632	0.619133	0.319345
	C159	C	0.110059	0.382871	0.320826
	C160	C	0.377212	0.675673	0.882096
	C161	C	0.614249	0.675621	0.112472
	C162	C	0.613433	0.324565	0.881142
	C163	C	0.374289	0.321009	0.111982
	C164	C	0.671601	0.884607	0.377942
	C165	C	0.672711	0.113995	0.615097
	C166	C	0.317670	0.884569	0.615780
	C167	C	0.318729	0.113989	0.375774
	C168	C	0.874556	0.385591	0.175274
	C169	C	0.114185	0.614941	0.172361
	C170	C	0.112799	0.385204	0.820732
	C171	C	0.877115	0.614855	0.820524
	C172	C	0.170882	0.881763	0.381570
	C173	C	0.172022	0.118697	0.612190
	C174	C	0.819117	0.119580	0.381419
	C175	C	0.818436	0.880630	0.611397
	C176	C	0.380246	0.176430	0.875500
	C177	C	0.609791	0.176454	0.114854
	C178	C	0.380681	0.820887	0.116622
	C179	C	0.610539	0.823559	0.877768
	C180	C	0.380504	0.878857	0.173556
	C181	C	0.610168	0.117998	0.171948
	C182	C	0.380157	0.117875	0.818680
	C183	C	0.610583	0.881616	0.820272
	C184	C	0.876360	0.177464	0.381504
	C185	C	0.114163	0.175645	0.612509
	C186	C	0.113376	0.824856	0.381592
	C187	C	0.875322	0.822932	0.611336
	C188	C	0.171629	0.385520	0.877030
	C189	C	0.172637	0.614326	0.115731
	C190	C	0.817090	0.385287	0.117553
	C191	C	0.819209	0.614559	0.877527
	C192	C	0.396083	0.093125	0.594850
	C193	C	0.594614	0.905113	0.595821
	C194	C	0.595129	0.093073	0.395863
	C195	C	0.394453	0.905313	0.397593
	C196	C	0.593710	0.400011	0.091190
	C197	C	0.595707	0.600260	0.902010
	C198	C	0.395807	0.597555	0.092035
	C199	C	0.394864	0.400615	0.902826
	C200	C	0.089565	0.601614	0.396524
	C201	C	0.900092	0.599785	0.596438
	C202	C	0.088839	0.400195	0.597002
	C203	C	0.901417	0.401292	0.399060
	C204	C	0.895222	0.594198	0.095840
	C205	C	0.092802	0.406189	0.095999
	C206	C	0.095739	0.594257	0.896610
	C207	C	0.894130	0.405421	0.897778
	C208	C	0.093850	0.900951	0.591393
	C209	C	0.094755	0.100742	0.402396
	C210	C	0.896641	0.098436	0.591094
	C211	C	0.895233	0.900742	0.401144
	C212	C	0.588911	0.100363	0.896203
	C213	C	0.401221	0.097866	0.094675
	C214	C	0.589301	0.899415	0.095652
	C215	C	0.401478	0.898790	0.897157
	Zn216	Zn	0.495466	-0.000785	0.745844
	Zn217	Zn	0.495571	-0.001490	0.245902
	Zn218	Zn	0.744636	0.499790	-0.002995
	Zn219	Zn	0.244839	0.499404	-0.002857
	Zn220	Zn	-0.005479	0.750808	0.496514
	Zn221	Zn	-0.004669	0.249695	0.496762
	Zn222	Zn	-0.005481	0.499812	0.746846
	Zn223	Zn	-0.004815	0.500107	0.247022
	Zn224	Zn	0.495323	0.748643	-0.002776
	Zn225	Zn	0.494204	0.249865	-0.004009
	Zn226	Zn	0.745639	-0.000226	0.496540
	Zn227	Zn	0.244148	-0.000115	0.496721
	N228	N	0.410255	0.961646	0.673816
	N229	N	0.580890	0.036605	0.673941
	N230	N	0.579972	0.961288	0.318816
	N231	N	0.409969	0.036346	0.317556
	N232	N	0.672354	0.415071	0.959485
	N233	N	0.673597	0.585444	0.034418
	N234	N	0.317845	0.584133	0.959723
	N235	N	0.314848	0.412317	0.034245
	N236	N	0.958083	0.679422	0.410235
	N237	N	0.031270	0.679397	0.582533
	N238	N	0.958155	0.319422	0.584070
	N239	N	0.032323	0.321959	0.411259
	N240	N	0.956733	0.414735	0.674785
	N241	N	0.032176	0.585067	0.674319
	N242	N	0.958213	0.586538	0.317400
	N243	N	0.032772	0.416390	0.320112
	N244	N	0.410171	0.677054	0.960090
	N245	N	0.581261	0.677795	0.034382
	N246	N	0.579753	0.322174	0.958843
	N247	N	0.408017	0.320132	0.034191
	N248	N	0.673962	0.962331	0.410444
	N249	N	0.674054	0.036560	0.581722
	N250	N	0.315975	0.962300	0.582205
	N251	N	0.316111	0.036685	0.409999
	N252	N	0.908653	0.463072	0.176177
	N253	N	0.079584	0.537777	0.173787
	N254	N	0.079527	0.462653	0.819304
	N255	N	0.910056	0.537395	0.819263
	N256	N	0.172412	0.915001	0.459363
	N257	N	0.174097	0.086162	0.533919
	N258	N	0.817851	0.085207	0.459128
	N259	N	0.816991	0.914341	0.533430
	N260	N	0.457910	0.179152	0.908916
	N261	N	0.532168	0.177875	0.081410
	N262	N	0.458007	0.819871	0.082775
	N263	N	0.532718	0.820412	0.910857
	N264	N	0.457907	0.913024	0.174707
	N265	N	0.532806	0.083812	0.173454
	N266	N	0.457439	0.084597	0.817465
	N267	N	0.533082	0.914451	0.818470
	N268	N	0.909929	0.178421	0.459235
	N269	N	0.081004	0.178047	0.534685
	N270	N	0.079730	0.823242	0.459373
	N271	N	0.908679	0.821457	0.533335
	N272	N	0.174215	0.462977	0.910232
	N273	N	0.173823	0.536649	0.082724
	N274	N	0.815871	0.462633	0.083134
	N275	N	0.816676	0.536986	0.911262
	O276	O	0.980062	0.937669	-0.024152
	H277	H	0.980428	0.938393	-0.026134
	H278	H	0.982496	0.932747	-0.020255
	O279	O	0.022664	0.006459	0.009925
	H280	H	0.020760	0.004474	0.020017
	H281	H	0.025400	0.004785	0.011527
	O282	O	-0.041612	-0.009750	1.021167
	H283	H	-0.031501	-0.007322	1.025091
	H284	H	-0.054450	-0.015005	1.022026
	O285	O	0.980039	1.029061	0.976684
	H286	H	0.974939	1.030879	0.960190
	H287	H	0.971727	1.030771	0.976682
	O288	O	0.482805	0.422002	0.574358
	H289	H	0.487605	0.418450	0.574352
	H290	H	0.477247	0.423504	0.577670
	O291	O	0.493500	0.441462	0.527772
	H292	H	0.483304	0.441862	0.520246
	H293	H	0.491794	0.446778	0.528207
	O294	O	-0.023026	0.022819	0.038060
	H295	H	-0.017098	0.030345	0.035807
	H296	H	-0.020099	0.013442	0.036563
	O297	O	0.465021	0.393458	0.558734
	H298	H	0.465809	0.382527	0.557488
	H299	H	0.476373	0.389182	0.570851
	O300	O	0.037460	1.064477	1.040895
	H301	H	0.028565	1.069357	1.044484
	H302	H	0.051456	1.060968	1.051215
	O303	O	0.500618	0.386477	0.572795
	H304	H	0.509877	0.382913	0.566376
	H305	H	0.500587	0.390170	0.574810
	O306	O	0.028097	0.049568	0.968824
	H307	H	0.013257	0.054269	0.978272
	H308	H	0.031188	0.055809	0.965615
	O309	O	0.987642	0.983623	0.997883
	H310	H	0.998092	0.989065	0.999560
	H311	H	0.982832	0.987853	0.998304
	O312	O	1.062767	0.082679	0.033412
	H313	H	1.061022	0.078168	0.022472
	H314	H	1.055642	0.084247	0.036244
	O315	O	0.438197	0.428350	0.519741
	H316	H	0.432545	0.431747	0.527124
	H317	H	0.429407	0.415547	0.520757
	O318	O	0.008139	0.974010	0.117366
	H319	H	0.000582	0.971061	0.110048
	H320	H	0.010409	0.968723	0.125891
	O321	O	0.999958	0.981920	0.032009
	H322	H	1.006501	0.975407	0.026881
	H323	H	0.998056	0.975495	0.036450
