data_Molecule from HDF5

_cell_length_a		16.215564
_cell_length_b		16.299408
_cell_length_c		16.296546
_cell_angle_alpha	90.028220
_cell_angle_beta	90.077113
_cell_angle_gamma	89.864484
_symmetry_space_group_name_H-M	'P 1'
_symmetry_Int_Tables_number		1

loop_
	_symmetry_equiv_pos_as_xyz
	x,y,z

loop_
	_atom_site_label
	_atom_site_type_symbol
	_atom_site_fract_x
	_atom_site_fract_y
	_atom_site_fract_z
	H0	H	0.396338	0.834520	0.714397
	H1	H	0.592571	0.161396	0.712469
	H2	H	0.593631	0.834429	0.284897
	H3	H	0.395008	0.161774	0.283364
	H4	H	0.707511	0.400868	0.834270
	H5	H	0.709966	0.595140	0.162511
	H6	H	0.280490	0.595852	0.834653
	H7	H	0.282841	0.400405	0.162974
	H8	H	0.830029	0.712119	0.398810
	H9	H	0.158659	0.709796	0.596969
	H10	H	0.829555	0.285593	0.594010
	H11	H	0.159329	0.282509	0.400686
	H12	H	0.830258	0.399110	0.711566
	H13	H	0.159079	0.594297	0.712546
	H14	H	0.829845	0.594995	0.284164
	H15	H	0.158785	0.397776	0.284463
	H16	H	0.395615	0.713333	0.834770
	H17	H	0.594194	0.712324	0.162362
	H18	H	0.594118	0.283026	0.835314
	H19	H	0.396784	0.282521	0.161889
	H20	H	0.709566	0.834204	0.400882
	H21	H	0.707125	0.161544	0.595767
	H22	H	0.280946	0.833673	0.597375
	H23	H	0.279406	0.161768	0.401025
	H24	H	0.895998	0.333981	0.212411
	H25	H	0.094964	0.660234	0.214979
	H26	H	0.093925	0.333737	0.784691
	H27	H	0.895707	0.660037	0.782962
	H28	H	0.207556	0.900091	0.334546
	H29	H	0.206008	0.092471	0.663932
	H30	H	0.781091	0.093539	0.335071
	H31	H	0.782050	0.899869	0.663168
	H32	H	0.331537	0.211940	0.900857
	H33	H	0.659873	0.212374	0.098461
	H34	H	0.331865	0.782937	0.098773
	H35	H	0.659639	0.783323	0.900472
	H36	H	0.331589	0.898925	0.213173
	H37	H	0.659527	0.096722	0.214021
	H38	H	0.331587	0.097159	0.783898
	H39	H	0.659490	0.897978	0.783824
	H40	H	0.894276	0.212211	0.335205
	H41	H	0.093059	0.211821	0.662550
	H42	H	0.095004	0.779693	0.335898
	H43	H	0.896263	0.782385	0.661844
	H44	H	0.209678	0.333734	0.900770
	H45	H	0.209801	0.660559	0.097617
	H46	H	0.782717	0.333336	0.094675
	H47	H	0.781617	0.661029	0.899448
	H48	H	0.391046	0.116258	0.591611
	H49	H	0.591752	0.879047	0.594483
	H50	H	0.600408	0.115558	0.413335
	H51	H	0.393544	0.879491	0.405886
	H52	H	0.584714	0.403080	0.114246
	H53	H	0.586672	0.591469	0.883147
	H54	H	0.409723	0.586071	0.111253
	H55	H	0.400551	0.406760	0.882851
	H56	H	0.111955	0.595068	0.406693
	H57	H	0.873445	0.597127	0.595298
	H58	H	0.112923	0.395969	0.587286
	H59	H	0.878712	0.412354	0.396382
	H60	H	0.108795	0.411402	0.588442
	H61	H	0.880505	0.590505	0.582537
	H62	H	0.108233	0.585030	0.411265
	H63	H	0.873360	0.393700	0.400624
	H64	H	0.404117	0.599287	0.116829
	H65	H	0.589509	0.592225	0.881451
	H66	H	0.591667	0.401998	0.117411
	H67	H	0.405686	0.403504	0.882716
	H68	H	0.586888	0.118950	0.391238
	H69	H	0.583668	0.881857	0.593601
	H70	H	0.404722	0.115265	0.600617
	H71	H	0.406087	0.880636	0.397386
	H72	H	0.906593	0.613747	0.094378
	H73	H	0.096460	0.376281	0.098985
	H74	H	0.084624	0.614795	0.897256
	H75	H	0.907521	0.382465	0.906958
	H76	H	0.083870	0.905957	0.612331
	H77	H	0.094951	0.088004	0.380969
	H78	H	0.888718	0.098080	0.621341
	H79	H	0.898185	0.905786	0.381943
	H80	H	0.614092	0.093913	0.904508
	H81	H	0.381843	0.089504	0.084670
	H82	H	0.614384	0.903312	0.095885
	H83	H	0.377363	0.899281	0.907513
	H84	H	0.612578	0.901758	0.089274
	H85	H	0.379183	0.085345	0.094557
	H86	H	0.612541	0.090028	0.908254
	H87	H	0.381787	0.910139	0.910402
	H88	H	0.902187	0.078524	0.611526
	H89	H	0.081804	0.084056	0.385893
	H90	H	0.085250	0.897428	0.616141
	H91	H	0.905981	0.907730	0.384732
	H92	H	0.082657	0.611261	0.909799
	H93	H	0.078005	0.383068	0.094443
	H94	H	0.902918	0.612278	0.087234
	H95	H	0.895316	0.379372	0.906935
	H96	H	0.404897	0.110801	0.585132
	H97	H	0.589010	0.882829	0.587116
	H98	H	0.575692	0.108890	0.412671
	H99	H	0.405919	0.885769	0.411861
	H100	H	0.589985	0.408550	0.114089
	H101	H	0.589017	0.589256	0.882759
	H102	H	0.395076	0.586792	0.115292
	H103	H	0.400295	0.401172	0.880918
	H104	H	0.111766	0.585342	0.400001
	H105	H	0.878196	0.582180	0.595422
	H106	H	0.114600	0.402996	0.600916
	H107	H	0.880376	0.405539	0.414813
	H108	H	0.898725	0.615667	0.093183
	H109	H	0.091755	0.382859	0.080487
	H110	H	0.095041	0.615900	0.906346
	H111	H	0.901417	0.378125	0.896699
	H112	H	0.092699	0.903772	0.616216
	H113	H	0.084417	0.097650	0.380818
	H114	H	0.912728	0.101047	0.615177
	H115	H	0.904379	0.900161	0.381591
	H116	H	0.613273	0.088948	0.903066
	H117	H	0.377403	0.094933	0.091582
	H118	H	0.611051	0.908090	0.091305
	H119	H	0.376781	0.908186	0.899140
	C120	C	0.372750	0.005735	0.621044
	C121	C	0.616228	0.989348	0.619825
	C122	C	0.616297	0.006405	0.377473
	C123	C	0.372748	0.990055	0.376458
	C124	C	0.617346	0.376005	0.007133
	C125	C	0.617190	0.619507	0.990401
	C126	C	0.373848	0.619569	0.006468
	C127	C	0.373793	0.375929	0.990393
	C128	C	0.002231	0.617679	0.377032
	C129	C	0.986089	0.618037	0.619734
	C130	C	0.003314	0.375550	0.619895
	C131	C	0.986071	0.374903	0.376060
	C132	C	0.874416	0.505634	0.119155
	C133	C	0.116868	0.488842	0.120076
	C134	C	0.116358	0.505697	0.876934
	C135	C	0.873188	0.488383	0.875601
	C136	C	0.116523	0.874176	0.507116
	C137	C	0.115295	0.118139	0.490996
	C138	C	0.872637	0.119759	0.507412
	C139	C	0.873830	0.876099	0.490771
	C140	C	0.504507	0.119523	0.877015
	C141	C	0.487610	0.118941	0.119962
	C142	C	0.504204	0.876166	0.120580
	C143	C	0.487157	0.876919	0.877534
	C144	C	0.376039	0.882881	0.675824
	C145	C	0.613477	0.112634	0.674667
	C146	C	0.614058	0.883280	0.322367
	C147	C	0.374588	0.112874	0.321245
	C148	C	0.671087	0.379358	0.883542
	C149	C	0.672506	0.616220	0.113592
	C150	C	0.318319	0.616644	0.883506
	C151	C	0.319681	0.379159	0.113701
	C152	C	0.879012	0.673760	0.378770
	C153	C	0.109631	0.672209	0.617543
	C154	C	0.878745	0.322691	0.615285
	C155	C	0.110119	0.319833	0.379609
	C156	C	0.879158	0.378967	0.673529
	C157	C	0.109865	0.615174	0.675114
	C158	C	0.878910	0.615706	0.321561
	C159	C	0.109868	0.377004	0.321867
	C160	C	0.375397	0.675160	0.883642
	C161	C	0.615035	0.674443	0.113497
	C162	C	0.614481	0.321023	0.883928
	C163	C	0.376622	0.320820	0.113436
	C164	C	0.671381	0.882998	0.380331
	C165	C	0.670514	0.112544	0.617039
	C166	C	0.318794	0.882533	0.617620
	C167	C	0.317404	0.113044	0.379731
	C168	C	0.876362	0.382504	0.174028
	C169	C	0.115193	0.611635	0.176642
	C170	C	0.114356	0.382401	0.822561
	C171	C	0.875464	0.611305	0.820673
	C172	C	0.170881	0.878151	0.383822
	C173	C	0.169508	0.114376	0.614605
	C174	C	0.818229	0.115239	0.384044
	C175	C	0.819343	0.879209	0.613963
	C176	C	0.380675	0.174499	0.879779
	C177	C	0.610938	0.174254	0.118253
	C178	C	0.380693	0.820889	0.118539
	C179	C	0.610688	0.821175	0.880075
	C180	C	0.380606	0.878798	0.175612
	C181	C	0.610797	0.117179	0.176097
	C182	C	0.380678	0.117187	0.822044
	C183	C	0.610666	0.878233	0.822024
	C184	C	0.874615	0.173936	0.384126
	C185	C	0.113250	0.173489	0.613898
	C186	C	0.114809	0.818661	0.384226
	C187	C	0.875815	0.820492	0.613308
	C188	C	0.171912	0.382473	0.880152
	C189	C	0.171867	0.612072	0.118155
	C190	C	0.819781	0.382371	0.115702
	C191	C	0.818844	0.611721	0.878836
	C192	C	0.394084	0.091948	0.598955
	C193	C	0.594431	0.903392	0.598288
	C194	C	0.594050	0.092382	0.399217
	C195	C	0.395224	0.904089	0.398468
	C196	C	0.595414	0.398005	0.093084
	C197	C	0.594912	0.597717	0.904463
	C198	C	0.396488	0.597435	0.092163
	C199	C	0.395672	0.397581	0.904444
	C200	C	0.088532	0.595130	0.399523
	C201	C	0.899779	0.596248	0.597760
	C202	C	0.089740	0.397181	0.598572
	C203	C	0.899874	0.397177	0.397574
	C204	C	0.896381	0.591691	0.097956
	C205	C	0.095186	0.403193	0.097895
	C206	C	0.094096	0.591722	0.898305
	C207	C	0.895072	0.402011	0.896995
	C208	C	0.093986	0.895922	0.592743
	C209	C	0.093518	0.096336	0.405060
	C210	C	0.894723	0.098889	0.593748
	C211	C	0.896186	0.898066	0.404924
	C212	C	0.591021	0.097307	0.898796
	C213	C	0.401651	0.096338	0.096991
	C214	C	0.590351	0.898031	0.098763
	C215	C	0.401005	0.899244	0.899508
	Zn216	Zn	0.495755	-0.002274	0.748954
	Zn217	Zn	0.495767	-0.002034	0.248424
	Zn218	Zn	0.745934	0.497412	-0.001786
	Zn219	Zn	0.244970	0.497877	-0.001440
	Zn220	Zn	-0.005507	0.746075	0.498427
	Zn221	Zn	-0.005695	0.248023	0.498639
	Zn222	Zn	-0.005003	0.496551	0.747820
	Zn223	Zn	-0.005097	0.496542	0.248190
	Zn224	Zn	0.495235	0.748679	-0.001250
	Zn225	Zn	0.495993	0.247400	-0.001124
	Zn226	Zn	0.745105	-0.002478	0.499181
	Zn227	Zn	0.244409	-0.002596	0.498758
	N228	N	0.408752	0.960597	0.678108
	N229	N	0.580240	0.035086	0.676452
	N230	N	0.580300	0.960915	0.320813
	N231	N	0.408135	0.035181	0.318979
	N232	N	0.672773	0.413072	0.961000
	N233	N	0.673998	0.582752	0.036019
	N234	N	0.317409	0.582823	0.960764
	N235	N	0.317924	0.412848	0.036272
	N236	N	0.956893	0.675221	0.412216
	N237	N	0.031879	0.674089	0.583867
	N238	N	0.956897	0.320415	0.582684
	N239	N	0.032057	0.318358	0.412630
	N240	N	0.957546	0.411133	0.676530
	N241	N	0.031888	0.581930	0.676556
	N242	N	0.956679	0.581519	0.320427
	N243	N	0.032028	0.410581	0.319667
	N244	N	0.409374	0.676973	0.961106
	N245	N	0.581418	0.676433	0.036073
	N246	N	0.581768	0.318755	0.961782
	N247	N	0.409598	0.318714	0.035763
	N248	N	0.673014	0.960437	0.413757
	N249	N	0.672274	0.035052	0.583547
	N250	N	0.316607	0.960086	0.584319
	N251	N	0.316044	0.035637	0.413249
	N252	N	0.909551	0.460082	0.176286
	N253	N	0.081825	0.533899	0.178031
	N254	N	0.080513	0.459877	0.820375
	N255	N	0.908787	0.533631	0.818710
	N256	N	0.172273	0.911937	0.461236
	N257	N	0.170943	0.080593	0.537180
	N258	N	0.817029	0.082136	0.461756
	N259	N	0.818031	0.913123	0.536581
	N260	N	0.458634	0.176222	0.913065
	N261	N	0.533272	0.175337	0.084013
	N262	N	0.458441	0.819115	0.085225
	N263	N	0.532856	0.820221	0.913677
	N264	N	0.458308	0.912458	0.177024
	N265	N	0.533096	0.083496	0.177120
	N266	N	0.458567	0.083411	0.820607
	N267	N	0.532948	0.912193	0.820352
	N268	N	0.908084	0.176620	0.461761
	N269	N	0.080178	0.175891	0.536063
	N270	N	0.082071	0.815949	0.461890
	N271	N	0.909000	0.818384	0.535623
	N272	N	0.173387	0.460244	0.913110
	N273	N	0.173083	0.535116	0.083815
	N274	N	0.818589	0.459829	0.082326
	N275	N	0.817250	0.534245	0.912255
	O276	O	0.980554	0.946688	-0.007413
	H277	H	0.987983	0.956208	-0.011905
	H278	H	0.975809	0.944014	-0.005205
	O279	O	0.056252	-0.022257	-0.023509
	H280	H	0.045140	-0.021402	-0.017514
	H281	H	0.058007	-0.027183	-0.023549
	O282	O	0.046261	-0.054374	1.065622
	H283	H	0.052888	-0.048475	1.066591
	H284	H	0.046148	-0.058922	1.063246
	O285	O	1.001559	0.932117	1.060364
	H286	H	1.008932	0.920608	1.068798
	H287	H	0.995885	0.923254	1.062748
	O288	O	0.420623	0.572246	0.446302
	H289	H	0.419364	0.574135	0.445131
	H290	H	0.421027	0.569727	0.444839
	O291	O	0.425980	0.582470	0.468179
	H292	H	0.419978	0.585395	0.462555
	H293	H	0.425766	0.585174	0.465406
	O294	O	0.049528	-0.009396	0.031602
	H295	H	0.043198	-0.018770	0.039688
	H296	H	0.044350	-0.002056	0.037440
	O297	O	0.427903	0.577566	0.444446
	H298	H	0.429101	0.584690	0.440303
	H299	H	0.427126	0.573808	0.450471
	O300	O	0.034242	1.009960	1.093428
	H301	H	0.036046	1.009191	1.087647
	H302	H	0.039468	1.014447	1.088950
	O303	O	0.464200	0.597837	0.469006
	H304	H	0.456015	0.607717	0.467679
	H305	H	0.463796	0.598506	0.466680
	O306	O	0.033667	-0.035082	1.003942
	H307	H	0.032658	-0.030196	1.014452
	H308	H	0.033834	-0.045796	0.994782
	O309	O	1.025488	0.949204	1.064396
	H310	H	1.035417	0.945171	1.064504
	H311	H	1.037027	0.956060	1.053657
	O312	O	1.008928	0.004257	0.052637
	H313	H	1.012994	0.009110	0.058942
	H314	H	1.005190	-0.003486	0.046588
	O315	O	0.411242	0.587978	0.464585
	H316	H	0.416596	0.589042	0.465855
	H317	H	0.407234	0.592495	0.463677
	O318	O	0.019175	0.962332	0.027736
	H319	H	0.023945	0.971751	0.039856
	H320	H	0.015630	0.969932	0.031794
	O321	O	1.003705	0.938742	0.007043
	H322	H	1.007094	0.948786	0.004984
	H323	H	1.001610	0.933280	0.010762
