data_Molecule from HDF5

_cell_length_a		16.377526
_cell_length_b		16.405263
_cell_length_c		16.182056
_cell_angle_alpha	90.083866
_cell_angle_beta	89.537088
_cell_angle_gamma	89.818833
_symmetry_space_group_name_H-M	'P 1'
_symmetry_Int_Tables_number		1

loop_
	_symmetry_equiv_pos_as_xyz
	x,y,z

loop_
	_atom_site_label
	_atom_site_type_symbol
	_atom_site_fract_x
	_atom_site_fract_y
	_atom_site_fract_z
	H0	H	0.393879	0.834612	0.723487
	H1	H	0.594117	0.156681	0.725403
	H2	H	0.595438	0.833589	0.291380
	H3	H	0.394339	0.156727	0.291065
	H4	H	0.714441	0.391982	0.845483
	H5	H	0.710094	0.597148	0.171371
	H6	H	0.279749	0.596653	0.845243
	H7	H	0.273531	0.390484	0.168488
	H8	H	0.834609	0.720104	0.400339
	H9	H	0.153001	0.715547	0.609623
	H10	H	0.833750	0.275858	0.614531
	H11	H	0.153915	0.276990	0.401361
	H12	H	0.831609	0.396508	0.725768
	H13	H	0.153921	0.597041	0.723005
	H14	H	0.832029	0.599586	0.289770
	H15	H	0.154538	0.396636	0.289468
	H16	H	0.394413	0.712651	0.846221
	H17	H	0.595187	0.712642	0.172021
	H18	H	0.600465	0.276154	0.845641
	H19	H	0.390411	0.276256	0.168960
	H20	H	0.717270	0.836970	0.399889
	H21	H	0.713861	0.155448	0.612507
	H22	H	0.273720	0.836477	0.610859
	H23	H	0.275615	0.156487	0.405380
	H24	H	0.891969	0.335057	0.226088
	H25	H	0.090966	0.658230	0.222123
	H26	H	0.095385	0.334450	0.787841
	H27	H	0.892999	0.657606	0.791646
	H28	H	0.211435	0.894986	0.344081
	H29	H	0.208443	0.097273	0.670535
	H30	H	0.777541	0.099088	0.344412
	H31	H	0.775164	0.896867	0.669581
	H32	H	0.334833	0.215031	0.904555
	H33	H	0.655653	0.214551	0.110822
	H34	H	0.333250	0.779066	0.111511
	H35	H	0.655937	0.775888	0.904629
	H36	H	0.332817	0.897381	0.224124
	H37	H	0.657850	0.093125	0.221824
	H38	H	0.332674	0.095371	0.793910
	H39	H	0.656523	0.893892	0.789100
	H40	H	0.892672	0.214626	0.344411
	H41	H	0.095221	0.214705	0.669546
	H42	H	0.095598	0.779798	0.343684
	H43	H	0.889128	0.779210	0.669446
	H44	H	0.214413	0.334737	0.901523
	H45	H	0.211252	0.656138	0.109748
	H46	H	0.775462	0.335213	0.111281
	H47	H	0.774265	0.655760	0.905219
	H48	H	0.397325	0.114297	0.605487
	H49	H	0.584529	0.881031	0.599208
	H50	H	0.584337	0.110449	0.413118
	H51	H	0.400231	0.880096	0.416792
	H52	H	0.574594	0.409751	0.118577
	H53	H	0.586436	0.588893	0.891906
	H54	H	0.396766	0.582824	0.124940
	H55	H	0.403213	0.402490	0.889270
	H56	H	0.108614	0.597040	0.419701
	H57	H	0.876918	0.587976	0.601520
	H58	H	0.102581	0.413800	0.588294
	H59	H	0.878602	0.399590	0.426379
	H60	H	0.110652	0.407680	0.607936
	H61	H	0.876950	0.591627	0.597946
	H62	H	0.102964	0.580457	0.421449
	H63	H	0.881714	0.413790	0.418754
	H64	H	0.407208	0.583495	0.123575
	H65	H	0.587535	0.582004	0.892739
	H66	H	0.582303	0.393791	0.126247
	H67	H	0.404979	0.408569	0.892434
	H68	H	0.584000	0.108822	0.418737
	H69	H	0.582665	0.882915	0.594295
	H70	H	0.406090	0.108946	0.599580
	H71	H	0.403888	0.881570	0.416296
	H72	H	0.890474	0.610068	0.086444
	H73	H	0.089817	0.382817	0.086978
	H74	H	0.086819	0.610855	0.914840
	H75	H	0.898442	0.381330	0.921466
	H76	H	0.084490	0.910458	0.622385
	H77	H	0.083811	0.083011	0.392483
	H78	H	0.904450	0.085117	0.621990
	H79	H	0.910597	0.901055	0.390257
	H80	H	0.604689	0.079351	0.925404
	H81	H	0.377833	0.088834	0.107907
	H82	H	0.607853	0.901903	0.090792
	H83	H	0.379103	0.897997	0.919640
	H84	H	0.609970	0.907512	0.102679
	H85	H	0.380925	0.093739	0.091714
	H86	H	0.610962	0.079550	0.907164
	H87	H	0.381882	0.905958	0.918433
	H88	H	0.903379	0.086464	0.622375
	H89	H	0.082232	0.091611	0.389741
	H90	H	0.078102	0.903907	0.621653
	H91	H	0.897822	0.905289	0.387983
	H92	H	0.084435	0.608732	0.916456
	H93	H	0.089823	0.377201	0.106135
	H94	H	0.896204	0.616270	0.113021
	H95	H	0.903820	0.380130	0.911756
	H96	H	0.395758	0.110745	0.594412
	H97	H	0.588085	0.882120	0.594682
	H98	H	0.588740	0.111067	0.416298
	H99	H	0.402021	0.882205	0.419496
	H100	H	0.593226	0.409381	0.125178
	H101	H	0.581336	0.584820	0.894421
	H102	H	0.401659	0.591984	0.126334
	H103	H	0.409773	0.403275	0.892495
	H104	H	0.110597	0.586592	0.405723
	H105	H	0.879330	0.587731	0.596741
	H106	H	0.109117	0.393197	0.591778
	H107	H	0.875190	0.401483	0.410433
	H108	H	0.916121	0.605707	0.096560
	H109	H	0.073681	0.385197	0.097781
	H110	H	0.087709	0.609718	0.917812
	H111	H	0.908847	0.384233	0.920781
	H112	H	0.086143	0.901652	0.625463
	H113	H	0.090209	0.087993	0.389684
	H114	H	0.902693	0.084903	0.621810
	H115	H	0.906460	0.913553	0.394729
	H116	H	0.611591	0.095285	0.917503
	H117	H	0.384200	0.078244	0.095673
	H118	H	0.612632	0.895102	0.100529
	H119	H	0.378443	0.901749	0.912446
	C120	C	0.370399	0.005086	0.629953
	C121	C	0.615129	0.987901	0.627857
	C122	C	0.616640	0.003858	0.384869
	C123	C	0.372367	0.987603	0.386683
	C124	C	0.615941	0.373258	0.016269
	C125	C	0.614940	0.615626	1.000555
	C126	C	0.372838	0.616364	0.017361
	C127	C	0.373763	0.373850	0.998244
	C128	C	0.001589	0.619060	0.384769
	C129	C	0.984201	0.618808	0.628802
	C130	C	0.001593	0.374414	0.628573
	C131	C	0.984823	0.374709	0.386367
	C132	C	0.870834	0.504663	0.130090
	C133	C	0.114348	0.487612	0.127838
	C134	C	0.116561	0.503693	0.884814
	C135	C	0.873105	0.487797	0.887549
	C136	C	0.114337	0.875107	0.515569
	C137	C	0.115191	0.117946	0.498342
	C138	C	0.873109	0.117522	0.515302
	C139	C	0.872586	0.875713	0.498187
	C140	C	0.503061	0.116159	0.886355
	C141	C	0.487033	0.116576	0.128753
	C142	C	0.503352	0.873041	0.129329
	C143	C	0.486322	0.872052	0.885494
	C144	C	0.373106	0.883082	0.685563
	C145	C	0.614257	0.108484	0.686637
	C146	C	0.615989	0.882422	0.328527
	C147	C	0.373854	0.108619	0.329247
	C148	C	0.675288	0.373196	0.894350
	C149	C	0.671464	0.616052	0.123082
	C150	C	0.317437	0.615872	0.894195
	C151	C	0.313922	0.372416	0.120244
	C152	C	0.881938	0.679154	0.383015
	C153	C	0.104895	0.676237	0.628689
	C154	C	0.881140	0.315885	0.631804
	C155	C	0.105680	0.316495	0.383681
	C156	C	0.880247	0.375852	0.687223
	C157	C	0.105427	0.617261	0.685236
	C158	C	0.880668	0.619161	0.327655
	C159	C	0.106077	0.375826	0.327807
	C160	C	0.374558	0.673543	0.894757
	C161	C	0.614520	0.673792	0.123059
	C162	C	0.618749	0.315027	0.894323
	C163	C	0.371944	0.315240	0.120193
	C164	C	0.676379	0.884216	0.382908
	C165	C	0.673539	0.108095	0.630168
	C166	C	0.313205	0.884091	0.629790
	C167	C	0.314785	0.108499	0.386146
	C168	C	0.871807	0.383554	0.187831
	C169	C	0.112039	0.609331	0.184489
	C170	C	0.115623	0.382792	0.826501
	C171	C	0.873194	0.609125	0.830052
	C172	C	0.172394	0.875577	0.392830
	C173	C	0.170313	0.116798	0.621487
	C174	C	0.816209	0.118069	0.392951
	C175	C	0.813830	0.876314	0.620603
	C176	C	0.382374	0.174674	0.886582
	C177	C	0.608039	0.174318	0.129086
	C178	C	0.381537	0.817336	0.130046
	C179	C	0.607784	0.814888	0.885189
	C180	C	0.381387	0.876145	0.186216
	C181	C	0.609034	0.114238	0.184584
	C182	C	0.381154	0.115135	0.831386
	C183	C	0.607886	0.873825	0.827841
	C184	C	0.873563	0.175527	0.393115
	C185	C	0.114184	0.175271	0.620940
	C186	C	0.114786	0.818261	0.392607
	C187	C	0.870507	0.817906	0.620584
	C188	C	0.174678	0.382901	0.883362
	C189	C	0.171869	0.608275	0.128449
	C190	C	0.813960	0.383454	0.130731
	C191	C	0.814370	0.608314	0.886840
	C192	C	0.392943	0.089375	0.606756
	C193	C	0.591949	0.903916	0.603203
	C194	C	0.592658	0.088151	0.408948
	C195	C	0.395502	0.903264	0.410529
	C196	C	0.590658	0.397303	0.101465
	C197	C	0.591993	0.592045	0.915209
	C198	C	0.395260	0.592979	0.102920
	C199	C	0.398716	0.397892	0.913391
	C200	C	0.085805	0.594938	0.408702
	C201	C	0.899612	0.595877	0.605501
	C202	C	0.085724	0.397992	0.603349
	C203	C	0.900577	0.398130	0.411409
	C204	C	0.893995	0.588786	0.105724
	C205	C	0.091107	0.403482	0.103838
	C206	C	0.093104	0.587931	0.909143
	C207	C	0.896923	0.403767	0.911160
	C208	C	0.089930	0.898455	0.601010
	C209	C	0.092208	0.094335	0.412786
	C210	C	0.896803	0.092968	0.600155
	C211	C	0.897643	0.899382	0.413052
	C212	C	0.587337	0.091871	0.909859
	C213	C	0.402834	0.093657	0.105268
	C214	C	0.588285	0.895139	0.104914
	C215	C	0.401664	0.895216	0.909733
	Zn216	Zn	0.493925	-0.004294	0.757474
	Zn217	Zn	0.494849	-0.005003	0.257386
	Zn218	Zn	0.743174	0.495391	0.008462
	Zn219	Zn	0.245326	0.495061	0.006961
	Zn220	Zn	-0.006470	0.747250	0.506793
	Zn221	Zn	-0.006381	0.245725	0.507211
	Zn222	Zn	-0.006905	0.496114	0.756973
	Zn223	Zn	-0.007275	0.496168	0.257385
	Zn224	Zn	0.494748	0.743725	0.008817
	Zn225	Zn	0.495785	0.245735	0.007053
	Zn226	Zn	0.744261	-0.003155	0.506477
	Zn227	Zn	0.242262	-0.003531	0.507784
	N228	N	0.407926	0.959183	0.685888
	N229	N	0.578485	0.032773	0.685017
	N230	N	0.579243	0.957944	0.329788
	N231	N	0.409161	0.032443	0.329396
	N232	N	0.673760	0.408859	0.971394
	N233	N	0.671775	0.580375	0.046192
	N234	N	0.316339	0.581020	0.971367
	N235	N	0.314806	0.408205	0.043468
	N236	N	0.958067	0.679156	0.417926
	N237	N	0.028449	0.677358	0.594390
	N238	N	0.957529	0.315115	0.595847
	N239	N	0.029138	0.315748	0.419356
	N240	N	0.956095	0.411606	0.685245
	N241	N	0.029284	0.582219	0.685368
	N242	N	0.956165	0.582281	0.328820
	N243	N	0.029988	0.411286	0.329024
	N244	N	0.408258	0.674156	0.972298
	N245	N	0.579984	0.673553	0.045849
	N246	N	0.582665	0.315148	0.971154
	N247	N	0.408531	0.315964	0.043523
	N248	N	0.676816	0.960728	0.417430
	N249	N	0.674061	0.032144	0.594169
	N250	N	0.311515	0.960815	0.596022
	N251	N	0.313994	0.032319	0.421159
	N252	N	0.906251	0.459884	0.187629
	N253	N	0.077178	0.533273	0.184334
	N254	N	0.080293	0.458916	0.827122
	N255	N	0.909096	0.533219	0.830339
	N256	N	0.172243	0.910268	0.470303
	N257	N	0.170855	0.081819	0.544280
	N258	N	0.815727	0.082594	0.469924
	N259	N	0.815008	0.911434	0.543418
	N260	N	0.459300	0.175651	0.919782
	N261	N	0.531417	0.176011	0.095095
	N262	N	0.458470	0.815212	0.095608
	N263	N	0.531201	0.813752	0.920442
	N264	N	0.458170	0.909831	0.186015
	N265	N	0.532765	0.079145	0.184550
	N266	N	0.457270	0.079579	0.831024
	N267	N	0.531273	0.908545	0.827818
	N268	N	0.907925	0.175428	0.470233
	N269	N	0.080658	0.176159	0.543270
	N270	N	0.079497	0.817805	0.469944
	N271	N	0.906219	0.817408	0.543445
	N272	N	0.175460	0.459149	0.918786
	N273	N	0.173475	0.531579	0.093837
	N274	N	0.813026	0.459740	0.095762
	N275	N	0.814238	0.532061	0.921858
	O276	O	-0.015409	0.060188	-0.011362
	H277	H	-0.019550	0.050277	-0.018550
	H278	H	-0.028970	0.062306	-0.001647
	O279	O	0.563063	0.309712	0.318099
	H280	H	0.564772	0.315344	0.316875
	H281	H	0.545682	0.309494	0.305514
	O282	O	0.868428	0.008648	0.030898
	H283	H	0.874214	0.007395	0.040417
	H284	H	0.861769	0.008888	0.022372
	O285	O	-0.007384	1.075785	-0.118588
	H286	H	0.004341	1.076902	-0.121267
	H287	H	0.000600	1.092571	-0.130308
	O288	O	0.545837	0.471341	0.675642
	H289	H	0.529112	0.460950	0.676160
	H290	H	0.534174	0.460652	0.679702
	O291	O	0.978037	0.097593	1.122300
	H292	H	0.965282	0.100932	1.135654
	H293	H	0.977361	0.084003	1.124338
	O294	O	0.989098	1.023708	1.072389
	H295	H	0.988547	1.022298	1.070183
	H296	H	0.989360	1.018634	1.081402
	O297	O	0.107366	0.071307	-0.093173
	H298	H	0.104715	0.067988	-0.075289
	H299	H	0.107365	0.096322	-0.080537
	O300	O	0.670771	0.307284	0.521480
	H301	H	0.668897	0.305995	0.484636
	H302	H	0.682352	0.298819	0.515370
	O303	O	-0.089223	0.912490	1.001915
	H304	H	-0.094449	0.912913	1.001673
	H305	H	-0.086185	0.927205	1.006133
	O306	O	0.439736	0.609114	0.397309
	H307	H	0.447828	0.629036	0.385682
	H308	H	0.427142	0.608895	0.395395
	O309	O	1.151243	-0.106333	-0.157493
	H310	H	1.156259	-0.092728	-0.150503
	H311	H	1.141100	-0.088901	-0.158542
	O312	O	-0.046413	-0.079226	1.013961
	H313	H	-0.044193	-0.084011	1.020428
	H314	H	-0.038271	-0.069296	1.006317
	O315	O	0.608720	0.692346	0.568661
	H316	H	0.607877	0.693326	0.591105
	H317	H	0.601565	0.701866	0.569586
	O318	O	0.680618	0.363741	0.339654
	H319	H	0.658501	0.363931	0.345690
	H320	H	0.700821	0.388041	0.326133
	O321	O	0.401390	0.540185	0.343499
	H322	H	0.391698	0.541948	0.348350
	H323	H	0.399525	0.562858	0.342400
	O324	O	0.437130	0.535355	0.390448
	H325	H	0.430900	0.540712	0.391646
	H326	H	0.455126	0.548986	0.390751
	O327	O	0.044510	1.005066	1.074050
	H328	H	0.045196	0.989594	1.070346
	H329	H	0.047337	1.002132	1.069353
	O330	O	0.670335	0.683772	0.681086
	H331	H	0.662343	0.674842	0.692953
	H332	H	0.655097	0.675155	0.687230
	O333	O	0.154541	0.902055	0.986306
	H334	H	0.160664	0.900640	0.983595
	H335	H	0.168305	0.905084	0.984258
	O336	O	1.001036	0.964188	0.906861
	H337	H	0.996646	0.952186	0.903372
	H338	H	0.995510	0.960500	0.918462
	O339	O	0.301315	0.531624	0.658474
	H340	H	0.286619	0.517183	0.651504
	H341	H	0.295633	0.528349	0.671181
	O342	O	1.702624	0.488813	-0.624466
	H343	H	1.707732	0.506303	-0.623731
	H344	H	1.710707	0.498382	-0.612118
	O345	O	0.049567	1.072072	0.090743
	H346	H	0.041025	1.068691	0.081826
	H347	H	0.044328	1.075264	0.092976
	O348	O	1.015043	0.835705	1.035618
	H349	H	1.016485	0.838836	1.030736
	H350	H	1.014340	0.816058	1.024467
	O351	O	1.050810	1.088474	0.018958
	H352	H	1.037174	1.080633	0.025351
	H353	H	1.062054	1.085430	0.022161
	O354	O	0.634714	0.554296	0.459617
	H355	H	0.643426	0.560593	0.466904
	H356	H	0.631661	0.559391	0.463684
	O357	O	0.685099	0.476145	0.622466
	H358	H	0.677360	0.466772	0.627595
	H359	H	0.678463	0.476667	0.625243
	O360	O	0.129067	-0.138961	-0.155761
	H361	H	0.117140	-0.138051	-0.170045
	H362	H	0.134397	-0.114613	-0.150947
	O363	O	0.388352	0.414942	0.622734
	H364	H	0.388102	0.411455	0.622102
	H365	H	0.383150	0.439941	0.619893
	O366	O	0.453858	0.506535	0.594805
	H367	H	0.464925	0.500445	0.596525
	H368	H	0.440111	0.504291	0.596807
	O369	O	0.357659	0.562955	0.562137
	H370	H	0.349180	0.577791	0.573034
	H371	H	0.366072	0.553472	0.545546
	O372	O	0.541724	0.317606	0.475388
	H373	H	0.543855	0.321547	0.480195
	H374	H	0.552355	0.304652	0.459699
	O375	O	0.354017	0.589068	0.515052
	H376	H	0.363025	0.580572	0.505279
	H377	H	0.364610	0.594943	0.516775
	O378	O	0.359756	0.382289	0.478541
	H379	H	0.356109	0.417591	0.485960
	H380	H	0.360692	0.378657	0.457856
	O381	O	0.577890	0.520301	0.634798
	H382	H	0.597506	0.529691	0.643675
	H383	H	0.578379	0.520535	0.643767
	O384	O	-0.017518	1.063846	-0.036060
	H385	H	-0.010350	1.069703	-0.038728
	H386	H	-0.023012	1.076139	-0.037588
	O387	O	0.456466	0.515207	1.339255
	H388	H	0.450253	0.518388	1.335400
	H389	H	0.487527	0.508801	1.342516
	O390	O	0.417314	0.595903	-0.410009
	H391	H	0.418885	0.580354	-0.401580
	H392	H	0.407336	0.596692	-0.428255
	O393	O	0.465445	1.318349	-0.413274
	H394	H	0.479845	1.307140	-0.400438
	H395	H	0.465268	1.325568	-0.426571
	O396	O	0.413504	0.676659	0.331681
	H397	H	0.416579	0.676518	0.344183
	H398	H	0.414296	0.661931	0.324056
	O399	O	0.372748	0.300453	0.648441
	H400	H	0.360345	0.288630	0.650477
	H401	H	0.363154	0.313781	0.647085
	O402	O	0.926729	0.914279	0.961961
	H403	H	0.923325	0.930847	0.950956
	H404	H	0.917240	0.911117	0.955884
	O405	O	0.386805	0.663124	0.501319
	H406	H	0.383175	0.647338	0.492424
	H407	H	0.378061	0.675117	0.517474
