data_Molecule from HDF5

_cell_length_a		16.418543
_cell_length_b		16.134117
_cell_length_c		16.222823
_cell_angle_alpha	89.528036
_cell_angle_beta	89.889887
_cell_angle_gamma	89.886773
_symmetry_space_group_name_H-M	'P 1'
_symmetry_Int_Tables_number		1

loop_
	_symmetry_equiv_pos_as_xyz
	x,y,z

loop_
	_atom_site_label
	_atom_site_type_symbol
	_atom_site_fract_x
	_atom_site_fract_y
	_atom_site_fract_z
	H0	H	0.404719	0.845226	0.717651
	H1	H	0.599315	0.175628	0.711256
	H2	H	0.601135	0.843756	0.291862
	H3	H	0.404471	0.173388	0.286244
	H4	H	0.721857	0.406864	0.841215
	H5	H	0.717571	0.608353	0.166448
	H6	H	0.285140	0.613399	0.840550
	H7	H	0.287178	0.407387	0.166693
	H8	H	0.839967	0.725365	0.405203
	H9	H	0.165055	0.725541	0.601726
	H10	H	0.840562	0.293471	0.604886
	H11	H	0.165941	0.295524	0.407290
	H12	H	0.841485	0.408160	0.723031
	H13	H	0.165482	0.610110	0.720487
	H14	H	0.840977	0.611164	0.286984
	H15	H	0.165292	0.410435	0.288633
	H16	H	0.405765	0.725253	0.838913
	H17	H	0.600002	0.720840	0.167699
	H18	H	0.599652	0.298932	0.837087
	H19	H	0.405488	0.293722	0.166982
	H20	H	0.720431	0.846695	0.401392
	H21	H	0.717930	0.172920	0.601402
	H22	H	0.286437	0.846200	0.605383
	H23	H	0.287674	0.173993	0.399538
	H24	H	0.905135	0.344770	0.220486
	H25	H	0.099048	0.675138	0.213798
	H26	H	0.102257	0.344448	0.792089
	H27	H	0.902734	0.673592	0.788189
	H28	H	0.220468	0.907895	0.339729
	H29	H	0.220514	0.110904	0.664529
	H30	H	0.785948	0.114461	0.339415
	H31	H	0.783759	0.905745	0.665332
	H32	H	0.340350	0.225685	0.902862
	H33	H	0.666094	0.222179	0.099265
	H34	H	0.341003	0.793364	0.103310
	H35	H	0.665413	0.793692	0.903730
	H36	H	0.341381	0.907168	0.221396
	H37	H	0.664750	0.108975	0.218579
	H38	H	0.341251	0.111493	0.784983
	H39	H	0.664520	0.908329	0.784254
	H40	H	0.904935	0.226510	0.339959
	H41	H	0.098616	0.218846	0.668862
	H42	H	0.100047	0.797466	0.337160
	H43	H	0.904162	0.793745	0.666741
	H44	H	0.219864	0.346372	0.903039
	H45	H	0.219393	0.672620	0.104891
	H46	H	0.786705	0.345163	0.108118
	H47	H	0.785550	0.672587	0.901606
	H48	H	0.400313	0.132614	0.602150
	H49	H	0.598038	0.890210	0.594547
	H50	H	0.592022	0.129562	0.399656
	H51	H	0.413662	0.892411	0.410646
	H52	H	0.588938	0.422652	0.114852
	H53	H	0.593172	0.595676	0.889382
	H54	H	0.402351	0.602931	0.123327
	H55	H	0.407432	0.422931	0.886925
	H56	H	0.115690	0.594888	0.408578
	H57	H	0.887662	0.600983	0.598677
	H58	H	0.118920	0.412682	0.601665
	H59	H	0.889917	0.414261	0.420922
	H60	H	0.118200	0.413469	0.594609
	H61	H	0.888463	0.603211	0.595432
	H62	H	0.122608	0.608105	0.399983
	H63	H	0.890114	0.428093	0.410879
	H64	H	0.409614	0.591387	0.117444
	H65	H	0.592197	0.605610	0.885804
	H66	H	0.592494	0.404625	0.122124
	H67	H	0.413927	0.420244	0.887876
	H68	H	0.586859	0.122553	0.416610
	H69	H	0.592728	0.891751	0.597617
	H70	H	0.421732	0.124321	0.596348
	H71	H	0.410764	0.893508	0.416960
	H72	H	0.903115	0.630122	0.098813
	H73	H	0.092428	0.394239	0.093280
	H74	H	0.097223	0.627086	0.913291
	H75	H	0.919273	0.394334	0.913385
	H76	H	0.099527	0.920621	0.619124
	H77	H	0.097455	0.108537	0.383662
	H78	H	0.911398	0.100988	0.618954
	H79	H	0.918729	0.923750	0.390332
	H80	H	0.617357	0.095213	0.903187
	H81	H	0.389604	0.101746	0.090693
	H82	H	0.620175	0.915558	0.100252
	H83	H	0.391247	0.924039	0.911169
	H84	H	0.618366	0.912537	0.095077
	H85	H	0.389216	0.095618	0.095630
	H86	H	0.621527	0.109721	0.901202
	H87	H	0.386718	0.917425	0.906424
	H88	H	0.904349	0.102082	0.621318
	H89	H	0.099846	0.097677	0.385951
	H90	H	0.091163	0.920851	0.616043
	H91	H	0.908739	0.910241	0.383600
	H92	H	0.093053	0.626374	0.910196
	H93	H	0.101385	0.390156	0.095329
	H94	H	0.915653	0.625321	0.097509
	H95	H	0.908316	0.393191	0.922769
	H96	H	0.404720	0.125054	0.580441
	H97	H	0.593458	0.893452	0.591072
	H98	H	0.603927	0.128760	0.414048
	H99	H	0.407117	0.890435	0.411388
	H100	H	0.606413	0.417744	0.122867
	H101	H	0.601796	0.601070	0.885043
	H102	H	0.415261	0.604995	0.118807
	H103	H	0.408779	0.416085	0.885097
	H104	H	0.118165	0.609611	0.415848
	H105	H	0.889421	0.598845	0.595438
	H106	H	0.117440	0.419617	0.599198
	H107	H	0.883865	0.413366	0.404623
	H108	H	0.907530	0.624863	0.086739
	H109	H	0.093937	0.389918	0.102243
	H110	H	0.093229	0.625477	0.914687
	H111	H	0.906284	0.388963	0.908666
	H112	H	0.093964	0.913394	0.620399
	H113	H	0.089586	0.101735	0.388237
	H114	H	0.906498	0.094909	0.619354
	H115	H	0.901898	0.926729	0.385798
	H116	H	0.617003	0.104609	0.915074
	H117	H	0.386025	0.103305	0.097793
	H118	H	0.617615	0.919040	0.095526
	H119	H	0.389165	0.915567	0.914755
	C120	C	0.380647	0.018649	0.623587
	C121	C	0.622977	1.000813	0.622334
	C122	C	0.623938	0.018180	0.381334
	C123	C	0.381073	1.000623	0.381593
	C124	C	0.625285	0.386857	0.011823
	C125	C	0.624269	0.629990	0.994664
	C126	C	0.380304	0.631098	0.011864
	C127	C	0.381172	0.388227	0.994314
	C128	C	0.011327	0.633116	0.380068
	C129	C	0.995453	0.630770	0.625579
	C130	C	0.011163	0.386497	0.628095
	C131	C	0.995023	0.388723	0.383131
	C132	C	0.880732	0.518149	0.125351
	C133	C	0.124038	0.500220	0.125314
	C134	C	0.124319	0.518304	0.883521
	C135	C	0.881694	0.500596	0.883835
	C136	C	0.124205	0.888493	0.510716
	C137	C	0.124075	0.130692	0.494088
	C138	C	0.879466	0.131031	0.511639
	C139	C	0.880639	0.888805	0.494352
	C140	C	0.511485	0.132449	0.878466
	C141	C	0.495318	0.129600	0.123435
	C142	C	0.511621	0.886619	0.126125
	C143	C	0.495277	0.888676	0.880859
	C144	C	0.383743	0.894771	0.680054
	C145	C	0.620237	0.125596	0.675458
	C146	C	0.621550	0.893739	0.328175
	C147	C	0.383387	0.124483	0.324531
	C148	C	0.682727	0.387834	0.889451
	C149	C	0.679539	0.628294	0.117795
	C150	C	0.324315	0.631932	0.889070
	C151	C	0.325495	0.387854	0.117660
	C152	C	0.888668	0.687764	0.383977
	C153	C	0.117054	0.687062	0.623007
	C154	C	0.889360	0.331008	0.625794
	C155	C	0.117282	0.333404	0.386147
	C156	C	0.889615	0.388272	0.684390
	C157	C	0.117113	0.629203	0.681575
	C158	C	0.889377	0.631242	0.324918
	C159	C	0.116861	0.390430	0.327121
	C160	C	0.384282	0.687524	0.888368
	C161	C	0.620837	0.683980	0.118334
	C162	C	0.621977	0.334069	0.887297
	C163	C	0.384362	0.331453	0.117698
	C164	C	0.681281	0.895075	0.382517
	C165	C	0.679147	0.124471	0.620650
	C166	C	0.324928	0.895182	0.624036
	C167	C	0.325553	0.124500	0.380915
	C168	C	0.883995	0.394175	0.182601
	C169	C	0.120838	0.625204	0.178212
	C170	C	0.122885	0.394215	0.828651
	C171	C	0.882967	0.624312	0.826521
	C172	C	0.181220	0.888969	0.388145
	C173	C	0.180428	0.129104	0.616794
	C174	C	0.824566	0.132507	0.388626
	C175	C	0.823118	0.887217	0.616754
	C176	C	0.389197	0.187982	0.881853
	C177	C	0.617182	0.185088	0.120529
	C178	C	0.389583	0.831023	0.123844
	C179	C	0.617070	0.832022	0.882939
	C180	C	0.389761	0.887672	0.182663
	C181	C	0.616561	0.128585	0.179920
	C182	C	0.389578	0.131032	0.823067
	C183	C	0.616776	0.889463	0.823856
	C184	C	0.883615	0.188377	0.388893
	C185	C	0.120081	0.183152	0.618650
	C186	C	0.121468	0.833795	0.386869
	C187	C	0.882929	0.831671	0.617634
	C188	C	0.181295	0.395007	0.883793
	C189	C	0.180645	0.623771	0.123933
	C190	C	0.825238	0.394333	0.126685
	C191	C	0.824411	0.623802	0.882853
	C192	C	0.402505	0.105019	0.599871
	C193	C	0.601188	0.914402	0.600818
	C194	C	0.601052	0.104439	0.403603
	C195	C	0.403704	0.914498	0.405867
	C196	C	0.602711	0.408683	0.097760
	C197	C	0.602233	0.607398	0.908769
	C198	C	0.402412	0.606703	0.097699
	C199	C	0.403306	0.412642	0.908808
	C200	C	0.096632	0.610882	0.401877
	C201	C	0.910492	0.607725	0.603097
	C202	C	0.096285	0.408842	0.605264
	C203	C	0.909898	0.411717	0.405601
	C204	C	0.902409	0.604306	0.101336
	C205	C	0.102262	0.413865	0.103349
	C206	C	0.101216	0.604204	0.906058
	C207	C	0.904782	0.414366	0.907758
	C208	C	0.101430	0.911432	0.596330
	C209	C	0.102125	0.108918	0.408026
	C210	C	0.900961	0.106365	0.597768
	C211	C	0.903253	0.913121	0.408737
	C212	C	0.596519	0.109786	0.900044
	C213	C	0.410262	0.106861	0.101245
	C214	C	0.596596	0.909066	0.103569
	C215	C	0.410804	0.912209	0.903984
	Zn216	Zn	0.503221	0.010278	0.750308
	Zn217	Zn	0.502928	0.008574	0.254478
	Zn218	Zn	0.752367	0.508697	0.004120
	Zn219	Zn	0.251955	0.509240	0.004011
	Zn220	Zn	0.002933	0.760604	0.502607
	Zn221	Zn	0.002633	0.258326	0.504644
	Zn222	Zn	0.003532	0.509083	0.756419
	Zn223	Zn	0.002833	0.510009	0.252695
	Zn224	Zn	0.503418	0.758443	0.003229
	Zn225	Zn	0.503208	0.259992	0.001988
	Zn226	Zn	0.751099	0.009888	0.502297
	Zn227	Zn	0.252694	0.010205	0.502021
	N228	N	0.417442	0.972570	0.679913
	N229	N	0.586008	0.047819	0.676565
	N230	N	0.586611	0.971337	0.327321
	N231	N	0.417370	0.046586	0.324731
	N232	N	0.684967	0.419729	0.967846
	N233	N	0.681601	0.595191	0.039799
	N234	N	0.321668	0.597817	0.967076
	N235	N	0.323329	0.422467	0.039990
	N236	N	0.965578	0.689223	0.417186
	N237	N	0.040415	0.688122	0.589016
	N238	N	0.966078	0.329835	0.591308
	N239	N	0.040416	0.332090	0.420020
	N240	N	0.966401	0.421931	0.686070
	N241	N	0.040264	0.595102	0.683388
	N242	N	0.966500	0.597895	0.322540
	N243	N	0.039650	0.423961	0.325034
	N244	N	0.418133	0.687240	0.965923
	N245	N	0.587044	0.685032	0.040912
	N246	N	0.586728	0.333344	0.964233
	N247	N	0.418452	0.331714	0.040116
	N248	N	0.682662	0.973530	0.414939
	N249	N	0.681210	0.045893	0.588404
	N250	N	0.322782	0.973398	0.589702
	N251	N	0.323931	0.046364	0.415570
	N252	N	0.917813	0.472084	0.181968
	N253	N	0.086315	0.547634	0.179189
	N254	N	0.087967	0.471806	0.828414
	N255	N	0.917838	0.546768	0.827051
	N256	N	0.182979	0.922395	0.465995
	N257	N	0.183470	0.097676	0.538237
	N258	N	0.821614	0.097680	0.466320
	N259	N	0.821602	0.922108	0.539066
	N260	N	0.465932	0.189011	0.915551
	N261	N	0.540653	0.185901	0.086060
	N262	N	0.466170	0.830219	0.089415
	N263	N	0.540730	0.831648	0.917819
	N264	N	0.466728	0.921471	0.184275
	N265	N	0.539644	0.094829	0.181871
	N266	N	0.466646	0.097312	0.820795
	N267	N	0.539984	0.923723	0.822191
	N268	N	0.916793	0.187700	0.466639
	N269	N	0.085432	0.183978	0.541400
	N270	N	0.086899	0.833154	0.464198
	N271	N	0.918016	0.832575	0.540611
	N272	N	0.182442	0.472986	0.917207
	N273	N	0.182907	0.545085	0.091529
	N274	N	0.823000	0.472211	0.091721
	N275	N	0.823479	0.545791	0.917745
	O276	O	0.487464	0.544632	0.524088
	H277	H	0.483824	0.538655	0.523225
	H278	H	0.483208	0.542269	0.528486
	O279	O	0.461081	0.497144	0.459278
	H280	H	0.464908	0.498477	0.458028
	H281	H	0.458642	0.501090	0.459110
	O282	O	0.987994	1.014766	-0.049224
	H283	H	0.983205	1.010770	-0.060861
	H284	H	1.004531	1.016565	-0.042240
	O285	O	1.135915	-0.027889	0.941540
	H286	H	1.135752	-0.013859	0.948298
	H287	H	1.138292	-0.026414	0.933713
	O288	O	0.534285	0.588522	0.522154
	H289	H	0.532972	0.593788	0.528750
	H290	H	0.538656	0.585943	0.520069
	O291	O	0.473451	0.540970	0.425551
	H292	H	0.475289	0.550171	0.422313
	H293	H	0.464018	0.535050	0.425853
	O294	O	0.440830	0.459535	0.565269
	H295	H	0.439753	0.454825	0.566482
	H296	H	0.444079	0.452501	0.561025
	O297	O	-0.505219	-0.503788	1.476026
	H298	H	-0.513245	-0.498924	1.481725
	H299	H	-0.508008	-0.504702	1.473537
	O300	O	0.061034	0.037120	0.091726
	H301	H	0.058592	0.034613	0.101801
	H302	H	0.051991	0.029284	0.090308
	O303	O	1.009400	0.973926	0.009410
	H304	H	1.003027	0.966266	0.005057
	H305	H	1.002003	0.989133	-0.002506
	O306	O	0.046153	1.073713	1.081725
	H307	H	0.040919	1.070370	1.092978
	H308	H	0.058730	1.070061	1.078389
	O309	O	0.584830	0.390836	0.432227
	H310	H	0.589808	0.386550	0.428580
	H311	H	0.594053	0.387602	0.430063
	O312	O	0.145650	0.039886	-0.005827
	H313	H	0.152836	0.044011	-0.016303
	H314	H	0.141218	0.040890	0.002020
	O315	O	0.913777	0.115764	-0.117852
	H316	H	0.911694	0.117231	-0.122715
	H317	H	0.913395	0.125863	-0.110880
	O318	O	1.127367	0.965209	1.075867
	H319	H	1.134954	0.970672	1.075396
	H320	H	1.114560	0.973218	1.068688
	O321	O	0.025033	-1.060357	0.921832
	H322	H	0.034274	-1.061553	0.925515
	H323	H	0.024703	-1.061225	0.906646
	O324	O	0.433535	0.563978	0.549204
	H325	H	0.436333	0.562990	0.553113
	H326	H	0.429491	0.565121	0.543328
	O327	O	0.005237	0.025244	-0.073374
	H328	H	0.005159	0.015733	-0.071263
	H329	H	0.014162	0.031699	-0.071728
	O330	O	0.508129	0.510901	0.512221
	H331	H	0.522141	0.513973	0.508958
	H332	H	0.504535	0.510276	0.512850
	O333	O	-0.028031	1.025018	1.042489
	H334	H	-0.026820	1.020325	1.044165
	H335	H	-0.033306	1.025055	1.035449
	O336	O	-0.036082	-0.017495	0.011457
	H337	H	-0.039744	-0.017850	0.016470
	H338	H	-0.042691	-0.016851	0.005039
	O339	O	0.531598	0.449143	0.521401
	H340	H	0.529423	0.452002	0.521747
	H341	H	0.529344	0.441098	0.520743
	O342	O	0.938712	1.015124	1.000626
	H343	H	0.932950	1.016550	0.989406
	H344	H	0.952805	1.016191	0.995010
	O345	O	0.940214	0.949904	0.130367
	H346	H	0.934768	0.949406	0.123381
	H347	H	0.952973	0.931570	0.131875
	O348	O	0.557758	0.534773	0.499395
	H349	H	0.559835	0.541012	0.497835
	H350	H	0.566306	0.531622	0.498699
	O351	O	0.448166	0.586478	0.495670
	H352	H	0.452667	0.582268	0.496870
	H353	H	0.448794	0.593367	0.490614
	O354	O	0.881240	0.074727	1.048105
	H355	H	0.891759	0.067357	1.062913
	H356	H	0.875233	0.069659	1.051400
	O357	O	1.004872	-0.029416	1.151035
	H358	H	1.007131	-0.037451	1.160361
	H359	H	1.009047	-0.031579	1.146049
	O360	O	1.038269	0.912700	-0.060121
	H361	H	1.040927	0.905022	-0.065204
	H362	H	1.045539	0.921043	-0.060613
	O363	O	0.484801	0.498445	0.480439
	H364	H	0.489984	0.497031	0.493995
	H365	H	0.470917	0.492643	0.474619
	O366	O	0.526742	1.493060	0.497181
	H367	H	0.532811	1.491705	0.498852
	H368	H	0.530401	1.500607	0.500336
	O369	O	1.078892	0.038120	0.943209
	H370	H	1.082246	0.045703	0.953578
	H371	H	1.081579	0.027758	0.947480
	O372	O	-0.044461	-0.121708	-0.101893
	H373	H	-0.055107	-0.114463	-0.113844
	H374	H	-0.042799	-0.118225	-0.103800
	O375	O	0.898489	0.038582	-0.083187
	H376	H	0.887783	0.039957	-0.079957
	H377	H	0.900948	0.049214	-0.077808
	O378	O	0.515110	0.537302	0.451690
	H379	H	0.509291	0.548101	0.456094
	H380	H	0.518373	0.527730	0.451410
	O381	O	0.573760	0.456518	0.562834
	H382	H	0.577565	0.462188	0.556938
	H383	H	0.568560	0.456993	0.560388
