data_Molecule from HDF5

_cell_length_a		16.389137
_cell_length_b		16.140245
_cell_length_c		16.277375
_cell_angle_alpha	89.842886
_cell_angle_beta	90.147387
_cell_angle_gamma	89.882986
_symmetry_space_group_name_H-M	'P 1'
_symmetry_Int_Tables_number		1

loop_
	_symmetry_equiv_pos_as_xyz
	x,y,z

loop_
	_atom_site_label
	_atom_site_type_symbol
	_atom_site_fract_x
	_atom_site_fract_y
	_atom_site_fract_z
	H0	H	0.404907	0.832746	0.712349
	H1	H	0.600228	0.163324	0.711146
	H2	H	0.599792	0.833321	0.285981
	H3	H	0.402176	0.163151	0.283532
	H4	H	0.716872	0.396540	0.835733
	H5	H	0.716333	0.599276	0.160952
	H6	H	0.283008	0.600252	0.834939
	H7	H	0.285868	0.398417	0.161886
	H8	H	0.838517	0.714407	0.400083
	H9	H	0.165286	0.709127	0.594655
	H10	H	0.838054	0.283017	0.596294
	H11	H	0.164668	0.285006	0.402752
	H12	H	0.838132	0.396977	0.712941
	H13	H	0.162846	0.596806	0.715213
	H14	H	0.836953	0.598171	0.283052
	H15	H	0.162949	0.397716	0.282067
	H16	H	0.402378	0.712519	0.832923
	H17	H	0.596171	0.710491	0.162651
	H18	H	0.595300	0.287769	0.832985
	H19	H	0.404056	0.284918	0.162397
	H20	H	0.717418	0.834334	0.399147
	H21	H	0.715949	0.162313	0.597940
	H22	H	0.289193	0.833056	0.598445
	H23	H	0.284079	0.161917	0.395944
	H24	H	0.902833	0.333320	0.211987
	H25	H	0.097260	0.663937	0.210925
	H26	H	0.096286	0.332509	0.787319
	H27	H	0.901057	0.662320	0.782670
	H28	H	0.218265	0.896355	0.336341
	H29	H	0.218619	0.098300	0.661934
	H30	H	0.784752	0.100206	0.336415
	H31	H	0.786582	0.897011	0.661420
	H32	H	0.337019	0.212779	0.899651
	H33	H	0.664689	0.213605	0.095595
	H34	H	0.337148	0.785247	0.096493
	H35	H	0.663544	0.784664	0.902624
	H36	H	0.338850	0.898846	0.214632
	H37	H	0.664360	0.099331	0.215034
	H38	H	0.338909	0.098718	0.780470
	H39	H	0.664581	0.901047	0.785896
	H40	H	0.904226	0.211592	0.334711
	H41	H	0.099149	0.211130	0.663403
	H42	H	0.100591	0.784270	0.334976
	H43	H	0.906414	0.785057	0.662767
	H44	H	0.214603	0.333394	0.898640
	H45	H	0.214806	0.663137	0.097850
	H46	H	0.785748	0.334215	0.098507
	H47	H	0.786107	0.663117	0.898376
	H48	H	0.408671	0.115509	0.590957
	H49	H	0.596609	0.878175	0.598646
	H50	H	0.591408	0.115436	0.406801
	H51	H	0.408600	0.876767	0.394422
	H52	H	0.586384	0.408243	0.112562
	H53	H	0.590362	0.598240	0.879698
	H54	H	0.414794	0.603381	0.114995
	H55	H	0.401976	0.414389	0.882768
	H56	H	0.112885	0.581811	0.406281
	H57	H	0.889218	0.583952	0.584660
	H58	H	0.115075	0.408231	0.593034
	H59	H	0.889418	0.416539	0.409617
	H60	H	0.117667	0.404132	0.596820
	H61	H	0.883020	0.588691	0.600528
	H62	H	0.118666	0.591054	0.395920
	H63	H	0.881809	0.405023	0.393118
	H64	H	0.391761	0.592448	0.119521
	H65	H	0.601065	0.589794	0.880178
	H66	H	0.595743	0.399474	0.116809
	H67	H	0.412949	0.404953	0.882868
	H68	H	0.595036	0.115441	0.408347
	H69	H	0.589480	0.882034	0.590140
	H70	H	0.412684	0.114741	0.588524
	H71	H	0.422040	0.886171	0.411700
	H72	H	0.897840	0.619977	0.093368
	H73	H	0.094301	0.379258	0.096308
	H74	H	0.089190	0.612788	0.913073
	H75	H	0.905471	0.382908	0.914758
	H76	H	0.097681	0.902622	0.616745
	H77	H	0.083167	0.087726	0.387170
	H78	H	0.906019	0.084072	0.614283
	H79	H	0.920137	0.900121	0.383693
	H80	H	0.615118	0.088455	0.907113
	H81	H	0.387063	0.093021	0.087504
	H82	H	0.616710	0.898989	0.087153
	H83	H	0.387692	0.913358	0.905274
	H84	H	0.613834	0.911386	0.089718
	H85	H	0.387836	0.087133	0.091856
	H86	H	0.618741	0.093011	0.897393
	H87	H	0.382461	0.905770	0.897626
	H88	H	0.913513	0.090785	0.614757
	H89	H	0.096781	0.100529	0.379276
	H90	H	0.097958	0.906615	0.615921
	H91	H	0.896590	0.900837	0.377320
	H92	H	0.099271	0.617721	0.905733
	H93	H	0.087345	0.383517	0.088633
	H94	H	0.915262	0.614819	0.096374
	H95	H	0.900235	0.377180	0.901400
	H96	H	0.408075	0.114942	0.585820
	H97	H	0.600398	0.880361	0.587445
	H98	H	0.594648	0.116911	0.404788
	H99	H	0.399144	0.881124	0.415559
	H100	H	0.599298	0.413103	0.114630
	H101	H	0.588993	0.585751	0.883798
	H102	H	0.411034	0.577674	0.109009
	H103	H	0.400315	0.400719	0.878932
	H104	H	0.115445	0.596440	0.409644
	H105	H	0.882790	0.600944	0.587747
	H106	H	0.116751	0.402462	0.590567
	H107	H	0.885079	0.395882	0.412224
	H108	H	0.907845	0.612515	0.079456
	H109	H	0.098211	0.381025	0.085682
	H110	H	0.087583	0.615377	0.899661
	H111	H	0.914717	0.381478	0.903108
	H112	H	0.094814	0.904346	0.614804
	H113	H	0.101844	0.081765	0.382869
	H114	H	0.904896	0.093555	0.618267
	H115	H	0.908424	0.921227	0.385759
	H116	H	0.617488	0.099100	0.906783
	H117	H	0.384423	0.093260	0.094491
	H118	H	0.619159	0.904164	0.099683
	H119	H	0.385186	0.902766	0.908758
	C120	C	0.381473	0.006164	0.618668
	C121	C	0.623555	0.989328	0.620193
	C122	C	0.622691	0.006997	0.378000
	C123	C	0.379881	0.989826	0.377152
	C124	C	0.621852	0.377621	0.006327
	C125	C	0.621501	0.620086	0.989558
	C126	C	0.377607	0.620426	0.006148
	C127	C	0.377683	0.377129	0.989788
	C128	C	0.008751	0.620035	0.375566
	C129	C	0.992611	0.619412	0.620159
	C130	C	0.008820	0.375786	0.621031
	C131	C	0.992646	0.376177	0.376155
	C132	C	0.878781	0.506918	0.119114
	C133	C	0.121364	0.489965	0.119058
	C134	C	0.120689	0.506537	0.877440
	C135	C	0.878280	0.489500	0.876944
	C136	C	0.124337	0.876091	0.507602
	C137	C	0.123256	0.119037	0.490930
	C138	C	0.879466	0.119554	0.507721
	C139	C	0.880101	0.877454	0.490210
	C140	C	0.509134	0.121265	0.875146
	C141	C	0.493623	0.120517	0.119920
	C142	C	0.509029	0.876286	0.120872
	C143	C	0.492696	0.877749	0.876236
	C144	C	0.384479	0.882175	0.674588
	C145	C	0.620595	0.113881	0.673967
	C146	C	0.620404	0.882705	0.323343
	C147	C	0.381666	0.113740	0.321234
	C148	C	0.677224	0.378342	0.883708
	C149	C	0.677207	0.618366	0.112554
	C150	C	0.321599	0.619738	0.883354
	C151	C	0.323395	0.378696	0.112889
	C152	C	0.886458	0.676079	0.378908
	C153	C	0.115876	0.672805	0.616469
	C154	C	0.886550	0.320839	0.616976
	C155	C	0.115432	0.321738	0.380763
	C156	C	0.886611	0.377443	0.675278
	C157	C	0.114765	0.616820	0.676264
	C158	C	0.885921	0.618505	0.320666
	C159	C	0.114621	0.377868	0.320736
	C160	C	0.380860	0.675745	0.882502
	C161	C	0.617788	0.673949	0.113335
	C162	C	0.617377	0.323576	0.882760
	C163	C	0.382335	0.322648	0.113384
	C164	C	0.678622	0.883270	0.379710
	C165	C	0.678154	0.113378	0.617804
	C166	C	0.326668	0.882210	0.618022
	C167	C	0.322712	0.113004	0.377039
	C168	C	0.881949	0.382622	0.174308
	C169	C	0.117829	0.614691	0.173290
	C170	C	0.117500	0.381831	0.824027
	C171	C	0.880806	0.613296	0.820863
	C172	C	0.179866	0.877079	0.384819
	C173	C	0.179851	0.117855	0.613481
	C174	C	0.823305	0.119603	0.385100
	C175	C	0.824808	0.877771	0.612875
	C176	C	0.386026	0.175282	0.878648
	C177	C	0.616166	0.175760	0.116710
	C178	C	0.386311	0.822296	0.117423
	C179	C	0.614981	0.822439	0.880732
	C180	C	0.387098	0.878789	0.176309
	C181	C	0.615929	0.119154	0.176272
	C182	C	0.387219	0.119044	0.818980
	C183	C	0.615553	0.880201	0.823018
	C184	C	0.883054	0.174575	0.384083
	C185	C	0.120502	0.173799	0.614321
	C186	C	0.120933	0.821583	0.384094
	C187	C	0.884524	0.822368	0.613705
	C188	C	0.176421	0.382646	0.879217
	C189	C	0.176339	0.614325	0.117115
	C190	C	0.823729	0.383102	0.117941
	C191	C	0.823538	0.613740	0.878307
	C192	C	0.403383	0.092769	0.595269
	C193	C	0.601842	0.902610	0.598364
	C194	C	0.600239	0.093380	0.400119
	C195	C	0.403081	0.903711	0.400419
	C196	C	0.600260	0.400177	0.092480
	C197	C	0.599768	0.597806	0.903573
	C198	C	0.399373	0.597832	0.092223
	C199	C	0.398729	0.399892	0.903685
	C200	C	0.093680	0.596804	0.397425
	C201	C	0.907128	0.597746	0.597781
	C202	C	0.094492	0.398314	0.599658
	C203	C	0.907352	0.399097	0.398384
	C204	C	0.900447	0.593388	0.096301
	C205	C	0.099718	0.403623	0.096799
	C206	C	0.098400	0.593070	0.899498
	C207	C	0.900357	0.402745	0.899856
	C208	C	0.103062	0.898010	0.593457
	C209	C	0.100672	0.096534	0.405396
	C210	C	0.901566	0.096411	0.593436
	C211	C	0.901958	0.900538	0.404514
	C212	C	0.594903	0.099926	0.897298
	C213	C	0.408538	0.097619	0.097928
	C214	C	0.594466	0.898511	0.098957
	C215	C	0.407137	0.900572	0.897670
	Zn216	Zn	0.501991	-0.001158	0.746687
	Zn217	Zn	0.501690	-0.001400	0.249292
	Zn218	Zn	0.750080	0.498489	-0.002042
	Zn219	Zn	0.249208	0.498754	-0.001966
	Zn220	Zn	0.002096	0.748811	0.498333
	Zn221	Zn	0.000957	0.247518	0.499566
	Zn222	Zn	-0.000322	0.497313	0.749316
	Zn223	Zn	0.000106	0.498306	0.246633
	Zn224	Zn	0.499861	0.748124	-0.002021
	Zn225	Zn	0.500530	0.249766	-0.002034
	Zn226	Zn	0.751073	-0.001697	0.499161
	Zn227	Zn	0.252201	-0.002427	0.498694
	N228	N	0.417846	0.960339	0.674931
	N229	N	0.587179	0.035846	0.675558
	N230	N	0.586242	0.960624	0.321935
	N231	N	0.416579	0.036130	0.321148
	N232	N	0.680056	0.411152	0.961598
	N233	N	0.679534	0.585429	0.034767
	N234	N	0.319475	0.586263	0.961169
	N235	N	0.320617	0.412140	0.034999
	N236	N	0.963605	0.677245	0.412286
	N237	N	0.039000	0.674836	0.582379
	N238	N	0.963631	0.319864	0.583863
	N239	N	0.038503	0.320571	0.414576
	N240	N	0.963760	0.410687	0.677999
	N241	N	0.037221	0.584282	0.678465
	N242	N	0.962984	0.584392	0.318435
	N243	N	0.037156	0.410844	0.317784
	N244	N	0.415147	0.676263	0.959885
	N245	N	0.583742	0.674907	0.036020
	N246	N	0.583191	0.323564	0.959940
	N247	N	0.415198	0.321394	0.035820
	N248	N	0.680107	0.961480	0.412941
	N249	N	0.680200	0.034941	0.585014
	N250	N	0.324779	0.960331	0.583779
	N251	N	0.321646	0.034970	0.411104
	N252	N	0.915634	0.460636	0.174838
	N253	N	0.084548	0.536632	0.174836
	N254	N	0.083615	0.459865	0.822670
	N255	N	0.914184	0.535021	0.820041
	N256	N	0.182085	0.910289	0.462402
	N257	N	0.181500	0.084342	0.535814
	N258	N	0.821009	0.085990	0.462865
	N259	N	0.821996	0.911143	0.534998
	N260	N	0.462745	0.176796	0.913041
	N261	N	0.539258	0.176855	0.082725
	N262	N	0.463161	0.820665	0.083582
	N263	N	0.537562	0.821008	0.913291
	N264	N	0.464510	0.911648	0.178534
	N265	N	0.538815	0.085441	0.178376
	N266	N	0.464883	0.086432	0.816644
	N267	N	0.538448	0.914033	0.820272
	N268	N	0.917418	0.174563	0.461293
	N269	N	0.085998	0.174921	0.537215
	N270	N	0.087123	0.820736	0.461435
	N271	N	0.918145	0.821949	0.536437
	N272	N	0.178478	0.461135	0.912032
	N273	N	0.178453	0.535870	0.084005
	N274	N	0.821695	0.461337	0.084277
	N275	N	0.821911	0.535645	0.912479
	O276	O	1.059328	0.980328	0.105775
	H277	H	1.055074	0.986594	0.104299
	H278	H	1.066938	0.986144	0.116484
	O279	O	-0.027575	-0.001439	0.028993
	H280	H	-0.025312	0.000189	0.024473
	H281	H	-0.031007	0.004070	0.030437
	O282	O	0.003528	0.030372	1.024997
	H283	H	0.004162	0.029353	1.018362
	H284	H	0.006789	0.027715	1.022286
	O285	O	0.484181	0.514018	0.419801
	H286	H	0.484103	0.517494	0.413499
	H287	H	0.486772	0.527255	0.429246
	O288	O	0.465883	0.488187	0.430376
	H289	H	0.462619	0.494547	0.415754
	H290	H	0.476166	0.491381	0.426295
	O291	O	0.500869	0.452553	0.476696
	H292	H	0.501677	0.450714	0.476196
	H293	H	0.495137	0.448299	0.475760
	O294	O	-0.010088	-0.032922	0.062996
	H295	H	-0.018426	-0.042359	0.069996
	H296	H	-0.015562	-0.036046	0.054426
	O297	O	0.517408	0.486123	0.424374
	H298	H	0.522105	0.479044	0.427209
	H299	H	0.514764	0.487821	0.435124
	O300	O	0.029217	0.983932	1.033985
	H301	H	0.033662	0.983685	1.026531
	H302	H	0.029546	0.988207	1.030453
	O303	O	0.493199	0.489128	0.500622
	H304	H	0.489908	0.489448	0.502181
	H305	H	0.484318	0.487346	0.504061
	O306	O	0.060135	0.046835	1.069032
	H307	H	0.053456	0.042115	1.065276
	H308	H	0.064438	0.045450	1.085912
	O309	O	1.064998	1.106853	1.070435
	H310	H	1.065349	1.109310	1.080308
	H311	H	1.064730	1.117378	1.074237
	O312	O	0.454460	0.473481	0.448192
	H313	H	0.457317	0.480591	0.432298
	H314	H	0.453637	0.475119	0.433508
	O315	O	0.450429	0.442964	0.481497
	H316	H	0.444117	0.438244	0.477719
	H317	H	0.442310	0.446717	0.496942
	O318	O	-0.019840	0.944416	0.050386
	H319	H	-0.023169	0.946501	0.043883
	H320	H	-0.030878	0.939215	0.058534
	O321	O	1.009905	0.985778	0.074030
	H322	H	1.018404	0.992144	0.070382
	H323	H	1.019440	0.988196	0.084149
