data_Molecule from HDF5

_cell_length_a		16.202080
_cell_length_b		16.432892
_cell_length_c		16.322405
_cell_angle_alpha	90.004468
_cell_angle_beta	89.789796
_cell_angle_gamma	90.162566
_symmetry_space_group_name_H-M	'P 1'
_symmetry_Int_Tables_number		1

loop_
	_symmetry_equiv_pos_as_xyz
	x,y,z

loop_
	_atom_site_label
	_atom_site_type_symbol
	_atom_site_fract_x
	_atom_site_fract_y
	_atom_site_fract_z
	H0	H	0.386822	0.841102	0.723794
	H1	H	0.594746	0.162097	0.718927
	H2	H	0.595648	0.840013	0.281666
	H3	H	0.390580	0.161408	0.285124
	H4	H	0.707422	0.403902	0.839712
	H5	H	0.709062	0.602046	0.165816
	H6	H	0.277484	0.603104	0.840896
	H7	H	0.276247	0.401280	0.164700
	H8	H	0.831053	0.716249	0.400126
	H9	H	0.154495	0.717774	0.607330
	H10	H	0.830968	0.279119	0.607454
	H11	H	0.155281	0.280774	0.400652
	H12	H	0.831016	0.394971	0.722915
	H13	H	0.156524	0.598957	0.717929
	H14	H	0.830468	0.601421	0.286148
	H15	H	0.155713	0.399166	0.286764
	H16	H	0.390720	0.720091	0.841392
	H17	H	0.596872	0.722930	0.162715
	H18	H	0.598197	0.282508	0.841728
	H19	H	0.388660	0.280987	0.162922
	H20	H	0.710414	0.838240	0.399059
	H21	H	0.712020	0.160462	0.602601
	H22	H	0.275376	0.838685	0.604247
	H23	H	0.274813	0.160436	0.403474
	H24	H	0.888039	0.339165	0.223519
	H25	H	0.097204	0.659358	0.224279
	H26	H	0.099609	0.339208	0.783891
	H27	H	0.890154	0.658152	0.782272
	H28	H	0.209067	0.898162	0.340912
	H29	H	0.208214	0.099354	0.665025
	H30	H	0.776439	0.100125	0.341057
	H31	H	0.772898	0.896876	0.664477
	H32	H	0.330247	0.219098	0.902325
	H33	H	0.655716	0.221144	0.106830
	H34	H	0.332140	0.781602	0.106376
	H35	H	0.653853	0.783048	0.894561
	H36	H	0.329745	0.899226	0.219000
	H37	H	0.656129	0.102213	0.219033
	H38	H	0.329034	0.104470	0.786289
	H39	H	0.654853	0.901921	0.783486
	H40	H	0.885884	0.220348	0.344021
	H41	H	0.098343	0.219397	0.662783
	H42	H	0.097324	0.777158	0.343248
	H43	H	0.887029	0.778482	0.664316
	H44	H	0.213982	0.340234	0.901305
	H45	H	0.211376	0.661474	0.104776
	H46	H	0.773350	0.339305	0.105249
	H47	H	0.778331	0.661712	0.902077
	H48	H	0.402206	0.113235	0.588708
	H49	H	0.576093	0.887906	0.595030
	H50	H	0.582171	0.112650	0.413595
	H51	H	0.405000	0.889466	0.416742
	H52	H	0.579525	0.414531	0.115573
	H53	H	0.582829	0.591624	0.888406
	H54	H	0.400543	0.595019	0.118817
	H55	H	0.404861	0.414687	0.889376
	H56	H	0.108361	0.582708	0.409422
	H57	H	0.878542	0.586495	0.593275
	H58	H	0.107762	0.410272	0.595023
	H59	H	0.877475	0.410728	0.411646
	H60	H	0.110488	0.403970	0.594009
	H61	H	0.876887	0.587913	0.595421
	H62	H	0.110523	0.595518	0.412668
	H63	H	0.876406	0.403875	0.414074
	H64	H	0.402534	0.587985	0.115567
	H65	H	0.584519	0.595848	0.887559
	H66	H	0.578600	0.405152	0.118532
	H67	H	0.408209	0.406918	0.887572
	H68	H	0.586322	0.113931	0.412007
	H69	H	0.582773	0.887677	0.588618
	H70	H	0.394482	0.116811	0.595756
	H71	H	0.393160	0.883198	0.410389
	H72	H	0.907908	0.611548	0.094078
	H73	H	0.089004	0.385245	0.093865
	H74	H	0.086951	0.613768	0.915132
	H75	H	0.904354	0.385266	0.909653
	H76	H	0.083118	0.907869	0.617957
	H77	H	0.086245	0.094896	0.385991
	H78	H	0.901914	0.084147	0.616661
	H79	H	0.905110	0.906476	0.389381
	H80	H	0.607500	0.094089	0.914351
	H81	H	0.373857	0.098405	0.097925
	H82	H	0.603703	0.921274	0.086926
	H83	H	0.377102	0.915517	0.908630
	H84	H	0.612161	0.912780	0.100397
	H85	H	0.379725	0.094056	0.085150
	H86	H	0.606987	0.089677	0.909552
	H87	H	0.374656	0.904796	0.911797
	H88	H	0.907229	0.088614	0.615684
	H89	H	0.085429	0.083668	0.389483
	H90	H	0.080287	0.906561	0.618133
	H91	H	0.903786	0.904112	0.388214
	H92	H	0.085441	0.614930	0.906081
	H93	H	0.080670	0.386063	0.098560
	H94	H	0.899316	0.613470	0.092426
	H95	H	0.902877	0.386756	0.916984
	H96	H	0.404287	0.114386	0.599366
	H97	H	0.584102	0.884546	0.597290
	H98	H	0.583106	0.113768	0.409162
	H99	H	0.405311	0.884488	0.403260
	H100	H	0.587249	0.409307	0.119770
	H101	H	0.587482	0.592522	0.887643
	H102	H	0.408868	0.593694	0.116147
	H103	H	0.400178	0.408445	0.886689
	H104	H	0.104661	0.587318	0.421314
	H105	H	0.877121	0.588815	0.592823
	H106	H	0.107099	0.407325	0.588691
	H107	H	0.878666	0.409279	0.418594
	H108	H	0.902101	0.615634	0.100352
	H109	H	0.081793	0.388761	0.089396
	H110	H	0.078185	0.611547	0.911964
	H111	H	0.898263	0.384801	0.913046
	H112	H	0.082459	0.905051	0.619215
	H113	H	0.075264	0.090759	0.390509
	H114	H	0.900591	0.091062	0.619259
	H115	H	0.901985	0.906820	0.388451
	H116	H	0.610165	0.095310	0.908112
	H117	H	0.379508	0.084762	0.096625
	H118	H	0.609162	0.904501	0.085328
	H119	H	0.378917	0.912098	0.918992
	C120	C	0.369601	0.008830	0.625167
	C121	C	0.612984	0.992473	0.623425
	C122	C	0.615082	0.007838	0.379964
	C123	C	0.370875	0.991949	0.380715
	C124	C	0.613911	0.379923	0.011498
	C125	C	0.615821	0.624083	0.994103
	C126	C	0.372625	0.623024	0.011030
	C127	C	0.372327	0.379785	0.994433
	C128	C	0.001024	0.619453	0.383193
	C129	C	0.984640	0.618729	0.624296
	C130	C	0.001585	0.376086	0.624634
	C131	C	0.984412	0.377212	0.382675
	C132	C	0.871195	0.507916	0.126205
	C133	C	0.115050	0.492063	0.125038
	C134	C	0.115679	0.507906	0.880890
	C135	C	0.871868	0.491270	0.881771
	C136	C	0.113631	0.876077	0.511817
	C137	C	0.113704	0.120416	0.494640
	C138	C	0.871705	0.119541	0.511458
	C139	C	0.870927	0.875283	0.494668
	C140	C	0.500651	0.123342	0.881258
	C141	C	0.485071	0.123098	0.123916
	C142	C	0.501297	0.881055	0.122446
	C143	C	0.484102	0.880932	0.881025
	C144	C	0.368670	0.888706	0.684096
	C145	C	0.613843	0.113797	0.680059
	C146	C	0.614706	0.887647	0.321452
	C147	C	0.371342	0.113185	0.324120
	C148	C	0.670774	0.382184	0.888946
	C149	C	0.671458	0.622608	0.116544
	C150	C	0.315011	0.622952	0.889496
	C151	C	0.314459	0.380957	0.116086
	C152	C	0.879373	0.677390	0.381900
	C153	C	0.106221	0.677885	0.625349
	C154	C	0.879664	0.317868	0.626488
	C155	C	0.106431	0.319805	0.381556
	C156	C	0.879790	0.375841	0.683573
	C157	C	0.107383	0.618617	0.680386
	C158	C	0.879088	0.619832	0.325138
	C159	C	0.106822	0.378554	0.324983
	C160	C	0.371444	0.681298	0.889871
	C161	C	0.616122	0.683084	0.115110
	C162	C	0.615946	0.322150	0.889859
	C163	C	0.370327	0.321319	0.115252
	C164	C	0.672234	0.886934	0.379604
	C165	C	0.672187	0.112964	0.622268
	C166	C	0.313013	0.887427	0.624598
	C167	C	0.313413	0.112724	0.382647
	C168	C	0.869742	0.387236	0.183994
	C169	C	0.115756	0.612079	0.184092
	C170	C	0.117781	0.387525	0.823051
	C171	C	0.871692	0.610988	0.822227
	C172	C	0.171175	0.877386	0.389917
	C173	C	0.170738	0.119749	0.616197
	C174	C	0.814187	0.119841	0.389844
	C175	C	0.812178	0.876728	0.616111
	C176	C	0.378650	0.180613	0.882265
	C177	C	0.607187	0.181307	0.124740
	C178	C	0.380083	0.821389	0.124614
	C179	C	0.605656	0.822745	0.877992
	C180	C	0.378906	0.880040	0.180611
	C181	C	0.607256	0.122434	0.181055
	C182	C	0.377887	0.123204	0.824961
	C183	C	0.606128	0.881560	0.822115
	C184	C	0.868811	0.179834	0.391510
	C185	C	0.115940	0.179337	0.615182
	C186	C	0.115185	0.817625	0.390747
	C187	C	0.868853	0.817719	0.616035
	C188	C	0.174721	0.387798	0.881698
	C189	C	0.172684	0.613066	0.124706
	C190	C	0.812273	0.387375	0.125574
	C191	C	0.815889	0.612651	0.882042
	C192	C	0.393360	0.092771	0.601431
	C193	C	0.588259	0.908592	0.600453
	C194	C	0.591101	0.091803	0.404617
	C195	C	0.394438	0.907614	0.403401
	C196	C	0.588980	0.402951	0.096010
	C197	C	0.592077	0.600337	0.909765
	C198	C	0.396878	0.599104	0.095069
	C199	C	0.397009	0.403175	0.909831
	C200	C	0.085808	0.595583	0.407493
	C201	C	0.899601	0.594690	0.600670
	C202	C	0.086418	0.400209	0.599905
	C203	C	0.899528	0.400881	0.407388
	C204	C	0.895908	0.591757	0.102571
	C205	C	0.090795	0.408300	0.100905
	C206	C	0.090837	0.591747	0.904437
	C207	C	0.895085	0.407281	0.906125
	C208	C	0.089088	0.899614	0.596207
	C209	C	0.089242	0.096658	0.410501
	C210	C	0.896180	0.094984	0.595357
	C211	C	0.896242	0.898946	0.410412
	C212	C	0.586058	0.099793	0.904013
	C213	C	0.399822	0.099423	0.100032
	C214	C	0.586213	0.905749	0.097967
	C215	C	0.398942	0.904222	0.905839
	Zn216	Zn	0.491395	0.001958	0.753351
	Zn217	Zn	0.492746	0.001025	0.251183
	Zn218	Zn	0.742834	0.500758	0.003352
	Zn219	Zn	0.244147	0.501679	0.002485
	Zn220	Zn	-0.007419	0.746939	0.504245
	Zn221	Zn	-0.007391	0.247897	0.503377
	Zn222	Zn	-0.006175	0.498329	0.752347
	Zn223	Zn	-0.007064	0.499331	0.254522
	Zn224	Zn	0.493297	0.752132	0.001631
	Zn225	Zn	0.493477	0.250783	0.002394
	Zn226	Zn	0.743268	-0.001136	0.502510
	Zn227	Zn	0.241236	-0.000838	0.503618
	N228	N	0.403238	0.965259	0.684665
	N229	N	0.577881	0.038016	0.681075
	N230	N	0.580068	0.963833	0.321534
	N231	N	0.406196	0.036924	0.322840
	N232	N	0.669735	0.417318	0.965470
	N233	N	0.671700	0.587046	0.040389
	N234	N	0.315522	0.587454	0.965816
	N235	N	0.315518	0.416305	0.039823
	N236	N	0.956196	0.677156	0.417434
	N237	N	0.028792	0.677904	0.591169
	N238	N	0.956305	0.317989	0.590646
	N239	N	0.029141	0.318936	0.416811
	N240	N	0.956742	0.411321	0.682573
	N241	N	0.030873	0.582359	0.679768
	N242	N	0.956000	0.584915	0.325447
	N243	N	0.029845	0.413296	0.325381
	N244	N	0.406651	0.681489	0.966287
	N245	N	0.582370	0.684153	0.037897
	N246	N	0.581496	0.320297	0.967124
	N247	N	0.405920	0.320758	0.038630
	N248	N	0.672564	0.962796	0.415410
	N249	N	0.671767	0.036619	0.587652
	N250	N	0.313387	0.963065	0.588759
	N251	N	0.313007	0.036388	0.417029
	N252	N	0.905582	0.463229	0.184504
	N253	N	0.080799	0.535764	0.184430
	N254	N	0.082032	0.463337	0.822151
	N255	N	0.905678	0.534394	0.821699
	N256	N	0.170294	0.912979	0.466122
	N257	N	0.169385	0.083495	0.540331
	N258	N	0.816081	0.082776	0.465254
	N259	N	0.813063	0.911674	0.539571
	N260	N	0.456010	0.180772	0.916484
	N261	N	0.530024	0.181753	0.089893
	N262	N	0.457147	0.821942	0.089015
	N263	N	0.528610	0.822153	0.913848
	N264	N	0.455359	0.916516	0.179296
	N265	N	0.530337	0.087047	0.180704
	N266	N	0.454987	0.088439	0.823951
	N267	N	0.529552	0.917030	0.823952
	N268	N	0.903883	0.179885	0.468089
	N269	N	0.081065	0.179876	0.538577
	N270	N	0.080403	0.816502	0.467769
	N271	N	0.904458	0.816557	0.539428
	N272	N	0.173636	0.463847	0.916838
	N273	N	0.172498	0.537415	0.088688
	N274	N	0.812954	0.463419	0.090452
	N275	N	0.815974	0.537273	0.918454
	O276	O	0.926123	0.853951	0.968930
	H277	H	0.925680	0.865965	0.978549
	H278	H	0.915516	0.846432	0.972653
	O279	O	0.415734	0.508853	0.565253
	H280	H	0.391163	0.500611	0.562681
	H281	H	0.425169	0.510583	0.568995
	O282	O	1.178615	-0.133839	0.876915
	H283	H	1.174502	-0.130681	0.873690
	H284	H	1.189077	-0.138653	0.875900
	O285	O	0.471306	0.510316	0.536241
	H286	H	0.489301	0.496917	0.526194
	H287	H	0.465220	0.520702	0.531031
	O288	O	0.806702	0.821306	1.071140
	H289	H	0.789373	0.820414	1.077327
	H290	H	0.808104	0.825317	1.085801
	O291	O	0.033225	-0.041621	0.846111
	H292	H	0.020687	-0.022022	0.850071
	H293	H	0.032575	-0.053395	0.836731
	O294	O	0.356446	0.543263	0.482547
	H295	H	0.366569	0.542237	0.468647
	H296	H	0.345597	0.546396	0.466843
	O297	O	0.524807	0.587566	0.591922
	H298	H	0.532427	0.582991	0.581735
	H299	H	0.534806	0.601068	0.593385
	O300	O	0.163875	0.127668	0.117128
	H301	H	0.162827	0.120293	0.102657
	H302	H	0.165838	0.121777	0.100367
	O303	O	0.986869	0.077271	-0.038322
	H304	H	0.985156	0.067589	-0.029585
	H305	H	0.996589	0.073683	-0.045850
	O306	O	0.464219	0.492449	0.670496
	H307	H	0.457657	0.503889	0.673077
	H308	H	0.454081	0.505701	0.658358
	O309	O	0.609589	0.388670	0.315975
	H310	H	0.616791	0.396461	0.307511
	H311	H	0.610304	0.366511	0.310815
	O312	O	-0.075960	-0.140717	0.062216
	H313	H	-0.061769	-0.135119	0.072900
	H314	H	-0.081503	-0.132642	0.066244
	O315	O	0.533172	0.559165	0.613563
	H316	H	0.530042	0.535594	0.606363
	H317	H	0.528108	0.572417	0.609306
	O318	O	-0.083706	0.972234	0.855639
	H319	H	-0.091202	0.967563	0.880011
	H320	H	-0.089011	0.961836	0.846738
	O321	O	0.482999	0.344903	0.361074
	H322	H	0.486766	0.343839	0.349908
	H323	H	0.479848	0.344581	0.363303
	O324	O	-0.006748	1.093411	-0.091072
	H325	H	-0.016453	1.078386	-0.099498
	H326	H	-0.004772	1.088053	-0.091847
	O327	O	1.412001	0.655950	-0.679344
	H328	H	1.418429	0.666856	-0.672947
	H329	H	1.414064	0.662140	-0.681974
	O330	O	0.002965	-0.067751	1.047138
	H331	H	0.004797	-0.069586	1.038081
	H332	H	0.002000	-0.067915	1.057435
	O333	O	-0.197611	-0.025076	1.163098
	H334	H	-0.204316	-0.019396	1.187692
	H335	H	-0.172086	-0.023117	1.169929
	O336	O	0.357655	0.622990	0.434569
	H337	H	0.349216	0.615549	0.437399
	H338	H	0.350488	0.604460	0.432698
	O339	O	0.974405	0.007880	-0.108547
	H340	H	0.952785	-0.000407	-0.108059
	H341	H	0.986779	0.001863	-0.107441
	O342	O	0.126264	0.135153	-0.065249
	H343	H	0.100441	0.144231	-0.073871
	H344	H	0.124821	0.137422	-0.070499
	O345	O	1.435915	0.415186	1.458348
	H346	H	1.431460	0.409757	1.467075
	H347	H	1.441583	0.415779	1.454656
	O348	O	1.057771	0.868930	0.150638
	H349	H	1.062528	0.877910	0.154412
	H350	H	1.063217	0.854074	0.153628
	O351	O	0.505022	0.367138	0.576483
	H352	H	0.504263	0.361010	0.583618
	H353	H	0.504124	0.374330	0.587837
	O354	O	1.081120	0.187029	1.197064
	H355	H	1.098977	0.190096	1.178902
	H356	H	1.080921	0.207508	1.206926
	O357	O	0.343830	0.444920	0.532203
	H358	H	0.351347	0.455447	0.523325
	H359	H	0.347241	0.450032	0.538385
	O360	O	0.515630	0.473342	0.529766
	H361	H	0.510701	0.482169	0.539123
	H362	H	0.506387	0.477579	0.538067
	O363	O	0.054879	1.081641	1.004894
	H364	H	0.042118	1.073309	0.998874
	H365	H	0.048643	1.080334	1.001241
	O366	O	0.589916	0.489902	0.483898
	H367	H	0.596296	0.495877	0.492010
	H368	H	0.579433	0.486135	0.491936
	O369	O	-0.368620	0.512688	0.344534
	H370	H	-0.358006	0.516525	0.327848
	H371	H	-0.366396	0.499059	0.341749
	O372	O	0.675273	0.566922	0.572486
	H373	H	0.675304	0.559658	0.571816
	H374	H	0.691855	0.561147	0.556482
	O375	O	0.459452	0.497569	0.530585
	H376	H	0.456072	0.491869	0.539082
	H377	H	0.442845	0.515813	0.524635
	O378	O	1.180700	1.019005	0.197565
	H379	H	1.186505	1.011446	0.204798
	H380	H	1.188319	1.037453	0.186662
	O381	O	1.010292	0.056802	0.034231
	H382	H	0.999471	0.046707	0.055224
	H383	H	1.006857	0.050943	0.027694
	O384	O	0.650633	1.600167	-0.454107
	H385	H	0.656539	1.602079	-0.446749
	H386	H	0.659003	1.581244	-0.453630
	O387	O	-0.072714	-0.195945	0.153830
	H388	H	-0.075436	-0.187154	0.162385
	H389	H	-0.074295	-0.212889	0.159806
	O390	O	-0.064115	1.196790	-0.134629
	H391	H	-0.068423	1.200497	-0.138499
	H392	H	-0.073920	1.208109	-0.142024
	O393	O	1.541661	0.629719	0.454693
	H394	H	1.547018	0.652170	0.464614
	H395	H	1.541986	0.625682	0.448566
	O396	O	0.469980	0.475584	0.561061
	H397	H	0.478271	0.483690	0.571471
	H398	H	0.470020	0.469708	0.568025
	O399	O	0.061056	0.951597	1.038765
	H400	H	0.072069	0.947560	1.045508
	H401	H	0.056891	0.955447	1.041721
	O402	O	0.347187	0.494190	0.571597
	H403	H	0.352029	0.491679	0.575105
	H404	H	0.345139	0.482615	0.571462
	O405	O	0.885552	1.107444	-0.036657
	H406	H	0.872954	1.104119	-0.032477
	H407	H	0.885085	1.111803	-0.042669
	O408	O	0.839558	1.138125	-0.069359
	H409	H	0.843879	1.143347	-0.062039
	H410	H	0.823741	1.135998	-0.075350
	O411	O	0.971609	-0.091989	0.845437
	H412	H	0.984440	-0.097515	0.845732
	H413	H	0.977262	-0.082450	0.841872
	O414	O	-0.016807	0.043766	1.184947
	H415	H	-0.001089	0.037475	1.179703
	H416	H	-0.000029	0.051237	1.182394
	O417	O	0.624542	0.329738	0.359895
	H418	H	0.609397	0.329991	0.358190
	H419	H	0.624415	0.319271	0.387524
