data_Molecule from HDF5

_cell_length_a		16.162558
_cell_length_b		16.294620
_cell_length_c		16.275138
_cell_angle_alpha	89.989846
_cell_angle_beta	89.684236
_cell_angle_gamma	89.948812
_symmetry_space_group_name_H-M	'P 1'
_symmetry_Int_Tables_number		1

loop_
	_symmetry_equiv_pos_as_xyz
	x,y,z

loop_
	_atom_site_label
	_atom_site_type_symbol
	_atom_site_fract_x
	_atom_site_fract_y
	_atom_site_fract_z
	H0	H	0.401773	0.837583	0.709253
	H1	H	0.601552	0.164183	0.708709
	H2	H	0.603300	0.838084	0.277348
	H3	H	0.403052	0.163974	0.278128
	H4	H	0.718821	0.401684	0.830859
	H5	H	0.712941	0.597669	0.158507
	H6	H	0.291555	0.598913	0.829370
	H7	H	0.286775	0.402184	0.157634
	H8	H	0.837839	0.716466	0.395610
	H9	H	0.167270	0.714777	0.590205
	H10	H	0.837699	0.287371	0.595317
	H11	H	0.166029	0.287700	0.394634
	H12	H	0.838160	0.402372	0.710748
	H13	H	0.167872	0.599830	0.705540
	H14	H	0.837784	0.601517	0.280373
	H15	H	0.166123	0.402385	0.277861
	H16	H	0.402621	0.717721	0.831291
	H17	H	0.602446	0.717552	0.156901
	H18	H	0.604555	0.285065	0.831199
	H19	H	0.401317	0.285259	0.157655
	H20	H	0.716818	0.836993	0.395588
	H21	H	0.714905	0.165314	0.590221
	H22	H	0.287291	0.837871	0.591938
	H23	H	0.288418	0.165258	0.395262
	H24	H	0.901453	0.339320	0.209930
	H25	H	0.102256	0.664867	0.209644
	H26	H	0.103345	0.338932	0.777978
	H27	H	0.903638	0.665779	0.780378
	H28	H	0.217584	0.904155	0.329288
	H29	H	0.215802	0.100425	0.657566
	H30	H	0.790145	0.098799	0.329532
	H31	H	0.788275	0.903556	0.657764
	H32	H	0.338453	0.216683	0.895256
	H33	H	0.666811	0.215402	0.093486
	H34	H	0.337318	0.787610	0.094004
	H35	H	0.667059	0.786725	0.894911
	H36	H	0.338374	0.902204	0.209749
	H37	H	0.666501	0.099600	0.207402
	H38	H	0.337405	0.099240	0.782078
	H39	H	0.667375	0.900536	0.778074
	H40	H	0.902467	0.218516	0.331011
	H41	H	0.101727	0.217873	0.657224
	H42	H	0.103396	0.785763	0.330124
	H43	H	0.901679	0.786600	0.657440
	H44	H	0.218381	0.337822	0.894903
	H45	H	0.215037	0.666388	0.090457
	H46	H	0.788888	0.337878	0.092529
	H47	H	0.786882	0.664674	0.895766
	H48	H	0.407239	0.118222	0.587007
	H49	H	0.583043	0.888342	0.583909
	H50	H	0.605198	0.122793	0.392293
	H51	H	0.414694	0.884792	0.395810
	H52	H	0.596708	0.394896	0.115440
	H53	H	0.594572	0.591261	0.878450
	H54	H	0.406936	0.596027	0.112451
	H55	H	0.411444	0.407200	0.877930
	H56	H	0.122182	0.595724	0.393773
	H57	H	0.884961	0.589755	0.591145
	H58	H	0.118046	0.411519	0.583756
	H59	H	0.885966	0.407621	0.412090
	H60	H	0.120567	0.409157	0.589195
	H61	H	0.882658	0.600249	0.590496
	H62	H	0.120336	0.599047	0.404837
	H63	H	0.886597	0.419796	0.400198
	H64	H	0.409463	0.592529	0.110630
	H65	H	0.592854	0.595834	0.877295
	H66	H	0.604479	0.414382	0.111226
	H67	H	0.411580	0.409256	0.878385
	H68	H	0.583499	0.115792	0.394186
	H69	H	0.602514	0.884650	0.577628
	H70	H	0.409889	0.117807	0.589848
	H71	H	0.411741	0.887420	0.408024
	H72	H	0.918571	0.616117	0.087377
	H73	H	0.085359	0.388472	0.086277
	H74	H	0.103108	0.622191	0.892836
	H75	H	0.912330	0.385987	0.900029
	H76	H	0.092896	0.906744	0.609400
	H77	H	0.094753	0.097746	0.376189
	H78	H	0.911932	0.103170	0.612693
	H79	H	0.914990	0.903196	0.376254
	H80	H	0.623851	0.092516	0.886760
	H81	H	0.386366	0.095184	0.080838
	H82	H	0.619993	0.910811	0.088707
	H83	H	0.390352	0.921708	0.905138
	H84	H	0.621299	0.904475	0.085631
	H85	H	0.385736	0.088745	0.089701
	H86	H	0.621830	0.105575	0.907067
	H87	H	0.379892	0.906804	0.887866
	H88	H	0.900503	0.092940	0.612736
	H89	H	0.097362	0.095623	0.377153
	H90	H	0.095596	0.907808	0.611387
	H91	H	0.904576	0.906771	0.374351
	H92	H	0.088758	0.617225	0.897704
	H93	H	0.101108	0.386590	0.078469
	H94	H	0.903784	0.617494	0.079056
	H95	H	0.912580	0.386717	0.902484
	H96	H	0.410904	0.115974	0.586399
	H97	H	0.597643	0.881050	0.597680
	H98	H	0.597153	0.114161	0.411946
	H99	H	0.403015	0.883151	0.399605
	H100	H	0.584116	0.410067	0.106541
	H101	H	0.597962	0.594197	0.876277
	H102	H	0.411463	0.596210	0.110995
	H103	H	0.412958	0.408438	0.878502
	H104	H	0.117772	0.588780	0.401778
	H105	H	0.886755	0.594025	0.581682
	H106	H	0.120164	0.405394	0.584352
	H107	H	0.881142	0.404506	0.396122
	H108	H	0.904176	0.622328	0.095819
	H109	H	0.098438	0.381310	0.095204
	H110	H	0.100718	0.617800	0.907177
	H111	H	0.910711	0.384699	0.901504
	H112	H	0.093748	0.909233	0.609419
	H113	H	0.094430	0.094895	0.377553
	H114	H	0.914221	0.088869	0.606644
	H115	H	0.911774	0.913629	0.379470
	H116	H	0.614833	0.082753	0.906266
	H117	H	0.382201	0.098913	0.089914
	H118	H	0.618235	0.909825	0.082127
	H119	H	0.384209	0.897561	0.910785
	C120	C	0.379955	0.009559	0.616025
	C121	C	0.623614	0.992618	0.615372
	C122	C	0.624783	0.009582	0.371040
	C123	C	0.380851	0.992961	0.372494
	C124	C	0.624995	0.377971	0.003088
	C125	C	0.623840	0.622652	0.985330
	C126	C	0.381197	0.623127	0.002601
	C127	C	0.381484	0.379420	0.986100
	C128	C	0.011376	0.623552	0.372030
	C129	C	0.993762	0.623215	0.615279
	C130	C	0.010712	0.380312	0.615830
	C131	C	0.993311	0.381246	0.373062
	C132	C	0.880061	0.510578	0.116187
	C133	C	0.123662	0.493658	0.114980
	C134	C	0.125981	0.510664	0.870780
	C135	C	0.881810	0.493557	0.872829
	C136	C	0.123651	0.879796	0.501884
	C137	C	0.123611	0.124016	0.485377
	C138	C	0.880513	0.123795	0.502528
	C139	C	0.881206	0.879529	0.485179
	C140	C	0.511047	0.122594	0.872079
	C141	C	0.493718	0.122095	0.114930
	C142	C	0.511069	0.879831	0.114948
	C143	C	0.493678	0.879499	0.872087
	C144	C	0.381502	0.886666	0.671297
	C145	C	0.621630	0.115534	0.670587
	C146	C	0.622877	0.886594	0.315878
	C147	C	0.382872	0.115666	0.316735
	C148	C	0.680908	0.381145	0.879753
	C149	C	0.676910	0.619268	0.109200
	C150	C	0.327486	0.620144	0.878977
	C151	C	0.324793	0.381751	0.108907
	C152	C	0.887034	0.678647	0.374923
	C153	C	0.117890	0.677591	0.611401
	C154	C	0.886995	0.325050	0.615196
	C155	C	0.117060	0.325695	0.374258
	C156	C	0.887264	0.382572	0.672480
	C157	C	0.118346	0.620405	0.668462
	C158	C	0.887047	0.621636	0.317573
	C159	C	0.117068	0.382711	0.316449
	C160	C	0.383161	0.679014	0.879786
	C161	C	0.621922	0.678952	0.108014
	C162	C	0.624268	0.322848	0.880013
	C163	C	0.382079	0.323735	0.108830
	C164	C	0.679648	0.886222	0.374581
	C165	C	0.677971	0.116040	0.611646
	C166	C	0.324685	0.886679	0.612711
	C167	C	0.325987	0.116382	0.375010
	C168	C	0.881711	0.387964	0.171915
	C169	C	0.121806	0.616318	0.171010
	C170	C	0.123583	0.387516	0.815973
	C171	C	0.883278	0.616673	0.817890
	C172	C	0.179539	0.883283	0.378344
	C173	C	0.178560	0.121555	0.608495
	C174	C	0.827076	0.120104	0.378820
	C175	C	0.825751	0.882715	0.608699
	C176	C	0.387387	0.178363	0.875250
	C177	C	0.617789	0.177090	0.112896
	C178	C	0.386788	0.825078	0.113874
	C179	C	0.617801	0.824075	0.874244
	C180	C	0.387183	0.882163	0.171261
	C181	C	0.617594	0.119663	0.169604
	C182	C	0.386888	0.120134	0.818522
	C183	C	0.617968	0.881110	0.816437
	C184	C	0.882731	0.179866	0.379640
	C185	C	0.121787	0.179662	0.608352
	C186	C	0.122796	0.824418	0.378826
	C187	C	0.882441	0.824782	0.608554
	C188	C	0.180690	0.387186	0.874002
	C189	C	0.178165	0.617065	0.111896
	C190	C	0.825828	0.387086	0.113326
	C191	C	0.825270	0.616096	0.875278
	C192	C	0.402707	0.095315	0.594218
	C193	C	0.601144	0.906839	0.592933
	C194	C	0.601993	0.095477	0.393036
	C195	C	0.403292	0.907385	0.394680
	C196	C	0.602053	0.400159	0.088757
	C197	C	0.601685	0.600350	0.899596
	C198	C	0.402725	0.601175	0.088999
	C199	C	0.405135	0.401566	0.900401
	C200	C	0.097474	0.601215	0.393721
	C201	C	0.907271	0.601157	0.594174
	C202	C	0.097345	0.402318	0.592482
	C203	C	0.907192	0.403934	0.396112
	C204	C	0.902106	0.596400	0.093847
	C205	C	0.101532	0.407827	0.093081
	C206	C	0.103925	0.596680	0.892646
	C207	C	0.904948	0.407918	0.895034
	C208	C	0.100703	0.901600	0.587860
	C209	C	0.101971	0.102368	0.399337
	C210	C	0.902576	0.101731	0.588570
	C211	C	0.903747	0.901484	0.398931
	C212	C	0.597875	0.100196	0.893645
	C213	C	0.407092	0.100574	0.093212
	C214	C	0.597536	0.901805	0.092129
	C215	C	0.407099	0.902053	0.894696
	Zn216	Zn	0.502278	0.000863	0.744200
	Zn217	Zn	0.502380	0.000885	0.242788
	Zn218	Zn	0.752122	0.501337	-0.005471
	Zn219	Zn	0.253472	0.501758	-0.006164
	Zn220	Zn	0.002086	0.750665	0.493845
	Zn221	Zn	0.001888	0.252841	0.494281
	Zn222	Zn	0.003212	0.502474	0.743650
	Zn223	Zn	0.001890	0.501982	0.244241
	Zn224	Zn	0.502102	0.751519	-0.005731
	Zn225	Zn	0.503182	0.250192	-0.005391
	Zn226	Zn	0.752686	0.001199	0.493526
	Zn227	Zn	0.251851	0.002221	0.493682
	N228	N	0.415101	0.964159	0.673413
	N229	N	0.588462	0.037793	0.672971
	N230	N	0.589489	0.964294	0.313428
	N231	N	0.416370	0.038109	0.314874
	N232	N	0.681656	0.414634	0.957381
	N233	N	0.678446	0.584969	0.031971
	N234	N	0.326085	0.586280	0.956562
	N235	N	0.324488	0.415790	0.031622
	N236	N	0.965092	0.679919	0.408130
	N237	N	0.039481	0.679406	0.579035
	N238	N	0.964938	0.323568	0.580803
	N239	N	0.039349	0.324784	0.408935
	N240	N	0.965390	0.416161	0.672983
	N241	N	0.040186	0.587169	0.671012
	N242	N	0.965252	0.588003	0.315451
	N243	N	0.039156	0.416640	0.315703
	N244	N	0.415823	0.680932	0.957587
	N245	N	0.589588	0.681176	0.029974
	N246	N	0.590440	0.320520	0.957645
	N247	N	0.416659	0.322065	0.031275
	N248	N	0.680717	0.963658	0.408192
	N249	N	0.679109	0.038617	0.578053
	N250	N	0.323508	0.964213	0.579203
	N251	N	0.324795	0.039213	0.408977
	N252	N	0.914560	0.465652	0.173853
	N253	N	0.088780	0.538520	0.173150
	N254	N	0.090648	0.465354	0.813685
	N255	N	0.917892	0.539480	0.816154
	N256	N	0.180202	0.917261	0.455809
	N257	N	0.179952	0.087790	0.531043
	N258	N	0.825455	0.085973	0.456173
	N259	N	0.824760	0.916049	0.530965
	N260	N	0.465847	0.180227	0.907539
	N261	N	0.539796	0.178637	0.079480
	N262	N	0.464807	0.823539	0.079568
	N263	N	0.539700	0.823152	0.908315
	N264	N	0.465231	0.915619	0.171903
	N265	N	0.539441	0.086194	0.171070
	N266	N	0.464926	0.086090	0.816484
	N267	N	0.539689	0.914673	0.814830
	N268	N	0.915135	0.182148	0.457682
	N269	N	0.088359	0.181294	0.530884
	N270	N	0.089011	0.822179	0.456509
	N271	N	0.916177	0.822631	0.530721
	N272	N	0.182308	0.464650	0.907396
	N273	N	0.179578	0.539706	0.077796
	N274	N	0.824712	0.464346	0.079102
	N275	N	0.824243	0.538516	0.908710
	O276	O	0.040997	0.007671	-0.025414
	H277	H	0.042451	0.007062	-0.028523
	H278	H	0.046337	0.008587	-0.019346
	O279	O	0.419030	0.463394	0.577238
	H280	H	0.420347	0.466114	0.573221
	H281	H	0.415193	0.468848	0.588030
	O282	O	0.463981	0.503509	0.464346
	H283	H	0.451984	0.495410	0.468989
	H284	H	0.466402	0.507776	0.462136
	O285	O	0.965154	0.066685	0.948908
	H286	H	0.953177	0.067515	0.947789
	H287	H	0.959230	0.070085	0.949359
	O288	O	0.948198	-0.008051	0.048296
	H289	H	0.941643	0.000030	0.052404
	H290	H	0.948075	-0.009160	0.053638
	O291	O	0.444068	0.402366	0.536454
	H292	H	0.427020	0.390615	0.541915
	H293	H	0.437769	0.403103	0.530514
	O294	O	0.930419	0.021945	0.932559
	H295	H	0.929800	0.017326	0.926957
	H296	H	0.926411	0.029134	0.935980
	O297	O	-0.026007	-0.008145	-0.002463
	H298	H	-0.022459	0.001466	-0.012056
	H299	H	-0.021300	-0.008627	-0.002200
	O300	O	0.519628	0.511732	0.565581
	H301	H	0.510678	0.504676	0.569857
	H302	H	0.528298	0.525941	0.577600
	O303	O	0.495653	0.527397	0.424390
	H304	H	0.504188	0.533611	0.438881
	H305	H	0.497823	0.538690	0.411969
	O306	O	0.959616	0.019094	0.007410
	H307	H	0.948610	0.020458	0.006057
	H308	H	0.955743	0.026024	0.012783
	O309	O	0.028735	0.005745	0.982665
	H310	H	0.034735	0.009848	0.983367
	H311	H	0.018947	0.009602	0.981384
	O312	O	0.972078	1.028386	0.998436
	H313	H	0.973826	1.028311	0.994289
	H314	H	0.977521	1.022135	1.009613
	O315	O	0.460235	0.573937	0.462414
	H316	H	0.457020	0.570066	0.466366
	H317	H	0.453110	0.569374	0.463806
	O318	O	0.440903	0.372027	0.508241
	H319	H	0.428837	0.366910	0.497602
	H320	H	0.444539	0.365497	0.507758
	O321	O	0.578058	1.539336	1.509688
	H322	H	0.569950	1.521759	1.518552
	H323	H	0.580846	1.546920	1.520888
	O324	O	0.589297	0.494314	0.552541
	H325	H	0.596774	0.493868	0.545704
	H326	H	0.600514	0.486860	0.548820
	O327	O	0.564383	0.437569	0.512881
	H328	H	0.557708	0.442391	0.511979
	H329	H	0.569359	0.440789	0.508987
	O330	O	0.505434	0.579397	0.545834
	H331	H	0.498075	0.579459	0.541489
	H332	H	0.512878	0.577263	0.555053
	O333	O	0.593688	0.562455	0.497247
	H334	H	0.599396	0.555685	0.492098
	H335	H	0.592142	0.558212	0.488975
	O336	O	0.554678	0.532593	0.468114
	H337	H	0.559707	0.530937	0.459939
	H338	H	0.555074	0.528216	0.475554
	O339	O	1.033677	1.066820	-0.034778
	H340	H	1.035367	1.068451	-0.041790
	H341	H	1.041040	1.059968	-0.021615
	O342	O	0.451161	0.496299	0.474293
	H343	H	0.452436	0.493508	0.477615
	H344	H	0.438360	0.489632	0.473702
	O345	O	0.507420	0.461556	0.444500
	H346	H	0.507379	0.473548	0.444572
	H347	H	0.511852	0.454815	0.452717
	O348	O	0.063029	0.018653	0.022676
	H349	H	0.058495	-0.000661	0.024588
	H350	H	0.066979	0.008806	0.013494
	O351	O	0.035287	1.032929	1.032805
	H352	H	0.034081	1.033138	1.025557
	H353	H	0.039100	1.035942	1.034661
	O354	O	0.433789	0.453403	0.459935
	H355	H	0.444006	0.455438	0.465887
	H356	H	0.426630	0.457535	0.463701
	O357	O	0.010572	0.932077	0.964850
	H358	H	0.009790	0.928163	0.969904
	H359	H	0.008242	0.931094	0.960053
