data_Molecule from HDF5

_cell_length_a		16.460983
_cell_length_b		16.271392
_cell_length_c		16.344353
_cell_angle_alpha	90.083197
_cell_angle_beta	90.067550
_cell_angle_gamma	89.956199
_symmetry_space_group_name_H-M	'P 1'
_symmetry_Int_Tables_number		1

loop_
	_symmetry_equiv_pos_as_xyz
	x,y,z

loop_
	_atom_site_label
	_atom_site_type_symbol
	_atom_site_fract_x
	_atom_site_fract_y
	_atom_site_fract_z
	H0	H	0.394251	0.841932	0.716151
	H1	H	0.600900	0.164739	0.721718
	H2	H	0.597953	0.842215	0.282043
	H3	H	0.391691	0.165452	0.281911
	H4	H	0.714642	0.399083	0.841790
	H5	H	0.715112	0.612646	0.159854
	H6	H	0.269886	0.614293	0.842579
	H7	H	0.271326	0.398783	0.159802
	H8	H	0.835242	0.725104	0.398825
	H9	H	0.154915	0.723158	0.604552
	H10	H	0.836666	0.283265	0.606512
	H11	H	0.154122	0.284889	0.395611
	H12	H	0.835049	0.401784	0.721247
	H13	H	0.152530	0.611658	0.724355
	H14	H	0.834652	0.612172	0.280191
	H15	H	0.150904	0.398195	0.276217
	H16	H	0.391137	0.723728	0.839937
	H17	H	0.595645	0.723839	0.161448
	H18	H	0.596492	0.284518	0.840491
	H19	H	0.387888	0.283570	0.160777
	H20	H	0.715841	0.843202	0.394934
	H21	H	0.718412	0.162985	0.608023
	H22	H	0.276634	0.842810	0.603169
	H23	H	0.272154	0.163719	0.392948
	H24	H	0.887962	0.345252	0.221216
	H25	H	0.094619	0.666015	0.219437
	H26	H	0.097373	0.344068	0.782764
	H27	H	0.890729	0.666870	0.783271
	H28	H	0.214823	0.898938	0.340356
	H29	H	0.215386	0.107986	0.661689
	H30	H	0.774126	0.109766	0.341516
	H31	H	0.773513	0.896639	0.660399
	H32	H	0.333990	0.222763	0.896932
	H33	H	0.654453	0.224139	0.102974
	H34	H	0.335123	0.784881	0.102777
	H35	H	0.653628	0.784965	0.898756
	H36	H	0.335541	0.899916	0.221050
	H37	H	0.654231	0.109953	0.221362
	H38	H	0.334624	0.107416	0.780156
	H39	H	0.654035	0.899716	0.781182
	H40	H	0.892096	0.225214	0.341387
	H41	H	0.100088	0.224091	0.662849
	H42	H	0.096197	0.785194	0.339642
	H43	H	0.894778	0.787078	0.663055
	H44	H	0.216473	0.346187	0.893454
	H45	H	0.214195	0.664744	0.107034
	H46	H	0.774675	0.344532	0.104929
	H47	H	0.774274	0.666280	0.897955
	H48	H	0.407164	0.117943	0.588996
	H49	H	0.589857	0.887311	0.593188
	H50	H	0.583697	0.118588	0.411013
	H51	H	0.405790	0.890220	0.410512
	H52	H	0.589396	0.417019	0.116130
	H53	H	0.587266	0.600762	0.882927
	H54	H	0.405940	0.598761	0.115148
	H55	H	0.409193	0.425575	0.892118
	H56	H	0.109033	0.599331	0.409484
	H57	H	0.881058	0.596034	0.592655
	H58	H	0.109614	0.415784	0.596363
	H59	H	0.880321	0.410624	0.412402
	H60	H	0.108403	0.412876	0.589268
	H61	H	0.880558	0.595505	0.592771
	H62	H	0.104137	0.591331	0.417774
	H63	H	0.883617	0.418484	0.417844
	H64	H	0.398695	0.592026	0.116015
	H65	H	0.589460	0.588367	0.885535
	H66	H	0.580794	0.418440	0.112784
	H67	H	0.410433	0.407870	0.886804
	H68	H	0.586502	0.117803	0.414148
	H69	H	0.579393	0.890277	0.591791
	H70	H	0.403072	0.119273	0.588051
	H71	H	0.406897	0.890390	0.412831
	H72	H	0.910171	0.619480	0.095147
	H73	H	0.074312	0.391741	0.093024
	H74	H	0.080568	0.621679	0.904547
	H75	H	0.909226	0.392037	0.911751
	H76	H	0.084859	0.917219	0.613537
	H77	H	0.084815	0.096088	0.386708
	H78	H	0.909073	0.083790	0.611092
	H79	H	0.898662	0.916982	0.385399
	H80	H	0.606718	0.091214	0.912936
	H81	H	0.383254	0.089891	0.089320
	H82	H	0.609373	0.912373	0.092584
	H83	H	0.375253	0.908266	0.900471
	H84	H	0.606691	0.913601	0.086084
	H85	H	0.381653	0.093072	0.094995
	H86	H	0.608134	0.093410	0.908125
	H87	H	0.381700	0.910420	0.917621
	H88	H	0.913612	0.098771	0.614348
	H89	H	0.086747	0.092859	0.387051
	H90	H	0.086655	0.910399	0.617007
	H91	H	0.910350	0.921133	0.391042
	H92	H	0.075614	0.615568	0.919187
	H93	H	0.083105	0.392841	0.079450
	H94	H	0.901698	0.618483	0.082515
	H95	H	0.900417	0.391382	0.916616
	H96	H	0.404656	0.119661	0.592119
	H97	H	0.585994	0.890397	0.583316
	H98	H	0.587705	0.119652	0.410587
	H99	H	0.404418	0.889925	0.412385
	H100	H	0.583215	0.409941	0.116185
	H101	H	0.578548	0.593016	0.888963
	H102	H	0.407484	0.589552	0.112361
	H103	H	0.394877	0.416810	0.884697
	H104	H	0.106446	0.588196	0.406426
	H105	H	0.880564	0.595718	0.592789
	H106	H	0.106324	0.420327	0.590917
	H107	H	0.881483	0.419863	0.408564
	H108	H	0.896462	0.624325	0.095289
	H109	H	0.089889	0.387008	0.092680
	H110	H	0.090633	0.621039	0.917338
	H111	H	0.900992	0.388378	0.906924
	H112	H	0.091965	0.915914	0.615911
	H113	H	0.083600	0.092818	0.388190
	H114	H	0.899043	0.093886	0.617389
	H115	H	0.909376	0.908444	0.385898
	H116	H	0.607504	0.096459	0.912176
	H117	H	0.380784	0.095977	0.088825
	H118	H	0.606808	0.919108	0.091101
	H119	H	0.383285	0.924359	0.905601
	C120	C	0.374500	0.012439	0.620556
	C121	C	0.617433	0.995213	0.622297
	C122	C	0.616923	0.011955	0.379708
	C123	C	0.373586	0.995895	0.379199
	C124	C	0.615763	0.383151	0.009335
	C125	C	0.615542	0.626194	0.992108
	C126	C	0.372249	0.625986	0.009180
	C127	C	0.372190	0.384015	0.992603
	C128	C	0.002071	0.626310	0.379534
	C129	C	0.986008	0.627220	0.623883
	C130	C	0.003079	0.383878	0.623788
	C131	C	0.986224	0.383805	0.379609
	C132	C	0.871528	0.514455	0.122501
	C133	C	0.113765	0.496578	0.121151
	C134	C	0.114830	0.513508	0.880901
	C135	C	0.872445	0.497065	0.880480
	C136	C	0.117608	0.882382	0.509323
	C137	C	0.117220	0.126109	0.493237
	C138	C	0.874727	0.125031	0.509054
	C139	C	0.874804	0.883091	0.493092
	C140	C	0.502386	0.125662	0.878732
	C141	C	0.486521	0.126072	0.122977
	C142	C	0.502874	0.883408	0.121620
	C143	C	0.485605	0.882233	0.877919
	C144	C	0.374720	0.890501	0.677824
	C145	C	0.619358	0.116117	0.682062
	C146	C	0.617435	0.890753	0.320778
	C147	C	0.372391	0.116883	0.320290
	C148	C	0.674895	0.380848	0.889271
	C149	C	0.674851	0.629587	0.112212
	C150	C	0.311252	0.630261	0.889678
	C151	C	0.311596	0.380924	0.112277
	C152	C	0.882790	0.686286	0.378912
	C153	C	0.106682	0.684717	0.624126
	C154	C	0.883989	0.323338	0.625152
	C155	C	0.105739	0.324080	0.377037
	C156	C	0.883289	0.382345	0.682334
	C157	C	0.105258	0.629462	0.683947
	C158	C	0.882495	0.629678	0.320075
	C159	C	0.104245	0.380699	0.317584
	C160	C	0.371467	0.684997	0.888195
	C161	C	0.615291	0.685231	0.112843
	C162	C	0.615964	0.323989	0.888853
	C163	C	0.369919	0.323681	0.112754
	C164	C	0.675959	0.891167	0.377314
	C165	C	0.678065	0.115368	0.625454
	C166	C	0.316219	0.890838	0.621407
	C167	C	0.313002	0.116084	0.376005
	C168	C	0.869817	0.393375	0.181608
	C169	C	0.114633	0.617756	0.180758
	C170	C	0.116346	0.392845	0.821479
	C171	C	0.871881	0.618397	0.822365
	C172	C	0.174866	0.881189	0.388153
	C173	C	0.175762	0.126620	0.613799
	C174	C	0.814223	0.128064	0.389372
	C175	C	0.814196	0.879703	0.612883
	C176	C	0.382109	0.184018	0.877677
	C177	C	0.606626	0.185045	0.122717
	C178	C	0.382919	0.824337	0.122339
	C179	C	0.605794	0.823940	0.878724
	C180	C	0.383235	0.881430	0.181391
	C181	C	0.606416	0.128359	0.181855
	C182	C	0.382525	0.126411	0.819584
	C183	C	0.605921	0.881200	0.820352
	C184	C	0.873139	0.185178	0.389066
	C185	C	0.118216	0.184671	0.614282
	C186	C	0.116178	0.824226	0.388045
	C187	C	0.874901	0.825331	0.614372
	C188	C	0.175895	0.393897	0.876611
	C189	C	0.173930	0.616995	0.124813
	C190	C	0.813182	0.393041	0.123875
	C191	C	0.813493	0.618012	0.879070
	C192	C	0.398170	0.096904	0.596553
	C193	C	0.592412	0.911273	0.596816
	C194	C	0.592968	0.096487	0.404644
	C195	C	0.398497	0.911968	0.404470
	C196	C	0.591516	0.408152	0.093441
	C197	C	0.591831	0.601132	0.907684
	C198	C	0.396865	0.600710	0.092676
	C199	C	0.397610	0.409381	0.909494
	C200	C	0.085084	0.600374	0.404064
	C201	C	0.902487	0.603031	0.599584
	C202	C	0.086152	0.408949	0.599343
	C203	C	0.903319	0.408989	0.405474
	C204	C	0.895676	0.598909	0.098080
	C205	C	0.089316	0.412583	0.095786
	C206	C	0.089632	0.597833	0.906388
	C207	C	0.896466	0.412612	0.904805
	C208	C	0.094606	0.907211	0.593602
	C209	C	0.092313	0.101201	0.409085
	C210	C	0.899964	0.099361	0.592567
	C211	C	0.899066	0.908162	0.409395
	C212	C	0.585899	0.100938	0.903781
	C213	C	0.403595	0.100473	0.098187
	C214	C	0.585889	0.908014	0.097129
	C215	C	0.401666	0.907009	0.901303
	Zn216	Zn	0.494807	0.004271	0.749691
	Zn217	Zn	0.495524	0.004359	0.251863
	Zn218	Zn	0.744055	0.505071	0.001732
	Zn219	Zn	0.243131	0.505155	0.001036
	Zn220	Zn	-0.004483	0.754133	0.501305
	Zn221	Zn	-0.004094	0.254638	0.501677
	Zn222	Zn	-0.005725	0.505790	0.752662
	Zn223	Zn	-0.007341	0.505344	0.249713
	Zn224	Zn	0.493629	0.753883	-0.000136
	Zn225	Zn	0.493321	0.254776	0.000861
	Zn226	Zn	0.745472	0.003387	0.500402
	Zn227	Zn	0.245651	0.004444	0.500635
	N228	N	0.410362	0.966915	0.677332
	N229	N	0.582445	0.040343	0.680331
	N230	N	0.581545	0.967150	0.322061
	N231	N	0.409480	0.041223	0.322292
	N232	N	0.674939	0.416841	0.965462
	N233	N	0.675055	0.593523	0.036065
	N234	N	0.311580	0.594272	0.965834
	N235	N	0.312982	0.417774	0.036775
	N236	N	0.958142	0.684400	0.414908
	N237	N	0.031539	0.683547	0.587692
	N238	N	0.959487	0.324273	0.589484
	N239	N	0.031383	0.326170	0.415110
	N240	N	0.958270	0.419251	0.681555
	N241	N	0.029142	0.594480	0.684177
	N242	N	0.957776	0.592953	0.320233
	N243	N	0.028860	0.417158	0.318972
	N244	N	0.408720	0.682460	0.963333
	N245	N	0.579161	0.683189	0.036839
	N246	N	0.579808	0.325582	0.964547
	N247	N	0.406687	0.325181	0.037182
	N248	N	0.675866	0.967627	0.413010
	N249	N	0.677062	0.039093	0.589137
	N250	N	0.315799	0.967674	0.586662
	N251	N	0.313362	0.039645	0.411576
	N252	N	0.905026	0.469850	0.181114
	N253	N	0.077959	0.541903	0.178492
	N254	N	0.079162	0.468411	0.823975
	N255	N	0.907627	0.541986	0.822900
	N256	N	0.176107	0.916350	0.464656
	N257	N	0.175265	0.091032	0.537278
	N258	N	0.815134	0.091446	0.464993
	N259	N	0.814179	0.915305	0.536544
	N260	N	0.457648	0.183583	0.913901
	N261	N	0.530857	0.183973	0.086968
	N262	N	0.457966	0.825533	0.085794
	N263	N	0.529886	0.824526	0.913689
	N264	N	0.458766	0.917546	0.180970
	N265	N	0.530903	0.092674	0.182190
	N266	N	0.458594	0.091191	0.819926
	N267	N	0.530159	0.916695	0.819744
	N268	N	0.909694	0.183826	0.464791
	N269	N	0.082683	0.184372	0.538134
	N270	N	0.081459	0.824858	0.464480
	N271	N	0.911934	0.827341	0.539076
	N272	N	0.174934	0.470249	0.912674
	N273	N	0.173511	0.540686	0.088512
	N274	N	0.813914	0.469504	0.088069
	N275	N	0.813762	0.541528	0.914443
	O276	O	0.605466	0.390078	0.679304
	H277	H	0.603036	0.392729	0.693530
	H278	H	0.581821	0.401738	0.670342
	O279	O	0.599116	0.603204	0.358760
	H280	H	0.606126	0.599862	0.331989
	H281	H	0.594100	0.603381	0.373905
	O282	O	0.285934	0.296696	0.521584
	H283	H	0.272173	0.283596	0.531846
	H284	H	0.280164	0.302859	0.530466
	O285	O	1.167298	0.084875	0.200387
	H286	H	1.180679	0.086433	0.233481
	H287	H	1.151964	0.082127	0.199052
	O288	O	0.124048	-0.136861	0.926825
	H289	H	0.137130	-0.134777	0.938402
	H290	H	0.126319	-0.132773	0.924985
	O291	O	0.361376	0.483272	0.426132
	H292	H	0.366228	0.479822	0.424203
	H293	H	0.347597	0.482333	0.431015
	O294	O	0.379643	0.495748	0.442667
	H295	H	0.378378	0.504700	0.438493
	H296	H	0.368237	0.508224	0.440203
	O297	O	0.986798	0.833363	0.941904
	H298	H	0.993490	0.829076	0.933968
	H299	H	0.994421	0.827486	0.941409
	O300	O	0.027198	0.168112	-0.171072
	H301	H	0.028605	0.167104	-0.177712
	H302	H	0.020119	0.163191	-0.177266
	O303	O	0.610364	0.681789	0.497652
	H304	H	0.608267	0.680346	0.490780
	H305	H	0.611608	0.689547	0.482126
	O306	O	0.875375	0.159459	-0.190277
	H307	H	0.870734	0.163408	-0.175522
	H308	H	0.883589	0.148937	-0.191223
	O309	O	0.633979	0.409014	0.493114
	H310	H	0.641904	0.416895	0.506971
	H311	H	0.642494	0.423094	0.504919
	O312	O	0.987539	0.922030	-0.085484
	H313	H	0.984959	0.920020	-0.090102
	H314	H	1.001560	0.909823	-0.101458
	O315	O	0.303900	0.654608	0.361337
	H316	H	0.315830	0.640409	0.362056
	H317	H	0.313532	0.635230	0.357106
	O318	O	0.690692	0.630401	0.622135
	H319	H	0.686247	0.632278	0.647909
	H320	H	0.687047	0.636127	0.619789
	O321	O	0.884819	-0.074520	0.950074
	H322	H	0.880997	-0.072041	0.954483
	H323	H	0.889583	-0.084524	0.933373
	O324	O	0.080763	0.015135	1.183236
	H325	H	0.053317	0.030686	1.187434
	H326	H	0.090954	-0.009537	1.184982
	O327	O	0.319482	0.328734	0.678701
	H328	H	0.324972	0.349772	0.677756
	H329	H	0.352805	0.320767	0.673065
	O330	O	0.544812	0.638617	0.497651
	H331	H	0.539257	0.638845	0.478236
	H332	H	0.546314	0.624120	0.513678
	O333	O	0.898699	1.109938	1.063016
	H334	H	0.906780	1.124158	1.059673
	H335	H	0.903459	1.090950	1.080552
	O336	O	0.480179	0.586116	0.432625
	H337	H	0.476331	0.585874	0.431795
	H338	H	0.486329	0.585373	0.435004
	O339	O	0.963062	0.079526	0.988938
	H340	H	0.954399	0.071528	0.975106
	H341	H	0.961464	0.080489	0.972033
	O342	O	0.122937	1.032272	0.954543
	H343	H	0.132593	1.046225	0.972826
	H344	H	0.112146	1.030885	0.953294
	O345	O	0.151899	0.950417	0.934520
	H346	H	0.146009	0.961482	0.929214
	H347	H	0.159508	0.959121	0.940117
	O348	O	0.475089	0.381390	0.448958
	H349	H	0.471071	0.384572	0.445946
	H350	H	0.474701	0.380553	0.451936
	O351	O	-0.194294	-0.014051	0.133576
	H352	H	-0.194022	-0.024395	0.135999
	H353	H	-0.177469	-0.025849	0.151326
	O354	O	1.190969	1.196086	0.123411
	H355	H	1.202364	1.204546	0.109498
	H356	H	1.163570	1.192089	0.148155
	O357	O	-0.191535	0.967779	-0.164839
	H358	H	-0.203287	0.980726	-0.164681
	H359	H	-0.181610	0.993571	-0.171194
	O360	O	0.492694	0.316762	0.689492
	H361	H	0.501879	0.304736	0.653978
	H362	H	0.495446	0.317159	0.702488
	O363	O	0.509845	0.485676	0.627416
	H364	H	0.504454	0.490972	0.631765
	H365	H	0.507296	0.496695	0.622169
	O366	O	0.688294	0.485713	0.599424
	H367	H	0.664094	0.508142	0.598043
	H368	H	0.696856	0.489618	0.614836
	O369	O	0.657031	0.431020	0.314135
	H370	H	0.659801	0.399483	0.339069
	H371	H	0.680919	0.445407	0.300014
	O372	O	0.541090	0.330561	0.287866
	H373	H	0.563068	0.315126	0.272967
	H374	H	0.543649	0.309858	0.290924
	O375	O	0.320840	0.690489	0.469837
	H376	H	0.330750	0.683835	0.431004
	H377	H	0.300599	0.710376	0.477416
	O378	O	0.421441	0.474667	0.356277
	H379	H	0.418793	0.452521	0.348847
	H380	H	0.418057	0.455394	0.358129
	O381	O	0.287992	0.489867	0.708205
	H382	H	0.290093	0.476852	0.707214
	H383	H	0.286361	0.489088	0.727769
	O384	O	0.020256	0.844897	1.129095
	H385	H	0.023692	0.842266	1.110206
	H386	H	0.027762	0.836882	1.120922
	O387	O	0.835560	0.852459	0.065811
	H388	H	0.841321	0.827176	0.067478
	H389	H	0.830300	0.867013	0.051238
	O390	O	0.520378	0.670852	0.677676
	H391	H	0.519932	0.673650	0.673934
	H392	H	0.524146	0.649658	0.673971
	O393	O	1.578145	-0.342804	0.637748
	H394	H	1.588011	-0.345312	0.636402
	H395	H	1.566150	-0.341450	0.626453
	O396	O	-0.188027	1.152580	0.850228
	H397	H	-0.187143	1.155740	0.858771
	H398	H	-0.193543	1.139083	0.840475
	O399	O	0.606128	0.340307	0.528582
	H400	H	0.615363	0.358369	0.532113
	H401	H	0.604198	0.349091	0.515676
	O402	O	1.187412	-0.114725	0.897857
	H403	H	1.183647	-0.100749	0.900835
	H404	H	1.197734	-0.102707	0.907695
	O405	O	0.014573	0.052933	-0.018159
	H406	H	0.011324	0.050150	-0.032720
	H407	H	0.017076	0.052948	-0.028899
	O408	O	1.078921	1.207665	1.065704
	H409	H	1.062040	1.219009	1.082771
	H410	H	1.094404	1.223572	1.054960
	O411	O	0.873421	1.121571	0.105170
	H412	H	0.859464	1.112939	0.102503
	H413	H	0.866008	1.100640	0.088293
	O414	O	0.066739	-0.071352	0.858875
	H415	H	0.069282	-0.061236	0.865542
	H416	H	0.058384	-0.082790	0.849775
	O417	O	0.682427	0.319339	0.398945
	H418	H	0.686853	0.313468	0.434388
	H419	H	0.675813	0.304918	0.398936
	O420	O	-0.038308	0.854459	0.131988
	H421	H	-0.050722	0.841914	0.119164
	H422	H	-0.024909	0.856991	0.120677
	O423	O	1.429639	-0.445067	-0.671001
	H424	H	1.438497	-0.447762	-0.678385
	H425	H	1.431787	-0.472041	-0.673328
	O426	O	-0.091401	0.110737	1.167012
	H427	H	-0.086677	0.085824	1.173966
	H428	H	-0.104652	0.115072	1.168041
	O429	O	0.328951	0.567586	0.485568
	H430	H	0.330049	0.571898	0.465311
	H431	H	0.330217	0.581160	0.489039
