data_Molecule from HDF5

_cell_length_a		16.297946
_cell_length_b		16.239814
_cell_length_c		16.264294
_cell_angle_alpha	90.299809
_cell_angle_beta	89.930570
_cell_angle_gamma	89.944069
_symmetry_space_group_name_H-M	'P 1'
_symmetry_Int_Tables_number		1

loop_
	_symmetry_equiv_pos_as_xyz
	x,y,z

loop_
	_atom_site_label
	_atom_site_type_symbol
	_atom_site_fract_x
	_atom_site_fract_y
	_atom_site_fract_z
	H0	H	0.399107	0.841645	0.712602
	H1	H	0.593207	0.171324	0.714630
	H2	H	0.595159	0.842909	0.285137
	H3	H	0.398709	0.171374	0.288898
	H4	H	0.710470	0.407045	0.835339
	H5	H	0.711982	0.607192	0.163244
	H6	H	0.280948	0.605498	0.835928
	H7	H	0.281112	0.408980	0.164029
	H8	H	0.832211	0.720549	0.402016
	H9	H	0.160399	0.720485	0.597399
	H10	H	0.833315	0.293169	0.597213
	H11	H	0.160891	0.291809	0.400627
	H12	H	0.832883	0.408391	0.713788
	H13	H	0.159968	0.606031	0.714925
	H14	H	0.832281	0.604344	0.285922
	H15	H	0.159332	0.406187	0.282331
	H16	H	0.398252	0.720620	0.835669
	H17	H	0.595062	0.721965	0.163551
	H18	H	0.594388	0.291024	0.836054
	H19	H	0.398654	0.294953	0.164947
	H20	H	0.711268	0.842784	0.401272
	H21	H	0.711024	0.170701	0.601071
	H22	H	0.281765	0.842241	0.598821
	H23	H	0.281109	0.170140	0.403284
	H24	H	0.897178	0.342122	0.212916
	H25	H	0.093225	0.671073	0.214655
	H26	H	0.094713	0.341953	0.785151
	H27	H	0.898446	0.670552	0.786510
	H28	H	0.212051	0.906459	0.335955
	H29	H	0.209697	0.104756	0.664496
	H30	H	0.781240	0.105432	0.337172
	H31	H	0.782676	0.909332	0.664318
	H32	H	0.331920	0.218875	0.904582
	H33	H	0.660615	0.222060	0.099665
	H34	H	0.332568	0.793561	0.097722
	H35	H	0.660440	0.791229	0.900754
	H36	H	0.332994	0.908970	0.215141
	H37	H	0.660295	0.106248	0.216054
	H38	H	0.332572	0.104309	0.787305
	H39	H	0.660553	0.906807	0.784590
	H40	H	0.898099	0.219645	0.336033
	H41	H	0.095581	0.222802	0.663473
	H42	H	0.094648	0.791684	0.335019
	H43	H	0.898395	0.792881	0.664429
	H44	H	0.210891	0.342402	0.900760
	H45	H	0.210404	0.671167	0.098856
	H46	H	0.781838	0.343118	0.096876
	H47	H	0.782692	0.671405	0.902071
	H48	H	0.402566	0.122304	0.590445
	H49	H	0.593399	0.888938	0.591549
	H50	H	0.590196	0.122643	0.413606
	H51	H	0.399311	0.888518	0.406298
	H52	H	0.595952	0.427022	0.114814
	H53	H	0.589598	0.596057	0.883959
	H54	H	0.398009	0.609687	0.120653
	H55	H	0.402847	0.416712	0.884753
	H56	H	0.112375	0.601558	0.407560
	H57	H	0.879561	0.609217	0.584647
	H58	H	0.116429	0.406068	0.596080
	H59	H	0.879480	0.410515	0.406752
	H60	H	0.110606	0.414292	0.584279
	H61	H	0.884680	0.587604	0.590479
	H62	H	0.111033	0.596374	0.408278
	H63	H	0.881003	0.414647	0.408105
	H64	H	0.396776	0.588586	0.114070
	H65	H	0.588215	0.600296	0.883489
	H66	H	0.576881	0.413333	0.112661
	H67	H	0.407032	0.410244	0.883361
	H68	H	0.594184	0.125284	0.406061
	H69	H	0.589928	0.889085	0.596078
	H70	H	0.399009	0.125104	0.597231
	H71	H	0.408044	0.890063	0.403855
	H72	H	0.893500	0.626289	0.091146
	H73	H	0.078809	0.393807	0.088425
	H74	H	0.086207	0.623171	0.905282
	H75	H	0.902433	0.389011	0.906136
	H76	H	0.092757	0.916437	0.616537
	H77	H	0.089888	0.097374	0.383944
	H78	H	0.904019	0.104938	0.617633
	H79	H	0.904604	0.901550	0.380586
	H80	H	0.611462	0.092841	0.905956
	H81	H	0.381474	0.100058	0.091462
	H82	H	0.615251	0.915682	0.102728
	H83	H	0.381305	0.913002	0.909701
	H84	H	0.614177	0.905025	0.088525
	H85	H	0.380183	0.098637	0.097694
	H86	H	0.615642	0.103033	0.902902
	H87	H	0.380860	0.915916	0.904647
	H88	H	0.899015	0.097864	0.617773
	H89	H	0.090359	0.098237	0.383455
	H90	H	0.085785	0.914763	0.614876
	H91	H	0.893541	0.918606	0.382143
	H92	H	0.088571	0.622413	0.910807
	H93	H	0.096939	0.390668	0.082962
	H94	H	0.907066	0.624552	0.103058
	H95	H	0.901918	0.389549	0.905737
	H96	H	0.407284	0.123357	0.597241
	H97	H	0.587586	0.891227	0.590922
	H98	H	0.585522	0.123080	0.405881
	H99	H	0.405366	0.891685	0.412603
	H100	H	0.596946	0.404617	0.121462
	H101	H	0.591960	0.598822	0.882544
	H102	H	0.415538	0.599245	0.111858
	H103	H	0.399374	0.410421	0.881486
	H104	H	0.113586	0.598156	0.403320
	H105	H	0.875437	0.602489	0.606298
	H106	H	0.112460	0.421068	0.598250
	H107	H	0.879714	0.413415	0.404555
	H108	H	0.909518	0.619432	0.085817
	H109	H	0.091329	0.387247	0.100737
	H110	H	0.092058	0.624009	0.906137
	H111	H	0.903075	0.389155	0.905083
	H112	H	0.090442	0.909825	0.617688
	H113	H	0.090416	0.097881	0.383347
	H114	H	0.907580	0.098134	0.615096
	H115	H	0.912453	0.918891	0.387656
	H116	H	0.611600	0.101734	0.913819
	H117	H	0.379280	0.104714	0.095801
	H118	H	0.608235	0.922255	0.087460
	H119	H	0.379290	0.910038	0.904876
	C120	C	0.374723	0.014779	0.622653
	C121	C	0.618385	0.998512	0.622353
	C122	C	0.618589	0.015458	0.379048
	C123	C	0.375447	0.998233	0.379697
	C124	C	0.618431	0.385421	0.007881
	C125	C	0.618116	0.628017	0.991412
	C126	C	0.374829	0.628232	0.007429
	C127	C	0.374888	0.385226	0.991955
	C128	C	0.004203	0.627191	0.378124
	C129	C	0.988365	0.628568	0.621899
	C130	C	0.005228	0.385235	0.621172
	C131	C	0.988129	0.384040	0.377198
	C132	C	0.874779	0.514860	0.121193
	C133	C	0.117351	0.498660	0.120542
	C134	C	0.118220	0.514977	0.878071
	C135	C	0.874377	0.497977	0.877963
	C136	C	0.118109	0.884830	0.507958
	C137	C	0.118034	0.127589	0.491874
	C138	C	0.875212	0.128333	0.508320
	C139	C	0.875040	0.884997	0.491957
	C140	C	0.504626	0.127602	0.879745
	C141	C	0.488467	0.129655	0.123570
	C142	C	0.504607	0.885492	0.121653
	C143	C	0.488563	0.884222	0.877848
	C144	C	0.378118	0.890812	0.675668
	C145	C	0.614852	0.122116	0.677646
	C146	C	0.616248	0.892001	0.322910
	C147	C	0.377954	0.122208	0.325924
	C148	C	0.672832	0.386813	0.884412
	C149	C	0.673771	0.626805	0.114568
	C150	C	0.319372	0.625759	0.884608
	C151	C	0.319136	0.388375	0.115048
	C152	C	0.881187	0.682580	0.381308
	C153	C	0.111296	0.683153	0.618440
	C154	C	0.881994	0.330691	0.617883
	C155	C	0.111656	0.329178	0.379601
	C156	C	0.881868	0.387836	0.676071
	C157	C	0.111269	0.626090	0.676722
	C158	C	0.881136	0.624766	0.323785
	C159	C	0.110877	0.385966	0.320874
	C160	C	0.377416	0.683045	0.884629
	C161	C	0.615578	0.683794	0.114703
	C162	C	0.614752	0.329540	0.884651
	C163	C	0.377653	0.331788	0.115550
	C164	C	0.673270	0.891618	0.381072
	C165	C	0.672736	0.122019	0.620497
	C166	C	0.319702	0.891290	0.619132
	C167	C	0.319574	0.121563	0.382661
	C168	C	0.876875	0.391307	0.175640
	C169	C	0.114627	0.622046	0.176911
	C170	C	0.115510	0.391064	0.822682
	C171	C	0.877577	0.621562	0.823866
	C172	C	0.173837	0.886491	0.384782
	C173	C	0.172446	0.125790	0.615282
	C174	C	0.819631	0.125585	0.385659
	C175	C	0.820309	0.888214	0.615394
	C176	C	0.381373	0.181724	0.883583
	C177	C	0.611463	0.184515	0.120428
	C178	C	0.381649	0.830512	0.118783
	C179	C	0.611730	0.829232	0.880376
	C180	C	0.381658	0.888271	0.176932
	C181	C	0.611594	0.126945	0.178264
	C182	C	0.381454	0.124819	0.825202
	C183	C	0.611790	0.886569	0.822604
	C184	C	0.878024	0.182045	0.385025
	C185	C	0.115488	0.184068	0.614748
	C186	C	0.115492	0.829413	0.384186
	C187	C	0.878129	0.830819	0.615397
	C188	C	0.173355	0.391329	0.879784
	C189	C	0.172369	0.622308	0.119128
	C190	C	0.819591	0.391680	0.117979
	C191	C	0.820053	0.621911	0.881350
	C192	C	0.396615	0.101252	0.601290
	C193	C	0.596634	0.912134	0.599653
	C194	C	0.596548	0.101281	0.401879
	C195	C	0.397706	0.912306	0.401239
	C196	C	0.596532	0.408364	0.094023
	C197	C	0.596276	0.605041	0.905515
	C198	C	0.396909	0.605658	0.093443
	C199	C	0.396553	0.406347	0.905572
	C200	C	0.090278	0.605178	0.399811
	C201	C	0.902027	0.606319	0.600255
	C202	C	0.090983	0.407377	0.599415
	C203	C	0.902401	0.406199	0.399800
	C204	C	0.896960	0.601086	0.099694
	C205	C	0.095383	0.412839	0.097356
	C206	C	0.095758	0.600855	0.900824
	C207	C	0.896021	0.411570	0.899417
	C208	C	0.096039	0.907042	0.594030
	C209	C	0.096383	0.104705	0.405979
	C210	C	0.897062	0.106587	0.594444
	C211	C	0.897012	0.906785	0.405761
	C212	C	0.590783	0.105577	0.901254
	C213	C	0.402578	0.107582	0.101685
	C214	C	0.590559	0.907670	0.099518
	C215	C	0.402734	0.906533	0.899916
	Zn216	Zn	0.496435	0.006465	0.750307
	Zn217	Zn	0.496651	0.007113	0.251217
	Zn218	Zn	0.746737	0.506782	-0.000465
	Zn219	Zn	0.246083	0.506897	-0.000580
	Zn220	Zn	-0.003624	0.756400	0.499670
	Zn221	Zn	-0.003301	0.256290	0.499556
	Zn222	Zn	-0.003365	0.506459	0.750245
	Zn223	Zn	-0.003922	0.506369	0.249119
	Zn224	Zn	0.496753	0.756202	-0.000364
	Zn225	Zn	0.496572	0.257253	0.000589
	Zn226	Zn	0.746751	0.006885	0.500724
	Zn227	Zn	0.246923	0.006211	0.501000
	N228	N	0.411737	0.968558	0.677973
	N229	N	0.581622	0.044298	0.678754
	N230	N	0.582958	0.969949	0.321524
	N231	N	0.412033	0.044678	0.324052
	N232	N	0.675034	0.420828	0.961979
	N233	N	0.675405	0.592723	0.036857
	N234	N	0.317795	0.592192	0.962082
	N235	N	0.317439	0.421083	0.037212
	N236	N	0.958931	0.684090	0.414507
	N237	N	0.033701	0.684856	0.585234
	N238	N	0.959469	0.329108	0.584311
	N239	N	0.034484	0.328107	0.414087
	N240	N	0.959405	0.421209	0.678128
	N241	N	0.033590	0.592942	0.678962
	N242	N	0.958430	0.590737	0.322212
	N243	N	0.033255	0.419233	0.319202
	N244	N	0.411017	0.684600	0.962142
	N245	N	0.581907	0.684673	0.037232
	N246	N	0.581656	0.328539	0.962561
	N247	N	0.411413	0.329560	0.037985
	N248	N	0.675123	0.969226	0.415084
	N249	N	0.675171	0.043994	0.587036
	N250	N	0.317612	0.969532	0.586960
	N251	N	0.317957	0.043665	0.415339
	N252	N	0.910401	0.469052	0.177721
	N253	N	0.081318	0.544315	0.177713
	N254	N	0.081757	0.468917	0.821494
	N255	N	0.910597	0.543591	0.821685
	N256	N	0.175708	0.920211	0.462589
	N257	N	0.174085	0.091245	0.537915
	N258	N	0.817824	0.092798	0.463454
	N259	N	0.818266	0.921162	0.537602
	N260	N	0.458948	0.183204	0.916953
	N261	N	0.533970	0.186407	0.087164
	N262	N	0.459157	0.828917	0.085193
	N263	N	0.534317	0.827787	0.914097
	N264	N	0.459141	0.921772	0.178784
	N265	N	0.534049	0.093493	0.180248
	N266	N	0.459187	0.091839	0.822543
	N267	N	0.534129	0.920183	0.820884
	N268	N	0.911768	0.183872	0.462455
	N269	N	0.082398	0.185270	0.536840
	N270	N	0.081669	0.828227	0.461715
	N271	N	0.911328	0.828534	0.537515
	N272	N	0.174802	0.468989	0.913759
	N273	N	0.174345	0.544631	0.084872
	N274	N	0.818172	0.469404	0.084825
	N275	N	0.818004	0.544018	0.914331
	O276	O	0.482221	0.545655	0.470140
	H277	H	0.479552	0.537150	0.473150
	H278	H	0.468457	0.548686	0.469199
	O279	O	0.057147	0.025625	0.066727
	H280	H	0.070183	0.028665	0.063065
	H281	H	0.058870	0.028752	0.061874
	O282	O	1.005201	0.067421	1.012013
	H283	H	0.996175	0.066357	1.000724
	H284	H	1.006869	0.061320	1.021357
	O285	O	0.983271	0.015470	0.996191
	H286	H	0.982297	0.015066	1.001894
	H287	H	0.973911	0.009098	0.991602
	O288	O	1.492215	0.564546	-0.527172
	H289	H	1.492822	0.556911	-0.531059
	H290	H	1.488746	0.574500	-0.518660
	O291	O	-0.503139	0.503822	-0.526340
	H292	H	-0.494675	0.509519	-0.523468
	H293	H	-0.501655	0.508110	-0.523308
	O294	O	0.468916	0.500850	0.470203
	H295	H	0.466924	0.505414	0.467079
	H296	H	0.465696	0.498869	0.466803
	O297	O	-0.014008	1.018615	0.067527
	H298	H	-0.010065	1.025315	0.064563
	H299	H	-0.018645	1.019594	0.073253
	O300	O	1.026028	0.064097	1.039255
	H301	H	1.029162	0.071332	1.051650
	H302	H	1.026800	0.056675	1.035350
	O303	O	0.464122	0.522410	0.420754
	H304	H	0.472084	0.516590	0.415683
	H305	H	0.469883	0.519241	0.425165
	O306	O	-0.011740	1.033208	1.019971
	H307	H	-0.011461	1.035866	1.024228
	H308	H	-0.003473	1.036038	1.027715
	O309	O	0.438745	0.510607	0.436169
	H310	H	0.437091	0.506306	0.424302
	H311	H	0.437530	0.520997	0.427514
