data_Molecule from HDF5

_cell_length_a		16.166797
_cell_length_b		16.306896
_cell_length_c		16.261904
_cell_angle_alpha	89.829368
_cell_angle_beta	90.339373
_cell_angle_gamma	89.760933
_symmetry_space_group_name_H-M	'P 1'
_symmetry_Int_Tables_number		1

loop_
	_symmetry_equiv_pos_as_xyz
	x,y,z

loop_
	_atom_site_label
	_atom_site_type_symbol
	_atom_site_fract_x
	_atom_site_fract_y
	_atom_site_fract_z
	H0	H	0.411290	0.843585	0.707767
	H1	H	0.610811	0.169373	0.708689
	H2	H	0.609420	0.844189	0.276318
	H3	H	0.407838	0.170294	0.275353
	H4	H	0.718820	0.410063	0.824873
	H5	H	0.723344	0.605154	0.152996
	H6	H	0.292845	0.606020	0.825386
	H7	H	0.295548	0.410052	0.154430
	H8	H	0.845551	0.725675	0.385831
	H9	H	0.174150	0.719098	0.589176
	H10	H	0.844307	0.293236	0.587628
	H11	H	0.172924	0.292172	0.391021
	H12	H	0.842349	0.409974	0.700651
	H13	H	0.171674	0.605206	0.706074
	H14	H	0.844093	0.606916	0.274094
	H15	H	0.173614	0.408648	0.276795
	H16	H	0.405360	0.725251	0.826836
	H17	H	0.606543	0.720036	0.154346
	H18	H	0.607541	0.290695	0.827647
	H19	H	0.408274	0.291795	0.153507
	H20	H	0.722212	0.842813	0.395643
	H21	H	0.725104	0.169937	0.591825
	H22	H	0.296084	0.842927	0.589984
	H23	H	0.294134	0.170326	0.392698
	H24	H	0.908716	0.345118	0.204732
	H25	H	0.105933	0.670953	0.203844
	H26	H	0.107794	0.344493	0.774616
	H27	H	0.905185	0.669886	0.770810
	H28	H	0.222227	0.911203	0.325944
	H29	H	0.222584	0.103144	0.655075
	H30	H	0.791941	0.106436	0.327473
	H31	H	0.799180	0.907946	0.655435
	H32	H	0.344495	0.222999	0.889941
	H33	H	0.672526	0.222330	0.092377
	H34	H	0.343462	0.794123	0.089908
	H35	H	0.672686	0.793376	0.895118
	H36	H	0.343386	0.910995	0.203377
	H37	H	0.672634	0.105775	0.206490
	H38	H	0.345693	0.107924	0.773794
	H39	H	0.674381	0.907146	0.780465
	H40	H	0.907036	0.223134	0.326560
	H41	H	0.111023	0.223710	0.653314
	H42	H	0.109146	0.792234	0.326052
	H43	H	0.909662	0.788646	0.652344
	H44	H	0.223466	0.344645	0.890988
	H45	H	0.221852	0.671341	0.087400
	H46	H	0.796742	0.343738	0.085091
	H47	H	0.792623	0.671425	0.888837
	H48	H	0.413439	0.124818	0.586386
	H49	H	0.602499	0.890300	0.588007
	H50	H	0.593243	0.115560	0.415996
	H51	H	0.414900	0.891940	0.403776
	H52	H	0.610007	0.421167	0.107027
	H53	H	0.592791	0.600073	0.875478
	H54	H	0.397590	0.600596	0.111837
	H55	H	0.426503	0.414678	0.877174
	H56	H	0.128835	0.599854	0.388814
	H57	H	0.890388	0.608479	0.572055
	H58	H	0.125597	0.416861	0.584939
	H59	H	0.890322	0.421239	0.388595
	H60	H	0.126316	0.412574	0.582619
	H61	H	0.894918	0.591363	0.575344
	H62	H	0.127000	0.607061	0.401002
	H63	H	0.887910	0.406493	0.395691
	H64	H	0.423977	0.587071	0.099226
	H65	H	0.599582	0.608373	0.869925
	H66	H	0.592555	0.416847	0.103738
	H67	H	0.410848	0.405479	0.868892
	H68	H	0.619512	0.129386	0.398413
	H69	H	0.603712	0.890666	0.585318
	H70	H	0.422593	0.121413	0.585317
	H71	H	0.411275	0.887001	0.393239
	H72	H	0.916611	0.625853	0.086012
	H73	H	0.107340	0.390118	0.079085
	H74	H	0.098564	0.624863	0.892288
	H75	H	0.912255	0.392077	0.899611
	H76	H	0.100946	0.916984	0.605346
	H77	H	0.102498	0.103232	0.372309
	H78	H	0.919938	0.103539	0.606917
	H79	H	0.917009	0.906701	0.371197
	H80	H	0.627881	0.095468	0.894107
	H81	H	0.391545	0.103548	0.081182
	H82	H	0.627290	0.915652	0.092009
	H83	H	0.392075	0.917866	0.900446
	H84	H	0.627586	0.906123	0.083215
	H85	H	0.392327	0.098167	0.082009
	H86	H	0.627707	0.106642	0.903379
	H87	H	0.390699	0.918378	0.896019
	H88	H	0.916198	0.100618	0.607405
	H89	H	0.102877	0.099592	0.373367
	H90	H	0.099942	0.907167	0.607300
	H91	H	0.908243	0.919243	0.372387
	H92	H	0.094958	0.622151	0.898349
	H93	H	0.102341	0.389767	0.090530
	H94	H	0.917529	0.622885	0.079131
	H95	H	0.910902	0.388974	0.891921
	H96	H	0.415986	0.121770	0.578384
	H97	H	0.605105	0.889283	0.587327
	H98	H	0.588598	0.124959	0.382242
	H99	H	0.422476	0.891331	0.394586
	H100	H	0.603989	0.405207	0.110600
	H101	H	0.603835	0.597592	0.872477
	H102	H	0.424143	0.617470	0.108486
	H103	H	0.410120	0.425211	0.874817
	H104	H	0.123023	0.592992	0.400767
	H105	H	0.889016	0.601401	0.588714
	H106	H	0.124094	0.415700	0.580231
	H107	H	0.894580	0.418542	0.404771
	H108	H	0.911089	0.625504	0.080854
	H109	H	0.095853	0.393659	0.080831
	H110	H	0.102477	0.624596	0.898743
	H111	H	0.918063	0.391854	0.894133
	H112	H	0.108529	0.911537	0.608584
	H113	H	0.099769	0.101195	0.374438
	H114	H	0.919930	0.098973	0.605746
	H115	H	0.922676	0.920121	0.377105
	H116	H	0.622090	0.094569	0.907640
	H117	H	0.389118	0.101697	0.085692
	H118	H	0.623379	0.918604	0.080614
	H119	H	0.390771	0.914547	0.897710
	C120	C	0.388502	0.014959	0.612890
	C121	C	0.632817	0.997902	0.615143
	C122	C	0.629965	0.015203	0.370832
	C123	C	0.387111	0.998403	0.369110
	C124	C	0.629714	0.385672	-0.001532
	C125	C	0.628404	0.629451	0.980917
	C126	C	0.385482	0.630658	-0.001628
	C127	C	0.386873	0.386335	0.981858
	C128	C	0.017566	0.629485	0.367249
	C129	C	0.999903	0.628397	0.609359
	C130	C	0.016807	0.386118	0.610884
	C131	C	0.999877	0.386512	0.368204
	C132	C	0.886747	0.516528	0.110483
	C133	C	0.130505	0.499103	0.111871
	C134	C	0.128573	0.515973	0.867979
	C135	C	0.884707	0.498990	0.865969
	C136	C	0.131515	0.884585	0.498632
	C137	C	0.130761	0.129153	0.481799
	C138	C	0.887829	0.129351	0.498636
	C139	C	0.888446	0.885765	0.481904
	C140	C	0.517701	0.128804	0.870243
	C141	C	0.499670	0.129460	0.112839
	C142	C	0.516831	0.885981	0.113076
	C143	C	0.500291	0.887447	0.870899
	C144	C	0.390787	0.892289	0.669287
	C145	C	0.630653	0.120922	0.670242
	C146	C	0.628871	0.892494	0.315124
	C147	C	0.388350	0.121433	0.313659
	C148	C	0.683059	0.388600	0.874627
	C149	C	0.684802	0.625613	0.104308
	C150	C	0.330562	0.627300	0.874679
	C151	C	0.332538	0.389413	0.105200
	C152	C	0.894292	0.686479	0.367366
	C153	C	0.124334	0.682254	0.608994
	C154	C	0.893147	0.330954	0.608178
	C155	C	0.123821	0.330724	0.370802
	C156	C	0.892202	0.389139	0.664225
	C157	C	0.123320	0.625578	0.667006
	C158	C	0.893656	0.628001	0.311239
	C159	C	0.123977	0.388452	0.313948
	C160	C	0.386150	0.686766	0.875515
	C161	C	0.626912	0.683027	0.104931
	C162	C	0.627514	0.329344	0.875951
	C163	C	0.388951	0.330691	0.104825
	C164	C	0.685180	0.891861	0.374376
	C165	C	0.687428	0.120994	0.612129
	C166	C	0.333272	0.892007	0.611005
	C167	C	0.332034	0.121715	0.372310
	C168	C	0.888941	0.393640	0.166155
	C169	C	0.127490	0.622146	0.166722
	C170	C	0.127559	0.393323	0.812554
	C171	C	0.885790	0.621485	0.809502
	C172	C	0.185615	0.889144	0.374977
	C173	C	0.185849	0.125267	0.605621
	C174	C	0.830423	0.126850	0.376166
	C175	C	0.835221	0.887523	0.605713
	C176	C	0.393929	0.185006	0.870448
	C177	C	0.623568	0.184307	0.111702
	C178	C	0.392804	0.831992	0.110069
	C179	C	0.623792	0.831237	0.874511
	C180	C	0.392876	0.889679	0.166844
	C181	C	0.623628	0.126353	0.168334
	C182	C	0.394523	0.127880	0.812618
	C183	C	0.624704	0.888079	0.817651
	C184	C	0.887676	0.184818	0.375581
	C185	C	0.129999	0.184805	0.604675
	C186	C	0.129541	0.830200	0.375022
	C187	C	0.890529	0.828149	0.604135
	C188	C	0.185041	0.393387	0.870548
	C189	C	0.184550	0.622512	0.108414
	C190	C	0.833132	0.392902	0.106673
	C191	C	0.829637	0.622053	0.868132
	C192	C	0.410797	0.100553	0.590126
	C193	C	0.610471	0.912187	0.593473
	C194	C	0.607128	0.100928	0.392615
	C195	C	0.409490	0.912243	0.390901
	C196	C	0.608390	0.407800	0.084798
	C197	C	0.605336	0.608349	0.894950
	C198	C	0.408293	0.608387	0.084258
	C199	C	0.409218	0.408651	0.895884
	C200	C	0.103919	0.606437	0.390184
	C201	C	0.913800	0.606660	0.585791
	C202	C	0.103154	0.408467	0.589043
	C203	C	0.913226	0.408816	0.389907
	C204	C	0.908640	0.602535	0.088461
	C205	C	0.108452	0.413388	0.089959
	C206	C	0.105422	0.601701	0.889955
	C207	C	0.907282	0.413069	0.888391
	C208	C	0.109628	0.905660	0.584786
	C209	C	0.108365	0.107705	0.395775
	C210	C	0.911830	0.107516	0.584479
	C211	C	0.909717	0.908680	0.395814
	C212	C	0.603636	0.105621	0.894581
	C213	C	0.413219	0.107523	0.089764
	C214	C	0.603714	0.907166	0.091531
	C215	C	0.413381	0.910385	0.891977
	Zn216	Zn	0.510133	0.007279	0.742438
	Zn217	Zn	0.508614	0.007280	0.240770
	Zn218	Zn	0.757551	0.507762	-0.011295
	Zn219	Zn	0.257990	0.508183	-0.010640
	Zn220	Zn	0.009443	0.756834	0.488762
	Zn221	Zn	0.009057	0.258640	0.489527
	Zn222	Zn	0.006994	0.507441	0.738417
	Zn223	Zn	0.008381	0.507612	0.239966
	Zn224	Zn	0.507335	0.758942	-0.009459
	Zn225	Zn	0.508762	0.257631	-0.008976
	Zn226	Zn	0.759538	0.006985	0.491984
	Zn227	Zn	0.259262	0.006709	0.490886
	N228	N	0.424503	0.969652	0.670368
	N229	N	0.597308	0.043515	0.672306
	N230	N	0.595242	0.970174	0.312577
	N231	N	0.421956	0.043757	0.311674
	N232	N	0.684637	0.422874	0.951907
	N233	N	0.685770	0.592917	0.026380
	N234	N	0.330090	0.593209	0.952053
	N235	N	0.331116	0.423337	0.027672
	N236	N	0.972408	0.687485	0.401421
	N237	N	0.046703	0.684089	0.573894
	N238	N	0.971577	0.328764	0.575755
	N239	N	0.045715	0.329526	0.403902
	N240	N	0.970082	0.422734	0.666042
	N241	N	0.045013	0.592710	0.667333
	N242	N	0.971288	0.593134	0.311256
	N243	N	0.045803	0.422339	0.312133
	N244	N	0.419887	0.688974	0.953523
	N245	N	0.592412	0.685484	0.027372
	N246	N	0.595370	0.327341	0.954101
	N247	N	0.421889	0.328570	0.027093
	N248	N	0.685760	0.969043	0.408332
	N249	N	0.689173	0.043389	0.578945
	N250	N	0.331902	0.969207	0.576556
	N251	N	0.331049	0.044220	0.405834
	N252	N	0.921424	0.471587	0.168808
	N253	N	0.094485	0.544507	0.168977
	N254	N	0.093103	0.470645	0.810913
	N255	N	0.919194	0.543799	0.807749
	N256	N	0.187268	0.922021	0.452933
	N257	N	0.186304	0.091355	0.528349
	N258	N	0.830432	0.093135	0.453828
	N259	N	0.833815	0.922835	0.528785
	N260	N	0.471668	0.185745	0.905418
	N261	N	0.545514	0.186344	0.077624
	N262	N	0.471211	0.829373	0.077559
	N263	N	0.545316	0.830683	0.906730
	N264	N	0.470983	0.922583	0.168590
	N265	N	0.545657	0.093036	0.169127
	N266	N	0.472463	0.093593	0.812561
	N267	N	0.546709	0.922395	0.815288
	N268	N	0.922822	0.186701	0.452832
	N269	N	0.096258	0.187356	0.526753
	N270	N	0.096501	0.827457	0.452763
	N271	N	0.922965	0.827070	0.526121
	N272	N	0.185822	0.470689	0.904264
	N273	N	0.186617	0.545052	0.075316
	N274	N	0.831723	0.470253	0.072720
	N275	N	0.828936	0.544922	0.902689
	O276	O	0.987005	1.019909	0.014993
	H277	H	0.994902	1.020174	0.013261
	H278	H	0.979498	1.018415	0.008844
	O279	O	-0.026991	0.084713	0.976962
	H280	H	-0.017150	0.093014	0.977493
	H281	H	-0.024023	0.081942	0.975315
	O282	O	0.489828	-0.452849	0.436628
	H283	H	0.487843	-0.447732	0.430643
	H284	H	0.490744	-0.460289	0.444535
	O285	O	0.551938	0.549352	0.529994
	H286	H	0.539881	0.551972	0.518829
	H287	H	0.547164	0.538908	0.532657
	O288	O	0.046959	0.057854	-0.033579
	H289	H	0.053472	0.061168	-0.036509
	H290	H	0.035581	0.061417	-0.034741
	O291	O	-0.021720	0.974083	-0.067822
	H292	H	-0.032427	0.984026	-0.064725
	H293	H	-0.030310	0.976705	-0.072800
	O294	O	-0.485172	0.448997	-0.536914
	H295	H	-0.485355	0.447982	-0.534547
	H296	H	-0.490211	0.452165	-0.542060
	O297	O	0.502980	0.474883	0.456482
	H298	H	0.508222	0.481665	0.444451
	H299	H	0.506115	0.480942	0.460910
	O300	O	0.489441	0.555671	0.429544
	H301	H	0.486180	0.555761	0.436579
	H302	H	0.485090	0.561554	0.431680
	O303	O	1.001736	-0.004264	1.003290
	H304	H	1.001455	-0.004192	0.995895
	H305	H	0.997048	0.007817	1.006988
	O306	O	0.015141	1.059135	0.992703
	H307	H	0.019221	1.058349	1.000461
	H308	H	0.023091	1.053304	0.990878
	O309	O	-0.504352	0.505391	1.564010
	H310	H	-0.512911	0.507532	1.576917
	H311	H	-0.495450	0.503595	1.562041
	O312	O	0.069022	0.018727	0.967106
	H313	H	0.063957	0.009679	0.967057
	H314	H	0.065392	0.009298	0.966502
	O315	O	0.475250	0.476410	0.491960
	H316	H	0.474785	0.466645	0.495090
	H317	H	0.477751	0.478881	0.482359
	O318	O	0.048520	0.098294	1.026604
	H319	H	0.051649	0.091026	1.025188
	H320	H	0.055751	0.098929	1.024676
	O321	O	1.042263	1.031572	1.013926
	H322	H	1.046543	1.040702	0.996947
	H323	H	1.048815	1.030620	1.017825
	O324	O	-0.028380	-1.055744	0.966037
	H325	H	-0.038519	-1.049392	0.960292
	H326	H	-0.032949	-1.058312	0.967898
	O327	O	0.960696	1.051322	0.928584
	H328	H	0.953135	1.063470	0.937468
	H329	H	0.959594	1.048522	0.929055
	O330	O	0.575415	0.559764	0.514187
	H331	H	0.579038	0.559694	0.515920
	H332	H	0.573557	0.559932	0.510113
	O333	O	0.431158	0.543433	0.494059
	H334	H	0.421601	0.558033	0.492134
	H335	H	0.432685	0.544908	0.483674
	O336	O	0.501677	0.544164	0.468269
	H337	H	0.501806	0.546600	0.464984
	H338	H	0.502546	0.549245	0.470468
	O339	O	0.505814	0.460930	0.507576
	H340	H	0.520422	0.455918	0.511168
	H341	H	0.500359	0.451382	0.514341
	O342	O	0.569844	0.568684	0.476129
	H343	H	0.566487	0.568628	0.469756
	H344	H	0.563858	0.572739	0.469574
	O345	O	0.526630	0.449471	0.452140
	H346	H	0.519766	0.456522	0.452766
	H347	H	0.520745	0.438509	0.455144
