data_Molecule from HDF5

_cell_length_a		16.369376
_cell_length_b		16.335717
_cell_length_c		16.410451
_cell_angle_alpha	89.768680
_cell_angle_beta	90.118395
_cell_angle_gamma	90.006912
_symmetry_space_group_name_H-M	'P 1'
_symmetry_Int_Tables_number		1

loop_
	_symmetry_equiv_pos_as_xyz
	x,y,z

loop_
	_atom_site_label
	_atom_site_type_symbol
	_atom_site_fract_x
	_atom_site_fract_y
	_atom_site_fract_z
	H0	H	0.384883	0.838984	0.718735
	H1	H	0.600368	0.155685	0.714367
	H2	H	0.603246	0.840813	0.270636
	H3	H	0.386632	0.155957	0.270608
	H4	H	0.712435	0.392401	0.836774
	H5	H	0.715185	0.602780	0.153120
	H6	H	0.266059	0.608622	0.838512
	H7	H	0.270044	0.388270	0.152532
	H8	H	0.836868	0.720264	0.386859
	H9	H	0.152605	0.719859	0.602086
	H10	H	0.835282	0.276176	0.596441
	H11	H	0.153719	0.275761	0.388247
	H12	H	0.834760	0.392631	0.712893
	H13	H	0.151668	0.604441	0.718897
	H14	H	0.836456	0.605247	0.270729
	H15	H	0.150596	0.387351	0.269317
	H16	H	0.383419	0.723064	0.838308
	H17	H	0.600885	0.719417	0.152674
	H18	H	0.596290	0.277836	0.836425
	H19	H	0.384119	0.270806	0.151443
	H20	H	0.716178	0.839827	0.387251
	H21	H	0.714650	0.156649	0.596065
	H22	H	0.271588	0.838446	0.601375
	H23	H	0.271896	0.155697	0.386243
	H24	H	0.887331	0.337412	0.216727
	H25	H	0.101187	0.654235	0.216854
	H26	H	0.097181	0.335769	0.777298
	H27	H	0.888747	0.656605	0.773564
	H28	H	0.214178	0.892945	0.334837
	H29	H	0.218470	0.102625	0.652171
	H30	H	0.774002	0.103901	0.333814
	H31	H	0.771637	0.890460	0.651204
	H32	H	0.332830	0.216396	0.889647
	H33	H	0.653951	0.215296	0.095943
	H34	H	0.333474	0.776698	0.099223
	H35	H	0.652258	0.775983	0.890134
	H36	H	0.334184	0.892339	0.214893
	H37	H	0.654275	0.101143	0.212715
	H38	H	0.334506	0.102897	0.771348
	H39	H	0.653437	0.893391	0.776028
	H40	H	0.891632	0.217913	0.334034
	H41	H	0.100508	0.216558	0.653214
	H42	H	0.100661	0.776155	0.335943
	H43	H	0.888626	0.774644	0.651378
	H44	H	0.215298	0.337493	0.889239
	H45	H	0.217102	0.653939	0.102050
	H46	H	0.775267	0.336043	0.097652
	H47	H	0.773284	0.657363	0.890905
	H48	H	0.409246	0.110187	0.583918
	H49	H	0.582321	0.882584	0.586528
	H50	H	0.574380	0.108725	0.406769
	H51	H	0.402673	0.881513	0.403240
	H52	H	0.586465	0.409943	0.109918
	H53	H	0.580990	0.587739	0.880421
	H54	H	0.407645	0.584927	0.106590
	H55	H	0.415625	0.411094	0.886108
	H56	H	0.106881	0.585346	0.408711
	H57	H	0.882479	0.581723	0.580163
	H58	H	0.109472	0.406879	0.586039
	H59	H	0.881350	0.410562	0.404493
	H60	H	0.109178	0.406279	0.585240
	H61	H	0.879160	0.585012	0.587749
	H62	H	0.106820	0.581688	0.404931
	H63	H	0.879764	0.405408	0.405269
	H64	H	0.404665	0.585448	0.108566
	H65	H	0.583004	0.584639	0.881580
	H66	H	0.579002	0.407355	0.108533
	H67	H	0.401286	0.399117	0.877165
	H68	H	0.590760	0.113810	0.410171
	H69	H	0.580611	0.884244	0.580635
	H70	H	0.410159	0.107824	0.578028
	H71	H	0.408740	0.884070	0.402566
	H72	H	0.904507	0.611553	0.083042
	H73	H	0.074250	0.384299	0.083463
	H74	H	0.077055	0.608066	0.909645
	H75	H	0.898612	0.378209	0.897845
	H76	H	0.082755	0.913734	0.605359
	H77	H	0.082736	0.085535	0.381381
	H78	H	0.900259	0.082814	0.608017
	H79	H	0.899920	0.910232	0.378586
	H80	H	0.608059	0.088221	0.901980
	H81	H	0.379290	0.087093	0.081285
	H82	H	0.607995	0.901036	0.079421
	H83	H	0.382569	0.917785	0.902744
	H84	H	0.603453	0.914227	0.079201
	H85	H	0.380327	0.082823	0.081578
	H86	H	0.607262	0.089274	0.905600
	H87	H	0.376080	0.904834	0.901944
	H88	H	0.908398	0.083559	0.605025
	H89	H	0.083087	0.088440	0.379947
	H90	H	0.079196	0.906404	0.606810
	H91	H	0.908250	0.913487	0.382773
	H92	H	0.081946	0.609897	0.908674
	H93	H	0.081316	0.385084	0.076275
	H94	H	0.904852	0.610687	0.083074
	H95	H	0.907903	0.383299	0.903434
	H96	H	0.404684	0.110135	0.579627
	H97	H	0.586015	0.882284	0.581891
	H98	H	0.584231	0.115938	0.394453
	H99	H	0.406048	0.884900	0.408169
	H100	H	0.584433	0.401987	0.111793
	H101	H	0.579279	0.585170	0.883001
	H102	H	0.404958	0.582524	0.106028
	H103	H	0.396744	0.418814	0.882322
	H104	H	0.108540	0.586747	0.404094
	H105	H	0.879964	0.589764	0.580715
	H106	H	0.109371	0.407491	0.585748
	H107	H	0.882227	0.408194	0.408540
	H108	H	0.904311	0.610796	0.082559
	H109	H	0.083527	0.380968	0.085456
	H110	H	0.078489	0.610353	0.904774
	H111	H	0.897415	0.382713	0.909247
	H112	H	0.086934	0.907376	0.608993
	H113	H	0.085491	0.086385	0.379604
	H114	H	0.904655	0.090435	0.608189
	H115	H	0.908186	0.904545	0.377815
	H116	H	0.606642	0.085270	0.904425
	H117	H	0.378888	0.084623	0.084820
	H118	H	0.610021	0.909165	0.090239
	H119	H	0.382325	0.909087	0.914616
	C120	C	0.373718	0.004849	0.614508
	C121	C	0.615666	0.988128	0.614907
	C122	C	0.615195	0.007278	0.371816
	C123	C	0.373004	0.988632	0.371854
	C124	C	0.613719	0.375788	0.004328
	C125	C	0.614156	0.618181	0.986314
	C126	C	0.370944	0.618686	0.003487
	C127	C	0.371295	0.375344	0.986077
	C128	C	0.002918	0.617651	0.372835
	C129	C	0.985280	0.618394	0.615940
	C130	C	0.003801	0.374559	0.616632
	C131	C	0.985811	0.375607	0.373115
	C132	C	0.872015	0.505755	0.115731
	C133	C	0.114155	0.487621	0.115724
	C134	C	0.113382	0.504781	0.874194
	C135	C	0.870330	0.487779	0.872177
	C136	C	0.116169	0.876158	0.502722
	C137	C	0.116838	0.118833	0.485489
	C138	C	0.873093	0.118367	0.501869
	C139	C	0.872225	0.875981	0.484084
	C140	C	0.502220	0.119760	0.871399
	C141	C	0.485206	0.117299	0.114265
	C142	C	0.502219	0.875643	0.115905
	C143	C	0.484784	0.876767	0.873555
	C144	C	0.368502	0.886298	0.677472
	C145	C	0.618666	0.107993	0.674723
	C146	C	0.619658	0.888134	0.311181
	C147	C	0.369175	0.108179	0.310709
	C148	C	0.672928	0.374091	0.884565
	C149	C	0.675123	0.620880	0.105608
	C150	C	0.307512	0.624810	0.885707
	C151	C	0.310322	0.371006	0.104897
	C152	C	0.884185	0.679547	0.369090
	C153	C	0.104666	0.679917	0.620028
	C154	C	0.883339	0.315377	0.616510
	C155	C	0.105460	0.315319	0.370275
	C156	C	0.882822	0.373624	0.673856
	C157	C	0.104204	0.622192	0.678168
	C158	C	0.883880	0.622109	0.311485
	C159	C	0.104136	0.371124	0.310945
	C160	C	0.365952	0.682003	0.885417
	C161	C	0.617996	0.679001	0.105139
	C162	C	0.614812	0.317100	0.884223
	C163	C	0.367076	0.312270	0.104287
	C164	C	0.676235	0.887531	0.369158
	C165	C	0.675570	0.108440	0.616053
	C166	C	0.311718	0.885995	0.619080
	C167	C	0.312202	0.108008	0.368727
	C168	C	0.869308	0.385415	0.176295
	C169	C	0.118630	0.606501	0.176911
	C170	C	0.115928	0.384437	0.815456
	C171	C	0.869800	0.608410	0.812971
	C172	C	0.175410	0.874221	0.382852
	C173	C	0.178008	0.121021	0.604476
	C174	C	0.813834	0.121335	0.381662
	C175	C	0.811521	0.872345	0.603212
	C176	C	0.381459	0.178014	0.870225
	C177	C	0.606063	0.176077	0.114863
	C178	C	0.381742	0.816053	0.117909
	C179	C	0.604510	0.816129	0.871722
	C180	C	0.382180	0.873886	0.175317
	C181	C	0.605949	0.119362	0.173124
	C182	C	0.382231	0.121308	0.811440
	C183	C	0.605161	0.874365	0.814479
	C184	C	0.872296	0.178418	0.381908
	C185	C	0.119080	0.177580	0.605130
	C186	C	0.118608	0.816234	0.383319
	C187	C	0.870021	0.814829	0.603555
	C188	C	0.174865	0.385260	0.871458
	C189	C	0.176545	0.606386	0.119770
	C190	C	0.813330	0.384556	0.117174
	C191	C	0.812400	0.608801	0.871585
	C192	C	0.400330	0.087670	0.588020
	C193	C	0.590117	0.904639	0.590211
	C194	C	0.590196	0.090872	0.396550
	C195	C	0.398511	0.905273	0.397332
	C196	C	0.589941	0.399624	0.088246
	C197	C	0.588641	0.592917	0.903421
	C198	C	0.397912	0.591823	0.085610
	C199	C	0.397155	0.402073	0.903347
	C200	C	0.085811	0.591814	0.398462
	C201	C	0.902245	0.593009	0.590047
	C202	C	0.087593	0.399561	0.592727
	C203	C	0.902643	0.400909	0.398612
	C204	C	0.897191	0.589043	0.090344
	C205	C	0.087471	0.404852	0.089320
	C206	C	0.087029	0.587750	0.900094
	C207	C	0.894189	0.403391	0.896520
	C208	C	0.090407	0.901782	0.585613
	C209	C	0.091346	0.093937	0.402048
	C210	C	0.897567	0.092786	0.585418
	C211	C	0.898011	0.901985	0.401412
	C212	C	0.585694	0.094941	0.896552
	C213	C	0.401393	0.092146	0.089696
	C214	C	0.585274	0.900707	0.090503
	C215	C	0.402119	0.902896	0.898803
	Zn216	Zn	0.493871	-0.002930	0.743718
	Zn217	Zn	0.494190	-0.002361	0.243785
	Zn218	Zn	0.742434	0.496546	-0.004460
	Zn219	Zn	0.242643	0.496410	-0.005296
	Zn220	Zn	-0.004517	0.747611	0.493491
	Zn221	Zn	-0.005010	0.246959	0.493924
	Zn222	Zn	-0.006172	0.496092	0.744640
	Zn223	Zn	-0.006748	0.496533	0.243964
	Zn224	Zn	0.492985	0.747540	-0.005268
	Zn225	Zn	0.492944	0.246740	-0.005247
	Zn226	Zn	0.743231	-0.001577	0.492290
	Zn227	Zn	0.244795	-0.003364	0.493518
	N228	N	0.406649	0.961164	0.674502
	N229	N	0.582361	0.032080	0.674350
	N230	N	0.582409	0.963573	0.312746
	N231	N	0.406407	0.032907	0.312550
	N232	N	0.672380	0.409894	0.960214
	N233	N	0.673081	0.583887	0.030631
	N234	N	0.310613	0.586049	0.960040
	N235	N	0.312992	0.409720	0.030424
	N236	N	0.959300	0.677269	0.406494
	N237	N	0.029764	0.677917	0.581975
	N238	N	0.959641	0.315793	0.581719
	N239	N	0.031078	0.318247	0.408559
	N240	N	0.958776	0.409246	0.674240
	N241	N	0.029041	0.585008	0.675978
	N242	N	0.958759	0.584549	0.313429
	N243	N	0.028718	0.408050	0.312614
	N244	N	0.404966	0.678292	0.959538
	N245	N	0.580396	0.677229	0.030247
	N246	N	0.578710	0.318021	0.959631
	N247	N	0.404509	0.314966	0.029364
	N248	N	0.673322	0.962511	0.406495
	N249	N	0.674101	0.032827	0.579992
	N250	N	0.315042	0.960604	0.580483
	N251	N	0.314520	0.032810	0.406348
	N252	N	0.904900	0.461660	0.175663
	N253	N	0.080807	0.531432	0.174627
	N254	N	0.078761	0.459835	0.816947
	N255	N	0.904766	0.531919	0.813079
	N256	N	0.174083	0.910577	0.458161
	N257	N	0.176766	0.085474	0.528714
	N258	N	0.814141	0.084631	0.457317
	N259	N	0.812713	0.909507	0.527992
	N260	N	0.457207	0.177472	0.906570
	N261	N	0.529905	0.175025	0.079206
	N262	N	0.457519	0.816661	0.081977
	N263	N	0.528702	0.817248	0.907424
	N264	N	0.458145	0.909621	0.174754
	N265	N	0.529782	0.083731	0.172877
	N266	N	0.458385	0.085907	0.812008
	N267	N	0.529618	0.911087	0.815298
	N268	N	0.908631	0.176567	0.457504
	N269	N	0.082025	0.176446	0.529942
	N270	N	0.082643	0.817157	0.458972
	N271	N	0.906971	0.816699	0.528408
	N272	N	0.173622	0.461384	0.907250
	N273	N	0.173744	0.531504	0.082434
	N274	N	0.814882	0.460318	0.080092
	N275	N	0.812339	0.532566	0.907373
	O276	O	0.602308	0.297364	0.558423
	H277	H	0.602167	0.295957	0.571550
	H278	H	0.581519	0.302246	0.546631
	O279	O	0.437555	0.328503	0.488976
	H280	H	0.425564	0.337491	0.486499
	H281	H	0.428390	0.321617	0.507925
	O282	O	0.499251	0.433866	0.511170
	H283	H	0.499383	0.417187	0.494987
	H284	H	0.504102	0.457904	0.512889
	O285	O	0.892049	1.092274	0.033876
	H286	H	0.901267	1.105153	0.014832
	H287	H	0.898082	1.098049	0.026029
	O288	O	0.611942	0.468204	0.616897
	H289	H	0.621185	0.473018	0.597709
	H290	H	0.623251	0.490426	0.624386
	O291	O	0.409177	0.541745	0.711195
	H292	H	0.431507	0.523521	0.713414
	H293	H	0.400318	0.541102	0.703910
	O294	O	0.908287	1.196273	0.810595
	H295	H	0.890249	1.188904	0.800638
	H296	H	0.899069	1.198498	0.805137
	O297	O	0.368147	0.306720	0.684264
	H298	H	0.361438	0.325910	0.704699
	H299	H	0.391059	0.306831	0.658138
	O300	O	0.326018	0.491590	0.655729
	H301	H	0.302597	0.495079	0.680505
	H302	H	0.333430	0.511729	0.647855
	O303	O	0.663946	0.327104	0.325432
	H304	H	0.675520	0.350643	0.336477
	H305	H	0.653353	0.335771	0.332888
	O306	O	-0.200870	0.118984	0.861277
	H307	H	-0.200715	0.136952	0.856779
	H308	H	-0.200323	0.133039	0.844732
	O309	O	1.159225	-0.106466	-0.075384
	H310	H	1.166911	-0.115015	-0.067205
	H311	H	1.126906	-0.117124	-0.059142
	O312	O	0.534554	0.551802	0.277788
	H313	H	0.547546	0.552372	0.279852
	H314	H	0.537086	0.565894	0.273017
	O315	O	0.511690	0.282173	0.284400
	H316	H	0.524598	0.273803	0.274594
	H317	H	0.527146	0.275354	0.278507
	O318	O	-0.109860	0.093379	0.094144
	H319	H	-0.098674	0.100972	0.102241
	H320	H	-0.117067	0.083342	0.095167
	O321	O	0.699869	0.706598	0.544137
	H322	H	0.694758	0.707143	0.519329
	H323	H	0.715975	0.719866	0.533229
	O324	O	0.902345	-0.143707	1.005985
	H325	H	0.891785	-0.132087	1.006850
	H326	H	0.917511	-0.143357	0.983335
	O327	O	0.704750	0.481084	0.290092
	H328	H	0.716824	0.474897	0.281089
	H329	H	0.716887	0.502633	0.301217
	O330	O	0.135417	0.899232	0.945286
	H331	H	0.133395	0.907212	0.948302
	H332	H	0.139004	0.885659	0.968042
	O333	O	-0.083733	1.173974	-0.208972
	H334	H	-0.097213	1.169573	-0.195221
	H335	H	-0.106461	1.189247	-0.222394
	O336	O	1.078968	0.966887	0.041058
	H337	H	1.084110	0.968976	0.033238
	H338	H	1.075273	0.964415	0.041501
	O339	O	-0.081567	0.922089	0.915472
	H340	H	-0.071714	0.920177	0.929793
	H341	H	-0.078673	0.928065	0.902447
	O342	O	0.470456	0.717648	0.273950
	H343	H	0.471868	0.733643	0.244370
	H344	H	0.432048	0.718448	0.271468
	O345	O	-0.165394	-0.240538	1.227638
	H346	H	-0.185714	-0.250329	1.224612
	H347	H	-0.175610	-0.210955	1.220407
	O348	O	0.518664	0.634064	0.467027
	H349	H	0.514122	0.643860	0.430642
	H350	H	0.493024	0.642498	0.498047
	O351	O	0.947527	0.873795	-0.049376
	H352	H	0.957110	0.863734	-0.048182
	H353	H	0.950187	0.879885	-0.067939
	O354	O	1.114415	1.092531	1.108729
	H355	H	1.138564	1.090433	1.108329
	H356	H	1.119759	1.083337	1.111018
	O357	O	-0.165002	-0.049804	-0.130367
	H358	H	-0.144687	-0.058075	-0.141128
	H359	H	-0.179630	-0.048087	-0.152601
	O360	O	0.502381	0.691906	0.711015
	H361	H	0.493002	0.674075	0.704923
	H362	H	0.510011	0.719086	0.743459
	O363	O	1.585360	-0.680213	0.599827
	H364	H	1.583226	-0.658225	0.591448
	H365	H	1.562450	-0.691855	0.588017
	O366	O	0.282078	0.286915	1.539030
	H367	H	0.293673	0.282941	1.554616
	H368	H	0.270463	0.257749	1.551022
	O369	O	1.122413	0.023518	0.871334
	H370	H	1.120833	0.036037	0.874624
	H371	H	1.123815	0.017362	0.861919
	O372	O	0.706883	0.523079	0.709853
	H373	H	0.706237	0.542923	0.715778
	H374	H	0.718653	0.527560	0.728387
	O375	O	0.080475	0.161299	1.153634
	H376	H	0.088172	0.154153	1.129631
	H377	H	0.096382	0.144459	1.159623
	O378	O	0.307521	0.682837	0.306205
	H379	H	0.313276	0.693260	0.345154
	H380	H	0.296982	0.628183	0.297193
	O381	O	-0.039814	0.861633	-0.022377
	H382	H	-0.055031	0.868071	-0.028172
	H383	H	-0.046939	0.853450	-0.018088
	O384	O	0.414019	0.504275	0.458248
	H385	H	0.427215	0.501502	0.451679
	H386	H	0.403348	0.502748	0.454056
	O387	O	0.456064	0.396497	0.365846
	H388	H	0.471360	0.385157	0.355002
	H389	H	0.476171	0.410277	0.357965
	O390	O	0.821234	0.905677	-0.100063
	H391	H	0.818834	0.914519	-0.108014
	H392	H	0.821649	0.913781	-0.115572
	O393	O	1.038181	-0.193154	0.811446
	H394	H	1.053330	-0.177176	0.812704
	H395	H	1.045707	-0.202767	0.799651
	O396	O	0.703509	0.447928	0.486318
	H397	H	0.689942	0.450342	0.478942
	H398	H	0.695248	0.468676	0.509323
	O399	O	0.522358	0.411558	0.664372
	H400	H	0.509800	0.401610	0.669251
	H401	H	0.531309	0.413821	0.655961
	O402	O	1.039725	0.885616	0.107101
	H403	H	1.024831	0.883793	0.097070
	H404	H	1.035512	0.876460	0.115692
	O405	O	0.282536	0.517925	0.286411
	H406	H	0.299623	0.489962	0.288882
	H407	H	0.260392	0.506592	0.267253
	O408	O	0.286316	0.415212	0.522290
	H409	H	0.280600	0.389655	0.530163
	H410	H	0.296142	0.411823	0.506422
	O411	O	1.074485	1.091243	0.937243
	H412	H	1.073410	1.107774	0.934876
	H413	H	1.062387	1.100509	0.936988
	O414	O	0.284305	0.708588	0.466889
	H415	H	0.290501	0.695811	0.467396
	H416	H	0.264919	0.732966	0.474882
	O417	O	0.151737	1.070503	1.119380
	H418	H	0.146117	1.056608	1.122347
	H419	H	0.148585	1.062344	1.108125
	O420	O	0.114230	0.843861	1.076455
	H421	H	0.103522	0.830979	1.086318
	H422	H	0.105862	0.846611	1.091576
	O423	O	-0.158084	0.971155	0.169586
	H424	H	-0.162734	0.988726	0.182124
	H425	H	-0.150028	0.972777	0.157604
	O426	O	0.662959	0.564951	0.465981
	H427	H	0.662527	0.562176	0.458052
	H428	H	0.649997	0.572733	0.464476
	O429	O	0.660617	0.691178	0.688560
	H430	H	0.628400	0.694897	0.702366
	H431	H	0.674353	0.698733	0.640052
	O432	O	0.470758	0.709176	0.495990
	H433	H	0.462025	0.709439	0.491925
	H434	H	0.468941	0.710737	0.509528
	O435	O	0.094089	0.161152	-0.027451
	H436	H	0.098915	0.163462	-0.025651
	H437	H	0.084606	0.154706	-0.043476
	O438	O	-0.092348	1.035363	1.104582
	H439	H	-0.081805	1.036750	1.093572
	H440	H	-0.079256	1.037859	1.116156
	O441	O	0.275291	0.558480	0.548952
	H442	H	0.277158	0.550740	0.547760
	H443	H	0.266208	0.552847	0.544110
