data_Molecule from HDF5

_cell_length_a		16.427178
_cell_length_b		16.455216
_cell_length_c		16.510664
_cell_angle_alpha	89.882602
_cell_angle_beta	89.923013
_cell_angle_gamma	90.053242
_symmetry_space_group_name_H-M	'P 1'
_symmetry_Int_Tables_number		1

loop_
	_symmetry_equiv_pos_as_xyz
	x,y,z

loop_
	_atom_site_label
	_atom_site_type_symbol
	_atom_site_fract_x
	_atom_site_fract_y
	_atom_site_fract_z
	H0	H	0.393123	0.843367	0.712707
	H1	H	0.601308	0.160841	0.709452
	H2	H	0.605214	0.847413	0.266524
	H3	H	0.384772	0.158030	0.263969
	H4	H	0.720572	0.395735	0.833489
	H5	H	0.719290	0.606416	0.147065
	H6	H	0.277483	0.607571	0.832169
	H7	H	0.273497	0.394254	0.147337
	H8	H	0.841668	0.724781	0.381896
	H9	H	0.155986	0.725917	0.597052
	H10	H	0.840564	0.281332	0.594675
	H11	H	0.156256	0.278635	0.382047
	H12	H	0.841197	0.396874	0.711755
	H13	H	0.156358	0.610301	0.712460
	H14	H	0.842832	0.611301	0.264278
	H15	H	0.155116	0.391816	0.263686
	H16	H	0.389921	0.726492	0.834155
	H17	H	0.603447	0.723823	0.146891
	H18	H	0.604562	0.279275	0.833853
	H19	H	0.388318	0.276221	0.147099
	H20	H	0.720192	0.846639	0.382805
	H21	H	0.721312	0.159500	0.596030
	H22	H	0.275972	0.842731	0.596982
	H23	H	0.271550	0.157753	0.381817
	H24	H	0.888297	0.346189	0.216095
	H25	H	0.107167	0.658975	0.214774
	H26	H	0.102180	0.345222	0.769949
	H27	H	0.892953	0.660014	0.768532
	H28	H	0.227110	0.887897	0.335071
	H29	H	0.217323	0.104956	0.647149
	H30	H	0.773483	0.110465	0.332994
	H31	H	0.774264	0.893373	0.644452
	H32	H	0.341019	0.224671	0.884420
	H33	H	0.656228	0.223968	0.095784
	H34	H	0.340058	0.777022	0.099902
	H35	H	0.655741	0.782538	0.886861
	H36	H	0.341375	0.891847	0.217460
	H37	H	0.654107	0.112156	0.215687
	H38	H	0.341654	0.108342	0.767582
	H39	H	0.656938	0.899516	0.772352
	H40	H	0.887200	0.228682	0.333552
	H41	H	0.101993	0.222734	0.645682
	H42	H	0.106733	0.776112	0.332900
	H43	H	0.891199	0.776708	0.644462
	H44	H	0.217133	0.344195	0.888351
	H45	H	0.219789	0.660661	0.095977
	H46	H	0.772667	0.345651	0.099509
	H47	H	0.776733	0.659434	0.885281
	H48	H	0.416049	0.109483	0.575746
	H49	H	0.585859	0.888243	0.582788
	H50	H	0.582724	0.114387	0.404702
	H51	H	0.415201	0.893283	0.405703
	H52	H	0.590514	0.414388	0.104370
	H53	H	0.588791	0.596630	0.875071
	H54	H	0.405969	0.585876	0.102511
	H55	H	0.409620	0.412835	0.879245
	H56	H	0.108600	0.581867	0.402519
	H57	H	0.887044	0.588328	0.579827
	H58	H	0.113025	0.413294	0.579499
	H59	H	0.886046	0.414609	0.399145
	H60	H	0.112549	0.411959	0.579602
	H61	H	0.885808	0.591495	0.580933
	H62	H	0.112623	0.590127	0.398597
	H63	H	0.887463	0.413168	0.405329
	H64	H	0.413669	0.590396	0.101180
	H65	H	0.589046	0.586750	0.879003
	H66	H	0.583085	0.418114	0.099700
	H67	H	0.407847	0.413445	0.878486
	H68	H	0.585847	0.115691	0.403591
	H69	H	0.585181	0.889872	0.578936
	H70	H	0.400304	0.114591	0.573485
	H71	H	0.410557	0.891222	0.405476
	H72	H	0.907100	0.613387	0.071183
	H73	H	0.090304	0.390570	0.074424
	H74	H	0.086379	0.616664	0.899894
	H75	H	0.907131	0.386269	0.895534
	H76	H	0.086097	0.911580	0.601520
	H77	H	0.081518	0.088070	0.378263
	H78	H	0.903144	0.091438	0.603823
	H79	H	0.906770	0.912430	0.374998
	H80	H	0.608468	0.086142	0.904795
	H81	H	0.382794	0.094043	0.081585
	H82	H	0.607090	0.916597	0.074928
	H83	H	0.384233	0.916514	0.900150
	H84	H	0.607905	0.917921	0.079809
	H85	H	0.388432	0.090404	0.070189
	H86	H	0.613288	0.089290	0.893505
	H87	H	0.382964	0.911985	0.899522
	H88	H	0.911709	0.083819	0.597415
	H89	H	0.086349	0.092469	0.375696
	H90	H	0.085720	0.915381	0.599176
	H91	H	0.910288	0.918252	0.378366
	H92	H	0.089428	0.616803	0.901178
	H93	H	0.083121	0.388892	0.082735
	H94	H	0.909962	0.616045	0.082114
	H95	H	0.914965	0.390307	0.900181
	H96	H	0.408107	0.117404	0.587410
	H97	H	0.589282	0.888723	0.579710
	H98	H	0.583206	0.116146	0.401433
	H99	H	0.413569	0.890458	0.401588
	H100	H	0.583054	0.409587	0.103201
	H101	H	0.580523	0.592890	0.878865
	H102	H	0.406675	0.594665	0.104999
	H103	H	0.408971	0.414516	0.879445
	H104	H	0.109432	0.590416	0.407919
	H105	H	0.886025	0.590604	0.577048
	H106	H	0.111920	0.412430	0.578254
	H107	H	0.888662	0.418656	0.403688
	H108	H	0.917555	0.610709	0.075466
	H109	H	0.079288	0.394057	0.073450
	H110	H	0.088903	0.617871	0.897971
	H111	H	0.906126	0.389221	0.905363
	H112	H	0.082393	0.911789	0.599288
	H113	H	0.087901	0.085791	0.377830
	H114	H	0.915012	0.095682	0.601037
	H115	H	0.913857	0.911686	0.377254
	H116	H	0.613319	0.097803	0.902800
	H117	H	0.387342	0.081676	0.080358
	H118	H	0.609419	0.913521	0.078116
	H119	H	0.383839	0.913176	0.903615
	C120	C	0.376078	0.009657	0.612049
	C121	C	0.619690	0.993423	0.611980
	C122	C	0.618049	0.012083	0.369339
	C123	C	0.376187	0.993806	0.369142
	C124	C	0.619133	0.380771	-0.001178
	C125	C	0.619003	0.623865	0.981613
	C126	C	0.376285	0.623600	-0.000998
	C127	C	0.375545	0.379958	0.982435
	C128	C	0.007135	0.621905	0.368608
	C129	C	0.990129	0.623647	0.611658
	C130	C	0.007552	0.380904	0.610784
	C131	C	0.990314	0.380722	0.368182
	C132	C	0.877198	0.510090	0.110920
	C133	C	0.118529	0.494496	0.110937
	C134	C	0.119860	0.511997	0.868747
	C135	C	0.876974	0.493289	0.868339
	C136	C	0.119700	0.878805	0.497217
	C137	C	0.118050	0.121655	0.480895
	C138	C	0.876005	0.124055	0.497505
	C139	C	0.876436	0.880101	0.480114
	C140	C	0.507409	0.123992	0.868465
	C141	C	0.489475	0.123179	0.111568
	C142	C	0.505035	0.881369	0.112110
	C143	C	0.488766	0.881675	0.869778
	C144	C	0.374101	0.890888	0.672931
	C145	C	0.621126	0.113165	0.670617
	C146	C	0.622470	0.894410	0.307242
	C147	C	0.369075	0.111085	0.305918
	C148	C	0.680130	0.377753	0.880638
	C149	C	0.679217	0.625197	0.099850
	C150	C	0.316407	0.626185	0.880129
	C151	C	0.313561	0.375954	0.100135
	C152	C	0.889207	0.684334	0.364252
	C153	C	0.108616	0.685222	0.614523
	C154	C	0.888088	0.321303	0.613024
	C155	C	0.108688	0.318774	0.364039
	C156	C	0.888541	0.378851	0.671248
	C157	C	0.108753	0.627730	0.672377
	C158	C	0.889653	0.627772	0.305647
	C159	C	0.108085	0.375501	0.305395
	C160	C	0.372582	0.685470	0.881039
	C161	C	0.621355	0.683497	0.100003
	C162	C	0.622382	0.319756	0.880901
	C163	C	0.371201	0.317416	0.100093
	C164	C	0.679858	0.894089	0.365179
	C165	C	0.680408	0.112455	0.614096
	C166	C	0.316033	0.890384	0.615128
	C167	C	0.312185	0.110770	0.364493
	C168	C	0.871604	0.392839	0.174416
	C169	C	0.123457	0.612254	0.173212
	C170	C	0.121288	0.392317	0.809871
	C171	C	0.874521	0.612314	0.808572
	C172	C	0.184485	0.872634	0.380945
	C173	C	0.177718	0.123637	0.599479
	C174	C	0.814156	0.128075	0.379994
	C175	C	0.814832	0.875891	0.597422
	C176	C	0.388338	0.184269	0.866315
	C177	C	0.608432	0.184178	0.114445
	C178	C	0.387456	0.818408	0.117059
	C179	C	0.608141	0.822287	0.868578
	C180	C	0.387917	0.875524	0.175731
	C181	C	0.607427	0.128518	0.174190
	C182	C	0.388586	0.126733	0.808037
	C183	C	0.608699	0.880445	0.811298
	C184	C	0.871032	0.186978	0.380254
	C185	C	0.120717	0.182426	0.598925
	C186	C	0.124404	0.816917	0.379828
	C187	C	0.872856	0.817575	0.597340
	C188	C	0.178193	0.391880	0.868580
	C189	C	0.180083	0.613019	0.114291
	C190	C	0.813797	0.392714	0.116548
	C191	C	0.816256	0.611895	0.866319
	C192	C	0.400959	0.092144	0.586304
	C193	C	0.594293	0.910599	0.587408
	C194	C	0.591464	0.094021	0.395620
	C195	C	0.404731	0.912913	0.396343
	C196	C	0.593111	0.406572	0.081026
	C197	C	0.593490	0.599140	0.899015
	C198	C	0.401743	0.597875	0.081424
	C199	C	0.401505	0.406035	0.900443
	C200	C	0.088924	0.595062	0.395208
	C201	C	0.907654	0.597589	0.586472
	C202	C	0.090744	0.405548	0.586009
	C203	C	0.908645	0.407672	0.395135
	C204	C	0.904012	0.591916	0.084067
	C205	C	0.091861	0.412566	0.084686
	C206	C	0.095336	0.595289	0.892683
	C207	C	0.902390	0.410328	0.893230
	C208	C	0.092574	0.905437	0.578720
	C209	C	0.092474	0.096281	0.398740
	C210	C	0.902453	0.097824	0.579383
	C211	C	0.902872	0.906441	0.398075
	C212	C	0.590178	0.098423	0.893364
	C213	C	0.407665	0.096186	0.085089
	C214	C	0.586907	0.908282	0.085293
	C215	C	0.405362	0.906611	0.894200
	Zn216	Zn	0.498305	0.001810	0.740311
	Zn217	Zn	0.497061	0.003037	0.240581
	Zn218	Zn	0.747914	0.501664	-0.009930
	Zn219	Zn	0.247689	0.502813	-0.009170
	Zn220	Zn	-0.001149	0.750455	0.488756
	Zn221	Zn	-0.001864	0.252508	0.489061
	Zn222	Zn	-0.000845	0.502233	0.739880
	Zn223	Zn	-0.001510	0.501802	0.239877
	Zn224	Zn	0.497104	0.752365	-0.009444
	Zn225	Zn	0.498136	0.251858	-0.009153
	Zn226	Zn	0.747158	0.002984	0.489712
	Zn227	Zn	0.247698	0.000213	0.490233
	N228	N	0.410357	0.966177	0.671512
	N229	N	0.584220	0.038140	0.669509
	N230	N	0.584770	0.968890	0.309683
	N231	N	0.408042	0.037458	0.308611
	N232	N	0.678323	0.414693	0.955235
	N233	N	0.677748	0.589000	0.025189
	N234	N	0.318322	0.588717	0.954555
	N235	N	0.316282	0.414203	0.026170
	N236	N	0.963204	0.680796	0.402865
	N237	N	0.033814	0.682831	0.577304
	N238	N	0.962986	0.322551	0.575977
	N239	N	0.034334	0.321769	0.402213
	N240	N	0.963759	0.415441	0.669805
	N241	N	0.034106	0.590123	0.670832
	N242	N	0.964014	0.589777	0.308320
	N243	N	0.033402	0.413111	0.307672
	N244	N	0.408871	0.684145	0.955987
	N245	N	0.584750	0.682961	0.025227
	N246	N	0.585117	0.321608	0.955347
	N247	N	0.408801	0.319411	0.025668
	N248	N	0.677075	0.968253	0.403173
	N249	N	0.679932	0.036892	0.578835
	N250	N	0.316916	0.965161	0.578098
	N251	N	0.316281	0.036632	0.402876
	N252	N	0.910150	0.466776	0.171110
	N253	N	0.086245	0.537434	0.171412
	N254	N	0.086029	0.467968	0.809762
	N255	N	0.911301	0.537378	0.809533
	N256	N	0.181403	0.910565	0.454953
	N257	N	0.176186	0.086433	0.525053
	N258	N	0.817273	0.089575	0.453741
	N259	N	0.816846	0.913939	0.523408
	N260	N	0.463278	0.182614	0.903020
	N261	N	0.534178	0.181038	0.076281
	N262	N	0.461411	0.821736	0.078249
	N263	N	0.532242	0.822654	0.903832
	N264	N	0.462009	0.914150	0.172692
	N265	N	0.532266	0.091515	0.172795
	N266	N	0.463544	0.089906	0.809276
	N267	N	0.533359	0.916369	0.811681
	N268	N	0.908815	0.184598	0.454502
	N269	N	0.084513	0.181555	0.523984
	N270	N	0.085039	0.820664	0.453008
	N271	N	0.910397	0.820012	0.523124
	N272	N	0.177767	0.467395	0.904021
	N273	N	0.177001	0.538859	0.076143
	N274	N	0.816974	0.466724	0.077807
	N275	N	0.817549	0.536755	0.902657
	O276	O	1.068440	0.781948	-0.078988
	H277	H	1.060094	0.776923	-0.062006
	H278	H	1.072459	0.761085	-0.102724
	O279	O	-0.029864	-0.205106	0.053530
	H280	H	-0.037797	-0.221662	0.061370
	H281	H	-0.027254	-0.191912	0.044068
	O282	O	0.939597	0.921144	-0.032985
	H283	H	0.944006	0.922011	-0.028476
	H284	H	0.909305	0.925909	-0.026048
	O285	O	0.703810	0.292427	0.472646
	H286	H	0.706384	0.285136	0.440060
	H287	H	0.708130	0.275467	0.458281
	O288	O	-0.361105	0.719989	-0.509558
	H289	H	-0.369656	0.731474	-0.500570
	H290	H	-0.352678	0.730440	-0.499165
	O291	O	1.323156	0.575977	0.578910
	H292	H	1.319670	0.573990	0.574597
	H293	H	1.312935	0.565819	0.603083
	O294	O	0.019436	1.218882	0.214971
	H295	H	0.023837	1.257825	0.249432
	H296	H	0.051857	1.214664	0.192890
	O297	O	0.178268	0.103665	-0.046531
	H298	H	0.182548	0.085641	-0.025753
	H299	H	0.183506	0.097367	-0.060734
	O300	O	0.561092	0.381243	0.451979
	H301	H	0.545296	0.376395	0.455905
	H302	H	0.562907	0.378150	0.457246
	O303	O	0.701655	0.490015	0.509574
	H304	H	0.696604	0.464039	0.498913
	H305	H	0.709348	0.489506	0.511226
	O306	O	0.587726	0.597145	0.523090
	H307	H	0.588281	0.617017	0.542856
	H308	H	0.589567	0.585186	0.512469
	O309	O	0.519586	0.289823	0.279907
	H310	H	0.514507	0.261956	0.250577
	H311	H	0.490460	0.283750	0.318072
	O312	O	0.407737	0.633923	0.299416
	H313	H	0.396764	0.608589	0.302805
	H314	H	0.412908	0.645117	0.309845
	O315	O	0.688077	-0.324938	1.312171
	H316	H	0.655425	-0.327438	1.327606
	H317	H	0.681777	-0.347627	1.334479
	O318	O	0.185084	0.820532	-0.192809
	H319	H	0.132927	0.813318	-0.201765
	H320	H	0.193196	0.814054	-0.144603
	O321	O	0.322931	0.289681	-0.440778
	H322	H	0.308447	0.277811	-0.425012
	H323	H	0.313462	0.279386	-0.411503
	O324	O	0.959653	0.111117	1.066599
	H325	H	0.964399	0.115685	1.077160
	H326	H	0.968286	0.124724	1.072036
	O327	O	0.640943	0.354739	1.682654
	H328	H	0.649302	0.369917	1.672257
	H329	H	0.624774	0.379884	1.671394
	O330	O	0.388573	0.420916	0.340407
	H331	H	0.371875	0.424660	0.347901
	H332	H	0.387884	0.428522	0.350665
	O333	O	1.502951	0.499137	1.670645
	H334	H	1.499615	0.510768	1.664143
	H335	H	1.504529	0.514208	1.675799
	O336	O	0.692989	0.695645	0.689746
	H337	H	0.710237	0.696736	0.698067
	H338	H	0.679891	0.691219	0.669002
	O339	O	0.205665	-0.183439	0.993961
	H340	H	0.213763	-0.169748	0.997885
	H341	H	0.222506	-0.177602	1.006549
	O342	O	-0.005985	1.199257	0.789506
	H343	H	-0.024646	1.180285	0.780372
	H344	H	-0.025123	1.211993	0.801645
	O345	O	-0.189541	0.102050	-0.210723
	H346	H	-0.210348	0.101940	-0.205417
	H347	H	-0.194835	0.114022	-0.216016
	O348	O	0.789086	0.217284	0.958977
	H349	H	0.785808	0.222537	0.970332
	H350	H	0.774269	0.220544	0.967563
	O351	O	0.820808	0.856976	-0.129266
	H352	H	0.831718	0.867964	-0.123350
	H353	H	0.837671	0.883134	-0.124892
	O354	O	0.426112	0.641995	0.533257
	H355	H	0.437922	0.635423	0.537811
	H356	H	0.423620	0.642294	0.532238
	O357	O	1.279865	1.479110	0.455338
	H358	H	1.275264	1.485915	0.462783
	H359	H	1.277087	1.487034	0.464566
	O360	O	0.526629	0.715502	0.705725
	H361	H	0.540319	0.726438	0.723303
	H362	H	0.532812	0.709028	0.711478
	O363	O	0.292377	0.301022	0.692987
	H364	H	0.318280	0.287722	0.692967
	H365	H	0.283494	0.272107	0.719382
	O366	O	1.214797	0.021561	1.204666
	H367	H	1.243290	0.022074	1.248523
	H368	H	1.169592	-0.002072	1.214488
	O369	O	1.066626	0.937634	1.185716
	H370	H	1.052903	0.918806	1.177202
	H371	H	1.041164	0.935675	1.179999
	O372	O	0.186628	0.190589	0.798126
	H373	H	0.160723	0.177175	0.811862
	H374	H	0.174225	0.169377	0.813930
	O375	O	0.055409	1.032180	0.795927
	H376	H	0.061669	1.045551	0.804819
	H377	H	0.070276	1.013327	0.783064
	O378	O	0.443132	0.369500	0.458753
	H379	H	0.414394	0.371676	0.472042
	H380	H	0.451339	0.376349	0.468236
	O381	O	1.355094	-0.433416	0.511058
	H382	H	1.351794	-0.450152	0.515132
	H383	H	1.337044	-0.442913	0.516319
	O384	O	0.277790	-0.526576	1.709554
	H385	H	0.256018	-0.543405	1.730135
	H386	H	0.274676	-0.563348	1.714067
	O387	O	-0.207658	1.137217	0.900011
	H388	H	-0.207906	1.147819	0.897208
	H389	H	-0.210745	1.146592	0.934368
	O390	O	0.006127	-0.198140	1.146764
	H391	H	-0.012000	-0.203292	1.158019
	H392	H	0.023313	-0.203450	1.116267
	O393	O	1.159816	1.211347	-0.003660
	H394	H	1.166735	1.218017	-0.025006
	H395	H	1.180255	1.197879	-0.016010
	O396	O	0.537594	0.532831	0.475699
	H397	H	0.547831	0.530359	0.466811
	H398	H	0.532328	0.531447	0.476057
	O399	O	0.788658	0.976061	0.202622
	H400	H	0.772300	0.980465	0.228060
	H401	H	0.797435	0.960636	0.204840
	O402	O	-0.015586	0.138872	0.930271
	H403	H	-0.021770	0.119877	0.939912
	H404	H	-0.002532	0.127544	0.938553
	O405	O	-0.138260	0.125102	0.074735
	H406	H	-0.129405	0.125339	0.059683
	H407	H	-0.137969	0.134135	0.083211
	O408	O	0.477375	0.326231	0.703262
	H409	H	0.482856	0.318249	0.720134
	H410	H	0.492749	0.344538	0.704231
	O411	O	-0.046072	0.826119	0.786538
	H412	H	-0.065135	0.839725	0.780322
	H413	H	-0.060676	0.807476	0.788724
	O414	O	0.710610	0.527143	0.707461
	H415	H	0.737510	0.533250	0.730485
	H416	H	0.709026	0.527699	0.691892
	O417	O	0.533631	0.291943	0.542829
	H418	H	0.543592	0.295785	0.537880
	H419	H	0.536253	0.298767	0.558600
	O420	O	0.284497	0.524333	0.275794
	H421	H	0.273646	0.515979	0.272968
	H422	H	0.280929	0.523034	0.270534
	O423	O	0.176852	1.183409	0.173301
	H424	H	0.170535	1.188221	0.144481
	H425	H	0.189592	1.135292	0.176033
	O426	O	0.798418	0.805796	1.188547
	H427	H	0.824825	0.809630	1.184714
	H428	H	0.771097	0.792505	1.216435
	O429	O	0.680624	0.318973	0.312085
	H430	H	0.627941	0.308265	0.298460
	H431	H	0.690057	0.365922	0.307528
	O432	O	0.690575	0.479540	0.291325
	H433	H	0.686783	0.495942	0.284802
	H434	H	0.691290	0.484485	0.281355
	O435	O	0.218898	-0.029973	0.018005
	H436	H	0.191416	-0.023099	0.011133
	H437	H	0.225677	-0.017530	0.053578
	O438	O	1.096229	0.040752	-0.006012
	H439	H	1.074114	0.062654	-0.000114
	H440	H	1.081639	0.021565	-0.007482
	O441	O	0.497206	0.493072	0.281509
	H442	H	0.489162	0.497923	0.291965
	H443	H	0.505783	0.471679	0.281271
	O444	O	-0.149791	0.977056	0.965184
	H445	H	-0.158516	0.960580	0.976739
	H446	H	-0.151654	1.006433	0.972451
	O447	O	0.485122	0.706252	0.282825
	H448	H	0.480076	0.720362	0.288129
	H449	H	0.467009	0.705504	0.277141
	O450	O	0.215417	0.980518	0.773133
	H451	H	0.245392	0.971355	0.744090
	H452	H	0.205385	0.939665	0.785271
	O453	O	0.611525	0.716687	0.474626
	H454	H	0.602239	0.703272	0.469771
	H455	H	0.609580	0.725323	0.476396
	O456	O	0.958604	0.042790	0.211555
	H457	H	0.946051	0.067804	0.215456
	H458	H	0.977647	0.046495	0.217744
	O459	O	0.782573	-0.214462	1.018156
	H460	H	0.764557	-0.219576	1.016959
	H461	H	0.778198	-0.217624	1.048367
	O462	O	0.299037	0.696868	0.509562
	H463	H	0.299974	0.700850	0.515519
	H464	H	0.302547	0.715144	0.529069
	O465	O	0.870911	-0.021798	-0.230162
	H466	H	0.857505	-0.017802	-0.229682
	H467	H	0.878016	-0.008058	-0.245619
