data_Molecule from HDF5

_cell_length_a		16.401990
_cell_length_b		16.114025
_cell_length_c		16.099927
_cell_angle_alpha	89.681736
_cell_angle_beta	89.482658
_cell_angle_gamma	90.118315
_symmetry_space_group_name_H-M	'P 1'
_symmetry_Int_Tables_number		1

loop_
	_symmetry_equiv_pos_as_xyz
	x,y,z

loop_
	_atom_site_label
	_atom_site_type_symbol
	_atom_site_fract_x
	_atom_site_fract_y
	_atom_site_fract_z
	H0	H	0.402802	0.831392	0.709779
	H1	H	0.597756	0.162540	0.704914
	H2	H	0.598057	0.830609	0.282586
	H3	H	0.408074	0.162594	0.283718
	H4	H	0.719964	0.394974	0.832698
	H5	H	0.715648	0.599457	0.158536
	H6	H	0.286477	0.600793	0.829829
	H7	H	0.282145	0.394877	0.158494
	H8	H	0.841106	0.713124	0.393997
	H9	H	0.164566	0.710804	0.592050
	H10	H	0.839707	0.279648	0.594526
	H11	H	0.166041	0.283509	0.395022
	H12	H	0.839205	0.395274	0.711129
	H13	H	0.164063	0.593326	0.706048
	H14	H	0.838839	0.595059	0.281327
	H15	H	0.163674	0.396383	0.276191
	H16	H	0.404115	0.711007	0.829285
	H17	H	0.595174	0.706841	0.160855
	H18	H	0.598370	0.286479	0.828704
	H19	H	0.400319	0.283557	0.160211
	H20	H	0.720323	0.833884	0.389673
	H21	H	0.719389	0.160621	0.593688
	H22	H	0.283969	0.833127	0.599847
	H23	H	0.287350	0.160677	0.393509
	H24	H	0.902743	0.331306	0.209576
	H25	H	0.098214	0.661499	0.205758
	H26	H	0.097138	0.329724	0.783975
	H27	H	0.904647	0.662189	0.780264
	H28	H	0.222534	0.892268	0.332273
	H29	H	0.216871	0.096859	0.658504
	H30	H	0.789611	0.102315	0.330324
	H31	H	0.781740	0.891186	0.655585
	H32	H	0.336768	0.212215	0.896390
	H33	H	0.661583	0.214253	0.093354
	H34	H	0.337274	0.781147	0.095178
	H35	H	0.662844	0.780873	0.892821
	H36	H	0.338110	0.896265	0.213227
	H37	H	0.663676	0.096455	0.206236
	H38	H	0.337137	0.096222	0.779385
	H39	H	0.662764	0.896057	0.775990
	H40	H	0.908426	0.209574	0.329475
	H41	H	0.100350	0.207167	0.659832
	H42	H	0.103572	0.782698	0.329605
	H43	H	0.903485	0.782931	0.659299
	H44	H	0.219444	0.333459	0.890568
	H45	H	0.215641	0.660642	0.093826
	H46	H	0.781882	0.334243	0.100239
	H47	H	0.784599	0.660992	0.891158
	H48	H	0.405204	0.114080	0.580637
	H49	H	0.594182	0.876108	0.591207
	H50	H	0.599457	0.116712	0.396666
	H51	H	0.420485	0.883626	0.412249
	H52	H	0.593571	0.401212	0.114918
	H53	H	0.583533	0.587246	0.880745
	H54	H	0.414371	0.593746	0.111320
	H55	H	0.410793	0.405699	0.876414
	H56	H	0.117840	0.586268	0.395235
	H57	H	0.885321	0.588766	0.589706
	H58	H	0.120060	0.401490	0.594409
	H59	H	0.887357	0.407032	0.399846
	H60	H	0.119361	0.395832	0.585353
	H61	H	0.885885	0.590585	0.586680
	H62	H	0.119376	0.593053	0.399154
	H63	H	0.883218	0.395599	0.399380
	H64	H	0.396323	0.592108	0.117333
	H65	H	0.599117	0.598113	0.872260
	H66	H	0.593826	0.412043	0.111890
	H67	H	0.406356	0.402384	0.874437
	H68	H	0.593395	0.114287	0.400857
	H69	H	0.585401	0.882971	0.581952
	H70	H	0.404230	0.117045	0.590579
	H71	H	0.397875	0.876610	0.411200
	H72	H	0.905798	0.615453	0.087566
	H73	H	0.095169	0.376795	0.086978
	H74	H	0.095206	0.613294	0.903145
	H75	H	0.917217	0.384578	0.910561
	H76	H	0.099524	0.902371	0.615178
	H77	H	0.093313	0.087148	0.377264
	H78	H	0.900440	0.087140	0.615643
	H79	H	0.911964	0.898905	0.373800
	H80	H	0.618732	0.093120	0.888949
	H81	H	0.384850	0.087541	0.087521
	H82	H	0.617051	0.891845	0.078378
	H83	H	0.385935	0.906727	0.902238
	H84	H	0.613132	0.913309	0.085550
	H85	H	0.384143	0.087394	0.091003
	H86	H	0.615129	0.099145	0.907876
	H87	H	0.384144	0.901856	0.901367
	H88	H	0.910153	0.074799	0.609396
	H89	H	0.098328	0.092623	0.373878
	H90	H	0.092276	0.909204	0.610865
	H91	H	0.905451	0.906509	0.373909
	H92	H	0.098736	0.615186	0.900289
	H93	H	0.088750	0.380320	0.085109
	H94	H	0.907493	0.614930	0.087739
	H95	H	0.897539	0.378035	0.911680
	H96	H	0.413733	0.113003	0.586629
	H97	H	0.598607	0.879369	0.577342
	H98	H	0.600448	0.114676	0.404618
	H99	H	0.411634	0.875238	0.392465
	H100	H	0.584442	0.405199	0.111527
	H101	H	0.601904	0.578183	0.877261
	H102	H	0.404387	0.576730	0.109992
	H103	H	0.405944	0.407317	0.876593
	H104	H	0.116258	0.587162	0.402662
	H105	H	0.885716	0.586225	0.586941
	H106	H	0.115908	0.406438	0.585238
	H107	H	0.887746	0.399992	0.409185
	H108	H	0.906927	0.614590	0.085591
	H109	H	0.093682	0.379026	0.079799
	H110	H	0.093794	0.615689	0.898209
	H111	H	0.908514	0.375605	0.893722
	H112	H	0.089048	0.898878	0.612611
	H113	H	0.101805	0.085025	0.375943
	H114	H	0.916989	0.090133	0.611973
	H115	H	0.915774	0.908286	0.378196
	H116	H	0.612081	0.080444	0.902873
	H117	H	0.384368	0.090832	0.089668
	H118	H	0.620542	0.897474	0.100268
	H119	H	0.386112	0.902730	0.906999
	C120	C	0.379319	0.005539	0.616306
	C121	C	0.622490	0.988471	0.613409
	C122	C	0.625418	0.006308	0.371235
	C123	C	0.381533	0.987449	0.375257
	C124	C	0.620841	0.376283	0.004167
	C125	C	0.622146	0.617194	0.986009
	C126	C	0.378201	0.617427	0.003412
	C127	C	0.378144	0.375749	0.985277
	C128	C	0.010988	0.617959	0.371365
	C129	C	0.993165	0.617461	0.615631
	C130	C	0.010631	0.371891	0.617667
	C131	C	0.993729	0.373377	0.372963
	C132	C	0.878280	0.505800	0.117105
	C133	C	0.121548	0.487672	0.113893
	C134	C	0.123913	0.505480	0.871795
	C135	C	0.879726	0.488053	0.874420
	C136	C	0.124051	0.874269	0.503836
	C137	C	0.124681	0.116437	0.485375
	C138	C	0.882574	0.115468	0.503325
	C139	C	0.880940	0.874391	0.484051
	C140	C	0.508013	0.119395	0.871920
	C141	C	0.491793	0.118522	0.116577
	C142	C	0.509094	0.872824	0.117832
	C143	C	0.492350	0.874569	0.872876
	C144	C	0.381724	0.880943	0.672641
	C145	C	0.619447	0.112718	0.668246
	C146	C	0.620749	0.880981	0.317755
	C147	C	0.385595	0.112606	0.319902
	C148	C	0.679509	0.376582	0.880835
	C149	C	0.677061	0.617480	0.109817
	C150	C	0.324285	0.618256	0.879144
	C151	C	0.320898	0.375649	0.109497
	C152	C	0.889035	0.674386	0.373899
	C153	C	0.115723	0.672516	0.612314
	C154	C	0.888543	0.316695	0.615667
	C155	C	0.116803	0.320123	0.374740
	C156	C	0.888311	0.374420	0.673527
	C157	C	0.115708	0.614424	0.669260
	C158	C	0.887862	0.615571	0.317937
	C159	C	0.115560	0.376249	0.315407
	C160	C	0.382753	0.673268	0.878833
	C161	C	0.617382	0.671066	0.110797
	C162	C	0.619118	0.322267	0.879143
	C163	C	0.379796	0.320599	0.110481
	C164	C	0.681471	0.882548	0.371288
	C165	C	0.679687	0.111816	0.612845
	C166	C	0.322547	0.882003	0.618139
	C167	C	0.325974	0.111710	0.374858
	C168	C	0.881398	0.381183	0.172443
	C169	C	0.118772	0.611995	0.168762
	C170	C	0.119236	0.380360	0.819095
	C171	C	0.883476	0.612569	0.818011
	C172	C	0.183122	0.874001	0.381067
	C173	C	0.179063	0.115776	0.609543
	C174	C	0.828087	0.118514	0.379183
	C175	C	0.822174	0.873157	0.607274
	C176	C	0.385564	0.174770	0.875159
	C177	C	0.613386	0.175466	0.113447
	C178	C	0.386354	0.818270	0.116022
	C179	C	0.614429	0.819072	0.873439
	C180	C	0.386754	0.875617	0.174707
	C181	C	0.614420	0.116558	0.169532
	C182	C	0.385803	0.116831	0.817103
	C183	C	0.614261	0.876366	0.815064
	C184	C	0.887359	0.172076	0.378875
	C185	C	0.121095	0.170890	0.610045
	C186	C	0.123569	0.819341	0.379582
	C187	C	0.882526	0.819219	0.609052
	C188	C	0.180136	0.382051	0.872466
	C189	C	0.177507	0.611477	0.113196
	C190	C	0.821290	0.382649	0.118087
	C191	C	0.823775	0.611977	0.873365
	C192	C	0.401282	0.092184	0.592869
	C193	C	0.599555	0.902033	0.590384
	C194	C	0.604090	0.092857	0.393823
	C195	C	0.403239	0.901104	0.398560
	C196	C	0.597516	0.399367	0.090477
	C197	C	0.601161	0.594512	0.899253
	C198	C	0.398946	0.594441	0.090340
	C199	C	0.400932	0.398391	0.898447
	C200	C	0.095713	0.595394	0.392548
	C201	C	0.907690	0.595202	0.594240
	C202	C	0.096290	0.394670	0.595159
	C203	C	0.908234	0.394534	0.396038
	C204	C	0.900329	0.592434	0.093842
	C205	C	0.099085	0.401148	0.090816
	C206	C	0.102252	0.592303	0.893952
	C207	C	0.901319	0.401648	0.898230
	C208	C	0.100582	0.896995	0.590491
	C209	C	0.104180	0.094267	0.398267
	C210	C	0.903117	0.090993	0.589770
	C211	C	0.904416	0.897741	0.397726
	C212	C	0.593219	0.097304	0.893470
	C213	C	0.406473	0.095330	0.095386
	C214	C	0.594630	0.894553	0.094736
	C215	C	0.407379	0.897316	0.896633
	Zn216	Zn	0.500442	-0.003324	0.743014
	Zn217	Zn	0.501786	-0.003441	0.246049
	Zn218	Zn	0.750496	0.497502	-0.004334
	Zn219	Zn	0.250688	0.496789	-0.006565
	Zn220	Zn	0.002641	0.746926	0.493947
	Zn221	Zn	0.003265	0.242614	0.494971
	Zn222	Zn	0.001424	0.496312	0.745121
	Zn223	Zn	0.001189	0.496113	0.243255
	Zn224	Zn	0.500626	0.744109	-0.005217
	Zn225	Zn	0.499149	0.248086	-0.004883
	Zn226	Zn	0.753246	-0.003503	0.492620
	Zn227	Zn	0.252092	-0.003490	0.495965
	N228	N	0.416219	0.958687	0.671625
	N229	N	0.584761	0.034778	0.669016
	N230	N	0.586581	0.958841	0.317382
	N231	N	0.419637	0.034653	0.320134
	N232	N	0.680894	0.409404	0.959609
	N233	N	0.680232	0.584670	0.031072
	N234	N	0.321459	0.584028	0.957605
	N235	N	0.319438	0.409046	0.030657
	N236	N	0.966379	0.676465	0.406332
	N237	N	0.038400	0.674798	0.579874
	N238	N	0.965831	0.314751	0.581885
	N239	N	0.040032	0.318231	0.410115
	N240	N	0.965404	0.408182	0.674947
	N241	N	0.038559	0.580881	0.671454
	N242	N	0.964508	0.581138	0.316344
	N243	N	0.038090	0.408548	0.314068
	N244	N	0.415526	0.673250	0.957162
	N245	N	0.583988	0.671257	0.032737
	N246	N	0.583299	0.322059	0.956751
	N247	N	0.414509	0.320383	0.032312
	N248	N	0.684601	0.961360	0.403645
	N249	N	0.681562	0.033308	0.579586
	N250	N	0.321057	0.960351	0.583675
	N251	N	0.323011	0.033014	0.408381
	N252	N	0.916240	0.458777	0.171988
	N253	N	0.084821	0.533916	0.169532
	N254	N	0.084802	0.458083	0.818617
	N255	N	0.917498	0.534491	0.818258
	N256	N	0.183410	0.907627	0.459541
	N257	N	0.181490	0.082736	0.531006
	N258	N	0.824903	0.083472	0.457436
	N259	N	0.820704	0.906457	0.528484
	N260	N	0.462558	0.176495	0.908487
	N261	N	0.536017	0.176835	0.081319
	N262	N	0.463402	0.816435	0.081400
	N263	N	0.537614	0.817744	0.908647
	N264	N	0.464286	0.908672	0.176239
	N265	N	0.537699	0.081690	0.171688
	N266	N	0.462866	0.083287	0.814787
	N267	N	0.537344	0.910143	0.814529
	N268	N	0.920509	0.170343	0.456894
	N269	N	0.088183	0.171524	0.531711
	N270	N	0.087604	0.819330	0.456953
	N271	N	0.918202	0.819607	0.531349
	N272	N	0.183372	0.461111	0.904266
	N273	N	0.179276	0.532987	0.079819
	N274	N	0.819281	0.461193	0.084442
	N275	N	0.821275	0.533599	0.907846
	O276	O	0.975493	-0.031617	1.061489
	H277	H	0.971133	-0.029847	1.062597
	H278	H	0.978593	-0.026851	1.056705
	O279	O	0.435536	0.371236	0.635415
	H280	H	0.429606	0.371282	0.655142
	H281	H	0.437192	0.379837	0.648908
	O282	O	0.560676	0.569188	0.522703
	H283	H	0.546841	0.570203	0.518967
	H284	H	0.572883	0.566783	0.512806
	O285	O	0.548577	0.466635	0.553013
	H286	H	0.539993	0.464618	0.551886
	H287	H	0.546369	0.456215	0.554145
	O288	O	0.446803	0.489723	0.542408
	H289	H	0.434941	0.481945	0.543174
	H290	H	0.456629	0.480407	0.538809
	O291	O	0.011256	0.044950	0.959971
	H292	H	0.022432	0.046882	0.963395
	H293	H	0.012019	0.035722	0.974455
	O294	O	0.835872	1.124337	-0.178438
	H295	H	0.838540	1.118055	-0.182512
	H296	H	0.839493	1.133164	-0.177060
	O297	O	0.954357	1.092057	-0.059788
	H298	H	0.939317	1.098748	-0.059917
	H299	H	0.960057	1.082841	-0.068999
	O300	O	0.497063	0.527477	0.579110
	H301	H	0.493621	0.529219	0.584765
	H302	H	0.507918	0.530797	0.565489
	O303	O	0.484485	0.536380	0.516356
	H304	H	0.488571	0.546114	0.520652
	H305	H	0.481997	0.550157	0.514269
	O306	O	0.431186	0.360860	0.613471
	H307	H	0.423322	0.364734	0.605623
	H308	H	0.432022	0.357407	0.618046
	O309	O	0.432808	0.655326	0.457040
	H310	H	0.430155	0.656820	0.453347
	H311	H	0.428786	0.650754	0.451199
	O312	O	1.612343	1.395830	1.376820
	H313	H	1.608680	1.398133	1.381887
	H314	H	1.615398	1.383425	1.380554
	O315	O	1.091777	0.967979	0.075168
	H316	H	1.090585	0.974750	0.074303
	H317	H	1.079351	0.975463	0.074201
	O318	O	0.000544	0.866033	0.894580
	H319	H	0.003823	0.853380	0.875716
	H320	H	0.011141	0.860336	0.903637
	O321	O	0.428158	0.454946	0.530733
	H322	H	0.415659	0.457278	0.545362
	H323	H	0.417506	0.456845	0.527849
	O324	O	0.116507	1.040588	1.002344
	H325	H	0.123649	1.047727	1.000867
	H326	H	0.111188	1.039653	1.011305
	O327	O	-0.035015	1.079638	0.974092
	H328	H	-0.054258	1.064200	0.980425
	H329	H	-0.035471	1.076663	0.982020
	O330	O	-0.126797	-0.058652	-0.000317
	H331	H	-0.117977	-0.059932	-0.002688
	H332	H	-0.127226	-0.049453	-0.012865
	O333	O	0.610409	0.478267	0.441698
	H334	H	0.606141	0.482753	0.451147
	H335	H	0.609999	0.475254	0.446031
	O336	O	-0.312110	-0.467019	0.376785
	H337	H	-0.309526	-0.471594	0.351865
	H338	H	-0.310172	-0.466554	0.383190
	O339	O	-0.073848	0.083455	0.015860
	H340	H	-0.072000	0.092182	0.031595
	H341	H	-0.052090	0.086711	0.012500
	O342	O	0.346641	0.598862	0.447169
	H343	H	0.356956	0.595792	0.450406
	H344	H	0.338296	0.614658	0.456701
	O345	O	-0.059304	0.988106	1.082956
	H346	H	-0.070523	0.977050	1.091378
	H347	H	-0.051515	0.989280	1.084974
	O348	O	0.438603	0.420031	0.408362
	H349	H	0.444958	0.412184	0.395729
	H350	H	0.434049	0.420110	0.417535
	O351	O	0.697873	0.433734	-0.320522
	H352	H	0.695793	0.432187	-0.323276
	H353	H	0.716358	0.422296	-0.325863
	O354	O	0.158658	1.094861	0.040665
	H355	H	0.160348	1.101833	0.051086
	H356	H	0.164257	1.098681	0.039427
	O357	O	0.561968	0.657233	0.436486
	H358	H	0.570561	0.647296	0.424044
	H359	H	0.553870	0.664252	0.449015
	O360	O	1.080194	0.121332	1.074610
	H361	H	1.061941	0.123740	1.066775
	H362	H	1.079035	0.115177	1.069335
	O363	O	0.509005	0.522934	0.446791
	H364	H	0.510780	0.526195	0.442617
	H365	H	0.499390	0.515334	0.443124
	O366	O	0.522047	0.564283	0.576765
	H367	H	0.528736	0.574119	0.573272
	H368	H	0.533211	0.567689	0.578616
	O369	O	0.884499	0.067500	-0.084610
	H370	H	0.889726	0.074601	-0.086151
	H371	H	0.880129	0.070582	-0.081789
	O372	O	0.446288	0.490942	0.481074
	H373	H	0.438739	0.493195	0.478487
	H374	H	0.451747	0.501934	0.496671
	O375	O	1.122622	-0.127606	0.932339
	H376	H	1.129390	-0.125167	0.921092
	H377	H	1.115681	-0.131527	0.933310
	O378	O	0.067290	0.901970	-0.025880
	H379	H	0.070557	0.895617	-0.016502
	H380	H	0.066305	0.893601	-0.022567
	O381	O	-0.072840	0.874187	1.036361
	H382	H	-0.091268	0.878337	1.048540
	H383	H	-0.089718	0.868336	1.034485
	O384	O	0.960992	0.888587	-0.023744
	H385	H	0.966344	0.889012	-0.030947
	H386	H	0.961940	0.878546	-0.012914
	O387	O	1.009611	0.081911	1.060297
	H388	H	1.014272	0.089745	1.046763
	H389	H	1.006238	0.095927	1.075045
	O390	O	0.911399	0.876755	0.015952
	H391	H	0.904024	0.883680	0.012963
	H392	H	0.911308	0.868496	0.020749
	O393	O	0.440831	0.460884	0.410107
	H394	H	0.438311	0.463625	0.411404
	H395	H	0.430828	0.454972	0.417191
