data_Molecule from HDF5

_cell_length_a		16.093088
_cell_length_b		16.316572
_cell_length_c		16.128296
_cell_angle_alpha	90.915283
_cell_angle_beta	90.970913
_cell_angle_gamma	91.652775
_symmetry_space_group_name_H-M	'P 1'
_symmetry_Int_Tables_number		1

loop_
	_symmetry_equiv_pos_as_xyz
	x,y,z

loop_
	_atom_site_label
	_atom_site_type_symbol
	_atom_site_fract_x
	_atom_site_fract_y
	_atom_site_fract_z
	H0	H	0.395769	0.829729	0.710325
	H1	H	0.607893	0.157346	0.721627
	H2	H	0.590599	0.831393	0.284922
	H3	H	0.405227	0.159085	0.286849
	H4	H	0.701897	0.400182	0.832362
	H5	H	0.721378	0.599463	0.164431
	H6	H	0.288946	0.584074	0.833328
	H7	H	0.286494	0.395069	0.164953
	H8	H	0.832729	0.696472	0.399984
	H9	H	0.162278	0.721505	0.607439
	H10	H	0.836402	0.275142	0.596698
	H11	H	0.165591	0.282007	0.397373
	H12	H	0.833200	0.396520	0.705162
	H13	H	0.165107	0.602929	0.718026
	H14	H	0.836440	0.587670	0.282658
	H15	H	0.167319	0.400890	0.287607
	H16	H	0.399140	0.705018	0.835213
	H17	H	0.608927	0.717037	0.163673
	H18	H	0.596297	0.276890	0.837857
	H19	H	0.400014	0.279948	0.165592
	H20	H	0.699958	0.827093	0.404136
	H21	H	0.725388	0.155899	0.605932
	H22	H	0.276265	0.833286	0.595537
	H23	H	0.289564	0.160473	0.401205
	H24	H	0.898785	0.330814	0.209251
	H25	H	0.108648	0.658574	0.219632
	H26	H	0.092881	0.333028	0.781541
	H27	H	0.907617	0.660486	0.788219
	H28	H	0.202605	0.900867	0.331613
	H29	H	0.220260	0.101388	0.663696
	H30	H	0.787103	0.081267	0.332355
	H31	H	0.788024	0.895782	0.666208
	H32	H	0.334076	0.199793	0.901022
	H33	H	0.664087	0.218192	0.109105
	H34	H	0.337057	0.774162	0.098588
	H35	H	0.666757	0.786477	0.903825
	H36	H	0.333313	0.896350	0.205761
	H37	H	0.666531	0.098849	0.218673
	H38	H	0.336309	0.087560	0.784412
	H39	H	0.665294	0.897229	0.787931
	H40	H	0.898353	0.203523	0.333851
	H41	H	0.107968	0.218105	0.662687
	H42	H	0.090963	0.779683	0.334474
	H43	H	0.897622	0.778201	0.664219
	H44	H	0.204195	0.329181	0.899840
	H45	H	0.226506	0.656933	0.104851
	H46	H	0.780340	0.332145	0.093323
	H47	H	0.790138	0.660000	0.901433
	H48	H	0.409264	0.112782	0.598178
	H49	H	0.587546	0.879693	0.590564
	H50	H	0.591866	0.109737	0.413340
	H51	H	0.398144	0.878028	0.400725
	H52	H	0.601833	0.412430	0.120620
	H53	H	0.597894	0.593903	0.878954
	H54	H	0.405899	0.584551	0.119584
	H55	H	0.397429	0.381310	0.877231
	H56	H	0.118481	0.590905	0.414439
	H57	H	0.878608	0.593272	0.590248
	H58	H	0.116320	0.414002	0.588673
	H59	H	0.883194	0.396757	0.406128
	H60	H	0.119934	0.410582	0.597477
	H61	H	0.883641	0.581054	0.589321
	H62	H	0.120503	0.592064	0.410467
	H63	H	0.883512	0.399330	0.404186
	H64	H	0.420671	0.579766	0.112746
	H65	H	0.593749	0.585185	0.881755
	H66	H	0.584693	0.412929	0.114465
	H67	H	0.394098	0.404081	0.881394
	H68	H	0.602933	0.111154	0.416281
	H69	H	0.595707	0.875047	0.594031
	H70	H	0.420308	0.109252	0.596985
	H71	H	0.399214	0.878651	0.403337
	H72	H	0.918048	0.610496	0.096566
	H73	H	0.094676	0.376186	0.095339
	H74	H	0.105992	0.612765	0.915409
	H75	H	0.891275	0.371811	0.887067
	H76	H	0.093959	0.911912	0.617292
	H77	H	0.085754	0.101584	0.378172
	H78	H	0.910540	0.092218	0.619014
	H79	H	0.900663	0.885903	0.378817
	H80	H	0.621188	0.091931	0.909972
	H81	H	0.375284	0.097871	0.102676
	H82	H	0.617297	0.910234	0.090659
	H83	H	0.381601	0.897339	0.905573
	H84	H	0.620582	0.909833	0.101928
	H85	H	0.384076	0.089021	0.080097
	H86	H	0.618535	0.093421	0.919950
	H87	H	0.381165	0.894675	0.907220
	H88	H	0.912285	0.081433	0.615522
	H89	H	0.105267	0.087912	0.376263
	H90	H	0.084469	0.911022	0.614689
	H91	H	0.889746	0.892601	0.378062
	H92	H	0.098903	0.615704	0.901883
	H93	H	0.088046	0.378725	0.094651
	H94	H	0.914659	0.609813	0.087400
	H95	H	0.914225	0.381784	0.899800
	H96	H	0.413469	0.109364	0.587935
	H97	H	0.588022	0.876226	0.599529
	H98	H	0.598911	0.113458	0.405720
	H99	H	0.397617	0.877589	0.402793
	H100	H	0.591458	0.397507	0.121439
	H101	H	0.587813	0.593223	0.881654
	H102	H	0.419861	0.595222	0.119442
	H103	H	0.415651	0.394986	0.884880
	H104	H	0.120027	0.595023	0.413508
	H105	H	0.879001	0.585519	0.600052
	H106	H	0.118680	0.404905	0.589639
	H107	H	0.882195	0.396941	0.402502
	H108	H	0.908484	0.614320	0.094242
	H109	H	0.091551	0.380162	0.089216
	H110	H	0.090692	0.609487	0.913683
	H111	H	0.890358	0.379800	0.913451
	H112	H	0.088118	0.901822	0.618242
	H113	H	0.084976	0.079169	0.385773
	H114	H	0.920346	0.089900	0.615404
	H115	H	0.901620	0.896995	0.382932
	H116	H	0.616593	0.084587	0.914604
	H117	H	0.384105	0.073830	0.100496
	H118	H	0.622360	0.899663	0.095946
	H119	H	0.383029	0.896907	0.908601
	C120	C	0.379728	0.002621	0.621295
	C121	C	0.624208	0.985045	0.625887
	C122	C	0.620014	0.002699	0.381582
	C123	C	0.375098	0.987085	0.375872
	C124	C	0.618984	0.376803	0.009590
	C125	C	0.625375	0.620679	0.989891
	C126	C	0.383401	0.612943	0.008099
	C127	C	0.376093	0.368243	0.991352
	C128	C	0.009580	0.615600	0.381119
	C129	C	0.989959	0.619782	0.623663
	C130	C	0.009055	0.377113	0.618729
	C131	C	0.992490	0.372014	0.376243
	C132	C	0.880914	0.503433	0.119507
	C133	C	0.125186	0.485982	0.124144
	C134	C	0.121427	0.503818	0.879707
	C135	C	0.875545	0.486918	0.874841
	C136	C	0.115793	0.877528	0.507551
	C137	C	0.123932	0.120683	0.489299
	C138	C	0.881949	0.113176	0.507472
	C139	C	0.872965	0.866905	0.490202
	C140	C	0.509555	0.114606	0.883114
	C141	C	0.490877	0.118533	0.125264
	C142	C	0.510035	0.875031	0.121826
	C143	C	0.491653	0.871554	0.879167
	C144	C	0.377139	0.879428	0.673639
	C145	C	0.626718	0.108140	0.683319
	C146	C	0.612214	0.879573	0.324082
	C147	C	0.383166	0.110377	0.323627
	C148	C	0.668120	0.378829	0.883216
	C149	C	0.683756	0.619847	0.114420
	C150	C	0.326448	0.606535	0.883283
	C151	C	0.322779	0.373499	0.115458
	C152	C	0.883390	0.663072	0.380582
	C153	C	0.113498	0.680591	0.625030
	C154	C	0.885349	0.315894	0.616128
	C155	C	0.116325	0.319343	0.378315
	C156	C	0.883562	0.376207	0.670288
	C157	C	0.115070	0.621694	0.680254
	C158	C	0.885345	0.608794	0.321915
	C159	C	0.117355	0.378608	0.323637
	C160	C	0.381603	0.666666	0.884178
	C161	C	0.627647	0.678190	0.114475
	C162	C	0.615580	0.317666	0.885938
	C163	C	0.379575	0.316334	0.115936
	C164	C	0.666726	0.877328	0.383483
	C165	C	0.685240	0.107362	0.625582
	C166	C	0.317629	0.881216	0.616215
	C167	C	0.325709	0.111094	0.380892
	C168	C	0.879759	0.380090	0.172351
	C169	C	0.127667	0.609306	0.181112
	C170	C	0.114048	0.381082	0.821346
	C171	C	0.884227	0.611074	0.823969
	C172	C	0.167254	0.879292	0.381892
	C173	C	0.182388	0.121306	0.614012
	C174	C	0.824743	0.104849	0.382423
	C175	C	0.822894	0.873468	0.616059
	C176	C	0.384227	0.164651	0.882410
	C177	C	0.615062	0.178404	0.127339
	C178	C	0.385947	0.814702	0.118196
	C179	C	0.616728	0.821458	0.882546
	C180	C	0.383924	0.875463	0.171511
	C181	C	0.616164	0.118671	0.181584
	C182	C	0.385072	0.108500	0.824387
	C183	C	0.615996	0.876801	0.825160
	C184	C	0.880330	0.165487	0.382783
	C185	C	0.126508	0.179346	0.613391
	C186	C	0.111823	0.819073	0.383480
	C187	C	0.877231	0.814743	0.614817
	C188	C	0.169286	0.378975	0.880280
	C189	C	0.186145	0.608405	0.123831
	C190	C	0.820876	0.380655	0.114654
	C191	C	0.825690	0.610769	0.880328
	C192	C	0.406565	0.088345	0.600546
	C193	C	0.597963	0.899322	0.601976
	C194	C	0.603034	0.089029	0.404918
	C195	C	0.392818	0.900651	0.396326
	C196	C	0.598645	0.400569	0.096187
	C197	C	0.600307	0.597695	0.903294
	C198	C	0.408305	0.592548	0.094966
	C199	C	0.396477	0.387571	0.903906
	C200	C	0.097108	0.597969	0.405512
	C201	C	0.903033	0.594252	0.600045
	C202	C	0.095789	0.402536	0.598097
	C203	C	0.905442	0.391716	0.397855
	C204	C	0.906378	0.589432	0.098917
	C205	C	0.099142	0.400407	0.100007
	C206	C	0.103857	0.590106	0.903263
	C207	C	0.893348	0.400180	0.894333
	C208	C	0.095129	0.901313	0.594178
	C209	C	0.099226	0.096576	0.402865
	C210	C	0.907007	0.093521	0.594044
	C211	C	0.891763	0.885983	0.402656
	C212	C	0.596297	0.095550	0.907713
	C213	C	0.403840	0.094112	0.101506
	C214	C	0.597470	0.899402	0.102103
	C215	C	0.404471	0.890643	0.900642
	Zn216	Zn	0.500838	-0.006640	0.753919
	Zn217	Zn	0.499903	-0.004281	0.250491
	Zn218	Zn	0.748838	0.495926	-0.002235
	Zn219	Zn	0.252241	0.492435	-0.000377
	Zn220	Zn	-0.003074	0.744275	0.500223
	Zn221	Zn	0.001347	0.246215	0.498731
	Zn222	Zn	0.000170	0.496588	0.749260
	Zn223	Zn	0.002504	0.495712	0.251338
	Zn224	Zn	0.502265	0.745860	0.000205
	Zn225	Zn	0.499870	0.244605	0.002423
	Zn226	Zn	0.750321	-0.008862	0.500822
	Zn227	Zn	0.248159	-0.002986	0.498273
	N228	N	0.415265	0.956263	0.676754
	N229	N	0.589513	0.030876	0.683715
	N230	N	0.583879	0.958522	0.322735
	N231	N	0.413231	0.032410	0.320331
	N232	N	0.670487	0.414982	0.961036
	N233	N	0.682513	0.584645	0.036050
	N234	N	0.327600	0.573770	0.961508
	N235	N	0.320256	0.404967	0.036782
	N236	N	0.961519	0.667337	0.416955
	N237	N	0.034556	0.679351	0.590591
	N238	N	0.964358	0.316419	0.584895
	N239	N	0.037504	0.315126	0.410172
	N240	N	0.961402	0.413770	0.672063
	N241	N	0.037240	0.584446	0.679751
	N242	N	0.964870	0.579972	0.322018
	N243	N	0.039089	0.410563	0.322064
	N244	N	0.416397	0.670688	0.963019
	N245	N	0.592179	0.679079	0.036215
	N246	N	0.585850	0.315880	0.965583
	N247	N	0.411662	0.312850	0.037519
	N248	N	0.671831	0.954730	0.418465
	N249	N	0.683875	0.029727	0.590891
	N250	N	0.319205	0.959071	0.584557
	N251	N	0.320392	0.033249	0.412594
	N252	N	0.916481	0.457485	0.175316
	N253	N	0.090796	0.532219	0.181580
	N254	N	0.085083	0.459681	0.820687
	N255	N	0.914595	0.533053	0.820310
	N256	N	0.170020	0.914913	0.460025
	N257	N	0.181044	0.085556	0.536010
	N258	N	0.825508	0.072834	0.461047
	N259	N	0.819612	0.905014	0.537532
	N260	N	0.462641	0.168663	0.918188
	N261	N	0.536279	0.178310	0.092825
	N262	N	0.465476	0.814275	0.088083
	N263	N	0.538378	0.817965	0.915193
	N264	N	0.462007	0.912283	0.174082
	N265	N	0.537820	0.082250	0.180706
	N266	N	0.463968	0.078137	0.824552
	N267	N	0.536993	0.907330	0.822736
	N268	N	0.915102	0.170765	0.461404
	N269	N	0.091006	0.179318	0.534979
	N270	N	0.080646	0.817929	0.462551
	N271	N	0.907454	0.810447	0.535609
	N272	N	0.174039	0.456147	0.916238
	N273	N	0.184729	0.530612	0.089081
	N274	N	0.821508	0.458426	0.082563
	N275	N	0.820233	0.532618	0.911149
	O276	O	0.373030	0.376367	0.548362
	H277	H	0.382309	0.385728	0.550969
	H278	H	0.386507	0.366447	0.549624
	O279	O	0.478881	0.620516	0.437534
	H280	H	0.478465	0.618690	0.440136
	H281	H	0.469455	0.621525	0.424035
	O282	O	1.066481	0.979512	-0.008564
	H283	H	1.069288	0.979205	-0.002022
	H284	H	1.071309	0.978756	-0.007061
	O285	O	0.879693	0.049396	0.828147
	H286	H	0.867897	0.052399	0.830988
	H287	H	0.871271	0.070234	0.818034
	O288	O	0.590523	0.390302	0.421072
	H289	H	0.604985	0.389418	0.418509
	H290	H	0.588250	0.384049	0.419687
	O291	O	0.434198	0.475133	0.506046
	H292	H	0.424348	0.477130	0.500243
	H293	H	0.444652	0.469293	0.503779
	O294	O	0.539203	0.564958	0.547280
	H295	H	0.540857	0.565632	0.547550
	H296	H	0.532513	0.572714	0.542286
	O297	O	-0.002481	-0.016660	1.128860
	H298	H	0.005953	-0.012988	1.129901
	H299	H	0.001790	-0.022659	1.128030
	O300	O	0.440787	0.333237	0.527356
	H301	H	0.434066	0.336111	0.523793
	H302	H	0.427905	0.337445	0.539590
	O303	O	0.950478	1.050705	-0.091242
	H304	H	0.953138	1.047893	-0.092245
	H305	H	0.947031	1.062425	-0.097857
	O306	O	0.087417	1.046590	1.068874
	H307	H	0.094395	1.051036	1.082404
	H308	H	0.090789	1.053822	1.073410
	O309	O	0.550256	0.513472	0.579931
	H310	H	0.561098	0.528449	0.581630
	H311	H	0.542203	0.503845	0.581761
	O312	O	0.034171	-0.019066	-0.068457
	H313	H	0.037996	-0.015575	-0.064229
	H314	H	0.035135	-0.027235	-0.070524
	O315	O	0.985330	-0.006939	-0.024716
	H316	H	0.989099	0.009744	-0.029983
	H317	H	0.984326	-0.009590	-0.037024
	O318	O	1.019604	1.075865	1.044067
	H319	H	1.020046	1.071409	1.047137
	H320	H	1.028420	1.072104	1.053278
	O321	O	-0.008913	-0.047680	0.969686
	H322	H	-0.002616	-0.047394	0.968924
	H323	H	-0.016484	-0.045533	0.958418
	O324	O	0.508184	0.542311	0.408730
	H325	H	0.511930	0.546355	0.414743
	H326	H	0.522231	0.533889	0.410943
	O327	O	0.105198	-0.082303	-0.027227
	H328	H	0.106451	-0.081515	-0.021442
	H329	H	0.108401	-0.079678	-0.035150
	O330	O	0.507471	0.416190	0.578072
	H331	H	0.514805	0.431584	0.603719
	H332	H	0.511705	0.412499	0.571035
	O333	O	0.021216	1.064031	1.001604
	H334	H	0.028288	1.073824	1.002620
	H335	H	0.028437	1.057200	1.008760
	O336	O	0.110058	0.033073	0.036606
	H337	H	0.111386	0.037080	0.036215
	H338	H	0.110788	0.016873	0.027892
	O339	O	0.553257	0.379719	0.330609
	H340	H	0.558238	0.390140	0.332333
	H341	H	0.565764	0.364177	0.317294
	O342	O	0.950323	1.080569	0.982553
	H343	H	0.963568	1.083306	0.977788
	H344	H	0.952148	1.074458	1.003942
	O345	O	1.578547	1.657476	-0.385997
	H346	H	1.569364	1.667419	-0.384503
	H347	H	1.582105	1.661848	-0.374949
	O348	O	0.488883	0.560104	0.489812
	H349	H	0.489764	0.550248	0.481321
	H350	H	0.487063	0.565582	0.487690
	O351	O	0.489124	0.444826	0.460438
	H352	H	0.471272	0.452505	0.456376
	H353	H	0.499078	0.438341	0.465786
	O354	O	0.450844	0.560175	0.499278
	H355	H	0.451224	0.556108	0.491618
	H356	H	0.448909	0.571609	0.499704
	O357	O	1.026466	0.012154	1.125580
	H358	H	1.031035	0.011623	1.127927
	H359	H	1.026195	0.018256	1.121205
	O360	O	0.448734	0.541277	0.576597
	H361	H	0.456613	0.545828	0.560029
	H362	H	0.440574	0.527064	0.568256
	O363	O	0.551218	0.463423	0.591812
	H364	H	0.546742	0.480683	0.582146
	H365	H	0.551950	0.471473	0.601810
	O366	O	0.932488	0.888692	0.925478
	H367	H	0.912190	0.890796	0.919836
	H368	H	0.937951	0.887553	0.944215
	O369	O	0.393974	0.510601	1.388325
	H370	H	0.390879	0.508794	1.398359
	H371	H	0.400098	0.507583	1.390390
	O372	O	-0.050335	-0.014700	-0.008651
	H373	H	-0.055877	-0.013862	-0.000903
	H374	H	-0.057427	-0.008415	-0.009615
	O375	O	1.003575	-0.066872	-0.021603
	H376	H	1.000644	-0.067357	-0.026373
	H377	H	0.993481	-0.071530	-0.021488
	O378	O	0.543408	0.589103	0.493534
	H379	H	0.535884	0.580304	0.505516
	H380	H	0.541331	0.594695	0.499279
	O381	O	0.544230	0.426103	0.525644
	H382	H	0.547088	0.428364	0.527758
	H383	H	0.542208	0.425961	0.536710
