data_Molecule from HDF5

_cell_length_a		16.314722
_cell_length_b		16.272902
_cell_length_c		16.276184
_cell_angle_alpha	89.618716
_cell_angle_beta	89.934486
_cell_angle_gamma	89.672720
_symmetry_space_group_name_H-M	'P 1'
_symmetry_Int_Tables_number		1

loop_
	_symmetry_equiv_pos_as_xyz
	x,y,z

loop_
	_atom_site_label
	_atom_site_type_symbol
	_atom_site_fract_x
	_atom_site_fract_y
	_atom_site_fract_z
	H0	H	0.397581	0.823870	0.698871
	H1	H	0.600127	0.147765	0.698164
	H2	H	0.605281	0.825432	0.263202
	H3	H	0.397534	0.147766	0.261266
	H4	H	0.719595	0.381648	0.818526
	H5	H	0.719785	0.586782	0.140064
	H6	H	0.282489	0.590125	0.816288
	H7	H	0.280807	0.382234	0.140085
	H8	H	0.840207	0.707532	0.374113
	H9	H	0.162029	0.701389	0.578482
	H10	H	0.841236	0.266295	0.583604
	H11	H	0.161819	0.266255	0.372000
	H12	H	0.840031	0.385449	0.696609
	H13	H	0.161150	0.589755	0.694584
	H14	H	0.840016	0.592987	0.259984
	H15	H	0.160102	0.382525	0.257062
	H16	H	0.398143	0.705414	0.816951
	H17	H	0.602372	0.702349	0.140241
	H18	H	0.600979	0.268225	0.817913
	H19	H	0.397629	0.267854	0.141718
	H20	H	0.719293	0.825219	0.379830
	H21	H	0.719151	0.147380	0.584750
	H22	H	0.284447	0.824203	0.583294
	H23	H	0.283026	0.147329	0.375801
	H24	H	0.896867	0.327077	0.200286
	H25	H	0.099873	0.649800	0.192180
	H26	H	0.104188	0.325332	0.759491
	H27	H	0.898013	0.649328	0.762233
	H28	H	0.220757	0.883554	0.318012
	H29	H	0.217464	0.086473	0.640664
	H30	H	0.781287	0.091123	0.317605
	H31	H	0.783368	0.883583	0.641485
	H32	H	0.337707	0.204806	0.878780
	H33	H	0.659661	0.203017	0.085407
	H34	H	0.338020	0.766407	0.083436
	H35	H	0.661811	0.768838	0.879198
	H36	H	0.338180	0.884622	0.198869
	H37	H	0.661275	0.086803	0.195363
	H38	H	0.337236	0.089394	0.761906
	H39	H	0.660393	0.881441	0.761592
	H40	H	0.898873	0.204911	0.316476
	H41	H	0.105279	0.204620	0.638368
	H42	H	0.100378	0.773414	0.314725
	H43	H	0.899707	0.768175	0.640305
	H44	H	0.218519	0.323881	0.876179
	H45	H	0.217460	0.648190	0.078553
	H46	H	0.784490	0.324530	0.084622
	H47	H	0.781707	0.647021	0.876623
	H48	H	0.412018	0.103257	0.579513
	H49	H	0.592290	0.872570	0.565391
	H50	H	0.591214	0.102410	0.389372
	H51	H	0.411978	0.870793	0.390143
	H52	H	0.588687	0.391493	0.095083
	H53	H	0.591442	0.573581	0.864085
	H54	H	0.410049	0.575116	0.093611
	H55	H	0.401585	0.392889	0.860144
	H56	H	0.117498	0.576782	0.381558
	H57	H	0.884174	0.579074	0.568285
	H58	H	0.118689	0.393781	0.572898
	H59	H	0.890933	0.398348	0.403874
	H60	H	0.115583	0.391552	0.562225
	H61	H	0.884462	0.576826	0.569416
	H62	H	0.118605	0.583061	0.384995
	H63	H	0.888149	0.409113	0.382295
	H64	H	0.408251	0.575386	0.094788
	H65	H	0.589982	0.576915	0.863371
	H66	H	0.595751	0.390637	0.097269
	H67	H	0.411762	0.404591	0.867551
	H68	H	0.592126	0.103009	0.386340
	H69	H	0.594625	0.868591	0.573454
	H70	H	0.415667	0.097677	0.562501
	H71	H	0.409602	0.869212	0.390016
	H72	H	0.908951	0.599652	0.062891
	H73	H	0.090977	0.371611	0.067427
	H74	H	0.090317	0.603957	0.879160
	H75	H	0.911190	0.370121	0.887340
	H76	H	0.089444	0.883956	0.595866
	H77	H	0.095963	0.066026	0.365274
	H78	H	0.910970	0.077289	0.594090
	H79	H	0.913364	0.905236	0.367095
	H80	H	0.616552	0.077130	0.883181
	H81	H	0.382975	0.074214	0.075101
	H82	H	0.610978	0.901043	0.067587
	H83	H	0.383629	0.890018	0.895239
	H84	H	0.617535	0.892551	0.080024
	H85	H	0.382288	0.081678	0.069508
	H86	H	0.614321	0.079810	0.894316
	H87	H	0.386425	0.901812	0.891662
	H88	H	0.909780	0.076553	0.594632
	H89	H	0.082349	0.078381	0.365468
	H90	H	0.101709	0.895161	0.597270
	H91	H	0.914210	0.890095	0.362233
	H92	H	0.087350	0.599615	0.890111
	H93	H	0.090559	0.371012	0.069786
	H94	H	0.905307	0.603517	0.068259
	H95	H	0.911211	0.369607	0.887059
	H96	H	0.398856	0.103767	0.566317
	H97	H	0.586690	0.872237	0.572404
	H98	H	0.589341	0.101667	0.387265
	H99	H	0.410580	0.869600	0.388160
	H100	H	0.593367	0.397743	0.094719
	H101	H	0.593233	0.576151	0.862725
	H102	H	0.408889	0.572652	0.093391
	H103	H	0.417811	0.389278	0.864900
	H104	H	0.115138	0.577228	0.388293
	H105	H	0.883657	0.578861	0.570926
	H106	H	0.113231	0.401834	0.566637
	H107	H	0.881081	0.386126	0.385874
	H108	H	0.912248	0.602072	0.069785
	H109	H	0.089482	0.372287	0.068565
	H110	H	0.098341	0.603582	0.888137
	H111	H	0.911776	0.369746	0.886903
	H112	H	0.087785	0.899624	0.591142
	H113	H	0.098734	0.082733	0.357960
	H114	H	0.910694	0.076279	0.593550
	H115	H	0.900806	0.898656	0.360896
	H116	H	0.611647	0.069273	0.889971
	H117	H	0.386004	0.073772	0.066676
	H118	H	0.615514	0.885455	0.065870
	H119	H	0.380980	0.894498	0.882941
	C120	C	0.379116	-0.005638	0.600980
	C121	C	0.621745	0.977861	0.601527
	C122	C	0.622127	-0.004469	0.358305
	C123	C	0.379842	0.977207	0.358745
	C124	C	0.622959	0.362365	-0.011336
	C125	C	0.622147	0.605800	0.970292
	C126	C	0.378965	0.606325	-0.013119
	C127	C	0.378997	0.364351	0.970778
	C128	C	0.009822	0.609516	0.355594
	C129	C	0.991062	0.608200	0.599051
	C130	C	0.009895	0.364621	0.599393
	C131	C	0.992500	0.366262	0.357749
	C132	C	0.878603	0.495623	0.100212
	C133	C	0.121106	0.478354	0.098999
	C134	C	0.123019	0.495195	0.855629
	C135	C	0.879886	0.477259	0.856708
	C136	C	0.122758	0.863707	0.487499
	C137	C	0.122986	0.106611	0.469379
	C138	C	0.879226	0.108091	0.487394
	C139	C	0.879081	0.865707	0.470342
	C140	C	0.507605	0.107178	0.858308
	C141	C	0.490692	0.106392	0.100682
	C142	C	0.508309	0.862674	0.102297
	C143	C	0.490913	0.864806	0.859203
	C144	C	0.378987	0.872380	0.659687
	C145	C	0.620634	0.099262	0.659662
	C146	C	0.623285	0.873739	0.301730
	C147	C	0.378718	0.099011	0.300195
	C148	C	0.680796	0.362155	0.866959
	C149	C	0.680318	0.605616	0.091701
	C150	C	0.321283	0.608443	0.864957
	C151	C	0.320211	0.363387	0.092237
	C152	C	0.888435	0.668030	0.355514
	C153	C	0.113255	0.664083	0.598131
	C154	C	0.889200	0.306332	0.601204
	C155	C	0.113320	0.306193	0.354450
	C156	C	0.888464	0.365635	0.657611
	C157	C	0.112808	0.608398	0.656149
	C158	C	0.888277	0.610967	0.298454
	C159	C	0.112715	0.364535	0.297490
	C160	C	0.378643	0.665885	0.865118
	C161	C	0.622124	0.663367	0.091806
	C162	C	0.621466	0.306122	0.866662
	C163	C	0.378595	0.306721	0.093072
	C164	C	0.680267	0.873664	0.359791
	C165	C	0.679564	0.099222	0.602863
	C166	C	0.322357	0.872678	0.602231
	C167	C	0.321600	0.098857	0.357481
	C168	C	0.878158	0.374662	0.160569
	C169	C	0.120122	0.600729	0.154994
	C170	C	0.123216	0.373713	0.798487
	C171	C	0.879009	0.600079	0.800344
	C172	C	0.180918	0.864611	0.365903
	C173	C	0.179824	0.106445	0.591673
	C174	C	0.820826	0.109760	0.365909
	C175	C	0.821868	0.864532	0.592488
	C176	C	0.386188	0.165998	0.858701
	C177	C	0.611871	0.163732	0.102391
	C178	C	0.386534	0.805208	0.102955
	C179	C	0.613037	0.807073	0.859267
	C180	C	0.386481	0.864018	0.160235
	C181	C	0.612752	0.105562	0.157219
	C182	C	0.386019	0.108617	0.800483
	C183	C	0.612460	0.863640	0.801084
	C184	C	0.879099	0.166479	0.365267
	C185	C	0.124029	0.165296	0.590479
	C186	C	0.121243	0.809535	0.364447
	C187	C	0.879829	0.807218	0.592071
	C188	C	0.180178	0.372973	0.856625
	C189	C	0.178661	0.599919	0.098266
	C190	C	0.822345	0.373409	0.102969
	C191	C	0.820832	0.598710	0.857156
	C192	C	0.402146	0.079387	0.576593
	C193	C	0.598209	0.893184	0.577466
	C194	C	0.597921	0.080503	0.380947
	C195	C	0.403789	0.891978	0.382555
	C196	C	0.599498	0.386233	0.073642
	C197	C	0.598285	0.582530	0.885434
	C198	C	0.402472	0.581585	0.071686
	C199	C	0.403520	0.388442	0.886254
	C200	C	0.095048	0.585853	0.378337
	C201	C	0.906168	0.585072	0.576166
	C202	C	0.094180	0.388657	0.574572
	C203	C	0.908589	0.390980	0.383382
	C204	C	0.902118	0.579922	0.074508
	C205	C	0.097333	0.393646	0.075525
	C206	C	0.099083	0.580382	0.878943
	C207	C	0.904476	0.392054	0.880229
	C208	C	0.099805	0.886327	0.572704
	C209	C	0.099205	0.082854	0.384969
	C210	C	0.903404	0.083850	0.572189
	C211	C	0.902660	0.890784	0.385554
	C212	C	0.592249	0.082636	0.882375
	C213	C	0.405962	0.083304	0.077323
	C214	C	0.592705	0.886130	0.078211
	C215	C	0.405811	0.888420	0.882972
	Zn216	Zn	0.498728	-0.014591	0.729797
	Zn217	Zn	0.500080	-0.013472	0.229585
	Zn218	Zn	0.751894	0.483805	-0.021094
	Zn219	Zn	0.250504	0.485948	-0.021791
	Zn220	Zn	0.000996	0.736023	0.477813
	Zn221	Zn	0.001858	0.235457	0.477535
	Zn222	Zn	0.001040	0.487669	0.727521
	Zn223	Zn	-0.000244	0.487840	0.228058
	Zn224	Zn	0.499545	0.734838	-0.021262
	Zn225	Zn	0.499917	0.234778	-0.018876
	Zn226	Zn	0.750414	-0.012521	0.479662
	Zn227	Zn	0.251555	-0.014753	0.479709
	N228	N	0.413484	0.949191	0.659050
	N229	N	0.585558	0.022737	0.659055
	N230	N	0.587655	0.950542	0.300537
	N231	N	0.414129	0.022288	0.300750
	N232	N	0.681848	0.396158	0.943966
	N233	N	0.680439	0.570514	0.015127
	N234	N	0.321347	0.572217	0.941632
	N235	N	0.320320	0.398538	0.015181
	N236	N	0.965134	0.667451	0.390120
	N237	N	0.036515	0.664275	0.563370
	N238	N	0.965689	0.305526	0.565719
	N239	N	0.037616	0.307372	0.391539
	N240	N	0.964681	0.401226	0.656533
	N241	N	0.035811	0.574336	0.657003
	N242	N	0.964714	0.575196	0.298463
	N243	N	0.036765	0.401353	0.299458
	N244	N	0.413684	0.664809	0.941938
	N245	N	0.586636	0.663635	0.015285
	N246	N	0.586714	0.305639	0.943661
	N247	N	0.414536	0.307153	0.016677
	N248	N	0.679520	0.950347	0.394216
	N249	N	0.680267	0.022686	0.567589
	N250	N	0.322123	0.949531	0.566520
	N251	N	0.322119	0.021974	0.393194
	N252	N	0.912464	0.451654	0.159230
	N253	N	0.084997	0.524097	0.155550
	N254	N	0.088485	0.450874	0.797678
	N255	N	0.914891	0.523495	0.799804
	N256	N	0.182412	0.897495	0.443460
	N257	N	0.179390	0.070615	0.515398
	N258	N	0.820722	0.074489	0.442731
	N259	N	0.821262	0.900084	0.515656
	N260	N	0.462859	0.165154	0.894012
	N261	N	0.535226	0.164303	0.067829
	N262	N	0.463280	0.804051	0.067851
	N263	N	0.536528	0.807743	0.894725
	N264	N	0.463235	0.898583	0.160367
	N265	N	0.536247	0.070396	0.156338
	N266	N	0.462532	0.072782	0.800221
	N267	N	0.535551	0.898661	0.800900
	N268	N	0.915036	0.165603	0.441940
	N269	N	0.089477	0.165606	0.513471
	N270	N	0.085850	0.808937	0.441035
	N271	N	0.914722	0.807676	0.515174
	N272	N	0.180312	0.449806	0.891116
	N273	N	0.179553	0.522767	0.064492
	N274	N	0.822397	0.449527	0.066055
	N275	N	0.821221	0.521159	0.891502
	O276	O	0.322444	0.664186	0.350538
	H277	H	0.316656	0.651479	0.353275
	H278	H	0.312294	0.662158	0.362855
	O279	O	0.650787	0.558480	0.665591
	H280	H	0.648847	0.572147	0.670190
	H281	H	0.649102	0.569218	0.647350
	O282	O	0.973029	0.044714	0.926036
	H283	H	0.949432	0.056096	0.917397
	H284	H	0.979863	0.041983	0.943312
	O285	O	0.313896	0.547074	0.281443
	H286	H	0.306928	0.536355	0.264347
	H287	H	0.309168	0.546043	0.275071
	O288	O	1.023353	1.053250	0.896424
	H289	H	1.012464	1.058693	0.894173
	H290	H	1.022791	1.050817	0.895510
	O291	O	-0.001209	1.124784	-0.186998
	H292	H	-0.019049	1.124168	-0.195753
	H293	H	-0.004367	1.129485	-0.176086
	O294	O	0.327112	0.343688	0.641204
	H295	H	0.325475	0.338240	0.629222
	H296	H	0.333629	0.336768	0.659468
	O297	O	0.644443	0.465174	0.585362
	H298	H	0.643803	0.487562	0.587353
	H299	H	0.650605	0.473314	0.588043
	O300	O	0.403914	0.347653	0.408647
	H301	H	0.409100	0.340028	0.395356
	H302	H	0.404870	0.348752	0.425837
	O303	O	0.627672	0.519545	0.540628
	H304	H	0.613886	0.520729	0.547655
	H305	H	0.622307	0.517505	0.540996
	O306	O	0.308872	0.581031	0.462964
	H307	H	0.308455	0.594388	0.469775
	H308	H	0.310162	0.575099	0.486209
	O309	O	0.384603	0.337898	0.669172
	H310	H	0.382493	0.335134	0.661904
	H311	H	0.398354	0.337714	0.675513
	O312	O	-0.075893	0.040681	-0.157416
	H313	H	-0.094222	0.034529	-0.158243
	H314	H	-0.068694	0.034675	-0.161313
	O315	O	0.443313	0.550669	0.430817
	H316	H	0.434829	0.561850	0.416299
	H317	H	0.445026	0.547563	0.417944
	O318	O	0.092157	1.103835	1.065767
	H319	H	0.095131	1.099311	1.071285
	H320	H	0.085543	1.097903	1.077333
	O321	O	0.662246	0.328698	0.432849
	H322	H	0.675571	0.335146	0.439631
	H323	H	0.658323	0.343171	0.434247
	O324	O	0.003292	0.824257	-0.104491
	H325	H	0.024202	0.819552	-0.115662
	H326	H	0.013983	0.820251	-0.108091
	O327	O	0.701997	0.736647	0.213379
	H328	H	0.696851	0.726545	0.217589
	H329	H	0.697805	0.729987	0.221613
	O330	O	0.034122	-0.150819	1.011548
	H331	H	0.029785	-0.151839	1.002145
	H332	H	0.029299	-0.150738	1.012525
	O333	O	-0.130910	-0.128400	1.077224
	H334	H	-0.109617	-0.128958	1.072755
	H335	H	-0.133774	-0.134539	1.081837
	O336	O	0.694022	0.400388	0.319745
	H337	H	0.688700	0.405809	0.318424
	H338	H	0.711220	0.405174	0.305982
	O339	O	0.523109	0.637337	0.614207
	H340	H	0.524178	0.620465	0.621397
	H341	H	0.534474	0.631061	0.610565
	O342	O	0.462439	-0.658953	0.534793
	H343	H	0.465174	-0.664155	0.539433
	H344	H	0.439174	-0.664891	0.544147
	O345	O	0.831189	1.086311	1.994337
	H346	H	0.821098	1.091089	2.006956
	H347	H	0.832925	1.071802	1.991889
	O348	O	1.045732	0.900095	-0.167960
	H349	H	1.055522	0.910042	-0.161733
	H350	H	1.052609	0.898710	-0.159279
	O351	O	0.631220	0.578976	0.293562
	H352	H	0.624378	0.566908	0.296786
	H353	H	0.606006	0.605075	0.290393
	O354	O	0.951802	0.051503	1.061573
	H355	H	0.945638	0.052604	1.056618
	H356	H	0.955438	0.063777	1.068032
	O357	O	0.522716	0.417827	0.334936
	H358	H	0.518604	0.433178	0.348364
	H359	H	0.526801	0.401183	0.320044
	O360	O	1.160502	0.963035	1.088175
	H361	H	1.169308	0.952982	1.083252
	H362	H	1.148437	0.956424	1.087783
	O363	O	0.024583	0.888287	1.065528
	H364	H	0.026423	0.895609	1.059075
	H365	H	0.015418	0.880098	1.068657
	O366	O	0.438937	0.598886	0.586684
	H367	H	0.439283	0.593685	0.571398
	H368	H	0.445589	0.593947	0.580043
	O369	O	0.019708	1.003187	-0.099249
	H370	H	0.004426	1.011149	-0.105434
	H371	H	0.011627	1.011356	-0.090418
	O372	O	0.483408	0.659103	0.301913
	H373	H	0.465230	0.676531	0.278011
	H374	H	0.462287	0.656417	0.316461
	O375	O	0.473994	0.469670	0.519220
	H376	H	0.462933	0.475696	0.522159
	H377	H	0.475706	0.475062	0.525256
	O378	O	1.005955	0.987569	-0.133526
	H379	H	1.001570	0.992518	-0.110169
	H380	H	0.998979	0.990002	-0.130724
	O381	O	1.056914	0.000372	-0.110514
	H382	H	1.051484	0.009759	-0.116898
	H383	H	1.054363	0.007552	-0.127181
	O384	O	0.889990	1.045675	0.058159
	H385	H	0.898998	1.030596	0.055171
	H386	H	0.889468	1.047877	0.067320
	O387	O	-0.685645	0.445067	0.545397
	H388	H	-0.689314	0.442212	0.547173
	H389	H	-0.689442	0.417966	0.543771
	O390	O	0.570177	0.418549	0.543458
	H391	H	0.563809	0.427961	0.537928
	H392	H	0.574765	0.419655	0.546842
	O393	O	0.892452	1.121332	0.981505
	H394	H	0.879858	1.110100	0.982653
	H395	H	0.897410	1.113343	0.974100
	O396	O	0.656149	0.630839	0.452792
	H397	H	0.657666	0.637238	0.443361
	H398	H	0.646072	0.628908	0.444864
	O399	O	0.158031	0.929999	0.958143
	H400	H	0.171248	0.927925	0.953326
	H401	H	0.141401	0.934203	0.962515
	O402	O	0.684649	0.386900	0.501677
	H403	H	0.690883	0.370806	0.510578
	H404	H	0.700249	0.402046	0.512007
	O405	O	1.109261	0.925067	-0.000437
	H406	H	1.108967	0.932890	-0.005218
	H407	H	1.112816	0.921282	-0.013558
	O408	O	0.995380	0.988961	0.065214
	H409	H	0.986867	0.992467	0.057965
	H410	H	0.998085	0.986361	0.060765
	O411	O	0.404259	-0.546689	2.426977
	H412	H	0.411590	-0.553547	2.426426
	H413	H	0.395480	-0.545826	2.432468
	O414	O	0.475841	0.416824	0.446697
	H415	H	0.488665	0.401015	0.453217
	H416	H	0.490055	0.421645	0.453144
	O417	O	-0.093757	0.027494	0.925113
	H418	H	-0.091099	0.023916	0.934694
	H419	H	-0.100971	0.031549	0.910012
