data_Molecule from HDF5

_cell_length_a		16.527622
_cell_length_b		16.136446
_cell_length_c		16.220620
_cell_angle_alpha	89.673606
_cell_angle_beta	90.338200
_cell_angle_gamma	89.766143
_symmetry_space_group_name_H-M	'P 1'
_symmetry_Int_Tables_number		1

loop_
	_symmetry_equiv_pos_as_xyz
	x,y,z

loop_
	_atom_site_label
	_atom_site_type_symbol
	_atom_site_fract_x
	_atom_site_fract_y
	_atom_site_fract_z
	H0	H	0.402508	0.823608	0.690789
	H1	H	0.603133	0.150046	0.692597
	H2	H	0.600536	0.823668	0.260906
	H3	H	0.397371	0.150271	0.255159
	H4	H	0.724682	0.378656	0.816885
	H5	H	0.723927	0.595146	0.135453
	H6	H	0.277118	0.596424	0.816034
	H7	H	0.283070	0.381563	0.137354
	H8	H	0.843219	0.709024	0.369941
	H9	H	0.162045	0.705328	0.580696
	H10	H	0.842035	0.267927	0.579129
	H11	H	0.162562	0.269281	0.377233
	H12	H	0.842356	0.382528	0.696814
	H13	H	0.160723	0.589560	0.698405
	H14	H	0.842888	0.591711	0.253782
	H15	H	0.161472	0.381699	0.257867
	H16	H	0.399861	0.703556	0.812104
	H17	H	0.599735	0.701678	0.138897
	H18	H	0.601034	0.272437	0.812775
	H19	H	0.400600	0.268497	0.136860
	H20	H	0.724136	0.827808	0.367545
	H21	H	0.721549	0.149778	0.580606
	H22	H	0.281711	0.827356	0.582912
	H23	H	0.280230	0.149151	0.366610
	H24	H	0.903850	0.323080	0.191923
	H25	H	0.101687	0.650967	0.191812
	H26	H	0.101788	0.322844	0.763188
	H27	H	0.899544	0.650142	0.757979
	H28	H	0.221603	0.882660	0.314005
	H29	H	0.224775	0.093725	0.635159
	H30	H	0.779601	0.097418	0.315379
	H31	H	0.782841	0.881419	0.635581
	H32	H	0.340841	0.207266	0.870322
	H33	H	0.660339	0.205479	0.077424
	H34	H	0.339638	0.770111	0.076089
	H35	H	0.659715	0.768576	0.876142
	H36	H	0.340919	0.884674	0.194485
	H37	H	0.660310	0.089889	0.195251
	H38	H	0.341423	0.089488	0.754284
	H39	H	0.660043	0.882742	0.758223
	H40	H	0.901212	0.205758	0.312665
	H41	H	0.100100	0.198403	0.640394
	H42	H	0.102421	0.771502	0.312705
	H43	H	0.905716	0.772760	0.639211
	H44	H	0.222679	0.326781	0.871798
	H45	H	0.218504	0.650435	0.079772
	H46	H	0.780837	0.326534	0.084803
	H47	H	0.779836	0.648957	0.868504
	H48	H	0.409289	0.103472	0.559236
	H49	H	0.592277	0.869201	0.571294
	H50	H	0.590202	0.105100	0.383668
	H51	H	0.404293	0.869110	0.385410
	H52	H	0.593085	0.401762	0.089805
	H53	H	0.589315	0.581182	0.859608
	H54	H	0.409962	0.586482	0.094810
	H55	H	0.411355	0.396014	0.859867
	H56	H	0.115330	0.577709	0.386547
	H57	H	0.885991	0.582238	0.570906
	H58	H	0.115136	0.390370	0.565748
	H59	H	0.889884	0.397586	0.387974
	H60	H	0.113525	0.399595	0.569442
	H61	H	0.889912	0.581290	0.559053
	H62	H	0.115045	0.576446	0.384775
	H63	H	0.889632	0.400544	0.383867
	H64	H	0.400828	0.572799	0.093346
	H65	H	0.595992	0.575887	0.859107
	H66	H	0.588828	0.399629	0.089382
	H67	H	0.402249	0.402209	0.858143
	H68	H	0.590133	0.103100	0.386722
	H69	H	0.589368	0.874488	0.559425
	H70	H	0.411992	0.104181	0.565895
	H71	H	0.415501	0.871100	0.380650
	H72	H	0.913664	0.600999	0.059287
	H73	H	0.100087	0.367453	0.069977
	H74	H	0.091691	0.605162	0.886053
	H75	H	0.902279	0.368497	0.889716
	H76	H	0.093742	0.897636	0.591370
	H77	H	0.094065	0.082007	0.357886
	H78	H	0.908313	0.074809	0.591916
	H79	H	0.911356	0.902295	0.360675
	H80	H	0.610657	0.067849	0.886677
	H81	H	0.389035	0.077655	0.060513
	H82	H	0.612236	0.894667	0.062475
	H83	H	0.387690	0.899590	0.885194
	H84	H	0.613814	0.900930	0.070059
	H85	H	0.387698	0.074845	0.066068
	H86	H	0.619380	0.081245	0.872842
	H87	H	0.385725	0.898513	0.876819
	H88	H	0.912134	0.075081	0.589696
	H89	H	0.094794	0.074174	0.359851
	H90	H	0.095214	0.897825	0.590590
	H91	H	0.912278	0.898870	0.359640
	H92	H	0.087319	0.602426	0.886669
	H93	H	0.089687	0.370636	0.070281
	H94	H	0.906637	0.604486	0.063241
	H95	H	0.914908	0.369529	0.881521
	H96	H	0.415650	0.101437	0.560397
	H97	H	0.601804	0.870637	0.561826
	H98	H	0.592960	0.104197	0.386215
	H99	H	0.412666	0.874479	0.393105
	H100	H	0.592773	0.396969	0.091026
	H101	H	0.588936	0.573091	0.862493
	H102	H	0.416022	0.572592	0.088110
	H103	H	0.411774	0.406614	0.862782
	H104	H	0.115969	0.578824	0.384659
	H105	H	0.891156	0.571362	0.567592
	H106	H	0.117846	0.392705	0.576047
	H107	H	0.887844	0.395485	0.383324
	H108	H	0.914209	0.603482	0.067800
	H109	H	0.095357	0.372076	0.061192
	H110	H	0.089954	0.602222	0.890831
	H111	H	0.914330	0.375058	0.895347
	H112	H	0.094856	0.898978	0.591331
	H113	H	0.087769	0.077453	0.360548
	H114	H	0.910460	0.078120	0.592294
	H115	H	0.909175	0.900075	0.359067
	H116	H	0.614042	0.087767	0.892412
	H117	H	0.386187	0.080560	0.064788
	H118	H	0.615742	0.890734	0.070949
	H119	H	0.384398	0.892162	0.882914
	C120	C	0.381419	-0.003786	0.594724
	C121	C	0.624294	0.978566	0.596388
	C122	C	0.622206	-0.003095	0.354467
	C123	C	0.379821	0.978940	0.353824
	C124	C	0.622720	0.366922	-0.015746
	C125	C	0.622276	0.608311	0.967053
	C126	C	0.377870	0.609510	-0.014774
	C127	C	0.378968	0.368174	0.966810
	C128	C	0.010329	0.609757	0.353086
	C129	C	0.993963	0.608980	0.598320
	C130	C	0.010251	0.363353	0.600507
	C131	C	0.994175	0.365699	0.355199
	C132	C	0.880940	0.495716	0.096439
	C133	C	0.124004	0.478092	0.097895
	C134	C	0.121251	0.495819	0.856694
	C135	C	0.879207	0.478384	0.855439
	C136	C	0.124417	0.866906	0.484160
	C137	C	0.123353	0.108364	0.466711
	C138	C	0.880159	0.109046	0.484090
	C139	C	0.880970	0.867607	0.466467
	C140	C	0.509363	0.109817	0.852162
	C141	C	0.492634	0.108591	0.096011
	C142	C	0.508351	0.864885	0.097918
	C143	C	0.491721	0.865730	0.853281
	C144	C	0.382567	0.873165	0.652707
	C145	C	0.623245	0.101002	0.654521
	C146	C	0.621738	0.873657	0.297666
	C147	C	0.378488	0.101319	0.293910
	C148	C	0.683318	0.362479	0.864245
	C149	C	0.682787	0.611921	0.087816
	C150	C	0.317976	0.613303	0.863674
	C151	C	0.322094	0.364538	0.088609
	C152	C	0.890966	0.669569	0.351151
	C153	C	0.114042	0.666435	0.599621
	C154	C	0.889930	0.306310	0.599142
	C155	C	0.114506	0.307721	0.357006
	C156	C	0.890086	0.363508	0.657704
	C157	C	0.113268	0.608678	0.658260
	C158	C	0.891054	0.610899	0.293341
	C159	C	0.113901	0.363682	0.297416
	C160	C	0.378903	0.666667	0.861687
	C161	C	0.620811	0.664684	0.089709
	C162	C	0.621713	0.309485	0.861884
	C163	C	0.380557	0.307962	0.088340
	C164	C	0.682807	0.875520	0.351324
	C165	C	0.682083	0.100982	0.598469
	C166	C	0.322187	0.875038	0.598749
	C167	C	0.319955	0.100644	0.349468
	C168	C	0.882375	0.372607	0.154579
	C169	C	0.121974	0.601413	0.154380
	C170	C	0.121108	0.372451	0.800726
	C171	C	0.879479	0.601113	0.796565
	C172	C	0.181827	0.865146	0.362239
	C173	C	0.183578	0.110461	0.587601
	C174	C	0.820482	0.113616	0.362994
	C175	C	0.823066	0.864449	0.587918
	C176	C	0.388982	0.168301	0.850974
	C177	C	0.612539	0.166638	0.096895
	C178	C	0.387800	0.808323	0.096375
	C179	C	0.611954	0.807292	0.855156
	C180	C	0.388378	0.865432	0.155291
	C181	C	0.612544	0.108788	0.155337
	C182	C	0.389269	0.109768	0.793083
	C183	C	0.612117	0.864350	0.796674
	C184	C	0.881127	0.167567	0.361848
	C185	C	0.121748	0.162958	0.590324
	C186	C	0.123101	0.809165	0.361825
	C187	C	0.883922	0.810192	0.589627
	C188	C	0.181416	0.374407	0.854775
	C189	C	0.180077	0.601411	0.098445
	C190	C	0.821592	0.374353	0.100762
	C191	C	0.820097	0.600558	0.851796
	C192	C	0.405346	0.081218	0.569116
	C193	C	0.601137	0.893476	0.571311
	C194	C	0.597942	0.081970	0.378640
	C195	C	0.404000	0.893820	0.379128
	C196	C	0.598656	0.392194	0.068342
	C197	C	0.598363	0.583751	0.882421
	C198	C	0.401873	0.584403	0.070029
	C199	C	0.401806	0.394093	0.881936
	C200	C	0.093609	0.585010	0.378034
	C201	C	0.910573	0.585283	0.573131
	C202	C	0.093892	0.387280	0.577377
	C203	C	0.910851	0.390617	0.378333
	C204	C	0.904684	0.580830	0.070894
	C205	C	0.101726	0.392548	0.074161
	C206	C	0.096778	0.581035	0.881049
	C207	C	0.903328	0.393310	0.881308
	C208	C	0.101332	0.891177	0.568874
	C209	C	0.099218	0.084736	0.381638
	C210	C	0.903542	0.083420	0.569301
	C211	C	0.904156	0.892903	0.381771
	C212	C	0.592862	0.085949	0.876900
	C213	C	0.409242	0.084486	0.071129
	C214	C	0.592097	0.888409	0.074721
	C215	C	0.407789	0.889778	0.875302
	Zn216	Zn	0.501665	-0.013235	0.723334
	Zn217	Zn	0.500681	-0.012666	0.226804
	Zn218	Zn	0.751408	0.487570	-0.023435
	Zn219	Zn	0.250445	0.488636	-0.023409
	Zn220	Zn	0.002833	0.738929	0.475860
	Zn221	Zn	0.002000	0.236211	0.476695
	Zn222	Zn	0.001001	0.486580	0.728101
	Zn223	Zn	0.002358	0.486192	0.224181
	Zn224	Zn	0.499919	0.735921	-0.024838
	Zn225	Zn	0.500759	0.239812	-0.025700
	Zn226	Zn	0.751527	-0.011558	0.474858
	Zn227	Zn	0.252576	-0.011946	0.474668
	N228	N	0.418879	0.949673	0.650223
	N229	N	0.588104	0.024037	0.653261
	N230	N	0.584646	0.949850	0.299677
	N231	N	0.414961	0.024541	0.296207
	N232	N	0.684011	0.397649	0.941113
	N233	N	0.683709	0.577435	0.010456
	N234	N	0.317077	0.578668	0.941457
	N235	N	0.321161	0.401245	0.011945
	N236	N	0.966093	0.668846	0.387759
	N237	N	0.038984	0.666511	0.562838
	N238	N	0.965561	0.306047	0.564459
	N239	N	0.038971	0.308718	0.392104
	N240	N	0.965943	0.398154	0.658839
	N241	N	0.037451	0.573584	0.657541
	N242	N	0.966267	0.574369	0.294438
	N243	N	0.038289	0.399252	0.296313
	N244	N	0.415429	0.664614	0.938097
	N245	N	0.583965	0.662682	0.013584
	N246	N	0.584779	0.311880	0.937516
	N247	N	0.415350	0.310111	0.011531
	N248	N	0.683322	0.953248	0.386011
	N249	N	0.682999	0.023595	0.563104
	N250	N	0.321489	0.952525	0.563271
	N251	N	0.320710	0.023681	0.386116
	N252	N	0.918447	0.449123	0.151970
	N253	N	0.087956	0.523804	0.154377
	N254	N	0.084134	0.449019	0.801900
	N255	N	0.915217	0.524159	0.798649
	N256	N	0.183047	0.900120	0.439414
	N257	N	0.185097	0.077687	0.509529
	N258	N	0.819616	0.077937	0.440169
	N259	N	0.821019	0.899317	0.510389
	N260	N	0.464647	0.168632	0.886812
	N261	N	0.536985	0.166775	0.060626
	N262	N	0.463492	0.807709	0.061409
	N263	N	0.536221	0.807795	0.889572
	N264	N	0.464264	0.899898	0.156211
	N265	N	0.536902	0.073745	0.155110
	N266	N	0.465002	0.074411	0.793437
	N267	N	0.536374	0.899816	0.795340
	N268	N	0.917318	0.164858	0.438335
	N269	N	0.084950	0.161788	0.514237
	N270	N	0.088027	0.810032	0.438490
	N271	N	0.919061	0.811701	0.512949
	N272	N	0.181390	0.452059	0.888999
	N273	N	0.181547	0.523770	0.064083
	N274	N	0.820240	0.452197	0.065636
	N275	N	0.819559	0.522953	0.887520
	O276	O	0.340181	0.655169	0.421853
	H277	H	0.329722	0.668901	0.415134
	H278	H	0.337093	0.650961	0.396905
	O279	O	0.670642	0.668075	0.543470
	H280	H	0.684430	0.680116	0.537427
	H281	H	0.649163	0.671325	0.564026
	O282	O	0.950562	-0.002417	0.925922
	H283	H	0.956405	-0.006679	0.907729
	H284	H	0.944052	0.007251	0.920749
	O285	O	0.435120	0.413485	0.326122
	H286	H	0.451034	0.415637	0.318461
	H287	H	0.436996	0.423073	0.342210
	O288	O	1.053120	1.008048	0.970414
	H289	H	1.051804	1.014094	0.971492
	H290	H	1.046350	1.001241	0.978262
	O291	O	0.018572	1.106211	0.083391
	H292	H	0.009139	1.101547	0.099026
	H293	H	0.014176	1.094912	0.088473
	O294	O	0.309244	0.345352	0.599521
	H295	H	0.303463	0.329470	0.598627
	H296	H	0.309532	0.342246	0.596335
	O297	O	0.610943	0.351300	0.458749
	H298	H	0.613038	0.369992	0.461013
	H299	H	0.611227	0.349976	0.468351
	O300	O	0.563985	0.411756	0.650209
	H301	H	0.558404	0.414435	0.641237
	H302	H	0.562395	0.406026	0.660294
	O303	O	0.639257	0.569077	0.379262
	H304	H	0.653434	0.571754	0.381867
	H305	H	0.634849	0.546757	0.373807
	O306	O	0.416143	0.618497	0.567637
	H307	H	0.401645	0.633138	0.571388
	H308	H	0.419502	0.614177	0.570027
	O309	O	0.315440	0.488853	0.388008
	H310	H	0.316897	0.475609	0.387747
	H311	H	0.306738	0.472686	0.385331
	O312	O	-0.158141	0.031334	0.027165
	H313	H	-0.169157	0.024323	0.037910
	H314	H	-0.159925	0.026748	0.029758
	O315	O	0.550823	0.282334	0.433932
	H316	H	0.556911	0.271298	0.437318
	H317	H	0.541694	0.278591	0.436725
	O318	O	-0.095008	1.036935	0.808398
	H319	H	-0.092054	1.036979	0.807031
	H320	H	-0.094644	1.062218	0.807788
	O321	O	0.583756	0.600645	0.471677
	H322	H	0.586619	0.608659	0.488856
	H323	H	0.574105	0.617707	0.474086
	O324	O	-0.121777	0.866928	0.123214
	H325	H	-0.117943	0.849890	0.115852
	H326	H	-0.134537	0.856562	0.128011
	O327	O	0.383139	0.583713	0.395308
	H328	H	0.390015	0.551457	0.398370
	H329	H	0.373236	0.584378	0.380956
	O330	O	-0.016469	-0.113627	1.041146
	H331	H	-0.011144	-0.113356	1.025364
	H332	H	-0.028466	-0.118695	1.031645
	O333	O	0.030576	0.024435	0.994519
	H334	H	0.037378	0.027016	1.010632
	H335	H	0.036341	0.015466	0.996781
	O336	O	0.632818	0.343143	0.507863
	H337	H	0.618856	0.344430	0.515110
	H338	H	0.634330	0.337041	0.522962
	O339	O	0.409729	0.599493	0.602298
	H340	H	0.421616	0.603908	0.591431
	H341	H	0.414121	0.601953	0.603056
	O342	O	0.418231	-0.549922	0.542202
	H343	H	0.428097	-0.541099	0.524059
	H344	H	0.423168	-0.553897	0.538658
	O345	O	1.053503	0.985288	1.911002
	H346	H	1.051353	0.985375	1.916019
	H347	H	1.035950	0.986158	1.918898
	O348	O	1.134710	0.962495	-0.024873
	H349	H	1.113940	0.959825	-0.030407
	H350	H	1.140753	0.950619	-0.014802
	O351	O	0.527098	0.471893	0.389691
	H352	H	0.534328	0.481115	0.386719
	H353	H	0.537295	0.470156	0.380144
	O354	O	0.946439	0.095589	0.911726
	H355	H	0.945001	0.104422	0.922879
	H356	H	0.962228	0.095133	0.910000
	O357	O	0.558590	0.504276	0.287130
	H358	H	0.570839	0.508286	0.293955
	H359	H	0.564512	0.519633	0.280046
	O360	O	1.140731	0.984464	1.048093
	H361	H	1.145208	0.999253	1.041408
	H362	H	1.145732	0.972803	1.046502
	O363	O	-0.107370	0.962210	1.111163
	H364	H	-0.115061	0.952870	1.122215
	H365	H	-0.106669	0.948173	1.102115
	O366	O	0.398205	0.468915	0.597188
	H367	H	0.391050	0.478976	0.584579
	H368	H	0.398283	0.452595	0.602000
	O369	O	0.073654	0.873442	-0.078809
	H370	H	0.084059	0.872073	-0.091133
	H371	H	0.063223	0.881531	-0.076533
	O372	O	0.491717	0.295384	0.620236
	H373	H	0.497095	0.291271	0.633649
	H374	H	0.486771	0.303416	0.635646
	O375	O	0.637867	0.505969	0.490763
	H376	H	0.627356	0.504687	0.490742
	H377	H	0.628907	0.507829	0.500625
	O378	O	1.141320	0.920371	-0.054930
	H379	H	1.128190	0.920903	-0.060129
	H380	H	1.147981	0.912439	-0.059251
	O381	O	1.046242	-0.025920	0.038784
	H382	H	1.053895	-0.039682	0.041663
	H383	H	1.038725	-0.021038	0.033436
	O384	O	0.930363	0.915587	-0.010046
	H385	H	0.920680	0.930870	-0.018378
	H386	H	0.922474	0.907032	-0.009857
	O387	O	-0.525654	0.460798	0.481954
	H388	H	-0.511550	0.466130	0.470013
	H389	H	-0.516901	0.475061	0.477072
	O390	O	0.706505	0.529610	0.450582
	H391	H	0.713157	0.531906	0.448268
	H392	H	0.704008	0.525258	0.453478
	O393	O	0.910756	0.944152	0.992573
	H394	H	0.921850	0.952829	0.989140
	H395	H	0.910746	0.942590	0.976435
	O396	O	0.518749	0.578767	0.519542
	H397	H	0.502113	0.588644	0.526034
	H398	H	0.517329	0.551950	0.516277
	O399	O	-0.092751	1.146215	0.848529
	H400	H	-0.073372	1.147865	0.846282
	H401	H	-0.095527	1.155256	0.874008
	O402	O	0.522502	0.379587	0.381621
	H403	H	0.526908	0.369787	0.392533
	H404	H	0.526673	0.406281	0.382179
	O405	O	0.921167	0.879249	-0.019936
	H406	H	0.925497	0.881396	-0.026866
	H407	H	0.929813	0.884352	-0.031927
	O408	O	1.025779	1.164161	-0.123696
	H409	H	1.028010	1.169617	-0.107546
	H410	H	1.030810	1.167490	-0.127194
	O411	O	0.573351	-0.535191	2.370142
	H412	H	0.572237	-0.545802	2.385749
	H413	H	0.577866	-0.540362	2.367240
	O414	O	0.465443	0.615761	0.562512
	H415	H	0.451479	0.600299	0.557655
	H416	H	0.469271	0.616247	0.544180
	O417	O	0.006083	0.018771	0.856472
	H418	H	0.002160	0.038915	0.862512
	H419	H	0.010553	0.031401	0.864107
