data_Molecule from HDF5

_cell_length_a		16.194151
_cell_length_b		16.237715
_cell_length_c		16.180112
_cell_angle_alpha	89.638201
_cell_angle_beta	89.848159
_cell_angle_gamma	90.080489
_symmetry_space_group_name_H-M	'P 1'
_symmetry_Int_Tables_number		1

loop_
	_symmetry_equiv_pos_as_xyz
	x,y,z

loop_
	_atom_site_label
	_atom_site_type_symbol
	_atom_site_fract_x
	_atom_site_fract_y
	_atom_site_fract_z
	H0	H	0.398714	0.838835	0.711250
	H1	H	0.596739	0.166613	0.708512
	H2	H	0.595432	0.837624	0.282803
	H3	H	0.399247	0.166265	0.281043
	H4	H	0.713186	0.405956	0.833339
	H5	H	0.709749	0.601019	0.162828
	H6	H	0.284825	0.602086	0.832490
	H7	H	0.283966	0.404300	0.161643
	H8	H	0.833006	0.716849	0.398985
	H9	H	0.161529	0.716513	0.596373
	H10	H	0.833451	0.286404	0.599949
	H11	H	0.161686	0.288377	0.399829
	H12	H	0.833874	0.402359	0.713814
	H13	H	0.162576	0.599110	0.708705
	H14	H	0.832094	0.599581	0.285676
	H15	H	0.162870	0.405081	0.284741
	H16	H	0.398815	0.717158	0.832308
	H17	H	0.595019	0.717439	0.161488
	H18	H	0.597734	0.290725	0.831618
	H19	H	0.396752	0.285952	0.160361
	H20	H	0.711316	0.837950	0.397482
	H21	H	0.710347	0.166327	0.592390
	H22	H	0.284068	0.838099	0.595741
	H23	H	0.283797	0.166642	0.397280
	H24	H	0.898860	0.337955	0.213096
	H25	H	0.095562	0.666682	0.210916
	H26	H	0.096387	0.339371	0.784601
	H27	H	0.898378	0.666284	0.781937
	H28	H	0.210931	0.906166	0.332113
	H29	H	0.210331	0.098942	0.662223
	H30	H	0.785301	0.100973	0.332320
	H31	H	0.782530	0.903185	0.661672
	H32	H	0.333209	0.218320	0.895655
	H33	H	0.661846	0.216805	0.093974
	H34	H	0.332030	0.788492	0.096015
	H35	H	0.661872	0.790640	0.898699
	H36	H	0.332486	0.904034	0.210962
	H37	H	0.662050	0.100008	0.207988
	H38	H	0.332422	0.101483	0.781999
	H39	H	0.661956	0.908056	0.783808
	H40	H	0.898140	0.218367	0.333636
	H41	H	0.095272	0.213897	0.662833
	H42	H	0.097066	0.788726	0.333528
	H43	H	0.898813	0.788440	0.662236
	H44	H	0.211549	0.338965	0.899591
	H45	H	0.211305	0.667452	0.095381
	H46	H	0.782073	0.338999	0.099134
	H47	H	0.784819	0.666722	0.900561
	H48	H	0.405486	0.119955	0.589790
	H49	H	0.593693	0.885809	0.583187
	H50	H	0.588172	0.119659	0.397185
	H51	H	0.396171	0.882599	0.403337
	H52	H	0.585715	0.417021	0.111821
	H53	H	0.596132	0.597916	0.877726
	H54	H	0.401369	0.599857	0.117220
	H55	H	0.403401	0.406885	0.877877
	H56	H	0.115313	0.602875	0.410990
	H57	H	0.882860	0.591069	0.582763
	H58	H	0.116728	0.406186	0.592844
	H59	H	0.880638	0.418233	0.400374
	H60	H	0.114724	0.406781	0.587748
	H61	H	0.878646	0.589213	0.598438
	H62	H	0.111871	0.586982	0.407172
	H63	H	0.875572	0.399509	0.401045
	H64	H	0.401215	0.592588	0.114884
	H65	H	0.590515	0.593643	0.881353
	H66	H	0.582743	0.402524	0.114075
	H67	H	0.401355	0.414149	0.878836
	H68	H	0.588885	0.117822	0.405591
	H69	H	0.592860	0.881369	0.597464
	H70	H	0.403396	0.119241	0.586401
	H71	H	0.408387	0.884620	0.397359
	H72	H	0.904906	0.618506	0.089052
	H73	H	0.085187	0.387716	0.089037
	H74	H	0.094685	0.622293	0.900032
	H75	H	0.901817	0.385162	0.910178
	H76	H	0.089768	0.907000	0.615078
	H77	H	0.089818	0.092040	0.381143
	H78	H	0.897135	0.099443	0.617834
	H79	H	0.912179	0.904503	0.380366
	H80	H	0.618737	0.099006	0.893654
	H81	H	0.375079	0.098087	0.100227
	H82	H	0.612134	0.920524	0.089929
	H83	H	0.379846	0.911369	0.902958
	H84	H	0.619529	0.902384	0.099497
	H85	H	0.379790	0.104233	0.078701
	H86	H	0.615112	0.103606	0.906433
	H87	H	0.378036	0.908378	0.903154
	H88	H	0.899975	0.087025	0.614281
	H89	H	0.086692	0.099020	0.380316
	H90	H	0.091246	0.908115	0.615977
	H91	H	0.897387	0.904241	0.375776
	H92	H	0.087942	0.620029	0.900624
	H93	H	0.096558	0.384827	0.088760
	H94	H	0.900060	0.621418	0.091455
	H95	H	0.903317	0.384234	0.902896
	H96	H	0.401249	0.121276	0.589475
	H97	H	0.581781	0.886790	0.590184
	H98	H	0.595909	0.120261	0.401349
	H99	H	0.406306	0.887549	0.410821
	H100	H	0.596038	0.407992	0.116954
	H101	H	0.588124	0.600886	0.879085
	H102	H	0.407475	0.596522	0.114291
	H103	H	0.407966	0.411568	0.880277
	H104	H	0.117993	0.597275	0.394966
	H105	H	0.876790	0.603439	0.590893
	H106	H	0.113958	0.411366	0.591041
	H107	H	0.883246	0.407780	0.417135
	H108	H	0.905733	0.620773	0.095086
	H109	H	0.090114	0.383870	0.098016
	H110	H	0.092435	0.620217	0.906146
	H111	H	0.908787	0.387095	0.907665
	H112	H	0.090358	0.908715	0.615783
	H113	H	0.094459	0.097686	0.378319
	H114	H	0.909967	0.096541	0.614919
	H115	H	0.904144	0.918012	0.381386
	H116	H	0.611820	0.090624	0.903304
	H117	H	0.384268	0.083053	0.085333
	H118	H	0.613230	0.902869	0.078759
	H119	H	0.378706	0.909250	0.905107
	C120	C	0.375281	0.011514	0.617970
	C121	C	0.617963	0.993682	0.617160
	C122	C	0.619086	0.010649	0.373955
	C123	C	0.375369	0.993500	0.374546
	C124	C	0.618259	0.381416	0.005566
	C125	C	0.619089	0.625241	0.988775
	C126	C	0.375336	0.624928	0.006158
	C127	C	0.375463	0.381300	0.987683
	C128	C	0.006038	0.624085	0.375892
	C129	C	0.988628	0.622892	0.618450
	C130	C	0.006469	0.379590	0.620063
	C131	C	0.988710	0.380604	0.377152
	C132	C	0.874772	0.511622	0.120880
	C133	C	0.118957	0.494045	0.119680
	C134	C	0.119890	0.511909	0.875274
	C135	C	0.876234	0.493666	0.877181
	C136	C	0.119165	0.880575	0.506418
	C137	C	0.118905	0.123934	0.488879
	C138	C	0.875064	0.123920	0.506607
	C139	C	0.875699	0.880502	0.488415
	C140	C	0.506171	0.126022	0.872861
	C141	C	0.488635	0.123765	0.116484
	C142	C	0.505642	0.880657	0.118081
	C143	C	0.488117	0.881890	0.875119
	C144	C	0.378648	0.887652	0.673272
	C145	C	0.616496	0.117397	0.671212
	C146	C	0.615952	0.886838	0.320156
	C147	C	0.378567	0.117316	0.319141
	C148	C	0.674820	0.385201	0.882160
	C149	C	0.672382	0.621518	0.113171
	C150	C	0.322027	0.622189	0.881632
	C151	C	0.321160	0.383525	0.112291
	C152	C	0.882135	0.679110	0.378582
	C153	C	0.112308	0.678482	0.616224
	C154	C	0.882584	0.324477	0.618836
	C155	C	0.112803	0.326111	0.379290
	C156	C	0.882827	0.381813	0.675854
	C157	C	0.113078	0.620060	0.672036
	C158	C	0.881597	0.620857	0.322265
	C159	C	0.113178	0.384105	0.322011
	C160	C	0.378484	0.679505	0.881588
	C161	C	0.615187	0.679380	0.112519
	C162	C	0.617220	0.328276	0.881142
	C163	C	0.377182	0.324637	0.111471
	C164	C	0.673877	0.887090	0.377055
	C165	C	0.673160	0.117192	0.613519
	C166	C	0.321534	0.887303	0.615782
	C167	C	0.320940	0.117425	0.376644
	C168	C	0.877442	0.387529	0.176125
	C169	C	0.116075	0.617774	0.173599
	C170	C	0.117196	0.388143	0.821953
	C171	C	0.878308	0.617245	0.820409
	C172	C	0.174055	0.884413	0.381795
	C173	C	0.173193	0.119995	0.613095
	C174	C	0.821707	0.121902	0.381955
	C175	C	0.820337	0.882877	0.612632
	C176	C	0.382031	0.179899	0.876022
	C177	C	0.612631	0.179227	0.114338
	C178	C	0.381207	0.826269	0.115982
	C179	C	0.612425	0.828064	0.878209
	C180	C	0.381396	0.883537	0.173163
	C181	C	0.612842	0.120942	0.170816
	C182	C	0.381906	0.122284	0.819015
	C183	C	0.612821	0.886344	0.821099
	C184	C	0.878289	0.179955	0.382658
	C185	C	0.115679	0.176971	0.613422
	C186	C	0.117440	0.826095	0.382414
	C187	C	0.877988	0.825783	0.612846
	C188	C	0.174347	0.388263	0.879140
	C189	C	0.173494	0.618126	0.115883
	C190	C	0.819794	0.387811	0.119222
	C191	C	0.821553	0.617476	0.878899
	C192	C	0.397021	0.097797	0.595301
	C193	C	0.595828	0.907040	0.596294
	C194	C	0.597419	0.096984	0.395233
	C195	C	0.397179	0.907254	0.397339
	C196	C	0.594946	0.402810	0.092068
	C197	C	0.597927	0.603699	0.901651
	C198	C	0.396935	0.602891	0.092959
	C199	C	0.397612	0.404132	0.901350
	C200	C	0.092574	0.602151	0.397701
	C201	C	0.901824	0.600934	0.597048
	C202	C	0.092885	0.401763	0.597422
	C203	C	0.902128	0.402114	0.399466
	C204	C	0.896891	0.597862	0.098366
	C205	C	0.097043	0.407847	0.098349
	C206	C	0.098162	0.598522	0.896104
	C207	C	0.898240	0.407663	0.900156
	C208	C	0.096989	0.901678	0.593209
	C209	C	0.096924	0.102550	0.402164
	C210	C	0.896226	0.101241	0.593310
	C211	C	0.898027	0.902345	0.401566
	C212	C	0.592849	0.104422	0.894743
	C213	C	0.402036	0.101780	0.094530
	C214	C	0.592424	0.902320	0.095907
	C215	C	0.401152	0.903317	0.896920
	Zn216	Zn	0.497095	0.003380	0.745998
	Zn217	Zn	0.497355	0.002298	0.245564
	Zn218	Zn	0.746965	0.502679	-0.001169
	Zn219	Zn	0.247590	0.503391	-0.002767
	Zn220	Zn	-0.002785	0.752007	0.497975
	Zn221	Zn	-0.002615	0.251704	0.498710
	Zn222	Zn	-0.002226	0.502381	0.747435
	Zn223	Zn	-0.003161	0.502180	0.248312
	Zn224	Zn	0.496336	0.752861	-0.003506
	Zn225	Zn	0.497321	0.252911	-0.004954
	Zn226	Zn	0.747306	0.001876	0.496339
	Zn227	Zn	0.246931	0.002705	0.497295
	N228	N	0.411440	0.966015	0.674726
	N229	N	0.582813	0.039676	0.673510
	N230	N	0.582436	0.964688	0.318142
	N231	N	0.411793	0.039369	0.317619
	N232	N	0.675614	0.417542	0.960691
	N233	N	0.674740	0.588429	0.035052
	N234	N	0.319618	0.588979	0.960170
	N235	N	0.320002	0.418090	0.034561
	N236	N	0.960526	0.681292	0.411243
	N237	N	0.033855	0.680088	0.583590
	N238	N	0.960605	0.322864	0.584941
	N239	N	0.034631	0.323777	0.412615
	N240	N	0.960738	0.415587	0.676704
	N241	N	0.035019	0.586174	0.673559
	N242	N	0.959519	0.587131	0.320642
	N243	N	0.034918	0.417420	0.320684
	N244	N	0.411321	0.681004	0.959867
	N245	N	0.582850	0.681755	0.034087
	N246	N	0.582897	0.325748	0.958922
	N247	N	0.410379	0.323168	0.033004
	N248	N	0.675912	0.965019	0.409843
	N249	N	0.674322	0.039120	0.580671
	N250	N	0.319321	0.965140	0.582201
	N251	N	0.318847	0.039437	0.410394
	N252	N	0.910747	0.465458	0.177277
	N253	N	0.082779	0.539751	0.176085
	N254	N	0.083895	0.465945	0.819463
	N255	N	0.911690	0.539211	0.819107
	N256	N	0.175228	0.917439	0.459765
	N257	N	0.174997	0.087718	0.534663
	N258	N	0.819719	0.087517	0.459857
	N259	N	0.818601	0.915925	0.534094
	N260	N	0.460339	0.182475	0.908533
	N261	N	0.534401	0.181183	0.081316
	N262	N	0.459463	0.824171	0.082663
	N263	N	0.533949	0.825384	0.910890
	N264	N	0.459703	0.916629	0.174568
	N265	N	0.534666	0.087486	0.172572
	N266	N	0.460221	0.089484	0.816835
	N267	N	0.534384	0.918915	0.818960
	N268	N	0.910569	0.181430	0.461194
	N269	N	0.082417	0.179272	0.535267
	N270	N	0.083769	0.823788	0.460778
	N271	N	0.911645	0.824200	0.534750
	N272	N	0.175917	0.466206	0.911832
	N273	N	0.175385	0.540147	0.082902
	N274	N	0.817681	0.465977	0.085800
	N275	N	0.820158	0.539850	0.913559
	O276	O	0.475742	0.449348	0.508745
	H277	H	0.469534	0.444354	0.513179
	H278	H	0.458170	0.443730	0.508738
	O279	O	0.585336	0.469849	0.558167
	H280	H	0.580783	0.469958	0.565353
	H281	H	0.581622	0.468813	0.559079
	O282	O	0.533297	0.446235	0.409369
	H283	H	0.545991	0.456194	0.411231
	H284	H	0.543046	0.435951	0.405555
	O285	O	0.007862	1.009182	1.067849
	H286	H	0.017799	1.023224	1.070367
	H287	H	0.013242	1.012758	1.076027
	O288	O	0.404273	0.491765	0.485368
	H289	H	0.401217	0.487987	0.476852
	H290	H	0.403956	0.497644	0.480412
	O291	O	0.024620	0.044168	1.079008
	H292	H	0.024304	0.047913	1.091366
	H293	H	0.026737	0.037590	1.077896
	O294	O	0.474465	0.429590	0.481295
	H295	H	0.479336	0.430910	0.476811
	H296	H	0.481826	0.421683	0.468964
	O297	O	0.496507	0.530635	0.509315
	H298	H	0.499204	0.528895	0.504713
	H299	H	0.496187	0.529298	0.506452
	O300	O	0.534593	0.517066	0.518236
	H301	H	0.537271	0.516962	0.528902
	H302	H	0.537533	0.517041	0.525043
	O303	O	0.530254	0.546455	0.487645
	H304	H	0.534855	0.541994	0.488549
	H305	H	0.526844	0.553325	0.490659
	O306	O	1.004407	0.058534	1.055747
	H307	H	0.996000	0.058551	1.051160
	H308	H	1.005062	0.049416	1.067345
	O309	O	0.493130	0.514828	0.593211
	H310	H	0.486919	0.518474	0.594319
	H311	H	0.490118	0.514070	0.600063
	O312	O	0.484071	0.515144	0.457179
	H313	H	0.479727	0.523211	0.457114
	H314	H	0.490958	0.512341	0.456567
	O315	O	0.966329	0.046626	1.037353
	H316	H	0.967397	0.042817	1.031617
	H317	H	0.965943	0.051097	1.032682
	O318	O	-0.031051	-0.027979	0.029218
	H319	H	-0.026329	-0.026632	0.026161
	H320	H	-0.038857	-0.034804	0.029664
	O321	O	0.466277	0.439284	0.420648
	H322	H	0.459804	0.430621	0.415537
	H323	H	0.472709	0.460935	0.416914
	O324	O	1.026097	-0.001597	0.063234
	H325	H	1.033258	-0.004235	0.057065
	H326	H	1.022830	0.000014	0.059522
	O327	O	0.980515	1.001197	0.076613
	H328	H	0.978396	0.998729	0.078329
	H329	H	0.983380	1.009280	0.087007
	O330	O	0.586541	0.478998	0.421733
	H331	H	0.592944	0.472709	0.427863
	H332	H	0.591380	0.470721	0.418637
	O333	O	0.437140	0.526098	0.433630
	H334	H	0.442787	0.525605	0.435572
	H335	H	0.436964	0.530325	0.425163
