data_Molecule from HDF5

_cell_length_a		16.238220
_cell_length_b		16.357677
_cell_length_c		16.140988
_cell_angle_alpha	89.784670
_cell_angle_beta	90.047991
_cell_angle_gamma	89.847744
_symmetry_space_group_name_H-M	'P 1'
_symmetry_Int_Tables_number		1

loop_
	_symmetry_equiv_pos_as_xyz
	x,y,z

loop_
	_atom_site_label
	_atom_site_type_symbol
	_atom_site_fract_x
	_atom_site_fract_y
	_atom_site_fract_z
	H0	H	0.401893	0.834562	0.722140
	H1	H	0.594454	0.162665	0.721275
	H2	H	0.594096	0.833724	0.296532
	H3	H	0.399951	0.161553	0.293307
	H4	H	0.711593	0.401730	0.843446
	H5	H	0.709758	0.593685	0.173621
	H6	H	0.285385	0.596528	0.843073
	H7	H	0.286836	0.401580	0.173026
	H8	H	0.834820	0.715481	0.407474
	H9	H	0.162460	0.712360	0.606817
	H10	H	0.834595	0.283268	0.609738
	H11	H	0.161353	0.283669	0.410014
	H12	H	0.832910	0.403443	0.721290
	H13	H	0.162661	0.594254	0.720906
	H14	H	0.834006	0.596190	0.295525
	H15	H	0.163075	0.402396	0.297261
	H16	H	0.398112	0.714580	0.844613
	H17	H	0.596921	0.711082	0.173188
	H18	H	0.596894	0.285412	0.843406
	H19	H	0.399075	0.284007	0.171648
	H20	H	0.712992	0.835450	0.410851
	H21	H	0.712116	0.161974	0.605631
	H22	H	0.283004	0.835510	0.607331
	H23	H	0.282685	0.161323	0.408125
	H24	H	0.902015	0.335526	0.222925
	H25	H	0.094195	0.662990	0.220040
	H26	H	0.095694	0.335737	0.795664
	H27	H	0.900162	0.662619	0.794864
	H28	H	0.211298	0.902180	0.343049
	H29	H	0.211075	0.095100	0.673515
	H30	H	0.784809	0.096823	0.343441
	H31	H	0.786157	0.901458	0.674107
	H32	H	0.334280	0.214948	0.907123
	H33	H	0.661613	0.212602	0.107101
	H34	H	0.334668	0.782376	0.110230
	H35	H	0.661283	0.783036	0.909225
	H36	H	0.333629	0.901852	0.221416
	H37	H	0.662834	0.093070	0.219978
	H38	H	0.333041	0.095022	0.795622
	H39	H	0.663023	0.902303	0.797113
	H40	H	0.897858	0.214424	0.344131
	H41	H	0.098191	0.212910	0.672630
	H42	H	0.099317	0.784496	0.343460
	H43	H	0.899467	0.783743	0.672139
	H44	H	0.212990	0.335661	0.910530
	H45	H	0.213107	0.661554	0.106131
	H46	H	0.783597	0.335621	0.108565
	H47	H	0.782050	0.661453	0.909294
	H48	H	0.406178	0.114096	0.601798
	H49	H	0.601130	0.879681	0.602709
	H50	H	0.602874	0.117696	0.415904
	H51	H	0.407553	0.882914	0.415295
	H52	H	0.587007	0.395932	0.127735
	H53	H	0.582765	0.604291	0.888948
	H54	H	0.399115	0.592449	0.128964
	H55	H	0.415221	0.399769	0.890228
	H56	H	0.114621	0.590794	0.417411
	H57	H	0.877510	0.595868	0.609808
	H58	H	0.118294	0.392741	0.599041
	H59	H	0.879429	0.408279	0.409627
	H60	H	0.110336	0.411571	0.592424
	H61	H	0.881127	0.600270	0.593642
	H62	H	0.116935	0.592868	0.411464
	H63	H	0.878401	0.398728	0.417451
	H64	H	0.407040	0.584729	0.124266
	H65	H	0.603036	0.591111	0.886574
	H66	H	0.599955	0.405372	0.128951
	H67	H	0.395530	0.399883	0.884498
	H68	H	0.586935	0.116271	0.403067
	H69	H	0.588041	0.881361	0.610186
	H70	H	0.404353	0.113580	0.598026
	H71	H	0.402270	0.882491	0.419065
	H72	H	0.906382	0.611519	0.091060
	H73	H	0.090192	0.381472	0.108672
	H74	H	0.093130	0.615423	0.915153
	H75	H	0.909930	0.385130	0.920785
	H76	H	0.085373	0.909773	0.623680
	H77	H	0.086706	0.091947	0.391249
	H78	H	0.898099	0.088781	0.628246
	H79	H	0.906390	0.906159	0.390063
	H80	H	0.614753	0.088074	0.910596
	H81	H	0.382082	0.087398	0.099556
	H82	H	0.612390	0.897125	0.088137
	H83	H	0.377498	0.901737	0.909896
	H84	H	0.612099	0.917409	0.102799
	H85	H	0.378823	0.095481	0.104734
	H86	H	0.617652	0.099049	0.915061
	H87	H	0.380909	0.900833	0.921467
	H88	H	0.910815	0.087879	0.623605
	H89	H	0.090711	0.095233	0.389434
	H90	H	0.088444	0.896930	0.627355
	H91	H	0.904805	0.905420	0.389754
	H92	H	0.091535	0.616138	0.913925
	H93	H	0.089314	0.384944	0.098184
	H94	H	0.891828	0.619120	0.103480
	H95	H	0.897201	0.381662	0.917932
	H96	H	0.401395	0.115529	0.601460
	H97	H	0.588535	0.885733	0.596347
	H98	H	0.584417	0.110396	0.422885
	H99	H	0.402696	0.880542	0.412244
	H100	H	0.586279	0.410741	0.123150
	H101	H	0.582835	0.581131	0.895989
	H102	H	0.409806	0.596769	0.126481
	H103	H	0.404068	0.416838	0.891916
	H104	H	0.116482	0.597420	0.416616
	H105	H	0.884250	0.584704	0.599056
	H106	H	0.116988	0.408532	0.612463
	H107	H	0.883668	0.409591	0.420707
	H108	H	0.910354	0.616280	0.111135
	H109	H	0.099161	0.380913	0.101945
	H110	H	0.091023	0.615215	0.914624
	H111	H	0.906959	0.380630	0.907849
	H112	H	0.097992	0.906294	0.627255
	H113	H	0.092318	0.089952	0.390124
	H114	H	0.906313	0.099513	0.628497
	H115	H	0.904761	0.907313	0.390027
	H116	H	0.612655	0.090791	0.921978
	H117	H	0.380782	0.095720	0.095245
	H118	H	0.620666	0.895880	0.111903
	H119	H	0.382412	0.911466	0.915095
	C120	C	0.375850	0.006743	0.629774
	C121	C	0.620236	0.990476	0.630690
	C122	C	0.619779	0.006786	0.386082
	C123	C	0.375504	0.989971	0.386067
	C124	C	0.619685	0.376501	0.017371
	C125	C	0.618567	0.619566	0.999677
	C126	C	0.376536	0.619946	0.017278
	C127	C	0.377300	0.377964	0.998538
	C128	C	0.007135	0.621188	0.386944
	C129	C	0.989578	0.620643	0.629293
	C130	C	0.006557	0.376676	0.630536
	C131	C	0.989263	0.377449	0.387623
	C132	C	0.875755	0.507268	0.130368
	C133	C	0.120656	0.490464	0.130796
	C134	C	0.120144	0.507555	0.886681
	C135	C	0.876157	0.490380	0.886958
	C136	C	0.119406	0.877004	0.516734
	C137	C	0.119082	0.120070	0.499604
	C138	C	0.876513	0.120402	0.517402
	C139	C	0.877103	0.877697	0.499175
	C140	C	0.506373	0.120582	0.886741
	C141	C	0.489231	0.119856	0.128679
	C142	C	0.506716	0.876128	0.130052
	C143	C	0.489092	0.876766	0.887405
	C144	C	0.380099	0.883641	0.684711
	C145	C	0.616038	0.113685	0.684225
	C146	C	0.615811	0.883002	0.333220
	C147	C	0.379045	0.112817	0.331011
	C148	C	0.674390	0.380509	0.892785
	C149	C	0.672572	0.615078	0.124375
	C150	C	0.322148	0.617588	0.892815
	C151	C	0.323514	0.380861	0.123414
	C152	C	0.883696	0.676902	0.388098
	C153	C	0.113219	0.674887	0.627041
	C154	C	0.883198	0.321979	0.629137
	C155	C	0.112650	0.321822	0.389759
	C156	C	0.882502	0.381542	0.684653
	C157	C	0.113734	0.616080	0.683507
	C158	C	0.883051	0.617396	0.332720
	C159	C	0.113608	0.381237	0.334141
	C160	C	0.378499	0.675742	0.893425
	C161	C	0.616519	0.673270	0.124038
	C162	C	0.617282	0.322924	0.892637
	C163	C	0.379345	0.322625	0.122920
	C164	C	0.674601	0.883711	0.390122
	C165	C	0.674447	0.113357	0.626846
	C166	C	0.321382	0.883986	0.627502
	C167	C	0.320527	0.112536	0.387866
	C168	C	0.880246	0.384303	0.185287
	C169	C	0.116134	0.613793	0.183846
	C170	C	0.116840	0.384466	0.832754
	C171	C	0.879015	0.613706	0.832204
	C172	C	0.173994	0.881175	0.392341
	C173	C	0.173916	0.116209	0.623884
	C174	C	0.821832	0.117829	0.392921
	C175	C	0.823416	0.880870	0.624395
	C176	C	0.382951	0.176100	0.888138
	C177	C	0.612778	0.174534	0.127020
	C178	C	0.383341	0.820887	0.129389
	C179	C	0.612747	0.821627	0.889539
	C180	C	0.382699	0.880360	0.184637
	C181	C	0.613449	0.115256	0.183011
	C182	C	0.382292	0.116716	0.832625
	C183	C	0.613547	0.881142	0.833999
	C184	C	0.878371	0.176001	0.393295
	C185	C	0.117715	0.174610	0.623665
	C186	C	0.118093	0.822925	0.392486
	C187	C	0.879663	0.822359	0.623524
	C188	C	0.175054	0.384632	0.889941
	C189	C	0.174903	0.613137	0.126856
	C190	C	0.821687	0.384310	0.128093
	C191	C	0.820158	0.612987	0.888708
	C192	C	0.397648	0.092463	0.607128
	C193	C	0.598911	0.904471	0.609409
	C194	C	0.598005	0.092577	0.407627
	C195	C	0.397790	0.904086	0.408777
	C196	C	0.597509	0.397691	0.104187
	C197	C	0.596175	0.598425	0.912823
	C198	C	0.398756	0.597797	0.104164
	C199	C	0.398627	0.399251	0.911439
	C200	C	0.093744	0.599888	0.408616
	C201	C	0.903237	0.599594	0.607495
	C202	C	0.092993	0.397949	0.607943
	C203	C	0.902817	0.399049	0.409580
	C204	C	0.896613	0.593343	0.108341
	C205	C	0.099281	0.404477	0.109214
	C206	C	0.098195	0.593507	0.908100
	C207	C	0.898214	0.404703	0.908838
	C208	C	0.097192	0.898089	0.603476
	C209	C	0.096565	0.098692	0.412624
	C210	C	0.898457	0.098473	0.604193
	C211	C	0.898766	0.899730	0.412446
	C212	C	0.592820	0.099090	0.909225
	C213	C	0.402850	0.098910	0.106439
	C214	C	0.592868	0.897299	0.107523
	C215	C	0.402629	0.898231	0.909077
	Zn216	Zn	0.498080	-0.001170	0.759409
	Zn217	Zn	0.497853	-0.001885	0.257572
	Zn218	Zn	0.746777	0.498587	0.008278
	Zn219	Zn	0.249186	0.498509	0.008232
	Zn220	Zn	-0.001657	0.749608	0.507695
	Zn221	Zn	-0.002153	0.248096	0.508756
	Zn222	Zn	-0.001989	0.499105	0.758048
	Zn223	Zn	-0.001663	0.499066	0.259175
	Zn224	Zn	0.497779	0.748230	0.008674
	Zn225	Zn	0.497676	0.249667	0.007783
	Zn226	Zn	0.748921	-0.001213	0.508333
	Zn227	Zn	0.246815	-0.001487	0.507968
	N228	N	0.413371	0.961129	0.686286
	N229	N	0.583304	0.036223	0.686794
	N230	N	0.582514	0.960444	0.330714
	N231	N	0.412543	0.035524	0.329915
	N232	N	0.676098	0.413043	0.971360
	N233	N	0.673909	0.582305	0.046012
	N234	N	0.321181	0.583380	0.970778
	N235	N	0.322269	0.414543	0.045166
	N236	N	0.961851	0.679308	0.421104
	N237	N	0.035083	0.677669	0.593946
	N238	N	0.961363	0.318942	0.596084
	N239	N	0.034398	0.319544	0.422387
	N240	N	0.960222	0.414670	0.685541
	N241	N	0.035899	0.583125	0.685073
	N242	N	0.960858	0.583518	0.331892
	N243	N	0.035874	0.414904	0.332479
	N244	N	0.411365	0.677639	0.972017
	N245	N	0.583561	0.676019	0.045601
	N246	N	0.584089	0.320368	0.970955
	N247	N	0.411874	0.320491	0.044258
	N248	N	0.677223	0.961620	0.422206
	N249	N	0.676968	0.035725	0.594167
	N250	N	0.318860	0.961364	0.594059
	N251	N	0.318322	0.035137	0.421436
	N252	N	0.913403	0.461537	0.186535
	N253	N	0.082811	0.536436	0.186169
	N254	N	0.083339	0.461783	0.830629
	N255	N	0.913260	0.536588	0.831113
	N256	N	0.174873	0.914135	0.470525
	N257	N	0.174557	0.082792	0.545699
	N258	N	0.820637	0.084024	0.471027
	N259	N	0.821629	0.914591	0.546137
	N260	N	0.461021	0.178428	0.921284
	N261	N	0.534494	0.177612	0.093997
	N262	N	0.461189	0.818312	0.095909
	N263	N	0.534392	0.818968	0.922196
	N264	N	0.460289	0.914005	0.185157
	N265	N	0.535735	0.082073	0.184128
	N266	N	0.459958	0.082968	0.831667
	N267	N	0.535768	0.914556	0.832456
	N268	N	0.911770	0.177687	0.471610
	N269	N	0.084365	0.177116	0.545398
	N270	N	0.084906	0.820110	0.470928
	N271	N	0.912304	0.820313	0.544899
	N272	N	0.177093	0.462077	0.922760
	N273	N	0.177651	0.535540	0.094681
	N274	N	0.818790	0.461874	0.094747
	N275	N	0.818451	0.535581	0.922215
	O276	O	0.964073	0.038689	0.968136
	H277	H	0.957447	0.028699	0.965690
	H278	H	0.967355	0.040818	0.958963
	O279	O	0.965598	0.039085	-0.006759
	H280	H	0.962827	0.045217	-0.001657
	H281	H	0.971309	0.049154	-0.003107
	O282	O	0.938676	1.020784	-0.050044
	H283	H	0.938673	1.021905	-0.049159
	H284	H	0.937021	1.023456	-0.045773
	O285	O	-0.054604	1.048450	-0.031151
	H286	H	-0.057212	1.040423	-0.031936
	H287	H	-0.055456	1.052209	-0.038781
