data_Molecule from HDF5

_cell_length_a		16.575970
_cell_length_b		16.525241
_cell_length_c		16.612274
_cell_angle_alpha	90.068484
_cell_angle_beta	89.978647
_cell_angle_gamma	89.986428
_symmetry_space_group_name_H-M	'P 1'
_symmetry_Int_Tables_number		1

loop_
	_symmetry_equiv_pos_as_xyz
	x,y,z

loop_
	_atom_site_label
	_atom_site_type_symbol
	_atom_site_fract_x
	_atom_site_fract_y
	_atom_site_fract_z
	H0	H	0.402062	0.840604	0.734151
	H1	H	0.612537	0.153722	0.733678
	H2	H	0.615023	0.842189	0.288913
	H3	H	0.401488	0.153808	0.291111
	H4	H	0.729246	0.392460	0.857267
	H5	H	0.731217	0.604332	0.167875
	H6	H	0.283020	0.608002	0.859492
	H7	H	0.284469	0.391040	0.168015
	H8	H	0.851496	0.719264	0.406535
	H9	H	0.164220	0.719142	0.615661
	H10	H	0.852499	0.276963	0.618046
	H11	H	0.163949	0.275808	0.407213
	H12	H	0.852580	0.393371	0.733558
	H13	H	0.163607	0.605867	0.735225
	H14	H	0.851322	0.602312	0.291203
	H15	H	0.163033	0.389436	0.289492
	H16	H	0.399956	0.723645	0.859277
	H17	H	0.613416	0.719303	0.168877
	H18	H	0.611816	0.277532	0.856556
	H19	H	0.399308	0.273102	0.167363
	H20	H	0.731296	0.842248	0.404372
	H21	H	0.729240	0.153384	0.617873
	H22	H	0.286865	0.839621	0.616892
	H23	H	0.285990	0.153951	0.408040
	H24	H	0.904135	0.338666	0.231901
	H25	H	0.112749	0.653415	0.236329
	H26	H	0.114441	0.342453	0.791346
	H27	H	0.907156	0.655622	0.794745
	H28	H	0.229606	0.891517	0.356158
	H29	H	0.224085	0.098094	0.671132
	H30	H	0.785238	0.102955	0.356713
	H31	H	0.786176	0.892458	0.668200
	H32	H	0.350340	0.216665	0.911815
	H33	H	0.665072	0.218031	0.117245
	H34	H	0.353682	0.775136	0.119464
	H35	H	0.664720	0.776758	0.907541
	H36	H	0.353419	0.890728	0.235767
	H37	H	0.664074	0.103809	0.235203
	H38	H	0.350193	0.100916	0.794252
	H39	H	0.663736	0.892911	0.790815
	H40	H	0.903443	0.217257	0.355584
	H41	H	0.108854	0.216313	0.669891
	H42	H	0.111725	0.776278	0.354930
	H43	H	0.902847	0.776154	0.668428
	H44	H	0.230126	0.341852	0.908276
	H45	H	0.231610	0.653495	0.121451
	H46	H	0.788203	0.339580	0.115870
	H47	H	0.789639	0.655680	0.910634
	H48	H	0.419570	0.107766	0.599478
	H49	H	0.597943	0.883601	0.602489
	H50	H	0.598792	0.108840	0.428228
	H51	H	0.422030	0.886949	0.427763
	H52	H	0.599521	0.411913	0.124458
	H53	H	0.599122	0.582462	0.901897
	H54	H	0.426297	0.591617	0.123251
	H55	H	0.417908	0.418588	0.904906
	H56	H	0.115518	0.577930	0.427187
	H57	H	0.898005	0.585256	0.600232
	H58	H	0.122073	0.405631	0.602747
	H59	H	0.895214	0.407451	0.423007
	H60	H	0.119603	0.408974	0.599701
	H61	H	0.896457	0.584024	0.605005
	H62	H	0.121643	0.585023	0.416109
	H63	H	0.895893	0.407369	0.424342
	H64	H	0.414120	0.587196	0.127205
	H65	H	0.593385	0.588785	0.902083
	H66	H	0.595245	0.407043	0.124225
	H67	H	0.429078	0.407962	0.904596
	H68	H	0.595345	0.110832	0.420875
	H69	H	0.593432	0.885651	0.602677
	H70	H	0.411108	0.111944	0.601860
	H71	H	0.415411	0.884903	0.425123
	H72	H	0.917380	0.607799	0.096265
	H73	H	0.101549	0.387964	0.090865
	H74	H	0.095838	0.608457	0.929047
	H75	H	0.918067	0.385996	0.924961
	H76	H	0.102715	0.906787	0.626316
	H77	H	0.094995	0.088329	0.401271
	H78	H	0.918156	0.089253	0.625125
	H79	H	0.917129	0.904567	0.398930
	H80	H	0.618836	0.084927	0.922171
	H81	H	0.396682	0.085060	0.102610
	H82	H	0.621049	0.910472	0.104218
	H83	H	0.396703	0.911144	0.925495
	H84	H	0.620539	0.907305	0.100426
	H85	H	0.397112	0.086462	0.101351
	H86	H	0.622428	0.088425	0.918166
	H87	H	0.396829	0.909979	0.923149
	H88	H	0.915492	0.086039	0.623988
	H89	H	0.100448	0.088305	0.399031
	H90	H	0.095056	0.914985	0.620713
	H91	H	0.915882	0.914243	0.401810
	H92	H	0.100708	0.612743	0.924548
	H93	H	0.099933	0.382037	0.108038
	H94	H	0.915925	0.611784	0.107494
	H95	H	0.916454	0.383943	0.921522
	H96	H	0.418439	0.111108	0.608653
	H97	H	0.595933	0.886240	0.598017
	H98	H	0.590261	0.106967	0.426674
	H99	H	0.421122	0.885030	0.420390
	H100	H	0.601379	0.406288	0.127504
	H101	H	0.601747	0.590377	0.899037
	H102	H	0.422507	0.579087	0.120561
	H103	H	0.415139	0.404684	0.899400
	H104	H	0.119448	0.591979	0.428330
	H105	H	0.894488	0.589257	0.603142
	H106	H	0.120511	0.409826	0.604397
	H107	H	0.895802	0.408497	0.423074
	H108	H	0.926200	0.607228	0.103994
	H109	H	0.085960	0.390257	0.099780
	H110	H	0.093397	0.610375	0.922182
	H111	H	0.920942	0.385318	0.922160
	H112	H	0.091447	0.903389	0.622806
	H113	H	0.098218	0.083688	0.401831
	H114	H	0.920145	0.085788	0.623452
	H115	H	0.924837	0.909805	0.402818
	H116	H	0.620724	0.091115	0.923862
	H117	H	0.397761	0.084433	0.100798
	H118	H	0.619498	0.911770	0.100094
	H119	H	0.396401	0.908551	0.924896
	C120	C	0.385486	0.005705	0.634533
	C121	C	0.628253	0.988668	0.633583
	C122	C	0.628439	0.006151	0.391840
	C123	C	0.386958	0.989303	0.392114
	C124	C	0.629519	0.376601	0.021759
	C125	C	0.630093	0.619587	1.003986
	C126	C	0.386962	0.619752	0.021638
	C127	C	0.387026	0.377112	1.005245
	C128	C	0.015725	0.617685	0.391516
	C129	C	0.999470	0.619213	0.634231
	C130	C	0.017277	0.376383	0.634301
	C131	C	0.998678	0.374889	0.390678
	C132	C	0.887269	0.505180	0.133990
	C133	C	0.128947	0.489526	0.134098
	C134	C	0.129711	0.507144	0.892227
	C135	C	0.887482	0.489216	0.891775
	C136	C	0.128659	0.875761	0.520006
	C137	C	0.128276	0.118100	0.504616
	C138	C	0.885454	0.119410	0.521032
	C139	C	0.886574	0.876656	0.504042
	C140	C	0.516407	0.119435	0.890978
	C141	C	0.500176	0.118526	0.134060
	C142	C	0.517198	0.877004	0.133937
	C143	C	0.499776	0.877301	0.892127
	C144	C	0.383716	0.887506	0.694042
	C145	C	0.630966	0.106577	0.693780
	C146	C	0.632746	0.889080	0.329702
	C147	C	0.384062	0.107021	0.331838
	C148	C	0.689364	0.373892	0.904319
	C149	C	0.690835	0.622171	0.121196
	C150	C	0.324341	0.624792	0.905690
	C151	C	0.324963	0.373258	0.121388
	C152	C	0.898204	0.678541	0.388740
	C153	C	0.117380	0.679237	0.634968
	C154	C	0.899493	0.317058	0.636317
	C155	C	0.116604	0.315175	0.388602
	C156	C	0.899564	0.374898	0.693952
	C157	C	0.116956	0.622889	0.694375
	C158	C	0.898288	0.620222	0.331333
	C159	C	0.116254	0.371761	0.330042
	C160	C	0.382265	0.682521	0.905596
	C161	C	0.632290	0.679428	0.121844
	C162	C	0.630780	0.316861	0.904070
	C163	C	0.382287	0.314874	0.121410
	C164	C	0.690507	0.889158	0.387227
	C165	C	0.689022	0.106367	0.636298
	C166	C	0.326472	0.887090	0.635783
	C167	C	0.326384	0.107005	0.389818
	C168	C	0.885347	0.386481	0.192746
	C169	C	0.131625	0.606848	0.195750
	C170	C	0.132863	0.389389	0.831432
	C171	C	0.887631	0.608347	0.833929
	C172	C	0.189026	0.873269	0.402663
	C173	C	0.185606	0.118158	0.623494
	C174	C	0.825507	0.121122	0.403540
	C175	C	0.826361	0.873977	0.621467
	C176	C	0.397554	0.177219	0.891959
	C177	C	0.617851	0.178528	0.136074
	C178	C	0.400095	0.815774	0.137213
	C179	C	0.617617	0.816970	0.889461
	C180	C	0.399912	0.873228	0.194969
	C181	C	0.617271	0.121623	0.194789
	C182	C	0.397569	0.120012	0.833506
	C183	C	0.617401	0.874668	0.831543
	C184	C	0.884163	0.178147	0.403036
	C185	C	0.127950	0.176439	0.623036
	C186	C	0.130498	0.816041	0.402186
	C187	C	0.884616	0.816428	0.621572
	C188	C	0.189990	0.388958	0.889770
	C189	C	0.190275	0.606865	0.138603
	C190	C	0.827871	0.386726	0.134896
	C191	C	0.829230	0.608297	0.891340
	C192	C	0.409531	0.088700	0.610378
	C193	C	0.602895	0.906520	0.608191
	C194	C	0.602355	0.087573	0.417706
	C195	C	0.412490	0.906953	0.417188
	C196	C	0.605450	0.401450	0.103923
	C197	C	0.605082	0.594427	0.922278
	C198	C	0.413429	0.593221	0.102473
	C199	C	0.413271	0.402913	0.924004
	C200	C	0.097662	0.592358	0.416753
	C201	C	0.917585	0.593468	0.609732
	C202	C	0.099416	0.401012	0.609365
	C203	C	0.916822	0.400434	0.416224
	C204	C	0.912449	0.587613	0.109498
	C205	C	0.103228	0.408024	0.107412
	C206	C	0.104157	0.589023	0.918007
	C207	C	0.911441	0.406648	0.915938
	C208	C	0.103589	0.901131	0.601737
	C209	C	0.104626	0.093702	0.422144
	C210	C	0.910701	0.094245	0.602900
	C211	C	0.911895	0.902180	0.422376
	C212	C	0.599142	0.095100	0.914577
	C213	C	0.418392	0.092674	0.108708
	C214	C	0.599069	0.902711	0.108728
	C215	C	0.417906	0.902665	0.917213
	Zn216	Zn	0.507128	-0.002723	0.762454
	Zn217	Zn	0.507755	-0.002167	0.263025
	Zn218	Zn	0.758670	0.497751	0.013140
	Zn219	Zn	0.258029	0.498556	0.013511
	Zn220	Zn	0.007554	0.746928	0.512004
	Zn221	Zn	0.007304	0.247585	0.512228
	Zn222	Zn	0.008934	0.497911	0.762953
	Zn223	Zn	0.007527	0.496527	0.263042
	Zn224	Zn	0.508570	0.748594	0.013163
	Zn225	Zn	0.508019	0.247685	0.013627
	Zn226	Zn	0.757103	-0.002541	0.512743
	Zn227	Zn	0.257769	-0.002883	0.512812
	N228	N	0.419515	0.962484	0.693471
	N229	N	0.593896	0.032236	0.692322
	N230	N	0.594669	0.962773	0.332362
	N231	N	0.420867	0.032679	0.332998
	N232	N	0.688789	0.410378	0.978545
	N233	N	0.689680	0.585802	0.046901
	N234	N	0.327187	0.586405	0.978803
	N235	N	0.327870	0.411197	0.048195
	N236	N	0.972239	0.676836	0.425630
	N237	N	0.043236	0.677123	0.598285
	N238	N	0.973786	0.317556	0.600050
	N239	N	0.042392	0.316943	0.425632
	N240	N	0.973903	0.411146	0.692850
	N241	N	0.042574	0.586466	0.694176
	N242	N	0.972322	0.582988	0.333065
	N243	N	0.041705	0.407911	0.330889
	N244	N	0.420722	0.679417	0.978624
	N245	N	0.595288	0.678113	0.047855
	N246	N	0.594307	0.318277	0.978219
	N247	N	0.420197	0.317017	0.048102
	N248	N	0.688030	0.962870	0.425287
	N249	N	0.687547	0.032003	0.599598
	N250	N	0.327268	0.961758	0.599663
	N251	N	0.328014	0.032562	0.426535
	N252	N	0.921424	0.461354	0.192488
	N253	N	0.094293	0.532780	0.193115
	N254	N	0.096445	0.464002	0.832603
	N255	N	0.922968	0.533204	0.833850
	N256	N	0.187966	0.909853	0.477015
	N257	N	0.186182	0.082770	0.548686
	N258	N	0.825850	0.085551	0.478262
	N259	N	0.827420	0.910554	0.547352
	N260	N	0.472614	0.177129	0.926650
	N261	N	0.543944	0.176656	0.098925
	N262	N	0.473978	0.818095	0.099961
	N263	N	0.543386	0.818342	0.926391
	N264	N	0.473639	0.910759	0.192992
	N265	N	0.542999	0.085152	0.193769
	N266	N	0.472722	0.084945	0.832443
	N267	N	0.543083	0.911189	0.832904
	N268	N	0.920617	0.177160	0.477085
	N269	N	0.093442	0.176784	0.547939
	N270	N	0.093728	0.817551	0.476178
	N271	N	0.921128	0.817640	0.547306
	N272	N	0.188395	0.463340	0.926711
	N273	N	0.188789	0.532905	0.100922
	N274	N	0.828658	0.461717	0.099256
	N275	N	0.828682	0.533086	0.926277
	O276	O	0.186971	0.785822	0.002791
	H277	H	0.190614	0.792955	0.000274
	H278	H	0.190581	0.775447	-0.006437
	O279	O	0.479102	0.426816	0.365972
	H280	H	0.479187	0.437787	0.362186
	H281	H	0.465719	0.432485	0.361558
	O282	O	1.221685	0.067469	1.189715
	H283	H	1.207643	0.089844	1.178720
	H284	H	1.249988	0.076784	1.210532
	O285	O	0.559695	0.430884	0.677382
	H286	H	0.560292	0.412554	0.685434
	H287	H	0.545000	0.433138	0.661460
	O288	O	0.502664	0.655510	0.417105
	H289	H	0.511542	0.648985	0.424131
	H290	H	0.499602	0.658135	0.433277
	O291	O	0.357773	0.293745	0.682386
	H292	H	0.379238	0.299990	0.691136
	H293	H	0.338745	0.273706	0.697819
	O294	O	0.799086	-0.029137	1.220470
	H295	H	0.815093	-0.019922	1.216101
	H296	H	0.778237	-0.034571	1.240665
	O297	O	0.473742	0.625267	0.484314
	H298	H	0.480081	0.621155	0.490647
	H299	H	0.469469	0.624738	0.492874
	O300	O	0.035131	0.054276	0.826587
	H301	H	0.025901	0.035874	0.828240
	H302	H	0.017588	0.066408	0.820772
	O303	O	0.701235	0.581447	0.500714
	H304	H	0.697270	0.583933	0.502617
	H305	H	0.693564	0.586087	0.502445
	O306	O	0.323192	0.380047	0.358778
	H307	H	0.324130	0.380026	0.370828
	H308	H	0.320896	0.399732	0.354505
	O309	O	0.648277	0.345529	0.526890
	H310	H	0.644899	0.351585	0.520397
	H311	H	0.653022	0.336811	0.516907
	O312	O	0.496633	0.386471	0.465572
	H313	H	0.483199	0.376646	0.453775
	H314	H	0.501727	0.390569	0.473419
	O315	O	1.203322	1.078817	0.884314
	H316	H	1.200275	1.061078	0.913270
	H317	H	1.185180	1.069751	0.883137
	O318	O	0.468773	0.370431	0.587319
	H319	H	0.472694	0.376790	0.577675
	H320	H	0.479150	0.370423	0.587036
	O321	O	0.309063	0.657954	0.600302
	H322	H	0.294766	0.655621	0.611689
	H323	H	0.310659	0.666635	0.626434
	O324	O	1.070371	0.774923	0.098893
	H325	H	1.061081	0.774899	0.084548
	H326	H	1.083070	0.778392	0.104798
	O327	O	-0.020552	-0.007633	0.907669
	H328	H	-0.018117	-0.003049	0.910391
	H329	H	-0.021072	-0.007438	0.904381
	O330	O	0.728575	0.717011	0.539961
	H331	H	0.722330	0.722570	0.563444
	H332	H	0.743134	0.739234	0.541499
	O333	O	0.713878	0.477267	0.674017
	H334	H	0.713006	0.482157	0.659132
	H335	H	0.701780	0.472031	0.678679
	O336	O	0.709929	0.299830	0.312193
	H337	H	0.671202	0.301604	0.314290
	H338	H	0.733787	0.293348	0.285787
	O339	O	0.824240	0.130987	1.047514
	H340	H	0.824162	0.138666	1.035976
	H341	H	0.820160	0.131087	1.048662
	O342	O	0.048211	-0.053701	0.200384
	H343	H	0.050028	-0.063630	0.192283
	H344	H	0.060046	-0.047566	0.204426
	O345	O	-0.201934	1.030887	0.803301
	H346	H	-0.204785	1.033874	0.803221
	H347	H	-0.212826	1.022624	0.800642
	O348	O	-0.044549	-0.041962	-0.170811
	H349	H	-0.057685	-0.059515	-0.178755
	H350	H	-0.053124	-0.053963	-0.174375
	O351	O	0.673826	0.545906	0.507367
	H352	H	0.671767	0.528565	0.488707
	H353	H	0.672426	0.574966	0.506740
	O354	O	0.025686	0.189352	1.232758
	H355	H	0.017674	0.200679	1.214522
	H356	H	0.023577	0.213519	1.244785
	O357	O	0.280537	0.355144	0.395820
	H358	H	0.276237	0.362528	0.393759
	H359	H	0.269537	0.351640	0.392127
	O360	O	0.286884	0.471086	0.736244
	H361	H	0.284377	0.452499	0.735954
	H362	H	0.266616	0.464077	0.750681
	O363	O	0.035486	0.136634	-0.040159
	H364	H	0.016787	0.129883	-0.043146
	H365	H	0.033983	0.127386	-0.041604
	O366	O	0.538297	0.711867	0.726392
	H367	H	0.527692	0.725019	0.743712
	H368	H	0.516196	0.690892	0.733868
	O369	O	0.794291	-0.214237	0.046503
	H370	H	0.789631	-0.215943	0.077621
	H371	H	0.785207	-0.230803	0.067542
	O372	O	0.993568	1.158421	0.093218
	H373	H	1.003828	1.156547	0.078344
	H374	H	0.992828	1.157722	0.070252
	O375	O	0.949347	-0.012328	0.179272
	H376	H	0.964280	-0.036056	0.189097
	H377	H	0.956188	0.009412	0.186143
	O378	O	0.362739	0.412055	0.391524
	H379	H	0.356434	0.422630	0.395136
	H380	H	0.367833	0.419982	0.380615
	O381	O	0.045889	0.789399	0.802955
	H382	H	0.037126	0.773543	0.786200
	H383	H	0.026224	0.783121	0.824326
	O384	O	0.659589	0.341357	0.715536
	H385	H	0.654421	0.359842	0.719327
	H386	H	0.649650	0.342593	0.692313
	O387	O	0.717923	0.709090	-0.274906
	H388	H	0.679554	0.698242	-0.275048
	H389	H	0.713430	0.684653	-0.288715
	O390	O	0.533742	0.283255	0.291142
	H391	H	0.524638	0.286723	0.309988
	H392	H	0.533039	0.262190	0.273527
	O393	O	0.611122	0.545454	0.730775
	H394	H	0.618982	0.529265	0.735593
	H395	H	0.598331	0.531191	0.737576
	O396	O	-0.169778	0.818916	0.829200
	H397	H	-0.165856	0.827388	0.853278
	H398	H	-0.199363	0.789576	0.803209
	O399	O	-0.076372	-0.191014	0.951463
	H400	H	-0.074522	-0.184509	0.953995
	H401	H	-0.100831	-0.200295	0.965641
	O402	O	0.288902	0.682552	0.494936
	H403	H	0.272031	0.698481	0.499808
	H404	H	0.297554	0.674251	0.478654
	O405	O	0.983374	0.217669	0.801406
	H406	H	0.973213	0.228684	0.782121
	H407	H	0.958576	0.216391	0.799602
	O408	O	-0.164668	0.147044	0.180750
	H409	H	-0.148751	0.133905	0.167069
	H410	H	-0.154077	0.118720	0.181307
	O411	O	0.484653	0.530729	0.651511
	H412	H	0.481248	0.520044	0.652389
	H413	H	0.486440	0.517199	0.641934
	O414	O	0.283955	0.275479	0.547491
	H415	H	0.253871	0.244823	0.548512
	H416	H	0.287561	0.289861	0.567363
	O417	O	0.360786	0.487093	0.318781
	H418	H	0.356420	0.482592	0.316752
	H419	H	0.369521	0.504498	0.327477
	O420	O	0.375238	0.550873	0.535690
	H421	H	0.369957	0.551335	0.537676
	H422	H	0.372859	0.562235	0.539203
	O423	O	0.471034	0.274993	0.736167
	H424	H	0.469155	0.252093	0.758373
	H425	H	0.479254	0.266974	0.720257
	O426	O	0.533540	0.516382	0.280860
	H427	H	0.538178	0.506521	0.276016
	H428	H	0.534812	0.501413	0.282679
	O429	O	1.124313	1.235756	0.875903
	H430	H	1.135397	1.241745	0.874784
	H431	H	1.114234	1.234203	0.841338
	O432	O	0.364067	0.687402	0.660344
	H433	H	0.354219	0.667889	0.662053
	H434	H	0.353832	0.691872	0.672280
	O435	O	-0.029381	0.784791	0.226666
	H436	H	-0.030486	0.790745	0.212507
	H437	H	-0.026575	0.765452	0.251940
	O438	O	0.155170	-0.021263	-0.044403
	H439	H	0.146361	-0.030273	-0.039873
	H440	H	0.156168	-0.022656	-0.052947
	O441	O	0.199214	0.186281	0.018514
	H442	H	0.209407	0.197183	0.000107
	H443	H	0.189337	0.172417	0.026464
	O444	O	0.137810	0.173126	0.172178
	H445	H	0.105280	0.174651	0.171951
	H446	H	0.158891	0.185347	0.165071
	O447	O	0.224300	0.959785	0.799355
	H448	H	0.246575	0.967405	0.785144
	H449	H	0.213158	0.948356	0.797970
	O450	O	-0.198161	1.160873	0.928745
	H451	H	-0.204074	1.169806	0.940707
	H452	H	-0.193617	1.158390	0.918596
	O453	O	0.513339	0.510744	0.536912
	H454	H	0.499873	0.496606	0.534039
	H455	H	0.514299	0.515522	0.527914
	O456	O	0.201621	-0.167405	1.168044
	H457	H	0.202521	-0.150463	1.147598
	H458	H	0.198438	-0.168939	1.175901
	O459	O	0.800686	0.791936	0.219779
	H460	H	0.785269	0.805561	0.233429
	H461	H	0.816500	0.774070	0.238269
	O462	O	0.725483	0.470447	0.291189
	H463	H	0.748250	0.468515	0.272999
	H464	H	0.723898	0.458391	0.298752
	O465	O	0.815640	-0.033272	0.034570
	H466	H	0.815914	-0.024382	0.031452
	H467	H	0.812623	-0.050136	0.035281
	O468	O	0.214878	0.957238	0.111212
	H469	H	0.202682	0.963705	0.116385
	H470	H	0.218137	0.946054	0.128918
	O471	O	0.704875	0.315048	0.472867
	H472	H	0.694261	0.317123	0.433787
	H473	H	0.738405	0.288920	0.465507
	O474	O	-0.231182	1.240356	-0.211327
	H475	H	-0.248019	1.246028	-0.233708
	H476	H	-0.234561	1.217742	-0.202720
	O477	O	0.482116	0.706352	1.300685
	H478	H	0.483840	0.715085	1.299725
	H479	H	0.479668	0.706305	1.296626
	O480	O	0.696324	0.685220	0.323869
	H481	H	0.676399	0.674091	0.327421
	H482	H	0.681918	0.673778	0.352185
	O483	O	0.303331	0.707192	0.305415
	H484	H	0.298985	0.706111	0.301729
	H485	H	0.316161	0.698482	0.308860
	O486	O	1.023828	-0.005054	1.025090
	H487	H	1.031211	-0.003089	1.015020
	H488	H	1.008765	0.000387	1.020532
	O489	O	1.195141	0.806098	-0.178189
	H490	H	1.186550	0.807477	-0.150710
	H491	H	1.164129	0.818978	-0.176704
