data_Molecule from HDF5

_cell_length_a		16.070026
_cell_length_b		16.506084
_cell_length_c		16.099621
_cell_angle_alpha	90.188901
_cell_angle_beta	89.593551
_cell_angle_gamma	89.840856
_symmetry_space_group_name_H-M	'P 1'
_symmetry_Int_Tables_number		1

loop_
	_symmetry_equiv_pos_as_xyz
	x,y,z

loop_
	_atom_site_label
	_atom_site_type_symbol
	_atom_site_fract_x
	_atom_site_fract_y
	_atom_site_fract_z
	H0	H	0.402617	0.829811	0.710353
	H1	H	0.604529	0.151596	0.710634
	H2	H	0.604205	0.830062	0.274878
	H3	H	0.404623	0.153459	0.277729
	H4	H	0.721052	0.389994	0.828231
	H5	H	0.714599	0.586731	0.158560
	H6	H	0.293859	0.586444	0.826246
	H7	H	0.291779	0.396522	0.159154
	H8	H	0.840429	0.707373	0.389339
	H9	H	0.165952	0.709384	0.596650
	H10	H	0.839975	0.272480	0.597147
	H11	H	0.167487	0.271090	0.386375
	H12	H	0.839382	0.392408	0.708300
	H13	H	0.171112	0.585665	0.702108
	H14	H	0.837504	0.584147	0.283262
	H15	H	0.170707	0.392437	0.280207
	H16	H	0.402007	0.706269	0.827563
	H17	H	0.607374	0.709978	0.153911
	H18	H	0.611979	0.270266	0.830674
	H19	H	0.397695	0.272132	0.155825
	H20	H	0.720867	0.829618	0.391100
	H21	H	0.719644	0.152265	0.591656
	H22	H	0.287053	0.829367	0.592663
	H23	H	0.287989	0.152949	0.396117
	H24	H	0.904804	0.327776	0.209768
	H25	H	0.102932	0.651633	0.209122
	H26	H	0.107815	0.328699	0.773815
	H27	H	0.905098	0.651076	0.777214
	H28	H	0.217693	0.892117	0.327126
	H29	H	0.213758	0.087120	0.657927
	H30	H	0.793076	0.085467	0.325423
	H31	H	0.788245	0.894300	0.657354
	H32	H	0.341417	0.209398	0.890376
	H33	H	0.668211	0.208038	0.096664
	H34	H	0.339806	0.774208	0.095353
	H35	H	0.665900	0.769732	0.884155
	H36	H	0.337184	0.897049	0.203226
	H37	H	0.671138	0.084628	0.201789
	H38	H	0.337301	0.087801	0.783827
	H39	H	0.669785	0.892886	0.778139
	H40	H	0.900528	0.207593	0.328234
	H41	H	0.108245	0.209473	0.654134
	H42	H	0.107959	0.771671	0.328849
	H43	H	0.895358	0.771920	0.655160
	H44	H	0.222856	0.328206	0.892836
	H45	H	0.216474	0.653060	0.089417
	H46	H	0.786407	0.328922	0.094470
	H47	H	0.789570	0.651223	0.895104
	H48	H	0.404749	0.107548	0.587550
	H49	H	0.590092	0.873733	0.599869
	H50	H	0.592371	0.103918	0.402554
	H51	H	0.407956	0.876342	0.400484
	H52	H	0.589670	0.393893	0.110260
	H53	H	0.597737	0.587879	0.872332
	H54	H	0.413814	0.586725	0.109840
	H55	H	0.416283	0.389978	0.873695
	H56	H	0.123013	0.589306	0.405796
	H57	H	0.887084	0.588049	0.576027
	H58	H	0.118287	0.399870	0.573834
	H59	H	0.888677	0.401761	0.406204
	H60	H	0.122090	0.400605	0.586716
	H61	H	0.888815	0.572704	0.583130
	H62	H	0.118521	0.576941	0.407172
	H63	H	0.883814	0.396838	0.395908
	H64	H	0.409617	0.586984	0.110426
	H65	H	0.600545	0.578026	0.873711
	H66	H	0.597989	0.397031	0.111649
	H67	H	0.409867	0.401657	0.875100
	H68	H	0.604900	0.106442	0.400352
	H69	H	0.585471	0.882873	0.573196
	H70	H	0.413014	0.105020	0.590826
	H71	H	0.410779	0.875207	0.394372
	H72	H	0.905173	0.605542	0.085911
	H73	H	0.100941	0.373633	0.087228
	H74	H	0.101287	0.603880	0.903314
	H75	H	0.924936	0.378719	0.900225
	H76	H	0.089311	0.898374	0.609062
	H77	H	0.095895	0.092390	0.371015
	H78	H	0.917783	0.083323	0.607392
	H79	H	0.915597	0.892962	0.373686
	H80	H	0.619737	0.080207	0.906318
	H81	H	0.383736	0.083827	0.092334
	H82	H	0.622739	0.891932	0.077000
	H83	H	0.386842	0.897609	0.905371
	H84	H	0.619486	0.902094	0.078717
	H85	H	0.385414	0.092587	0.078892
	H86	H	0.622062	0.078714	0.898098
	H87	H	0.385921	0.898315	0.901687
	H88	H	0.910831	0.088880	0.610527
	H89	H	0.102962	0.073679	0.374467
	H90	H	0.093106	0.893009	0.611225
	H91	H	0.911825	0.896964	0.373934
	H92	H	0.103321	0.607182	0.893495
	H93	H	0.095963	0.375845	0.086260
	H94	H	0.912239	0.604888	0.093268
	H95	H	0.909181	0.377197	0.911202
	H96	H	0.411580	0.103146	0.581854
	H97	H	0.610045	0.873013	0.579922
	H98	H	0.596008	0.108048	0.391439
	H99	H	0.414517	0.877700	0.398850
	H100	H	0.591288	0.402729	0.108370
	H101	H	0.590133	0.582033	0.875826
	H102	H	0.412284	0.583212	0.109804
	H103	H	0.423107	0.400629	0.878386
	H104	H	0.123517	0.581100	0.395309
	H105	H	0.882420	0.585465	0.592411
	H106	H	0.124231	0.389191	0.579718
	H107	H	0.885493	0.389951	0.406300
	H108	H	0.915249	0.602176	0.084190
	H109	H	0.100309	0.376227	0.082362
	H110	H	0.094070	0.603024	0.896560
	H111	H	0.909208	0.371567	0.893204
	H112	H	0.096433	0.898871	0.609811
	H113	H	0.083694	0.077811	0.378884
	H114	H	0.909054	0.080157	0.609572
	H115	H	0.916736	0.898076	0.376163
	H116	H	0.623307	0.086619	0.901750
	H117	H	0.389648	0.077808	0.078801
	H118	H	0.624165	0.896066	0.086621
	H119	H	0.384869	0.894977	0.903178
	C120	C	0.380253	-0.000866	0.615987
	C121	C	0.625282	0.982690	0.614254
	C122	C	0.627112	-0.000531	0.368654
	C123	C	0.381112	0.983127	0.369758
	C124	C	0.625522	0.368115	0.002139
	C125	C	0.625262	0.611807	0.982902
	C126	C	0.383177	0.612912	0.000840
	C127	C	0.384845	0.369628	0.984324
	C128	C	0.012609	0.610739	0.372656
	C129	C	0.994990	0.611199	0.613338
	C130	C	0.012787	0.367898	0.612183
	C131	C	0.995080	0.367397	0.371663
	C132	C	0.881651	0.497901	0.116437
	C133	C	0.126685	0.482125	0.114383
	C134	C	0.129434	0.498150	0.868627
	C135	C	0.883867	0.481757	0.871667
	C136	C	0.124290	0.867853	0.501464
	C137	C	0.123888	0.110840	0.483328
	C138	C	0.883036	0.111996	0.500365
	C139	C	0.882912	0.868657	0.483396
	C140	C	0.512996	0.111948	0.872472
	C141	C	0.495609	0.112774	0.113180
	C142	C	0.512982	0.869178	0.111681
	C143	C	0.494784	0.868514	0.871390
	C144	C	0.382370	0.877881	0.671961
	C145	C	0.624222	0.103583	0.671532
	C146	C	0.624710	0.878127	0.312750
	C147	C	0.383872	0.104938	0.315488
	C148	C	0.683348	0.369588	0.877889
	C149	C	0.678656	0.608237	0.108175
	C150	C	0.329877	0.608231	0.876034
	C151	C	0.328571	0.374364	0.109188
	C152	C	0.889032	0.667422	0.371931
	C153	C	0.117929	0.669123	0.614182
	C154	C	0.888976	0.311831	0.614515
	C155	C	0.118716	0.310226	0.369211
	C156	C	0.888593	0.371239	0.669898
	C157	C	0.120484	0.607599	0.666578
	C158	C	0.887516	0.606295	0.318962
	C159	C	0.120228	0.370452	0.316040
	C160	C	0.383700	0.667870	0.876759
	C161	C	0.625317	0.669643	0.105965
	C162	C	0.629352	0.309712	0.879278
	C163	C	0.381638	0.312807	0.107715
	C164	C	0.682599	0.878000	0.370670
	C165	C	0.681640	0.103857	0.612372
	C166	C	0.324900	0.877750	0.613283
	C167	C	0.325817	0.104719	0.374223
	C168	C	0.884088	0.376441	0.171897
	C169	C	0.123721	0.603367	0.170875
	C170	C	0.127942	0.376744	0.812487
	C171	C	0.885345	0.603088	0.815869
	C172	C	0.181058	0.870636	0.377032
	C173	C	0.177986	0.108484	0.607987
	C174	C	0.828777	0.107861	0.375462
	C175	C	0.825755	0.872548	0.607743
	C176	C	0.389945	0.169610	0.872454
	C177	C	0.619279	0.168759	0.114154
	C178	C	0.388726	0.813616	0.113110
	C179	C	0.618110	0.810941	0.868082
	C180	C	0.387521	0.874322	0.166921
	C181	C	0.620906	0.107542	0.166642
	C182	C	0.387823	0.109183	0.818965
	C183	C	0.619584	0.871663	0.814884
	C184	C	0.882427	0.168324	0.376902
	C185	C	0.125342	0.169193	0.605893
	C186	C	0.125986	0.810968	0.377828
	C187	C	0.879142	0.811849	0.606568
	C188	C	0.185186	0.376654	0.871493
	C189	C	0.180022	0.604332	0.111151
	C190	C	0.825260	0.376792	0.114403
	C191	C	0.827648	0.603042	0.874458
	C192	C	0.403086	0.083380	0.593340
	C193	C	0.602018	0.898456	0.591011
	C194	C	0.604540	0.084263	0.391455
	C195	C	0.404090	0.898555	0.391548
	C196	C	0.600364	0.391242	0.087902
	C197	C	0.602783	0.589175	0.896536
	C198	C	0.405394	0.591776	0.087582
	C199	C	0.409409	0.390928	0.898259
	C200	C	0.099232	0.588866	0.396001
	C201	C	0.908592	0.588591	0.590365
	C202	C	0.099051	0.389983	0.587401
	C203	C	0.908496	0.389708	0.395759
	C204	C	0.904218	0.582546	0.094153
	C205	C	0.105242	0.397236	0.091875
	C206	C	0.106414	0.582663	0.891065
	C207	C	0.907501	0.397530	0.894647
	C208	C	0.100169	0.890219	0.587655
	C209	C	0.100783	0.087888	0.397130
	C210	C	0.905805	0.090259	0.586869
	C211	C	0.907523	0.889742	0.397032
	C212	C	0.599469	0.088776	0.895429
	C213	C	0.408855	0.091115	0.090035
	C214	C	0.599586	0.890437	0.087764
	C215	C	0.408239	0.890587	0.896238
	Zn216	Zn	0.503279	-0.009147	0.745352
	Zn217	Zn	0.504577	-0.008677	0.239677
	Zn218	Zn	0.752637	0.489634	-0.007089
	Zn219	Zn	0.257117	0.491121	-0.007551
	Zn220	Zn	0.002969	0.739542	0.493053
	Zn221	Zn	0.004085	0.239342	0.491321
	Zn222	Zn	0.005075	0.489797	0.740418
	Zn223	Zn	0.004657	0.489111	0.245337
	Zn224	Zn	0.503562	0.740290	-0.008962
	Zn225	Zn	0.505215	0.240081	-0.006905
	Zn226	Zn	0.755706	-0.009343	0.491708
	Zn227	Zn	0.251126	-0.009218	0.492899
	N228	N	0.415764	0.954405	0.673995
	N229	N	0.590033	0.027350	0.672924
	N230	N	0.590879	0.954763	0.311528
	N231	N	0.417454	0.028216	0.312490
	N232	N	0.681250	0.405108	0.955187
	N233	N	0.678626	0.572862	0.030689
	N234	N	0.329295	0.574856	0.954118
	N235	N	0.330457	0.409172	0.031498
	N236	N	0.967920	0.670280	0.404627
	N237	N	0.038800	0.671725	0.582027
	N238	N	0.967137	0.309704	0.579226
	N239	N	0.039863	0.308158	0.403051
	N240	N	0.966570	0.405426	0.668591
	N241	N	0.042907	0.572413	0.666517
	N242	N	0.965512	0.571555	0.319267
	N243	N	0.042357	0.405282	0.317175
	N244	N	0.416466	0.670742	0.955431
	N245	N	0.592999	0.672129	0.027163
	N246	N	0.594100	0.308659	0.957478
	N247	N	0.415859	0.309509	0.029229
	N248	N	0.684169	0.954281	0.404712
	N249	N	0.682419	0.027719	0.577345
	N250	N	0.323299	0.954103	0.579279
	N251	N	0.323884	0.027974	0.407117
	N252	N	0.918232	0.452705	0.173303
	N253	N	0.091440	0.526329	0.173045
	N254	N	0.093960	0.453221	0.810385
	N255	N	0.919545	0.526612	0.814101
	N256	N	0.180198	0.905402	0.454824
	N257	N	0.177299	0.072882	0.530688
	N258	N	0.828931	0.073515	0.453265
	N259	N	0.827806	0.907255	0.530344
	N260	N	0.468885	0.171519	0.904681
	N261	N	0.540282	0.172137	0.081814
	N262	N	0.467775	0.810020	0.079797
	N263	N	0.539475	0.808636	0.902249
	N264	N	0.465576	0.908230	0.166323
	N265	N	0.542851	0.073494	0.166462
	N266	N	0.465358	0.073800	0.818893
	N267	N	0.541867	0.906891	0.817022
	N268	N	0.915285	0.170937	0.455571
	N269	N	0.092554	0.170729	0.527303
	N270	N	0.091643	0.808933	0.456169
	N271	N	0.914155	0.809433	0.528322
	N272	N	0.186141	0.453075	0.905673
	N273	N	0.182118	0.527933	0.076787
	N274	N	0.823604	0.453315	0.080509
	N275	N	0.826624	0.526678	0.908368
	O276	O	0.934448	-0.097897	1.069157
	H277	H	0.930407	-0.090783	1.068972
	H278	H	0.931547	-0.096176	1.064143
	O279	O	0.579887	0.485826	0.571816
	H280	H	0.584649	0.489357	0.575495
	H281	H	0.572075	0.490969	0.568058
	O282	O	0.447812	0.520442	0.389657
	H283	H	0.451919	0.523005	0.399489
	H284	H	0.453114	0.516351	0.386905
	O285	O	0.515725	0.435427	0.427815
	H286	H	0.512519	0.444288	0.426728
	H287	H	0.515209	0.442772	0.434562
	O288	O	0.511695	0.393782	0.507764
	H289	H	0.509695	0.409009	0.492293
	H290	H	0.530631	0.387244	0.505092
	O291	O	0.066545	-0.127491	0.923108
	H292	H	0.064103	-0.135034	0.920116
	H293	H	0.062961	-0.123917	0.925921
	O294	O	1.032240	0.992579	0.121565
	H295	H	1.033915	1.001782	0.111916
	H296	H	1.043401	1.001559	0.132783
	O297	O	1.108656	1.048805	-0.087038
	H298	H	1.111146	1.042155	-0.114095
	H299	H	1.102932	1.050103	-0.088897
	O300	O	0.379537	0.563704	0.521379
	H301	H	0.378039	0.563906	0.527858
	H302	H	0.392391	0.574217	0.517902
	O303	O	0.143748	0.794151	0.862328
	H304	H	0.146180	0.792649	0.869911
	H305	H	0.145261	0.781767	0.858601
	O306	O	0.492060	0.637478	0.506268
	H307	H	0.481702	0.647065	0.494035
	H308	H	0.478577	0.637094	0.500357
	O309	O	0.380711	0.626252	0.402835
	H310	H	0.382285	0.623846	0.397400
	H311	H	0.362942	0.621716	0.408177
	O312	O	1.569024	1.427213	1.528864
	H313	H	1.578929	1.423247	1.529609
	H314	H	1.578045	1.427503	1.535134
	O315	O	1.393808	1.308176	-0.387836
	H316	H	1.397214	1.289443	-0.398974
	H317	H	1.388771	1.312213	-0.400277
	O318	O	-0.014977	1.102818	1.008819
	H319	H	-0.011493	1.102194	0.997185
	H320	H	-0.013918	1.101491	1.017131
	O321	O	0.598043	0.576902	0.588416
	H322	H	0.599917	0.592922	0.592408
	H323	H	0.589417	0.580837	0.580657
	O324	O	0.031783	0.962905	1.145612
	H325	H	0.029708	0.959927	1.145136
	H326	H	0.040722	0.962312	1.141787
	O327	O	0.005593	0.959679	0.997587
	H328	H	0.004714	0.966220	0.987867
	H329	H	-0.012931	0.949760	0.992398
	O330	O	-0.503848	0.406476	0.511229
	H331	H	-0.498664	0.424883	0.501083
	H332	H	-0.504450	0.406173	0.511719
	O333	O	0.501905	0.413841	0.448877
	H334	H	0.501167	0.420459	0.446977
	H335	H	0.498307	0.413071	0.452593
	O336	O	-0.483796	-0.595707	0.640869
	H337	H	-0.495779	-0.610086	0.648447
	H338	H	-0.480898	-0.592083	0.638650
	O339	O	-0.054348	0.157854	-0.066498
	H340	H	-0.057367	0.154940	-0.077650
	H341	H	-0.057197	0.163114	-0.081161
	O342	O	0.455372	0.482915	0.437877
	H343	H	0.465552	0.477692	0.424143
	H344	H	0.458909	0.472634	0.427264
	O345	O	-0.092004	0.991913	0.914249
	H346	H	-0.087966	0.993032	0.916337
	H347	H	-0.086931	0.988190	0.926651
	O348	O	0.376350	0.539348	0.416071
	H349	H	0.374448	0.530269	0.413129
	H350	H	0.375782	0.531413	0.412870
	O351	O	0.561692	0.428931	-0.559165
	H352	H	0.559670	0.425082	-0.548996
	H353	H	0.567953	0.431586	-0.557038
	O354	O	0.047766	1.101507	0.068794
	H355	H	0.054783	1.105325	0.074730
	H356	H	0.052683	1.100873	0.065268
	O357	O	0.515537	0.521281	0.390297
	H358	H	0.517215	0.514419	0.384871
	H359	H	0.521704	0.521417	0.390544
	O360	O	0.974367	-0.064141	0.989543
	H361	H	0.970531	-0.067203	0.976475
	H362	H	0.987246	-0.055559	0.996597
	O363	O	0.530709	0.472589	0.430065
	H364	H	0.551633	0.479577	0.435545
	H365	H	0.527137	0.463837	0.418346
	O366	O	0.517193	0.591062	0.512105
	H367	H	0.535502	0.586323	0.505401
	H368	H	0.494111	0.596722	0.511013
	O369	O	0.990875	-0.062160	-0.098339
	H370	H	0.986889	-0.065947	-0.094234
	H371	H	0.991626	-0.066933	-0.112869
	O372	O	0.390937	0.432570	0.590189
	H373	H	0.382204	0.417253	0.600103
	H374	H	0.395290	0.425812	0.592015
	O375	O	0.878102	-0.006202	0.962742
	H376	H	0.883456	-0.001595	0.963219
	H377	H	0.882614	-0.006505	0.953960
	O378	O	0.064403	1.103533	-0.049054
	H379	H	0.058701	1.096554	-0.053017
	H380	H	0.075957	1.108476	-0.046181
	O381	O	-0.091983	1.020841	0.972807
	H382	H	-0.097013	1.023256	0.979240
	H383	H	-0.084441	1.013835	0.973410
	O384	O	1.071776	1.000740	0.056659
	H385	H	1.079783	1.006856	0.070173
	H386	H	1.062008	0.998501	0.057814
	O387	O	0.899787	-0.144047	1.085976
	H388	H	0.900009	-0.142209	1.081398
	H389	H	0.891376	-0.139320	1.088533
	O390	O	1.148147	0.937102	-0.063002
	H391	H	1.145362	0.923615	-0.078059
	H392	H	1.146760	0.931533	-0.053150
	O393	O	0.652218	0.538695	0.510340
	H394	H	0.656530	0.541180	0.509766
	H395	H	0.655928	0.543970	0.516511
