data_Molecule from HDF5

_cell_length_a		16.317855
_cell_length_b		16.095583
_cell_length_c		16.141479
_cell_angle_alpha	90.457271
_cell_angle_beta	89.394728
_cell_angle_gamma	89.226791
_symmetry_space_group_name_H-M	'P 1'
_symmetry_Int_Tables_number		1

loop_
	_symmetry_equiv_pos_as_xyz
	x,y,z

loop_
	_atom_site_label
	_atom_site_type_symbol
	_atom_site_fract_x
	_atom_site_fract_y
	_atom_site_fract_z
	H0	H	0.398499	0.841086	0.725737
	H1	H	0.586532	0.173099	0.724379
	H2	H	0.597007	0.842055	0.296425
	H3	H	0.397092	0.174257	0.303756
	H4	H	0.715974	0.402405	0.848562
	H5	H	0.709789	0.607289	0.176515
	H6	H	0.284346	0.607896	0.846385
	H7	H	0.282070	0.410751	0.175724
	H8	H	0.832120	0.723036	0.417233
	H9	H	0.159850	0.721644	0.609930
	H10	H	0.831108	0.298645	0.611035
	H11	H	0.158978	0.289302	0.409969
	H12	H	0.834258	0.411147	0.730821
	H13	H	0.160435	0.606507	0.725878
	H14	H	0.832598	0.608515	0.298814
	H15	H	0.160058	0.406337	0.295181
	H16	H	0.402052	0.719329	0.845914
	H17	H	0.591477	0.720880	0.176857
	H18	H	0.597951	0.290819	0.848067
	H19	H	0.401416	0.300940	0.178855
	H20	H	0.714911	0.843605	0.408259
	H21	H	0.705536	0.173168	0.612832
	H22	H	0.281718	0.841849	0.612428
	H23	H	0.278498	0.171885	0.415482
	H24	H	0.900424	0.341315	0.224383
	H25	H	0.090563	0.673365	0.224659
	H26	H	0.099927	0.342636	0.795471
	H27	H	0.899370	0.673859	0.804377
	H28	H	0.215453	0.902854	0.349011
	H29	H	0.206004	0.107990	0.677709
	H30	H	0.781402	0.108181	0.346156
	H31	H	0.779503	0.910398	0.675585
	H32	H	0.333200	0.224651	0.918775
	H33	H	0.662234	0.217323	0.108044
	H34	H	0.332349	0.796189	0.110994
	H35	H	0.659938	0.790235	0.909948
	H36	H	0.332551	0.911452	0.228525
	H37	H	0.660451	0.103200	0.225145
	H38	H	0.331472	0.107833	0.802457
	H39	H	0.658946	0.904383	0.793480
	H40	H	0.899223	0.219776	0.345565
	H41	H	0.086604	0.219703	0.678242
	H42	H	0.096512	0.791720	0.347526
	H43	H	0.897647	0.799270	0.677647
	H44	H	0.216102	0.343151	0.908482
	H45	H	0.207458	0.673928	0.110915
	H46	H	0.784189	0.341838	0.112169
	H47	H	0.778833	0.670107	0.913425
	H48	H	0.395456	0.128369	0.614970
	H49	H	0.584688	0.888708	0.607199
	H50	H	0.580763	0.126051	0.413056
	H51	H	0.399381	0.888104	0.423057
	H52	H	0.591584	0.412607	0.132135
	H53	H	0.593158	0.589069	0.895133
	H54	H	0.387750	0.591463	0.130386
	H55	H	0.412072	0.417700	0.895676
	H56	H	0.113201	0.596978	0.414792
	H57	H	0.877877	0.600061	0.615993
	H58	H	0.109197	0.423044	0.597105
	H59	H	0.878763	0.410197	0.422185
	H60	H	0.116463	0.412724	0.613602
	H61	H	0.878025	0.611785	0.608774
	H62	H	0.113531	0.601180	0.418518
	H63	H	0.880720	0.421352	0.419304
	H64	H	0.415746	0.594427	0.123477
	H65	H	0.584978	0.599967	0.895124
	H66	H	0.593879	0.413916	0.131691
	H67	H	0.407490	0.408414	0.891252
	H68	H	0.586926	0.123507	0.429441
	H69	H	0.588851	0.891172	0.595151
	H70	H	0.407646	0.123021	0.608129
	H71	H	0.406000	0.887126	0.413461
	H72	H	0.886854	0.629175	0.102864
	H73	H	0.091292	0.389993	0.100162
	H74	H	0.091201	0.628462	0.914532
	H75	H	0.907323	0.388060	0.920545
	H76	H	0.094713	0.915799	0.632339
	H77	H	0.080523	0.095545	0.397584
	H78	H	0.899809	0.103105	0.629177
	H79	H	0.904546	0.905048	0.390369
	H80	H	0.612245	0.100628	0.923301
	H81	H	0.378308	0.100483	0.116414
	H82	H	0.609379	0.924078	0.103642
	H83	H	0.377731	0.907780	0.922916
	H84	H	0.616614	0.909691	0.112088
	H85	H	0.376934	0.114450	0.109595
	H86	H	0.612247	0.091742	0.914860
	H87	H	0.382476	0.921360	0.924036
	H88	H	0.896510	0.106084	0.630726
	H89	H	0.092365	0.103873	0.390989
	H90	H	0.086578	0.920332	0.628649
	H91	H	0.895786	0.921398	0.392561
	H92	H	0.087092	0.625006	0.921351
	H93	H	0.096433	0.387960	0.101190
	H94	H	0.907868	0.627425	0.118834
	H95	H	0.907928	0.388512	0.919680
	H96	H	0.394065	0.125354	0.599973
	H97	H	0.597500	0.885856	0.603325
	H98	H	0.597109	0.129743	0.416619
	H99	H	0.410915	0.891458	0.423157
	H100	H	0.591931	0.414809	0.131543
	H101	H	0.597385	0.601016	0.890276
	H102	H	0.400265	0.617643	0.135096
	H103	H	0.400774	0.417787	0.892534
	H104	H	0.111526	0.595528	0.419625
	H105	H	0.882728	0.599835	0.603804
	H106	H	0.113492	0.402975	0.595919
	H107	H	0.876124	0.413856	0.411068
	H108	H	0.910301	0.619599	0.092541
	H109	H	0.092036	0.388646	0.105333
	H110	H	0.094782	0.627230	0.922193
	H111	H	0.908433	0.388610	0.920393
	H112	H	0.085654	0.909955	0.631532
	H113	H	0.094435	0.089526	0.395879
	H114	H	0.895547	0.101467	0.630526
	H115	H	0.913418	0.920102	0.396701
	H116	H	0.614752	0.103299	0.911181
	H117	H	0.382998	0.102182	0.101477
	H118	H	0.611921	0.907676	0.094800
	H119	H	0.377627	0.915298	0.911339
	C120	C	0.372418	0.015905	0.635405
	C121	C	0.616246	0.998434	0.631900
	C122	C	0.618263	0.016748	0.389676
	C123	C	0.375376	0.998698	0.392162
	C124	C	0.621265	0.383912	0.022249
	C125	C	0.618433	0.626770	1.002987
	C126	C	0.374554	0.629773	0.020337
	C127	C	0.377683	0.387604	1.002920
	C128	C	0.004785	0.628565	0.390316
	C129	C	0.988128	0.631297	0.635839
	C130	C	0.004823	0.386632	0.632760
	C131	C	0.987038	0.384383	0.388054
	C132	C	0.874742	0.515795	0.133380
	C133	C	0.118652	0.498702	0.131687
	C134	C	0.120892	0.517271	0.889144
	C135	C	0.877633	0.497691	0.891992
	C136	C	0.118365	0.885117	0.521856
	C137	C	0.115693	0.127264	0.503786
	C138	C	0.871417	0.130979	0.520301
	C139	C	0.875329	0.887747	0.502565
	C140	C	0.504756	0.129018	0.890418
	C141	C	0.488386	0.130974	0.135403
	C142	C	0.504682	0.886363	0.133379
	C143	C	0.487280	0.884956	0.889300
	C144	C	0.377072	0.890805	0.688902
	C145	C	0.609384	0.123513	0.687355
	C146	C	0.617224	0.891866	0.333906
	C147	C	0.376887	0.123997	0.339684
	C148	C	0.677385	0.383759	0.897821
	C149	C	0.672175	0.626379	0.127285
	C150	C	0.321401	0.627808	0.895750
	C151	C	0.320845	0.390856	0.127085
	C152	C	0.881344	0.685309	0.395203
	C153	C	0.111009	0.684683	0.631374
	C154	C	0.880805	0.334724	0.631322
	C155	C	0.110070	0.327351	0.389577
	C156	C	0.882278	0.390778	0.690879
	C157	C	0.111336	0.627012	0.688776
	C158	C	0.881668	0.628465	0.336296
	C159	C	0.110538	0.385419	0.332418
	C160	C	0.380191	0.683030	0.895455
	C161	C	0.613466	0.683081	0.127476
	C162	C	0.618513	0.328547	0.897456
	C163	C	0.380274	0.336152	0.128573
	C164	C	0.675824	0.892493	0.389611
	C165	C	0.667992	0.123758	0.631085
	C166	C	0.319014	0.891124	0.632744
	C167	C	0.317938	0.122995	0.395341
	C168	C	0.879156	0.390971	0.187458
	C169	C	0.112379	0.623936	0.186916
	C170	C	0.119973	0.392372	0.833183
	C171	C	0.879189	0.623565	0.840321
	C172	C	0.176131	0.884181	0.398044
	C173	C	0.168684	0.127063	0.628352
	C174	C	0.818103	0.128324	0.395858
	C175	C	0.818448	0.890581	0.626708
	C176	C	0.381849	0.186215	0.896429
	C177	C	0.612607	0.182178	0.130304
	C178	C	0.381389	0.833086	0.131366
	C179	C	0.610906	0.828490	0.890020
	C180	C	0.381447	0.890344	0.190070
	C181	C	0.611789	0.125178	0.188219
	C182	C	0.381053	0.127853	0.838575
	C183	C	0.610328	0.885195	0.832267
	C184	C	0.876976	0.183890	0.395507
	C185	C	0.109290	0.182768	0.628610
	C186	C	0.117048	0.828925	0.397297
	C187	C	0.877178	0.835033	0.627664
	C188	C	0.177792	0.392646	0.889455
	C189	C	0.170644	0.624076	0.130436
	C190	C	0.821203	0.391234	0.131719
	C191	C	0.818952	0.621576	0.894217
	C192	C	0.392952	0.103117	0.614045
	C193	C	0.596345	0.911115	0.608747
	C194	C	0.594944	0.103956	0.412897
	C195	C	0.398493	0.911411	0.413583
	C196	C	0.598967	0.406943	0.109290
	C197	C	0.597832	0.603566	0.916076
	C198	C	0.394982	0.607664	0.107302
	C199	C	0.400135	0.408294	0.915734
	C200	C	0.090447	0.604948	0.411375
	C201	C	0.901969	0.610251	0.615403
	C202	C	0.090876	0.407069	0.609210
	C203	C	0.900953	0.408177	0.410635
	C204	C	0.895601	0.602853	0.111397
	C205	C	0.099129	0.411414	0.108936
	C206	C	0.097890	0.604309	0.912410
	C207	C	0.901117	0.410808	0.913669
	C208	C	0.095531	0.908580	0.608463
	C209	C	0.095281	0.103383	0.417208
	C210	C	0.891430	0.109950	0.607667
	C211	C	0.898082	0.909130	0.415689
	C212	C	0.590918	0.105459	0.910449
	C213	C	0.401987	0.111659	0.115165
	C214	C	0.590500	0.907471	0.110228
	C215	C	0.401533	0.907910	0.912577
	Zn216	Zn	0.495155	0.006111	0.761222
	Zn217	Zn	0.496259	0.008260	0.263246
	Zn218	Zn	0.748007	0.505504	0.012343
	Zn219	Zn	0.248083	0.508141	0.010783
	Zn220	Zn	-0.004107	0.758740	0.512723
	Zn221	Zn	-0.005141	0.256976	0.511329
	Zn222	Zn	-0.002083	0.508122	0.763497
	Zn223	Zn	-0.003685	0.506930	0.260306
	Zn224	Zn	0.496458	0.756280	0.010822
	Zn225	Zn	0.498346	0.258982	0.013162
	Zn226	Zn	0.745502	0.008292	0.511194
	Zn227	Zn	0.245910	0.006627	0.513333
	N228	N	0.409449	0.969250	0.690575
	N229	N	0.577997	0.044555	0.687960
	N230	N	0.582142	0.970125	0.333939
	N231	N	0.412171	0.045665	0.337812
	N232	N	0.679299	0.417484	0.976433
	N233	N	0.675355	0.592211	0.048784
	N234	N	0.317879	0.595313	0.974355
	N235	N	0.319182	0.422264	0.047994
	N236	N	0.958919	0.685580	0.428065
	N237	N	0.033338	0.687307	0.599259
	N238	N	0.957981	0.332230	0.595885
	N239	N	0.032227	0.326602	0.423434
	N240	N	0.960459	0.422175	0.692077
	N241	N	0.033778	0.594449	0.691826
	N242	N	0.959193	0.593662	0.333359
	N243	N	0.032984	0.419955	0.331244
	N244	N	0.412231	0.684635	0.974077
	N245	N	0.580830	0.683605	0.049163
	N246	N	0.584676	0.328341	0.975880
	N247	N	0.415023	0.334052	0.050453
	N248	N	0.676543	0.971289	0.423576
	N249	N	0.672186	0.045005	0.597357
	N250	N	0.315757	0.970024	0.600330
	N251	N	0.316680	0.043876	0.427137
	N252	N	0.911751	0.469408	0.188683
	N253	N	0.080785	0.545097	0.187791
	N254	N	0.084922	0.470721	0.833179
	N255	N	0.915012	0.545495	0.838868
	N256	N	0.177061	0.918515	0.476428
	N257	N	0.172628	0.093103	0.549756
	N258	N	0.814659	0.096031	0.474622
	N259	N	0.817038	0.922323	0.547870
	N260	N	0.459774	0.186952	0.927815
	N261	N	0.534931	0.185701	0.098066
	N262	N	0.458927	0.830552	0.096746
	N263	N	0.533560	0.828191	0.925052
	N264	N	0.459116	0.922633	0.191463
	N265	N	0.533632	0.094236	0.191734
	N266	N	0.458644	0.092985	0.834872
	N267	N	0.532614	0.919680	0.831741
	N268	N	0.909200	0.185932	0.473951
	N269	N	0.077057	0.183026	0.550116
	N270	N	0.082019	0.829187	0.475260
	N271	N	0.911723	0.832964	0.549386
	N272	N	0.178701	0.471368	0.923458
	N273	N	0.174647	0.545208	0.096725
	N274	N	0.818155	0.469872	0.098911
	N275	N	0.817863	0.542471	0.925477
	O276	O	-0.043265	0.095862	-0.031399
	H277	H	-0.041982	0.095046	-0.038549
	H278	H	-0.037557	0.091571	-0.028781
	O279	O	0.447746	0.563020	0.506836
	H280	H	0.455449	0.562368	0.501654
	H281	H	0.447428	0.562714	0.500855
	O282	O	0.519794	0.489788	0.574963
	H283	H	0.518818	0.482190	0.574491
	H284	H	0.525841	0.492818	0.580971
	O285	O	0.968066	0.009401	1.116728
	H286	H	0.963452	0.009073	1.111297
	H287	H	0.964263	0.019132	1.114580
	O288	O	0.941593	0.042523	-0.009232
	H289	H	0.947201	0.042450	-0.015081
	H290	H	0.934398	0.037435	-0.004167
	O291	O	0.522149	0.408016	0.415567
	H292	H	0.516923	0.412769	0.411474
	H293	H	0.519510	0.410815	0.418952
	O294	O	0.968745	-0.060330	0.935203
	H295	H	0.966327	-0.055049	0.943115
	H296	H	0.965007	-0.065579	0.935017
	O297	O	-0.029824	-0.034991	-0.000600
	H298	H	-0.027386	-0.033465	-0.002305
	H299	H	-0.021215	-0.030529	-0.002441
	O300	O	0.550547	0.454223	0.475516
	H301	H	0.544724	0.440672	0.476173
	H302	H	0.562225	0.455341	0.466266
	O303	O	0.401111	0.529778	0.520309
	H304	H	0.407983	0.535780	0.513961
	H305	H	0.403858	0.529790	0.528351
	O306	O	0.989821	0.102173	-0.029859
	H307	H	0.989767	0.104836	-0.028020
	H308	H	0.986418	0.098313	-0.030629
	O309	O	0.064928	-0.011497	1.011563
	H310	H	0.070945	-0.012420	1.017199
	H311	H	0.062420	-0.014982	1.017943
	O312	O	1.507022	0.475445	0.469942
	H313	H	1.507083	0.482026	0.461568
	H314	H	1.512899	0.478761	0.479013
	O315	O	0.887055	-0.092529	0.012401
	H316	H	0.893292	-0.098123	0.016049
	H317	H	0.882788	-0.086155	0.006535
	O318	O	0.488613	0.527534	0.517888
	H319	H	0.487911	0.532648	0.510898
	H320	H	0.485956	0.527269	0.525313
	O321	O	0.052468	1.038488	1.062658
	H322	H	0.056939	1.058195	1.067301
	H323	H	0.053648	1.041571	1.055365
	O324	O	1.058901	1.053555	0.066386
	H325	H	1.048863	1.050121	0.054040
	H326	H	1.058547	1.061862	0.066214
	O327	O	0.493242	0.538131	0.641039
	H328	H	0.490320	0.527799	0.647504
	H329	H	0.485929	0.530367	0.636817
	O330	O	0.949588	0.953440	0.045690
	H331	H	0.949279	0.947362	0.041389
	H332	H	0.942727	0.950796	0.049606
	O333	O	0.551789	0.516950	0.524555
	H334	H	0.546655	0.504946	0.527115
	H335	H	0.548863	0.535262	0.521602
	O336	O	0.445101	0.541382	0.536951
	H337	H	0.430886	0.545129	0.547616
	H338	H	0.447142	0.539061	0.534581
	O339	O	0.489295	0.490058	-0.535876
	H340	H	0.495480	0.483087	-0.540604
	H341	H	0.483590	0.486232	-0.536731
	O342	O	0.502944	0.523054	0.492624
	H343	H	0.503889	0.527495	0.486713
	H344	H	0.512539	0.520012	0.495485
	O345	O	0.459391	0.555096	0.430631
	H346	H	0.452960	0.554480	0.428129
	H347	H	0.458958	0.559260	0.437943
	O348	O	-0.030299	0.004582	0.002481
	H349	H	-0.036340	-0.007933	0.010616
	H350	H	-0.019036	0.005074	-0.006535
	O351	O	0.042136	0.981148	0.969396
	H352	H	0.048274	0.974096	0.954306
	H353	H	0.046281	0.979024	0.965970
	O354	O	0.570744	0.541503	0.498636
	H355	H	0.575801	0.541515	0.487178
	H356	H	0.574031	0.535994	0.501608
	O357	O	0.116677	0.949014	0.909875
	H358	H	0.126513	0.946594	0.915135
	H359	H	0.113127	0.947058	0.918554
