data_Molecule from HDF5

_cell_length_a		16.074934
_cell_length_b		16.389060
_cell_length_c		16.256228
_cell_angle_alpha	89.876522
_cell_angle_beta	89.983398
_cell_angle_gamma	90.255710
_symmetry_space_group_name_H-M	'P 1'
_symmetry_Int_Tables_number		1

loop_
	_symmetry_equiv_pos_as_xyz
	x,y,z

loop_
	_atom_site_label
	_atom_site_type_symbol
	_atom_site_fract_x
	_atom_site_fract_y
	_atom_site_fract_z
	H0	H	0.393072	0.843296	0.716520
	H1	H	0.595131	0.168327	0.715948
	H2	H	0.591342	0.843248	0.286482
	H3	H	0.394624	0.168532	0.283424
	H4	H	0.705690	0.412371	0.835919
	H5	H	0.705894	0.600542	0.165679
	H6	H	0.283635	0.600853	0.835731
	H7	H	0.282600	0.408451	0.165845
	H8	H	0.828048	0.718615	0.401745
	H9	H	0.158446	0.722036	0.601162
	H10	H	0.828621	0.290655	0.600489
	H11	H	0.158104	0.292832	0.400762
	H12	H	0.827270	0.407803	0.714283
	H13	H	0.159599	0.604096	0.713514
	H14	H	0.828441	0.603027	0.287923
	H15	H	0.158850	0.409536	0.289306
	H16	H	0.394579	0.722151	0.838221
	H17	H	0.596290	0.722395	0.163780
	H18	H	0.596735	0.290064	0.837676
	H19	H	0.392091	0.287630	0.162810
	H20	H	0.704977	0.842739	0.405251
	H21	H	0.707258	0.169414	0.596096
	H22	H	0.279321	0.842725	0.597508
	H23	H	0.282521	0.170152	0.403463
	H24	H	0.894195	0.344011	0.218012
	H25	H	0.095007	0.668744	0.215893
	H26	H	0.093643	0.343557	0.784866
	H27	H	0.896299	0.667965	0.785771
	H28	H	0.202828	0.913423	0.334553
	H29	H	0.206489	0.102743	0.665419
	H30	H	0.783496	0.100487	0.335183
	H31	H	0.781330	0.910925	0.665919
	H32	H	0.329294	0.220025	0.900492
	H33	H	0.658299	0.221322	0.099921
	H34	H	0.329591	0.790157	0.100810
	H35	H	0.659015	0.793466	0.901460
	H36	H	0.327643	0.909171	0.211102
	H37	H	0.659605	0.103036	0.212040
	H38	H	0.328133	0.102804	0.787610
	H39	H	0.660000	0.910997	0.789040
	H40	H	0.893524	0.222555	0.337504
	H41	H	0.095509	0.223494	0.663437
	H42	H	0.092713	0.791268	0.337374
	H43	H	0.891796	0.789736	0.664349
	H44	H	0.206782	0.341982	0.904938
	H45	H	0.208201	0.668747	0.095958
	H46	H	0.779936	0.343071	0.098575
	H47	H	0.783460	0.669604	0.905114
	H48	H	0.402316	0.121133	0.591741
	H49	H	0.589272	0.889658	0.593327
	H50	H	0.585092	0.121883	0.406960
	H51	H	0.408737	0.893665	0.407264
	H52	H	0.589067	0.415645	0.117371
	H53	H	0.592624	0.610318	0.879960
	H54	H	0.407717	0.609132	0.119755
	H55	H	0.406251	0.411874	0.884610
	H56	H	0.112462	0.602103	0.410327
	H57	H	0.877147	0.602444	0.587080
	H58	H	0.109318	0.416182	0.589978
	H59	H	0.873678	0.412116	0.406240
	H60	H	0.111557	0.415356	0.595744
	H61	H	0.877991	0.589989	0.594414
	H62	H	0.112221	0.599507	0.409080
	H63	H	0.875116	0.410120	0.412556
	H64	H	0.392355	0.598482	0.120525
	H65	H	0.592954	0.592719	0.884665
	H66	H	0.579964	0.412836	0.115926
	H67	H	0.399891	0.408319	0.882230
	H68	H	0.590747	0.122981	0.406024
	H69	H	0.586255	0.888646	0.598762
	H70	H	0.397794	0.123092	0.594315
	H71	H	0.391391	0.889375	0.412713
	H72	H	0.899593	0.622439	0.093888
	H73	H	0.079764	0.391333	0.097184
	H74	H	0.090739	0.622362	0.906582
	H75	H	0.903117	0.390571	0.907633
	H76	H	0.083736	0.916198	0.615730
	H77	H	0.088076	0.097218	0.384649
	H78	H	0.898781	0.095502	0.616898
	H79	H	0.899713	0.905781	0.381903
	H80	H	0.612256	0.102202	0.911283
	H81	H	0.375658	0.098709	0.089261
	H82	H	0.611691	0.920501	0.097397
	H83	H	0.371946	0.908982	0.901768
	H84	H	0.617136	0.906082	0.099757
	H85	H	0.376144	0.095254	0.092444
	H86	H	0.611136	0.095746	0.907342
	H87	H	0.376749	0.907412	0.916298
	H88	H	0.906558	0.099376	0.616312
	H89	H	0.081652	0.103435	0.383843
	H90	H	0.082435	0.907675	0.618806
	H91	H	0.895641	0.913450	0.382671
	H92	H	0.088085	0.622560	0.904552
	H93	H	0.090710	0.389816	0.090226
	H94	H	0.900561	0.623276	0.098195
	H95	H	0.899171	0.389421	0.909786
	H96	H	0.402735	0.122325	0.597100
	H97	H	0.583093	0.891218	0.593980
	H98	H	0.587392	0.122747	0.401963
	H99	H	0.396409	0.886455	0.394936
	H100	H	0.586827	0.406629	0.119442
	H101	H	0.576909	0.601855	0.885781
	H102	H	0.407542	0.591285	0.114178
	H103	H	0.399502	0.415493	0.884237
	H104	H	0.113416	0.601847	0.407650
	H105	H	0.872224	0.601196	0.600357
	H106	H	0.111609	0.410403	0.591639
	H107	H	0.876043	0.416193	0.410634
	H108	H	0.903546	0.621464	0.095441
	H109	H	0.090337	0.386102	0.103043
	H110	H	0.087207	0.621000	0.907411
	H111	H	0.899421	0.388208	0.905089
	H112	H	0.090754	0.911331	0.619073
	H113	H	0.090495	0.105921	0.381295
	H114	H	0.899763	0.104368	0.619487
	H115	H	0.904207	0.912050	0.385295
	H116	H	0.613775	0.101942	0.903817
	H117	H	0.374493	0.099996	0.093325
	H118	H	0.611495	0.910318	0.085597
	H119	H	0.377984	0.921076	0.908730
	C120	C	0.371891	0.014108	0.622824
	C121	C	0.615564	0.997624	0.622782
	C122	C	0.615115	0.014454	0.378228
	C123	C	0.371203	0.997845	0.377191
	C124	C	0.615131	0.384410	0.009257
	C125	C	0.616324	0.628896	0.992155
	C126	C	0.373916	0.627459	0.009558
	C127	C	0.372683	0.383316	0.992041
	C128	C	0.002725	0.628008	0.380294
	C129	C	0.985075	0.627412	0.622596
	C130	C	0.001932	0.384929	0.621811
	C131	C	0.984418	0.385331	0.380699
	C132	C	0.872523	0.514547	0.123495
	C133	C	0.116043	0.497153	0.123863
	C134	C	0.116736	0.514321	0.878507
	C135	C	0.872865	0.497136	0.879571
	C136	C	0.114143	0.884781	0.509266
	C137	C	0.115493	0.129442	0.491776
	C138	C	0.873316	0.127536	0.508967
	C139	C	0.871452	0.883604	0.492344
	C140	C	0.503043	0.127739	0.879069
	C141	C	0.485034	0.126658	0.120272
	C142	C	0.503137	0.884177	0.121843
	C143	C	0.485057	0.885113	0.880043
	C144	C	0.373445	0.891905	0.678269
	C145	C	0.614368	0.119832	0.677639
	C146	C	0.611955	0.891952	0.324210
	C147	C	0.374389	0.120224	0.321876
	C148	C	0.669210	0.389863	0.885203
	C149	C	0.669696	0.623156	0.116246
	C150	C	0.319839	0.622912	0.885416
	C151	C	0.318845	0.386916	0.116072
	C152	C	0.877840	0.681611	0.381693
	C153	C	0.109281	0.683658	0.620502
	C154	C	0.877701	0.328755	0.620791
	C155	C	0.108737	0.330669	0.381876
	C156	C	0.877084	0.387328	0.676854
	C157	C	0.109944	0.624862	0.676418
	C158	C	0.878032	0.624221	0.325228
	C159	C	0.109277	0.388859	0.326514
	C160	C	0.375153	0.683080	0.886454
	C161	C	0.615289	0.683615	0.115246
	C162	C	0.614971	0.329054	0.886238
	C163	C	0.373637	0.327160	0.114775
	C164	C	0.668620	0.891548	0.383031
	C165	C	0.670277	0.120600	0.618150
	C166	C	0.316646	0.891664	0.619058
	C167	C	0.318695	0.121084	0.381738
	C168	C	0.873996	0.392216	0.179447
	C169	C	0.114972	0.619828	0.178071
	C170	C	0.114076	0.391818	0.823320
	C171	C	0.875711	0.619814	0.824047
	C172	C	0.167111	0.890558	0.384393
	C173	C	0.169740	0.124564	0.616077
	C174	C	0.819445	0.123036	0.384851
	C175	C	0.817667	0.888444	0.616413
	C176	C	0.378291	0.182031	0.880894
	C177	C	0.609435	0.182569	0.119272
	C178	C	0.378510	0.828899	0.119768
	C179	C	0.609799	0.831351	0.881717
	C180	C	0.377586	0.887994	0.174727
	C181	C	0.609970	0.124005	0.174977
	C182	C	0.377644	0.123844	0.824981
	C183	C	0.609992	0.889276	0.825426
	C184	C	0.873979	0.183511	0.385928
	C185	C	0.114784	0.184586	0.615054
	C186	C	0.112435	0.830226	0.385722
	C187	C	0.872726	0.828674	0.615707
	C188	C	0.169884	0.390894	0.883093
	C189	C	0.171383	0.619938	0.118821
	C190	C	0.817512	0.391696	0.120050
	C191	C	0.819787	0.620471	0.883315
	C192	C	0.394484	0.100032	0.600867
	C193	C	0.592966	0.912005	0.601535
	C194	C	0.593974	0.100407	0.398961
	C195	C	0.392532	0.911969	0.398808
	C196	C	0.592296	0.405568	0.095422
	C197	C	0.594000	0.607874	0.905639
	C198	C	0.396270	0.605989	0.095825
	C199	C	0.395289	0.405348	0.905894
	C200	C	0.090166	0.607063	0.402429
	C201	C	0.898252	0.604710	0.600287
	C202	C	0.088769	0.407476	0.599294
	C203	C	0.897230	0.406768	0.403032
	C204	C	0.894730	0.600139	0.101945
	C205	C	0.093433	0.411349	0.103093
	C206	C	0.095143	0.599814	0.899797
	C207	C	0.894277	0.411644	0.901132
	C208	C	0.092187	0.905599	0.595508
	C209	C	0.093271	0.108501	0.405743
	C210	C	0.895378	0.106171	0.595305
	C211	C	0.893163	0.904502	0.405769
	C212	C	0.590032	0.106245	0.900907
	C213	C	0.397896	0.104440	0.098030
	C214	C	0.590768	0.905764	0.100444
	C215	C	0.398041	0.906193	0.902509
	Zn216	Zn	0.493663	0.006406	0.752131
	Zn217	Zn	0.493505	0.006140	0.248384
	Zn218	Zn	0.743442	0.506100	0.001046
	Zn219	Zn	0.245370	0.505170	0.000994
	Zn220	Zn	-0.007187	0.755179	0.500810
	Zn221	Zn	-0.006561	0.257262	0.500680
	Zn222	Zn	-0.005891	0.505654	0.750027
	Zn223	Zn	-0.005692	0.506346	0.253320
	Zn224	Zn	0.494969	0.757060	0.000985
	Zn225	Zn	0.494108	0.255155	-0.000026
	Zn226	Zn	0.744254	0.006292	0.500455
	Zn227	Zn	0.242575	0.006501	0.500322
	N228	N	0.406861	0.969372	0.680764
	N229	N	0.581150	0.042448	0.680693
	N230	N	0.579589	0.969314	0.320962
	N231	N	0.406151	0.042481	0.318932
	N232	N	0.669429	0.423522	0.962692
	N233	N	0.670479	0.589924	0.038734
	N234	N	0.318903	0.589064	0.963075
	N235	N	0.318196	0.421302	0.038703
	N236	N	0.956496	0.684005	0.415310
	N237	N	0.030341	0.685209	0.587594
	N238	N	0.956279	0.327305	0.587298
	N239	N	0.029982	0.328607	0.415171
	N240	N	0.955551	0.421397	0.677868
	N241	N	0.031622	0.590856	0.678064
	N242	N	0.956752	0.591536	0.324321
	N243	N	0.030921	0.422289	0.325784
	N244	N	0.407771	0.686090	0.964606
	N245	N	0.582691	0.687136	0.036971
	N246	N	0.581823	0.325830	0.964261
	N247	N	0.406488	0.324914	0.036669
	N248	N	0.670793	0.968888	0.415955
	N249	N	0.671221	0.043524	0.584653
	N250	N	0.315555	0.968815	0.585423
	N251	N	0.316409	0.043966	0.415372
	N252	N	0.907555	0.469503	0.181786
	N253	N	0.081125	0.542484	0.181365
	N254	N	0.081803	0.469397	0.820384
	N255	N	0.908298	0.542220	0.821735
	N256	N	0.168257	0.923916	0.462144
	N257	N	0.170648	0.091162	0.538479
	N258	N	0.818727	0.089033	0.462262
	N259	N	0.816465	0.921600	0.538704
	N260	N	0.457238	0.184780	0.913665
	N261	N	0.530723	0.184279	0.086164
	N262	N	0.457811	0.826426	0.087702
	N263	N	0.531186	0.828576	0.914970
	N264	N	0.456106	0.921535	0.176216
	N265	N	0.531587	0.089835	0.175630
	N266	N	0.456060	0.090889	0.823699
	N267	N	0.531453	0.922344	0.824568
	N268	N	0.906716	0.186327	0.464125
	N269	N	0.081904	0.187737	0.536940
	N270	N	0.080251	0.826407	0.464117
	N271	N	0.905336	0.825466	0.537478
	N272	N	0.172036	0.468061	0.916407
	N273	N	0.172307	0.542698	0.085914
	N274	N	0.816457	0.468597	0.086052
	N275	N	0.817748	0.543392	0.917026
	O276	O	0.438851	-0.518798	0.521587
	H277	H	0.443106	-0.510831	0.515677
	H278	H	0.449645	-0.516359	0.526008
	O279	O	0.419537	0.489772	0.501517
	H280	H	0.411996	0.489697	0.507556
	H281	H	0.416949	0.487792	0.515345
	O282	O	0.406928	0.462060	0.520569
	H283	H	0.389512	0.461627	0.529826
	H284	H	0.396403	0.453232	0.521288
	O285	O	0.452537	0.438907	0.460164
	H286	H	0.451674	0.444385	0.464752
	H287	H	0.448022	0.436715	0.460582
	O288	O	0.481920	0.464875	0.534633
	H289	H	0.481464	0.478228	0.523715
	H290	H	0.479368	0.453450	0.531241
	O291	O	0.416997	0.497707	0.620582
	H292	H	0.420841	0.493387	0.619720
	H293	H	0.419142	0.498390	0.614253
	O294	O	0.463966	0.520966	0.523382
	H295	H	0.465627	0.527811	0.524671
	H296	H	0.462593	0.516831	0.523582
	O297	O	1.505879	0.529823	0.497921
	H298	H	1.507268	0.529039	0.490234
	H299	H	1.504313	0.522902	0.496569
