data_Molecule from HDF5

_cell_length_a		16.218081
_cell_length_b		16.175770
_cell_length_c		16.291110
_cell_angle_alpha	89.940022
_cell_angle_beta	90.013371
_cell_angle_gamma	90.083344
_symmetry_space_group_name_H-M	'P 1'
_symmetry_Int_Tables_number		1

loop_
	_symmetry_equiv_pos_as_xyz
	x,y,z

loop_
	_atom_site_label
	_atom_site_type_symbol
	_atom_site_fract_x
	_atom_site_fract_y
	_atom_site_fract_z
	H0	H	0.405838	0.836739	0.713348
	H1	H	0.603687	0.166218	0.714636
	H2	H	0.603421	0.837843	0.286279
	H3	H	0.405608	0.166470	0.285225
	H4	H	0.718848	0.404008	0.836310
	H5	H	0.718300	0.600402	0.163355
	H6	H	0.290253	0.600732	0.836623
	H7	H	0.287698	0.401070	0.162683
	H8	H	0.839822	0.717339	0.399710
	H9	H	0.168315	0.715230	0.595501
	H10	H	0.838923	0.289055	0.596850
	H11	H	0.168859	0.290888	0.401650
	H12	H	0.839972	0.403349	0.714873
	H13	H	0.167152	0.603172	0.714261
	H14	H	0.839483	0.601381	0.285431
	H15	H	0.167472	0.404150	0.284242
	H16	H	0.407563	0.715784	0.836357
	H17	H	0.603056	0.715627	0.163293
	H18	H	0.602019	0.288391	0.835643
	H19	H	0.405874	0.287324	0.163646
	H20	H	0.717093	0.838137	0.402639
	H21	H	0.717308	0.167412	0.597545
	H22	H	0.289846	0.837658	0.598356
	H23	H	0.291428	0.167443	0.401173
	H24	H	0.904085	0.339399	0.214385
	H25	H	0.103304	0.667597	0.213696
	H26	H	0.103722	0.338243	0.784833
	H27	H	0.905525	0.667181	0.785233
	H28	H	0.218795	0.904815	0.336080
	H29	H	0.217664	0.101040	0.663649
	H30	H	0.790012	0.100660	0.335884
	H31	H	0.789697	0.903688	0.663370
	H32	H	0.338790	0.215550	0.902391
	H33	H	0.668791	0.214667	0.096914
	H34	H	0.340149	0.788368	0.097708
	H35	H	0.669803	0.789954	0.903789
	H36	H	0.340346	0.902683	0.214864
	H37	H	0.667939	0.101565	0.215041
	H38	H	0.339945	0.101284	0.784552
	H39	H	0.668325	0.902517	0.785540
	H40	H	0.905177	0.216771	0.335423
	H41	H	0.100694	0.215927	0.664244
	H42	H	0.101857	0.789005	0.335604
	H43	H	0.905962	0.787918	0.663191
	H44	H	0.216399	0.337105	0.902201
	H45	H	0.219436	0.666666	0.099053
	H46	H	0.791274	0.337939	0.097048
	H47	H	0.790847	0.667178	0.901927
	H48	H	0.409519	0.120821	0.592194
	H49	H	0.606532	0.882456	0.593162
	H50	H	0.591919	0.118797	0.408237
	H51	H	0.409168	0.886769	0.418624
	H52	H	0.595003	0.402892	0.117059
	H53	H	0.590145	0.606609	0.881940
	H54	H	0.409352	0.587940	0.115128
	H55	H	0.418610	0.406837	0.885386
	H56	H	0.117764	0.586247	0.407628
	H57	H	0.884986	0.594822	0.595806
	H58	H	0.122324	0.408351	0.595420
	H59	H	0.884052	0.410695	0.399390
	H60	H	0.120461	0.408522	0.589477
	H61	H	0.885407	0.597741	0.591269
	H62	H	0.124855	0.598404	0.397615
	H63	H	0.884570	0.402452	0.408262
	H64	H	0.418019	0.595231	0.115713
	H65	H	0.611939	0.598115	0.878835
	H66	H	0.603888	0.408280	0.118322
	H67	H	0.405356	0.404121	0.879855
	H68	H	0.600072	0.120157	0.409580
	H69	H	0.592508	0.882699	0.602006
	H70	H	0.412296	0.120171	0.594771
	H71	H	0.402293	0.880623	0.400268
	H72	H	0.903195	0.622747	0.090320
	H73	H	0.093315	0.383716	0.101658
	H74	H	0.104861	0.622882	0.903273
	H75	H	0.918518	0.388074	0.908110
	H76	H	0.097642	0.912277	0.615574
	H77	H	0.101408	0.092066	0.383509
	H78	H	0.909446	0.094518	0.616239
	H79	H	0.912379	0.921050	0.386749
	H80	H	0.621395	0.095922	0.903384
	H81	H	0.385494	0.096976	0.093317
	H82	H	0.623228	0.910930	0.100029
	H83	H	0.383959	0.901866	0.904734
	H84	H	0.623265	0.904452	0.092982
	H85	H	0.388006	0.092540	0.090316
	H86	H	0.621477	0.096683	0.908833
	H87	H	0.389225	0.910330	0.913822
	H88	H	0.912416	0.096438	0.615666
	H89	H	0.092625	0.098241	0.384003
	H90	H	0.094405	0.908459	0.616034
	H91	H	0.918423	0.901744	0.383262
	H92	H	0.091010	0.620308	0.900579
	H93	H	0.088092	0.389904	0.086377
	H94	H	0.912397	0.622676	0.101142
	H95	H	0.905657	0.383997	0.912015
	H96	H	0.413009	0.118853	0.591571
	H97	H	0.592571	0.887670	0.585960
	H98	H	0.597247	0.121601	0.401916
	H99	H	0.422209	0.886380	0.402627
	H100	H	0.595664	0.412695	0.114854
	H101	H	0.594431	0.584343	0.886229
	H102	H	0.406957	0.598263	0.119623
	H103	H	0.408669	0.417557	0.885184
	H104	H	0.120818	0.601853	0.413240
	H105	H	0.887963	0.592052	0.591373
	H106	H	0.119840	0.413083	0.592555
	H107	H	0.889044	0.414045	0.410538
	H108	H	0.916691	0.618375	0.088308
	H109	H	0.103812	0.383758	0.088451
	H110	H	0.096751	0.616889	0.914013
	H111	H	0.910287	0.381793	0.898619
	H112	H	0.099326	0.907529	0.616861
	H113	H	0.101818	0.102198	0.379915
	H114	H	0.909903	0.097907	0.617179
	H115	H	0.899166	0.907469	0.378843
	H116	H	0.620226	0.091821	0.907138
	H117	H	0.386487	0.091837	0.096851
	H118	H	0.619679	0.913531	0.091131
	H119	H	0.387635	0.915374	0.901095
	C120	C	0.382845	0.010558	0.621291
	C121	C	0.625549	0.993407	0.621702
	C122	C	0.624593	0.010971	0.379092
	C123	C	0.382881	0.993662	0.378429
	C124	C	0.626003	0.380009	0.008372
	C125	C	0.626599	0.624190	0.990922
	C126	C	0.383140	0.623065	0.008602
	C127	C	0.382310	0.380179	0.991429
	C128	C	0.012694	0.624050	0.377661
	C129	C	0.994961	0.623804	0.620725
	C130	C	0.012076	0.381399	0.620619
	C131	C	0.994743	0.381012	0.377460
	C132	C	0.882196	0.512109	0.121229
	C133	C	0.124849	0.494432	0.120973
	C134	C	0.126318	0.511167	0.877669
	C135	C	0.883443	0.493769	0.878389
	C136	C	0.125508	0.881344	0.507824
	C137	C	0.126495	0.125410	0.491062
	C138	C	0.881922	0.124528	0.508139
	C139	C	0.881725	0.880813	0.490939
	C140	C	0.512332	0.123680	0.878125
	C141	C	0.495560	0.122884	0.121548
	C142	C	0.513205	0.880153	0.122846
	C143	C	0.496028	0.880698	0.878607
	C144	C	0.385277	0.886299	0.675861
	C145	C	0.623721	0.117294	0.676929
	C146	C	0.623042	0.887132	0.323969
	C147	C	0.385135	0.117589	0.323060
	C148	C	0.681007	0.383122	0.885043
	C149	C	0.680956	0.621241	0.114383
	C150	C	0.328188	0.620885	0.885435
	C151	C	0.326193	0.381143	0.114037
	C152	C	0.888819	0.679326	0.379787
	C153	C	0.118905	0.678522	0.617216
	C154	C	0.888257	0.326465	0.617990
	C155	C	0.119242	0.327699	0.380916
	C156	C	0.888644	0.383465	0.676233
	C157	C	0.118397	0.622427	0.675935
	C158	C	0.888798	0.622103	0.322514
	C159	C	0.118574	0.384005	0.322272
	C160	C	0.386299	0.678247	0.885344
	C161	C	0.623354	0.678034	0.114498
	C162	C	0.622849	0.325870	0.884727
	C163	C	0.385126	0.324807	0.114580
	C164	C	0.679728	0.887275	0.381662
	C165	C	0.679535	0.118147	0.618214
	C166	C	0.327413	0.886824	0.618917
	C167	C	0.328513	0.117907	0.380843
	C168	C	0.884400	0.388144	0.176185
	C169	C	0.123410	0.618285	0.175938
	C170	C	0.124032	0.387297	0.822563
	C171	C	0.885566	0.617956	0.823257
	C172	C	0.180320	0.884492	0.384653
	C173	C	0.180168	0.121889	0.614708
	C174	C	0.827491	0.121511	0.384685
	C175	C	0.827373	0.883383	0.614466
	C176	C	0.388031	0.178106	0.881234
	C177	C	0.619354	0.177791	0.118262
	C178	C	0.389512	0.825217	0.119132
	C179	C	0.620260	0.826816	0.882499
	C180	C	0.389379	0.882253	0.177193
	C181	C	0.619058	0.121266	0.176789
	C182	C	0.388734	0.121641	0.822573
	C183	C	0.619523	0.882947	0.823790
	C184	C	0.885277	0.178685	0.384259
	C185	C	0.122135	0.178996	0.614979
	C186	C	0.122161	0.827101	0.384347
	C187	C	0.885340	0.826092	0.614467
	C188	C	0.180056	0.386621	0.881084
	C189	C	0.181137	0.617718	0.118853
	C190	C	0.828214	0.387421	0.118061
	C191	C	0.828938	0.618237	0.881444
	C192	C	0.404943	0.097402	0.599357
	C193	C	0.603578	0.906628	0.600220
	C194	C	0.602809	0.097886	0.400367
	C195	C	0.404732	0.906882	0.400582
	C196	C	0.604675	0.401537	0.094389
	C197	C	0.605106	0.602639	0.904557
	C198	C	0.405014	0.600534	0.094625
	C199	C	0.404386	0.402900	0.905652
	C200	C	0.098940	0.601943	0.399736
	C201	C	0.908486	0.601414	0.599150
	C202	C	0.098530	0.403431	0.598994
	C203	C	0.908242	0.402718	0.399440
	C204	C	0.904054	0.598801	0.099535
	C205	C	0.101931	0.408085	0.098662
	C206	C	0.104203	0.597568	0.899454
	C207	C	0.905059	0.407147	0.899946
	C208	C	0.103658	0.903062	0.594058
	C209	C	0.104992	0.103815	0.404788
	C210	C	0.903990	0.102834	0.593985
	C211	C	0.903534	0.903376	0.405094
	C212	C	0.598572	0.101329	0.899941
	C213	C	0.409169	0.100450	0.099872
	C214	C	0.599875	0.902801	0.101258
	C215	C	0.409220	0.902597	0.900164
	Zn216	Zn	0.504321	0.001646	0.749441
	Zn217	Zn	0.503861	0.002132	0.250827
	Zn218	Zn	0.754744	0.502466	-0.000369
	Zn219	Zn	0.253162	0.501916	-0.000165
	Zn220	Zn	0.003507	0.752093	0.499294
	Zn221	Zn	0.004022	0.252918	0.499176
	Zn222	Zn	0.004388	0.502572	0.749763
	Zn223	Zn	0.003487	0.503274	0.249567
	Zn224	Zn	0.505037	0.752276	-0.000013
	Zn225	Zn	0.504014	0.251622	-0.000191
	Zn226	Zn	0.753293	0.003004	0.499841
	Zn227	Zn	0.254899	0.003040	0.499822
	N228	N	0.418867	0.964548	0.677517
	N229	N	0.590775	0.038964	0.678927
	N230	N	0.589590	0.965333	0.322186
	N231	N	0.418062	0.039286	0.321576
	N232	N	0.683098	0.416203	0.962741
	N233	N	0.683191	0.588419	0.036476
	N234	N	0.326199	0.587128	0.963046
	N235	N	0.324399	0.415061	0.036582
	N236	N	0.966706	0.680835	0.413339
	N237	N	0.041184	0.679388	0.583584
	N238	N	0.965989	0.325159	0.584076
	N239	N	0.041367	0.325719	0.414419
	N240	N	0.966778	0.416593	0.678269
	N241	N	0.040240	0.589277	0.678263
	N242	N	0.966597	0.588290	0.321183
	N243	N	0.040215	0.416640	0.320197
	N244	N	0.419607	0.679766	0.962939
	N245	N	0.590466	0.680169	0.036786
	N246	N	0.589709	0.323688	0.962479
	N247	N	0.418917	0.323893	0.037164
	N248	N	0.680899	0.965154	0.415251
	N249	N	0.681216	0.039936	0.585022
	N250	N	0.325810	0.965007	0.585756
	N251	N	0.327152	0.039893	0.414710
	N252	N	0.917277	0.466489	0.178226
	N253	N	0.089006	0.540533	0.177243
	N254	N	0.091379	0.465724	0.820327
	N255	N	0.918705	0.539731	0.821457
	N256	N	0.182488	0.917287	0.462453
	N257	N	0.183210	0.089515	0.536710
	N258	N	0.825229	0.088613	0.462586
	N259	N	0.825290	0.916884	0.536765
	N260	N	0.465970	0.179652	0.914824
	N261	N	0.541583	0.178693	0.084567
	N262	N	0.467676	0.824028	0.085985
	N263	N	0.542385	0.825650	0.916038
	N264	N	0.467410	0.915508	0.179603
	N265	N	0.541146	0.087659	0.178835
	N266	N	0.466787	0.088416	0.820573
	N267	N	0.541148	0.915702	0.821341
	N268	N	0.918575	0.180746	0.461867
	N269	N	0.089512	0.181272	0.536948
	N270	N	0.088749	0.825046	0.461986
	N271	N	0.918201	0.824225	0.536673
	N272	N	0.181500	0.464645	0.914587
	N273	N	0.182043	0.539607	0.085475
	N274	N	0.826579	0.465509	0.084607
	N275	N	0.826875	0.540014	0.914724
	O276	O	0.443134	0.415825	0.536621
	H277	H	0.433827	0.407604	0.539066
	H278	H	0.451370	0.420493	0.538244
	O279	O	0.009599	0.020641	-0.039092
	H280	H	0.003529	0.019661	-0.037395
	H281	H	0.000605	0.023937	-0.032484
	O282	O	0.475172	0.498663	0.510121
	H283	H	0.476270	0.509960	0.507179
	H284	H	0.477391	0.496025	0.498866
	O285	O	0.421238	0.518378	0.493831
	H286	H	0.406573	0.514987	0.503382
	H287	H	0.416356	0.511050	0.501931
	O288	O	1.024391	0.039653	-0.037415
	H289	H	1.032995	0.044228	-0.038816
	H290	H	1.024118	0.037002	-0.038719
	O291	O	-0.539639	0.475777	-0.523586
	H292	H	-0.540923	0.481132	-0.530604
	H293	H	-0.545895	0.473558	-0.521761
	O294	O	0.432952	0.485509	0.551911
	H295	H	0.432615	0.480908	0.558843
	H296	H	0.437466	0.486520	0.550508
	O297	O	0.478172	1.456120	0.510674
	H298	H	0.476004	1.467335	0.505982
	H299	H	0.486124	1.461961	0.506440
	O300	O	1.058997	0.025835	0.954207
	H301	H	1.056962	0.021452	0.954301
	H302	H	1.058405	0.028698	0.956138
	O303	O	0.483134	0.498759	0.534471
	H304	H	0.484166	0.485945	0.532758
	H305	H	0.476881	0.503100	0.536844
	O306	O	0.015653	1.040030	0.978627
	H307	H	0.016895	1.044668	0.971083
	H308	H	0.023434	1.036092	0.977651
	O309	O	0.441693	0.532682	0.526172
	H310	H	0.441982	0.531319	0.529700
	H311	H	0.445922	0.524409	0.528901
