data_Molecule from HDF5

_cell_length_a		16.681457
_cell_length_b		16.526983
_cell_length_c		16.493823
_cell_angle_alpha	90.045158
_cell_angle_beta	89.948505
_cell_angle_gamma	90.075737
_symmetry_space_group_name_H-M	'P 1'
_symmetry_Int_Tables_number		1

loop_
	_symmetry_equiv_pos_as_xyz
	x,y,z

loop_
	_atom_site_label
	_atom_site_type_symbol
	_atom_site_fract_x
	_atom_site_fract_y
	_atom_site_fract_z
	H0	H	0.412508	0.833104	0.732513
	H1	H	0.618175	0.147684	0.734954
	H2	H	0.618317	0.834111	0.293494
	H3	H	0.411568	0.148454	0.294717
	H4	H	0.741228	0.380759	0.859574
	H5	H	0.736845	0.596635	0.171369
	H6	H	0.294180	0.596670	0.858101
	H7	H	0.296273	0.388971	0.172616
	H8	H	0.858357	0.713254	0.410323
	H9	H	0.170250	0.712758	0.617396
	H10	H	0.860577	0.265857	0.624756
	H11	H	0.171029	0.272795	0.412082
	H12	H	0.860631	0.382848	0.740704
	H13	H	0.169679	0.597612	0.735951
	H14	H	0.857992	0.597219	0.292615
	H15	H	0.172360	0.392150	0.296944
	H16	H	0.413635	0.710101	0.856668
	H17	H	0.618751	0.710846	0.172928
	H18	H	0.622284	0.267669	0.858428
	H19	H	0.413474	0.274069	0.173191
	H20	H	0.740031	0.837179	0.404414
	H21	H	0.735654	0.148431	0.619558
	H22	H	0.293881	0.835045	0.618971
	H23	H	0.292776	0.146789	0.408387
	H24	H	0.913671	0.333651	0.232670
	H25	H	0.114740	0.651623	0.230299
	H26	H	0.117474	0.335374	0.793056
	H27	H	0.911974	0.649903	0.795997
	H28	H	0.234620	0.888667	0.357188
	H29	H	0.235907	0.100177	0.671769
	H30	H	0.793007	0.097921	0.357703
	H31	H	0.791816	0.884708	0.670140
	H32	H	0.361104	0.213602	0.908494
	H33	H	0.668791	0.216833	0.123882
	H34	H	0.358333	0.770825	0.118605
	H35	H	0.670617	0.769076	0.909246
	H36	H	0.357762	0.889092	0.233930
	H37	H	0.670075	0.096561	0.237160
	H38	H	0.360453	0.095798	0.792886
	H39	H	0.668918	0.882215	0.789045
	H40	H	0.910570	0.213139	0.357076
	H41	H	0.118074	0.214398	0.671574
	H42	H	0.116203	0.774543	0.355665
	H43	H	0.910053	0.772448	0.671855
	H44	H	0.234487	0.334391	0.908795
	H45	H	0.233101	0.650322	0.115785
	H46	H	0.792952	0.335540	0.120956
	H47	H	0.791746	0.647514	0.907266
	H48	H	0.428894	0.102241	0.602498
	H49	H	0.605009	0.878816	0.600532
	H50	H	0.601932	0.104400	0.422865
	H51	H	0.425644	0.881310	0.433956
	H52	H	0.603626	0.401743	0.126893
	H53	H	0.602023	0.577750	0.903635
	H54	H	0.427995	0.581296	0.127111
	H55	H	0.419818	0.407484	0.901792
	H56	H	0.128508	0.581578	0.415328
	H57	H	0.902611	0.582893	0.603037
	H58	H	0.123968	0.405583	0.602899
	H59	H	0.901185	0.396573	0.423928
	H60	H	0.122834	0.405088	0.598656
	H61	H	0.904107	0.580467	0.604149
	H62	H	0.128060	0.591502	0.425692
	H63	H	0.904649	0.403753	0.427159
	H64	H	0.421909	0.585419	0.130368
	H65	H	0.603603	0.580617	0.902112
	H66	H	0.605295	0.408516	0.125523
	H67	H	0.431879	0.401999	0.903140
	H68	H	0.602539	0.100697	0.430433
	H69	H	0.603081	0.879471	0.601154
	H70	H	0.421609	0.104399	0.600198
	H71	H	0.415440	0.874963	0.424342
	H72	H	0.923711	0.605143	0.105251
	H73	H	0.111670	0.376472	0.106076
	H74	H	0.102105	0.603191	0.925749
	H75	H	0.931663	0.381678	0.926892
	H76	H	0.104214	0.903709	0.627417
	H77	H	0.102185	0.081478	0.402874
	H78	H	0.924533	0.074056	0.625013
	H79	H	0.925007	0.903012	0.400742
	H80	H	0.626600	0.073650	0.921314
	H81	H	0.403893	0.079140	0.104880
	H82	H	0.626750	0.896778	0.103442
	H83	H	0.404993	0.904565	0.925206
	H84	H	0.625115	0.904245	0.101476
	H85	H	0.402773	0.083069	0.105706
	H86	H	0.628388	0.085977	0.925716
	H87	H	0.402814	0.899401	0.922340
	H88	H	0.930763	0.081952	0.625524
	H89	H	0.105572	0.082517	0.401405
	H90	H	0.104723	0.901712	0.627880
	H91	H	0.925186	0.906027	0.402465
	H92	H	0.108892	0.604552	0.929531
	H93	H	0.105199	0.377456	0.110314
	H94	H	0.927587	0.603171	0.102707
	H95	H	0.926932	0.381903	0.933197
	H96	H	0.423995	0.105493	0.608045
	H97	H	0.603812	0.879847	0.599213
	H98	H	0.609110	0.105136	0.426882
	H99	H	0.429384	0.878659	0.419254
	H100	H	0.599111	0.405992	0.123106
	H101	H	0.605668	0.577420	0.902741
	H102	H	0.420924	0.578090	0.128229
	H103	H	0.422068	0.395006	0.898001
	H104	H	0.121815	0.578178	0.428122
	H105	H	0.902015	0.582344	0.605700
	H106	H	0.121776	0.408646	0.600620
	H107	H	0.901838	0.403446	0.419143
	H108	H	0.922758	0.604531	0.100166
	H109	H	0.105284	0.379363	0.102635
	H110	H	0.108048	0.606833	0.921803
	H111	H	0.923779	0.378874	0.926673
	H112	H	0.106009	0.902833	0.628197
	H113	H	0.105610	0.079270	0.403200
	H114	H	0.921052	0.082769	0.629041
	H115	H	0.927375	0.903812	0.402889
	H116	H	0.622923	0.076219	0.933960
	H117	H	0.404175	0.081885	0.101900
	H118	H	0.626978	0.902505	0.108778
	H119	H	0.404494	0.899292	0.928471
	C120	C	0.393399	0.000072	0.635553
	C121	C	0.636076	0.982829	0.634054
	C122	C	0.636730	0.000155	0.393099
	C123	C	0.392734	0.982293	0.393881
	C124	C	0.636129	0.371015	0.022449
	C125	C	0.635881	0.611270	1.006514
	C126	C	0.393423	0.612645	0.023511
	C127	C	0.394147	0.370801	1.005824
	C128	C	0.022700	0.614696	0.391822
	C129	C	1.005843	0.613674	0.635614
	C130	C	0.021570	0.371784	0.635422
	C131	C	1.006247	0.370715	0.392859
	C132	C	0.893555	0.500153	0.135207
	C133	C	0.136440	0.483257	0.135570
	C134	C	0.136976	0.500697	0.893110
	C135	C	0.894309	0.483596	0.894772
	C136	C	0.135320	0.871863	0.522998
	C137	C	0.136095	0.113575	0.506296
	C138	C	0.893571	0.112694	0.522918
	C139	C	0.893552	0.871623	0.505645
	C140	C	0.523845	0.111595	0.893811
	C141	C	0.506303	0.113631	0.137026
	C142	C	0.523052	0.869531	0.136108
	C143	C	0.506656	0.868430	0.892458
	C144	C	0.393062	0.880894	0.693604
	C145	C	0.637178	0.100857	0.694757
	C146	C	0.638038	0.881773	0.332867
	C147	C	0.392277	0.101069	0.334419
	C148	C	0.699234	0.364583	0.905944
	C149	C	0.696159	0.614234	0.124677
	C150	C	0.334597	0.614978	0.904883
	C151	C	0.335677	0.369918	0.125099
	C152	C	0.904944	0.673300	0.391216
	C153	C	0.123540	0.673124	0.636558
	C154	C	0.906457	0.308066	0.641130
	C155	C	0.124460	0.312772	0.392796
	C156	C	0.906439	0.366211	0.698996
	C157	C	0.123219	0.615860	0.695358
	C158	C	0.904987	0.615592	0.332799
	C159	C	0.124944	0.371684	0.335520
	C160	C	0.394076	0.670909	0.904169
	C161	C	0.637390	0.670929	0.125359
	C162	C	0.640031	0.308434	0.905402
	C163	C	0.394095	0.313013	0.125450
	C164	C	0.698393	0.883244	0.387888
	C165	C	0.695346	0.101276	0.637238
	C166	C	0.334128	0.881734	0.637244
	C167	C	0.333379	0.100280	0.390864
	C168	C	0.893269	0.381436	0.194036
	C169	C	0.134822	0.603617	0.191814
	C170	C	0.137186	0.382342	0.832928
	C171	C	0.892694	0.602156	0.835002
	C172	C	0.194271	0.870586	0.404107
	C173	C	0.195787	0.117242	0.624430
	C174	C	0.833400	0.115770	0.404527
	C175	C	0.832519	0.867827	0.623376
	C176	C	0.407404	0.172723	0.890523
	C177	C	0.622682	0.175232	0.140691
	C178	C	0.405443	0.810497	0.137428
	C179	C	0.623614	0.808419	0.890164
	C180	C	0.404933	0.869326	0.194760
	C181	C	0.623155	0.115737	0.197318
	C182	C	0.407135	0.114341	0.832913
	C183	C	0.622797	0.864980	0.830658
	C184	C	0.891550	0.173110	0.404315
	C185	C	0.136907	0.173742	0.624727
	C186	C	0.135843	0.813430	0.403638
	C187	C	0.891098	0.811580	0.624106
	C188	C	0.195151	0.381960	0.890469
	C189	C	0.193762	0.602969	0.135058
	C190	C	0.833624	0.382121	0.138273
	C191	C	0.832917	0.600921	0.890398
	C192	C	0.417784	0.082560	0.610752
	C193	C	0.611109	0.900621	0.607856
	C194	C	0.611607	0.081903	0.419188
	C195	C	0.416818	0.899823	0.418728
	C196	C	0.610193	0.397763	0.103904
	C197	C	0.610980	0.585753	0.924238
	C198	C	0.416791	0.588317	0.106914
	C199	C	0.417715	0.394610	0.922721
	C200	C	0.104697	0.590658	0.416115
	C201	C	0.924199	0.588889	0.611279
	C202	C	0.101975	0.398798	0.608241
	C203	C	0.924033	0.394308	0.416685
	C204	C	0.917735	0.582669	0.110051
	C205	C	0.113883	0.399561	0.112734
	C206	C	0.113126	0.583425	0.918448
	C207	C	0.920264	0.401923	0.921276
	C208	C	0.111735	0.895832	0.606217
	C209	C	0.111377	0.088377	0.423784
	C210	C	0.918451	0.087226	0.605120
	C211	C	0.918679	0.897020	0.423293
	C212	C	0.604740	0.085917	0.919541
	C213	C	0.424829	0.088492	0.111368
	C214	C	0.604974	0.894324	0.111622
	C215	C	0.425400	0.893897	0.918048
	Zn216	Zn	0.515261	-0.009467	0.763645
	Zn217	Zn	0.514591	-0.008880	0.265838
	Zn218	Zn	0.765344	0.491283	0.014258
	Zn219	Zn	0.265373	0.491399	0.014204
	Zn220	Zn	0.013949	0.743435	0.514500
	Zn221	Zn	0.014126	0.241587	0.514918
	Zn222	Zn	0.014392	0.492501	0.765638
	Zn223	Zn	0.014750	0.492307	0.263767
	Zn224	Zn	0.515562	0.740115	0.014819
	Zn225	Zn	0.515567	0.241886	0.014521
	Zn226	Zn	0.765081	-0.007884	0.513952
	Zn227	Zn	0.264507	-0.007715	0.515194
	N228	N	0.429049	0.955555	0.692997
	N229	N	0.601141	0.026149	0.692974
	N230	N	0.600394	0.955501	0.335891
	N231	N	0.428595	0.026596	0.336017
	N232	N	0.696808	0.402909	0.979694
	N233	N	0.695506	0.577990	0.049735
	N234	N	0.333986	0.579618	0.980276
	N235	N	0.335230	0.404865	0.049480
	N236	N	0.979081	0.672841	0.427168
	N237	N	0.049498	0.672103	0.600288
	N238	N	0.979028	0.311606	0.601939
	N239	N	0.049689	0.311852	0.427707
	N240	N	0.978912	0.405796	0.695120
	N241	N	0.049213	0.579675	0.695078
	N242	N	0.979287	0.579852	0.333050
	N243	N	0.050416	0.406812	0.335321
	N244	N	0.429728	0.669705	0.979147
	N245	N	0.600634	0.669301	0.050922
	N246	N	0.601372	0.312248	0.978783
	N247	N	0.429577	0.313039	0.050240
	N248	N	0.697623	0.957704	0.424720
	N249	N	0.694935	0.026539	0.600564
	N250	N	0.333998	0.956953	0.602276
	N251	N	0.333432	0.025584	0.426950
	N252	N	0.929471	0.456000	0.192722
	N253	N	0.099934	0.528240	0.192316
	N254	N	0.101982	0.457437	0.834154
	N255	N	0.930172	0.528183	0.837577
	N256	N	0.194253	0.906032	0.479440
	N257	N	0.195624	0.080686	0.549643
	N258	N	0.834299	0.079225	0.479310
	N259	N	0.833725	0.904413	0.548527
	N260	N	0.481059	0.171310	0.927692
	N261	N	0.548978	0.174174	0.104032
	N262	N	0.479825	0.810472	0.101816
	N263	N	0.550309	0.810518	0.927839
	N264	N	0.479332	0.905247	0.194297
	N265	N	0.549875	0.078137	0.195155
	N266	N	0.480474	0.076920	0.834724
	N267	N	0.548868	0.901348	0.831620
	N268	N	0.928125	0.171444	0.478933
	N269	N	0.100669	0.171910	0.550078
	N270	N	0.099949	0.814066	0.478660
	N271	N	0.928338	0.813744	0.549858
	N272	N	0.195285	0.456790	0.926910
	N273	N	0.195206	0.526997	0.101127
	N274	N	0.833533	0.457213	0.102652
	N275	N	0.833518	0.526009	0.926521
	O276	O	0.010503	0.958728	0.061216
	H277	H	0.000882	0.960789	0.048479
	H278	H	0.011309	0.953281	0.045642
	O279	O	0.577509	0.468659	0.439837
	H280	H	0.577237	0.472204	0.447920
	H281	H	0.583853	0.475319	0.447385
	O282	O	1.073117	-0.159263	1.136318
	H283	H	1.072394	-0.172469	1.148950
	H284	H	1.070340	-0.146665	1.139023
	O285	O	0.499147	0.299877	0.726980
	H286	H	0.484807	0.291294	0.714308
	H287	H	0.494313	0.281381	0.728788
	O288	O	0.804860	0.192171	0.808782
	H289	H	0.829410	0.177500	0.808741
	H290	H	0.798645	0.209059	0.822963
	O291	O	0.296714	0.267814	0.536946
	H292	H	0.288044	0.263134	0.563799
	H293	H	0.287227	0.249456	0.552509
	O294	O	0.959539	-0.064340	0.805992
	H295	H	0.955795	-0.096439	0.804541
	H296	H	0.942613	-0.070574	0.808775
	O297	O	0.143078	1.198509	0.955219
	H298	H	0.151171	1.199859	0.992255
	H299	H	0.150274	1.184823	0.959229
	O300	O	0.229266	0.030271	1.223603
	H301	H	0.221017	0.021232	1.231653
	H302	H	0.231291	0.013089	1.226736
	O303	O	0.722362	0.460054	0.421717
	H304	H	0.721166	0.461839	0.425822
	H305	H	0.728373	0.452147	0.410018
	O306	O	0.392043	0.700043	0.311697
	H307	H	0.370041	0.713728	0.305524
	H308	H	0.417347	0.706970	0.300290
	O309	O	0.549219	0.700312	0.723631
	H310	H	0.545227	0.706241	0.714913
	H311	H	0.552711	0.707772	0.738471
	O312	O	0.714110	0.287582	0.316827
	H313	H	0.726111	0.316405	0.319018
	H314	H	0.709375	0.282399	0.319544
	O315	O	1.285108	1.256387	1.286483
	H316	H	1.296146	1.275973	1.299663
	H317	H	1.296813	1.258737	1.318153
	O318	O	0.508816	0.700232	0.497190
	H319	H	0.509380	0.700181	0.507141
	H320	H	0.513325	0.702324	0.505756
	O321	O	0.744674	0.430437	0.564683
	H322	H	0.740505	0.442942	0.554879
	H323	H	0.753109	0.431248	0.569332
	O324	O	0.993389	0.777560	0.228833
	H325	H	0.972593	0.771980	0.235980
	H326	H	0.970870	0.771113	0.238362
	O327	O	0.076470	-0.183311	0.962622
	H328	H	0.065970	-0.188240	0.975138
	H329	H	0.066769	-0.179635	0.962456
	O330	O	0.379117	0.705024	0.533534
	H331	H	0.374951	0.709273	0.519488
	H332	H	0.367777	0.705431	0.515549
	O333	O	0.328271	0.279422	0.723241
	H334	H	0.299389	0.248249	0.758211
	H335	H	0.334494	0.313708	0.727957
	O336	O	0.301727	0.706745	0.401834
	H337	H	0.277798	0.724392	0.380573
	H338	H	0.298973	0.682821	0.394172
	O339	O	1.080965	0.014324	0.823298
	H340	H	1.054406	-0.008436	0.817206
	H341	H	1.105720	-0.001619	0.815870
	O342	O	0.085734	0.040275	0.129907
	H343	H	0.089069	0.049941	0.138044
	H344	H	0.072584	0.033870	0.125484
	O345	O	-0.496733	1.694773	1.390875
	H346	H	-0.498057	1.695131	1.386136
	H347	H	-0.484637	1.700817	1.387828
	O348	O	0.028387	-0.226956	-0.173493
	H349	H	0.032949	-0.244262	-0.185774
	H350	H	0.051349	-0.228845	-0.172591
	O351	O	0.294910	0.536305	0.295977
	H352	H	0.294754	0.561585	0.302792
	H353	H	0.279420	0.526561	0.272768
	O354	O	0.518795	0.471619	1.309149
	H355	H	0.525061	0.446915	1.312839
	H356	H	0.521615	0.489000	1.317788
	O357	O	0.161507	0.134674	-0.031036
	H358	H	0.173176	0.143760	-0.019842
	H359	H	0.149953	0.132427	-0.022352
	O360	O	0.223451	-0.213021	0.810333
	H361	H	0.253523	-0.240603	0.788312
	H362	H	0.215442	-0.216904	0.845863
	O363	O	-0.044911	0.180120	-0.158668
	H364	H	-0.012214	0.172375	-0.160908
	H365	H	-0.046925	0.179487	-0.171123
	O366	O	0.711145	0.294911	0.594851
	H367	H	0.723618	0.292913	0.591623
	H368	H	0.709719	0.313510	0.598940
	O369	O	0.953552	0.084654	0.199880
	H370	H	0.963359	0.101447	0.197220
	H371	H	0.958467	0.087872	0.195090
	O372	O	0.838181	0.821309	-0.166486
	H373	H	0.826633	0.820154	-0.172729
	H374	H	0.829895	0.816503	-0.167795
	O375	O	0.776450	0.031414	0.049906
	H376	H	0.778901	0.025088	0.043721
	H377	H	0.770848	0.026136	0.059327
	O378	O	0.204567	0.956791	0.070299
	H379	H	0.207492	0.955709	0.058815
	H380	H	0.198624	0.962166	0.071846
	O381	O	-0.123832	1.085973	1.085972
	H382	H	-0.105215	1.091482	1.070583
	H383	H	-0.134180	1.102896	1.076004
	O384	O	0.455251	0.511933	0.423599
	H385	H	0.445670	0.501612	0.410818
	H386	H	0.451415	0.512283	0.426091
	O387	O	0.731068	0.518595	-0.270577
	H388	H	0.731588	0.505180	-0.261184
	H389	H	0.732698	0.507629	-0.262012
	O390	O	0.294039	0.460222	0.733875
	H391	H	0.301103	0.467818	0.720628
	H392	H	0.268526	0.462249	0.761828
	O393	O	0.543936	0.271960	0.300153
	H394	H	0.553133	0.248384	0.276856
	H395	H	0.559731	0.278380	0.301605
	O396	O	0.070205	0.947392	0.965488
	H397	H	0.073832	0.949151	0.958349
	H398	H	0.061875	0.944320	0.971873
	O399	O	0.052582	0.203743	1.232265
	H400	H	0.061927	0.230607	1.255338
	H401	H	0.077120	0.199470	1.216111
	O402	O	0.594308	0.546484	0.574238
	H403	H	0.586245	0.543188	0.584323
	H404	H	0.587138	0.545971	0.567247
	O405	O	1.244162	0.109221	0.995140
	H406	H	1.247375	0.104672	0.987508
	H407	H	1.253321	0.143503	1.001759
	O408	O	-0.006953	0.086883	0.037610
	H409	H	-0.010182	0.074741	0.029909
	H410	H	-0.015679	0.102792	0.045374
	O411	O	0.597253	0.618672	0.335894
	H412	H	0.584960	0.609237	0.343654
	H413	H	0.602218	0.633492	0.320979
	O414	O	0.880417	0.135191	0.098084
	H415	H	0.874734	0.139323	0.098004
	H416	H	0.884128	0.116498	0.084356
	O417	O	0.719427	0.705980	0.537103
	H418	H	0.716008	0.705224	0.543591
	H419	H	0.724294	0.713857	0.543487
	O420	O	0.203659	0.803413	0.204006
	H421	H	0.183603	0.822639	0.199881
	H422	H	0.193938	0.821059	0.188479
	O423	O	0.349976	0.380226	0.369203
	H424	H	0.363975	0.385905	0.380064
	H425	H	0.348751	0.399986	0.361927
	O426	O	0.734786	0.451589	0.295565
	H427	H	0.736649	0.468762	0.282751
	H428	H	0.749543	0.455476	0.292907
	O429	O	1.305741	1.402764	0.526576
	H430	H	1.316450	1.401960	0.529229
	H431	H	1.303064	1.386114	0.547702
	O432	O	0.583492	0.328171	0.583160
	H433	H	0.605167	0.318951	0.569865
	H434	H	0.570132	0.326011	0.571002
	O435	O	0.233740	0.957789	-0.203068
	H436	H	0.237823	0.931586	-0.198602
	H437	H	0.254357	0.940642	-0.223565
	O438	O	-0.191180	-0.058906	-0.035597
	H439	H	-0.181184	-0.062622	-0.038953
	H440	H	-0.204579	-0.047875	-0.035462
	O441	O	-0.080115	-0.174402	-0.013014
	H442	H	-0.077217	-0.175270	-0.030714
	H443	H	-0.060486	-0.178110	-0.014729
	O444	O	-0.204117	0.018780	-0.199819
	H445	H	-0.208718	0.031421	-0.204655
	H446	H	-0.215305	0.030635	-0.213768
	O447	O	0.200047	1.173576	0.823434
	H448	H	0.193286	1.160938	0.853570
	H449	H	0.168267	1.155887	0.824145
	O450	O	-0.200461	0.780175	1.045131
	H451	H	-0.222080	0.763567	1.034826
	H452	H	-0.179278	0.787001	1.034749
	O453	O	0.500047	0.272936	0.472482
	H454	H	0.511847	0.273532	0.451054
	H455	H	0.502290	0.274277	0.477401
	O456	O	0.106437	0.177099	1.196425
	H457	H	0.112956	0.144523	1.191992
	H458	H	0.135286	0.193718	1.218035
	O459	O	0.452314	0.537246	0.729708
	H460	H	0.473356	0.544487	0.724460
	H461	H	0.452788	0.511287	0.737249
	O462	O	0.474840	0.387757	0.582944
	H463	H	0.459596	0.395767	0.579469
	H464	H	0.480468	0.365745	0.585843
	O465	O	0.871399	0.209898	0.034599
	H466	H	0.864948	0.221382	0.042244
	H467	H	0.877583	0.198687	0.036767
	O468	O	-0.195947	0.962864	0.217719
	H469	H	-0.201490	0.973280	0.228349
	H470	H	-0.184402	0.969279	0.217671
	O471	O	0.729590	0.552439	0.438660
	H472	H	0.732698	0.552306	0.438359
	H473	H	0.715885	0.564332	0.440584
	O474	O	-0.280413	1.692254	-0.281535
	H475	H	-0.286848	1.653591	-0.279588
	H476	H	-0.298446	1.688771	-0.308686
	O477	O	0.236857	0.819772	1.007534
	H478	H	0.232012	0.829185	1.016983
	H479	H	0.244439	0.814998	1.007477
	O480	O	0.578573	0.465218	0.735387
	H481	H	0.570951	0.447312	0.736948
	H482	H	0.571591	0.452864	0.736527
	O483	O	0.323933	0.676843	0.703418
	H484	H	0.345002	0.667570	0.676456
	H485	H	0.333128	0.656131	0.694329
	O486	O	1.293952	-0.447966	0.561712
	H487	H	1.287605	-0.446963	0.548889
	H488	H	1.290784	-0.456373	0.557035
	O489	O	0.816050	0.794157	0.210442
	H490	H	0.811022	0.795304	0.170136
	H491	H	0.813347	0.822623	0.223028
