data_Molecule from HDF5

_cell_length_a		16.387788
_cell_length_b		16.001476
_cell_length_c		16.157924
_cell_angle_alpha	90.392339
_cell_angle_beta	89.315692
_cell_angle_gamma	89.945203
_symmetry_space_group_name_H-M	'P 1'
_symmetry_Int_Tables_number		1

loop_
	_symmetry_equiv_pos_as_xyz
	x,y,z

loop_
	_atom_site_label
	_atom_site_type_symbol
	_atom_site_fract_x
	_atom_site_fract_y
	_atom_site_fract_z
	H0	H	0.393913	0.841515	0.723470
	H1	H	0.590444	0.174141	0.722185
	H2	H	0.593510	0.841613	0.294812
	H3	H	0.401654	0.175599	0.303214
	H4	H	0.716206	0.403401	0.848148
	H5	H	0.709511	0.612555	0.174621
	H6	H	0.279681	0.609852	0.847186
	H7	H	0.277323	0.406223	0.173371
	H8	H	0.831046	0.720615	0.417867
	H9	H	0.158969	0.721840	0.606451
	H10	H	0.830570	0.294980	0.609469
	H11	H	0.158538	0.295005	0.411724
	H12	H	0.832250	0.409497	0.729273
	H13	H	0.158525	0.606573	0.724166
	H14	H	0.831511	0.607089	0.299119
	H15	H	0.156237	0.405181	0.289977
	H16	H	0.400259	0.717928	0.845024
	H17	H	0.586892	0.720491	0.175989
	H18	H	0.594836	0.294376	0.845202
	H19	H	0.399419	0.299546	0.176403
	H20	H	0.710520	0.842260	0.405472
	H21	H	0.709383	0.171657	0.611168
	H22	H	0.278439	0.842409	0.610542
	H23	H	0.281439	0.172954	0.410727
	H24	H	0.896544	0.340499	0.221135
	H25	H	0.089247	0.673972	0.222156
	H26	H	0.095798	0.341529	0.795193
	H27	H	0.901653	0.674840	0.804259
	H28	H	0.213346	0.904307	0.346573
	H29	H	0.209911	0.111231	0.674074
	H30	H	0.781169	0.107190	0.345229
	H31	H	0.774439	0.904180	0.671924
	H32	H	0.331122	0.221633	0.917676
	H33	H	0.658480	0.222724	0.106233
	H34	H	0.330723	0.795972	0.108044
	H35	H	0.656988	0.791934	0.908824
	H36	H	0.332349	0.911062	0.227233
	H37	H	0.658644	0.107966	0.223972
	H38	H	0.331544	0.107684	0.797651
	H39	H	0.655866	0.904152	0.789808
	H40	H	0.900985	0.217928	0.343675
	H41	H	0.087393	0.219449	0.676614
	H42	H	0.093100	0.793805	0.344808
	H43	H	0.898258	0.799580	0.676530
	H44	H	0.211747	0.342570	0.907617
	H45	H	0.209587	0.672598	0.113791
	H46	H	0.778928	0.342582	0.111726
	H47	H	0.780968	0.672532	0.911312
	H48	H	0.393567	0.128994	0.604328
	H49	H	0.586963	0.886521	0.604792
	H50	H	0.598678	0.127912	0.424412
	H51	H	0.400274	0.886712	0.416988
	H52	H	0.590816	0.412578	0.131272
	H53	H	0.585466	0.595834	0.894767
	H54	H	0.400894	0.611458	0.132003
	H55	H	0.399281	0.416507	0.890814
	H56	H	0.111730	0.596050	0.406637
	H57	H	0.876772	0.605745	0.613716
	H58	H	0.107295	0.414670	0.592042
	H59	H	0.882347	0.422701	0.421886
	H60	H	0.110278	0.423207	0.610073
	H61	H	0.879190	0.605026	0.606004
	H62	H	0.113577	0.608647	0.418339
	H63	H	0.874546	0.413113	0.405043
	H64	H	0.388796	0.596056	0.130665
	H65	H	0.592298	0.602866	0.890613
	H66	H	0.590687	0.422254	0.128679
	H67	H	0.405339	0.418170	0.893092
	H68	H	0.589503	0.130917	0.408206
	H69	H	0.579824	0.890264	0.597454
	H70	H	0.404665	0.127531	0.609694
	H71	H	0.404701	0.887402	0.416126
	H72	H	0.901457	0.626232	0.099339
	H73	H	0.085108	0.389859	0.097431
	H74	H	0.092291	0.628843	0.916521
	H75	H	0.905521	0.385711	0.911029
	H76	H	0.088898	0.914300	0.628878
	H77	H	0.080455	0.101289	0.395355
	H78	H	0.912856	0.100180	0.623430
	H79	H	0.887852	0.912600	0.386371
	H80	H	0.607100	0.093149	0.917887
	H81	H	0.379334	0.103468	0.105629
	H82	H	0.609765	0.915512	0.097520
	H83	H	0.379472	0.910921	0.922440
	H84	H	0.611643	0.918055	0.106352
	H85	H	0.378535	0.100999	0.110412
	H86	H	0.612759	0.100175	0.905401
	H87	H	0.380046	0.920999	0.918213
	H88	H	0.891904	0.110904	0.633001
	H89	H	0.097906	0.107809	0.387348
	H90	H	0.090267	0.919607	0.628814
	H91	H	0.907129	0.926191	0.397166
	H92	H	0.085440	0.626266	0.918023
	H93	H	0.090353	0.387889	0.097849
	H94	H	0.894207	0.629826	0.107628
	H95	H	0.910931	0.392205	0.926229
	H96	H	0.403988	0.123630	0.597104
	H97	H	0.589509	0.887987	0.594306
	H98	H	0.580155	0.123183	0.423405
	H99	H	0.402756	0.889004	0.419942
	H100	H	0.583729	0.415810	0.127246
	H101	H	0.595467	0.592887	0.892916
	H102	H	0.407865	0.593638	0.123972
	H103	H	0.403561	0.412356	0.891366
	H104	H	0.107308	0.592521	0.422302
	H105	H	0.880053	0.598438	0.610312
	H106	H	0.114501	0.404240	0.606983
	H107	H	0.876423	0.402387	0.421873
	H108	H	0.904549	0.627317	0.110317
	H109	H	0.086927	0.387624	0.101825
	H110	H	0.090641	0.625795	0.924191
	H111	H	0.895884	0.386968	0.924597
	H112	H	0.085273	0.917921	0.627554
	H113	H	0.096456	0.087708	0.393983
	H114	H	0.891823	0.085901	0.625592
	H115	H	0.910663	0.901862	0.390052
	H116	H	0.612236	0.107101	0.918661
	H117	H	0.377708	0.106169	0.109665
	H118	H	0.613538	0.909308	0.103606
	H119	H	0.375925	0.911858	0.912489
	C120	C	0.372185	0.016721	0.631992
	C121	C	0.613962	0.998109	0.629023
	C122	C	0.617546	0.017025	0.388220
	C123	C	0.375083	0.998379	0.390256
	C124	C	0.618127	0.386457	0.020088
	C125	C	0.617128	0.628286	1.001597
	C126	C	0.372207	0.629050	0.019945
	C127	C	0.373999	0.387428	1.001082
	C128	C	0.002832	0.628091	0.389766
	C129	C	0.986780	0.631163	0.635522
	C130	C	0.002858	0.385640	0.632829
	C131	C	0.985547	0.383979	0.386913
	C132	C	0.872115	0.517054	0.133362
	C133	C	0.115570	0.498451	0.130072
	C134	C	0.117969	0.516931	0.889205
	C135	C	0.875889	0.498471	0.892435
	C136	C	0.116925	0.886845	0.519209
	C137	C	0.117454	0.128753	0.501569
	C138	C	0.872588	0.127767	0.518039
	C139	C	0.873012	0.885827	0.500523
	C140	C	0.503135	0.129750	0.888008
	C141	C	0.486812	0.131509	0.134136
	C142	C	0.503464	0.886426	0.131608
	C143	C	0.485631	0.884895	0.887127
	C144	C	0.374173	0.891372	0.686327
	C145	C	0.610799	0.123980	0.684617
	C146	C	0.614410	0.891438	0.332120
	C147	C	0.379738	0.125085	0.338639
	C148	C	0.676041	0.385586	0.896461
	C149	C	0.671199	0.630131	0.125476
	C150	C	0.317850	0.628145	0.895979
	C151	C	0.316699	0.387813	0.124849
	C152	C	0.879978	0.683133	0.395678
	C153	C	0.110045	0.684688	0.628682
	C154	C	0.879755	0.331934	0.630653
	C155	C	0.109059	0.330484	0.389804
	C156	C	0.880717	0.388593	0.690246
	C157	C	0.109851	0.627629	0.687454
	C158	C	0.880241	0.626497	0.336683
	C159	C	0.107964	0.385539	0.329495
	C160	C	0.377564	0.682337	0.894745
	C161	C	0.610148	0.683741	0.126348
	C162	C	0.615909	0.331131	0.895127
	C163	C	0.377496	0.334788	0.126430
	C164	C	0.672316	0.891722	0.387618
	C165	C	0.670102	0.122740	0.629557
	C166	C	0.316792	0.891629	0.630112
	C167	C	0.320072	0.123653	0.392143
	C168	C	0.875216	0.391009	0.185795
	C169	C	0.111191	0.623791	0.185565
	C170	C	0.116214	0.391511	0.832705
	C171	C	0.879890	0.624620	0.839815
	C172	C	0.173815	0.885785	0.395368
	C173	C	0.171833	0.129624	0.625007
	C174	C	0.818861	0.126556	0.394244
	C175	C	0.814850	0.886222	0.623663
	C176	C	0.380145	0.184661	0.894530
	C177	C	0.609847	0.185473	0.128136
	C178	C	0.379948	0.833051	0.128908
	C179	C	0.608068	0.829245	0.888291
	C180	C	0.380787	0.890083	0.188303
	C181	C	0.609711	0.128787	0.187052
	C182	C	0.380162	0.127715	0.835165
	C183	C	0.607501	0.885100	0.829015
	C184	C	0.878607	0.181443	0.393390
	C185	C	0.110874	0.183516	0.626413
	C186	C	0.114084	0.831219	0.394382
	C187	C	0.876386	0.834191	0.626118
	C188	C	0.173687	0.392069	0.888757
	C189	C	0.170980	0.623022	0.131466
	C190	C	0.816924	0.392077	0.130995
	C191	C	0.820165	0.623501	0.893218
	C192	C	0.394135	0.104102	0.610338
	C193	C	0.591914	0.910801	0.605664
	C194	C	0.595957	0.104777	0.411809
	C195	C	0.396297	0.910305	0.411508
	C196	C	0.595207	0.410037	0.106624
	C197	C	0.596990	0.604270	0.915092
	C198	C	0.393052	0.607111	0.106546
	C199	C	0.396213	0.409167	0.914362
	C200	C	0.088716	0.605577	0.409975
	C201	C	0.900988	0.609433	0.616010
	C202	C	0.088511	0.407463	0.609679
	C203	C	0.900008	0.406166	0.409738
	C204	C	0.893661	0.605177	0.112270
	C205	C	0.093778	0.410910	0.106113
	C206	C	0.095919	0.604286	0.912494
	C207	C	0.897578	0.411105	0.914214
	C208	C	0.094615	0.910229	0.605929
	C209	C	0.097476	0.105875	0.414561
	C210	C	0.893003	0.105584	0.604862
	C211	C	0.895357	0.907234	0.413868
	C212	C	0.588559	0.106894	0.908021
	C213	C	0.400796	0.109903	0.114485
	C214	C	0.589424	0.907918	0.109067
	C215	C	0.400391	0.907870	0.910745
	Zn216	Zn	0.494268	0.007357	0.758241
	Zn217	Zn	0.495763	0.008600	0.262584
	Zn218	Zn	0.746795	0.508210	0.011417
	Zn219	Zn	0.244912	0.507721	0.010007
	Zn220	Zn	-0.005078	0.759072	0.511102
	Zn221	Zn	-0.005835	0.256228	0.509771
	Zn222	Zn	-0.004383	0.507727	0.764189
	Zn223	Zn	-0.006003	0.507032	0.258289
	Zn224	Zn	0.494429	0.755845	0.009571
	Zn225	Zn	0.495233	0.259874	0.010737
	Zn226	Zn	0.744102	0.006190	0.509258
	Zn227	Zn	0.246282	0.007202	0.510229
	N228	N	0.407850	0.970164	0.687781
	N229	N	0.576543	0.045518	0.684289
	N230	N	0.580920	0.970251	0.332591
	N231	N	0.413110	0.046183	0.337211
	N232	N	0.677633	0.419152	0.975171
	N233	N	0.675572	0.596356	0.046969
	N234	N	0.314394	0.595836	0.974825
	N235	N	0.314434	0.419799	0.045984
	N236	N	0.957198	0.684145	0.428105
	N237	N	0.032397	0.687212	0.597170
	N238	N	0.956654	0.330028	0.595700
	N239	N	0.032030	0.329388	0.424861
	N240	N	0.958395	0.421423	0.691685
	N241	N	0.032371	0.594873	0.691639
	N242	N	0.957785	0.593081	0.332672
	N243	N	0.030157	0.417879	0.327389
	N244	N	0.410794	0.683059	0.972518
	N245	N	0.577262	0.682911	0.048261
	N246	N	0.580658	0.331387	0.972932
	N247	N	0.412482	0.334462	0.048621
	N248	N	0.674297	0.970838	0.421682
	N249	N	0.672285	0.043494	0.595924
	N250	N	0.315434	0.970527	0.597105
	N251	N	0.316975	0.043691	0.423435
	N252	N	0.908713	0.469881	0.187278
	N253	N	0.077185	0.545191	0.184595
	N254	N	0.082161	0.470087	0.832930
	N255	N	0.913803	0.546008	0.839052
	N256	N	0.175612	0.919566	0.473861
	N257	N	0.176021	0.096267	0.546323
	N258	N	0.814721	0.094045	0.472935
	N259	N	0.812552	0.917570	0.544644
	N260	N	0.457427	0.186080	0.926618
	N261	N	0.532414	0.187475	0.096116
	N262	N	0.457252	0.830574	0.094498
	N263	N	0.531291	0.828865	0.923770
	N264	N	0.458460	0.922720	0.189926
	N265	N	0.532243	0.096029	0.190920
	N266	N	0.457632	0.094485	0.830886
	N267	N	0.530228	0.918894	0.828009
	N268	N	0.911185	0.182416	0.471508
	N269	N	0.077756	0.183153	0.548610
	N270	N	0.079440	0.831448	0.472456
	N271	N	0.911818	0.833640	0.548579
	N272	N	0.175015	0.471119	0.922992
	N273	N	0.173853	0.543870	0.097690
	N274	N	0.814887	0.471608	0.099137
	N275	N	0.817679	0.544041	0.925317
	O276	O	0.061670	-0.037559	-0.105017
	H277	H	0.055948	-0.040961	-0.106845
	H278	H	0.061257	-0.033208	-0.108512
	O279	O	0.517767	0.466269	0.587367
	H280	H	0.513362	0.475259	0.586910
	H281	H	0.513782	0.465235	0.585082
	O282	O	0.464388	0.511306	0.512999
	H283	H	0.467593	0.501828	0.512147
	H284	H	0.470484	0.514897	0.515807
	O285	O	0.990394	0.016568	0.905223
	H286	H	0.998099	0.013608	0.907997
	H287	H	1.000705	0.016920	0.900427
	O288	O	1.023115	0.026601	0.054174
	H289	H	1.025358	0.028125	0.057834
	H290	H	1.012426	0.027661	0.046317
	O291	O	0.587411	0.528411	0.538018
	H292	H	0.594311	0.522012	0.541658
	H293	H	0.573959	0.518328	0.534996
	O294	O	1.008166	0.012805	1.076178
	H295	H	1.005202	0.010462	1.081223
	H296	H	1.004673	0.015946	1.081361
	O297	O	0.014081	0.033262	-0.038639
	H298	H	0.013600	0.029917	-0.047647
	H299	H	0.011988	0.033062	-0.045506
	O300	O	0.503233	0.475064	0.492279
	H301	H	0.498914	0.478281	0.493285
	H302	H	0.506039	0.468476	0.490935
	O303	O	0.447123	0.447673	0.579705
	H304	H	0.446838	0.447756	0.588269
	H305	H	0.459026	0.446797	0.593783
	O306	O	0.926674	0.022371	0.010725
	H307	H	0.935311	0.022217	-0.003463
	H308	H	0.924920	0.029902	0.003120
	O309	O	0.041850	-0.077621	1.023189
	H310	H	0.036188	-0.073430	1.031281
	H311	H	0.045505	-0.081874	1.030383
	O312	O	1.464001	0.508087	0.495748
	H313	H	1.462096	0.512261	0.496998
	H314	H	1.466461	0.507777	0.501941
	O315	O	0.935827	-0.005544	0.042896
	H316	H	0.934706	-0.004296	0.036995
	H317	H	0.936620	-0.007408	0.052874
	O318	O	0.522949	0.553005	0.473933
	H319	H	0.521500	0.547744	0.481747
	H320	H	0.522976	0.556444	0.461604
	O321	O	-0.041290	1.046712	0.982246
	H322	H	-0.030608	1.055812	0.978410
	H323	H	-0.040127	1.042186	0.983847
	O324	O	1.030392	1.015987	0.010802
	H325	H	1.035335	1.016121	0.009287
	H326	H	1.027097	1.011488	0.014890
	O327	O	0.552472	0.439599	0.434422
	H328	H	0.542038	0.441496	0.430465
	H329	H	0.551495	0.432326	0.426159
	O330	O	0.962731	1.000783	0.024574
	H331	H	0.951516	0.990925	0.021731
	H332	H	0.966559	1.011353	0.026475
	O333	O	0.402145	0.530650	0.547586
	H334	H	0.401889	0.526062	0.559483
	H335	H	0.403775	0.529327	0.550269
	O336	O	0.433900	0.503612	0.476440
	H337	H	0.428772	0.508038	0.466172
	H338	H	0.440395	0.508488	0.480563
	O339	O	0.454018	0.455219	-0.446498
	H340	H	0.453320	0.456549	-0.445454
	H341	H	0.455563	0.453772	-0.432918
	O342	O	0.505259	0.561268	0.616174
	H343	H	0.504313	0.561142	0.616017
	H344	H	0.510308	0.571290	0.612725
	O345	O	0.638160	0.518611	0.556418
	H346	H	0.639930	0.514968	0.537352
	H347	H	0.642434	0.515879	0.542373
	O348	O	0.085551	0.029535	0.044386
	H349	H	0.085562	0.021475	0.049276
	H350	H	0.094093	0.032197	0.043563
	O351	O	0.041341	1.091865	1.026788
	H352	H	0.040428	1.086791	1.025490
	H353	H	0.034312	1.090482	1.039086
	O354	O	0.616924	0.450488	0.453156
	H355	H	0.616351	0.438498	0.447950
	H356	H	0.612221	0.440420	0.450868
	O357	O	-0.073386	1.041679	0.990822
	H358	H	-0.060855	1.042920	0.990211
	H359	H	-0.072452	1.047499	0.979292
