data_Molecule from HDF5

_cell_length_a		16.267204
_cell_length_b		16.537538
_cell_length_c		16.057674
_cell_angle_alpha	90.251065
_cell_angle_beta	90.046273
_cell_angle_gamma	89.736473
_symmetry_space_group_name_H-M	'P 1'
_symmetry_Int_Tables_number		1

loop_
	_symmetry_equiv_pos_as_xyz
	x,y,z

loop_
	_atom_site_label
	_atom_site_type_symbol
	_atom_site_fract_x
	_atom_site_fract_y
	_atom_site_fract_z
	H0	H	0.394538	0.822149	0.708504
	H1	H	0.594269	0.142244	0.708538
	H2	H	0.595412	0.821914	0.272251
	H3	H	0.393435	0.143248	0.275505
	H4	H	0.713788	0.379438	0.826607
	H5	H	0.712180	0.582968	0.154293
	H6	H	0.278822	0.583927	0.826679
	H7	H	0.281619	0.382941	0.154106
	H8	H	0.835257	0.703427	0.381736
	H9	H	0.155624	0.701712	0.596717
	H10	H	0.836411	0.260310	0.599579
	H11	H	0.154535	0.257275	0.382440
	H12	H	0.834666	0.382736	0.708520
	H13	H	0.159137	0.580052	0.704674
	H14	H	0.832131	0.578871	0.275362
	H15	H	0.158023	0.379146	0.273948
	H16	H	0.390942	0.701979	0.828155
	H17	H	0.603434	0.703152	0.152192
	H18	H	0.603590	0.260891	0.828420
	H19	H	0.391546	0.264193	0.151633
	H20	H	0.715811	0.823682	0.384077
	H21	H	0.717432	0.140021	0.599079
	H22	H	0.275684	0.821991	0.594472
	H23	H	0.272080	0.140436	0.387877
	H24	H	0.895718	0.321111	0.206545
	H25	H	0.093276	0.641451	0.207903
	H26	H	0.099227	0.322490	0.770771
	H27	H	0.897362	0.643662	0.775095
	H28	H	0.210099	0.880318	0.325881
	H29	H	0.208074	0.079066	0.654950
	H30	H	0.779370	0.081550	0.326156
	H31	H	0.778903	0.881992	0.654680
	H32	H	0.336713	0.205316	0.882573
	H33	H	0.657198	0.201428	0.096259
	H34	H	0.336266	0.763816	0.094894
	H35	H	0.656946	0.760279	0.881946
	H36	H	0.331165	0.888358	0.200029
	H37	H	0.658490	0.081284	0.207019
	H38	H	0.331155	0.079229	0.778813
	H39	H	0.658412	0.882512	0.773714
	H40	H	0.887516	0.201334	0.329438
	H41	H	0.101662	0.201653	0.651439
	H42	H	0.098265	0.762065	0.327039
	H43	H	0.891107	0.763311	0.653986
	H44	H	0.218446	0.323229	0.884753
	H45	H	0.213612	0.641387	0.094025
	H46	H	0.775329	0.323199	0.094802
	H47	H	0.775087	0.641084	0.886053
	H48	H	0.396356	0.099043	0.589694
	H49	H	0.583665	0.868380	0.586906
	H50	H	0.583682	0.096448	0.396425
	H51	H	0.404366	0.869679	0.401093
	H52	H	0.583882	0.389114	0.107199
	H53	H	0.578795	0.571351	0.875747
	H54	H	0.403307	0.569206	0.106308
	H55	H	0.413883	0.397767	0.876773
	H56	H	0.111486	0.572499	0.400266
	H57	H	0.879500	0.572674	0.584782
	H58	H	0.113102	0.384066	0.580159
	H59	H	0.882807	0.390875	0.407471
	H60	H	0.109703	0.388953	0.573171
	H61	H	0.879173	0.578289	0.577694
	H62	H	0.110580	0.574063	0.402210
	H63	H	0.880060	0.394543	0.396472
	H64	H	0.415053	0.574475	0.105188
	H65	H	0.586562	0.577800	0.870971
	H66	H	0.588584	0.391593	0.108293
	H67	H	0.412153	0.385472	0.871996
	H68	H	0.584307	0.093808	0.405786
	H69	H	0.581125	0.872349	0.572549
	H70	H	0.409288	0.093470	0.581566
	H71	H	0.397378	0.866112	0.397571
	H72	H	0.908906	0.593737	0.079708
	H73	H	0.084898	0.367998	0.082925
	H74	H	0.089805	0.593366	0.910161
	H75	H	0.912566	0.370925	0.898355
	H76	H	0.093192	0.886901	0.611425
	H77	H	0.094056	0.074056	0.368414
	H78	H	0.901274	0.067800	0.608650
	H79	H	0.897078	0.893979	0.372408
	H80	H	0.612009	0.070217	0.894481
	H81	H	0.380331	0.080489	0.074896
	H82	H	0.611380	0.894013	0.079875
	H83	H	0.379146	0.885301	0.903820
	H84	H	0.613895	0.889065	0.081570
	H85	H	0.382426	0.070971	0.079376
	H86	H	0.613523	0.080073	0.902541
	H87	H	0.383111	0.892751	0.904494
	H88	H	0.913317	0.068022	0.604083
	H89	H	0.081137	0.059395	0.376625
	H90	H	0.083119	0.898188	0.604691
	H91	H	0.913377	0.894541	0.377583
	H92	H	0.096626	0.600049	0.894914
	H93	H	0.092251	0.368613	0.074146
	H94	H	0.900476	0.595331	0.078018
	H95	H	0.903826	0.371159	0.906412
	H96	H	0.395237	0.094323	0.573714
	H97	H	0.594460	0.867578	0.577026
	H98	H	0.592130	0.096948	0.400831
	H99	H	0.404334	0.867205	0.392633
	H100	H	0.584388	0.395226	0.105347
	H101	H	0.589055	0.567166	0.873775
	H102	H	0.405073	0.581064	0.109847
	H103	H	0.401994	0.394300	0.871827
	H104	H	0.109751	0.571903	0.401678
	H105	H	0.882113	0.570758	0.576249
	H106	H	0.111101	0.393687	0.580663
	H107	H	0.877822	0.383440	0.399175
	H108	H	0.903075	0.596026	0.085854
	H109	H	0.095477	0.364623	0.084157
	H110	H	0.080139	0.594645	0.895150
	H111	H	0.901713	0.366464	0.895536
	H112	H	0.077560	0.883043	0.607951
	H113	H	0.073066	0.078052	0.373241
	H114	H	0.908903	0.078329	0.608772
	H115	H	0.907849	0.880637	0.370998
	H116	H	0.608210	0.069138	0.906605
	H117	H	0.377669	0.078209	0.084859
	H118	H	0.611645	0.889320	0.075984
	H119	H	0.379286	0.890639	0.897735
	C120	C	0.371678	-0.010056	0.612482
	C121	C	0.617063	0.974115	0.611940
	C122	C	0.617295	-0.009246	0.368331
	C123	C	0.371368	0.973321	0.367523
	C124	C	0.618059	0.360403	-0.000639
	C125	C	0.616917	0.603017	0.981245
	C126	C	0.376035	0.604233	-0.000992
	C127	C	0.377608	0.362553	0.981347
	C128	C	0.003966	0.602831	0.369400
	C129	C	0.987395	0.603611	0.610936
	C130	C	0.004913	0.359642	0.611120
	C131	C	0.986779	0.358807	0.369073
	C132	C	0.873817	0.489857	0.112059
	C133	C	0.119338	0.472692	0.112135
	C134	C	0.119944	0.490828	0.867985
	C135	C	0.874593	0.474448	0.868324
	C136	C	0.115512	0.859253	0.499406
	C137	C	0.114039	0.100779	0.481039
	C138	C	0.874977	0.102217	0.499509
	C139	C	0.874513	0.859708	0.481777
	C140	C	0.504189	0.103730	0.869834
	C141	C	0.487127	0.105669	0.111703
	C142	C	0.505275	0.861470	0.110162
	C143	C	0.487303	0.859633	0.869102
	C144	C	0.374099	0.869833	0.669785
	C145	C	0.615435	0.094151	0.670570
	C146	C	0.616097	0.870256	0.310254
	C147	C	0.372744	0.094401	0.312190
	C148	C	0.675987	0.359954	0.876135
	C149	C	0.674046	0.602681	0.105097
	C150	C	0.317294	0.603933	0.876192
	C151	C	0.319784	0.363128	0.104571
	C152	C	0.882988	0.662379	0.365542
	C153	C	0.107976	0.661694	0.613736
	C154	C	0.884147	0.301019	0.615836
	C155	C	0.107200	0.298359	0.365662
	C156	C	0.883141	0.361994	0.669902
	C157	C	0.109811	0.601332	0.667864
	C158	C	0.881256	0.600207	0.312486
	C159	C	0.108830	0.359170	0.311594
	C160	C	0.373696	0.662138	0.876618
	C161	C	0.620194	0.662538	0.103805
	C162	C	0.621213	0.300773	0.877135
	C163	C	0.374577	0.303979	0.103273
	C164	C	0.676090	0.871067	0.366123
	C165	C	0.676604	0.092970	0.615769
	C166	C	0.314861	0.869775	0.612981
	C167	C	0.312411	0.093149	0.368237
	C168	C	0.875327	0.369235	0.168514
	C169	C	0.115512	0.593324	0.169815
	C170	C	0.119636	0.370569	0.809205
	C171	C	0.875875	0.594923	0.811788
	C172	C	0.172220	0.860010	0.375381
	C173	C	0.170751	0.099796	0.605308
	C174	C	0.817036	0.101426	0.375966
	C175	C	0.817080	0.861263	0.605442
	C176	C	0.383886	0.163703	0.866531
	C177	C	0.608976	0.162154	0.113736
	C178	C	0.383961	0.803812	0.112313
	C179	C	0.608592	0.800768	0.865208
	C180	C	0.381456	0.865911	0.164588
	C181	C	0.609462	0.102801	0.169413
	C182	C	0.380959	0.101294	0.814581
	C183	C	0.609485	0.861694	0.811233
	C184	C	0.871051	0.161235	0.377551
	C185	C	0.117685	0.160422	0.603358
	C186	C	0.116461	0.801442	0.376061
	C187	C	0.872761	0.802419	0.605092
	C188	C	0.178724	0.370981	0.866299
	C189	C	0.175155	0.593438	0.113137
	C190	C	0.815326	0.370380	0.112896
	C191	C	0.815229	0.593614	0.867304
	C192	C	0.393931	0.073608	0.588624
	C193	C	0.593222	0.890935	0.586328
	C194	C	0.593669	0.074061	0.393612
	C195	C	0.394934	0.889559	0.390378
	C196	C	0.593003	0.384905	0.084889
	C197	C	0.591977	0.579122	0.895843
	C198	C	0.400572	0.581276	0.085114
	C199	C	0.402107	0.385816	0.895580
	C200	C	0.088702	0.579578	0.394049
	C201	C	0.902386	0.580486	0.586604
	C202	C	0.089304	0.382248	0.585439
	C203	C	0.902169	0.382649	0.393920
	C204	C	0.897218	0.573308	0.088215
	C205	C	0.097370	0.388921	0.087632
	C206	C	0.095800	0.574183	0.892875
	C207	C	0.899015	0.391027	0.892827
	C208	C	0.091639	0.882612	0.585618
	C209	C	0.089732	0.077037	0.395189
	C210	C	0.900600	0.078568	0.585106
	C211	C	0.898852	0.882954	0.396059
	C212	C	0.589270	0.080178	0.894220
	C213	C	0.402369	0.083345	0.086841
	C214	C	0.590183	0.884013	0.086047
	C215	C	0.402583	0.882725	0.894619
	Zn216	Zn	0.494678	-0.017519	0.741911
	Zn217	Zn	0.495226	-0.017273	0.238663
	Zn218	Zn	0.744666	0.482158	-0.009874
	Zn219	Zn	0.249362	0.482573	-0.009644
	Zn220	Zn	-0.005058	0.731738	0.490388
	Zn221	Zn	-0.004884	0.230110	0.490165
	Zn222	Zn	-0.003334	0.482228	0.738618
	Zn223	Zn	-0.004394	0.480526	0.241294
	Zn224	Zn	0.497343	0.731849	-0.009256
	Zn225	Zn	0.496739	0.233876	-0.010347
	Zn226	Zn	0.747404	-0.018174	0.490631
	Zn227	Zn	0.241745	-0.018838	0.490591
	N228	N	0.408551	0.945442	0.669884
	N229	N	0.579046	0.019273	0.668424
	N230	N	0.580450	0.945645	0.311277
	N231	N	0.408474	0.018958	0.311290
	N232	N	0.674401	0.396139	0.953288
	N233	N	0.672105	0.566044	0.028127
	N234	N	0.318842	0.568677	0.953496
	N235	N	0.321591	0.399002	0.027639
	N236	N	0.960165	0.663959	0.400281
	N237	N	0.030768	0.663057	0.578975
	N238	N	0.960870	0.299428	0.579977
	N239	N	0.030239	0.298039	0.400624
	N240	N	0.959202	0.397647	0.667132
	N241	N	0.033758	0.565675	0.665981
	N242	N	0.957485	0.563886	0.314531
	N243	N	0.032989	0.395879	0.313415
	N244	N	0.409661	0.662499	0.954208
	N245	N	0.585297	0.663058	0.025791
	N246	N	0.585912	0.300907	0.954838
	N247	N	0.409801	0.303494	0.025548
	N248	N	0.677209	0.946965	0.401470
	N249	N	0.677844	0.017286	0.580088
	N250	N	0.313186	0.945420	0.577973
	N251	N	0.311073	0.016780	0.401790
	N252	N	0.910866	0.444482	0.168223
	N253	N	0.081541	0.517372	0.169455
	N254	N	0.083704	0.446044	0.809974
	N255	N	0.911872	0.519616	0.812258
	N256	N	0.171862	0.895179	0.453032
	N257	N	0.168673	0.063384	0.528156
	N258	N	0.819074	0.065629	0.453118
	N259	N	0.817939	0.896018	0.527889
	N260	N	0.461695	0.165216	0.900047
	N261	N	0.531804	0.164289	0.078669
	N262	N	0.461842	0.800912	0.079191
	N263	N	0.531697	0.799439	0.900488
	N264	N	0.458031	0.900909	0.163757
	N265	N	0.532758	0.068569	0.168441
	N266	N	0.456918	0.064535	0.816623
	N267	N	0.533036	0.897665	0.813378
	N268	N	0.906470	0.161662	0.455311
	N269	N	0.083206	0.161206	0.525152
	N270	N	0.082415	0.800620	0.454438
	N271	N	0.907537	0.801079	0.526978
	N272	N	0.179211	0.446695	0.902017
	N273	N	0.177893	0.517331	0.078463
	N274	N	0.814115	0.446447	0.078719
	N275	N	0.814188	0.517619	0.901636
	O276	O	0.318142	0.560150	0.395323
	H277	H	0.324566	0.589496	0.392577
	H278	H	0.306076	0.568081	0.362422
	O279	O	0.413667	0.488084	0.386203
	H280	H	0.404939	0.496023	0.405665
	H281	H	0.401321	0.514233	0.380173
	O282	O	0.962316	-0.025671	1.117214
	H283	H	0.975110	-0.017858	1.118336
	H284	H	0.960157	-0.018951	1.115065
	O285	O	0.549170	0.489506	0.285754
	H286	H	0.546523	0.510049	0.276052
	H287	H	0.566663	0.483671	0.299572
	O288	O	1.124752	1.041822	0.949106
	H289	H	1.115671	1.050865	0.939089
	H290	H	1.127646	1.046145	0.942499
	O291	O	-0.163748	1.059190	0.050534
	H292	H	-0.172728	1.068838	0.034076
	H293	H	-0.164965	1.065143	0.042762
	O294	O	0.658688	0.275760	0.483052
	H295	H	0.656581	0.275572	0.458652
	H296	H	0.659520	0.264553	0.473737
	O297	O	0.438681	0.362494	0.421269
	H298	H	0.417908	0.361911	0.409868
	H299	H	0.432436	0.379235	0.418591
	O300	O	0.367632	0.383970	0.432338
	H301	H	0.351672	0.396420	0.432484
	H302	H	0.378489	0.388621	0.438388
	O303	O	0.493027	0.491532	0.683244
	H304	H	0.499973	0.497855	0.677798
	H305	H	0.494999	0.482946	0.680338
	O306	O	0.556287	0.409361	0.504580
	H307	H	0.551667	0.425755	0.513480
	H308	H	0.551082	0.410576	0.484370
	O309	O	0.425395	0.679226	0.416574
	H310	H	0.435626	0.664765	0.415818
	H311	H	0.419267	0.681386	0.433348
	O312	O	0.052897	-0.091079	0.123603
	H313	H	0.049429	-0.078524	0.113762
	H314	H	0.046747	-0.089063	0.104921
	O315	O	0.407634	0.357943	0.427781
	H316	H	0.399488	0.355400	0.426009
	H317	H	0.399396	0.356806	0.414741
	O318	O	0.097450	0.878668	0.965829
	H319	H	0.087683	0.860670	0.963834
	H320	H	0.088878	0.872607	0.968594
	O321	O	0.318451	0.596057	0.572188
	H322	H	0.293773	0.604503	0.566966
	H323	H	0.331860	0.587300	0.578051
	O324	O	0.066511	1.153388	0.103393
	H325	H	0.064302	1.159703	0.117676
	H326	H	0.074554	1.151556	0.099661
	O327	O	0.676797	0.656487	0.632009
	H328	H	0.667955	0.663285	0.643503
	H329	H	0.675280	0.631455	0.622665
	O330	O	-0.071054	0.002513	1.041709
	H331	H	-0.071876	0.003434	1.046290
	H332	H	-0.081293	0.000592	1.038082
	O333	O	-0.102852	-0.018228	0.974540
	H334	H	-0.103723	-0.012029	0.971976
	H335	H	-0.114724	-0.011249	0.969942
	O336	O	0.398920	0.446449	0.476245
	H337	H	0.414664	0.451790	0.484196
	H338	H	0.400955	0.460355	0.457535
	O339	O	0.669680	0.649069	0.463970
	H340	H	0.689317	0.648333	0.468059
	H341	H	0.658998	0.642042	0.498392
	O342	O	0.653896	-0.494145	0.616285
	H343	H	0.657821	-0.513761	0.609697
	H344	H	0.663098	-0.496379	0.608021
	O345	O	1.501847	0.396434	1.512132
	H346	H	1.490552	0.388122	1.507478
	H347	H	1.512998	0.389908	1.503016
	O348	O	1.028181	0.971061	-0.056921
	H349	H	1.025539	0.967035	-0.057591
	H350	H	1.025076	0.984847	-0.043895
	O351	O	0.672483	0.487471	0.499354
	H352	H	0.681378	0.471812	0.496314
	H353	H	0.660373	0.500366	0.508996
	O354	O	0.943289	0.007230	0.947553
	H355	H	0.952216	0.010106	0.943155
	H356	H	0.945190	0.020210	0.943534
	O357	O	0.561297	0.306439	0.324284
	H358	H	0.573684	0.311867	0.314352
	H359	H	0.537964	0.300859	0.310657
	O360	O	1.087068	1.064297	0.979252
	H361	H	1.091830	1.055539	0.976198
	H362	H	1.081935	1.069747	0.987743
	O363	O	0.087854	1.065183	0.973175
	H364	H	0.100466	1.044257	0.959925
	H365	H	0.090436	1.054908	0.988427
	O366	O	0.540082	0.487629	0.612146
	H367	H	0.559991	0.475489	0.622034
	H368	H	0.539455	0.483197	0.618661
	O369	O	-0.076921	0.904378	0.086572
	H370	H	-0.066920	0.910972	0.091023
	H371	H	-0.087396	0.912368	0.087102
	O372	O	0.441306	0.279909	0.668007
	H373	H	0.443890	0.260605	0.688061
	H374	H	0.413593	0.289355	0.660338
	O375	O	0.581359	0.469997	0.322531
	H376	H	0.598217	0.475173	0.318616
	H377	H	0.564181	0.460627	0.319925
	O378	O	0.916863	0.849189	0.105940
	H379	H	0.917738	0.846088	0.109751
	H380	H	0.913100	0.871014	0.097833
	O381	O	0.899626	-0.053363	-0.116956
	H382	H	0.905266	-0.048065	-0.109421
	H383	H	0.890620	-0.048051	-0.124082
	O384	O	1.062287	0.839810	0.046602
	H385	H	1.067006	0.853901	0.044598
	H386	H	1.049504	0.829524	0.052323
	O387	O	-0.653290	0.625824	0.302405
	H388	H	-0.636513	0.637542	0.302920
	H389	H	-0.638074	0.630293	0.312305
	O390	O	-0.121319	0.860089	-0.043403
	H391	H	-0.115664	0.860432	-0.027303
	H392	H	-0.122600	0.857380	-0.039546
	O393	O	0.954571	1.079795	0.855734
	H394	H	0.965622	1.077522	0.851429
	H395	H	0.953160	1.078483	0.847263
	O396	O	0.414629	0.618989	0.644340
	H397	H	0.408868	0.629613	0.663238
	H398	H	0.408034	0.613788	0.634716
	O399	O	0.101574	0.913643	1.044861
	H400	H	0.093590	0.892928	1.038853
	H401	H	0.094774	0.909713	1.037401
	O402	O	0.442628	0.571105	0.524795
	H403	H	0.448552	0.561393	0.530448
	H404	H	0.446600	0.560352	0.517359
	O405	O	0.906666	1.163884	-0.156263
	H406	H	0.898853	1.156959	-0.152414
	H407	H	0.907525	1.166435	-0.169172
	O408	O	1.008555	1.164815	0.026524
	H409	H	1.016027	1.167099	0.040219
	H410	H	1.023531	1.161867	0.038583
	O411	O	1.140382	-0.132694	0.877894
	H412	H	1.137112	-0.129555	0.876232
	H413	H	1.145668	-0.142412	0.866567
	O414	O	0.692313	0.523481	0.553043
	H415	H	0.704118	0.516800	0.564187
	H416	H	0.674017	0.517273	0.546834
	O417	O	0.361392	0.480165	0.558708
	H418	H	0.362828	0.486028	0.539622
	H419	H	0.357292	0.484328	0.562421
