data_Molecule from HDF5

_cell_length_a		16.418252
_cell_length_b		16.339656
_cell_length_c		16.351034
_cell_angle_alpha	90.062457
_cell_angle_beta	90.216766
_cell_angle_gamma	89.978027
_symmetry_space_group_name_H-M	'P 1'
_symmetry_Int_Tables_number		1

loop_
	_symmetry_equiv_pos_as_xyz
	x,y,z

loop_
	_atom_site_label
	_atom_site_type_symbol
	_atom_site_fract_x
	_atom_site_fract_y
	_atom_site_fract_z
	H0	H	0.384227	0.845167	0.717039
	H1	H	0.595959	0.162757	0.717356
	H2	H	0.597935	0.846461	0.271949
	H3	H	0.382581	0.162951	0.274285
	H4	H	0.711789	0.397351	0.839686
	H5	H	0.715867	0.614239	0.154838
	H6	H	0.266624	0.611757	0.840603
	H7	H	0.266845	0.395688	0.155912
	H8	H	0.831019	0.725100	0.391150
	H9	H	0.148551	0.724936	0.603072
	H10	H	0.834079	0.280232	0.603771
	H11	H	0.148473	0.280614	0.390590
	H12	H	0.833072	0.397853	0.718904
	H13	H	0.148597	0.611248	0.720715
	H14	H	0.831746	0.610165	0.274110
	H15	H	0.148430	0.395109	0.273839
	H16	H	0.384482	0.724138	0.838470
	H17	H	0.600982	0.730136	0.154421
	H18	H	0.594735	0.284199	0.838325
	H19	H	0.383027	0.279711	0.155952
	H20	H	0.713508	0.845458	0.387763
	H21	H	0.715040	0.160387	0.605610
	H22	H	0.267380	0.845079	0.602344
	H23	H	0.264378	0.160954	0.386651
	H24	H	0.885284	0.344436	0.217951
	H25	H	0.096095	0.663087	0.220163
	H26	H	0.096360	0.345410	0.777090
	H27	H	0.883355	0.662225	0.776215
	H28	H	0.209671	0.897494	0.337021
	H29	H	0.213931	0.110564	0.654325
	H30	H	0.764245	0.113839	0.338593
	H31	H	0.769565	0.897514	0.655419
	H32	H	0.331349	0.224787	0.891720
	H33	H	0.649176	0.225649	0.104492
	H34	H	0.331334	0.783200	0.100237
	H35	H	0.649646	0.781927	0.889792
	H36	H	0.331434	0.897693	0.217366
	H37	H	0.647240	0.112533	0.222522
	H38	H	0.331886	0.108531	0.774242
	H39	H	0.649652	0.898681	0.774828
	H40	H	0.881744	0.228095	0.338423
	H41	H	0.097127	0.224395	0.656180
	H42	H	0.095376	0.780468	0.337752
	H43	H	0.885331	0.783194	0.655841
	H44	H	0.212385	0.346320	0.891592
	H45	H	0.213032	0.663352	0.106768
	H46	H	0.766569	0.345557	0.106871
	H47	H	0.767888	0.661619	0.891267
	H48	H	0.399767	0.117702	0.582860
	H49	H	0.579090	0.891589	0.579640
	H50	H	0.575329	0.113118	0.415578
	H51	H	0.404942	0.892147	0.408625
	H52	H	0.575893	0.422895	0.108921
	H53	H	0.571470	0.595157	0.885282
	H54	H	0.403504	0.591712	0.111516
	H55	H	0.400429	0.409883	0.882697
	H56	H	0.100049	0.583634	0.409051
	H57	H	0.877518	0.592233	0.586703
	H58	H	0.105231	0.408978	0.585296
	H59	H	0.878986	0.411252	0.415741
	H60	H	0.102180	0.419720	0.582859
	H61	H	0.874684	0.592824	0.589311
	H62	H	0.105530	0.595337	0.404375
	H63	H	0.880828	0.423862	0.408659
	H64	H	0.404856	0.592169	0.110648
	H65	H	0.585558	0.595832	0.879846
	H66	H	0.574137	0.409553	0.112498
	H67	H	0.396321	0.418826	0.883951
	H68	H	0.580850	0.118176	0.410622
	H69	H	0.585557	0.887197	0.586108
	H70	H	0.402992	0.116958	0.585355
	H71	H	0.397367	0.889723	0.410230
	H72	H	0.905251	0.616459	0.085832
	H73	H	0.073788	0.392254	0.087260
	H74	H	0.081843	0.617387	0.917180
	H75	H	0.901098	0.388089	0.905793
	H76	H	0.076340	0.917054	0.608431
	H77	H	0.078972	0.091540	0.382421
	H78	H	0.903678	0.086920	0.606873
	H79	H	0.896291	0.911164	0.379588
	H80	H	0.603315	0.093251	0.909148
	H81	H	0.380244	0.082950	0.085752
	H82	H	0.602780	0.919717	0.087444
	H83	H	0.376610	0.917714	0.899859
	H84	H	0.603892	0.913925	0.083219
	H85	H	0.373984	0.096638	0.091911
	H86	H	0.605238	0.092919	0.905580
	H87	H	0.375646	0.908289	0.907306
	H88	H	0.906001	0.092770	0.608052
	H89	H	0.077110	0.090427	0.382848
	H90	H	0.080075	0.911826	0.611326
	H91	H	0.899447	0.922316	0.384733
	H92	H	0.081022	0.621203	0.904843
	H93	H	0.081612	0.391792	0.079165
	H94	H	0.902104	0.615564	0.081820
	H95	H	0.903412	0.389561	0.910433
	H96	H	0.402769	0.116135	0.581174
	H97	H	0.576397	0.888791	0.589145
	H98	H	0.572914	0.116411	0.407626
	H99	H	0.400483	0.888407	0.403333
	H100	H	0.587126	0.415883	0.114362
	H101	H	0.580953	0.582755	0.887750
	H102	H	0.403650	0.592535	0.111869
	H103	H	0.406192	0.417419	0.886734
	H104	H	0.101910	0.594647	0.417586
	H105	H	0.875480	0.595887	0.586797
	H106	H	0.106013	0.417248	0.593614
	H107	H	0.874775	0.412871	0.402216
	H108	H	0.900225	0.618084	0.085697
	H109	H	0.083792	0.387633	0.089879
	H110	H	0.070489	0.616086	0.910669
	H111	H	0.898686	0.389377	0.910941
	H112	H	0.082859	0.917273	0.610314
	H113	H	0.077468	0.092485	0.383118
	H114	H	0.900247	0.091375	0.610523
	H115	H	0.908376	0.912343	0.384188
	H116	H	0.604630	0.096363	0.907395
	H117	H	0.378821	0.096576	0.076311
	H118	H	0.600643	0.919690	0.080554
	H119	H	0.380233	0.918708	0.910914
	C120	C	0.368992	0.012088	0.616281
	C121	C	0.612905	0.994089	0.618267
	C122	C	0.610184	0.011820	0.376536
	C123	C	0.367316	0.994684	0.374021
	C124	C	0.611385	0.383398	0.006831
	C125	C	0.613262	0.625922	0.988542
	C126	C	0.370410	0.624836	0.006579
	C127	C	0.368349	0.382198	0.989231
	C128	C	-0.002180	0.624398	0.376553
	C129	C	0.981272	0.626120	0.620355
	C130	C	0.000109	0.382129	0.619454
	C131	C	0.982304	0.382163	0.375444
	C132	C	0.869319	0.511996	0.118201
	C133	C	0.112682	0.495533	0.119332
	C134	C	0.111090	0.513394	0.877649
	C135	C	0.868704	0.494059	0.876187
	C136	C	0.111594	0.882232	0.505026
	C137	C	0.111683	0.124664	0.487553
	C138	C	0.868663	0.125177	0.504508
	C139	C	0.869031	0.882652	0.487752
	C140	C	0.499154	0.125694	0.874918
	C141	C	0.481752	0.125864	0.118682
	C142	C	0.498400	0.883797	0.116778
	C143	C	0.482146	0.881953	0.873913
	C144	C	0.366166	0.892664	0.677036
	C145	C	0.614693	0.114436	0.678370
	C146	C	0.614848	0.893382	0.313369
	C147	C	0.364225	0.114601	0.313599
	C148	C	0.671765	0.379959	0.887287
	C149	C	0.675167	0.630936	0.107413
	C150	C	0.308030	0.628728	0.887689
	C151	C	0.307462	0.378288	0.108375
	C152	C	0.878552	0.684742	0.373413
	C153	C	0.100753	0.685850	0.622119
	C154	C	0.881304	0.320884	0.621967
	C155	C	0.101029	0.320872	0.372633
	C156	C	0.880698	0.379290	0.679341
	C157	C	0.100889	0.628382	0.680314
	C158	C	0.879213	0.627801	0.314648
	C159	C	0.101024	0.378285	0.314592
	C160	C	0.366778	0.684703	0.886385
	C161	C	0.617759	0.688980	0.106987
	C162	C	0.613247	0.323632	0.886698
	C163	C	0.365462	0.320445	0.108458
	C164	C	0.672752	0.893135	0.370692
	C165	C	0.673977	0.113314	0.622556
	C166	C	0.307996	0.892783	0.619838
	C167	C	0.305442	0.113640	0.369882
	C168	C	0.866511	0.392434	0.178979
	C169	C	0.114947	0.615276	0.180480
	C170	C	0.114390	0.393577	0.816821
	C171	C	0.865831	0.614100	0.816029
	C172	C	0.170578	0.879073	0.384859
	C173	C	0.173832	0.128395	0.606705
	C174	C	0.805574	0.130459	0.386093
	C175	C	0.809282	0.880020	0.607650
	C176	C	0.379017	0.184822	0.873518
	C177	C	0.601180	0.186333	0.122280
	C178	C	0.379168	0.823035	0.119013
	C179	C	0.601659	0.821762	0.871750
	C180	C	0.379291	0.880134	0.177506
	C181	C	0.600437	0.129629	0.180966
	C182	C	0.379372	0.127090	0.814862
	C183	C	0.601923	0.880135	0.814498
	C184	C	0.864483	0.187234	0.385855
	C185	C	0.115185	0.184953	0.607787
	C186	C	0.113554	0.820913	0.385445
	C187	C	0.867077	0.822994	0.607991
	C188	C	0.172198	0.394085	0.874027
	C189	C	0.173213	0.615369	0.123878
	C190	C	0.807733	0.393019	0.123112
	C191	C	0.808069	0.613851	0.873270
	C192	C	0.394390	0.095253	0.590471
	C193	C	0.587616	0.910811	0.592519
	C194	C	0.583860	0.094284	0.403628
	C195	C	0.393437	0.911620	0.399976
	C196	C	0.586398	0.408863	0.090239
	C197	C	0.586841	0.598984	0.905849
	C198	C	0.396632	0.599439	0.089568
	C199	C	0.393534	0.408060	0.906128
	C200	C	0.080911	0.598663	0.402753
	C201	C	0.897622	0.600897	0.595044
	C202	C	0.082881	0.407789	0.594584
	C203	C	0.899736	0.408522	0.401424
	C204	C	0.895150	0.595082	0.091947
	C205	C	0.087296	0.412284	0.092938
	C206	C	0.085327	0.596502	0.903341
	C207	C	0.893979	0.410744	0.901552
	C208	C	0.087070	0.907951	0.588275
	C209	C	0.085450	0.099089	0.404341
	C210	C	0.895533	0.098292	0.586906
	C211	C	0.894085	0.908024	0.404611
	C212	C	0.582677	0.101059	0.900045
	C213	C	0.399110	0.099646	0.092290
	C214	C	0.580910	0.910294	0.091105
	C215	C	0.399206	0.907426	0.898909
	Zn216	Zn	0.490547	0.003583	0.745209
	Zn217	Zn	0.489955	0.004436	0.246925
	Zn218	Zn	0.740880	0.503257	-0.001858
	Zn219	Zn	0.240439	0.505031	-0.001542
	Zn220	Zn	-0.010198	0.753980	0.497138
	Zn221	Zn	-0.009340	0.253655	0.496770
	Zn222	Zn	-0.009345	0.503918	0.748560
	Zn223	Zn	-0.009281	0.503610	0.246505
	Zn224	Zn	0.490747	0.753653	-0.003512
	Zn225	Zn	0.490870	0.253972	-0.002598
	Zn226	Zn	0.740318	0.003188	0.496114
	Zn227	Zn	0.239698	0.003129	0.495517
	N228	N	0.403577	0.967832	0.674775
	N229	N	0.577344	0.039073	0.675812
	N230	N	0.576620	0.968085	0.316794
	N231	N	0.402103	0.039664	0.316080
	N232	N	0.670748	0.416350	0.963116
	N233	N	0.672795	0.592606	0.032682
	N234	N	0.310120	0.592237	0.963322
	N235	N	0.309272	0.415951	0.033296
	N236	N	0.953460	0.682836	0.410909
	N237	N	0.025315	0.684456	0.585498
	N238	N	0.956555	0.322576	0.585407
	N239	N	0.026118	0.323236	0.409667
	N240	N	0.955465	0.416743	0.677925
	N241	N	0.025213	0.592168	0.679307
	N242	N	0.954589	0.590854	0.316699
	N243	N	0.026192	0.415881	0.316309
	N244	N	0.405042	0.682408	0.961141
	N245	N	0.580087	0.686147	0.031834
	N246	N	0.576384	0.325434	0.962044
	N247	N	0.402675	0.322632	0.033269
	N248	N	0.669897	0.967783	0.409498
	N249	N	0.672998	0.037653	0.585994
	N250	N	0.309745	0.968087	0.582602
	N251	N	0.307197	0.037975	0.406700
	N252	N	0.904326	0.467303	0.175954
	N253	N	0.078418	0.539792	0.178054
	N254	N	0.076775	0.468751	0.819129
	N255	N	0.902449	0.538493	0.817321
	N256	N	0.169437	0.916512	0.460116
	N257	N	0.171906	0.091869	0.530924
	N258	N	0.808290	0.092223	0.460926
	N259	N	0.810327	0.916360	0.531833
	N260	N	0.454711	0.184305	0.909793
	N261	N	0.526403	0.183894	0.084160
	N262	N	0.454190	0.825017	0.082101
	N263	N	0.526374	0.822945	0.908118
	N264	N	0.454439	0.917157	0.176282
	N265	N	0.525205	0.093018	0.178933
	N266	N	0.455051	0.091158	0.815684
	N267	N	0.526640	0.916725	0.815508
	N268	N	0.903074	0.183948	0.460375
	N269	N	0.077487	0.183023	0.532608
	N270	N	0.077567	0.822720	0.461143
	N271	N	0.903546	0.824431	0.532542
	N272	N	0.170260	0.469591	0.911026
	N273	N	0.172133	0.539650	0.086920
	N274	N	0.809052	0.468724	0.086359
	N275	N	0.809744	0.538309	0.910056
	O276	O	0.285341	0.708158	0.470916
	H277	H	0.278065	0.716673	0.462984
	H278	H	0.292879	0.714630	0.467504
	O279	O	0.670390	0.690767	0.680297
	H280	H	0.682971	0.671944	0.658242
	H281	H	0.679761	0.665721	0.662081
	O282	O	0.459450	0.293123	0.500211
	H283	H	0.486025	0.265613	0.495529
	H284	H	0.433469	0.284152	0.504965
	O285	O	0.892242	1.040780	-0.199620
	H286	H	0.898042	1.031063	-0.199345
	H287	H	0.877085	1.040018	-0.208718
	O288	O	0.316670	0.563112	0.535486
	H289	H	0.322461	0.581076	0.540529
	H290	H	0.315705	0.565586	0.539291
	O291	O	0.483132	0.720077	0.656018
	H292	H	0.508365	0.714883	0.650872
	H293	H	0.493432	0.747814	0.681011
	O294	O	0.785827	0.845788	0.979964
	H295	H	0.775950	0.828758	0.972265
	H296	H	0.800673	0.861147	0.988761
	O297	O	0.410799	0.507866	0.457817
	H298	H	0.390898	0.489841	0.477876
	H299	H	0.446165	0.503510	0.452694
	O300	O	0.592172	0.330186	0.316883
	H301	H	0.589539	0.331118	0.297836
	H302	H	0.588808	0.353536	0.324926
	O303	O	0.678112	0.690581	0.518071
	H304	H	0.678723	0.694890	0.500513
	H305	H	0.679977	0.685419	0.508292
	O306	O	0.071019	0.197183	1.191759
	H307	H	0.082355	0.196762	1.179999
	H308	H	0.084406	0.198370	1.209201
	O309	O	1.104451	0.130734	0.017957
	H310	H	1.094652	0.124256	0.012875
	H311	H	1.111879	0.142101	0.005994
	O312	O	0.945823	0.077389	-0.172787
	H313	H	0.926284	0.084265	-0.179266
	H314	H	0.950435	0.066022	-0.160486
	O315	O	0.518197	0.305385	0.536865
	H316	H	0.514840	0.314877	0.554113
	H317	H	0.525080	0.306744	0.546239
	O318	O	-0.018135	0.073227	0.078855
	H319	H	-0.028145	0.081072	0.097891
	H320	H	-0.018306	0.085050	0.074013
	O321	O	0.382639	0.631350	0.598827
	H322	H	0.382924	0.636601	0.601119
	H323	H	0.390097	0.647784	0.620187
	O324	O	1.183454	0.197429	1.109850
	H325	H	1.205427	0.205783	1.097154
	H326	H	1.181491	0.176185	1.111664
	O327	O	0.614830	0.361348	0.342848
	H328	H	0.592512	0.372791	0.338701
	H329	H	0.631385	0.379040	0.336111
	O330	O	0.112094	0.822626	1.016777
	H331	H	0.101770	0.815607	1.023868
	H332	H	0.115635	0.826174	1.016227
	O333	O	0.114724	1.008641	0.070304
	H334	H	0.101854	1.004551	0.065557
	H335	H	0.114281	1.010202	0.083553
	O336	O	1.129627	0.985399	0.176250
	H337	H	1.121803	0.964834	0.160250
	H338	H	1.125438	0.979697	0.187194
	O339	O	-0.464067	1.535991	1.377269
	H340	H	-0.485696	1.535648	1.372899
	H341	H	-0.476669	1.544935	1.387068
	O342	O	0.313959	0.452234	0.418128
	H343	H	0.315643	0.440332	0.420863
	H344	H	0.309104	0.462825	0.444131
	O345	O	-0.380418	-0.493784	1.692284
	H346	H	-0.384635	-0.503095	1.691252
	H347	H	-0.363146	-0.500347	1.702793
	O348	O	0.696400	0.365310	0.529914
	H349	H	0.685434	0.361870	0.517760
	H350	H	0.706091	0.361392	0.490769
	O351	O	0.790953	1.207144	-0.017660
	H352	H	0.783404	1.218992	-0.036644
	H353	H	0.781922	1.213479	-0.042912
	O354	O	0.826197	0.820397	1.178631
	H355	H	0.817932	0.827724	1.150029
	H356	H	0.827930	0.852693	1.179212
	O357	O	-0.205867	-0.010484	0.195487
	H358	H	-0.193156	0.013430	0.195928
	H359	H	-0.210561	0.002657	0.202349
	O360	O	0.850208	-0.004829	-0.149385
	H361	H	0.851768	-0.026715	-0.153960
	H362	H	0.836649	0.004210	-0.149650
	O363	O	1.668754	-0.429990	0.464407
	H364	H	1.660559	-0.430341	0.462293
	H365	H	1.670006	-0.435329	0.459448
	O366	O	0.591022	0.408004	1.352925
	H367	H	0.593019	0.423516	1.356897
	H368	H	0.601974	0.413680	1.334253
	O369	O	1.004464	-0.090985	1.063792
	H370	H	1.004281	-0.086361	1.086684
	H371	H	0.988379	-0.100218	1.070103
	O372	O	0.507985	0.370255	0.704215
	H373	H	0.468539	0.376815	0.704262
	H374	H	0.492542	0.356140	0.724982
	O375	O	-0.130508	0.192041	0.816822
	H376	H	-0.141504	0.181273	0.803290
	H377	H	-0.118389	0.189603	0.812709
	O378	O	0.342121	0.369470	0.521453
	H379	H	0.342554	0.381254	0.527001
	H380	H	0.324932	0.365305	0.495370
	O381	O	-0.067800	0.844236	-0.067568
	H382	H	-0.076248	0.848627	-0.085411
	H383	H	-0.074982	0.849486	-0.075081
	O384	O	0.384896	0.301968	0.704045
	H385	H	0.381907	0.304645	0.727467
	H386	H	0.351791	0.304906	0.672828
	O387	O	0.484338	0.342238	0.283535
	H388	H	0.500022	0.355719	0.289427
	H389	H	0.483105	0.329506	0.266548
	O390	O	0.907046	1.007413	-0.040342
	H391	H	0.918159	1.001788	-0.045300
	H392	H	0.906223	0.999672	-0.044536
	O393	O	1.057252	0.146683	0.826903
	H394	H	1.058782	0.153218	0.821024
	H395	H	1.063850	0.142282	0.834227
	O396	O	0.989549	-0.157680	-0.209921
	H397	H	0.992275	-0.172752	-0.214522
	H398	H	1.017741	-0.156741	-0.211135
	O399	O	0.305138	0.486473	0.697577
	H400	H	0.315863	0.509795	0.707568
	H401	H	0.299500	0.497507	0.691370
	O402	O	1.064331	1.102305	-0.047419
	H403	H	1.059974	1.113150	-0.035234
	H404	H	1.071869	1.105132	-0.051866
	O405	O	0.569768	0.650251	0.370557
	H406	H	0.550491	0.646269	0.362701
	H407	H	0.552160	0.660301	0.364777
	O408	O	0.450895	0.629710	0.703556
	H409	H	0.478598	0.661335	0.713213
	H410	H	0.464397	0.621531	0.694125
	O411	O	1.188143	1.045884	0.943968
	H412	H	1.184237	1.053893	0.946063
	H413	H	1.183772	1.051254	0.952653
	O414	O	0.552577	0.486006	0.504770
	H415	H	0.556590	0.481166	0.499143
	H416	H	0.545333	0.490625	0.508051
	O417	O	0.168340	0.937354	0.897341
	H418	H	0.151354	0.933991	0.896579
	H419	H	0.164759	0.949276	0.884111
	O420	O	0.182160	0.812662	0.881707
	H421	H	0.192691	0.826018	0.895480
	H422	H	0.169056	0.829284	0.884468
	O423	O	-0.031617	0.848329	0.208995
	H424	H	-0.055995	0.841570	0.206844
	H425	H	-0.045613	0.835059	0.219242
	O426	O	0.476338	0.666046	0.279962
	H427	H	0.471764	0.687391	0.264811
	H428	H	0.448057	0.659581	0.287508
	O429	O	0.328259	0.684878	0.318086
	H430	H	0.342112	0.691685	0.338357
	H431	H	0.321712	0.641277	0.308212
	O432	O	0.277790	0.527042	0.279888
	H433	H	0.237581	0.526981	0.249510
	H434	H	0.280768	0.513349	0.309981
	O435	O	-0.218492	0.011408	0.004506
	H436	H	-0.216063	0.006963	0.018927
	H437	H	-0.218509	0.024896	-0.008822
	O438	O	-0.053796	0.999016	1.094328
	H439	H	-0.045079	1.003675	1.092246
	H440	H	-0.046427	1.014860	1.095259
	O441	O	0.687346	0.430013	0.677060
	H442	H	0.690160	0.427411	0.641017
	H443	H	0.688736	0.429896	0.681520
