data_Molecule from HDF5

_cell_length_a		16.633413
_cell_length_b		16.448287
_cell_length_c		16.489245
_cell_angle_alpha	89.980820
_cell_angle_beta	90.024017
_cell_angle_gamma	90.107545
_symmetry_space_group_name_H-M	'P 1'
_symmetry_Int_Tables_number		1

loop_
	_symmetry_equiv_pos_as_xyz
	x,y,z

loop_
	_atom_site_label
	_atom_site_type_symbol
	_atom_site_fract_x
	_atom_site_fract_y
	_atom_site_fract_z
	H0	H	0.407786	0.861259	0.718344
	H1	H	0.616730	0.177665	0.721703
	H2	H	0.612037	0.861431	0.280530
	H3	H	0.402583	0.176376	0.276633
	H4	H	0.733760	0.408963	0.843572
	H5	H	0.732098	0.624857	0.155039
	H6	H	0.286886	0.625488	0.842322
	H7	H	0.284327	0.408697	0.153972
	H8	H	0.853403	0.739640	0.393695
	H9	H	0.163779	0.741445	0.605356
	H10	H	0.853758	0.292809	0.607774
	H11	H	0.165585	0.295320	0.392374
	H12	H	0.853407	0.408442	0.724999
	H13	H	0.162930	0.626075	0.723958
	H14	H	0.853110	0.622831	0.277775
	H15	H	0.164478	0.410940	0.275042
	H16	H	0.406127	0.740092	0.842231
	H17	H	0.613561	0.738298	0.156771
	H18	H	0.614898	0.296079	0.841667
	H19	H	0.402905	0.296440	0.156525
	H20	H	0.732434	0.864483	0.392255
	H21	H	0.734139	0.175569	0.609179
	H22	H	0.290833	0.861094	0.603071
	H23	H	0.284484	0.175166	0.389855
	H24	H	0.901086	0.360821	0.222865
	H25	H	0.111610	0.675870	0.216956
	H26	H	0.114172	0.359832	0.777112
	H27	H	0.907406	0.676640	0.781340
	H28	H	0.232061	0.912458	0.343513
	H29	H	0.231742	0.125144	0.657113
	H30	H	0.787249	0.126196	0.343587
	H31	H	0.786560	0.912539	0.656419
	H32	H	0.352029	0.239353	0.894822
	H33	H	0.663800	0.243242	0.106179
	H34	H	0.355225	0.794812	0.105786
	H35	H	0.666750	0.798775	0.895350
	H36	H	0.354045	0.913321	0.221325
	H37	H	0.664538	0.126287	0.222521
	H38	H	0.352885	0.123958	0.776889
	H39	H	0.666674	0.915100	0.778009
	H40	H	0.906637	0.238720	0.341653
	H41	H	0.115789	0.241359	0.657471
	H42	H	0.113217	0.798497	0.342287
	H43	H	0.905192	0.798553	0.656917
	H44	H	0.233502	0.361092	0.889753
	H45	H	0.229234	0.675093	0.102553
	H46	H	0.783193	0.362324	0.109449
	H47	H	0.789455	0.676170	0.895302
	H48	H	0.423703	0.132038	0.588184
	H49	H	0.603013	0.906389	0.585761
	H50	H	0.593876	0.130441	0.415846
	H51	H	0.422193	0.905958	0.406338
	H52	H	0.600930	0.429588	0.112186
	H53	H	0.600158	0.607362	0.885754
	H54	H	0.413938	0.600737	0.111479
	H55	H	0.425145	0.435980	0.889932
	H56	H	0.120567	0.612196	0.412260
	H57	H	0.895962	0.608268	0.590164
	H58	H	0.117946	0.432417	0.587748
	H59	H	0.896419	0.423858	0.409822
	H60	H	0.118382	0.431025	0.587904
	H61	H	0.897424	0.607655	0.586891
	H62	H	0.119081	0.603050	0.409570
	H63	H	0.901591	0.431256	0.416827
	H64	H	0.426093	0.603673	0.108555
	H65	H	0.600025	0.607728	0.886078
	H66	H	0.597159	0.438257	0.107358
	H67	H	0.423091	0.423613	0.886379
	H68	H	0.603212	0.133451	0.414473
	H69	H	0.596583	0.906301	0.591887
	H70	H	0.418019	0.133048	0.584636
	H71	H	0.423346	0.909834	0.415888
	H72	H	0.918221	0.629469	0.087066
	H73	H	0.097056	0.405261	0.084293
	H74	H	0.109536	0.635147	0.909420
	H75	H	0.924399	0.406632	0.913420
	H76	H	0.096055	0.929912	0.611552
	H77	H	0.096623	0.110032	0.387929
	H78	H	0.915729	0.104738	0.613788
	H79	H	0.923056	0.927759	0.387290
	H80	H	0.619351	0.105453	0.912025
	H81	H	0.397431	0.107089	0.088058
	H82	H	0.624029	0.924608	0.090876
	H83	H	0.397112	0.928899	0.906808
	H84	H	0.620970	0.930555	0.087017
	H85	H	0.397531	0.106463	0.087152
	H86	H	0.620845	0.107301	0.909700
	H87	H	0.399005	0.926977	0.911708
	H88	H	0.924691	0.101336	0.609177
	H89	H	0.102017	0.103989	0.387259
	H90	H	0.101157	0.926801	0.614566
	H91	H	0.915106	0.929071	0.384882
	H92	H	0.090725	0.630550	0.902118
	H93	H	0.097332	0.404698	0.085593
	H94	H	0.919818	0.630089	0.089491
	H95	H	0.919100	0.405954	0.916900
	H96	H	0.418301	0.134949	0.590780
	H97	H	0.595537	0.910140	0.583837
	H98	H	0.596417	0.133915	0.407296
	H99	H	0.414612	0.905329	0.413068
	H100	H	0.590943	0.429589	0.108873
	H101	H	0.599588	0.608079	0.885252
	H102	H	0.418612	0.612706	0.113823
	H103	H	0.413999	0.432460	0.885534
	H104	H	0.122934	0.609494	0.403363
	H105	H	0.897055	0.605338	0.589217
	H106	H	0.118744	0.431626	0.586555
	H107	H	0.898865	0.434457	0.406738
	H108	H	0.921546	0.629868	0.087065
	H109	H	0.095581	0.405365	0.085740
	H110	H	0.096135	0.624474	0.921364
	H111	H	0.918579	0.404393	0.910336
	H112	H	0.101444	0.933438	0.612215
	H113	H	0.094917	0.102728	0.390323
	H114	H	0.924244	0.110874	0.612746
	H115	H	0.919677	0.935162	0.388660
	H116	H	0.619884	0.108747	0.912678
	H117	H	0.398056	0.105422	0.088070
	H118	H	0.623158	0.932076	0.094596
	H119	H	0.399610	0.932472	0.910261
	C120	C	0.389023	0.028559	0.619787
	C121	C	0.631020	1.011567	0.620429
	C122	C	0.630166	0.028745	0.379324
	C123	C	0.387191	1.010609	0.377911
	C124	C	0.630061	0.397655	0.007076
	C125	C	0.631123	0.639620	0.990195
	C126	C	0.387706	0.639345	0.007692
	C127	C	0.387430	0.397062	0.990416
	C128	C	0.017682	0.640035	0.377085
	C129	C	0.999663	0.640095	0.621359
	C130	C	0.016552	0.396867	0.621512
	C131	C	1.001439	0.396834	0.377492
	C132	C	0.886467	0.526599	0.121548
	C133	C	0.129082	0.509205	0.118347
	C134	C	0.131773	0.526257	0.876738
	C135	C	0.888968	0.509857	0.880376
	C136	C	0.130914	0.897669	0.508635
	C137	C	0.131291	0.139788	0.491850
	C138	C	0.889001	0.139278	0.508246
	C139	C	0.887248	0.897998	0.490886
	C140	C	0.517121	0.139912	0.877992
	C141	C	0.500269	0.140484	0.120989
	C142	C	0.519005	0.897035	0.122004
	C143	C	0.501928	0.897965	0.877780
	C144	C	0.388453	0.908840	0.678805
	C145	C	0.634340	0.129865	0.681641
	C146	C	0.631225	0.909555	0.319925
	C147	C	0.384448	0.128795	0.316724
	C148	C	0.692267	0.392516	0.889996
	C149	C	0.691279	0.642582	0.108294
	C150	C	0.327744	0.643097	0.889312
	C151	C	0.325720	0.392544	0.107679
	C152	C	0.900333	0.699734	0.375149
	C153	C	0.116946	0.701180	0.623964
	C154	C	0.900259	0.333968	0.625351
	C155	C	0.118545	0.335762	0.374197
	C156	C	0.899977	0.391576	0.683802
	C157	C	0.116531	0.643708	0.682727
	C158	C	0.900188	0.641624	0.317383
	C159	C	0.118144	0.393116	0.315676
	C160	C	0.386791	0.700101	0.889311
	C161	C	0.632310	0.698844	0.109103
	C162	C	0.632969	0.336236	0.889221
	C163	C	0.384459	0.335970	0.108575
	C164	C	0.691102	0.910889	0.375396
	C165	C	0.692981	0.129076	0.625347
	C166	C	0.330314	0.908774	0.621679
	C167	C	0.325458	0.128176	0.373159
	C168	C	0.883262	0.408400	0.182466
	C169	C	0.130596	0.628309	0.177585
	C170	C	0.133437	0.407410	0.816302
	C171	C	0.887996	0.629100	0.820707
	C172	C	0.191392	0.894504	0.390454
	C173	C	0.191573	0.143390	0.609879
	C174	C	0.828176	0.143168	0.390316
	C175	C	0.827123	0.894679	0.609230
	C176	C	0.399081	0.199585	0.875810
	C177	C	0.617466	0.202275	0.124082
	C178	C	0.401620	0.835947	0.124007
	C179	C	0.619879	0.838581	0.876636
	C180	C	0.401113	0.894557	0.181489
	C181	C	0.617611	0.144295	0.182021
	C182	C	0.399651	0.142287	0.817114
	C183	C	0.619654	0.896143	0.817974
	C184	C	0.887772	0.199137	0.389265
	C185	C	0.133565	0.200830	0.610106
	C186	C	0.132364	0.837933	0.389939
	C187	C	0.885850	0.837778	0.609549
	C188	C	0.192863	0.408237	0.872323
	C189	C	0.189119	0.627922	0.120803
	C190	C	0.824152	0.409223	0.126216
	C191	C	0.829728	0.629047	0.877555
	C192	C	0.413182	0.111517	0.595065
	C193	C	0.605596	0.929060	0.594479
	C194	C	0.604915	0.111149	0.405034
	C195	C	0.412653	0.928389	0.404153
	C196	C	0.603880	0.424690	0.088494
	C197	C	0.606872	0.614730	0.907405
	C198	C	0.412341	0.612925	0.089981
	C199	C	0.413316	0.423284	0.908459
	C200	C	0.099676	0.615435	0.401635
	C201	C	0.918112	0.614348	0.595937
	C202	C	0.097424	0.424125	0.595104
	C203	C	0.920103	0.422592	0.403598
	C204	C	0.912394	0.608525	0.095463
	C205	C	0.103838	0.426728	0.092424
	C206	C	0.106220	0.608422	0.903274
	C207	C	0.913716	0.427261	0.906187
	C208	C	0.106541	0.922952	0.591200
	C209	C	0.105336	0.113247	0.409848
	C210	C	0.914377	0.113169	0.590513
	C211	C	0.912077	0.923364	0.408469
	C212	C	0.598747	0.114400	0.903823
	C213	C	0.418975	0.113959	0.095130
	C214	C	0.601052	0.921924	0.097785
	C215	C	0.420051	0.922480	0.902324
	Zn216	Zn	0.510281	0.019859	0.748119
	Zn217	Zn	0.509515	0.019463	0.250213
	Zn218	Zn	0.759147	0.518213	-0.000905
	Zn219	Zn	0.258636	0.517716	-0.001432
	Zn220	Zn	0.008628	0.769298	0.498997
	Zn221	Zn	0.010082	0.268009	0.499693
	Zn222	Zn	0.007950	0.517773	0.750869
	Zn223	Zn	0.009121	0.517776	0.248120
	Zn224	Zn	0.510027	0.768383	-0.000835
	Zn225	Zn	0.508533	0.269032	-0.001225
	Zn226	Zn	0.759188	0.019622	0.500303
	Zn227	Zn	0.259682	0.019289	0.500037
	N228	N	0.423977	0.984292	0.678086
	N229	N	0.596186	0.055833	0.678524
	N230	N	0.593911	0.983879	0.322255
	N231	N	0.422244	0.054668	0.319678
	N232	N	0.690701	0.429987	0.964372
	N233	N	0.690567	0.606203	0.033347
	N234	N	0.328189	0.606038	0.963984
	N235	N	0.327323	0.429733	0.033097
	N236	N	0.974653	0.699342	0.411191
	N237	N	0.043247	0.699083	0.586457
	N238	N	0.973705	0.337129	0.587175
	N239	N	0.044995	0.337656	0.411712
	N240	N	0.973296	0.430147	0.681273
	N241	N	0.042641	0.606328	0.681363
	N242	N	0.974484	0.605364	0.318083
	N243	N	0.044058	0.430024	0.317317
	N244	N	0.423380	0.697922	0.963934
	N245	N	0.595529	0.697014	0.034656
	N246	N	0.594951	0.339344	0.963101
	N247	N	0.422311	0.338832	0.034568
	N248	N	0.690585	0.986042	0.411759
	N249	N	0.691002	0.054298	0.588044
	N250	N	0.330365	0.984142	0.585781
	N251	N	0.327275	0.053635	0.410744
	N252	N	0.921365	0.482314	0.179606
	N253	N	0.093856	0.553412	0.176061
	N254	N	0.096505	0.482048	0.818579
	N255	N	0.923967	0.553943	0.822280
	N256	N	0.190911	0.930719	0.465534
	N257	N	0.190414	0.106522	0.535313
	N258	N	0.828857	0.106839	0.465413
	N259	N	0.827788	0.931069	0.534317
	N260	N	0.473184	0.198433	0.912690
	N261	N	0.543463	0.200312	0.087023
	N262	N	0.475934	0.837263	0.087678
	N263	N	0.545650	0.839308	0.912908
	N264	N	0.475031	0.931508	0.180516
	N265	N	0.543614	0.106908	0.180410
	N266	N	0.474138	0.106218	0.818346
	N267	N	0.545382	0.932352	0.818434
	N268	N	0.924844	0.196919	0.463599
	N269	N	0.097101	0.198995	0.535243
	N270	N	0.095574	0.839694	0.464405
	N271	N	0.922565	0.839660	0.534935
	N272	N	0.192341	0.483432	0.908654
	N273	N	0.188372	0.552701	0.084798
	N274	N	0.825886	0.483852	0.089002
	N275	N	0.829823	0.553722	0.913499
	O276	O	0.794453	0.808650	0.166264
	H277	H	0.786818	0.793567	0.157386
	H278	H	0.787745	0.836077	0.166980
	O279	O	-0.064593	-0.194212	1.215276
	H280	H	-0.070662	-0.186212	1.212115
	H281	H	-0.078526	-0.226615	1.248568
	O282	O	0.678312	0.529856	0.489041
	H283	H	0.681717	0.529066	0.489338
	H284	H	0.674083	0.524523	0.496412
	O285	O	0.465044	0.551378	0.570930
	H286	H	0.483531	0.558174	0.577039
	H287	H	0.477791	0.560059	0.573360
	O288	O	0.819442	-0.171928	1.006981
	H289	H	0.815249	-0.183878	1.014407
	H290	H	0.822747	-0.167113	1.004336
	O291	O	0.498284	0.390058	0.719204
	H292	H	0.480491	0.398185	0.714739
	H293	H	0.488547	0.370711	0.737079
	O294	O	0.218137	0.235941	0.023488
	H295	H	0.221079	0.236471	0.039196
	H296	H	0.230154	0.244207	0.014064
	O297	O	0.611839	-0.269957	0.711914
	H298	H	0.634323	-0.270355	0.701419
	H299	H	0.616840	-0.262062	0.730667
	O300	O	-0.037902	-0.021221	-0.205047
	H301	H	-0.044618	-0.015577	-0.190995
	H302	H	-0.035927	-0.008041	-0.209423
	O303	O	0.227957	-0.011822	-0.215954
	H304	H	0.240532	-0.038228	-0.226030
	H305	H	0.240192	-0.036964	-0.222878
	O306	O	1.174460	-0.144205	0.193241
	H307	H	1.176745	-0.138094	0.171642
	H308	H	1.196548	-0.171818	0.215861
	O309	O	0.288221	0.298663	0.527213
	H310	H	0.285192	0.299220	0.533260
	H311	H	0.265544	0.278731	0.537974
	O312	O	0.453926	0.548666	0.447704
	H313	H	0.449229	0.545242	0.443425
	H314	H	0.464388	0.559046	0.461378
	O315	O	0.276968	0.578773	0.565304
	H316	H	0.280094	0.570529	0.552931
	H317	H	0.275347	0.554088	0.559456
	O318	O	0.720233	0.732037	-0.366628
	H319	H	0.740201	0.747015	-0.359442
	H320	H	0.732706	0.720589	-0.355986
	O321	O	0.731226	0.303079	0.471533
	H322	H	0.721804	0.287321	0.473508
	H323	H	0.743530	0.284513	0.446642
	O324	O	1.217589	-0.184132	0.791527
	H325	H	1.175000	-0.190237	0.797047
	H326	H	1.242909	-0.218076	0.759300
	O327	O	0.301452	0.722650	0.292439
	H328	H	0.330085	0.708628	0.298392
	H329	H	0.310300	0.713388	0.317240
	O330	O	0.186370	0.993851	0.050389
	H331	H	0.195371	0.975433	0.045749
	H332	H	0.179718	1.004504	0.060391
	O333	O	0.621709	0.545185	0.723213
	H334	H	0.634281	0.552153	0.735820
	H335	H	0.625545	0.550922	0.712084
	O336	O	0.517188	0.706676	0.481371
	H337	H	0.513882	0.712868	0.494800
	H338	H	0.520380	0.688811	0.488515
	O339	O	0.539936	0.308497	0.282986
	H340	H	0.528903	0.282910	0.261187
	H341	H	0.518168	0.321283	0.291358
	O342	O	0.227747	0.809063	-0.027910
	H343	H	0.241259	0.790263	-0.041987
	H344	H	0.224927	0.812879	-0.050150
	O345	O	1.021143	1.024814	0.053240
	H346	H	1.022333	1.032068	0.067048
	H347	H	1.041888	1.022240	0.062660
	O348	O	0.566027	0.594545	0.468350
	H349	H	0.561179	0.595783	0.463819
	H350	H	0.583095	0.590753	0.472578
	O351	O	0.148853	0.122689	0.822035
	H352	H	0.156331	0.115600	0.826876
	H353	H	0.142114	0.121094	0.822725
	O354	O	1.054070	-0.186169	1.001114
	H355	H	1.064348	-0.168953	1.013871
	H356	H	1.056933	-0.193053	0.994598
	O357	O	0.295467	0.726916	0.465986
	H358	H	0.276578	0.742386	0.475772
	H359	H	0.297281	0.718410	0.472875
	O360	O	0.184834	0.035466	0.962549
	H361	H	0.198561	0.015589	0.961660
	H362	H	0.180200	0.044430	0.967273
	O363	O	0.347575	0.353711	0.341717
	H364	H	0.346480	0.360066	0.351752
	H365	H	0.344498	0.348574	0.342417
	O366	O	1.317489	0.323840	0.688537
	H367	H	1.311133	0.336775	0.706414
	H368	H	1.322633	0.334731	0.670992
	O369	O	-0.199004	0.036061	0.792204
	H370	H	-0.204237	0.029620	0.784788
	H371	H	-0.199143	0.048320	0.796359
	O372	O	-0.149453	1.126729	1.153690
	H373	H	-0.145166	1.118160	1.169280
	H374	H	-0.140865	1.139938	1.140295
	O375	O	1.064203	0.148565	-0.050217
	H376	H	1.051974	0.150602	-0.055910
	H377	H	1.075327	0.150045	-0.041051
	O378	O	0.285512	0.489515	0.718210
	H379	H	0.268269	0.490350	0.737077
	H380	H	0.284080	0.493976	0.720069
	O381	O	0.034558	0.830438	-0.212708
	H382	H	0.027534	0.819692	-0.224061
	H383	H	0.028585	0.844286	-0.210911
	O384	O	0.302917	0.544012	0.311531
	H385	H	0.313064	0.544638	0.299560
	H386	H	0.288957	0.550902	0.295112
	O387	O	0.425802	0.392580	0.361318
	H388	H	0.434573	0.395156	0.366006
	H389	H	0.428078	0.386023	0.356503
	O390	O	-0.009404	0.852973	0.976969
	H391	H	0.010526	0.851209	0.985715
	H392	H	-0.002636	0.855156	0.987913
	O393	O	0.932294	0.093160	0.006164
	H394	H	0.930660	0.093086	0.007072
	H395	H	0.918793	0.099430	0.008773
	O396	O	0.200741	0.210941	0.188552
	H397	H	0.180207	0.216030	0.161988
	H398	H	0.211354	0.164654	0.199189
	O399	O	-0.115905	0.921627	0.912340
	H400	H	-0.110331	0.931609	0.935348
	H401	H	-0.107048	0.939266	0.912841
	O402	O	0.981992	0.229094	0.791789
	H403	H	0.989092	0.236473	0.779316
	H404	H	0.998886	0.232906	0.791248
	O405	O	0.693534	0.548572	0.633068
	H406	H	0.686757	0.549767	0.642752
	H407	H	0.708646	0.529146	0.635654
	O408	O	0.997028	1.225932	1.151645
	H409	H	1.008049	1.244710	1.180580
	H410	H	0.988013	1.223099	1.131603
	O411	O	0.927278	0.029203	0.172833
	H412	H	0.930535	0.035317	0.180199
	H413	H	0.933188	0.022833	0.175591
	O414	O	-0.204830	0.233138	-0.023782
	H415	H	-0.228310	0.239894	-0.017912
	H416	H	-0.199329	0.238053	-0.039759
	O417	O	0.575965	0.505094	0.595941
	H418	H	0.561774	0.508397	0.592809
	H419	H	0.585729	0.486401	0.589874
	O420	O	1.224655	0.030888	1.176863
	H421	H	1.242959	0.017769	1.183266
	H422	H	1.210830	0.014721	1.170254
	O423	O	1.076744	0.940106	0.211033
	H424	H	1.079869	0.929173	0.206212
	H425	H	1.089504	0.923190	0.208839
	O426	O	0.693487	0.701956	0.316884
	H427	H	0.694630	0.686634	0.333063
	H428	H	0.687343	0.706051	0.321822
	O429	O	0.467842	0.723448	0.284386
	H430	H	0.480651	0.747058	0.274709
	H431	H	0.473175	0.728054	0.298225
	O432	O	1.011099	0.209409	1.011288
	H433	H	1.018091	0.207094	1.008920
	H434	H	0.999538	0.212521	1.015197
	O435	O	0.652407	0.736641	0.519211
	H436	H	0.655911	0.744328	0.532863
	H437	H	0.670868	0.730059	0.520128
	O438	O	0.721070	0.459749	0.336406
	H439	H	0.732364	0.454063	0.335803
	H440	H	0.715628	0.460656	0.344304
	O441	O	0.451568	0.471028	0.466934
	H442	H	0.447778	0.463212	0.463365
	H443	H	0.467652	0.460066	0.463130
	O444	O	0.726437	0.298830	0.279137
	H445	H	0.731507	0.310697	0.280654
	H446	H	0.688794	0.300608	0.272749
	O447	O	0.822354	0.197474	0.818424
	H448	H	0.814670	0.175867	0.830864
	H449	H	0.866943	0.209934	0.813835
	O450	O	0.707441	0.509709	0.378586
	H451	H	0.714324	0.496049	0.368502
	H452	H	0.694302	0.505067	0.367886
	O453	O	0.496851	0.605641	0.608822
	H454	H	0.497488	0.612199	0.615474
	H455	H	0.504190	0.595434	0.603114
	O456	O	-0.204312	0.989408	1.209682
	H457	H	-0.203071	0.987174	1.222886
	H458	H	-0.206449	0.995977	1.215577
	O459	O	0.319390	0.705440	0.684593
	H460	H	0.349176	0.695899	0.671440
	H461	H	0.324760	0.679171	0.660543
	O462	O	0.399643	0.374043	0.442093
	H463	H	0.408023	0.375639	0.444122
	H464	H	0.392135	0.378733	0.427350
	O465	O	0.601751	0.364405	0.641261
	H466	H	0.598508	0.350423	0.639521
	H467	H	0.584703	0.380751	0.638342
	O468	O	-0.455466	0.564806	0.295042
	H469	H	-0.441168	0.565116	0.303360
	H470	H	-0.453556	0.574765	0.291436
	O471	O	0.061256	0.047176	0.944853
	H472	H	0.071073	0.041981	0.947908
	H473	H	0.067144	0.024002	0.951457
	O474	O	0.799117	0.984601	-0.030745
	H475	H	0.801757	0.976800	-0.041338
	H476	H	0.806246	1.002065	-0.016824
	O477	O	0.522786	0.308109	0.625477
	H478	H	0.520601	0.299227	0.655208
	H479	H	0.528937	0.308090	0.612624
