data_Molecule from HDF5

_cell_length_a		16.296020
_cell_length_b		16.187113
_cell_length_c		16.276199
_cell_angle_alpha	89.794529
_cell_angle_beta	90.145531
_cell_angle_gamma	90.028271
_symmetry_space_group_name_H-M	'P 1'
_symmetry_Int_Tables_number		1

loop_
	_symmetry_equiv_pos_as_xyz
	x,y,z

loop_
	_atom_site_label
	_atom_site_type_symbol
	_atom_site_fract_x
	_atom_site_fract_y
	_atom_site_fract_z
	H0	H	0.401193	0.834902	0.714559
	H1	H	0.596754	0.164069	0.714648
	H2	H	0.595196	0.834396	0.289063
	H3	H	0.402096	0.165126	0.288318
	H4	H	0.711415	0.401309	0.837249
	H5	H	0.713988	0.598937	0.163560
	H6	H	0.283843	0.598343	0.836864
	H7	H	0.282218	0.399938	0.163905
	H8	H	0.834490	0.714299	0.401899
	H9	H	0.162338	0.710938	0.596185
	H10	H	0.833843	0.286507	0.596738
	H11	H	0.163392	0.287568	0.404895
	H12	H	0.834669	0.400562	0.715039
	H13	H	0.161028	0.597868	0.715025
	H14	H	0.834096	0.598226	0.286124
	H15	H	0.161637	0.402674	0.286475
	H16	H	0.398243	0.715365	0.837940
	H17	H	0.595037	0.711102	0.165462
	H18	H	0.595081	0.285544	0.837605
	H19	H	0.400723	0.286033	0.165389
	H20	H	0.711226	0.834561	0.403868
	H21	H	0.712682	0.163760	0.598373
	H22	H	0.285138	0.834729	0.599838
	H23	H	0.284426	0.164171	0.401370
	H24	H	0.900033	0.335324	0.214558
	H25	H	0.096304	0.664286	0.213595
	H26	H	0.094297	0.334612	0.788398
	H27	H	0.899256	0.664312	0.785352
	H28	H	0.212206	0.901882	0.337092
	H29	H	0.213580	0.097314	0.664041
	H30	H	0.784024	0.097782	0.336496
	H31	H	0.784510	0.899456	0.663717
	H32	H	0.333183	0.212005	0.903558
	H33	H	0.661771	0.212101	0.098673
	H34	H	0.333080	0.786528	0.098793
	H35	H	0.661426	0.785897	0.904628
	H36	H	0.334275	0.901112	0.216714
	H37	H	0.661374	0.097805	0.214955
	H38	H	0.334662	0.099046	0.783829
	H39	H	0.660814	0.900498	0.786819
	H40	H	0.901231	0.212842	0.336182
	H41	H	0.095201	0.211701	0.664937
	H42	H	0.094621	0.787717	0.336257
	H43	H	0.901550	0.785542	0.664649
	H44	H	0.211466	0.335559	0.903083
	H45	H	0.211503	0.663923	0.097895
	H46	H	0.784453	0.335065	0.098524
	H47	H	0.782772	0.664008	0.900266
	H48	H	0.402783	0.115460	0.585938
	H49	H	0.588822	0.884821	0.588083
	H50	H	0.591810	0.118267	0.404368
	H51	H	0.398058	0.879021	0.402452
	H52	H	0.603171	0.405315	0.121686
	H53	H	0.592140	0.590289	0.884085
	H54	H	0.406030	0.592359	0.117361
	H55	H	0.404562	0.410913	0.886189
	H56	H	0.114053	0.594030	0.410529
	H57	H	0.881404	0.590517	0.592951
	H58	H	0.116088	0.399904	0.591821
	H59	H	0.883093	0.407203	0.409894
	H60	H	0.112945	0.411108	0.591595
	H61	H	0.879836	0.592689	0.594779
	H62	H	0.114640	0.588999	0.403950
	H63	H	0.881200	0.408590	0.401914
	H64	H	0.402700	0.593344	0.118799
	H65	H	0.587376	0.593319	0.885300
	H66	H	0.587388	0.416246	0.113664
	H67	H	0.407859	0.403720	0.884008
	H68	H	0.589876	0.115900	0.410258
	H69	H	0.599337	0.879282	0.595396
	H70	H	0.400750	0.120176	0.597952
	H71	H	0.412367	0.883035	0.405463
	H72	H	0.909232	0.615972	0.091984
	H73	H	0.090360	0.383893	0.086441
	H74	H	0.092070	0.615956	0.913223
	H75	H	0.906936	0.382827	0.907756
	H76	H	0.089595	0.905176	0.616872
	H77	H	0.088237	0.088663	0.386217
	H78	H	0.905825	0.087169	0.615833
	H79	H	0.904932	0.916015	0.386102
	H80	H	0.614147	0.095052	0.911985
	H81	H	0.379926	0.086221	0.104513
	H82	H	0.614934	0.905998	0.099206
	H83	H	0.384421	0.916878	0.909874
	H84	H	0.614490	0.902794	0.094681
	H85	H	0.377227	0.103806	0.096688
	H86	H	0.613086	0.088532	0.908239
	H87	H	0.378251	0.905303	0.898805
	H88	H	0.909263	0.095249	0.616982
	H89	H	0.089077	0.100593	0.382145
	H90	H	0.094246	0.903252	0.619122
	H91	H	0.911684	0.901100	0.384003
	H92	H	0.096761	0.620135	0.902784
	H93	H	0.097167	0.379483	0.096513
	H94	H	0.901172	0.617632	0.088936
	H95	H	0.901747	0.382619	0.910117
	H96	H	0.413237	0.115869	0.594773
	H97	H	0.587231	0.881249	0.601465
	H98	H	0.595909	0.117661	0.409538
	H99	H	0.402203	0.883634	0.416003
	H100	H	0.584987	0.395919	0.118521
	H101	H	0.590972	0.596036	0.882724
	H102	H	0.403220	0.590134	0.117696
	H103	H	0.399917	0.405055	0.882972
	H104	H	0.116553	0.597441	0.402962
	H105	H	0.880793	0.593550	0.591841
	H106	H	0.116504	0.406559	0.601416
	H107	H	0.879194	0.401711	0.405306
	H108	H	0.902552	0.619399	0.097821
	H109	H	0.084400	0.383156	0.097198
	H110	H	0.085335	0.616557	0.904014
	H111	H	0.902426	0.380955	0.904656
	H112	H	0.093796	0.908796	0.617842
	H113	H	0.099055	0.092558	0.381441
	H114	H	0.900674	0.093597	0.618795
	H115	H	0.895600	0.903473	0.379413
	H116	H	0.615475	0.094625	0.904005
	H117	H	0.384992	0.089370	0.086473
	H118	H	0.612860	0.908661	0.094025
	H119	H	0.381295	0.900591	0.914953
	C120	C	0.377252	0.008187	0.621458
	C121	C	0.620294	0.990555	0.622904
	C122	C	0.619556	0.007839	0.380338
	C123	C	0.376646	0.991007	0.379558
	C124	C	0.619296	0.377717	0.009604
	C125	C	0.618903	0.620879	0.992328
	C126	C	0.375680	0.620980	0.009515
	C127	C	0.375920	0.377841	0.992661
	C128	C	0.006601	0.621984	0.377864
	C129	C	0.989416	0.620252	0.621241
	C130	C	0.006635	0.377932	0.622412
	C131	C	0.989792	0.377944	0.378415
	C132	C	0.876306	0.508334	0.121473
	C133	C	0.118909	0.491129	0.121349
	C134	C	0.118986	0.508602	0.879082
	C135	C	0.875609	0.491054	0.878524
	C136	C	0.119949	0.878049	0.509108
	C137	C	0.120339	0.121590	0.491718
	C138	C	0.876775	0.120867	0.508847
	C139	C	0.876518	0.877676	0.491814
	C140	C	0.506150	0.121509	0.878728
	C141	C	0.489174	0.121155	0.123588
	C142	C	0.505947	0.877839	0.123816
	C143	C	0.489525	0.878496	0.880055
	C144	C	0.380169	0.883946	0.676749
	C145	C	0.617318	0.114927	0.676889
	C146	C	0.615980	0.883510	0.326426
	C147	C	0.380686	0.115557	0.325305
	C148	C	0.673943	0.380583	0.886197
	C149	C	0.675060	0.618627	0.115351
	C150	C	0.321166	0.619019	0.885980
	C151	C	0.320758	0.380077	0.115479
	C152	C	0.883466	0.676518	0.381188
	C153	C	0.113058	0.674197	0.617814
	C154	C	0.882875	0.323819	0.618372
	C155	C	0.113972	0.324682	0.383537
	C156	C	0.883341	0.380261	0.677147
	C157	C	0.112383	0.617854	0.676600
	C158	C	0.883215	0.619004	0.323481
	C159	C	0.113129	0.381195	0.324364
	C160	C	0.378000	0.676961	0.886511
	C161	C	0.615620	0.674237	0.116191
	C162	C	0.615938	0.323348	0.886298
	C163	C	0.379290	0.323242	0.116162
	C164	C	0.673749	0.883726	0.383199
	C165	C	0.674845	0.114868	0.619252
	C166	C	0.322455	0.884097	0.619813
	C167	C	0.322413	0.115191	0.381518
	C168	C	0.879471	0.384349	0.176409
	C169	C	0.116367	0.615169	0.175645
	C170	C	0.115386	0.383999	0.825653
	C171	C	0.878439	0.614854	0.822830
	C172	C	0.174095	0.881482	0.385770
	C173	C	0.175616	0.118613	0.615254
	C174	C	0.821757	0.118294	0.385467
	C175	C	0.822422	0.879709	0.614987
	C176	C	0.382497	0.175634	0.881561
	C177	C	0.612698	0.175114	0.119612
	C178	C	0.382318	0.823696	0.120051
	C179	C	0.612425	0.823472	0.883805
	C180	C	0.382781	0.880666	0.178513
	C181	C	0.612598	0.118483	0.177688
	C182	C	0.383126	0.119186	0.822546
	C183	C	0.612417	0.880638	0.825362
	C184	C	0.879984	0.175398	0.385228
	C185	C	0.116850	0.175144	0.615766
	C186	C	0.115839	0.824772	0.385397
	C187	C	0.880586	0.823031	0.615441
	C188	C	0.173520	0.384439	0.882328
	C189	C	0.174061	0.614903	0.118642
	C190	C	0.821931	0.384281	0.118971
	C191	C	0.820723	0.614909	0.880111
	C192	C	0.399055	0.094637	0.599432
	C193	C	0.598301	0.904271	0.601396
	C194	C	0.598366	0.094687	0.401657
	C195	C	0.397860	0.904368	0.401494
	C196	C	0.598170	0.399533	0.095602
	C197	C	0.596762	0.599447	0.906219
	C198	C	0.397555	0.598433	0.095583
	C199	C	0.397681	0.400028	0.906572
	C200	C	0.092897	0.599941	0.399512
	C201	C	0.902988	0.598584	0.599630
	C202	C	0.092823	0.399550	0.601319
	C203	C	0.903663	0.399477	0.399318
	C204	C	0.897953	0.595323	0.099442
	C205	C	0.096859	0.404520	0.099749
	C206	C	0.097591	0.595062	0.900298
	C207	C	0.897279	0.404449	0.900958
	C208	C	0.098796	0.899354	0.595525
	C209	C	0.098565	0.100265	0.405721
	C210	C	0.898726	0.098557	0.594950
	C211	C	0.897847	0.900099	0.405438
	C212	C	0.592036	0.099266	0.901250
	C213	C	0.403009	0.099532	0.102349
	C214	C	0.591949	0.899659	0.102515
	C215	C	0.403423	0.901056	0.901457
	Zn216	Zn	0.498030	-0.000538	0.750299
	Zn217	Zn	0.498285	-0.000192	0.252232
	Zn218	Zn	0.747707	0.499918	0.000395
	Zn219	Zn	0.247189	0.499916	0.000239
	Zn220	Zn	-0.001677	0.749812	0.500276
	Zn221	Zn	-0.001785	0.249558	0.500671
	Zn222	Zn	-0.002360	0.499517	0.751006
	Zn223	Zn	-0.001948	0.499886	0.249499
	Zn224	Zn	0.497142	0.749243	0.001668
	Zn225	Zn	0.497077	0.248928	0.001383
	Zn226	Zn	0.748298	-0.000620	0.500638
	Zn227	Zn	0.248718	-0.000648	0.500773
	N228	N	0.413513	0.961940	0.677937
	N229	N	0.584352	0.036688	0.679525
	N230	N	0.583280	0.961929	0.324252
	N231	N	0.413610	0.037290	0.323823
	N232	N	0.676124	0.413942	0.963864
	N233	N	0.677094	0.586162	0.037370
	N234	N	0.319655	0.584856	0.963424
	N235	N	0.318410	0.413289	0.037500
	N236	N	0.961150	0.678404	0.414265
	N237	N	0.035591	0.675784	0.584137
	N238	N	0.960500	0.322036	0.585358
	N239	N	0.036072	0.322383	0.416191
	N240	N	0.961197	0.413301	0.679716
	N241	N	0.034438	0.584954	0.678816
	N242	N	0.960969	0.585785	0.321190
	N243	N	0.035242	0.413623	0.321169
	N244	N	0.411234	0.678117	0.964235
	N245	N	0.581545	0.675910	0.038732
	N246	N	0.582713	0.321315	0.963869
	N247	N	0.412996	0.321895	0.038897
	N248	N	0.675993	0.961821	0.415937
	N249	N	0.676843	0.036701	0.586375
	N250	N	0.320669	0.962172	0.585935
	N251	N	0.319845	0.036934	0.414726
	N252	N	0.912455	0.462704	0.178116
	N253	N	0.082819	0.537047	0.177518
	N254	N	0.082085	0.461949	0.823530
	N255	N	0.911871	0.536822	0.821872
	N256	N	0.176928	0.913797	0.463784
	N257	N	0.178065	0.086183	0.537235
	N258	N	0.819732	0.085086	0.463356
	N259	N	0.819761	0.913054	0.537119
	N260	N	0.459776	0.177037	0.915850
	N261	N	0.535001	0.176753	0.086500
	N262	N	0.459793	0.821814	0.086685
	N263	N	0.535001	0.822305	0.917152
	N264	N	0.460678	0.913624	0.181012
	N265	N	0.534936	0.085423	0.180108
	N266	N	0.461058	0.086419	0.820683
	N267	N	0.534769	0.913918	0.822840
	N268	N	0.913377	0.177136	0.462885
	N269	N	0.083186	0.177138	0.538202
	N270	N	0.082839	0.822617	0.463100
	N271	N	0.913415	0.821536	0.537687
	N272	N	0.175826	0.462753	0.914919
	N273	N	0.175665	0.536948	0.085576
	N274	N	0.819988	0.462411	0.085480
	N275	N	0.818843	0.536947	0.914060
	O276	O	0.918390	0.028234	0.977582
	H277	H	0.916696	0.028623	0.981366
	H278	H	0.914375	0.038475	0.974056
	O279	O	0.496269	0.466753	0.548354
	H280	H	0.493742	0.467188	0.545804
	H281	H	0.492183	0.469253	0.549007
	O282	O	0.911860	1.028615	-0.034637
	H283	H	0.912116	1.031410	-0.036359
	H284	H	0.905257	1.031262	-0.034977
	O285	O	0.501195	0.490700	0.547240
	H286	H	0.499108	0.490998	0.550685
	H287	H	0.499505	0.490863	0.552040
