data_Molecule from HDF5

_cell_length_a		16.266460
_cell_length_b		16.157686
_cell_length_c		16.226988
_cell_angle_alpha	89.736864
_cell_angle_beta	89.780266
_cell_angle_gamma	90.189007
_symmetry_space_group_name_H-M	'P 1'
_symmetry_Int_Tables_number		1

loop_
	_symmetry_equiv_pos_as_xyz
	x,y,z

loop_
	_atom_site_label
	_atom_site_type_symbol
	_atom_site_fract_x
	_atom_site_fract_y
	_atom_site_fract_z
	H0	H	0.404604	0.835039	0.713401
	H1	H	0.602376	0.164621	0.709518
	H2	H	0.602141	0.835056	0.283820
	H3	H	0.406782	0.165110	0.285665
	H4	H	0.718487	0.400625	0.835383
	H5	H	0.716693	0.599717	0.163311
	H6	H	0.288644	0.600746	0.834592
	H7	H	0.287073	0.400519	0.162649
	H8	H	0.838988	0.712765	0.401020
	H9	H	0.167858	0.712902	0.594951
	H10	H	0.840369	0.282292	0.598491
	H11	H	0.169075	0.288011	0.400992
	H12	H	0.838789	0.399069	0.713418
	H13	H	0.167206	0.598423	0.713340
	H14	H	0.838638	0.597446	0.284782
	H15	H	0.166686	0.401738	0.282850
	H16	H	0.405822	0.714096	0.833980
	H17	H	0.599445	0.713692	0.163379
	H18	H	0.600349	0.289631	0.832876
	H19	H	0.402604	0.284725	0.162560
	H20	H	0.717847	0.834917	0.398336
	H21	H	0.718235	0.163793	0.595756
	H22	H	0.288751	0.835343	0.599766
	H23	H	0.291463	0.164445	0.399409
	H24	H	0.902617	0.334330	0.213484
	H25	H	0.101003	0.664079	0.210124
	H26	H	0.099534	0.333817	0.787786
	H27	H	0.905227	0.663953	0.783816
	H28	H	0.218323	0.901236	0.334671
	H29	H	0.217385	0.096947	0.662674
	H30	H	0.791058	0.100420	0.334079
	H31	H	0.787386	0.897670	0.662138
	H32	H	0.338455	0.213355	0.900967
	H33	H	0.666756	0.214765	0.094323
	H34	H	0.337701	0.786787	0.096215
	H35	H	0.665646	0.785255	0.899658
	H36	H	0.339428	0.900459	0.214228
	H37	H	0.666657	0.101207	0.211696
	H38	H	0.339081	0.098393	0.783980
	H39	H	0.667007	0.900809	0.783233
	H40	H	0.909677	0.212968	0.334073
	H41	H	0.102560	0.212085	0.663270
	H42	H	0.101832	0.787255	0.334099
	H43	H	0.905978	0.784919	0.663262
	H44	H	0.217320	0.335085	0.899547
	H45	H	0.215195	0.664909	0.095377
	H46	H	0.786592	0.335336	0.099673
	H47	H	0.789586	0.664476	0.899647
	H48	H	0.402039	0.120287	0.590573
	H49	H	0.591286	0.881040	0.593817
	H50	H	0.594253	0.117855	0.398938
	H51	H	0.418547	0.883273	0.403457
	H52	H	0.592147	0.406403	0.115787
	H53	H	0.588796	0.587437	0.885515
	H54	H	0.404923	0.594537	0.117188
	H55	H	0.411695	0.405436	0.881366
	H56	H	0.123368	0.594654	0.393160
	H57	H	0.886235	0.585780	0.599754
	H58	H	0.121336	0.404123	0.595395
	H59	H	0.888593	0.409057	0.408012
	H60	H	0.121472	0.405129	0.592457
	H61	H	0.882880	0.600557	0.593285
	H62	H	0.120119	0.600910	0.410526
	H63	H	0.886185	0.405717	0.404077
	H64	H	0.406540	0.589755	0.115955
	H65	H	0.594998	0.602919	0.880033
	H66	H	0.595979	0.405849	0.116157
	H67	H	0.405333	0.407411	0.880137
	H68	H	0.595316	0.114241	0.409850
	H69	H	0.595277	0.883520	0.585913
	H70	H	0.414874	0.118917	0.598831
	H71	H	0.407951	0.882943	0.414371
	H72	H	0.909645	0.617939	0.092307
	H73	H	0.092930	0.383501	0.084047
	H74	H	0.096415	0.618037	0.902667
	H75	H	0.904000	0.379860	0.907954
	H76	H	0.098270	0.894192	0.620011
	H77	H	0.098863	0.094862	0.380941
	H78	H	0.918057	0.090653	0.613869
	H79	H	0.900686	0.907696	0.378771
	H80	H	0.621127	0.097725	0.903465
	H81	H	0.385797	0.091245	0.093744
	H82	H	0.622961	0.904948	0.100448
	H83	H	0.383316	0.901023	0.904458
	H84	H	0.619223	0.900624	0.083020
	H85	H	0.385184	0.093783	0.092542
	H86	H	0.618526	0.092661	0.905946
	H87	H	0.389196	0.909564	0.911356
	H88	H	0.906485	0.096312	0.618518
	H89	H	0.099700	0.094327	0.379829
	H90	H	0.106217	0.915110	0.616806
	H91	H	0.915216	0.914204	0.384878
	H92	H	0.095017	0.616958	0.905859
	H93	H	0.102952	0.379401	0.091846
	H94	H	0.911261	0.615640	0.090033
	H95	H	0.912395	0.380975	0.902657
	H96	H	0.414404	0.114843	0.584191
	H97	H	0.599736	0.879780	0.592542
	H98	H	0.604596	0.119995	0.403363
	H99	H	0.405381	0.878136	0.401267
	H100	H	0.594845	0.409778	0.114991
	H101	H	0.605130	0.588497	0.880598
	H102	H	0.410270	0.593874	0.116307
	H103	H	0.410368	0.411945	0.882480
	H104	H	0.116536	0.583433	0.405988
	H105	H	0.889774	0.588758	0.584246
	H106	H	0.120434	0.407012	0.593789
	H107	H	0.886624	0.402929	0.409025
	H108	H	0.908683	0.616799	0.089821
	H109	H	0.090907	0.380719	0.097678
	H110	H	0.098217	0.618190	0.905134
	H111	H	0.911991	0.384533	0.912218
	H112	H	0.085082	0.909340	0.611745
	H113	H	0.098965	0.092802	0.381043
	H114	H	0.906933	0.082560	0.613903
	H115	H	0.915096	0.898067	0.379987
	H116	H	0.620397	0.092452	0.900472
	H117	H	0.385879	0.091784	0.091221
	H118	H	0.616426	0.917106	0.088822
	H119	H	0.385768	0.911934	0.899714
	C120	C	0.381952	0.008533	0.620178
	C121	C	0.624580	0.990667	0.618672
	C122	C	0.626183	0.008306	0.375950
	C123	C	0.382831	0.991022	0.377608
	C124	C	0.623439	0.379047	0.007072
	C125	C	0.624334	0.621898	0.990451
	C126	C	0.380248	0.621674	0.007222
	C127	C	0.380344	0.378703	0.990039
	C128	C	0.011825	0.621504	0.375403
	C129	C	0.995101	0.619906	0.619885
	C130	C	0.012107	0.376652	0.621657
	C131	C	0.995377	0.377941	0.377657
	C132	C	0.880384	0.507907	0.120397
	C133	C	0.123963	0.490595	0.119385
	C134	C	0.124383	0.508526	0.876598
	C135	C	0.881410	0.490612	0.878266
	C136	C	0.125319	0.878011	0.507589
	C137	C	0.126854	0.121571	0.489515
	C138	C	0.882960	0.120188	0.506991
	C139	C	0.881136	0.877150	0.489858
	C140	C	0.511627	0.122424	0.875439
	C141	C	0.494077	0.121787	0.119853
	C142	C	0.511125	0.878407	0.120013
	C143	C	0.494291	0.878814	0.876592
	C144	C	0.383994	0.884288	0.675772
	C145	C	0.622898	0.115105	0.672578
	C146	C	0.623095	0.884328	0.321235
	C147	C	0.385937	0.115419	0.322803
	C148	C	0.679851	0.380991	0.884082
	C149	C	0.678927	0.619699	0.114278
	C150	C	0.326368	0.620524	0.883393
	C151	C	0.325104	0.380518	0.113633
	C152	C	0.888026	0.675462	0.379640
	C153	C	0.118828	0.675329	0.616548
	C154	C	0.888850	0.320676	0.618867
	C155	C	0.119419	0.324440	0.380014
	C156	C	0.888269	0.378472	0.676195
	C157	C	0.118316	0.618568	0.675242
	C158	C	0.887925	0.618460	0.321715
	C159	C	0.118315	0.380880	0.321198
	C160	C	0.384812	0.676558	0.883180
	C161	C	0.620792	0.676411	0.114438
	C162	C	0.621076	0.325796	0.882738
	C163	C	0.382803	0.323080	0.113543
	C164	C	0.680695	0.884377	0.378298
	C165	C	0.680489	0.114650	0.616102
	C166	C	0.326639	0.884404	0.619019
	C167	C	0.328829	0.115095	0.379835
	C168	C	0.882259	0.383967	0.176028
	C169	C	0.120636	0.614810	0.172988
	C170	C	0.120823	0.383572	0.823829
	C171	C	0.884289	0.614839	0.822000
	C172	C	0.180657	0.880685	0.383823
	C173	C	0.180173	0.117723	0.613747
	C174	C	0.828886	0.119513	0.383074
	C175	C	0.825818	0.878303	0.613393
	C176	C	0.387712	0.176499	0.879379
	C177	C	0.617734	0.177074	0.115610
	C178	C	0.387117	0.823941	0.116992
	C179	C	0.617453	0.823450	0.878802
	C180	C	0.387975	0.880306	0.175904
	C181	C	0.617694	0.120814	0.174078
	C182	C	0.388030	0.119187	0.821476
	C183	C	0.617756	0.881057	0.821240
	C184	C	0.887682	0.175486	0.383103
	C185	C	0.122906	0.174831	0.614063
	C186	C	0.122857	0.824054	0.383448
	C187	C	0.884629	0.822105	0.613972
	C188	C	0.179461	0.384315	0.879389
	C189	C	0.177830	0.615321	0.116009
	C190	C	0.824527	0.384487	0.119528
	C191	C	0.826782	0.615064	0.879297
	C192	C	0.403907	0.095424	0.597755
	C193	C	0.602029	0.903975	0.597075
	C194	C	0.604418	0.095048	0.397693
	C195	C	0.404370	0.903847	0.399739
	C196	C	0.600891	0.400909	0.093408
	C197	C	0.602697	0.599696	0.904453
	C198	C	0.401018	0.599366	0.094055
	C199	C	0.402540	0.401630	0.903515
	C200	C	0.097716	0.599564	0.396871
	C201	C	0.908805	0.598024	0.598716
	C202	C	0.098528	0.398867	0.600286
	C203	C	0.909393	0.399415	0.400434
	C204	C	0.903088	0.594623	0.097512
	C205	C	0.102240	0.403583	0.097612
	C206	C	0.102926	0.595258	0.898068
	C207	C	0.903039	0.404319	0.900960
	C208	C	0.103090	0.899648	0.593753
	C209	C	0.105612	0.100299	0.403036
	C210	C	0.904051	0.096892	0.593021
	C211	C	0.903764	0.900010	0.403610
	C212	C	0.597755	0.100840	0.896954
	C213	C	0.407900	0.098836	0.098839
	C214	C	0.597339	0.900855	0.097413
	C215	C	0.408357	0.900882	0.898776
	Zn216	Zn	0.503364	0.000236	0.747166
	Zn217	Zn	0.503610	0.000201	0.248599
	Zn218	Zn	0.752647	0.499796	-0.000601
	Zn219	Zn	0.252073	0.500482	-0.001716
	Zn220	Zn	0.003447	0.749527	0.498453
	Zn221	Zn	0.004859	0.248765	0.499254
	Zn222	Zn	0.002814	0.498789	0.749619
	Zn223	Zn	0.002592	0.498992	0.247483
	Zn224	Zn	0.502334	0.749676	-0.001351
	Zn225	Zn	0.502682	0.250518	-0.001835
	Zn226	Zn	0.753484	-0.000721	0.498208
	Zn227	Zn	0.254277	-0.000559	0.498797
	N228	N	0.417939	0.962349	0.676343
	N229	N	0.588839	0.037006	0.674451
	N230	N	0.589754	0.962492	0.319609
	N231	N	0.418960	0.037002	0.321237
	N232	N	0.681312	0.413575	0.962366
	N233	N	0.681396	0.586631	0.036160
	N234	N	0.323526	0.587089	0.961529
	N235	N	0.323653	0.414734	0.035609
	N236	N	0.965954	0.677707	0.412285
	N237	N	0.041154	0.676453	0.582963
	N238	N	0.966899	0.319138	0.585838
	N239	N	0.041960	0.322544	0.414492
	N240	N	0.965881	0.412603	0.677999
	N241	N	0.040526	0.584777	0.677363
	N242	N	0.965843	0.585664	0.318764
	N243	N	0.040296	0.413383	0.319470
	N244	N	0.417735	0.677414	0.961272
	N245	N	0.587501	0.677932	0.036658
	N246	N	0.586770	0.324369	0.960375
	N247	N	0.416261	0.321887	0.035737
	N248	N	0.682756	0.962503	0.411231
	N249	N	0.681625	0.036252	0.583206
	N250	N	0.325212	0.962672	0.585155
	N251	N	0.326989	0.036697	0.413407
	N252	N	0.916532	0.462004	0.176542
	N253	N	0.087940	0.536115	0.175142
	N254	N	0.087417	0.461594	0.822029
	N255	N	0.917472	0.536681	0.821134
	N256	N	0.182507	0.913520	0.461932
	N257	N	0.182726	0.085316	0.535666
	N258	N	0.825890	0.085567	0.461016
	N259	N	0.823558	0.911563	0.535189
	N260	N	0.465615	0.178700	0.912303
	N261	N	0.540048	0.177596	0.082434
	N262	N	0.465021	0.822612	0.083055
	N263	N	0.540003	0.821815	0.912659
	N264	N	0.465939	0.913417	0.177800
	N265	N	0.539798	0.086937	0.176904
	N266	N	0.466096	0.086770	0.818527
	N267	N	0.540134	0.914797	0.819834
	N268	N	0.920631	0.175990	0.460977
	N269	N	0.090669	0.177569	0.535764
	N270	N	0.088839	0.822230	0.461196
	N271	N	0.918367	0.821364	0.536064
	N272	N	0.181901	0.463063	0.911828
	N273	N	0.179825	0.536969	0.083233
	N274	N	0.823516	0.462564	0.085554
	N275	N	0.825076	0.537075	0.913824
	O276	O	0.913479	0.946676	0.026962
	H277	H	0.909291	0.941769	0.025349
	H278	H	0.918664	0.941364	0.023168
	O279	O	-0.029225	-0.040344	-0.008420
	H280	H	-0.019580	-0.048260	-0.005447
	H281	H	-0.036120	-0.038612	-0.004858
	O282	O	-0.024378	-0.018177	1.023373
	H283	H	-0.027316	-0.021223	1.025852
	H284	H	-0.031797	-0.022962	1.024248
	O285	O	0.548877	0.481674	0.486159
	H286	H	0.551564	0.477527	0.483568
	H287	H	0.543103	0.488472	0.481999
	O288	O	0.527074	0.523490	0.533569
	H289	H	0.513890	0.517576	0.536910
	H290	H	0.532053	0.528760	0.533718
	O291	O	0.473888	0.545624	0.508611
	H292	H	0.480653	0.545428	0.502355
	H293	H	0.473964	0.539031	0.510175
	O294	O	-0.032651	-0.013370	0.019161
	H295	H	-0.043946	-0.017799	0.033792
	H296	H	-0.025106	-0.009749	0.020890
	O297	O	0.510603	0.496327	0.476444
	H298	H	0.506971	0.487966	0.481180
	H299	H	0.513819	0.495334	0.479211
	O300	O	-0.071811	0.986141	0.973150
	H301	H	-0.066889	0.988927	0.972695
	H302	H	-0.070764	0.987625	0.973547
	O303	O	0.544444	0.524827	0.529326
	H304	H	0.553418	0.531415	0.529349
	H305	H	0.544469	0.521076	0.524410
	O306	O	-0.069962	-0.051004	1.010775
	H307	H	-0.080919	-0.045699	1.004333
	H308	H	-0.065781	-0.044487	1.010567
	O309	O	0.995621	1.013261	1.015857
	H310	H	0.990128	1.007783	1.012644
	H311	H	0.996868	1.022520	1.011582
	O312	O	0.514954	0.476328	0.522202
	H313	H	0.509226	0.474545	0.523139
	H314	H	0.510724	0.479740	0.529474
	O315	O	0.515539	0.442252	0.525113
	H316	H	0.521513	0.438327	0.526502
	H317	H	0.514913	0.445948	0.524928
	O318	O	-0.059422	0.941050	0.022808
	H319	H	-0.064988	0.938932	0.029954
	H320	H	-0.056548	0.937768	0.025180
	O321	O	0.924030	0.942464	0.017777
	H322	H	0.914971	0.938108	0.021814
	H323	H	0.931060	0.932151	0.011243
