data_Molecule from HDF5

_cell_length_a		16.329721
_cell_length_b		16.207542
_cell_length_c		16.238508
_cell_angle_alpha	90.133124
_cell_angle_beta	90.039141
_cell_angle_gamma	90.089774
_symmetry_space_group_name_H-M	'P 1'
_symmetry_Int_Tables_number		1

loop_
	_symmetry_equiv_pos_as_xyz
	x,y,z

loop_
	_atom_site_label
	_atom_site_type_symbol
	_atom_site_fract_x
	_atom_site_fract_y
	_atom_site_fract_z
	H0	H	0.402937	0.835111	0.712071
	H1	H	0.598272	0.164237	0.713604
	H2	H	0.597201	0.834645	0.286634
	H3	H	0.403154	0.164156	0.286774
	H4	H	0.713905	0.400753	0.835638
	H5	H	0.714827	0.599524	0.163916
	H6	H	0.284482	0.598938	0.836923
	H7	H	0.284952	0.399600	0.163950
	H8	H	0.835890	0.713274	0.402828
	H9	H	0.162752	0.715273	0.598103
	H10	H	0.835716	0.285818	0.596846
	H11	H	0.163360	0.285944	0.401783
	H12	H	0.836586	0.402681	0.713675
	H13	H	0.162569	0.599368	0.714871
	H14	H	0.836562	0.598166	0.285435
	H15	H	0.163178	0.402714	0.286718
	H16	H	0.402549	0.712843	0.835833
	H17	H	0.597745	0.713394	0.164212
	H18	H	0.596089	0.286420	0.835463
	H19	H	0.404330	0.287912	0.164948
	H20	H	0.713498	0.835348	0.401442
	H21	H	0.714801	0.164182	0.599202
	H22	H	0.285159	0.836164	0.598006
	H23	H	0.286014	0.164069	0.401002
	H24	H	0.903763	0.335105	0.211944
	H25	H	0.098115	0.664114	0.215614
	H26	H	0.096953	0.335721	0.785779
	H27	H	0.903360	0.664864	0.787779
	H28	H	0.213991	0.900740	0.336152
	H29	H	0.215573	0.099792	0.663183
	H30	H	0.785754	0.098094	0.336239
	H31	H	0.784659	0.900449	0.663396
	H32	H	0.336213	0.213776	0.902142
	H33	H	0.663544	0.214161	0.097240
	H34	H	0.336369	0.786366	0.097446
	H35	H	0.663232	0.785836	0.901709
	H36	H	0.336486	0.901210	0.214111
	H37	H	0.663744	0.098106	0.214191
	H38	H	0.336531	0.097398	0.785437
	H39	H	0.663369	0.902267	0.785878
	H40	H	0.902821	0.212103	0.335681
	H41	H	0.098065	0.214391	0.663940
	H42	H	0.096731	0.786726	0.335607
	H43	H	0.903995	0.789199	0.664899
	H44	H	0.213271	0.335825	0.901298
	H45	H	0.215388	0.663868	0.100520
	H46	H	0.785952	0.335235	0.097670
	H47	H	0.785809	0.664771	0.900946
	H48	H	0.405966	0.117135	0.590197
	H49	H	0.594311	0.883247	0.589710
	H50	H	0.594439	0.116599	0.409261
	H51	H	0.401377	0.881223	0.409868
	H52	H	0.599247	0.407151	0.118257
	H53	H	0.610296	0.586841	0.879969
	H54	H	0.414647	0.593674	0.115716
	H55	H	0.410044	0.407042	0.884200
	H56	H	0.117297	0.591400	0.402141
	H57	H	0.881486	0.592387	0.600389
	H58	H	0.115070	0.410539	0.592579
	H59	H	0.882794	0.403332	0.407570
	H60	H	0.117195	0.406287	0.597460
	H61	H	0.881830	0.600139	0.592243
	H62	H	0.116379	0.598451	0.408916
	H63	H	0.884155	0.408376	0.407681
	H64	H	0.402731	0.599118	0.120602
	H65	H	0.581727	0.583406	0.888894
	H66	H	0.592247	0.412892	0.115394
	H67	H	0.404061	0.402197	0.881236
	H68	H	0.595089	0.117954	0.405259
	H69	H	0.595252	0.881077	0.594430
	H70	H	0.404361	0.119234	0.595093
	H71	H	0.405262	0.880523	0.401280
	H72	H	0.901506	0.616191	0.083620
	H73	H	0.090467	0.384898	0.090091
	H74	H	0.093845	0.617231	0.908775
	H75	H	0.896069	0.378677	0.904639
	H76	H	0.092597	0.911923	0.615821
	H77	H	0.086897	0.092928	0.383954
	H78	H	0.913068	0.092090	0.615040
	H79	H	0.907645	0.892802	0.378753
	H80	H	0.616886	0.095915	0.906412
	H81	H	0.384810	0.092653	0.090588
	H82	H	0.617879	0.903660	0.094401
	H83	H	0.379696	0.897951	0.897723
	H84	H	0.615358	0.907739	0.090633
	H85	H	0.384026	0.091037	0.097241
	H86	H	0.615681	0.092632	0.908004
	H87	H	0.385891	0.903432	0.916615
	H88	H	0.904825	0.098253	0.619716
	H89	H	0.097763	0.100057	0.379338
	H90	H	0.090725	0.904119	0.617140
	H91	H	0.892653	0.912587	0.380377
	H92	H	0.094461	0.617460	0.907575
	H93	H	0.099697	0.381532	0.092259
	H94	H	0.901829	0.621816	0.101723
	H95	H	0.914162	0.383534	0.898332
	H96	H	0.408865	0.117456	0.594235
	H97	H	0.591221	0.882885	0.593846
	H98	H	0.591326	0.117026	0.406649
	H99	H	0.410325	0.884110	0.408235
	H100	H	0.591076	0.403003	0.117456
	H101	H	0.591059	0.609750	0.878576
	H102	H	0.403923	0.585985	0.115709
	H103	H	0.402966	0.410793	0.883409
	H104	H	0.114122	0.589431	0.411365
	H105	H	0.885873	0.589399	0.589922
	H106	H	0.116127	0.403752	0.590825
	H107	H	0.881891	0.406191	0.403925
	H108	H	0.916671	0.613989	0.093823
	H109	H	0.092274	0.381393	0.099084
	H110	H	0.093321	0.617682	0.907818
	H111	H	0.908373	0.386701	0.917164
	H112	H	0.098038	0.906774	0.618552
	H113	H	0.099109	0.086584	0.382644
	H114	H	0.903134	0.087286	0.616587
	H115	H	0.916585	0.914352	0.387652
	H116	H	0.616764	0.093080	0.904304
	H117	H	0.382120	0.097886	0.095217
	H118	H	0.616451	0.909311	0.096353
	H119	H	0.385763	0.917536	0.901579
	C120	C	0.378395	0.008922	0.620999
	C121	C	0.621923	0.991230	0.621422
	C122	C	0.621590	0.008160	0.378671
	C123	C	0.378085	0.991014	0.378315
	C124	C	0.621757	0.378940	0.008351
	C125	C	0.621996	0.621502	0.991513
	C126	C	0.378588	0.621450	0.008746
	C127	C	0.378100	0.378391	0.991520
	C128	C	0.008045	0.621621	0.378845
	C129	C	0.991058	0.622447	0.622341
	C130	C	0.007928	0.378309	0.621758
	C131	C	0.991235	0.377947	0.378399
	C132	C	0.878515	0.508606	0.121430
	C133	C	0.122129	0.491227	0.122208
	C134	C	0.121532	0.508590	0.879164
	C135	C	0.878053	0.491638	0.878137
	C136	C	0.121451	0.879042	0.508405
	C137	C	0.122086	0.121496	0.490944
	C138	C	0.878811	0.120642	0.508814
	C139	C	0.877941	0.878531	0.491131
	C140	C	0.508246	0.122190	0.877810
	C141	C	0.491784	0.121935	0.122217
	C142	C	0.508333	0.878333	0.121697
	C143	C	0.491772	0.878148	0.877547
	C144	C	0.381889	0.884455	0.674832
	C145	C	0.618960	0.115336	0.676212
	C146	C	0.617898	0.883959	0.324148
	C147	C	0.382154	0.115097	0.324305
	C148	C	0.676286	0.380432	0.884679
	C149	C	0.676945	0.619428	0.114902
	C150	C	0.323088	0.618925	0.885600
	C151	C	0.323505	0.380309	0.115324
	C152	C	0.884755	0.676061	0.381589
	C153	C	0.113987	0.677417	0.619162
	C154	C	0.884707	0.323875	0.617950
	C155	C	0.114463	0.323693	0.381572
	C156	C	0.884860	0.381994	0.675727
	C157	C	0.114039	0.619733	0.676858
	C158	C	0.885141	0.618684	0.323411
	C159	C	0.114400	0.381573	0.324174
	C160	C	0.381716	0.675474	0.885113
	C161	C	0.619230	0.676537	0.115007
	C162	C	0.617542	0.324153	0.884476
	C163	C	0.382581	0.324618	0.115766
	C164	C	0.675780	0.884201	0.381273
	C165	C	0.676970	0.114922	0.619394
	C166	C	0.323323	0.885013	0.618490
	C167	C	0.324068	0.115189	0.381075
	C168	C	0.882275	0.384330	0.175258
	C169	C	0.119150	0.615313	0.177400
	C170	C	0.117788	0.384783	0.823969
	C171	C	0.882040	0.615657	0.824515
	C172	C	0.175822	0.881069	0.384950
	C173	C	0.177143	0.119578	0.614551
	C174	C	0.823475	0.118572	0.385173
	C175	C	0.823200	0.880860	0.614636
	C176	C	0.384873	0.175923	0.881470
	C177	C	0.615017	0.176205	0.118454
	C178	C	0.385127	0.823761	0.118098
	C179	C	0.614604	0.823685	0.881125
	C180	C	0.385188	0.880930	0.176048
	C181	C	0.614962	0.118416	0.176417
	C182	C	0.385129	0.118320	0.823451
	C183	C	0.614634	0.881214	0.823390
	C184	C	0.881842	0.174789	0.384640
	C185	C	0.118815	0.176424	0.614869
	C186	C	0.118116	0.823808	0.384800
	C187	C	0.882253	0.825361	0.615403
	C188	C	0.175697	0.384867	0.881168
	C189	C	0.177023	0.615143	0.120115
	C190	C	0.824411	0.384228	0.117983
	C191	C	0.823579	0.615445	0.880693
	C192	C	0.399988	0.095517	0.599653
	C193	C	0.600156	0.904703	0.599243
	C194	C	0.600013	0.094835	0.400572
	C195	C	0.399270	0.904340	0.399978
	C196	C	0.600367	0.401061	0.094788
	C197	C	0.600721	0.599783	0.904781
	C198	C	0.400737	0.599461	0.095215
	C199	C	0.399352	0.400151	0.905186
	C200	C	0.093905	0.599673	0.400863
	C201	C	0.905040	0.600546	0.600616
	C202	C	0.093924	0.400239	0.600058
	C203	C	0.905185	0.399538	0.399917
	C204	C	0.900082	0.595057	0.099665
	C205	C	0.100554	0.404928	0.100243
	C206	C	0.100205	0.595186	0.901494
	C207	C	0.899654	0.405132	0.900217
	C208	C	0.099980	0.901114	0.595069
	C209	C	0.100856	0.099649	0.404527
	C210	C	0.900648	0.099060	0.594916
	C211	C	0.899348	0.900112	0.404435
	C212	C	0.594156	0.100537	0.899676
	C213	C	0.405734	0.100338	0.100621
	C214	C	0.594385	0.900403	0.100194
	C215	C	0.405854	0.899888	0.899031
	Zn216	Zn	0.500260	-0.000033	0.748715
	Zn217	Zn	0.499887	-0.000504	0.250343
	Zn218	Zn	0.750543	0.500119	-0.000537
	Zn219	Zn	0.250209	0.499580	0.000599
	Zn220	Zn	-0.000536	0.750681	0.500023
	Zn221	Zn	-0.000358	0.249092	0.499931
	Zn222	Zn	0.000091	0.500520	0.750894
	Zn223	Zn	-0.000049	0.499983	0.250030
	Zn224	Zn	0.500071	0.749616	-0.000021
	Zn225	Zn	0.499697	0.250881	0.000102
	Zn226	Zn	0.750060	-0.000038	0.500092
	Zn227	Zn	0.250394	-0.000066	0.499688
	N228	N	0.415672	0.962350	0.676492
	N229	N	0.585589	0.037391	0.677809
	N230	N	0.584901	0.961990	0.322447
	N231	N	0.414910	0.037033	0.322331
	N232	N	0.678632	0.414039	0.962366
	N233	N	0.678639	0.585743	0.037101
	N234	N	0.321252	0.585837	0.963537
	N235	N	0.320712	0.413036	0.037224
	N236	N	0.961900	0.677729	0.415536
	N237	N	0.036594	0.679005	0.585846
	N238	N	0.962285	0.321533	0.585220
	N239	N	0.036870	0.321389	0.414505
	N240	N	0.962484	0.415253	0.678085
	N241	N	0.036560	0.586435	0.678983
	N242	N	0.962643	0.585492	0.321805
	N243	N	0.036877	0.414463	0.322153
	N244	N	0.415391	0.677101	0.962817
	N245	N	0.585606	0.677839	0.037331
	N246	N	0.584588	0.322936	0.962448
	N247	N	0.415968	0.323592	0.038057
	N248	N	0.678272	0.962399	0.414302
	N249	N	0.678573	0.037057	0.585860
	N250	N	0.320963	0.963157	0.585982
	N251	N	0.321609	0.037072	0.413919
	N252	N	0.915461	0.462442	0.177179
	N253	N	0.085682	0.537551	0.178784
	N254	N	0.084831	0.462797	0.822803
	N255	N	0.915243	0.537634	0.822868
	N256	N	0.177848	0.914410	0.462778
	N257	N	0.179244	0.086113	0.536663
	N258	N	0.821739	0.085271	0.463009
	N259	N	0.820388	0.912935	0.536333
	N260	N	0.462383	0.178398	0.914539
	N261	N	0.537452	0.178519	0.085483
	N262	N	0.462564	0.822241	0.084814
	N263	N	0.537190	0.821725	0.914092
	N264	N	0.462694	0.914163	0.178385
	N265	N	0.537390	0.085330	0.178658
	N266	N	0.462802	0.085533	0.821130
	N267	N	0.537207	0.914484	0.821010
	N268	N	0.915209	0.176414	0.462370
	N269	N	0.085226	0.177698	0.537260
	N270	N	0.084883	0.822447	0.462623
	N271	N	0.915497	0.823688	0.537532
	N272	N	0.178163	0.462864	0.914562
	N273	N	0.178955	0.537156	0.086352
	N274	N	0.821949	0.462382	0.085092
	N275	N	0.821079	0.537256	0.913299
