data_Molecule from HDF5

_cell_length_a		16.242218
_cell_length_b		16.181735
_cell_length_c		16.169137
_cell_angle_alpha	90.205597
_cell_angle_beta	89.905406
_cell_angle_gamma	90.226242
_symmetry_space_group_name_H-M	'P 1'
_symmetry_Int_Tables_number		1

loop_
	_symmetry_equiv_pos_as_xyz
	x,y,z

loop_
	_atom_site_label
	_atom_site_type_symbol
	_atom_site_fract_x
	_atom_site_fract_y
	_atom_site_fract_z
	H0	H	0.400688	0.834534	0.711788
	H1	H	0.599604	0.164338	0.713917
	H2	H	0.598994	0.835031	0.283182
	H3	H	0.403511	0.164974	0.287001
	H4	H	0.716144	0.399662	0.833313
	H5	H	0.717666	0.598303	0.162830
	H6	H	0.287334	0.597956	0.834859
	H7	H	0.286084	0.396901	0.161926
	H8	H	0.836733	0.713726	0.399643
	H9	H	0.165362	0.715357	0.597546
	H10	H	0.836501	0.285122	0.596508
	H11	H	0.165110	0.285471	0.399562
	H12	H	0.836542	0.400980	0.712771
	H13	H	0.165501	0.598907	0.711542
	H14	H	0.836949	0.596486	0.283723
	H15	H	0.165780	0.400444	0.284547
	H16	H	0.404560	0.710434	0.833640
	H17	H	0.603132	0.714283	0.162957
	H18	H	0.600930	0.284719	0.833946
	H19	H	0.404665	0.287578	0.163576
	H20	H	0.715863	0.835856	0.397490
	H21	H	0.716246	0.164649	0.597949
	H22	H	0.285188	0.836133	0.596941
	H23	H	0.288012	0.163882	0.399987
	H24	H	0.901674	0.334429	0.211631
	H25	H	0.101256	0.663132	0.213108
	H26	H	0.100208	0.335382	0.781508
	H27	H	0.906264	0.664960	0.787249
	H28	H	0.215669	0.900115	0.334047
	H29	H	0.215656	0.099365	0.663165
	H30	H	0.788075	0.098242	0.334215
	H31	H	0.785745	0.899679	0.662332
	H32	H	0.338426	0.213812	0.900306
	H33	H	0.665944	0.213145	0.097412
	H34	H	0.337891	0.782452	0.098649
	H35	H	0.666634	0.785838	0.899911
	H36	H	0.336203	0.901350	0.211833
	H37	H	0.665071	0.098312	0.213645
	H38	H	0.336828	0.097145	0.785944
	H39	H	0.665510	0.899526	0.782301
	H40	H	0.903478	0.210736	0.333438
	H41	H	0.100438	0.214598	0.663217
	H42	H	0.099568	0.784935	0.334109
	H43	H	0.902519	0.787364	0.663831
	H44	H	0.216331	0.333983	0.896775
	H45	H	0.218477	0.662201	0.099082
	H46	H	0.787333	0.334952	0.096614
	H47	H	0.789025	0.663585	0.899269
	H48	H	0.412385	0.116632	0.594559
	H49	H	0.604306	0.881398	0.583173
	H50	H	0.604946	0.118276	0.411894
	H51	H	0.407235	0.881403	0.404866
	H52	H	0.593194	0.408656	0.115226
	H53	H	0.592407	0.593563	0.880720
	H54	H	0.412206	0.592147	0.116526
	H55	H	0.412437	0.404257	0.880655
	H56	H	0.117534	0.599503	0.410704
	H57	H	0.882073	0.597540	0.594462
	H58	H	0.119477	0.403656	0.592704
	H59	H	0.881376	0.411192	0.392284
	H60	H	0.117631	0.406196	0.586550
	H61	H	0.884709	0.593231	0.589547
	H62	H	0.114786	0.585609	0.409150
	H63	H	0.879748	0.390432	0.403960
	H64	H	0.408422	0.589543	0.115759
	H65	H	0.599950	0.594523	0.879536
	H66	H	0.595667	0.402244	0.117982
	H67	H	0.407306	0.404047	0.879078
	H68	H	0.593682	0.120561	0.395578
	H69	H	0.593365	0.878794	0.602701
	H70	H	0.407791	0.116775	0.587443
	H71	H	0.407974	0.882028	0.405171
	H72	H	0.898921	0.620771	0.092717
	H73	H	0.099053	0.379697	0.089664
	H74	H	0.096137	0.619298	0.897598
	H75	H	0.909542	0.381833	0.905162
	H76	H	0.092351	0.900342	0.618015
	H77	H	0.099893	0.088220	0.380518
	H78	H	0.899542	0.094720	0.620221
	H79	H	0.915078	0.899756	0.380607
	H80	H	0.618084	0.087145	0.903653
	H81	H	0.382645	0.092127	0.097823
	H82	H	0.616066	0.906560	0.082612
	H83	H	0.385816	0.905500	0.908563
	H84	H	0.617739	0.914998	0.096204
	H85	H	0.382165	0.098830	0.092613
	H86	H	0.619851	0.095593	0.903902
	H87	H	0.385107	0.905576	0.903641
	H88	H	0.910818	0.084278	0.613971
	H89	H	0.088822	0.089952	0.383240
	H90	H	0.100454	0.911461	0.617236
	H91	H	0.901594	0.904637	0.378383
	H92	H	0.089054	0.612713	0.911392
	H93	H	0.093194	0.379663	0.095153
	H94	H	0.917404	0.617380	0.100157
	H95	H	0.907730	0.380784	0.904778
	H96	H	0.404602	0.118490	0.595718
	H97	H	0.582920	0.887300	0.584860
	H98	H	0.586352	0.112804	0.411843
	H99	H	0.407326	0.881023	0.405076
	H100	H	0.600384	0.408656	0.117373
	H101	H	0.597506	0.587208	0.881403
	H102	H	0.413182	0.588032	0.114503
	H103	H	0.409329	0.409507	0.880926
	H104	H	0.120647	0.592337	0.399049
	H105	H	0.883924	0.590630	0.594956
	H106	H	0.117215	0.410366	0.592173
	H107	H	0.888181	0.410949	0.414734
	H108	H	0.913877	0.612533	0.080386
	H109	H	0.091569	0.382749	0.088157
	H110	H	0.105022	0.617278	0.911245
	H111	H	0.909385	0.381063	0.903752
	H112	H	0.087277	0.912583	0.613001
	H113	H	0.095787	0.098318	0.378601
	H114	H	0.914661	0.099611	0.616712
	H115	H	0.910939	0.913745	0.383197
	H116	H	0.617706	0.091901	0.910278
	H117	H	0.385713	0.090909	0.088970
	H118	H	0.621764	0.899663	0.096246
	H119	H	0.383267	0.901241	0.905933
	C120	C	0.379461	0.008340	0.620533
	C121	C	0.622782	0.990964	0.620168
	C122	C	0.623272	0.008593	0.376672
	C123	C	0.379353	0.990535	0.376974
	C124	C	0.624501	0.377663	0.007491
	C125	C	0.625219	0.620907	0.989621
	C126	C	0.381669	0.619340	0.007174
	C127	C	0.380801	0.377213	0.989504
	C128	C	0.009332	0.620865	0.377352
	C129	C	0.992340	0.622198	0.620965
	C130	C	0.009271	0.378234	0.619444
	C131	C	0.992493	0.376848	0.375982
	C132	C	0.881004	0.507861	0.119548
	C133	C	0.124222	0.489432	0.120349
	C134	C	0.124576	0.507571	0.876621
	C135	C	0.880619	0.490299	0.876521
	C136	C	0.122580	0.878642	0.507431
	C137	C	0.123308	0.121099	0.489783
	C138	C	0.879990	0.120816	0.507702
	C139	C	0.879944	0.877916	0.489827
	C140	C	0.510275	0.120562	0.877424
	C141	C	0.492402	0.121861	0.121132
	C142	C	0.510033	0.877527	0.120718
	C143	C	0.493215	0.876108	0.876611
	C144	C	0.381060	0.884003	0.674368
	C145	C	0.620162	0.115189	0.675582
	C146	C	0.619854	0.884426	0.320967
	C147	C	0.382765	0.115296	0.323702
	C148	C	0.678838	0.379658	0.882866
	C149	C	0.679720	0.618565	0.113829
	C150	C	0.325995	0.617167	0.883607
	C151	C	0.324501	0.377966	0.113067
	C152	C	0.885709	0.675660	0.379576
	C153	C	0.116394	0.677326	0.618082
	C154	C	0.885588	0.323062	0.617096
	C155	C	0.115922	0.322557	0.378892
	C156	C	0.885767	0.380553	0.674928
	C157	C	0.116290	0.619729	0.675028
	C158	C	0.885930	0.617613	0.321783
	C159	C	0.116322	0.380083	0.321818
	C160	C	0.384153	0.673483	0.883169
	C161	C	0.622927	0.676058	0.113749
	C162	C	0.621562	0.322267	0.883219
	C163	C	0.383346	0.323435	0.113769
	C164	C	0.677896	0.884694	0.377613
	C165	C	0.678250	0.115334	0.618285
	C166	C	0.323522	0.884560	0.617424
	C167	C	0.325259	0.114706	0.379938
	C168	C	0.882047	0.383843	0.174274
	C169	C	0.121858	0.613714	0.175649
	C170	C	0.121075	0.384066	0.820141
	C171	C	0.884730	0.615382	0.823645
	C172	C	0.177715	0.880274	0.383318
	C173	C	0.177980	0.119390	0.613993
	C174	C	0.825384	0.118070	0.383373
	C175	C	0.823596	0.879711	0.613405
	C176	C	0.386876	0.175677	0.879945
	C177	C	0.616695	0.175916	0.118153
	C178	C	0.386661	0.821034	0.118584
	C179	C	0.617310	0.822778	0.879325
	C180	C	0.385795	0.880133	0.174894
	C181	C	0.616265	0.118703	0.175582
	C182	C	0.386087	0.117247	0.823515
	C183	C	0.616679	0.879405	0.820800
	C184	C	0.882469	0.174477	0.383065
	C185	C	0.120397	0.176393	0.614026
	C186	C	0.120347	0.822803	0.383453
	C187	C	0.882003	0.824058	0.614261
	C188	C	0.178502	0.383470	0.877577
	C189	C	0.179976	0.613336	0.118974
	C190	C	0.825150	0.383977	0.117011
	C191	C	0.826580	0.614602	0.879451
	C192	C	0.401847	0.094852	0.599048
	C193	C	0.600215	0.904905	0.596980
	C194	C	0.601454	0.094878	0.399680
	C195	C	0.401015	0.903837	0.398610
	C196	C	0.602998	0.399864	0.094312
	C197	C	0.603118	0.598437	0.903040
	C198	C	0.404666	0.596670	0.093466
	C199	C	0.403138	0.399351	0.902705
	C200	C	0.095264	0.598928	0.399776
	C201	C	0.906011	0.600435	0.599412
	C202	C	0.095800	0.400301	0.597150
	C203	C	0.905569	0.398036	0.397496
	C204	C	0.903601	0.594545	0.097629
	C205	C	0.101310	0.403053	0.097620
	C206	C	0.103030	0.594107	0.899978
	C207	C	0.902315	0.403502	0.898186
	C208	C	0.100128	0.901369	0.593884
	C209	C	0.101349	0.098708	0.403043
	C210	C	0.901832	0.099242	0.594428
	C211	C	0.902523	0.899700	0.403025
	C212	C	0.596266	0.098255	0.899462
	C213	C	0.405903	0.100355	0.099633
	C214	C	0.596198	0.900170	0.098345
	C215	C	0.407066	0.897793	0.899243
	Zn216	Zn	0.501002	-0.001018	0.749188
	Zn217	Zn	0.500254	0.000294	0.249095
	Zn218	Zn	0.752860	0.499574	-0.002156
	Zn219	Zn	0.253027	0.497833	-0.001205
	Zn220	Zn	0.001072	0.750271	0.499316
	Zn221	Zn	0.000925	0.248687	0.498074
	Zn222	Zn	0.001523	0.500234	0.748953
	Zn223	Zn	0.001699	0.498531	0.247913
	Zn224	Zn	0.502643	0.748177	-0.001305
	Zn225	Zn	0.502306	0.249948	-0.000835
	Zn226	Zn	0.752403	-0.000410	0.498413
	Zn227	Zn	0.251768	-0.000249	0.498425
	N228	N	0.415172	0.961963	0.676536
	N229	N	0.586384	0.037151	0.676774
	N230	N	0.586338	0.962448	0.320379
	N231	N	0.415688	0.037167	0.321762
	N232	N	0.680769	0.413648	0.961017
	N233	N	0.681291	0.584958	0.035499
	N234	N	0.324316	0.584207	0.961871
	N235	N	0.322939	0.410836	0.034773
	N236	N	0.963401	0.677647	0.413597
	N237	N	0.038298	0.679146	0.585394
	N238	N	0.963255	0.321629	0.583366
	N239	N	0.037782	0.320566	0.412023
	N240	N	0.963924	0.414258	0.676688
	N241	N	0.038374	0.585981	0.676880
	N242	N	0.963667	0.584440	0.320177
	N243	N	0.038427	0.412902	0.319947
	N244	N	0.418141	0.674817	0.961134
	N245	N	0.589670	0.677695	0.035648
	N246	N	0.588427	0.321090	0.961537
	N247	N	0.417863	0.322804	0.035943
	N248	N	0.680367	0.962817	0.411523
	N249	N	0.680038	0.036988	0.584387
	N250	N	0.322434	0.962779	0.584690
	N251	N	0.322703	0.036085	0.412180
	N252	N	0.916330	0.461732	0.175746
	N253	N	0.088003	0.535659	0.176562
	N254	N	0.088108	0.462183	0.819461
	N255	N	0.917571	0.537118	0.821806
	N256	N	0.179410	0.914059	0.461455
	N257	N	0.179731	0.085580	0.535811
	N258	N	0.823535	0.085462	0.461972
	N259	N	0.821965	0.912163	0.534779
	N260	N	0.464904	0.177697	0.912987
	N261	N	0.538687	0.178040	0.084957
	N262	N	0.465092	0.819336	0.085481
	N263	N	0.539570	0.820533	0.913326
	N264	N	0.463498	0.914325	0.176539
	N265	N	0.538146	0.086011	0.177599
	N266	N	0.463775	0.083855	0.821738
	N267	N	0.538446	0.911761	0.819074
	N268	N	0.915884	0.176145	0.461162
	N269	N	0.087092	0.177743	0.535704
	N270	N	0.086778	0.821702	0.461592
	N271	N	0.916282	0.822883	0.536355
	N272	N	0.180755	0.461409	0.912269
	N273	N	0.181357	0.535136	0.084953
	N274	N	0.824289	0.462013	0.083612
	N275	N	0.823970	0.535818	0.911497
	O276	O	1.011778	1.006713	-0.051349
	H277	H	1.013596	1.008641	-0.056559
	H278	H	1.013336	1.011272	-0.055261
	O279	O	-0.061480	-0.058864	0.981507
	H280	H	-0.069681	-0.059870	0.987320
	H281	H	-0.069773	-0.060651	0.982920
	O282	O	-0.011343	0.028658	-0.045953
	H283	H	-0.027991	0.034700	-0.043186
	H284	H	-0.009605	0.027366	-0.038554
	O285	O	0.422182	0.499865	0.492090
	H286	H	0.423133	0.496652	0.483703
	H287	H	0.426824	0.504760	0.509028
	O288	O	0.027164	0.029352	0.030967
	H289	H	0.027808	0.024927	0.037209
	H290	H	0.031480	0.024266	0.027446
	O291	O	-0.039425	0.977067	-0.005029
	H292	H	-0.037873	0.983905	-0.001564
	H293	H	-0.036583	0.974922	-0.013085
	O294	O	0.039863	0.986296	0.042984
	H295	H	0.047940	0.990025	0.038474
	H296	H	0.036453	0.983645	0.039858
	O297	O	0.502829	0.544769	0.603466
	H298	H	0.510844	0.545192	0.598417
	H299	H	0.517860	0.554214	0.605230
	O300	O	0.537765	0.525632	0.490749
	H301	H	0.542375	0.527830	0.492636
	H302	H	0.534366	0.524835	0.488000
	O303	O	0.943773	-0.031826	1.023607
	H304	H	0.940267	-0.036158	1.024436
	H305	H	0.942745	-0.031511	1.027451
	O306	O	0.967250	1.993393	0.999623
	H307	H	0.959497	1.994195	0.994801
	H308	H	0.966911	1.995888	1.004619
	O309	O	-0.013588	0.998083	1.008362
	H310	H	-0.020562	0.995895	1.013267
	H311	H	-0.006923	0.990177	1.011570
	O312	O	-0.027651	-0.030310	1.042071
	H313	H	-0.024654	-0.033594	1.048895
	H314	H	-0.026098	-0.025479	1.038427
	O315	O	0.603755	0.507462	0.510548
	H316	H	0.607349	0.506052	0.502222
	H317	H	0.604846	0.504889	0.505045
	O318	O	0.467400	-0.506409	0.542015
	H319	H	0.468740	-0.505591	0.542704
	H320	H	0.470720	-0.504389	0.559644
	O321	O	0.464318	0.531312	0.485843
	H322	H	0.458537	0.529834	0.495798
	H323	H	0.462943	0.533003	0.485027
	O324	O	1.013410	-0.020447	1.044272
	H325	H	1.021553	-0.016966	1.046061
	H326	H	1.011952	-0.021752	1.038538
	O327	O	1.024338	0.933285	1.028816
	H328	H	1.026396	0.941626	1.019179
	H329	H	1.028285	0.927046	1.025643
	O330	O	0.503347	0.524460	0.464362
	H331	H	0.504395	0.523615	0.462905
	H332	H	0.505305	0.526421	0.460140
	O333	O	0.471048	0.553057	0.479637
	H334	H	0.453704	0.547295	0.489755
	H335	H	0.464979	0.557399	0.468057
	O336	O	0.587472	0.515901	0.461008
	H337	H	0.580379	0.515803	0.450601
	H338	H	0.580567	0.504662	0.462259
	O339	O	-0.693886	-0.265565	0.197514
	H340	H	-0.690945	-0.263680	0.195997
	H341	H	-0.702170	-0.260132	0.193026
	O342	O	0.573760	0.483250	0.503166
	H343	H	0.575691	0.496898	0.495283
	H344	H	0.575949	0.483253	0.507195
	O345	O	0.448678	0.550393	0.481227
	H346	H	0.446267	0.551068	0.479851
	H347	H	0.443658	0.560502	0.480021
