data_Molecule from HDF5

_cell_length_a		16.155647
_cell_length_b		16.350732
_cell_length_c		16.232368
_cell_angle_alpha	89.988099
_cell_angle_beta	90.036235
_cell_angle_gamma	89.993580
_symmetry_space_group_name_H-M	'P 1'
_symmetry_Int_Tables_number		1

loop_
	_symmetry_equiv_pos_as_xyz
	x,y,z

loop_
	_atom_site_label
	_atom_site_type_symbol
	_atom_site_fract_x
	_atom_site_fract_y
	_atom_site_fract_z
	H0	H	0.401961	0.836853	0.713714
	H1	H	0.598464	0.163705	0.714627
	H2	H	0.596836	0.836510	0.285573
	H3	H	0.401653	0.163585	0.284494
	H4	H	0.712049	0.404220	0.834674
	H5	H	0.710756	0.593686	0.165469
	H6	H	0.288235	0.594543	0.835279
	H7	H	0.288057	0.403908	0.164857
	H8	H	0.835152	0.713083	0.402491
	H9	H	0.164576	0.713861	0.599394
	H10	H	0.835533	0.285539	0.599233
	H11	H	0.165226	0.286297	0.401674
	H12	H	0.834819	0.402883	0.712289
	H13	H	0.165803	0.595921	0.712218
	H14	H	0.834311	0.595939	0.289330
	H15	H	0.165216	0.404025	0.287722
	H16	H	0.401350	0.713519	0.835832
	H17	H	0.599727	0.714385	0.163982
	H18	H	0.600001	0.285179	0.836701
	H19	H	0.400938	0.284726	0.163820
	H20	H	0.712723	0.836226	0.403090
	H21	H	0.713331	0.163867	0.596252
	H22	H	0.288501	0.836263	0.595161
	H23	H	0.286769	0.164523	0.403145
	H24	H	0.902519	0.336186	0.214122
	H25	H	0.097963	0.663225	0.214793
	H26	H	0.097986	0.336024	0.786663
	H27	H	0.901711	0.662912	0.785811
	H28	H	0.211511	0.904808	0.335067
	H29	H	0.211893	0.095497	0.665103
	H30	H	0.787991	0.095403	0.334679
	H31	H	0.787425	0.904018	0.664421
	H32	H	0.335795	0.213795	0.901107
	H33	H	0.664449	0.214409	0.099128
	H34	H	0.334974	0.786754	0.098778
	H35	H	0.664749	0.785864	0.900445
	H36	H	0.334718	0.904248	0.211132
	H37	H	0.664425	0.096929	0.212688
	H38	H	0.334708	0.096592	0.787819
	H39	H	0.665446	0.904415	0.787730
	H40	H	0.899938	0.214363	0.335857
	H41	H	0.099184	0.214675	0.664141
	H42	H	0.099311	0.784978	0.336503
	H43	H	0.901153	0.785520	0.663858
	H44	H	0.213244	0.336441	0.903812
	H45	H	0.213091	0.664281	0.096541
	H46	H	0.787377	0.335540	0.095915
	H47	H	0.787171	0.664019	0.904226
	H48	H	0.409902	0.115581	0.593870
	H49	H	0.588234	0.881510	0.606247
	H50	H	0.584721	0.113814	0.406207
	H51	H	0.409721	0.885683	0.408522
	H52	H	0.596155	0.403789	0.119704
	H53	H	0.592431	0.603266	0.880260
	H54	H	0.408181	0.589933	0.115901
	H55	H	0.401118	0.409481	0.882487
	H56	H	0.121814	0.600854	0.403049
	H57	H	0.884796	0.586074	0.591044
	H58	H	0.121316	0.400342	0.597862
	H59	H	0.881887	0.408276	0.403945
	H60	H	0.116407	0.403712	0.585185
	H61	H	0.879615	0.595154	0.601532
	H62	H	0.116049	0.594569	0.415702
	H63	H	0.880503	0.402555	0.407247
	H64	H	0.410290	0.599369	0.117986
	H65	H	0.600759	0.590204	0.880848
	H66	H	0.593728	0.409093	0.116472
	H67	H	0.413123	0.409348	0.885121
	H68	H	0.599565	0.115922	0.412992
	H69	H	0.586270	0.889111	0.583492
	H70	H	0.403920	0.116621	0.591223
	H71	H	0.399570	0.882733	0.406389
	H72	H	0.902064	0.617046	0.091814
	H73	H	0.098032	0.384275	0.088275
	H74	H	0.096030	0.616260	0.907836
	H75	H	0.897774	0.381475	0.909279
	H76	H	0.090812	0.914191	0.614721
	H77	H	0.092212	0.098557	0.381425
	H78	H	0.893726	0.090978	0.620349
	H79	H	0.914001	0.895577	0.381936
	H80	H	0.619449	0.099658	0.909686
	H81	H	0.378761	0.100256	0.096402
	H82	H	0.619591	0.896754	0.087035
	H83	H	0.385837	0.910690	0.915258
	H84	H	0.614580	0.914973	0.089288
	H85	H	0.383440	0.095479	0.084186
	H86	H	0.615486	0.089174	0.911739
	H87	H	0.381326	0.911126	0.897958
	H88	H	0.915982	0.084651	0.612048
	H89	H	0.096087	0.092392	0.382119
	H90	H	0.087267	0.899041	0.617835
	H91	H	0.895592	0.905716	0.379174
	H92	H	0.095273	0.617199	0.903417
	H93	H	0.096658	0.381031	0.101013
	H94	H	0.903789	0.617546	0.099615
	H95	H	0.907441	0.381987	0.896825
	H96	H	0.404744	0.118819	0.597603
	H97	H	0.607465	0.880363	0.592302
	H98	H	0.596854	0.120185	0.396938
	H99	H	0.406459	0.883051	0.398947
	H100	H	0.589643	0.403668	0.116955
	H101	H	0.585557	0.590114	0.886247
	H102	H	0.401392	0.595803	0.120254
	H103	H	0.407130	0.399454	0.880659
	H104	H	0.117345	0.586020	0.402711
	H105	H	0.881667	0.600354	0.587753
	H106	H	0.116647	0.412824	0.595568
	H107	H	0.883545	0.408272	0.410380
	H108	H	0.910064	0.615188	0.094351
	H109	H	0.086045	0.386087	0.094142
	H110	H	0.091016	0.615792	0.906137
	H111	H	0.912504	0.386303	0.910710
	H112	H	0.101817	0.903957	0.620299
	H113	H	0.088902	0.092540	0.383967
	H114	H	0.911800	0.107056	0.619655
	H115	H	0.912546	0.915295	0.386361
	H116	H	0.618755	0.091676	0.901205
	H117	H	0.382737	0.086664	0.095055
	H118	H	0.622028	0.904833	0.103683
	H119	H	0.379212	0.895954	0.907181
	C120	C	0.378178	0.008555	0.621914
	C121	C	0.622033	0.991710	0.621718
	C122	C	0.621489	0.008579	0.377717
	C123	C	0.377626	0.992054	0.377170
	C124	C	0.621218	0.378382	0.008563
	C125	C	0.621604	0.621776	0.991244
	C126	C	0.378712	0.621906	0.008953
	C127	C	0.379273	0.378533	0.991528
	C128	C	0.008916	0.621440	0.379065
	C129	C	0.991593	0.621164	0.621575
	C130	C	0.008780	0.377957	0.621606
	C131	C	0.991354	0.378546	0.379282
	C132	C	0.877670	0.508302	0.122407
	C133	C	0.121815	0.491695	0.122203
	C134	C	0.121833	0.508299	0.878138
	C135	C	0.878004	0.491553	0.877855
	C136	C	0.121519	0.878208	0.508637
	C137	C	0.121020	0.121778	0.491426
	C138	C	0.878468	0.121900	0.508489
	C139	C	0.878682	0.877899	0.491381
	C140	C	0.508890	0.121633	0.878722
	C141	C	0.491041	0.121501	0.120609
	C142	C	0.508997	0.878480	0.121195
	C143	C	0.491477	0.878336	0.878621
	C144	C	0.381544	0.885627	0.675908
	C145	C	0.618996	0.114830	0.676380
	C146	C	0.617876	0.885291	0.323420
	C147	C	0.380908	0.115129	0.322717
	C148	C	0.675219	0.382599	0.884246
	C149	C	0.674969	0.616514	0.115911
	C150	C	0.325143	0.616345	0.884427
	C151	C	0.325553	0.382748	0.115907
	C152	C	0.884348	0.675360	0.382188
	C153	C	0.115538	0.675748	0.619520
	C154	C	0.884421	0.323420	0.619201
	C155	C	0.115889	0.324191	0.381612
	C156	C	0.884445	0.381855	0.675426
	C157	C	0.116062	0.617359	0.675799
	C158	C	0.883960	0.617672	0.325551
	C159	C	0.115988	0.382314	0.324936
	C160	C	0.381116	0.675468	0.884826
	C161	C	0.619436	0.675989	0.115080
	C162	C	0.619316	0.323631	0.885046
	C163	C	0.381025	0.323038	0.115127
	C164	C	0.675448	0.885060	0.381444
	C165	C	0.676005	0.115343	0.617822
	C166	C	0.324704	0.885346	0.617338
	C167	C	0.323617	0.115348	0.381237
	C168	C	0.881156	0.384993	0.176715
	C169	C	0.118738	0.614814	0.176592
	C170	C	0.118858	0.385218	0.823907
	C171	C	0.881109	0.614524	0.823727
	C172	C	0.174886	0.882792	0.384410
	C173	C	0.175026	0.117387	0.615688
	C174	C	0.824914	0.116973	0.384061
	C175	C	0.824641	0.882197	0.615326
	C176	C	0.384877	0.176346	0.880726
	C177	C	0.615270	0.176260	0.118923
	C178	C	0.384395	0.824703	0.118581
	C179	C	0.615682	0.824171	0.880765
	C180	C	0.384018	0.883020	0.174558
	C181	C	0.615523	0.117755	0.175079
	C182	C	0.384520	0.118100	0.824479
	C183	C	0.616059	0.882688	0.824803
	C184	C	0.880503	0.176180	0.384620
	C185	C	0.118894	0.176282	0.615323
	C186	C	0.119289	0.823460	0.385399
	C187	C	0.881192	0.823530	0.614876
	C188	C	0.176116	0.385080	0.882159
	C189	C	0.175925	0.615197	0.118058
	C190	C	0.824312	0.384552	0.117709
	C191	C	0.823994	0.614913	0.882354
	C192	C	0.399733	0.094794	0.600554
	C193	C	0.600464	0.905920	0.600204
	C194	C	0.600163	0.094304	0.398981
	C195	C	0.398909	0.905906	0.398355
	C196	C	0.599564	0.399300	0.095349
	C197	C	0.599446	0.600795	0.904606
	C198	C	0.400268	0.601305	0.095596
	C199	C	0.400705	0.399753	0.905099
	C200	C	0.095963	0.600139	0.400662
	C201	C	0.904439	0.600077	0.599878
	C202	C	0.095664	0.399257	0.599479
	C203	C	0.904527	0.400104	0.400819
	C204	C	0.899184	0.594330	0.101637
	C205	C	0.099900	0.405897	0.100786
	C206	C	0.100424	0.594282	0.899542
	C207	C	0.899596	0.405467	0.899255
	C208	C	0.099768	0.899506	0.595283
	C209	C	0.098914	0.100775	0.404816
	C210	C	0.900539	0.100355	0.594947
	C211	C	0.900803	0.899418	0.404640
	C212	C	0.595665	0.099915	0.900955
	C213	C	0.404104	0.100310	0.098392
	C214	C	0.596274	0.899330	0.099760
	C215	C	0.404429	0.899519	0.900493
	Zn216	Zn	0.499830	0.000099	0.750783
	Zn217	Zn	0.499586	0.000244	0.248069
	Zn218	Zn	0.749297	0.499833	-0.000049
	Zn219	Zn	0.250433	0.499993	0.000339
	Zn220	Zn	0.000218	0.749346	0.500400
	Zn221	Zn	-0.000425	0.250287	0.499950
	Zn222	Zn	0.000348	0.499915	0.749280
	Zn223	Zn	-0.000063	0.500199	0.251576
	Zn224	Zn	0.499981	0.750517	0.000187
	Zn225	Zn	0.500402	0.249518	-0.000085
	Zn226	Zn	0.750872	-0.000117	0.499403
	Zn227	Zn	0.249125	0.000791	0.500021
	N228	N	0.414100	0.963347	0.678805
	N229	N	0.586237	0.037132	0.679028
	N230	N	0.585225	0.962941	0.320684
	N231	N	0.413755	0.037493	0.320127
	N232	N	0.676310	0.415970	0.962034
	N233	N	0.676512	0.583710	0.037898
	N234	N	0.323466	0.583793	0.962627
	N235	N	0.324151	0.416147	0.038252
	N236	N	0.962979	0.677606	0.414835
	N237	N	0.037179	0.678236	0.586611
	N238	N	0.962894	0.320867	0.586374
	N239	N	0.037466	0.321897	0.414701
	N240	N	0.962724	0.415012	0.676898
	N241	N	0.038033	0.583852	0.676754
	N242	N	0.962220	0.584711	0.323651
	N243	N	0.037830	0.415677	0.323582
	N244	N	0.413565	0.679046	0.963134
	N245	N	0.586787	0.679299	0.036807
	N246	N	0.586712	0.320794	0.963303
	N247	N	0.413922	0.320432	0.036793
	N248	N	0.677877	0.962536	0.414505
	N249	N	0.678220	0.037967	0.584598
	N250	N	0.322742	0.962874	0.584241
	N251	N	0.321645	0.037980	0.414558
	N252	N	0.913606	0.462808	0.179902
	N253	N	0.085902	0.537204	0.179325
	N254	N	0.085879	0.462730	0.821518
	N255	N	0.913640	0.536826	0.820740
	N256	N	0.176344	0.916147	0.462048
	N257	N	0.176078	0.084095	0.537840
	N258	N	0.823582	0.083799	0.462001
	N259	N	0.823050	0.915248	0.537396
	N260	N	0.463239	0.178571	0.913777
	N261	N	0.536904	0.178600	0.085704
	N262	N	0.462976	0.821843	0.086034
	N263	N	0.537145	0.821338	0.913483
	N264	N	0.462554	0.915559	0.176298
	N265	N	0.537364	0.084572	0.176146
	N266	N	0.462581	0.084573	0.823390
	N267	N	0.537866	0.915982	0.823488
	N268	N	0.913071	0.179239	0.462843
	N269	N	0.085938	0.179072	0.537099
	N270	N	0.086857	0.820390	0.463678
	N271	N	0.913950	0.820982	0.536689
	N272	N	0.178123	0.462620	0.915116
	N273	N	0.177800	0.537715	0.084840
	N274	N	0.821990	0.462046	0.084850
	N275	N	0.822085	0.537424	0.915354
