data_Molecule from HDF5

_cell_length_a		16.218489
_cell_length_b		16.189311
_cell_length_c		16.196890
_cell_angle_alpha	90.847492
_cell_angle_beta	89.711522
_cell_angle_gamma	89.802245
_symmetry_space_group_name_H-M	'P 1'
_symmetry_Int_Tables_number		1

loop_
	_symmetry_equiv_pos_as_xyz
	x,y,z

loop_
	_atom_site_label
	_atom_site_type_symbol
	_atom_site_fract_x
	_atom_site_fract_y
	_atom_site_fract_z
	H0	H	0.397347	0.838073	0.709738
	H1	H	0.593249	0.167756	0.715150
	H2	H	0.596935	0.839345	0.280652
	H3	H	0.398004	0.169108	0.289858
	H4	H	0.710477	0.402823	0.834626
	H5	H	0.708133	0.605125	0.164284
	H6	H	0.281685	0.601805	0.834598
	H7	H	0.280605	0.409135	0.164145
	H8	H	0.831184	0.716349	0.404827
	H9	H	0.160110	0.718240	0.598521
	H10	H	0.831191	0.293284	0.597314
	H11	H	0.160231	0.288004	0.398206
	H12	H	0.831982	0.407132	0.714071
	H13	H	0.160820	0.602663	0.714165
	H14	H	0.831074	0.600992	0.289032
	H15	H	0.160026	0.401855	0.281678
	H16	H	0.399111	0.715510	0.833426
	H17	H	0.591674	0.721092	0.164136
	H18	H	0.597632	0.285046	0.835774
	H19	H	0.396605	0.294156	0.165086
	H20	H	0.711430	0.839114	0.396291
	H21	H	0.707581	0.168373	0.599089
	H22	H	0.281773	0.838322	0.595044
	H23	H	0.280663	0.167557	0.402758
	H24	H	0.897536	0.338252	0.210103
	H25	H	0.093528	0.667657	0.216573
	H26	H	0.097758	0.339791	0.781714
	H27	H	0.898785	0.669095	0.791258
	H28	H	0.209746	0.902253	0.334143
	H29	H	0.208121	0.103937	0.664241
	H30	H	0.782060	0.099799	0.333679
	H31	H	0.780312	0.908606	0.663377
	H32	H	0.331433	0.217137	0.904896
	H33	H	0.660505	0.219120	0.099130
	H34	H	0.331534	0.793933	0.097268
	H35	H	0.660014	0.787891	0.898388
	H36	H	0.332081	0.908026	0.211890
	H37	H	0.660347	0.103677	0.214243
	H38	H	0.330599	0.102201	0.787743
	H39	H	0.659877	0.902436	0.782137
	H40	H	0.899040	0.214437	0.333498
	H41	H	0.093048	0.220768	0.663959
	H42	H	0.095325	0.785463	0.335727
	H43	H	0.897409	0.794864	0.665452
	H44	H	0.212463	0.339816	0.897707
	H45	H	0.208515	0.668783	0.100939
	H46	H	0.780918	0.339185	0.096082
	H47	H	0.781864	0.668037	0.904012
	H48	H	0.404801	0.120189	0.594085
	H49	H	0.589911	0.884819	0.589373
	H50	H	0.578644	0.117732	0.407647
	H51	H	0.412698	0.887252	0.399912
	H52	H	0.585759	0.412201	0.115576
	H53	H	0.597716	0.595897	0.879193
	H54	H	0.400830	0.590513	0.114453
	H55	H	0.400331	0.409887	0.881323
	H56	H	0.115453	0.604564	0.409546
	H57	H	0.877560	0.598954	0.595952
	H58	H	0.115355	0.402594	0.587563
	H59	H	0.872474	0.396357	0.398205
	H60	H	0.109073	0.417574	0.583871
	H61	H	0.878100	0.599878	0.596345
	H62	H	0.109539	0.587929	0.415574
	H63	H	0.882332	0.408294	0.419293
	H64	H	0.410562	0.605525	0.115213
	H65	H	0.586487	0.588429	0.884653
	H66	H	0.590442	0.411422	0.118645
	H67	H	0.406710	0.412851	0.883838
	H68	H	0.593895	0.119352	0.416935
	H69	H	0.588894	0.885852	0.590377
	H70	H	0.400057	0.120100	0.591889
	H71	H	0.400947	0.887366	0.413642
	H72	H	0.904718	0.619809	0.094394
	H73	H	0.082178	0.385866	0.097152
	H74	H	0.096315	0.625044	0.904521
	H75	H	0.910090	0.387072	0.905555
	H76	H	0.092718	0.901300	0.621336
	H77	H	0.089450	0.099110	0.380532
	H78	H	0.899195	0.100197	0.616829
	H79	H	0.900852	0.907622	0.380317
	H80	H	0.608207	0.085547	0.912085
	H81	H	0.381463	0.096902	0.088780
	H82	H	0.612064	0.913150	0.084289
	H83	H	0.379293	0.912252	0.905161
	H84	H	0.613771	0.916480	0.094558
	H85	H	0.378404	0.094131	0.100540
	H86	H	0.615668	0.092996	0.895596
	H87	H	0.377956	0.909451	0.902333
	H88	H	0.900916	0.099075	0.615463
	H89	H	0.092311	0.091193	0.381863
	H90	H	0.096936	0.920210	0.616994
	H91	H	0.905622	0.911474	0.383116
	H92	H	0.082395	0.621258	0.903419
	H93	H	0.086894	0.389666	0.079538
	H94	H	0.898752	0.621191	0.094225
	H95	H	0.900087	0.386066	0.910201
	H96	H	0.400196	0.122742	0.597249
	H97	H	0.589247	0.884948	0.589308
	H98	H	0.593292	0.124940	0.400430
	H99	H	0.395353	0.882326	0.397762
	H100	H	0.588686	0.415974	0.116696
	H101	H	0.585156	0.603104	0.880959
	H102	H	0.393601	0.605370	0.120253
	H103	H	0.406520	0.405785	0.882116
	H104	H	0.115403	0.590535	0.397007
	H105	H	0.878464	0.598607	0.595738
	H106	H	0.115450	0.414940	0.599783
	H107	H	0.879465	0.422865	0.397118
	H108	H	0.901706	0.622736	0.098736
	H109	H	0.099355	0.383351	0.091037
	H110	H	0.088629	0.619149	0.916141
	H111	H	0.901912	0.383844	0.899752
	H112	H	0.078611	0.913212	0.614272
	H113	H	0.084561	0.092877	0.383649
	H114	H	0.901818	0.101058	0.617150
	H115	H	0.905693	0.905213	0.381294
	H116	H	0.615274	0.104193	0.911236
	H117	H	0.376577	0.105528	0.095993
	H118	H	0.616611	0.906627	0.091555
	H119	H	0.377056	0.907765	0.906309
	C120	C	0.373280	0.011812	0.620979
	C121	C	0.616828	0.994527	0.619858
	C122	C	0.617966	0.012218	0.377187
	C123	C	0.374385	0.994835	0.377664
	C124	C	0.617888	0.382316	0.008212
	C125	C	0.616843	0.625803	0.990673
	C126	C	0.373764	0.626946	0.007479
	C127	C	0.374967	0.383364	0.991366
	C128	C	0.004452	0.623180	0.379883
	C129	C	0.987064	0.626767	0.623663
	C130	C	0.004595	0.383935	0.619694
	C131	C	0.986953	0.380466	0.375518
	C132	C	0.873588	0.512091	0.121817
	C133	C	0.117131	0.495181	0.120140
	C134	C	0.118803	0.512985	0.877482
	C135	C	0.875245	0.494988	0.878994
	C136	C	0.117815	0.881518	0.508506
	C137	C	0.117006	0.124948	0.490930
	C138	C	0.873246	0.126213	0.507169
	C139	C	0.874906	0.882460	0.490986
	C140	C	0.504065	0.123629	0.878865
	C141	C	0.487371	0.127392	0.123351
	C142	C	0.505155	0.884596	0.118968
	C143	C	0.486862	0.880772	0.875664
	C144	C	0.376801	0.887498	0.673043
	C145	C	0.613792	0.118457	0.676845
	C146	C	0.616520	0.888468	0.319429
	C147	C	0.377230	0.119435	0.325842
	C148	C	0.673427	0.382605	0.884206
	C149	C	0.670666	0.624980	0.115102
	C150	C	0.319781	0.622204	0.883521
	C151	C	0.318948	0.388143	0.115112
	C152	C	0.880284	0.678403	0.384043
	C153	C	0.111143	0.680846	0.619653
	C154	C	0.880441	0.330415	0.617301
	C155	C	0.111079	0.325487	0.377810
	C156	C	0.880903	0.386958	0.675347
	C157	C	0.111392	0.623259	0.676921
	C158	C	0.880393	0.621177	0.326182
	C159	C	0.110768	0.381870	0.319670
	C160	C	0.377822	0.679014	0.882864
	C161	C	0.613119	0.682720	0.114901
	C162	C	0.616719	0.324388	0.884676
	C163	C	0.376506	0.330840	0.115789
	C164	C	0.673412	0.888224	0.377117
	C165	C	0.670813	0.118769	0.619151
	C166	C	0.319181	0.887698	0.616109
	C167	C	0.319002	0.118686	0.382241
	C168	C	0.876800	0.387691	0.173883
	C169	C	0.113817	0.618935	0.177452
	C170	C	0.117399	0.388879	0.820619
	C171	C	0.878341	0.619680	0.827315
	C172	C	0.172241	0.882632	0.383806
	C173	C	0.171043	0.124229	0.615013
	C174	C	0.819362	0.120991	0.383113
	C175	C	0.818944	0.887564	0.614571
	C176	C	0.380194	0.179042	0.883604
	C177	C	0.611351	0.181816	0.120024
	C178	C	0.380912	0.830785	0.117205
	C179	C	0.610819	0.825455	0.877764
	C180	C	0.381135	0.887444	0.174214
	C181	C	0.611163	0.124703	0.177483
	C182	C	0.379957	0.122021	0.825334
	C183	C	0.610817	0.882482	0.820225
	C184	C	0.877540	0.178065	0.382890
	C185	C	0.113812	0.182235	0.614788
	C186	C	0.115647	0.824359	0.384420
	C187	C	0.877024	0.830920	0.615487
	C188	C	0.174865	0.389211	0.877708
	C189	C	0.170759	0.619430	0.119887
	C190	C	0.818590	0.388126	0.117334
	C191	C	0.820015	0.619144	0.883527
	C192	C	0.395113	0.098734	0.600581
	C193	C	0.595646	0.907815	0.596451
	C194	C	0.595259	0.098436	0.401358
	C195	C	0.396450	0.908182	0.397714
	C196	C	0.595071	0.406166	0.094538
	C197	C	0.595880	0.602498	0.904008
	C198	C	0.395330	0.606640	0.094112
	C199	C	0.397865	0.403395	0.904938
	C200	C	0.090998	0.600875	0.401084
	C201	C	0.900286	0.605406	0.602414
	C202	C	0.090894	0.405403	0.597020
	C203	C	0.900732	0.402603	0.398054
	C204	C	0.895183	0.598746	0.101754
	C205	C	0.095667	0.408632	0.096345
	C206	C	0.095877	0.599483	0.901105
	C207	C	0.897489	0.408066	0.899165
	C208	C	0.095888	0.904652	0.595113
	C209	C	0.095285	0.101151	0.404385
	C210	C	0.894393	0.106069	0.594074
	C211	C	0.897360	0.902327	0.403918
	C212	C	0.590702	0.100983	0.899971
	C213	C	0.400999	0.105552	0.101485
	C214	C	0.591629	0.905825	0.096762
	C215	C	0.400396	0.903141	0.898003
	Zn216	Zn	0.495216	0.002818	0.748699
	Zn217	Zn	0.496280	0.003911	0.249348
	Zn218	Zn	0.745657	0.504106	-0.000278
	Zn219	Zn	0.245646	0.504824	-0.000896
	Zn220	Zn	-0.004248	0.753357	0.500429
	Zn221	Zn	-0.004336	0.254176	0.498820
	Zn222	Zn	-0.003286	0.503893	0.750203
	Zn223	Zn	-0.003824	0.503046	0.249021
	Zn224	Zn	0.495653	0.755184	-0.001065
	Zn225	Zn	0.496343	0.254063	0.000408
	Zn226	Zn	0.745694	0.003141	0.498299
	Zn227	Zn	0.245662	0.003094	0.499383
	N228	N	0.409585	0.965761	0.676360
	N229	N	0.580895	0.040289	0.677230
	N230	N	0.582596	0.966604	0.319450
	N231	N	0.411295	0.041402	0.322874
	N232	N	0.674046	0.418192	0.962010
	N233	N	0.673025	0.590207	0.036915
	N234	N	0.317129	0.590635	0.961978
	N235	N	0.317935	0.420060	0.036891
	N236	N	0.958580	0.680028	0.416310
	N237	N	0.032745	0.683264	0.587415
	N238	N	0.958342	0.328495	0.583212
	N239	N	0.033153	0.324293	0.411858
	N240	N	0.959111	0.419658	0.676718
	N241	N	0.033245	0.590484	0.679530
	N242	N	0.958337	0.587366	0.323784
	N243	N	0.032661	0.415274	0.317951
	N244	N	0.411028	0.682007	0.960913
	N245	N	0.580491	0.683348	0.036679
	N246	N	0.583055	0.324150	0.962879
	N247	N	0.410833	0.327414	0.037796
	N248	N	0.674492	0.966044	0.412262
	N249	N	0.672940	0.040669	0.584226
	N250	N	0.316877	0.966148	0.584621
	N251	N	0.317085	0.040137	0.413508
	N252	N	0.910023	0.465813	0.177006
	N253	N	0.081038	0.540655	0.177748
	N254	N	0.083218	0.466854	0.820326
	N255	N	0.911775	0.541407	0.824294
	N256	N	0.173508	0.917573	0.461820
	N257	N	0.173226	0.089400	0.536992
	N258	N	0.816685	0.089399	0.461451
	N259	N	0.817619	0.918729	0.535974
	N260	N	0.458423	0.180200	0.916272
	N261	N	0.533184	0.183901	0.087390
	N262	N	0.459013	0.828904	0.083302
	N263	N	0.532803	0.824247	0.911630
	N264	N	0.459280	0.920237	0.175561
	N265	N	0.533283	0.091579	0.179578
	N266	N	0.457879	0.088179	0.822489
	N267	N	0.532787	0.916029	0.818748
	N268	N	0.910228	0.181537	0.461115
	N269	N	0.081039	0.182725	0.536490
	N270	N	0.082366	0.823559	0.462815
	N271	N	0.911111	0.827587	0.537434
	N272	N	0.175628	0.467294	0.912462
	N273	N	0.172941	0.541430	0.085157
	N274	N	0.816510	0.466480	0.085712
	N275	N	0.818085	0.540650	0.914926
	O276	O	0.573329	0.485854	0.434802
	H277	H	0.565356	0.477069	0.437132
	H278	H	0.576689	0.479709	0.443610
	O279	O	0.539327	0.468877	0.484588
	H280	H	0.531664	0.465487	0.479249
	H281	H	0.540722	0.465626	0.488239
	O282	O	0.558375	0.520268	0.471713
	H283	H	0.572150	0.515967	0.461388
	H284	H	0.563874	0.504635	0.473545
	O285	O	0.018396	1.024677	1.034395
	H286	H	0.027282	1.026508	1.030464
	H287	H	0.024319	1.021848	1.040914
	O288	O	0.466500	0.493328	0.439579
	H289	H	0.457900	0.487608	0.436117
	H290	H	0.473155	0.488799	0.433282
	O291	O	0.029466	0.010974	0.987430
	H292	H	0.037716	0.013808	0.985919
	H293	H	0.031408	0.006153	0.981572
	O294	O	0.464536	0.467165	0.428383
	H295	H	0.459078	0.467625	0.432164
	H296	H	0.467444	0.470627	0.425616
	O297	O	0.491407	0.433008	0.458833
	H298	H	0.485217	0.433621	0.462886
	H299	H	0.483715	0.427435	0.454984
	O300	O	0.486243	0.527856	0.522402
	H301	H	0.485524	0.533989	0.517485
	H302	H	0.491285	0.537555	0.515232
	O303	O	0.546200	0.437658	0.435518
	H304	H	0.548899	0.449006	0.434961
	H305	H	0.543525	0.439091	0.442414
	O306	O	1.045165	0.008323	1.039655
	H307	H	1.052074	0.003586	1.038858
	H308	H	1.047912	0.009427	1.039457
	O309	O	0.523554	0.506835	0.488171
	H310	H	0.528029	0.500618	0.486133
	H311	H	0.528623	0.498030	0.478633
	O312	O	0.459692	0.407232	0.557207
	H313	H	0.460898	0.418697	0.559751
	H314	H	0.462835	0.407966	0.563115
	O315	O	0.991591	-0.035649	0.964649
	H316	H	0.979205	-0.038182	0.952017
	H317	H	0.982025	-0.035828	0.968326
	O318	O	0.044459	-0.006201	0.009600
	H319	H	0.043911	-0.010480	0.004630
	H320	H	0.041573	-0.004330	-0.001112
	O321	O	0.509594	0.559759	0.482320
	H322	H	0.505704	0.557012	0.481802
	H323	H	0.512312	0.562682	0.476113
	O324	O	1.021382	-0.012456	0.043868
	H325	H	1.024760	-0.006756	0.048702
	H326	H	1.023605	-0.002331	0.053346
	O327	O	1.035750	1.005323	0.007238
	H328	H	1.037884	1.002270	0.009257
	H329	H	1.036275	1.004588	0.009014
	O330	O	0.447327	0.436147	0.558842
	H331	H	0.440546	0.431982	0.557343
	H332	H	0.452782	0.432137	0.559139
	O333	O	0.434467	0.553449	0.501361
	H334	H	0.433103	0.556830	0.505653
	H335	H	0.429002	0.554232	0.504433
