data_Molecule from HDF5

_cell_length_a		16.368249
_cell_length_b		16.040568
_cell_length_c		16.216992
_cell_angle_alpha	90.156920
_cell_angle_beta	89.832999
_cell_angle_gamma	89.951704
_symmetry_space_group_name_H-M	'P 1'
_symmetry_Int_Tables_number		1

loop_
	_symmetry_equiv_pos_as_xyz
	x,y,z

loop_
	_atom_site_label
	_atom_site_type_symbol
	_atom_site_fract_x
	_atom_site_fract_y
	_atom_site_fract_z
	H0	H	0.401156	0.835500	0.709525
	H1	H	0.596571	0.167230	0.710469
	H2	H	0.596808	0.835317	0.284335
	H3	H	0.400381	0.167685	0.286092
	H4	H	0.717750	0.399266	0.834107
	H5	H	0.715283	0.603148	0.160802
	H6	H	0.284237	0.603222	0.834366
	H7	H	0.281143	0.399920	0.160316
	H8	H	0.834971	0.714822	0.401710
	H9	H	0.162814	0.716223	0.593602
	H10	H	0.834857	0.289351	0.593621
	H11	H	0.162963	0.286608	0.398224
	H12	H	0.836512	0.402298	0.714564
	H13	H	0.162569	0.602824	0.711889
	H14	H	0.836728	0.603040	0.281545
	H15	H	0.162724	0.402127	0.281079
	H16	H	0.405468	0.711685	0.831935
	H17	H	0.595980	0.714362	0.161875
	H18	H	0.596097	0.289959	0.831645
	H19	H	0.402895	0.291069	0.163206
	H20	H	0.714535	0.836096	0.395727
	H21	H	0.713023	0.166282	0.599062
	H22	H	0.285098	0.835966	0.597970
	H23	H	0.284423	0.166108	0.398377
	H24	H	0.902045	0.336370	0.209332
	H25	H	0.098569	0.668391	0.210329
	H26	H	0.099360	0.335864	0.783216
	H27	H	0.903501	0.667995	0.785908
	H28	H	0.216173	0.899014	0.334629
	H29	H	0.214671	0.102884	0.661684
	H30	H	0.782501	0.103343	0.334319
	H31	H	0.781854	0.900324	0.661164
	H32	H	0.334835	0.215492	0.901410
	H33	H	0.663202	0.214319	0.094381
	H34	H	0.335563	0.787468	0.095055
	H35	H	0.662939	0.787503	0.898652
	H36	H	0.337043	0.901263	0.214835
	H37	H	0.661657	0.101022	0.213682
	H38	H	0.336022	0.101545	0.781653
	H39	H	0.660720	0.901446	0.779054
	H40	H	0.903769	0.212327	0.331287
	H41	H	0.094883	0.214809	0.662887
	H42	H	0.093541	0.791439	0.331556
	H43	H	0.902879	0.790793	0.663456
	H44	H	0.214901	0.337305	0.897153
	H45	H	0.212748	0.667275	0.096810
	H46	H	0.785694	0.337891	0.097111
	H47	H	0.785692	0.667465	0.896921
	H48	H	0.407472	0.118601	0.586431
	H49	H	0.596895	0.882696	0.582943
	H50	H	0.589309	0.119772	0.403292
	H51	H	0.411255	0.885184	0.410399
	H52	H	0.587896	0.419107	0.109946
	H53	H	0.591431	0.588640	0.881321
	H54	H	0.406262	0.596809	0.115470
	H55	H	0.396738	0.421073	0.880731
	H56	H	0.114460	0.598063	0.409227
	H57	H	0.883008	0.587783	0.599974
	H58	H	0.113219	0.410510	0.585836
	H59	H	0.884934	0.408494	0.409013
	H60	H	0.115465	0.411410	0.593810
	H61	H	0.880404	0.605545	0.594600
	H62	H	0.113721	0.589321	0.401295
	H63	H	0.884411	0.414406	0.399011
	H64	H	0.402349	0.592422	0.116005
	H65	H	0.592553	0.599378	0.878904
	H66	H	0.589859	0.398245	0.116400
	H67	H	0.419364	0.411682	0.885163
	H68	H	0.590578	0.118148	0.409685
	H69	H	0.593981	0.880049	0.594803
	H70	H	0.402126	0.121223	0.588670
	H71	H	0.400899	0.880926	0.407486
	H72	H	0.904297	0.619777	0.082336
	H73	H	0.096506	0.382359	0.088370
	H74	H	0.085785	0.619669	0.902312
	H75	H	0.906196	0.385020	0.913993
	H76	H	0.093822	0.907346	0.616224
	H77	H	0.095096	0.093763	0.379562
	H78	H	0.901298	0.101153	0.617342
	H79	H	0.896218	0.918343	0.380423
	H80	H	0.614842	0.094920	0.901836
	H81	H	0.383046	0.101875	0.086971
	H82	H	0.612067	0.915741	0.086027
	H83	H	0.383458	0.913931	0.901004
	H84	H	0.617101	0.910865	0.099636
	H85	H	0.385435	0.087387	0.090173
	H86	H	0.614484	0.094011	0.903072
	H87	H	0.379898	0.902780	0.898395
	H88	H	0.899794	0.089151	0.614945
	H89	H	0.093560	0.088222	0.381975
	H90	H	0.095822	0.911678	0.615414
	H91	H	0.916185	0.910944	0.383941
	H92	H	0.096948	0.619973	0.913411
	H93	H	0.089158	0.383603	0.091641
	H94	H	0.904158	0.624423	0.094703
	H95	H	0.902245	0.380007	0.899966
	H96	H	0.406330	0.120832	0.592821
	H97	H	0.584321	0.884754	0.587408
	H98	H	0.594803	0.120992	0.405351
	H99	H	0.409011	0.881416	0.399535
	H100	H	0.606644	0.412453	0.117266
	H101	H	0.601532	0.592776	0.877305
	H102	H	0.407050	0.591019	0.113545
	H103	H	0.401460	0.397069	0.875096
	H104	H	0.118175	0.599255	0.398702
	H105	H	0.886901	0.593140	0.581943
	H106	H	0.116701	0.404524	0.590645
	H107	H	0.880768	0.403193	0.399518
	H108	H	0.914649	0.618999	0.088953
	H109	H	0.090376	0.385632	0.084632
	H110	H	0.099416	0.624658	0.898171
	H111	H	0.916168	0.385455	0.902546
	H112	H	0.090999	0.911112	0.614048
	H113	H	0.091028	0.093554	0.381511
	H114	H	0.910234	0.094715	0.612032
	H115	H	0.900713	0.897802	0.376383
	H116	H	0.615173	0.093442	0.901282
	H117	H	0.380656	0.096651	0.100481
	H118	H	0.616885	0.900629	0.087630
	H119	H	0.383406	0.904834	0.909472
	C120	C	0.377246	0.010503	0.618225
	C121	C	0.619943	0.992245	0.617957
	C122	C	0.620625	0.010235	0.376374
	C123	C	0.377946	0.992256	0.377107
	C124	C	0.622394	0.380542	0.005720
	C125	C	0.622619	0.622872	0.988301
	C126	C	0.377847	0.622616	0.006422
	C127	C	0.377433	0.380852	0.988948
	C128	C	0.007644	0.624563	0.375098
	C129	C	0.991135	0.624110	0.619432
	C130	C	0.007330	0.380281	0.619233
	C131	C	0.991518	0.379643	0.374077
	C132	C	0.878920	0.511611	0.118170
	C133	C	0.120519	0.493531	0.117512
	C134	C	0.122293	0.511406	0.875336
	C135	C	0.879276	0.493304	0.876665
	C136	C	0.121472	0.880426	0.506249
	C137	C	0.121166	0.122063	0.489615
	C138	C	0.876464	0.123331	0.505819
	C139	C	0.876665	0.880654	0.489228
	C140	C	0.507217	0.123389	0.874606
	C141	C	0.490669	0.124086	0.120472
	C142	C	0.507583	0.880256	0.119283
	C143	C	0.490073	0.878933	0.874360
	C144	C	0.380414	0.885171	0.672645
	C145	C	0.617176	0.117371	0.672969
	C146	C	0.617662	0.885187	0.321347
	C147	C	0.379960	0.117693	0.322819
	C148	C	0.678525	0.380675	0.882517
	C149	C	0.677181	0.622089	0.111835
	C150	C	0.322877	0.621779	0.882893
	C151	C	0.320551	0.381446	0.111878
	C152	C	0.884173	0.678430	0.379762
	C153	C	0.114212	0.678854	0.615147
	C154	C	0.883957	0.326174	0.615829
	C155	C	0.114169	0.324495	0.377567
	C156	C	0.885118	0.382293	0.675734
	C157	C	0.113965	0.622361	0.673841
	C158	C	0.885165	0.622653	0.319955
	C159	C	0.114051	0.382144	0.319298
	C160	C	0.383169	0.675698	0.881645
	C161	C	0.617705	0.677312	0.112456
	C162	C	0.618014	0.326187	0.881429
	C163	C	0.381211	0.327234	0.113349
	C164	C	0.676135	0.885685	0.376969
	C165	C	0.675017	0.116847	0.617503
	C166	C	0.322649	0.885590	0.617416
	C167	C	0.321981	0.116555	0.378470
	C168	C	0.881348	0.386561	0.172790
	C169	C	0.118264	0.618709	0.172553
	C170	C	0.119585	0.385878	0.820458
	C171	C	0.882568	0.618393	0.822857
	C172	C	0.177220	0.880364	0.383071
	C173	C	0.176268	0.121848	0.612911
	C174	C	0.821070	0.122216	0.382813
	C175	C	0.820812	0.881330	0.612455
	C176	C	0.383943	0.178098	0.879581
	C177	C	0.614008	0.177710	0.116003
	C178	C	0.384513	0.824901	0.116105
	C179	C	0.613778	0.824734	0.877484
	C180	C	0.385054	0.881494	0.175524
	C181	C	0.613348	0.121373	0.175358
	C182	C	0.384248	0.121471	0.820135
	C183	C	0.612607	0.881354	0.818168
	C184	C	0.881529	0.176489	0.381183
	C185	C	0.116767	0.177529	0.613414
	C186	C	0.116103	0.826883	0.381528
	C187	C	0.880998	0.826989	0.613734
	C188	C	0.177447	0.386664	0.876622
	C189	C	0.175274	0.618152	0.116100
	C190	C	0.823863	0.386870	0.116642
	C191	C	0.823616	0.617820	0.877600
	C192	C	0.398814	0.097752	0.596070
	C193	C	0.598062	0.904995	0.595345
	C194	C	0.598179	0.097463	0.399287
	C195	C	0.400593	0.905012	0.399198
	C196	C	0.601206	0.403257	0.092379
	C197	C	0.601608	0.600315	0.901495
	C198	C	0.398909	0.600067	0.092671
	C199	C	0.399340	0.403344	0.902687
	C200	C	0.093213	0.601955	0.396705
	C201	C	0.905680	0.602054	0.598232
	C202	C	0.092922	0.402309	0.596801
	C203	C	0.905417	0.401883	0.396061
	C204	C	0.900998	0.598533	0.095384
	C205	C	0.098509	0.406355	0.094891
	C206	C	0.100366	0.598707	0.897788
	C207	C	0.901487	0.406141	0.899142
	C208	C	0.099739	0.903239	0.592860
	C209	C	0.099574	0.098663	0.403387
	C210	C	0.897574	0.101510	0.592481
	C211	C	0.898056	0.902641	0.402606
	C212	C	0.592654	0.100766	0.895852
	C213	C	0.405128	0.101889	0.099118
	C214	C	0.593029	0.902442	0.097408
	C215	C	0.404525	0.900805	0.896419
	Zn216	Zn	0.498373	0.001353	0.744569
	Zn217	Zn	0.498620	0.002236	0.249699
	Zn218	Zn	0.751599	0.502226	-0.002723
	Zn219	Zn	0.248765	0.502652	-0.002483
	Zn220	Zn	-0.001445	0.753310	0.497785
	Zn221	Zn	-0.000927	0.250763	0.496909
	Zn222	Zn	0.000081	0.502316	0.748944
	Zn223	Zn	0.000067	0.502647	0.245318
	Zn224	Zn	0.499528	0.750023	-0.002692
	Zn225	Zn	0.499371	0.252787	-0.002545
	Zn226	Zn	0.747699	0.001234	0.497399
	Zn227	Zn	0.250289	0.000731	0.497639
	N228	N	0.413997	0.963791	0.673114
	N229	N	0.583492	0.038883	0.673309
	N230	N	0.583495	0.963743	0.321127
	N231	N	0.414209	0.039315	0.321816
	N232	N	0.681393	0.413926	0.960917
	N233	N	0.680143	0.588969	0.033452
	N234	N	0.319685	0.589307	0.961451
	N235	N	0.317993	0.413968	0.033493
	N236	N	0.961205	0.679752	0.413242
	N237	N	0.036878	0.680206	0.581957
	N238	N	0.960954	0.324615	0.581462
	N239	N	0.036680	0.322879	0.410938
	N240	N	0.962827	0.415003	0.677914
	N241	N	0.036683	0.589022	0.676748
	N242	N	0.962906	0.589786	0.317075
	N243	N	0.036656	0.415521	0.317076
	N244	N	0.416630	0.676420	0.959457
	N245	N	0.584649	0.677893	0.034627
	N246	N	0.584046	0.325832	0.959137
	N247	N	0.415778	0.326530	0.035911
	N248	N	0.677891	0.964556	0.410469
	N249	N	0.676820	0.037889	0.583832
	N250	N	0.320571	0.964430	0.584255
	N251	N	0.320683	0.037545	0.411369
	N252	N	0.914881	0.465108	0.173798
	N253	N	0.084908	0.540030	0.173569
	N254	N	0.085886	0.464685	0.819620
	N255	N	0.916363	0.540071	0.822203
	N256	N	0.180418	0.912745	0.461612
	N257	N	0.179063	0.088082	0.534832
	N258	N	0.818026	0.089691	0.461270
	N259	N	0.818248	0.914152	0.534119
	N260	N	0.461261	0.179325	0.912756
	N261	N	0.536858	0.179400	0.082644
	N262	N	0.461584	0.823798	0.081903
	N263	N	0.536887	0.823069	0.911979
	N264	N	0.462272	0.915210	0.177617
	N265	N	0.535580	0.088914	0.178375
	N266	N	0.461782	0.088177	0.816778
	N267	N	0.534964	0.914233	0.816117
	N268	N	0.915142	0.177506	0.458843
	N269	N	0.083007	0.177810	0.535765
	N270	N	0.082060	0.826673	0.459275
	N271	N	0.914934	0.826370	0.535997
	N272	N	0.179206	0.465437	0.910116
	N273	N	0.176584	0.539378	0.082408
	N274	N	0.821932	0.465773	0.083475
	N275	N	0.821470	0.538756	0.910407
	O276	O	0.451843	0.442748	0.570089
	H277	H	0.445560	0.447293	0.576775
	H278	H	0.437604	0.448318	0.572837
	O279	O	0.436566	0.544936	0.468684
	H280	H	0.430924	0.532957	0.473252
	H281	H	0.440972	0.552963	0.462116
	O282	O	0.516533	0.453994	0.485529
	H283	H	0.522502	0.444091	0.496635
	H284	H	0.507601	0.463706	0.479164
	O285	O	-0.029103	1.051398	1.045440
	H286	H	-0.028679	1.051767	1.043731
	H287	H	-0.028505	1.057764	1.037171
	O288	O	0.560187	0.489605	0.585166
	H289	H	0.563792	0.491968	0.591625
	H290	H	0.554663	0.487267	0.587671
	O291	O	-0.072672	-0.022114	1.089495
	H292	H	-0.078343	-0.015460	1.092602
	H293	H	-0.076810	-0.025417	1.102730
	O294	O	0.526365	0.505827	0.446271
	H295	H	0.530676	0.512322	0.444907
	H296	H	0.519046	0.508741	0.437838
	O297	O	0.573927	0.493525	0.478763
	H298	H	0.572164	0.490091	0.482519
	H299	H	0.579629	0.484411	0.486002
	O300	O	0.535236	0.481174	0.389144
	H301	H	0.540611	0.478931	0.387963
	H302	H	0.537457	0.482249	0.394031
	O303	O	0.445825	0.538785	0.449379
	H304	H	0.451970	0.530322	0.449836
	H305	H	0.449802	0.548844	0.451548
	O306	O	1.000793	0.085957	1.046208
	H307	H	1.009969	0.081225	1.036750
	H308	H	1.003293	0.103811	1.049359
	O309	O	0.559650	0.500552	0.523178
	H310	H	0.567510	0.499738	0.519347
	H311	H	0.561511	0.499663	0.526853
	O312	O	0.452242	0.486511	0.462372
	H313	H	0.443669	0.488888	0.455724
	H314	H	0.456267	0.475871	0.461049
	O315	O	0.966256	-0.008061	1.070551
	H316	H	0.970210	-0.006057	1.072941
	H317	H	0.970141	-0.018490	1.076323
	O318	O	-0.049840	0.051536	0.013561
	H319	H	-0.058467	0.046300	0.005836
	H320	H	-0.052450	0.046388	0.013398
	O321	O	0.442431	0.483987	0.454198
	H322	H	0.452874	0.482845	0.446897
	H323	H	0.446361	0.477095	0.453832
	O324	O	0.939486	0.018494	0.000049
	H325	H	0.933992	0.011896	0.007045
	H326	H	0.943633	0.014508	0.004630
	O327	O	0.945553	1.092186	0.023448
	H328	H	0.946443	1.095497	0.017114
	H329	H	0.942940	1.092033	0.024469
	O330	O	0.491865	0.441102	0.541924
	H331	H	0.489612	0.428351	0.543558
	H332	H	0.487223	0.446172	0.544212
	O333	O	0.463877	0.472101	0.520213
	H334	H	0.465429	0.463779	0.513316
	H335	H	0.461820	0.472632	0.514650
