data_Molecule from HDF5

_cell_length_a		16.458856
_cell_length_b		16.108413
_cell_length_c		16.122098
_cell_angle_alpha	90.159570
_cell_angle_beta	89.761024
_cell_angle_gamma	90.164430
_symmetry_space_group_name_H-M	'P 1'
_symmetry_Int_Tables_number		1

loop_
	_symmetry_equiv_pos_as_xyz
	x,y,z

loop_
	_atom_site_label
	_atom_site_type_symbol
	_atom_site_fract_x
	_atom_site_fract_y
	_atom_site_fract_z
	H0	H	0.403341	0.836017	0.709818
	H1	H	0.594830	0.168945	0.712837
	H2	H	0.595148	0.837735	0.288443
	H3	H	0.404591	0.169282	0.289587
	H4	H	0.715127	0.400645	0.834877
	H5	H	0.714016	0.604418	0.163178
	H6	H	0.284222	0.604789	0.835010
	H7	H	0.280062	0.400328	0.162046
	H8	H	0.835193	0.718007	0.401592
	H9	H	0.161126	0.719135	0.595628
	H10	H	0.836298	0.287841	0.596032
	H11	H	0.161929	0.288732	0.397941
	H12	H	0.835744	0.404866	0.713408
	H13	H	0.161000	0.603871	0.712663
	H14	H	0.835630	0.600578	0.284290
	H15	H	0.160657	0.403868	0.279474
	H16	H	0.406330	0.711568	0.832114
	H17	H	0.593910	0.714549	0.164895
	H18	H	0.595682	0.290852	0.833546
	H19	H	0.402165	0.293472	0.165662
	H20	H	0.714772	0.839819	0.398730
	H21	H	0.715999	0.167563	0.603133
	H22	H	0.281118	0.839621	0.601793
	H23	H	0.285534	0.167603	0.399020
	H24	H	0.902226	0.337504	0.207898
	H25	H	0.093257	0.670093	0.208443
	H26	H	0.094830	0.337992	0.784333
	H27	H	0.904778	0.670251	0.788958
	H28	H	0.216643	0.901686	0.335402
	H29	H	0.214742	0.105733	0.663419
	H30	H	0.783541	0.105028	0.335081
	H31	H	0.782808	0.902878	0.663039
	H32	H	0.336541	0.218398	0.901900
	H33	H	0.660986	0.220265	0.098492
	H34	H	0.336545	0.788417	0.097578
	H35	H	0.661228	0.788628	0.901496
	H36	H	0.337225	0.904503	0.215671
	H37	H	0.661496	0.102999	0.214413
	H38	H	0.336525	0.100351	0.785528
	H39	H	0.661842	0.905786	0.785351
	H40	H	0.905488	0.212586	0.331819
	H41	H	0.094619	0.217071	0.664633
	H42	H	0.095366	0.792164	0.332525
	H43	H	0.904272	0.794215	0.665006
	H44	H	0.214582	0.339344	0.895690
	H45	H	0.213990	0.668015	0.099474
	H46	H	0.781375	0.340341	0.099931
	H47	H	0.783693	0.667354	0.897142
	H48	H	0.398530	0.123174	0.594145
	H49	H	0.599015	0.881947	0.595650
	H50	H	0.596261	0.121873	0.410637
	H51	H	0.402185	0.885679	0.413462
	H52	H	0.580816	0.410437	0.114871
	H53	H	0.589418	0.587003	0.883910
	H54	H	0.398967	0.597690	0.119956
	H55	H	0.405047	0.410387	0.880044
	H56	H	0.112446	0.600084	0.409175
	H57	H	0.884044	0.602329	0.586830
	H58	H	0.114566	0.414506	0.596544
	H59	H	0.885188	0.401451	0.415487
	H60	H	0.114954	0.405543	0.589356
	H61	H	0.884830	0.591089	0.593720
	H62	H	0.111946	0.591912	0.402013
	H63	H	0.887504	0.421427	0.404890
	H64	H	0.404390	0.589262	0.115495
	H65	H	0.590307	0.602110	0.879279
	H66	H	0.601023	0.404532	0.122481
	H67	H	0.405438	0.413170	0.881935
	H68	H	0.594297	0.122881	0.405798
	H69	H	0.587190	0.886561	0.593218
	H70	H	0.413794	0.120980	0.597826
	H71	H	0.403647	0.882131	0.403370
	H72	H	0.909687	0.620891	0.091543
	H73	H	0.093588	0.381581	0.098530
	H74	H	0.097967	0.622901	0.906509
	H75	H	0.903767	0.381618	0.895213
	H76	H	0.085599	0.912794	0.614451
	H77	H	0.095117	0.086539	0.383568
	H78	H	0.908070	0.093157	0.615398
	H79	H	0.917309	0.908849	0.382989
	H80	H	0.617329	0.102027	0.899482
	H81	H	0.383550	0.096664	0.094429
	H82	H	0.615957	0.904304	0.093422
	H83	H	0.381282	0.904024	0.902438
	H84	H	0.613530	0.911051	0.089901
	H85	H	0.383202	0.097440	0.095795
	H86	H	0.612999	0.100642	0.913482
	H87	H	0.384065	0.907712	0.909038
	H88	H	0.906212	0.098526	0.617993
	H89	H	0.088295	0.100006	0.380869
	H90	H	0.095373	0.906648	0.619656
	H91	H	0.897056	0.903495	0.375283
	H92	H	0.091836	0.623082	0.903178
	H93	H	0.081304	0.389886	0.085061
	H94	H	0.902410	0.621006	0.085304
	H95	H	0.916360	0.389429	0.909961
	H96	H	0.408246	0.117883	0.583227
	H97	H	0.595581	0.886166	0.583805
	H98	H	0.591517	0.121236	0.409029
	H99	H	0.412115	0.886933	0.409082
	H100	H	0.596885	0.425037	0.114290
	H101	H	0.602122	0.594039	0.878434
	H102	H	0.409215	0.599053	0.117188
	H103	H	0.407001	0.410851	0.881325
	H104	H	0.116034	0.601949	0.398910
	H105	H	0.879446	0.602122	0.599776
	H106	H	0.110846	0.415037	0.585992
	H107	H	0.879075	0.403397	0.393409
	H108	H	0.901013	0.624601	0.095315
	H109	H	0.099977	0.386065	0.080513
	H110	H	0.092100	0.620199	0.909929
	H111	H	0.896971	0.384628	0.914987
	H112	H	0.096638	0.919097	0.616277
	H113	H	0.102773	0.097780	0.378125
	H114	H	0.902329	0.093727	0.617585
	H115	H	0.901931	0.923753	0.383537
	H116	H	0.612378	0.089095	0.904650
	H117	H	0.383450	0.097962	0.094949
	H118	H	0.615641	0.911244	0.097511
	H119	H	0.382857	0.911789	0.903011
	C120	C	0.377837	0.011592	0.620711
	C121	C	0.621305	0.994583	0.620574
	C122	C	0.621199	0.012721	0.379253
	C123	C	0.378667	0.994280	0.379586
	C124	C	0.621018	0.383175	0.007944
	C125	C	0.621115	0.624099	0.990110
	C126	C	0.377692	0.623570	0.007700
	C127	C	0.377372	0.382702	0.990491
	C128	C	0.006042	0.625894	0.375875
	C129	C	0.990119	0.626869	0.621034
	C130	C	0.006610	0.381961	0.619776
	C131	C	0.991010	0.380582	0.374804
	C132	C	0.876379	0.512764	0.119182
	C133	C	0.119582	0.495218	0.117932
	C134	C	0.121477	0.512659	0.876418
	C135	C	0.878127	0.494662	0.877930
	C136	C	0.120896	0.883126	0.507555
	C137	C	0.122478	0.124948	0.489988
	C138	C	0.878177	0.123927	0.507660
	C139	C	0.877542	0.883054	0.489845
	C140	C	0.507065	0.125419	0.877668
	C141	C	0.490679	0.126321	0.122942
	C142	C	0.507562	0.880610	0.122086
	C143	C	0.490483	0.880488	0.876934
	C144	C	0.381514	0.886296	0.674065
	C145	C	0.616736	0.119469	0.675771
	C146	C	0.616933	0.887669	0.324801
	C147	C	0.383128	0.119447	0.326081
	C148	C	0.676632	0.382196	0.883968
	C149	C	0.675946	0.623590	0.113916
	C150	C	0.323287	0.623047	0.883763
	C151	C	0.319986	0.382813	0.113834
	C152	C	0.883829	0.680210	0.380362
	C153	C	0.112401	0.681977	0.617403
	C154	C	0.884639	0.326251	0.616792
	C155	C	0.113166	0.326252	0.377174
	C156	C	0.884350	0.384260	0.675150
	C157	C	0.112352	0.624267	0.675412
	C158	C	0.884017	0.621982	0.322043
	C159	C	0.112497	0.383585	0.318120
	C160	C	0.383670	0.676377	0.882455
	C161	C	0.616158	0.678171	0.114965
	C162	C	0.616969	0.327865	0.883166
	C163	C	0.380344	0.329130	0.115563
	C164	C	0.676068	0.888513	0.379800
	C165	C	0.676722	0.118634	0.621063
	C166	C	0.321071	0.887997	0.620168
	C167	C	0.323816	0.118617	0.380410
	C168	C	0.880403	0.387544	0.172348
	C169	C	0.115265	0.620088	0.172221
	C170	C	0.116864	0.387779	0.821343
	C171	C	0.882749	0.620100	0.824704
	C172	C	0.177056	0.883373	0.383728
	C173	C	0.176425	0.124619	0.614489
	C174	C	0.822682	0.123262	0.383714
	C175	C	0.821533	0.883782	0.613916
	C176	C	0.384853	0.180132	0.881052
	C177	C	0.612734	0.181963	0.119350
	C178	C	0.385118	0.826168	0.118593
	C179	C	0.612788	0.825896	0.880187
	C180	C	0.385474	0.883768	0.177310
	C181	C	0.613006	0.123314	0.176571
	C182	C	0.385001	0.121805	0.822978
	C183	C	0.613092	0.884203	0.822524
	C184	C	0.883321	0.176767	0.381983
	C185	C	0.117132	0.180098	0.614864
	C186	C	0.117082	0.828612	0.382485
	C187	C	0.881973	0.830016	0.615159
	C188	C	0.176311	0.388466	0.876518
	C189	C	0.175373	0.618973	0.118248
	C190	C	0.820619	0.388826	0.118580
	C191	C	0.822490	0.618589	0.878460
	C192	C	0.400151	0.098356	0.598247
	C193	C	0.600058	0.907505	0.597712
	C194	C	0.600260	0.099599	0.401979
	C195	C	0.399670	0.907362	0.402070
	C196	C	0.599149	0.406196	0.094784
	C197	C	0.600317	0.601066	0.902966
	C198	C	0.398007	0.601825	0.094945
	C199	C	0.399469	0.404760	0.903717
	C200	C	0.091609	0.604148	0.397025
	C201	C	0.904790	0.605060	0.599720
	C202	C	0.091534	0.405021	0.597229
	C203	C	0.905831	0.402499	0.397643
	C204	C	0.897997	0.599688	0.097346
	C205	C	0.098073	0.408243	0.094672
	C206	C	0.100279	0.599535	0.899672
	C207	C	0.899371	0.407788	0.900182
	C208	C	0.099036	0.906009	0.594199
	C209	C	0.101748	0.101627	0.403156
	C210	C	0.899285	0.101750	0.594489
	C211	C	0.899051	0.905369	0.403120
	C212	C	0.592166	0.103794	0.899501
	C213	C	0.405357	0.104212	0.101176
	C214	C	0.592974	0.902381	0.100133
	C215	C	0.404942	0.901668	0.898509
	Zn216	Zn	0.499112	0.002559	0.747975
	Zn217	Zn	0.499368	0.003640	0.251945
	Zn218	Zn	0.749571	0.503455	-0.002071
	Zn219	Zn	0.249047	0.503611	-0.001879
	Zn220	Zn	-0.001533	0.755547	0.498371
	Zn221	Zn	-0.000572	0.251286	0.497903
	Zn222	Zn	-0.001579	0.504082	0.750001
	Zn223	Zn	-0.002167	0.503301	0.245478
	Zn224	Zn	0.498916	0.751056	-0.001043
	Zn225	Zn	0.498929	0.255541	-0.000022
	Zn226	Zn	0.749345	0.003849	0.499027
	Zn227	Zn	0.250055	0.003562	0.499320
	N228	N	0.416261	0.964188	0.674485
	N229	N	0.583145	0.041116	0.675854
	N230	N	0.583337	0.965876	0.324333
	N231	N	0.416488	0.041341	0.325473
	N232	N	0.679270	0.415935	0.962428
	N233	N	0.679045	0.590559	0.035163
	N234	N	0.319330	0.590971	0.962637
	N235	N	0.317624	0.415043	0.034929
	N236	N	0.960967	0.682736	0.413010
	N237	N	0.035602	0.683474	0.584171
	N238	N	0.961636	0.324586	0.583353
	N239	N	0.036505	0.324120	0.411630
	N240	N	0.961171	0.418406	0.677059
	N241	N	0.035463	0.590444	0.677664
	N242	N	0.960993	0.588741	0.319436
	N243	N	0.035421	0.416573	0.316652
	N244	N	0.416565	0.677045	0.960797
	N245	N	0.582860	0.678606	0.036838
	N246	N	0.583048	0.328168	0.961413
	N247	N	0.415499	0.329004	0.038030
	N248	N	0.678943	0.967274	0.412666
	N249	N	0.679520	0.040048	0.587592
	N250	N	0.318635	0.967034	0.587823
	N251	N	0.320952	0.039738	0.413127
	N252	N	0.914520	0.465613	0.172806
	N253	N	0.081338	0.541960	0.172336
	N254	N	0.083610	0.465944	0.821052
	N255	N	0.916674	0.542107	0.824204
	N256	N	0.179583	0.916370	0.462618
	N257	N	0.179839	0.091119	0.535968
	N258	N	0.819320	0.091333	0.462834
	N259	N	0.818979	0.916289	0.535146
	N260	N	0.461614	0.182537	0.914380
	N261	N	0.535607	0.184102	0.086620
	N262	N	0.462139	0.823836	0.085070
	N263	N	0.535691	0.823739	0.913329
	N264	N	0.462470	0.916995	0.179434
	N265	N	0.536184	0.089439	0.178736
	N266	N	0.462003	0.088656	0.820756
	N267	N	0.536036	0.917202	0.820361
	N268	N	0.917108	0.177257	0.459935
	N269	N	0.084452	0.180547	0.536381
	N270	N	0.082878	0.828254	0.460366
	N271	N	0.916196	0.829434	0.537264
	N272	N	0.179353	0.467193	0.909951
	N273	N	0.177980	0.540217	0.085081
	N274	N	0.818055	0.467532	0.086068
	N275	N	0.819713	0.539668	0.910945
	O276	O	0.408669	0.417102	0.574811
	H277	H	0.401620	0.399603	0.578026
	H278	H	0.403770	0.420975	0.567339
	O279	O	0.040747	0.024602	0.020588
	H280	H	0.040343	0.026398	0.023417
	H281	H	0.043997	0.022619	0.017348
	O282	O	0.450792	0.456061	0.474958
	H283	H	0.454746	0.465740	0.468382
	H284	H	0.455266	0.459149	0.468495
	O285	O	0.522403	0.534384	0.508391
	H286	H	0.519598	0.534863	0.506359
	H287	H	0.525324	0.538135	0.517228
	O288	O	1.022581	0.031991	0.006118
	H289	H	1.020816	0.032471	0.005504
	H290	H	1.024782	0.034648	0.004316
	O291	O	-0.581749	0.513934	-0.529180
	H292	H	-0.583288	0.523653	-0.533796
	H293	H	-0.583580	0.513039	-0.534749
	O294	O	0.374322	0.407284	0.590739
	H295	H	0.370436	0.387663	0.592278
	H296	H	0.374854	0.399418	0.587560
	O297	O	0.440581	1.448023	0.505761
	H298	H	0.443576	1.446298	0.500910
	H299	H	0.432068	1.451416	0.504002
	O300	O	1.461248	0.467443	0.474474
	H301	H	1.460533	0.475674	0.483048
	H302	H	1.460131	0.471265	0.465846
	O303	O	0.411401	0.593454	0.473004
	H304	H	0.409323	0.590265	0.470579
	H305	H	0.406541	0.602947	0.474928
	O306	O	0.457489	0.485938	1.481137
	H307	H	0.459296	0.486395	1.477994
	H308	H	0.453125	0.476662	1.491751
	O309	O	0.488093	0.463081	0.547527
	H310	H	0.488307	0.464653	0.552333
	H311	H	0.489506	0.448547	0.551116
