data_Molecule from HDF5

_cell_length_a		16.128202
_cell_length_b		16.378125
_cell_length_c		16.079198
_cell_angle_alpha	90.422232
_cell_angle_beta	90.961905
_cell_angle_gamma	89.635011
_symmetry_space_group_name_H-M	'P 1'
_symmetry_Int_Tables_number		1

loop_
	_symmetry_equiv_pos_as_xyz
	x,y,z

loop_
	_atom_site_label
	_atom_site_type_symbol
	_atom_site_fract_x
	_atom_site_fract_y
	_atom_site_fract_z
	H0	H	0.402541	0.829513	0.708369
	H1	H	0.594580	0.156875	0.718677
	H2	H	0.591671	0.831274	0.286039
	H3	H	0.393251	0.158079	0.284318
	H4	H	0.701116	0.395414	0.831679
	H5	H	0.708559	0.590284	0.164130
	H6	H	0.277526	0.588943	0.833450
	H7	H	0.287438	0.400749	0.167359
	H8	H	0.829685	0.711957	0.395140
	H9	H	0.157806	0.711389	0.604791
	H10	H	0.830617	0.281041	0.595939
	H11	H	0.157494	0.276696	0.397260
	H12	H	0.826649	0.401988	0.702644
	H13	H	0.158501	0.593561	0.716675
	H14	H	0.828892	0.591268	0.284167
	H15	H	0.161127	0.398900	0.291205
	H16	H	0.386218	0.709306	0.834347
	H17	H	0.597034	0.709642	0.163766
	H18	H	0.591165	0.276429	0.834713
	H19	H	0.396098	0.280304	0.164673
	H20	H	0.708848	0.831530	0.403000
	H21	H	0.709260	0.158740	0.601957
	H22	H	0.281282	0.831492	0.595443
	H23	H	0.276698	0.158128	0.399434
	H24	H	0.899867	0.331329	0.210536
	H25	H	0.093406	0.658155	0.216398
	H26	H	0.089722	0.331351	0.784256
	H27	H	0.890433	0.658388	0.783405
	H28	H	0.203263	0.897746	0.332576
	H29	H	0.210228	0.094343	0.664331
	H30	H	0.777470	0.092480	0.333785
	H31	H	0.789343	0.902141	0.666439
	H32	H	0.330063	0.209419	0.895042
	H33	H	0.657889	0.209254	0.104593
	H34	H	0.329065	0.781189	0.096271
	H35	H	0.657015	0.774164	0.898459
	H36	H	0.327623	0.899483	0.207654
	H37	H	0.660101	0.089542	0.214268
	H38	H	0.330023	0.090814	0.783404
	H39	H	0.662499	0.895696	0.792171
	H40	H	0.891527	0.208700	0.332989
	H41	H	0.100273	0.213748	0.661962
	H42	H	0.094799	0.777222	0.335182
	H43	H	0.894680	0.781286	0.663063
	H44	H	0.207952	0.331185	0.901435
	H45	H	0.209667	0.657813	0.102039
	H46	H	0.783025	0.330107	0.094329
	H47	H	0.773496	0.656865	0.898737
	H48	H	0.395341	0.111945	0.590066
	H49	H	0.592512	0.883257	0.578609
	H50	H	0.587779	0.112761	0.403092
	H51	H	0.389128	0.874912	0.399982
	H52	H	0.583205	0.409731	0.113296
	H53	H	0.580060	0.589239	0.879327
	H54	H	0.402423	0.590509	0.117618
	H55	H	0.399622	0.410121	0.883867
	H56	H	0.112207	0.595164	0.417648
	H57	H	0.874864	0.607400	0.574403
	H58	H	0.116175	0.396181	0.599576
	H59	H	0.877241	0.401312	0.412349
	H60	H	0.110063	0.400381	0.580860
	H61	H	0.883310	0.573702	0.581628
	H62	H	0.110046	0.580430	0.410670
	H63	H	0.877095	0.409205	0.398047
	H64	H	0.404064	0.590444	0.117302
	H65	H	0.584558	0.583676	0.880700
	H66	H	0.583673	0.389155	0.120108
	H67	H	0.408207	0.394652	0.882429
	H68	H	0.580477	0.109317	0.408800
	H69	H	0.608194	0.871773	0.600681
	H70	H	0.405950	0.112006	0.599701
	H71	H	0.407650	0.879109	0.396590
	H72	H	0.903908	0.610496	0.094337
	H73	H	0.089679	0.379841	0.088998
	H74	H	0.090623	0.611330	0.911660
	H75	H	0.900302	0.379885	0.905974
	H76	H	0.090857	0.891999	0.621932
	H77	H	0.080273	0.087033	0.381305
	H78	H	0.902542	0.091711	0.618705
	H79	H	0.905308	0.904275	0.381898
	H80	H	0.613728	0.086111	0.909276
	H81	H	0.372674	0.095681	0.093265
	H82	H	0.613022	0.899356	0.095441
	H83	H	0.373113	0.897850	0.893870
	H84	H	0.612226	0.898327	0.090244
	H85	H	0.376604	0.089943	0.084095
	H86	H	0.613144	0.088503	0.912328
	H87	H	0.376775	0.895477	0.912165
	H88	H	0.907222	0.090287	0.616388
	H89	H	0.084378	0.091261	0.378741
	H90	H	0.097618	0.911643	0.618097
	H91	H	0.900860	0.898008	0.378785
	H92	H	0.082816	0.611344	0.902340
	H93	H	0.095810	0.376609	0.095265
	H94	H	0.902315	0.608597	0.085728
	H95	H	0.891916	0.375779	0.899655
	H96	H	0.408191	0.106252	0.586374
	H97	H	0.580365	0.878582	0.603718
	H98	H	0.589090	0.110876	0.413210
	H99	H	0.400951	0.882290	0.414267
	H100	H	0.601080	0.401426	0.121235
	H101	H	0.577910	0.583262	0.881344
	H102	H	0.403553	0.591248	0.118592
	H103	H	0.390917	0.395580	0.878373
	H104	H	0.115949	0.592522	0.401904
	H105	H	0.868438	0.594764	0.607654
	H106	H	0.109820	0.413717	0.594364
	H107	H	0.872606	0.394326	0.399631
	H108	H	0.895241	0.611766	0.091290
	H109	H	0.087034	0.378488	0.098381
	H110	H	0.079386	0.607464	0.913422
	H111	H	0.901320	0.378214	0.895062
	H112	H	0.077644	0.905870	0.613447
	H113	H	0.086078	0.084933	0.379835
	H114	H	0.906810	0.095919	0.617867
	H115	H	0.898024	0.905807	0.380357
	H116	H	0.611530	0.085806	0.913383
	H117	H	0.375891	0.084780	0.094059
	H118	H	0.611179	0.902815	0.091862
	H119	H	0.379005	0.911689	0.902934
	C120	C	0.374722	0.002413	0.619924
	C121	C	0.620293	0.985995	0.623932
	C122	C	0.615379	0.003144	0.379308
	C123	C	0.370406	0.986594	0.375606
	C124	C	0.615561	0.371451	0.008126
	C125	C	0.613098	0.614564	0.989773
	C126	C	0.371479	0.617304	0.008288
	C127	C	0.372886	0.372905	0.991186
	C128	C	0.003411	0.617369	0.378746
	C129	C	0.984597	0.619234	0.620708
	C130	C	0.002738	0.375821	0.617969
	C131	C	0.985105	0.373388	0.376377
	C132	C	0.873187	0.502627	0.118881
	C133	C	0.118353	0.486282	0.123361
	C134	C	0.113654	0.502818	0.878923
	C135	C	0.868290	0.486014	0.873151
	C136	C	0.115951	0.873933	0.508137
	C137	C	0.115171	0.117145	0.489074
	C138	C	0.873736	0.118982	0.508133
	C139	C	0.874975	0.875641	0.490451
	C140	C	0.503625	0.114985	0.879736
	C141	C	0.484559	0.116924	0.121427
	C142	C	0.502540	0.873184	0.119420
	C143	C	0.485425	0.872002	0.876444
	C144	C	0.379784	0.878838	0.672338
	C145	C	0.615747	0.108504	0.680489
	C146	C	0.612636	0.880087	0.324122
	C147	C	0.372904	0.109289	0.321584
	C148	C	0.666201	0.374391	0.882121
	C149	C	0.670580	0.611626	0.114640
	C150	C	0.314709	0.611406	0.883173
	C151	C	0.322268	0.378490	0.117110
	C152	C	0.878918	0.673150	0.377142
	C153	C	0.108667	0.673552	0.623331
	C154	C	0.879079	0.320038	0.615101
	C155	C	0.109052	0.316613	0.378505
	C156	C	0.877085	0.380184	0.668379
	C157	C	0.108687	0.614984	0.679069
	C158	C	0.878374	0.613063	0.322175
	C159	C	0.110781	0.377091	0.325587
	C160	C	0.369133	0.671165	0.883620
	C161	C	0.614771	0.670704	0.114302
	C162	C	0.611402	0.315360	0.883578
	C163	C	0.376212	0.318593	0.115636
	C164	C	0.670963	0.880425	0.382167
	C165	C	0.673135	0.109119	0.622595
	C166	C	0.319637	0.879970	0.616160
	C167	C	0.314810	0.109373	0.378812
	C168	C	0.878576	0.379737	0.172800
	C169	C	0.114408	0.609207	0.178959
	C170	C	0.110789	0.380099	0.822535
	C171	C	0.870046	0.609075	0.820113
	C172	C	0.167605	0.876858	0.382626
	C173	C	0.172197	0.114923	0.614449
	C174	C	0.815744	0.114118	0.383522
	C175	C	0.823879	0.880248	0.615984
	C176	C	0.379269	0.170783	0.877236
	C177	C	0.608946	0.171175	0.122681
	C178	C	0.378362	0.819082	0.116367
	C179	C	0.608716	0.813903	0.879141
	C180	C	0.377378	0.878028	0.171584
	C181	C	0.610093	0.111657	0.177191
	C182	C	0.379239	0.111858	0.821690
	C183	C	0.611486	0.874434	0.826221
	C184	C	0.872589	0.171817	0.382952
	C185	C	0.117573	0.174384	0.613121
	C186	C	0.113508	0.817185	0.383783
	C187	C	0.876448	0.820071	0.614249
	C188	C	0.169363	0.379808	0.880803
	C189	C	0.172163	0.609176	0.121616
	C190	C	0.820434	0.379171	0.114916
	C191	C	0.811799	0.608329	0.877445
	C192	C	0.396558	0.087984	0.598284
	C193	C	0.599660	0.899971	0.601090
	C194	C	0.592440	0.088924	0.401818
	C195	C	0.392744	0.900884	0.397107
	C196	C	0.595460	0.393657	0.095456
	C197	C	0.588199	0.592016	0.902873
	C198	C	0.396015	0.596859	0.095370
	C199	C	0.393453	0.393799	0.904098
	C200	C	0.090390	0.595782	0.403063
	C201	C	0.897860	0.598145	0.595385
	C202	C	0.089625	0.396997	0.597655
	C203	C	0.898275	0.395228	0.397146
	C204	C	0.894217	0.588222	0.096930
	C205	C	0.097139	0.400546	0.100861
	C206	C	0.090817	0.588023	0.902133
	C207	C	0.891102	0.400075	0.894103
	C208	C	0.094977	0.896410	0.595282
	C209	C	0.090620	0.094491	0.402426
	C210	C	0.898280	0.098695	0.595379
	C211	C	0.895485	0.896556	0.402951
	C212	C	0.590289	0.093249	0.904518
	C213	C	0.397577	0.096217	0.097583
	C214	C	0.589560	0.894012	0.098697
	C215	C	0.398735	0.894919	0.896825
	Zn216	Zn	0.496447	-0.006627	0.751023
	Zn217	Zn	0.493562	-0.005587	0.247941
	Zn218	Zn	0.741480	0.493144	-0.002219
	Zn219	Zn	0.245607	0.494432	0.001020
	Zn220	Zn	-0.005634	0.747078	0.499237
	Zn221	Zn	-0.005052	0.246459	0.497526
	Zn222	Zn	-0.007918	0.495696	0.746565
	Zn223	Zn	-0.004832	0.494982	0.250305
	Zn224	Zn	0.492992	0.744657	-0.001744
	Zn225	Zn	0.493676	0.244098	-0.000009
	Zn226	Zn	0.747371	-0.004241	0.500858
	Zn227	Zn	0.242678	-0.004672	0.498797
	N228	N	0.413199	0.955963	0.674736
	N229	N	0.583507	0.030877	0.681405
	N230	N	0.578593	0.957415	0.322411
	N231	N	0.406809	0.031972	0.319326
	N232	N	0.668930	0.408472	0.960576
	N233	N	0.669447	0.577279	0.036269
	N234	N	0.315930	0.578761	0.961768
	N235	N	0.319988	0.411579	0.038651
	N236	N	0.957692	0.675719	0.411766
	N237	N	0.030588	0.676344	0.587777
	N238	N	0.958275	0.316966	0.584456
	N239	N	0.030067	0.314165	0.409176
	N240	N	0.954937	0.414268	0.670399
	N241	N	0.030199	0.581903	0.677540
	N242	N	0.956673	0.579383	0.322680
	N243	N	0.032654	0.411597	0.323884
	N244	N	0.403653	0.674982	0.962409
	N245	N	0.579608	0.672579	0.035614
	N246	N	0.580732	0.313167	0.962871
	N247	N	0.407144	0.315018	0.036476
	N248	N	0.672678	0.958060	0.415731
	N249	N	0.676138	0.031940	0.588288
	N250	N	0.316456	0.957864	0.584373
	N251	N	0.313132	0.032022	0.411766
	N252	N	0.910714	0.457360	0.175503
	N253	N	0.081576	0.531918	0.180032
	N254	N	0.076860	0.457379	0.821329
	N255	N	0.904518	0.531975	0.817400
	N256	N	0.169208	0.911562	0.460855
	N257	N	0.171080	0.080070	0.536325
	N258	N	0.816353	0.081955	0.462481
	N259	N	0.822909	0.914292	0.538023
	N260	N	0.457572	0.172918	0.912602
	N261	N	0.529969	0.174735	0.088758
	N262	N	0.457023	0.816186	0.084579
	N263	N	0.529508	0.812006	0.909532
	N264	N	0.455731	0.911061	0.173713
	N265	N	0.531780	0.078857	0.176819
	N266	N	0.457483	0.077965	0.822893
	N267	N	0.533753	0.909921	0.824369
	N268	N	0.907979	0.174994	0.461333
	N269	N	0.082901	0.175930	0.534261
	N270	N	0.082387	0.814969	0.463008
	N271	N	0.907686	0.817095	0.535041
	N272	N	0.171326	0.457067	0.915302
	N273	N	0.174876	0.531639	0.088029
	N274	N	0.817290	0.456539	0.081812
	N275	N	0.810528	0.530671	0.909650
	O276	O	0.932732	1.020195	-0.031740
	H277	H	0.934389	1.016478	-0.032638
	H278	H	0.924920	1.012424	-0.038028
	O279	O	0.018498	-0.030512	1.003978
	H280	H	0.008241	-0.030880	1.004517
	H281	H	0.019121	-0.026795	0.997749
	O282	O	0.031278	-0.004930	-0.052249
	H283	H	0.039918	-0.007928	-0.046437
	H284	H	0.035818	-0.004051	-0.061399
	O285	O	0.519191	0.500450	0.512071
	H286	H	0.521478	0.502343	0.506787
	H287	H	0.525826	0.509072	0.508774
	O288	O	-0.044107	-0.007286	-0.052816
	H289	H	-0.043077	-0.014396	-0.051646
	H290	H	-0.032766	-0.004371	-0.050588
	O291	O	0.018247	1.087184	-0.064789
	H292	H	0.015581	1.083314	-0.062994
	H293	H	0.018989	1.088431	-0.069062
	O294	O	0.043993	1.034932	-0.024671
	H295	H	0.041846	1.030938	-0.025938
	H296	H	0.036919	1.029924	-0.031205
	O297	O	0.548331	0.515079	0.523397
	H298	H	0.555363	0.522476	0.525543
	H299	H	0.553310	0.509617	0.513649
	O300	O	0.472278	0.578362	0.476335
	H301	H	0.466240	0.574809	0.480290
	H302	H	0.469182	0.577115	0.477942
	O303	O	1.092145	-0.011537	1.048005
	H304	H	1.103007	-0.019326	1.053555
	H305	H	1.091250	-0.001827	1.055296
	O306	O	1.065070	2.000766	1.013493
	H307	H	1.069514	1.995899	1.001468
	H308	H	1.077798	2.011066	1.026232
	O309	O	-0.031900	0.987817	0.958031
	H310	H	-0.036789	0.985839	0.959577
	H311	H	-0.035720	0.996363	0.953492
	O312	O	-0.099281	0.037619	0.960674
	H313	H	-0.109034	0.038921	0.953755
	H314	H	-0.093045	0.032606	0.954844
	O315	O	0.476044	0.547216	0.545656
	H316	H	0.475643	0.554214	0.554326
	H317	H	0.465535	0.543308	0.543572
	O318	O	0.499299	-0.594365	0.493213
	H319	H	0.500951	-0.592701	0.491856
	H320	H	0.498852	-0.601961	0.493612
	O321	O	0.440092	0.445730	0.558693
	H322	H	0.451520	0.449354	0.564474
	H323	H	0.438033	0.450472	0.568818
	O324	O	1.059785	0.025170	1.021104
	H325	H	1.052173	0.045962	1.022097
	H326	H	1.067041	0.031533	1.016231
	O327	O	0.990047	0.988521	0.987779
	H328	H	0.983519	0.988185	0.999647
	H329	H	0.983375	0.986110	0.983325
	O330	O	0.471541	0.522613	0.513339
	H331	H	0.466223	0.520091	0.508003
	H332	H	0.476578	0.531331	0.519543
	O333	O	0.549526	0.507219	0.441092
	H334	H	0.548221	0.516309	0.432592
	H335	H	0.547985	0.505456	0.437628
	O336	O	0.503904	0.511710	0.464352
	H337	H	0.495129	0.509269	0.463035
	H338	H	0.503815	0.515435	0.463661
	O339	O	0.383163	0.339922	0.423837
	H340	H	0.382920	0.338854	0.418913
	H341	H	0.388321	0.337525	0.417817
	O342	O	0.543068	0.487003	0.512256
	H343	H	0.535663	0.486499	0.515702
	H344	H	0.550951	0.488655	0.513831
	O345	O	0.431266	0.440442	0.507920
	H346	H	0.436153	0.428983	0.511509
	H347	H	0.416285	0.430421	0.509682
