data_Molecule from HDF5

_cell_length_a		16.652141
_cell_length_b		16.689190
_cell_length_c		16.548235
_cell_angle_alpha	89.903354
_cell_angle_beta	89.979795
_cell_angle_gamma	89.961204
_symmetry_space_group_name_H-M	'P 1'
_symmetry_Int_Tables_number		1

loop_
	_symmetry_equiv_pos_as_xyz
	x,y,z

loop_
	_atom_site_label
	_atom_site_type_symbol
	_atom_site_fract_x
	_atom_site_fract_y
	_atom_site_fract_z
	H0	H	0.395286	0.844158	0.718425
	H1	H	0.603552	0.154541	0.715633
	H2	H	0.604012	0.842500	0.278009
	H3	H	0.393339	0.153113	0.271776
	H4	H	0.722969	0.393659	0.841711
	H5	H	0.718311	0.599857	0.153267
	H6	H	0.280585	0.603291	0.839815
	H7	H	0.279602	0.393458	0.152335
	H8	H	0.847626	0.722490	0.388823
	H9	H	0.154190	0.723231	0.605907
	H10	H	0.848166	0.273683	0.608738
	H11	H	0.155509	0.276605	0.392208
	H12	H	0.845120	0.394578	0.718848
	H13	H	0.155564	0.604817	0.719448
	H14	H	0.847340	0.604670	0.274251
	H15	H	0.155981	0.393404	0.276430
	H16	H	0.395867	0.719497	0.840580
	H17	H	0.605648	0.719575	0.151564
	H18	H	0.608165	0.276852	0.842303
	H19	H	0.395095	0.277340	0.152472
	H20	H	0.721520	0.843691	0.392436
	H21	H	0.718628	0.154955	0.598175
	H22	H	0.276932	0.845507	0.603994
	H23	H	0.276330	0.152980	0.387154
	H24	H	0.895270	0.345275	0.221380
	H25	H	0.106712	0.652918	0.218504
	H26	H	0.105198	0.344327	0.775727
	H27	H	0.894032	0.652655	0.774174
	H28	H	0.224142	0.892390	0.342117
	H29	H	0.221580	0.102979	0.652862
	H30	H	0.780535	0.105001	0.340607
	H31	H	0.779454	0.892209	0.652084
	H32	H	0.346954	0.221317	0.891121
	H33	H	0.655450	0.221274	0.103859
	H34	H	0.345785	0.777880	0.101211
	H35	H	0.655072	0.775420	0.889668
	H36	H	0.346588	0.893381	0.218899
	H37	H	0.657507	0.101527	0.215569
	H38	H	0.345769	0.103800	0.775887
	H39	H	0.656508	0.893345	0.775714
	H40	H	0.895784	0.221281	0.341802
	H41	H	0.104635	0.218209	0.653239
	H42	H	0.109464	0.775222	0.342061
	H43	H	0.893477	0.775671	0.650970
	H44	H	0.221838	0.344563	0.891763
	H45	H	0.224148	0.652031	0.103855
	H46	H	0.777832	0.345277	0.105054
	H47	H	0.778028	0.652917	0.890866
	H48	H	0.408217	0.110253	0.583625
	H49	H	0.587822	0.888167	0.585587
	H50	H	0.592109	0.112160	0.401706
	H51	H	0.417385	0.892108	0.411503
	H52	H	0.590001	0.411276	0.108345
	H53	H	0.591733	0.587621	0.883312
	H54	H	0.411305	0.586647	0.107988
	H55	H	0.409500	0.416846	0.886837
	H56	H	0.109077	0.580344	0.413014
	H57	H	0.891345	0.587757	0.580071
	H58	H	0.109957	0.411810	0.583780
	H59	H	0.890306	0.408595	0.414456
	H60	H	0.112791	0.409791	0.589564
	H61	H	0.891586	0.583780	0.585770
	H62	H	0.114501	0.587095	0.401702
	H63	H	0.891390	0.414482	0.409019
	H64	H	0.412938	0.587581	0.108087
	H65	H	0.589471	0.586753	0.884593
	H66	H	0.587734	0.408000	0.109486
	H67	H	0.420390	0.409677	0.886878
	H68	H	0.587156	0.108997	0.406672
	H69	H	0.593743	0.886764	0.584011
	H70	H	0.413633	0.110914	0.588837
	H71	H	0.410259	0.890381	0.413125
	H72	H	0.920089	0.606381	0.084969
	H73	H	0.086231	0.388237	0.086807
	H74	H	0.087348	0.607356	0.911932
	H75	H	0.913400	0.387174	0.906123
	H76	H	0.087710	0.918669	0.605799
	H77	H	0.086294	0.084432	0.386832
	H78	H	0.914087	0.085679	0.607460
	H79	H	0.908783	0.909516	0.383170
	H80	H	0.613285	0.091930	0.909503
	H81	H	0.389635	0.091968	0.083072
	H82	H	0.612993	0.911025	0.088537
	H83	H	0.390068	0.909573	0.909811
	H84	H	0.613972	0.904759	0.087290
	H85	H	0.391694	0.084274	0.081223
	H86	H	0.610473	0.084674	0.910352
	H87	H	0.389190	0.910877	0.907127
	H88	H	0.910643	0.090995	0.611022
	H89	H	0.086764	0.092026	0.384258
	H90	H	0.080347	0.906672	0.606002
	H91	H	0.912802	0.915856	0.385960
	H92	H	0.096305	0.611982	0.908717
	H93	H	0.092492	0.387552	0.082776
	H94	H	0.907281	0.608815	0.078215
	H95	H	0.915083	0.390180	0.911750
	H96	H	0.415467	0.107573	0.582433
	H97	H	0.591847	0.885707	0.590275
	H98	H	0.594731	0.110579	0.409090
	H99	H	0.412890	0.888343	0.406910
	H100	H	0.591862	0.408438	0.110527
	H101	H	0.589348	0.588863	0.882907
	H102	H	0.411784	0.587852	0.109697
	H103	H	0.409549	0.404207	0.881580
	H104	H	0.113237	0.593624	0.414181
	H105	H	0.888513	0.590462	0.586496
	H106	H	0.111964	0.405297	0.584764
	H107	H	0.887830	0.407953	0.407009
	H108	H	0.909111	0.612416	0.092091
	H109	H	0.091939	0.385561	0.089989
	H110	H	0.087905	0.612212	0.902438
	H111	H	0.909261	0.387778	0.911332
	H112	H	0.093794	0.907066	0.610752
	H113	H	0.092807	0.087484	0.384125
	H114	H	0.907158	0.085025	0.609184
	H115	H	0.916070	0.908348	0.385525
	H116	H	0.613037	0.086684	0.903614
	H117	H	0.389126	0.085913	0.088519
	H118	H	0.611489	0.908143	0.082252
	H119	H	0.389428	0.907230	0.907241
	C120	C	0.379238	0.007511	0.618197
	C121	C	0.622595	0.989853	0.618045
	C122	C	0.622749	0.007408	0.374806
	C123	C	0.379385	0.991349	0.375440
	C124	C	0.622433	0.377243	0.006201
	C125	C	0.621570	0.619260	0.987478
	C126	C	0.379704	0.619568	0.005015
	C127	C	0.380349	0.377804	0.988203
	C128	C	0.010200	0.620355	0.375711
	C129	C	0.992432	0.620342	0.618035
	C130	C	0.009095	0.376893	0.619299
	C131	C	0.992289	0.378027	0.377568
	C132	C	0.879465	0.507478	0.118982
	C133	C	0.122457	0.489627	0.118467
	C134	C	0.121968	0.507818	0.875598
	C135	C	0.879377	0.490438	0.876243
	C136	C	0.121824	0.877632	0.505068
	C137	C	0.121196	0.119763	0.488242
	C138	C	0.878951	0.120065	0.505943
	C139	C	0.879710	0.878014	0.487541
	C140	C	0.509784	0.120396	0.875565
	C141	C	0.492873	0.119518	0.117323
	C142	C	0.509805	0.876469	0.118280
	C143	C	0.492233	0.877285	0.875565
	C144	C	0.376688	0.890853	0.678576
	C145	C	0.622533	0.107704	0.676171
	C146	C	0.623128	0.889661	0.317099
	C147	C	0.375689	0.106752	0.312869
	C148	C	0.682774	0.375276	0.888688
	C149	C	0.679609	0.619909	0.106099
	C150	C	0.320214	0.621660	0.887164
	C151	C	0.319850	0.375136	0.105561
	C152	C	0.894130	0.681834	0.371292
	C153	C	0.108257	0.681889	0.622666
	C154	C	0.893834	0.315444	0.624430
	C155	C	0.109178	0.317395	0.374613
	C156	C	0.892357	0.375413	0.679698
	C157	C	0.108574	0.623227	0.679563
	C158	C	0.894012	0.623607	0.314093
	C159	C	0.109332	0.375438	0.317132
	C160	C	0.377445	0.679533	0.887307
	C161	C	0.623576	0.679031	0.105055
	C162	C	0.625635	0.317418	0.888842
	C163	C	0.377359	0.317552	0.105612
	C164	C	0.681662	0.890252	0.373920
	C165	C	0.680063	0.107820	0.618159
	C166	C	0.317994	0.891572	0.621614
	C167	C	0.317485	0.106828	0.370431
	C168	C	0.876786	0.391365	0.180376
	C169	C	0.124971	0.606281	0.178552
	C170	C	0.123629	0.390817	0.815931
	C171	C	0.876155	0.606554	0.815186
	C172	C	0.183609	0.874259	0.388583
	C173	C	0.181347	0.121427	0.606121
	C174	C	0.820075	0.122870	0.387813
	C175	C	0.819390	0.874662	0.604975
	C176	C	0.393269	0.180809	0.873043
	C177	C	0.609170	0.180110	0.120637
	C178	C	0.392687	0.817298	0.120121
	C179	C	0.608787	0.816545	0.872437
	C180	C	0.393040	0.874911	0.178198
	C181	C	0.610158	0.120839	0.176711
	C182	C	0.392651	0.122520	0.815777
	C183	C	0.609339	0.875204	0.815580
	C184	C	0.877319	0.180656	0.388390
	C185	C	0.123492	0.178730	0.606274
	C186	C	0.126882	0.815852	0.388778
	C187	C	0.876410	0.816869	0.604586
	C188	C	0.181770	0.391122	0.873294
	C189	C	0.183080	0.605860	0.121195
	C190	C	0.818681	0.391366	0.122738
	C191	C	0.818214	0.606374	0.872823
	C192	C	0.404988	0.088534	0.592266
	C193	C	0.598298	0.908009	0.593592
	C194	C	0.598431	0.089299	0.398915
	C195	C	0.406086	0.910989	0.402836
	C196	C	0.597123	0.402210	0.088269
	C197	C	0.597191	0.594925	0.905004
	C198	C	0.404661	0.594426	0.087122
	C199	C	0.405834	0.403027	0.906450
	C200	C	0.091254	0.594381	0.402145
	C201	C	0.911639	0.594634	0.591553
	C202	C	0.090452	0.401887	0.593518
	C203	C	0.911001	0.403268	0.402931
	C204	C	0.904944	0.588167	0.092594
	C205	C	0.097426	0.408095	0.093589
	C206	C	0.097616	0.589243	0.900522
	C207	C	0.905238	0.409251	0.902376
	C208	C	0.095050	0.903648	0.586396
	C209	C	0.095978	0.095012	0.406503
	C210	C	0.903760	0.094522	0.587949
	C211	C	0.905412	0.903843	0.406036
	C212	C	0.591184	0.094835	0.900729
	C213	C	0.411348	0.094578	0.091626
	C214	C	0.591560	0.900910	0.093208
	C215	C	0.410644	0.902155	0.900677
	Zn216	Zn	0.501145	-0.001347	0.746987
	Zn217	Zn	0.501114	-0.001236	0.246392
	Zn218	Zn	0.750339	0.498563	-0.002580
	Zn219	Zn	0.251230	0.498573	-0.003346
	Zn220	Zn	0.001057	0.749325	0.496588
	Zn221	Zn	0.000117	0.248323	0.497744
	Zn222	Zn	0.000270	0.499004	0.746982
	Zn223	Zn	0.001380	0.498630	0.247565
	Zn224	Zn	0.500246	0.747593	-0.003703
	Zn225	Zn	0.500853	0.249333	-0.002925
	Zn226	Zn	0.751350	-0.000948	0.496467
	Zn227	Zn	0.249931	-0.000629	0.496304
	N228	N	0.413987	0.964193	0.676831
	N229	N	0.587791	0.033062	0.676661
	N230	N	0.587373	0.963710	0.317164
	N231	N	0.413629	0.033811	0.315890
	N232	N	0.681014	0.411692	0.962925
	N233	N	0.678733	0.583738	0.031820
	N234	N	0.321310	0.585230	0.961474
	N235	N	0.321264	0.411926	0.031495
	N236	N	0.967572	0.679920	0.408854
	N237	N	0.034978	0.680273	0.584887
	N238	N	0.967580	0.316180	0.587579
	N239	N	0.035307	0.318791	0.411638
	N240	N	0.965328	0.413050	0.676700
	N241	N	0.035450	0.585680	0.676851
	N242	N	0.967380	0.586137	0.316663
	N243	N	0.035686	0.412357	0.318538
	N244	N	0.413793	0.678368	0.961665
	N245	N	0.588511	0.679072	0.030064
	N246	N	0.588902	0.318384	0.963003
	N247	N	0.414151	0.319071	0.031506
	N248	N	0.681792	0.964653	0.408903
	N249	N	0.680431	0.033356	0.583008
	N250	N	0.319370	0.965225	0.584755
	N251	N	0.319798	0.033875	0.408766
	N252	N	0.913938	0.464573	0.178095
	N253	N	0.087970	0.532746	0.177017
	N254	N	0.087623	0.464670	0.816702
	N255	N	0.913612	0.533328	0.817336
	N256	N	0.180810	0.911792	0.462226
	N257	N	0.180327	0.085621	0.531627
	N258	N	0.821087	0.085878	0.462040
	N259	N	0.821170	0.912161	0.531078
	N260	N	0.467319	0.179790	0.909249
	N261	N	0.535120	0.179476	0.084325
	N262	N	0.466517	0.817922	0.083652
	N263	N	0.534955	0.817546	0.908999
	N264	N	0.466937	0.910774	0.177355
	N265	N	0.536593	0.083905	0.174918
	N266	N	0.466173	0.085569	0.817081
	N267	N	0.535615	0.912171	0.817240
	N268	N	0.913209	0.179264	0.462920
	N269	N	0.087072	0.178103	0.531959
	N270	N	0.088999	0.817948	0.462411
	N271	N	0.913259	0.818500	0.530455
	N272	N	0.181281	0.464996	0.909424
	N273	N	0.181974	0.532133	0.084806
	N274	N	0.820164	0.464560	0.085100
	N275	N	0.820200	0.532925	0.910228
	O276	O	0.048939	0.766186	0.046755
	H277	H	0.047963	0.765198	0.052913
	H278	H	0.041174	0.762880	0.045179
	O279	O	0.353668	0.349271	0.308929
	H280	H	0.368938	0.357091	0.334408
	H281	H	0.364573	0.343884	0.301533
	O282	O	0.983386	0.230191	0.991245
	H283	H	0.980072	0.224364	0.971753
	H284	H	0.980141	0.223684	0.989323
	O285	O	0.568463	0.453907	0.726185
	H286	H	0.560591	0.426600	0.730860
	H287	H	0.550146	0.459893	0.723241
	O288	O	0.552342	0.721305	0.538545
	H289	H	0.543126	0.721425	0.534467
	H290	H	0.547675	0.722832	0.532974
	O291	O	0.271500	0.432536	0.439171
	H292	H	0.275045	0.413235	0.449702
	H293	H	0.272005	0.423255	0.449157
	O294	O	0.783644	0.221169	0.963313
	H295	H	0.785672	0.205464	0.976020
	H296	H	0.763309	0.244601	0.968583
	O297	O	0.469349	0.720908	0.275840
	H298	H	0.454070	0.730413	0.261781
	H299	H	0.459892	0.729248	0.270762
	O300	O	-0.036735	0.207195	0.785927
	H301	H	-0.043133	0.207941	0.775850
	H302	H	-0.041292	0.212751	0.775051
	O303	O	0.682656	0.678968	0.529416
	H304	H	0.678998	0.675665	0.558523
	H305	H	0.693457	0.697943	0.530677
	O306	O	0.452779	0.478070	0.348235
	H307	H	0.446634	0.476474	0.356340
	H308	H	0.457944	0.468962	0.349503
	O309	O	0.385816	0.714785	0.610934
	H310	H	0.375941	0.714899	0.610989
	H311	H	0.368811	0.723112	0.615323
	O312	O	0.534688	0.715531	0.710086
	H313	H	0.546311	0.725807	0.713044
	H314	H	0.525071	0.720974	0.710532
	O315	O	0.839442	0.871023	1.008862
	H316	H	0.832223	0.901593	1.015866
	H317	H	0.837869	0.858901	0.993578
	O318	O	0.527517	0.515974	0.276533
	H319	H	0.523689	0.520968	0.275807
	H320	H	0.525866	0.518239	0.285253
	O321	O	0.166537	0.907702	0.778385
	H322	H	0.178284	0.910103	0.776497
	H323	H	0.172276	0.920450	0.786880
	O324	O	0.972796	0.780678	0.215744
	H325	H	0.964548	0.758559	0.233597
	H326	H	0.948628	0.781521	0.214486
	O327	O	-0.105126	0.046627	1.016693
	H328	H	-0.099966	0.035319	1.040771
	H329	H	-0.100210	0.037625	1.011300
	O330	O	0.546964	0.522120	0.555521
	H331	H	0.548912	0.509414	0.566235
	H332	H	0.547173	0.516192	0.563449
	O333	O	0.476130	0.277810	0.719393
	H334	H	0.441987	0.281363	0.717046
	H335	H	0.464635	0.258162	0.747415
	O336	O	0.709571	0.291878	0.285752
	H337	H	0.685167	0.315648	0.283356
	H338	H	0.696449	0.307707	0.292582
	O339	O	0.928488	-0.064321	0.773904
	H340	H	0.915117	-0.069837	0.782319
	H341	H	0.937482	-0.071107	0.769027
	O342	O	-0.047090	0.066808	0.148085
	H343	H	-0.075526	0.049787	0.146683
	H344	H	-0.037809	0.051249	0.152394
	O345	O	0.062814	1.060037	0.788666
	H346	H	0.046211	1.049247	0.792573
	H347	H	0.053512	1.056299	0.807437
	O348	O	0.227382	0.229934	0.227286
	H349	H	0.245140	0.227604	0.243108
	H350	H	0.185069	0.227168	0.224580
	O351	O	0.694855	0.688487	0.305087
	H352	H	0.659438	0.670449	0.309707
	H353	H	0.695279	0.669180	0.338802
	O354	O	0.086382	0.017622	0.973535
	H355	H	0.083794	0.028189	0.971785
	H356	H	0.091939	0.014647	0.978145
	O357	O	0.489169	0.471956	0.496977
	H358	H	0.475599	0.473286	0.509829
	H359	H	0.490301	0.459869	0.491084
	O360	O	0.293259	0.289797	0.700587
	H361	H	0.285611	0.342752	0.709128
	H362	H	0.260426	0.261386	0.736222
	O363	O	-0.013984	0.222768	0.034285
	H364	H	-0.021230	0.218439	0.030795
	H365	H	-0.010135	0.227282	0.033761
	O366	O	0.503067	0.495987	0.490214
	H367	H	0.504279	0.500616	0.495236
	H368	H	0.495908	0.499640	0.503214
	O369	O	0.813476	0.179242	0.176776
	H370	H	0.790281	0.199321	0.201147
	H371	H	0.826658	0.166684	0.165799
	O372	O	0.898848	0.771078	-0.014060
	H373	H	0.903069	0.781085	-0.042925
	H374	H	0.875400	0.764019	-0.015684
	O375	O	0.778247	-0.037075	0.221319
	H376	H	0.760783	-0.058766	0.241559
	H377	H	0.770073	-0.065534	0.229140
	O378	O	0.269409	0.547023	0.500479
	H379	H	0.266904	0.551834	0.484937
	H380	H	0.273074	0.549342	0.492942
	O381	O	0.002744	0.773164	0.820481
	H382	H	0.007375	0.765649	0.818723
	H383	H	0.015663	0.771606	0.811260
	O384	O	0.775518	-0.009413	0.835664
	H385	H	0.781912	-0.008070	0.840552
	H386	H	0.753558	-0.015652	0.827432
	O387	O	1.152565	0.892659	-0.132813
	H388	H	1.169553	0.888426	-0.111916
	H389	H	1.147156	0.911813	-0.121808
	O390	O	0.505531	0.419153	0.423797
	H391	H	0.496674	0.437760	0.435406
	H392	H	0.515286	0.400218	0.441755
	O393	O	0.723427	0.454334	0.558230
	H394	H	0.726770	0.418631	0.550830
	H395	H	0.719334	0.454630	0.572837
	O396	O	0.251765	0.769695	0.741930
	H397	H	0.241359	0.782783	0.749807
	H398	H	0.248622	0.774797	0.736714
	O399	O	0.156168	0.146796	0.937714
	H400	H	0.170114	0.165651	0.952224
	H401	H	0.153437	0.136809	0.961513
	O402	O	0.518948	0.331488	0.572290
	H403	H	0.518133	0.321289	0.570966
	H404	H	0.525362	0.320652	0.597479
	O405	O	0.853361	0.070700	0.828043
	H406	H	0.859628	0.059961	0.829611
	H407	H	0.842803	0.061308	0.824321
	O408	O	-0.027026	0.108834	0.103972
	H409	H	-0.021665	0.114836	0.121579
	H410	H	-0.028971	0.101500	0.111637
	O411	O	0.707066	0.702868	0.701769
	H412	H	0.686652	0.698945	0.703860
	H413	H	0.707153	0.665880	0.690998
	O414	O	0.687905	0.317648	0.674873
	H415	H	0.701250	0.290144	0.703552
	H416	H	0.687203	0.315191	0.665776
	O417	O	0.534430	0.295530	0.283885
	H418	H	0.531980	0.301858	0.280734
	H419	H	0.524200	0.281185	0.291244
	O420	O	0.385052	0.398147	0.496782
	H421	H	0.374024	0.378713	0.506672
	H422	H	0.385225	0.398488	0.489610
	O423	O	0.178074	-0.188018	0.964335
	H424	H	0.190771	-0.203387	0.968921
	H425	H	0.164943	-0.181760	0.959810
	O426	O	0.416353	0.556054	0.699424
	H427	H	0.402328	0.566619	0.687206
	H428	H	0.420029	0.567214	0.703591
	O429	O	0.814893	0.809626	0.809485
	H430	H	0.834734	0.812793	0.826936
	H431	H	0.796867	0.788768	0.792084
	O432	O	0.528499	0.708847	0.410173
	H433	H	0.528490	0.705656	0.416569
	H434	H	0.538575	0.700343	0.404735
	O435	O	0.189976	0.808971	0.182686
	H436	H	0.191962	0.819720	0.191593
	H437	H	0.181961	0.801000	0.180645
	O438	O	0.083785	-0.008693	0.218885
	H439	H	0.081759	-0.026304	0.215530
	H440	H	0.079452	-0.016130	0.224556
	O441	O	0.033008	0.213541	0.211669
	H442	H	0.009565	0.202825	0.207152
	H443	H	0.017954	0.227482	0.218236
	O444	O	0.500567	0.380787	0.462081
	H445	H	0.491661	0.370091	0.471593
	H446	H	0.505635	0.387593	0.467092
	O447	O	0.225463	1.018147	0.898094
	H448	H	0.224824	1.027598	0.897719
	H449	H	0.224574	1.021697	0.919409
	O450	O	0.231343	0.899557	1.032629
	H451	H	0.226523	0.885754	1.031659
	H452	H	0.232422	0.891803	1.040219
	O453	O	0.280410	0.456630	0.715391
	H454	H	0.271705	0.478943	0.718473
	H455	H	0.266765	0.472202	0.715884
	O456	O	0.195086	0.194352	0.805746
	H457	H	0.178886	0.177346	0.828452
	H458	H	0.175625	0.174101	0.821742
	O459	O	0.794212	0.789654	0.207676
	H460	H	0.762263	0.754755	0.237691
	H461	H	0.799811	0.778714	0.163162
	O462	O	0.716507	0.465377	0.287666
	H463	H	0.719486	0.476988	0.285116
	H464	H	0.726572	0.476677	0.294769
	O465	O	0.789797	-0.078422	0.049717
	H466	H	0.786825	-0.075716	0.052125
	H467	H	0.783601	-0.077243	0.058561
	O468	O	0.284008	0.717656	0.469152
	H469	H	0.275627	0.728526	0.456994
	H470	H	0.281995	0.721003	0.457767
	O471	O	0.291885	0.273957	0.537184
	H472	H	0.279305	0.266418	0.567341
	H473	H	0.281415	0.257567	0.562479
	O474	O	0.289572	0.709177	0.288970
	H475	H	0.293269	0.679483	0.301778
	H476	H	0.289091	0.701786	0.283777
	O477	O	0.346606	0.527481	1.321672
	H478	H	0.343494	0.508698	1.321233
	H479	H	0.346859	0.519563	1.323247
	O480	O	0.726987	0.280875	0.471198
	H481	H	0.717351	0.276082	0.445462
	H482	H	0.744047	0.255805	0.453704
	O483	O	0.713048	0.537734	0.700937
	H484	H	0.698644	0.523737	0.714962
	H485	H	0.718610	0.516229	0.697580
	O486	O	0.777646	0.218544	0.781262
	H487	H	0.792616	0.197235	0.793133
	H488	H	0.782684	0.205664	0.808413
	O489	O	1.000253	0.946167	0.109978
	H490	H	0.995740	0.942345	0.122454
	H491	H	0.997803	0.940961	0.104075
	O492	O	0.211540	0.016095	0.207829
	H493	H	0.222840	0.018048	0.225506
	H494	H	0.208281	0.017265	0.190044
	O495	O	0.165521	1.082677	1.029208
	H496	H	0.174597	1.084660	1.028596
	H497	H	0.160853	1.084583	1.061220
	O498	O	0.909863	0.951579	0.976090
	H499	H	0.909740	0.961125	0.967029
	H500	H	0.911011	0.953545	0.984851
	O501	O	0.713457	0.576473	0.442876
	H502	H	0.718209	0.567582	0.467281
	H503	H	0.711698	0.580237	0.464018
