data_Molecule from HDF5

_cell_length_a		16.481379
_cell_length_b		16.522281
_cell_length_c		16.560235
_cell_angle_alpha	90.013536
_cell_angle_beta	90.030686
_cell_angle_gamma	90.115009
_symmetry_space_group_name_H-M	'P 1'
_symmetry_Int_Tables_number		1

loop_
	_symmetry_equiv_pos_as_xyz
	x,y,z

loop_
	_atom_site_label
	_atom_site_type_symbol
	_atom_site_fract_x
	_atom_site_fract_y
	_atom_site_fract_z
	H0	H	0.408375	0.873509	0.724133
	H1	H	0.624664	0.184773	0.725402
	H2	H	0.621659	0.873202	0.279926
	H3	H	0.413023	0.187168	0.280282
	H4	H	0.735844	0.426729	0.843057
	H5	H	0.738561	0.635407	0.157399
	H6	H	0.295826	0.631771	0.843835
	H7	H	0.295390	0.425103	0.158196
	H8	H	0.859188	0.748405	0.398057
	H9	H	0.174081	0.751178	0.607497
	H10	H	0.858875	0.308397	0.606006
	H11	H	0.175158	0.310587	0.399181
	H12	H	0.859009	0.424285	0.722542
	H13	H	0.173779	0.634598	0.723416
	H14	H	0.859549	0.633251	0.280667
	H15	H	0.173182	0.423593	0.279138
	H16	H	0.411258	0.749978	0.844399
	H17	H	0.621946	0.751805	0.156704
	H18	H	0.619789	0.309103	0.843004
	H19	H	0.411190	0.308479	0.158375
	H20	H	0.735997	0.872084	0.398252
	H21	H	0.740523	0.185185	0.608037
	H22	H	0.293591	0.873424	0.606040
	H23	H	0.296287	0.187130	0.396924
	H24	H	0.910045	0.371810	0.222593
	H25	H	0.123040	0.685018	0.224259
	H26	H	0.121902	0.373305	0.778543
	H27	H	0.910234	0.686540	0.779550
	H28	H	0.237141	0.925316	0.343051
	H29	H	0.239869	0.135423	0.657063
	H30	H	0.793332	0.135820	0.345574
	H31	H	0.794645	0.923269	0.658280
	H32	H	0.357425	0.247680	0.896770
	H33	H	0.673495	0.252192	0.106443
	H34	H	0.358352	0.807907	0.106732
	H35	H	0.672837	0.806999	0.895295
	H36	H	0.358508	0.924858	0.221695
	H37	H	0.673921	0.136324	0.222879
	H38	H	0.359293	0.134187	0.778657
	H39	H	0.671776	0.921923	0.777315
	H40	H	0.911755	0.250924	0.345206
	H41	H	0.123787	0.251974	0.657644
	H42	H	0.122702	0.806740	0.344497
	H43	H	0.910597	0.806713	0.657951
	H44	H	0.235831	0.371709	0.896451
	H45	H	0.237332	0.686264	0.105774
	H46	H	0.793723	0.372236	0.105339
	H47	H	0.794912	0.686927	0.896727
	H48	H	0.430185	0.139564	0.586017
	H49	H	0.605362	0.917182	0.589232
	H50	H	0.607425	0.141529	0.416680
	H51	H	0.422179	0.916740	0.415641
	H52	H	0.602348	0.435586	0.113155
	H53	H	0.605488	0.621456	0.887362
	H54	H	0.424115	0.615215	0.113087
	H55	H	0.429347	0.437506	0.888923
	H56	H	0.126689	0.611926	0.414081
	H57	H	0.901167	0.619171	0.598535
	H58	H	0.124472	0.446579	0.584042
	H59	H	0.903382	0.438180	0.412052
	H60	H	0.131256	0.444967	0.599629
	H61	H	0.903899	0.624931	0.584588
	H62	H	0.131476	0.618156	0.407307
	H63	H	0.904429	0.440430	0.412768
	H64	H	0.431192	0.617355	0.111695
	H65	H	0.607537	0.615433	0.889549
	H66	H	0.608888	0.441425	0.113962
	H67	H	0.422991	0.435689	0.886393
	H68	H	0.607553	0.144436	0.409226
	H69	H	0.603014	0.917955	0.590119
	H70	H	0.426705	0.142214	0.589075
	H71	H	0.425512	0.914304	0.404678
	H72	H	0.925102	0.641406	0.088891
	H73	H	0.103148	0.417232	0.089598
	H74	H	0.102106	0.642233	0.905522
	H75	H	0.934080	0.420022	0.913301
	H76	H	0.100987	0.939948	0.610778
	H77	H	0.101656	0.122183	0.389293
	H78	H	0.931677	0.115869	0.611459
	H79	H	0.925442	0.940541	0.389004
	H80	H	0.629173	0.120951	0.913259
	H81	H	0.406213	0.113206	0.089956
	H82	H	0.626072	0.947485	0.091103
	H83	H	0.401682	0.940723	0.908359
	H84	H	0.631875	0.937008	0.094378
	H85	H	0.401297	0.119539	0.096770
	H86	H	0.626901	0.115486	0.914635
	H87	H	0.403593	0.937380	0.914323
	H88	H	0.929545	0.122558	0.614305
	H89	H	0.108873	0.120023	0.387997
	H90	H	0.107028	0.938028	0.614153
	H91	H	0.928748	0.940154	0.390131
	H92	H	0.100302	0.638643	0.917713
	H93	H	0.105902	0.416549	0.089160
	H94	H	0.929438	0.642277	0.093874
	H95	H	0.922507	0.417938	0.917400
	H96	H	0.431605	0.141210	0.591271
	H97	H	0.603686	0.918477	0.587557
	H98	H	0.601066	0.140494	0.411972
	H99	H	0.433017	0.919277	0.412048
	H100	H	0.601324	0.444006	0.110235
	H101	H	0.601029	0.617534	0.890228
	H102	H	0.426056	0.622107	0.114716
	H103	H	0.424323	0.441991	0.888739
	H104	H	0.130063	0.621207	0.417110
	H105	H	0.907394	0.610708	0.587726
	H106	H	0.131762	0.431774	0.588786
	H107	H	0.903226	0.440636	0.410700
	H108	H	0.931020	0.638441	0.088702
	H109	H	0.104574	0.416162	0.092098
	H110	H	0.111766	0.643802	0.914062
	H111	H	0.925088	0.414159	0.906022
	H112	H	0.106966	0.944934	0.611698
	H113	H	0.103324	0.115030	0.390706
	H114	H	0.924006	0.116750	0.613701
	H115	H	0.927052	0.937344	0.388693
	H116	H	0.629321	0.116867	0.909584
	H117	H	0.403125	0.122804	0.086592
	H118	H	0.627041	0.938267	0.083304
	H119	H	0.405364	0.943971	0.913752
	C120	C	0.395554	0.037932	0.621508
	C121	C	0.638063	1.020773	0.622621
	C122	C	0.637641	0.038304	0.380431
	C123	C	0.395523	1.021208	0.379234
	C124	C	0.636517	0.408609	0.008578
	C125	C	0.638058	0.651376	0.992085
	C126	C	0.395144	0.649702	0.009077
	C127	C	0.393860	0.406862	0.992088
	C128	C	0.025234	0.649327	0.380905
	C129	C	1.008345	0.650432	0.622691
	C130	C	0.024952	0.408839	0.622763
	C131	C	1.007950	0.407750	0.380094
	C132	C	0.894954	0.537172	0.122507
	C133	C	0.137331	0.520304	0.122742
	C134	C	0.136964	0.537889	0.880243
	C135	C	0.895044	0.521301	0.880271
	C136	C	0.137808	0.908299	0.508895
	C137	C	0.137765	0.151184	0.492767
	C138	C	0.895460	0.150621	0.509792
	C139	C	0.895080	0.907369	0.493253
	C140	C	0.524639	0.149824	0.879801
	C141	C	0.507777	0.151176	0.122861
	C142	C	0.524326	0.908319	0.122264
	C143	C	0.507331	0.907745	0.879368
	C144	C	0.391157	0.920294	0.683090
	C145	C	0.642191	0.138122	0.684468
	C146	C	0.639866	0.920035	0.320252
	C147	C	0.394058	0.139977	0.320080
	C148	C	0.696253	0.407366	0.890310
	C149	C	0.698089	0.653593	0.110318
	C150	C	0.335476	0.651007	0.890928
	C151	C	0.334848	0.405905	0.110782
	C152	C	0.906483	0.708560	0.379342
	C153	C	0.126997	0.710702	0.625090
	C154	C	0.906218	0.348532	0.624453
	C155	C	0.127361	0.349419	0.379387
	C156	C	0.906346	0.406154	0.682455
	C157	C	0.126706	0.652975	0.683017
	C158	C	0.906622	0.651485	0.320843
	C159	C	0.126357	0.405522	0.319959
	C160	C	0.393176	0.709206	0.890934
	C161	C	0.640248	0.711518	0.109929
	C162	C	0.638458	0.349107	0.890276
	C163	C	0.392653	0.347798	0.110663
	C164	C	0.696699	0.919559	0.378916
	C165	C	0.699767	0.138348	0.626150
	C166	C	0.334039	0.920094	0.624445
	C167	C	0.336488	0.140168	0.378187
	C168	C	0.891768	0.418997	0.182621
	C169	C	0.140632	0.638211	0.183554
	C170	C	0.139604	0.419908	0.819175
	C171	C	0.892314	0.639468	0.819783
	C172	C	0.197675	0.906371	0.390509
	C173	C	0.199337	0.153847	0.610207
	C174	C	0.834218	0.153573	0.392375
	C175	C	0.834739	0.905105	0.611092
	C176	C	0.405493	0.208980	0.877845
	C177	C	0.626315	0.211662	0.124625
	C178	C	0.405746	0.848439	0.124429
	C179	C	0.625440	0.847174	0.876938
	C180	C	0.405908	0.906224	0.182163
	C181	C	0.626738	0.153586	0.182203
	C182	C	0.406251	0.152156	0.819227
	C183	C	0.625023	0.904209	0.818230
	C184	C	0.892784	0.211017	0.392151
	C185	C	0.141291	0.211513	0.610717
	C186	C	0.140555	0.847469	0.391275
	C187	C	0.892575	0.847203	0.611051
	C188	C	0.196266	0.419272	0.877816
	C189	C	0.197797	0.638654	0.124902
	C190	C	0.834084	0.419236	0.124268
	C191	C	0.834829	0.639609	0.877866
	C192	C	0.421934	0.119772	0.596136
	C193	C	0.611510	0.939140	0.596475
	C194	C	0.612622	0.120639	0.405431
	C195	C	0.419820	0.938440	0.403606
	C196	C	0.611586	0.433262	0.090864
	C197	C	0.612343	0.625397	0.910245
	C198	C	0.420076	0.625237	0.091617
	C199	C	0.418347	0.431409	0.909400
	C200	C	0.107928	0.624368	0.405719
	C201	C	0.925667	0.625385	0.597560
	C202	C	0.107604	0.433924	0.597999
	C203	C	0.925144	0.432505	0.404908
	C204	C	0.921037	0.619445	0.097561
	C205	C	0.111887	0.438013	0.097535
	C206	C	0.112035	0.620181	0.905443
	C207	C	0.920085	0.439001	0.905237
	C208	C	0.112298	0.933932	0.590839
	C209	C	0.111884	0.126164	0.410839
	C210	C	0.920961	0.125461	0.591917
	C211	C	0.920033	0.932311	0.410815
	C212	C	0.606869	0.124874	0.905285
	C213	C	0.425026	0.125758	0.098198
	C214	C	0.606786	0.933646	0.096877
	C215	C	0.425024	0.933222	0.904808
	Zn216	Zn	0.516198	0.029238	0.750806
	Zn217	Zn	0.516707	0.029232	0.250963
	Zn218	Zn	0.766242	0.529803	0.001039
	Zn219	Zn	0.265446	0.528964	0.000829
	Zn220	Zn	0.016829	0.779015	0.501535
	Zn221	Zn	0.016864	0.280053	0.501737
	Zn222	Zn	0.016099	0.529669	0.751655
	Zn223	Zn	0.016040	0.528906	0.251630
	Zn224	Zn	0.515594	0.779419	0.001156
	Zn225	Zn	0.515981	0.278635	0.000605
	Zn226	Zn	0.766579	0.028830	0.501552
	Zn227	Zn	0.266765	0.030084	0.500460
	N228	N	0.428855	0.994545	0.681357
	N229	N	0.604714	0.063906	0.682513
	N230	N	0.603932	0.995013	0.320919
	N231	N	0.429963	0.065067	0.320595
	N232	N	0.695287	0.443595	0.965028
	N233	N	0.696749	0.617072	0.035961
	N234	N	0.336590	0.614740	0.965426
	N235	N	0.335034	0.441475	0.035846
	N236	N	0.981301	0.707665	0.415679
	N237	N	0.052222	0.709225	0.588411
	N238	N	0.981079	0.349913	0.588228
	N239	N	0.052580	0.350610	0.415899
	N240	N	0.981177	0.442910	0.681550
	N241	N	0.051965	0.616305	0.681638
	N242	N	0.981477	0.615210	0.321726
	N243	N	0.051102	0.441000	0.320213
	N244	N	0.429370	0.708656	0.965555
	N245	N	0.603715	0.710449	0.035263
	N246	N	0.602343	0.349543	0.964941
	N247	N	0.428254	0.348085	0.035742
	N248	N	0.695751	0.994099	0.415418
	N249	N	0.697294	0.064316	0.588591
	N250	N	0.336920	0.993867	0.586605
	N251	N	0.337069	0.065140	0.414036
	N252	N	0.928845	0.493546	0.181850
	N253	N	0.103934	0.563476	0.182753
	N254	N	0.103409	0.494777	0.820281
	N255	N	0.929202	0.564855	0.821119
	N256	N	0.196277	0.943358	0.464844
	N257	N	0.197177	0.116912	0.535946
	N258	N	0.835661	0.116713	0.466759
	N259	N	0.836258	0.941973	0.536707
	N260	N	0.480052	0.207554	0.914946
	N261	N	0.551274	0.210392	0.088607
	N262	N	0.480557	0.849581	0.087842
	N263	N	0.551231	0.849426	0.914301
	N264	N	0.480715	0.942727	0.181046
	N265	N	0.551858	0.116756	0.181406
	N266	N	0.481366	0.116377	0.819980
	N267	N	0.550528	0.941191	0.819605
	N268	N	0.929784	0.209460	0.466265
	N269	N	0.103648	0.210032	0.536818
	N270	N	0.104243	0.848492	0.465822
	N271	N	0.929194	0.848425	0.536682
	N272	N	0.194645	0.493374	0.915042
	N273	N	0.195913	0.564316	0.087931
	N274	N	0.835887	0.493748	0.087782
	N275	N	0.836333	0.565148	0.914648
	O276	O	0.697453	0.591646	0.408155
	H277	H	0.700629	0.596265	0.413178
	H278	H	0.694702	0.579663	0.398362
	O279	O	-0.026939	-0.142686	0.872378
	H280	H	-0.021585	-0.126281	0.877645
	H281	H	-0.013815	-0.154509	0.844514
	O282	O	0.352494	0.368910	0.358095
	H283	H	0.352237	0.383334	0.379880
	H284	H	0.368719	0.372806	0.372689
	O285	O	0.489831	0.310297	0.717284
	H286	H	0.478944	0.291515	0.725354
	H287	H	0.473929	0.297976	0.710958
	O288	O	0.824420	-0.150598	0.991531
	H289	H	0.829601	-0.154834	0.991447
	H290	H	0.817181	-0.148191	0.984148
	O291	O	-0.141609	0.910299	-0.057857
	H292	H	-0.148294	0.911332	-0.063122
	H293	H	-0.139867	0.909410	-0.058190
	O294	O	0.117638	0.064325	-0.073540
	H295	H	0.124726	0.071578	-0.077252
	H296	H	0.130180	0.049970	-0.080882
	O297	O	0.800783	0.002365	1.219245
	H298	H	0.794006	0.002336	1.235334
	H299	H	0.802920	0.004835	1.220781
	O300	O	-0.104893	0.099106	0.162822
	H301	H	-0.092394	0.090850	0.161142
	H302	H	-0.104808	0.096544	0.153878
	O303	O	-0.109270	0.102186	0.134745
	H304	H	-0.108849	0.102575	0.135050
	H305	H	-0.093870	0.104593	0.137686
	O306	O	1.050408	0.245215	0.218169
	H307	H	1.030916	0.251298	0.208423
	H308	H	1.031737	0.266623	0.216228
	O309	O	0.497460	0.312382	0.399756
	H310	H	0.513491	0.312365	0.401688
	H311	H	0.494169	0.302624	0.387192
	O312	O	0.705889	0.513652	0.286918
	H313	H	0.709430	0.515802	0.269500
	H314	H	0.703991	0.501392	0.280382
	O315	O	0.690855	0.380898	0.643190
	H316	H	0.687689	0.398964	0.615294
	H317	H	0.663600	0.379479	0.631251
	O318	O	0.298337	0.746524	-0.529223
	H319	H	0.296235	0.759201	-0.533614
	H320	H	0.293705	0.764932	-0.538481
	O321	O	0.510447	0.450154	0.518238
	H322	H	0.499374	0.460458	0.513146
	H323	H	0.514202	0.449053	0.516408
	O324	O	1.430324	-0.375567	0.711574
	H325	H	1.447313	-0.367130	0.713387
	H326	H	1.439686	-0.378573	0.705469
	O327	O	0.590544	0.719492	0.413720
	H328	H	0.587680	0.709928	0.427337
	H329	H	0.616622	0.735595	0.403486
	O330	O	0.229768	0.812903	-0.031592
	H331	H	0.250437	0.806542	-0.034498
	H332	H	0.220292	0.808548	-0.029624
	O333	O	0.215124	0.232009	0.804430
	H334	H	0.190295	0.226245	0.818285
	H335	H	0.214584	0.206741	0.807120
	O336	O	0.593646	0.530246	0.697342
	H337	H	0.595846	0.519043	0.691582
	H338	H	0.589179	0.516134	0.706047
	O339	O	0.615091	0.442595	0.671760
	H340	H	0.597963	0.431399	0.669176
	H341	H	0.597249	0.427580	0.666308
	O342	O	-0.015109	1.240717	-0.215837
	H343	H	-0.005023	1.251849	-0.223690
	H344	H	-0.017576	1.248061	-0.216806
	O345	O	1.073610	1.249112	-0.050812
	H346	H	1.082662	1.247172	-0.056620
	H347	H	1.087274	1.234933	-0.042055
	O348	O	0.662028	0.511346	0.506259
	H349	H	0.674063	0.514230	0.506879
	H350	H	0.657684	0.512905	0.486827
	O351	O	0.027770	-0.189456	0.786405
	H352	H	0.039818	-0.180240	0.774767
	H353	H	0.037682	-0.203451	0.768367
	O354	O	0.797841	-0.092027	1.072711
	H355	H	0.790328	-0.070958	1.083591
	H356	H	0.791442	-0.098044	1.078261
	O357	O	0.524249	0.651583	0.282776
	H358	H	0.518057	0.655118	0.282791
	H359	H	0.523528	0.657759	0.290018
	O360	O	0.002774	-0.067629	1.157501
	H361	H	0.002088	-0.083012	1.167388
	H362	H	0.014558	-0.068154	1.159898
	O363	O	0.307598	0.504664	0.709875
	H364	H	0.296821	0.499968	0.712186
	H365	H	0.313292	0.507959	0.721984
	O366	O	1.364470	0.392535	0.511828
	H367	H	1.368200	0.402829	0.520550
	H368	H	1.353656	0.386636	0.511066
	O369	O	-0.403846	-0.371926	0.544914
	H370	H	-0.419599	-0.389396	0.552250
	H371	H	-0.400241	-0.369296	0.548722
	O372	O	0.164872	0.830747	1.145766
	H373	H	0.151485	0.847140	1.130578
	H374	H	0.151450	0.835319	1.128623
	O375	O	1.238253	0.072239	-0.023481
	H376	H	1.237796	0.090018	-0.024812
	H377	H	1.245007	0.077086	-0.006474
	O378	O	0.516867	0.334679	0.305976
	H379	H	0.523520	0.330879	0.288531
	H380	H	0.514967	0.336734	0.298773
	O381	O	-0.257043	0.755877	-0.270764
	H382	H	-0.240329	0.743300	-0.266523
	H383	H	-0.245072	0.751989	-0.280233
	O384	O	0.307696	0.553958	0.286035
	H385	H	0.301217	0.554522	0.295492
	H386	H	0.294570	0.561803	0.269195
	O387	O	0.319722	0.725222	0.305372
	H388	H	0.300978	0.731530	0.311885
	H389	H	0.340121	0.716254	0.294568
	O390	O	0.238071	1.249819	1.038117
	H391	H	0.253308	1.271049	1.053464
	H392	H	0.245738	1.259436	1.068601
	O393	O	0.815531	0.227151	-0.197970
	H394	H	0.828113	0.210532	-0.189565
	H395	H	0.816043	0.253487	-0.222217
	O396	O	0.005107	0.068516	0.118725
	H397	H	0.004586	0.074445	0.110168
	H398	H	-0.001051	0.058915	0.107029
	O399	O	0.214352	0.879975	0.801902
	H400	H	0.228039	0.865100	0.801463
	H401	H	0.202618	0.874428	0.818236
	O402	O	1.207373	-0.022833	0.874364
	H403	H	1.218381	-0.041688	0.869379
	H404	H	1.209715	-0.037284	0.873520
	O405	O	0.593558	0.661605	0.599436
	H406	H	0.604395	0.656365	0.614629
	H407	H	0.598189	0.654557	0.586529
	O408	O	0.980285	1.066509	0.950461
	H409	H	0.973470	1.053283	0.960594
	H410	H	0.981341	1.061301	0.941948
	O411	O	0.759777	0.285781	0.261174
	H412	H	0.760531	0.266883	0.252533
	H413	H	0.766512	0.304177	0.245328
	O414	O	-0.013105	-0.172085	0.195469
	H415	H	-0.014653	-0.181470	0.192904
	H416	H	-0.021203	-0.181317	0.198960
	O417	O	0.706930	0.332252	0.470803
	H418	H	0.731776	0.305876	0.462961
	H419	H	0.691468	0.337957	0.465296
	O420	O	1.182643	0.051577	1.173302
	H421	H	1.180212	0.055737	1.180135
	H422	H	1.194781	0.069488	1.191321
	O423	O	1.215730	1.228313	0.202901
	H424	H	1.236505	1.236028	0.221673
	H425	H	1.161620	1.236733	0.212958
	O426	O	0.278234	0.681509	0.645427
	H427	H	0.290926	0.671538	0.626758
	H428	H	0.277033	0.698562	0.640020
	O429	O	0.614977	0.407175	0.287214
	H430	H	0.620495	0.399106	0.273324
	H431	H	0.618145	0.413736	0.305277
	O432	O	1.028249	0.068394	0.949363
	H433	H	1.013597	0.064527	0.958028
	H434	H	1.035971	0.061035	0.948580
	O435	O	0.413490	0.499620	0.351617
	H436	H	0.413127	0.508187	0.348723
	H437	H	0.416359	0.515068	0.362346
	O438	O	0.329418	0.340265	0.657409
	H439	H	0.347944	0.350992	0.646762
	H440	H	0.304061	0.335158	0.675118
	O441	O	0.610322	0.400800	0.581203
	H442	H	0.609541	0.407889	0.567094
	H443	H	0.622754	0.391285	0.573214
	O444	O	0.944376	0.010310	-0.167037
	H445	H	0.926745	0.018725	-0.150442
	H446	H	0.948761	0.028459	-0.168504
	O447	O	0.995342	-0.057636	1.031233
	H448	H	0.991848	-0.060878	1.016631
	H449	H	0.984724	-0.052304	1.039672
	O450	O	0.473568	0.747202	0.393437
	H451	H	0.470216	0.737530	0.405105
	H452	H	0.469426	0.766921	0.376442
	O453	O	0.719220	0.740673	0.525632
	H454	H	0.720651	0.727600	0.526118
	H455	H	0.728359	0.757046	0.534581
	O456	O	0.153082	0.903211	1.051348
	H457	H	0.149400	0.911585	1.048791
	H458	H	0.157113	0.918596	1.053769
	O459	O	0.539532	0.744997	0.715963
	H460	H	0.561590	0.749118	0.726167
	H461	H	0.565077	0.755137	0.729131
	O462	O	0.325678	0.489495	0.507530
	H463	H	0.318808	0.503400	0.514375
	H464	H	0.324214	0.492319	0.529202
	O465	O	0.798670	0.052964	0.781936
	H466	H	0.790153	0.061099	0.778078
	H467	H	0.789857	0.067286	0.763680
	O468	O	-1.229784	-0.219654	0.252159
	H469	H	-1.233161	-0.221078	0.235051
	H470	H	-1.218694	-0.220328	0.257420
	O471	O	-0.201807	0.251831	0.968601
	H472	H	-0.206863	0.253370	0.945803
	H473	H	-0.220744	0.256510	0.958677
	O474	O	1.055750	1.208918	-0.001785
	H475	H	1.054916	1.190882	-0.014674
	H476	H	1.048153	1.214207	-0.007073
	O477	O	0.478008	0.672903	0.553584
	H478	H	0.481954	0.673506	0.546470
	H479	H	0.493527	0.671392	0.560497
