data_Molecule from HDF5

_cell_length_a		16.275450
_cell_length_b		16.210364
_cell_length_c		16.248749
_cell_angle_alpha	89.934146
_cell_angle_beta	89.984908
_cell_angle_gamma	90.049951
_symmetry_space_group_name_H-M	'P 1'
_symmetry_Int_Tables_number		1

loop_
	_symmetry_equiv_pos_as_xyz
	x,y,z

loop_
	_atom_site_label
	_atom_site_type_symbol
	_atom_site_fract_x
	_atom_site_fract_y
	_atom_site_fract_z
	H0	H	0.401682	0.835821	0.713448
	H1	H	0.597116	0.164840	0.711886
	H2	H	0.596144	0.834878	0.287366
	H3	H	0.401929	0.164621	0.287769
	H4	H	0.714784	0.402515	0.835883
	H5	H	0.715624	0.599455	0.163384
	H6	H	0.286064	0.598775	0.835360
	H7	H	0.285674	0.401107	0.164285
	H8	H	0.835326	0.712398	0.402946
	H9	H	0.163659	0.714081	0.597195
	H10	H	0.835603	0.286508	0.597267
	H11	H	0.163717	0.286263	0.402275
	H12	H	0.835978	0.402096	0.713931
	H13	H	0.164453	0.597005	0.712389
	H14	H	0.836681	0.597738	0.285646
	H15	H	0.163416	0.402214	0.286056
	H16	H	0.403266	0.714077	0.835148
	H17	H	0.596680	0.712535	0.164651
	H18	H	0.598106	0.286618	0.835587
	H19	H	0.403899	0.287364	0.164764
	H20	H	0.712815	0.834465	0.402898
	H21	H	0.713977	0.163995	0.597479
	H22	H	0.286274	0.835069	0.597559
	H23	H	0.286567	0.164331	0.402858
	H24	H	0.902519	0.335631	0.213143
	H25	H	0.097763	0.664550	0.213009
	H26	H	0.097094	0.334802	0.787108
	H27	H	0.903381	0.664434	0.786413
	H28	H	0.213894	0.901481	0.336225
	H29	H	0.214211	0.098550	0.663944
	H30	H	0.786137	0.097426	0.336118
	H31	H	0.787287	0.902386	0.665375
	H32	H	0.336229	0.214947	0.902171
	H33	H	0.664476	0.213090	0.097935
	H34	H	0.335237	0.785129	0.098321
	H35	H	0.664762	0.788104	0.904134
	H36	H	0.334762	0.902632	0.213308
	H37	H	0.663082	0.097685	0.214915
	H38	H	0.335947	0.098639	0.785826
	H39	H	0.664181	0.902671	0.786493
	H40	H	0.903597	0.212202	0.335759
	H41	H	0.096360	0.212355	0.664724
	H42	H	0.096511	0.786838	0.335641
	H43	H	0.902551	0.785962	0.664415
	H44	H	0.213492	0.335415	0.902977
	H45	H	0.213829	0.664468	0.098101
	H46	H	0.787012	0.335654	0.097820
	H47	H	0.786935	0.664493	0.900677
	H48	H	0.409416	0.116163	0.590721
	H49	H	0.592005	0.885502	0.582377
	H50	H	0.594745	0.116666	0.409992
	H51	H	0.406455	0.882592	0.408469
	H52	H	0.601241	0.409377	0.117883
	H53	H	0.598633	0.599288	0.879642
	H54	H	0.419758	0.599533	0.114706
	H55	H	0.412659	0.405072	0.884785
	H56	H	0.116120	0.595563	0.413465
	H57	H	0.884292	0.589747	0.594861
	H58	H	0.118823	0.413247	0.608505
	H59	H	0.880866	0.409293	0.396415
	H60	H	0.120738	0.390810	0.591605
	H61	H	0.881512	0.595669	0.596383
	H62	H	0.115642	0.586869	0.404096
	H63	H	0.880449	0.396985	0.409285
	H64	H	0.395278	0.600119	0.121766
	H65	H	0.596329	0.586956	0.883306
	H66	H	0.589459	0.411285	0.114942
	H67	H	0.401591	0.403837	0.880024
	H68	H	0.595682	0.117877	0.404583
	H69	H	0.605571	0.877599	0.597865
	H70	H	0.403289	0.117887	0.591587
	H71	H	0.405683	0.882457	0.405966
	H72	H	0.914272	0.615394	0.092044
	H73	H	0.092877	0.382370	0.094856
	H74	H	0.098797	0.619015	0.906010
	H75	H	0.903058	0.382988	0.910940
	H76	H	0.095932	0.904201	0.618958
	H77	H	0.089898	0.083324	0.386837
	H78	H	0.903333	0.094241	0.619072
	H79	H	0.904930	0.908740	0.383590
	H80	H	0.617993	0.098915	0.907251
	H81	H	0.378665	0.102723	0.099433
	H82	H	0.615113	0.913110	0.096159
	H83	H	0.380189	0.901615	0.901110
	H84	H	0.618691	0.901877	0.098755
	H85	H	0.385615	0.094636	0.082413
	H86	H	0.615204	0.090098	0.909375
	H87	H	0.384346	0.904361	0.913728
	H88	H	0.905704	0.090519	0.617271
	H89	H	0.087369	0.102939	0.381890
	H90	H	0.094504	0.910958	0.616373
	H91	H	0.907118	0.905456	0.383115
	H92	H	0.092689	0.618264	0.900466
	H93	H	0.093089	0.383193	0.091427
	H94	H	0.902223	0.617434	0.087404
	H95	H	0.905731	0.380185	0.901983
	H96	H	0.407428	0.117760	0.596826
	H97	H	0.584782	0.882520	0.602772
	H98	H	0.590813	0.116512	0.406178
	H99	H	0.406981	0.882234	0.406355
	H100	H	0.592899	0.400503	0.118698
	H101	H	0.587099	0.595563	0.884251
	H102	H	0.404962	0.578734	0.113248
	H103	H	0.405416	0.413872	0.884779
	H104	H	0.120081	0.598826	0.402093
	H105	H	0.883246	0.594157	0.590032
	H106	H	0.111003	0.415476	0.581899
	H107	H	0.886330	0.412830	0.412811
	H108	H	0.905374	0.619922	0.099654
	H109	H	0.095443	0.381690	0.093073
	H110	H	0.092103	0.615660	0.908638
	H111	H	0.912505	0.384208	0.907595
	H112	H	0.088812	0.905737	0.616254
	H113	H	0.104869	0.094179	0.379249
	H114	H	0.907550	0.095321	0.617923
	H115	H	0.903148	0.904262	0.381866
	H116	H	0.617719	0.092225	0.900707
	H117	H	0.384036	0.083745	0.098287
	H118	H	0.614619	0.904586	0.088072
	H119	H	0.384544	0.914435	0.903903
	C120	C	0.378223	0.008468	0.621445
	C121	C	0.621607	0.991231	0.621910
	C122	C	0.621328	0.007844	0.378933
	C123	C	0.378170	0.991377	0.378834
	C124	C	0.622388	0.378902	0.008385
	C125	C	0.622200	0.622022	0.991252
	C126	C	0.378663	0.621469	0.007910
	C127	C	0.378399	0.378779	0.991981
	C128	C	0.008626	0.621558	0.378518
	C129	C	0.991364	0.621456	0.621442
	C130	C	0.008393	0.378224	0.622033
	C131	C	0.991144	0.378231	0.378334
	C132	C	0.878995	0.508806	0.120989
	C133	C	0.121946	0.491246	0.121308
	C134	C	0.122093	0.508585	0.877568
	C135	C	0.879344	0.491397	0.878434
	C136	C	0.121162	0.878649	0.508549
	C137	C	0.121292	0.121260	0.491590
	C138	C	0.878181	0.121060	0.509042
	C139	C	0.877613	0.877982	0.491618
	C140	C	0.508377	0.122163	0.877845
	C141	C	0.491429	0.121675	0.121621
	C142	C	0.507624	0.878227	0.122088
	C143	C	0.491787	0.879116	0.878484
	C144	C	0.380992	0.884619	0.675991
	C145	C	0.617789	0.115486	0.675175
	C146	C	0.617372	0.883897	0.325018
	C147	C	0.381399	0.115520	0.324833
	C148	C	0.676759	0.381852	0.884621
	C149	C	0.676815	0.619020	0.114678
	C150	C	0.324040	0.619177	0.884381
	C151	C	0.323796	0.381158	0.115398
	C152	C	0.884598	0.675056	0.382080
	C153	C	0.115007	0.675972	0.617951
	C154	C	0.884742	0.324048	0.618579
	C155	C	0.114901	0.323884	0.381620
	C156	C	0.884847	0.381418	0.676411
	C157	C	0.115346	0.617863	0.675019
	C158	C	0.885031	0.618152	0.323903
	C159	C	0.114766	0.381515	0.324027
	C160	C	0.382366	0.676234	0.884088
	C161	C	0.618335	0.675812	0.115406
	C162	C	0.618815	0.324480	0.884678
	C163	C	0.382122	0.324212	0.115514
	C164	C	0.675231	0.883724	0.382390
	C165	C	0.675911	0.115117	0.618479
	C166	C	0.324001	0.884317	0.618276
	C167	C	0.324065	0.115370	0.381918
	C168	C	0.882034	0.384635	0.175341
	C169	C	0.118806	0.615412	0.175833
	C170	C	0.118346	0.384243	0.824107
	C171	C	0.882820	0.615478	0.823751
	C172	C	0.176131	0.880943	0.385080
	C173	C	0.175864	0.118415	0.615167
	C174	C	0.824201	0.117661	0.385089
	C175	C	0.823942	0.880959	0.615792
	C176	C	0.385109	0.177190	0.880886
	C177	C	0.615265	0.175631	0.118298
	C178	C	0.383879	0.823577	0.118805
	C179	C	0.615698	0.825284	0.882569
	C180	C	0.383785	0.881598	0.176121
	C181	C	0.614663	0.118618	0.176763
	C182	C	0.384833	0.119280	0.823586
	C183	C	0.615262	0.882189	0.824182
	C184	C	0.882169	0.175129	0.384844
	C185	C	0.117517	0.175163	0.615554
	C186	C	0.117716	0.824302	0.384737
	C187	C	0.881475	0.823513	0.615565
	C188	C	0.175752	0.384383	0.881830
	C189	C	0.176056	0.615465	0.118417
	C190	C	0.824496	0.384813	0.118169
	C191	C	0.824968	0.615285	0.880566
	C192	C	0.400089	0.095031	0.599528
	C193	C	0.600368	0.904173	0.600609
	C194	C	0.599962	0.094586	0.400505
	C195	C	0.399830	0.904698	0.400546
	C196	C	0.600912	0.400575	0.094848
	C197	C	0.600367	0.600309	0.904896
	C198	C	0.400311	0.599517	0.094274
	C199	C	0.400159	0.401021	0.905417
	C200	C	0.094841	0.600090	0.400078
	C201	C	0.905302	0.599576	0.600024
	C202	C	0.094746	0.399912	0.600250
	C203	C	0.904769	0.399859	0.399662
	C204	C	0.900825	0.595212	0.099510
	C205	C	0.100140	0.404808	0.099698
	C206	C	0.100950	0.595330	0.898683
	C207	C	0.900678	0.404801	0.900349
	C208	C	0.099591	0.900543	0.594971
	C209	C	0.100093	0.099942	0.404993
	C210	C	0.899263	0.099750	0.595613
	C211	C	0.898808	0.899696	0.405215
	C212	C	0.594601	0.100316	0.899389
	C213	C	0.405098	0.100129	0.099688
	C214	C	0.593767	0.899935	0.100758
	C215	C	0.405471	0.900297	0.899980
	Zn216	Zn	0.499794	0.000464	0.749558
	Zn217	Zn	0.498997	-0.000014	0.250285
	Zn218	Zn	0.750993	0.500283	-0.000152
	Zn219	Zn	0.249790	0.500070	-0.000083
	Zn220	Zn	-0.000302	0.750177	0.499832
	Zn221	Zn	-0.000190	0.250043	0.499989
	Zn222	Zn	0.000212	0.499864	0.750007
	Zn223	Zn	0.000246	0.500009	0.249533
	Zn224	Zn	0.500080	0.750205	0.000014
	Zn225	Zn	0.500453	0.250520	0.000148
	Zn226	Zn	0.749547	-0.000736	0.500406
	Zn227	Zn	0.250077	-0.000225	0.500101
	N228	N	0.414156	0.962656	0.677891
	N229	N	0.584461	0.037407	0.676988
	N230	N	0.584556	0.962125	0.322749
	N231	N	0.414479	0.037403	0.322856
	N232	N	0.679015	0.414867	0.962550
	N233	N	0.679476	0.586585	0.036450
	N234	N	0.321785	0.585685	0.962174
	N235	N	0.321329	0.414187	0.037336
	N236	N	0.962325	0.677261	0.415167
	N237	N	0.037070	0.678194	0.585269
	N238	N	0.962587	0.321957	0.585511
	N239	N	0.037031	0.321857	0.414637
	N240	N	0.962797	0.414294	0.678629
	N241	N	0.037467	0.584755	0.677398
	N242	N	0.963098	0.585586	0.321423
	N243	N	0.036888	0.414691	0.321886
	N244	N	0.415712	0.677785	0.961932
	N245	N	0.584774	0.677695	0.037678
	N246	N	0.585616	0.322704	0.962694
	N247	N	0.415428	0.322803	0.037687
	N248	N	0.677521	0.961892	0.415380
	N249	N	0.678534	0.036851	0.586332
	N250	N	0.322118	0.962528	0.585123
	N251	N	0.321821	0.037144	0.414618
	N252	N	0.915300	0.462607	0.177342
	N253	N	0.085715	0.537141	0.177886
	N254	N	0.085665	0.462477	0.821494
	N255	N	0.915970	0.537498	0.822501
	N256	N	0.178317	0.914069	0.463117
	N257	N	0.178465	0.085829	0.537033
	N258	N	0.821743	0.084829	0.463175
	N259	N	0.821408	0.914160	0.537831
	N260	N	0.462953	0.179021	0.914172
	N261	N	0.537544	0.177568	0.084943
	N262	N	0.461833	0.821264	0.086007
	N263	N	0.537897	0.823217	0.915751
	N264	N	0.461574	0.915076	0.178069
	N265	N	0.536738	0.085720	0.178806
	N266	N	0.462445	0.085814	0.821688
	N267	N	0.537308	0.914928	0.821624
	N268	N	0.915050	0.177534	0.462906
	N269	N	0.084577	0.177308	0.537571
	N270	N	0.084153	0.822891	0.462440
	N271	N	0.913826	0.821201	0.537300
	N272	N	0.178124	0.462743	0.914379
	N273	N	0.177826	0.537546	0.085169
	N274	N	0.822700	0.462930	0.084950
	N275	N	0.822827	0.537254	0.914140
