data_Molecule from HDF5

_cell_length_a		16.558414
_cell_length_b		16.467399
_cell_length_c		16.536887
_cell_angle_alpha	90.067363
_cell_angle_beta	90.207194
_cell_angle_gamma	89.896049
_symmetry_space_group_name_H-M	'P 1'
_symmetry_Int_Tables_number		1

loop_
	_symmetry_equiv_pos_as_xyz
	x,y,z

loop_
	_atom_site_label
	_atom_site_type_symbol
	_atom_site_fract_x
	_atom_site_fract_y
	_atom_site_fract_z
	H0	H	0.421483	0.862707	0.707835
	H1	H	0.632528	0.176653	0.713327
	H2	H	0.628793	0.863624	0.267377
	H3	H	0.414600	0.176614	0.264483
	H4	H	0.746441	0.410577	0.833138
	H5	H	0.747608	0.624508	0.144701
	H6	H	0.305083	0.622041	0.831848
	H7	H	0.301458	0.412522	0.145854
	H8	H	0.867391	0.740577	0.382654
	H9	H	0.179751	0.740013	0.594270
	H10	H	0.866300	0.298051	0.591564
	H11	H	0.182780	0.297767	0.385200
	H12	H	0.866744	0.412100	0.709943
	H13	H	0.180192	0.622520	0.709513
	H14	H	0.868423	0.623972	0.265645
	H15	H	0.181931	0.412270	0.267312
	H16	H	0.422195	0.737390	0.831420
	H17	H	0.629775	0.739585	0.146140
	H18	H	0.630104	0.294756	0.834080
	H19	H	0.418800	0.297790	0.147175
	H20	H	0.745244	0.863479	0.382777
	H21	H	0.748348	0.177044	0.597135
	H22	H	0.304043	0.863525	0.593104
	H23	H	0.299107	0.176705	0.380244
	H24	H	0.916346	0.361854	0.212592
	H25	H	0.130706	0.675813	0.211385
	H26	H	0.128906	0.360479	0.767923
	H27	H	0.918128	0.675107	0.767573
	H28	H	0.246370	0.912262	0.333392
	H29	H	0.246513	0.125662	0.645434
	H30	H	0.799202	0.127833	0.332133
	H31	H	0.801478	0.913717	0.644461
	H32	H	0.367097	0.242350	0.883969
	H33	H	0.680091	0.243200	0.098272
	H34	H	0.367828	0.797694	0.094439
	H35	H	0.681502	0.798252	0.885177
	H36	H	0.367825	0.914682	0.210560
	H37	H	0.678761	0.129961	0.216568
	H38	H	0.369022	0.128805	0.764319
	H39	H	0.680938	0.914070	0.768057
	H40	H	0.917927	0.241238	0.330501
	H41	H	0.129092	0.240587	0.646020
	H42	H	0.128711	0.797811	0.333184
	H43	H	0.917820	0.797481	0.643787
	H44	H	0.246696	0.361497	0.883617
	H45	H	0.244964	0.676958	0.093992
	H46	H	0.799715	0.362475	0.097894
	H47	H	0.802282	0.675148	0.882832
	H48	H	0.432757	0.134320	0.574876
	H49	H	0.616802	0.907728	0.578474
	H50	H	0.612545	0.133610	0.402458
	H51	H	0.441766	0.909607	0.396534
	H52	H	0.607694	0.435867	0.098294
	H53	H	0.616383	0.614288	0.872632
	H54	H	0.437428	0.608439	0.101571
	H55	H	0.436572	0.433775	0.879630
	H56	H	0.135843	0.602232	0.395406
	H57	H	0.911662	0.613626	0.569935
	H58	H	0.136679	0.429888	0.581356
	H59	H	0.915008	0.431337	0.403572
	H60	H	0.135379	0.428553	0.576176
	H61	H	0.914619	0.599292	0.577651
	H62	H	0.139897	0.615588	0.398284
	H63	H	0.913396	0.434449	0.397104
	H64	H	0.434196	0.612823	0.103636
	H65	H	0.617886	0.601065	0.877125
	H66	H	0.611565	0.427608	0.102924
	H67	H	0.438272	0.427676	0.878546
	H68	H	0.607558	0.132224	0.401617
	H69	H	0.611510	0.908112	0.579702
	H70	H	0.437387	0.134443	0.580316
	H71	H	0.434716	0.910165	0.407243
	H72	H	0.934749	0.629042	0.072319
	H73	H	0.109132	0.408740	0.075454
	H74	H	0.117053	0.632244	0.901705
	H75	H	0.931539	0.403854	0.903213
	H76	H	0.113361	0.926264	0.603518
	H77	H	0.111299	0.112421	0.375644
	H78	H	0.934016	0.109267	0.601182
	H79	H	0.929676	0.937856	0.376868
	H80	H	0.636169	0.110147	0.902023
	H81	H	0.414242	0.110380	0.073055
	H82	H	0.634538	0.938388	0.082229
	H83	H	0.412274	0.927713	0.901625
	H84	H	0.638549	0.925243	0.081517
	H85	H	0.415178	0.102893	0.076490
	H86	H	0.633295	0.105287	0.906559
	H87	H	0.412505	0.933785	0.898050
	H88	H	0.935791	0.105197	0.598870
	H89	H	0.117090	0.106541	0.375542
	H90	H	0.118544	0.933697	0.602036
	H91	H	0.941310	0.932024	0.378333
	H92	H	0.115607	0.633183	0.894146
	H93	H	0.116613	0.406484	0.073189
	H94	H	0.936982	0.630263	0.078941
	H95	H	0.934849	0.403904	0.894600
	H96	H	0.439193	0.131369	0.574550
	H97	H	0.612989	0.908834	0.574866
	H98	H	0.609757	0.131353	0.406108
	H99	H	0.429631	0.905058	0.396983
	H100	H	0.617257	0.435364	0.100877
	H101	H	0.605819	0.607795	0.878688
	H102	H	0.431797	0.607364	0.103173
	H103	H	0.432763	0.429879	0.876191
	H104	H	0.134045	0.607572	0.407803
	H105	H	0.906201	0.611336	0.585666
	H106	H	0.134336	0.433332	0.578143
	H107	H	0.911119	0.427604	0.398121
	H108	H	0.941303	0.627409	0.074329
	H109	H	0.113239	0.405360	0.080865
	H110	H	0.110386	0.630534	0.898594
	H111	H	0.939772	0.407055	0.901504
	H112	H	0.109876	0.933611	0.598776
	H113	H	0.109655	0.104733	0.378316
	H114	H	0.938767	0.109508	0.598705
	H115	H	0.931675	0.925789	0.372932
	H116	H	0.635288	0.103394	0.899405
	H117	H	0.410825	0.108662	0.080777
	H118	H	0.633790	0.931616	0.070859
	H119	H	0.410737	0.928081	0.895201
	C120	C	0.404267	0.029465	0.609021
	C121	C	0.646822	1.011810	0.610821
	C122	C	0.643378	0.028806	0.369427
	C123	C	0.401798	1.011638	0.366827
	C124	C	0.645309	0.398355	-0.001959
	C125	C	0.646176	0.640213	0.980025
	C126	C	0.403310	0.640286	-0.001801
	C127	C	0.402895	0.397933	0.981645
	C128	C	0.033166	0.640760	0.367297
	C129	C	1.014551	0.640466	0.610344
	C130	C	0.032014	0.397537	0.610326
	C131	C	1.016691	0.397843	0.367263
	C132	C	0.903660	0.526065	0.109470
	C133	C	0.145638	0.510656	0.109725
	C134	C	0.146068	0.527254	0.866862
	C135	C	0.902766	0.509310	0.867568
	C136	C	0.145592	0.898525	0.498005
	C137	C	0.145348	0.140835	0.480285
	C138	C	0.902968	0.140839	0.495940
	C139	C	0.902143	0.899045	0.479651
	C140	C	0.532057	0.140773	0.868656
	C141	C	0.515913	0.141394	0.111232
	C142	C	0.532230	0.899026	0.110291
	C143	C	0.515619	0.897825	0.866968
	C144	C	0.402863	0.910316	0.668248
	C145	C	0.650306	0.129788	0.672561
	C146	C	0.646726	0.910750	0.307926
	C147	C	0.397554	0.129637	0.305261
	C148	C	0.706128	0.393404	0.880316
	C149	C	0.706901	0.642699	0.098054
	C150	C	0.344747	0.640792	0.879218
	C151	C	0.342181	0.395118	0.099161
	C152	C	0.914813	0.700577	0.364349
	C153	C	0.132673	0.700048	0.612582
	C154	C	0.913737	0.337496	0.610842
	C155	C	0.135285	0.337501	0.365979
	C156	C	0.913748	0.394368	0.669837
	C157	C	0.132490	0.641985	0.670436
	C158	C	0.915374	0.642632	0.306162
	C159	C	0.134916	0.394645	0.307421
	C160	C	0.402822	0.698277	0.878953
	C161	C	0.648279	0.699981	0.098517
	C162	C	0.648252	0.335914	0.880545
	C163	C	0.400727	0.337989	0.099965
	C164	C	0.704767	0.910854	0.365378
	C165	C	0.707887	0.129927	0.614706
	C166	C	0.344382	0.910593	0.611303
	C167	C	0.339488	0.129301	0.362610
	C168	C	0.899505	0.408787	0.171643
	C169	C	0.148518	0.628692	0.170965
	C170	C	0.147438	0.408208	0.807646
	C171	C	0.899946	0.627687	0.807220
	C172	C	0.205783	0.894901	0.380356
	C173	C	0.206228	0.143969	0.598195
	C174	C	0.840697	0.144951	0.378696
	C175	C	0.842019	0.896023	0.597318
	C176	C	0.414573	0.202155	0.865535
	C177	C	0.632936	0.203388	0.116300
	C178	C	0.414779	0.838029	0.112477
	C179	C	0.633958	0.838005	0.866020
	C180	C	0.414742	0.896249	0.170416
	C181	C	0.632333	0.146611	0.174939
	C182	C	0.415343	0.145626	0.805970
	C183	C	0.633894	0.895827	0.807872
	C184	C	0.899795	0.201372	0.377874
	C185	C	0.147574	0.200954	0.598624
	C186	C	0.147469	0.837562	0.380274
	C187	C	0.899781	0.838169	0.597360
	C188	C	0.206101	0.408582	0.865105
	C189	C	0.205311	0.629392	0.112454
	C190	C	0.841039	0.409236	0.114567
	C191	C	0.842418	0.627679	0.864761
	C192	C	0.429166	0.111801	0.583766
	C193	C	0.621164	0.929633	0.585029
	C194	C	0.617391	0.110816	0.395696
	C195	C	0.427903	0.929799	0.392718
	C196	C	0.619549	0.425175	0.079404
	C197	C	0.620670	0.614905	0.897579
	C198	C	0.427438	0.616283	0.081277
	C199	C	0.428516	0.423262	0.899548
	C200	C	0.115133	0.615701	0.392997
	C201	C	0.932150	0.615266	0.584857
	C202	C	0.114151	0.423182	0.585586
	C203	C	0.934744	0.423482	0.392257
	C204	C	0.930208	0.607644	0.082819
	C205	C	0.120195	0.428270	0.083976
	C206	C	0.121408	0.610413	0.891375
	C207	C	0.928161	0.426427	0.892629
	C208	C	0.120926	0.923991	0.580249
	C209	C	0.119934	0.115279	0.397986
	C210	C	0.928862	0.115241	0.578069
	C211	C	0.927120	0.924479	0.397225
	C212	C	0.613678	0.114024	0.895216
	C213	C	0.434606	0.114993	0.084411
	C214	C	0.614307	0.924543	0.085338
	C215	C	0.433266	0.922884	0.891282
	Zn216	Zn	0.524641	0.020482	0.738234
	Zn217	Zn	0.523872	0.020571	0.239561
	Zn218	Zn	0.774444	0.518541	-0.011291
	Zn219	Zn	0.273975	0.519218	-0.010778
	Zn220	Zn	0.023621	0.769851	0.488900
	Zn221	Zn	0.024270	0.269338	0.487998
	Zn222	Zn	0.023090	0.518172	0.739222
	Zn223	Zn	0.024958	0.518490	0.238264
	Zn224	Zn	0.524676	0.769458	-0.010760
	Zn225	Zn	0.524432	0.269724	-0.009864
	Zn226	Zn	0.773800	0.021199	0.488676
	Zn227	Zn	0.274567	0.020299	0.488641
	N228	N	0.439407	0.985132	0.666995
	N229	N	0.612999	0.055352	0.670342
	N230	N	0.609418	0.985323	0.310187
	N231	N	0.435441	0.055452	0.307591
	N232	N	0.704609	0.431380	0.954326
	N233	N	0.705966	0.606675	0.023100
	N234	N	0.344743	0.605729	0.954397
	N235	N	0.343529	0.431554	0.024476
	N236	N	0.989131	0.699687	0.401556
	N237	N	0.058099	0.699386	0.576064
	N238	N	0.988313	0.339158	0.574672
	N239	N	0.060734	0.338991	0.402242
	N240	N	0.988306	0.430775	0.669837
	N241	N	0.057860	0.605703	0.669208
	N242	N	0.990075	0.606390	0.307595
	N243	N	0.060214	0.431172	0.307978
	N244	N	0.438303	0.698485	0.954203
	N245	N	0.611327	0.698451	0.024058
	N246	N	0.611250	0.338698	0.954739
	N247	N	0.437747	0.339603	0.025821
	N248	N	0.702739	0.985165	0.402982
	N249	N	0.706031	0.055481	0.577315
	N250	N	0.344959	0.985609	0.575296
	N251	N	0.341907	0.055021	0.400298
	N252	N	0.937959	0.482591	0.168589
	N253	N	0.112350	0.553786	0.169482
	N254	N	0.110826	0.483193	0.808664
	N255	N	0.936710	0.552979	0.808832
	N256	N	0.204719	0.932269	0.454509
	N257	N	0.204965	0.107466	0.523523
	N258	N	0.842609	0.108271	0.453217
	N259	N	0.843403	0.932981	0.522964
	N260	N	0.488257	0.199149	0.903818
	N261	N	0.559568	0.200295	0.077490
	N262	N	0.489262	0.839279	0.076151
	N263	N	0.559338	0.839040	0.901943
	N264	N	0.488773	0.933545	0.168972
	N265	N	0.558352	0.109086	0.172184
	N266	N	0.489569	0.108282	0.807648
	N267	N	0.559242	0.932444	0.808236
	N268	N	0.937766	0.199079	0.451927
	N269	N	0.110536	0.199169	0.524130
	N270	N	0.110557	0.839798	0.454526
	N271	N	0.936505	0.839790	0.522965
	N272	N	0.205398	0.483852	0.901098
	N273	N	0.203869	0.554742	0.075249
	N274	N	0.843552	0.483202	0.076436
	N275	N	0.843936	0.552865	0.901477
	O276	O	0.753512	0.571715	0.434695
	H277	H	0.756326	0.586599	0.443465
	H278	H	0.755922	0.554481	0.461352
	O279	O	-0.010565	-0.198865	1.207624
	H280	H	-0.012387	-0.207433	1.215392
	H281	H	-0.016773	-0.207319	1.214958
	O282	O	0.464898	0.531657	0.478566
	H283	H	0.473664	0.540240	0.484577
	H284	H	0.465380	0.530900	0.471954
	O285	O	0.650688	0.735272	0.471953
	H286	H	0.658818	0.751271	0.468333
	H287	H	0.625689	0.731239	0.460944
	O288	O	0.826054	-0.079046	0.874049
	H289	H	0.831689	-0.077727	0.870505
	H290	H	0.824453	-0.092744	0.876225
	O291	O	0.231282	1.148451	-0.134496
	H292	H	0.222493	1.149267	-0.127791
	H293	H	0.225395	1.149340	-0.128103
	O294	O	0.158070	-0.121871	0.019168
	H295	H	0.158689	-0.125606	0.013343
	H296	H	0.159943	-0.127611	0.012998
	O297	O	0.713081	0.333250	1.299826
	H298	H	0.663117	0.326855	1.289770
	H299	H	0.719656	0.374769	1.299393
	O300	O	-0.188220	-0.196169	0.019340
	H301	H	-0.175544	-0.203734	0.032754
	H302	H	-0.196320	-0.220675	0.018308
	O303	O	0.241001	-0.011054	-0.223844
	H304	H	0.235741	-0.001511	-0.230249
	H305	H	0.243761	-0.011219	-0.238561
	O306	O	1.247451	-0.200429	-0.045805
	H307	H	1.270405	-0.228193	-0.059182
	H308	H	1.245521	-0.198610	-0.065618
	O309	O	0.442216	0.726937	0.283243
	H310	H	0.445896	0.711147	0.270971
	H311	H	0.431194	0.735526	0.289374
	O312	O	0.593476	0.448980	0.712093
	H313	H	0.601758	0.446551	0.712054
	H314	H	0.593414	0.425950	0.716538
	O315	O	0.325212	0.633354	0.333559
	H316	H	0.314927	0.641067	0.345976
	H317	H	0.334398	0.635863	0.357601
	O318	O	0.385377	0.519698	-0.295350
	H319	H	0.379409	0.506815	-0.282651
	H320	H	0.406881	0.515305	-0.296470
	O321	O	0.653853	0.369749	0.502770
	H322	H	0.681758	0.349342	0.500364
	H323	H	0.657313	0.379831	0.470125
	O324	O	1.314255	-0.695884	0.589581
	H325	H	1.308348	-0.698679	0.589657
	H326	H	1.295759	-0.697629	0.590459
	O327	O	0.237466	0.810496	0.779134
	H328	H	0.220465	0.828206	0.785292
	H329	H	0.261052	0.797277	0.752071
	O330	O	0.119205	0.935716	0.211256
	H331	H	0.101792	0.934003	0.202250
	H332	H	0.117483	0.929285	0.214784
	O333	O	0.017163	0.083529	1.137148
	H334	H	0.016098	0.092748	1.136029
	H335	H	0.024865	0.096570	1.129637
	O336	O	0.430538	0.449511	0.378408
	H337	H	0.432205	0.457932	0.375207
	H338	H	0.424143	0.439283	0.380268
	O339	O	0.579708	0.300596	0.543112
	H340	H	0.593648	0.301087	0.541867
	H341	H	0.587571	0.306592	0.527909
	O342	O	-0.174282	1.220691	-0.211277
	H343	H	-0.176793	1.199414	-0.189314
	H344	H	-0.145748	1.211034	-0.200533
	O345	O	0.957385	0.951455	-0.224140
	H346	H	0.951405	0.964227	-0.226372
	H347	H	0.965211	0.944072	-0.210888
	O348	O	0.730881	0.624185	0.529707
	H349	H	0.740306	0.627560	0.532770
	H350	H	0.726685	0.621332	0.536786
	O351	O	-0.272476	-0.280296	0.690764
	H352	H	-0.263077	-0.278738	0.666274
	H353	H	-0.276333	-0.271894	0.691026
	O354	O	0.854814	0.076851	1.084201
	H355	H	0.854059	0.058170	1.078920
	H356	H	0.848988	0.076846	1.101007
	O357	O	0.329365	0.393413	0.689530
	H358	H	0.344691	0.397495	0.694074
	H359	H	0.336488	0.394344	0.669784
	O360	O	-0.054700	0.201428	1.052202
	H361	H	-0.035519	0.197199	1.052712
	H362	H	-0.067989	0.225729	1.067359
	O363	O	0.501697	0.306001	0.703411
	H364	H	0.504602	0.287958	0.706537
	H365	H	0.490848	0.294758	0.703153
	O366	O	1.460292	0.299494	0.425203
	H367	H	1.447484	0.302459	0.433829
	H368	H	1.468114	0.310196	0.435997
	O369	O	-0.537045	-0.263521	0.541055
	H370	H	-0.518138	-0.267314	0.553261
	H371	H	-0.546210	-0.269963	0.542183
	O372	O	-0.000746	1.225744	0.771564
	H373	H	-0.002289	1.242058	0.764049
	H374	H	-0.006820	1.231757	0.781847
	O375	O	1.021246	0.054231	-0.101254
	H376	H	1.033570	0.067353	-0.095864
	H377	H	1.009704	0.039688	-0.098450
	O378	O	0.676402	0.429118	0.482177
	H379	H	0.684366	0.435780	0.487372
	H380	H	0.677580	0.413344	0.479464
	O381	O	-0.666434	0.708344	-0.325905
	H382	H	-0.660480	0.695464	-0.330638
	H383	H	-0.639634	0.693102	-0.336726
	O384	O	0.562861	0.647205	0.379730
	H385	H	0.578148	0.657772	0.362537
	H386	H	0.551640	0.625490	0.382809
	O387	O	0.406686	0.545770	0.625375
	H388	H	0.424897	0.528540	0.619893
	H389	H	0.399731	0.539302	0.635324
	O390	O	0.049004	0.803295	0.771177
	H391	H	0.053758	0.799502	0.755791
	H392	H	0.067426	0.795064	0.770771
	O393	O	1.194441	0.214597	0.078417
	H394	H	1.194216	0.192695	0.086820
	H395	H	1.185019	0.206282	0.070060
	O396	O	-0.153740	0.058108	0.060014
	H397	H	-0.162998	0.046429	0.041371
	H398	H	-0.161187	0.050245	0.069483
	O399	O	0.038542	0.948632	1.125180
	H400	H	0.036391	0.955904	1.138106
	H401	H	0.044441	0.943020	1.119448
	O402	O	1.163698	0.017582	1.040660
	H403	H	1.169161	0.006446	1.046265
	H404	H	1.156232	0.011175	1.052588
	O405	O	0.729031	0.499058	0.281144
	H406	H	0.728058	0.508173	0.282685
	H407	H	0.736439	0.509005	0.285636
	O408	O	1.066515	1.093477	0.985914
	H409	H	1.082443	1.106184	0.992160
	H410	H	1.055658	1.078741	0.986435
	O411	O	0.485973	0.519617	0.320940
	H412	H	0.475334	0.508262	0.323739
	H413	H	0.470694	0.523538	0.320154
	O414	O	0.222995	-0.030954	0.181668
	H415	H	0.203037	-0.043319	0.170459
	H416	H	0.235834	-0.028492	0.184473
	O417	O	0.550535	0.732744	0.701923
	H418	H	0.571501	0.743985	0.702798
	H419	H	0.559947	0.734276	0.719154
	O420	O	1.131138	0.231632	1.192841
	H421	H	1.130609	0.241862	1.211971
	H422	H	1.141245	0.207064	1.184917
	O423	O	1.311619	1.711574	0.475142
	H424	H	1.306693	1.722496	0.482016
	H425	H	1.306404	1.706170	0.491260
	O426	O	-0.187492	1.048861	0.774154
	H427	H	-0.178317	1.049041	0.775718
	H428	H	-0.207909	1.047787	0.758515
	O429	O	0.373145	0.375636	0.446119
	H430	H	0.366122	0.364313	0.449718
	H431	H	0.379186	0.377350	0.468200
	O432	O	1.127378	0.192262	0.981989
	H433	H	1.130405	0.207385	1.000761
	H434	H	1.126499	0.193467	0.977887
	O435	O	0.700316	0.398988	0.602222
	H436	H	0.712897	0.389952	0.616520
	H437	H	0.694451	0.370997	0.599066
	O438	O	0.313248	0.547069	0.269631
	H439	H	0.316436	0.556334	0.284024
	H440	H	0.288643	0.555742	0.244014
	O441	O	0.734748	0.545683	0.704317
	H442	H	0.738240	0.564101	0.701505
	H443	H	0.746523	0.544924	0.728617
	O444	O	1.144664	0.133014	-0.156688
	H445	H	1.123436	0.120935	-0.168848
	H446	H	1.135657	0.142598	-0.150584
	O447	O	0.777640	-0.224601	1.234609
	H448	H	0.771052	-0.222084	1.236194
	H449	H	0.777799	-0.229067	1.233816
	O450	O	0.419703	0.618090	0.496358
	H451	H	0.424045	0.606632	0.496281
	H452	H	0.415038	0.603575	0.499950
	O453	O	0.619088	0.630540	0.312152
	H454	H	0.607199	0.625235	0.309309
	H455	H	0.606658	0.622576	0.315787
	O456	O	-0.182998	0.925581	1.195987
	H457	H	-0.164683	0.922840	1.200225
	H458	H	-0.191300	0.915498	1.209591
	O459	O	0.930492	0.805160	0.907448
	H460	H	0.931524	0.817893	0.909616
	H461	H	0.949001	0.812482	0.915211
	O462	O	0.549254	0.306760	0.278886
	H463	H	0.530404	0.293774	0.283803
	H464	H	0.532974	0.298221	0.270703
	O465	O	0.839738	-0.002004	1.129227
	H466	H	0.824563	-0.012867	1.142360
	H467	H	0.845999	-0.013823	1.117413
	O468	O	-1.122838	0.209190	-0.003987
	H469	H	-1.113050	0.198941	0.002639
	H470	H	-1.139076	0.219392	0.008929
	O471	O	-0.022206	0.231665	1.002580
	H472	H	-0.021056	0.237794	1.032445
	H473	H	-0.039307	0.232961	1.018659
	O474	O	1.149522	0.892397	0.034968
	H475	H	1.151228	0.896545	0.028036
	H476	H	1.168173	0.886214	0.024965
	O477	O	0.061174	0.908770	0.888286
	H478	H	0.057755	0.917133	0.884602
	H479	H	0.078005	0.915121	0.894498
