data_Molecule from HDF5

_cell_length_a		16.399411
_cell_length_b		15.862955
_cell_length_c		16.263040
_cell_angle_alpha	88.629246
_cell_angle_beta	90.207408
_cell_angle_gamma	89.743443
_symmetry_space_group_name_H-M	'P 1'
_symmetry_Int_Tables_number		1

loop_
	_symmetry_equiv_pos_as_xyz
	x,y,z

loop_
	_atom_site_label
	_atom_site_type_symbol
	_atom_site_fract_x
	_atom_site_fract_y
	_atom_site_fract_z
	H0	H	0.400869	0.833104	0.716840
	H1	H	0.596452	0.167893	0.705386
	H2	H	0.600043	0.831394	0.291673
	H3	H	0.401301	0.166047	0.280980
	H4	H	0.719033	0.396361	0.838924
	H5	H	0.721305	0.596470	0.162509
	H6	H	0.280242	0.606454	0.838227
	H7	H	0.285141	0.389030	0.164022
	H8	H	0.836240	0.716537	0.399363
	H9	H	0.164951	0.706181	0.590859
	H10	H	0.836007	0.283757	0.599551
	H11	H	0.164624	0.289131	0.409959
	H12	H	0.838191	0.393928	0.720800
	H13	H	0.160879	0.601629	0.717259
	H14	H	0.837342	0.605054	0.278894
	H15	H	0.161592	0.396905	0.284962
	H16	H	0.403726	0.715164	0.836099
	H17	H	0.595811	0.703416	0.167385
	H18	H	0.593521	0.296045	0.833210
	H19	H	0.411137	0.282764	0.165089
	H20	H	0.715204	0.832906	0.403318
	H21	H	0.713712	0.165012	0.598834
	H22	H	0.289247	0.831619	0.601984
	H23	H	0.284233	0.165768	0.392587
	H24	H	0.901271	0.333096	0.218067
	H25	H	0.094999	0.667642	0.204299
	H26	H	0.098907	0.331722	0.791319
	H27	H	0.899132	0.665808	0.782935
	H28	H	0.218757	0.898694	0.336886
	H29	H	0.220445	0.098229	0.661474
	H30	H	0.780554	0.108217	0.337495
	H31	H	0.783936	0.890680	0.662272
	H32	H	0.337146	0.216101	0.899121
	H33	H	0.666797	0.203505	0.088580
	H34	H	0.336656	0.783339	0.100656
	H35	H	0.665319	0.787723	0.909836
	H36	H	0.338761	0.895982	0.218893
	H37	H	0.662328	0.099182	0.214840
	H38	H	0.337952	0.104667	0.778927
	H39	H	0.662924	0.898728	0.784450
	H40	H	0.903513	0.216959	0.335740
	H41	H	0.093511	0.202993	0.666670
	H42	H	0.094017	0.795038	0.331944
	H43	H	0.908972	0.783129	0.664114
	H44	H	0.212263	0.331176	0.905953
	H45	H	0.216666	0.663120	0.101630
	H46	H	0.791545	0.329691	0.102171
	H47	H	0.783362	0.663659	0.894491
	H48	H	0.412372	0.120890	0.595899
	H49	H	0.598662	0.875513	0.597571
	H50	H	0.590272	0.118810	0.407418
	H51	H	0.402071	0.875995	0.410017
	H52	H	0.599368	0.402794	0.117665
	H53	H	0.597356	0.591887	0.882705
	H54	H	0.406785	0.586984	0.118476
	H55	H	0.401621	0.410844	0.882356
	H56	H	0.117063	0.602685	0.407843
	H57	H	0.882994	0.593270	0.592120
	H58	H	0.114858	0.413422	0.600221
	H59	H	0.883925	0.408211	0.406873
	H60	H	0.118686	0.397478	0.603819
	H61	H	0.884322	0.590143	0.588968
	H62	H	0.112887	0.584173	0.402650
	H63	H	0.884627	0.412253	0.409846
	H64	H	0.404030	0.585292	0.118174
	H65	H	0.592094	0.587737	0.885988
	H66	H	0.595805	0.397068	0.119162
	H67	H	0.403554	0.412618	0.883399
	H68	H	0.593310	0.120129	0.404153
	H69	H	0.585220	0.878826	0.597725
	H70	H	0.410304	0.116602	0.578250
	H71	H	0.413011	0.879191	0.407100
	H72	H	0.901865	0.620897	0.087275
	H73	H	0.092415	0.376315	0.098709
	H74	H	0.088709	0.620136	0.903428
	H75	H	0.909878	0.376626	0.906025
	H76	H	0.090154	0.895133	0.616393
	H77	H	0.089699	0.093169	0.384124
	H78	H	0.908488	0.074610	0.613641
	H79	H	0.908316	0.916998	0.385151
	H80	H	0.620773	0.095782	0.885211
	H81	H	0.384990	0.085060	0.091238
	H82	H	0.616329	0.900833	0.094287
	H83	H	0.380767	0.904468	0.898408
	H84	H	0.615817	0.906991	0.097412
	H85	H	0.382663	0.091951	0.094516
	H86	H	0.619005	0.107161	0.909166
	H87	H	0.386089	0.905383	0.915771
	H88	H	0.911943	0.098731	0.618047
	H89	H	0.095242	0.097818	0.381287
	H90	H	0.105626	0.901777	0.619284
	H91	H	0.904534	0.905959	0.380284
	H92	H	0.088114	0.616474	0.910367
	H93	H	0.091609	0.377516	0.094040
	H94	H	0.909942	0.619953	0.089941
	H95	H	0.912525	0.379343	0.914709
	H96	H	0.396734	0.123564	0.587668
	H97	H	0.592133	0.880745	0.586314
	H98	H	0.587930	0.120305	0.403327
	H99	H	0.409629	0.881552	0.417538
	H100	H	0.602859	0.397988	0.120307
	H101	H	0.590563	0.594091	0.884822
	H102	H	0.406523	0.584210	0.117342
	H103	H	0.403874	0.410272	0.883149
	H104	H	0.119896	0.597190	0.389774
	H105	H	0.883307	0.589508	0.594219
	H106	H	0.114869	0.400930	0.589801
	H107	H	0.883673	0.413184	0.404204
	H108	H	0.908250	0.617281	0.081650
	H109	H	0.094258	0.376958	0.095037
	H110	H	0.094762	0.619745	0.908101
	H111	H	0.903407	0.377088	0.912488
	H112	H	0.093876	0.912079	0.612244
	H113	H	0.096252	0.090028	0.382794
	H114	H	0.890603	0.089257	0.621245
	H115	H	0.896635	0.915917	0.381120
	H116	H	0.611712	0.079575	0.906007
	H117	H	0.384643	0.092192	0.087200
	H118	H	0.618764	0.900683	0.100458
	H119	H	0.387758	0.920480	0.904899
	C120	C	0.378949	0.009107	0.618851
	C121	C	0.619911	0.989816	0.619950
	C122	C	0.620285	0.008662	0.379193
	C123	C	0.379394	0.989695	0.378745
	C124	C	0.624305	0.375117	0.009296
	C125	C	0.622423	0.618471	0.992570
	C126	C	0.376629	0.619153	0.010142
	C127	C	0.377648	0.376835	0.991211
	C128	C	0.008591	0.624292	0.372579
	C129	C	0.991398	0.619512	0.619511
	C130	C	0.008176	0.374657	0.625787
	C131	C	0.991656	0.380396	0.379789
	C132	C	0.879462	0.508096	0.118849
	C133	C	0.120927	0.488388	0.121726
	C134	C	0.119963	0.508085	0.880503
	C135	C	0.878408	0.488212	0.878787
	C136	C	0.123684	0.876882	0.507512
	C137	C	0.122301	0.120149	0.491042
	C138	C	0.875922	0.121056	0.509390
	C139	C	0.877505	0.878859	0.490389
	C140	C	0.509152	0.123909	0.872650
	C141	C	0.492549	0.117940	0.118239
	C142	C	0.508948	0.873817	0.125883
	C143	C	0.492275	0.879696	0.879167
	C144	C	0.380909	0.883017	0.677940
	C145	C	0.616668	0.116983	0.670474
	C146	C	0.619141	0.881717	0.327996
	C147	C	0.381025	0.115993	0.319754
	C148	C	0.679346	0.378341	0.886728
	C149	C	0.680504	0.615508	0.114732
	C150	C	0.319593	0.623641	0.887078
	C151	C	0.323799	0.372429	0.114895
	C152	C	0.885484	0.680153	0.376780
	C153	C	0.115223	0.671439	0.613679
	C154	C	0.885283	0.320129	0.621510
	C155	C	0.115131	0.325583	0.386728
	C156	C	0.886260	0.375395	0.681520
	C157	C	0.112979	0.619315	0.676765
	C158	C	0.886105	0.624232	0.317112
	C159	C	0.113643	0.379598	0.324501
	C160	C	0.380697	0.678028	0.885803
	C161	C	0.618118	0.668702	0.117175
	C162	C	0.617058	0.328158	0.883919
	C163	C	0.386097	0.319157	0.115450
	C164	C	0.676391	0.882572	0.383506
	C165	C	0.675266	0.115468	0.617276
	C166	C	0.325532	0.882210	0.620502
	C167	C	0.322910	0.115949	0.375429
	C168	C	0.881787	0.382668	0.178543
	C169	C	0.116633	0.616220	0.170628
	C170	C	0.118814	0.381767	0.827966
	C171	C	0.879168	0.614966	0.820877
	C172	C	0.179536	0.879771	0.384865
	C173	C	0.179812	0.117109	0.613699
	C174	C	0.819480	0.125314	0.386215
	C175	C	0.823046	0.874255	0.613693
	C176	C	0.386296	0.179339	0.877235
	C177	C	0.616651	0.169345	0.112087
	C178	C	0.386139	0.819777	0.121974
	C179	C	0.615910	0.824514	0.886001
	C180	C	0.387176	0.875825	0.181035
	C181	C	0.614496	0.116996	0.174659
	C182	C	0.386516	0.123376	0.817614
	C183	C	0.614696	0.879919	0.823859
	C184	C	0.880599	0.179485	0.385276
	C185	C	0.116741	0.169301	0.616290
	C186	C	0.117252	0.828243	0.382330
	C187	C	0.884974	0.820579	0.614604
	C188	C	0.174972	0.381509	0.885216
	C189	C	0.177548	0.613673	0.119603
	C190	C	0.827162	0.380775	0.120997
	C191	C	0.821484	0.613902	0.876281
	C192	C	0.400218	0.097499	0.594341
	C193	C	0.598256	0.901250	0.599804
	C194	C	0.597345	0.096940	0.399067
	C195	C	0.401630	0.901752	0.404036
	C196	C	0.605163	0.393652	0.096524
	C197	C	0.599903	0.597677	0.906655
	C198	C	0.399196	0.593094	0.095672
	C199	C	0.397208	0.403460	0.905206
	C200	C	0.094334	0.601504	0.393900
	C201	C	0.905677	0.597572	0.598011
	C202	C	0.093911	0.397346	0.604488
	C203	C	0.906140	0.404280	0.400858
	C204	C	0.900365	0.596622	0.093474
	C205	C	0.099306	0.399805	0.101842
	C206	C	0.097140	0.596098	0.901029
	C207	C	0.901715	0.400270	0.903781
	C208	C	0.102929	0.896943	0.593735
	C209	C	0.100405	0.099679	0.404950
	C210	C	0.897332	0.095198	0.595321
	C211	C	0.897455	0.905215	0.404417
	C212	C	0.594977	0.100910	0.893890
	C213	C	0.406337	0.096172	0.097105
	C214	C	0.594962	0.896148	0.104047
	C215	C	0.406977	0.903184	0.900059
	Zn216	Zn	0.500029	0.000652	0.744952
	Zn217	Zn	0.500521	-0.001309	0.251362
	Zn218	Zn	0.752558	0.496108	0.000174
	Zn219	Zn	0.246925	0.497763	0.001479
	Zn220	Zn	0.000912	0.750200	0.497414
	Zn221	Zn	-0.000410	0.248413	0.501558
	Zn222	Zn	-0.000646	0.499115	0.752752
	Zn223	Zn	-0.000400	0.500464	0.245969
	Zn224	Zn	0.499771	0.747376	0.002025
	Zn225	Zn	0.501771	0.249669	-0.001923
	Zn226	Zn	0.746744	-0.000614	0.499827
	Zn227	Zn	0.251988	-0.001364	0.498794
	N228	N	0.413350	0.962895	0.676925
	N229	N	0.582891	0.037723	0.672409
	N230	N	0.584952	0.961156	0.324954
	N231	N	0.415349	0.036536	0.321657
	N232	N	0.684201	0.406845	0.965938
	N233	N	0.683391	0.584964	0.036152
	N234	N	0.316877	0.587942	0.965217
	N235	N	0.318482	0.407677	0.036585
	N236	N	0.962501	0.680368	0.410699
	N237	N	0.038424	0.672005	0.578966
	N238	N	0.962091	0.319641	0.587490
	N239	N	0.038143	0.325950	0.420473
	N240	N	0.963723	0.408651	0.684397
	N241	N	0.034980	0.587650	0.680488
	N242	N	0.963624	0.590438	0.314222
	N243	N	0.036000	0.413050	0.320199
	N244	N	0.415393	0.675704	0.963222
	N245	N	0.582487	0.670520	0.040350
	N246	N	0.583503	0.325898	0.961218
	N247	N	0.418929	0.321748	0.037701
	N248	N	0.677155	0.962496	0.414599
	N249	N	0.677539	0.035298	0.586540
	N250	N	0.323964	0.961627	0.584580
	N251	N	0.321762	0.036436	0.411440
	N252	N	0.913140	0.462959	0.177412
	N253	N	0.082218	0.537216	0.172379
	N254	N	0.085196	0.461489	0.824910
	N255	N	0.914031	0.535809	0.822634
	N256	N	0.183863	0.908970	0.463827
	N257	N	0.183521	0.087369	0.534844
	N258	N	0.816361	0.089635	0.464299
	N259	N	0.818155	0.909594	0.535585
	N260	N	0.463520	0.179872	0.910719
	N261	N	0.539719	0.170052	0.077505
	N262	N	0.463099	0.818516	0.088333
	N263	N	0.538880	0.824324	0.919961
	N264	N	0.464783	0.908523	0.183612
	N265	N	0.536209	0.085962	0.178626
	N266	N	0.464104	0.089789	0.814493
	N267	N	0.537034	0.913343	0.819441
	N268	N	0.914837	0.177144	0.462774
	N269	N	0.081634	0.171371	0.539089
	N270	N	0.083183	0.826208	0.459518
	N271	N	0.918100	0.823007	0.536909
	N272	N	0.175783	0.461224	0.917214
	N273	N	0.180391	0.533025	0.090143
	N274	N	0.825283	0.460109	0.084609
	N275	N	0.820639	0.534047	0.911540
	O276	O	0.099195	-0.049385	-0.101284
	H277	H	0.109623	-0.047011	-0.111285
	H278	H	0.103252	-0.050715	-0.091466
	O279	O	0.564269	0.550217	0.552958
	H280	H	0.565066	0.549759	0.571580
	H281	H	0.573896	0.530466	0.543882
	O282	O	0.551301	0.521211	0.605958
	H283	H	0.558196	0.499963	0.604007
	H284	H	0.544518	0.510133	0.600386
	O285	O	-0.061073	1.008442	0.961582
	H286	H	-0.072582	1.008328	0.961640
	H287	H	-0.067023	1.009594	0.963928
	O288	O	0.605104	0.488560	0.469831
	H289	H	0.618179	0.482069	0.480980
	H290	H	0.595964	0.479348	0.467895
	O291	O	0.980860	0.982983	1.038628
	H292	H	0.976124	0.992501	1.029723
	H293	H	0.979836	0.981946	1.038177
	O294	O	0.398835	1.424730	0.567865
	H295	H	0.388943	1.430857	0.566173
	H296	H	0.402695	1.417329	0.572104
	O297	O	1.055677	-0.104272	0.983276
	H298	H	1.065078	-0.107345	0.983976
	H299	H	1.046631	-0.100721	0.980863
	O300	O	0.545104	0.477615	0.466142
	H301	H	0.541188	0.478233	0.461353
	H302	H	0.539588	0.469526	0.477914
	O303	O	1.048239	-0.022818	0.006741
	H304	H	1.057996	-0.007140	0.000689
	H305	H	1.048777	-0.025096	-0.000466
	O306	O	0.002438	1.018317	0.940857
	H307	H	-0.001000	1.028270	0.933653
	H308	H	-0.002465	1.017563	0.931875
	O309	O	0.469580	0.538425	0.566170
	H310	H	0.482328	0.536149	0.566674
	H311	H	0.457789	0.536094	0.548762
	O312	O	1.037945	0.006715	0.997610
	H313	H	1.034703	0.012034	1.007048
	H314	H	1.033437	0.000176	0.997777
	O315	O	0.459659	0.522607	0.435049
	H316	H	0.453313	0.530804	0.421734
	H317	H	0.459828	0.526594	0.443265
	O318	O	0.372350	0.527271	0.416617
	H319	H	0.370480	0.532945	0.403723
	H320	H	0.369514	0.547519	0.412505
	O321	O	0.938416	0.977160	1.053501
	H322	H	0.945171	0.975658	1.049491
	H323	H	0.942877	0.970637	1.052774
	O324	O	0.493870	0.606022	0.469907
	H325	H	0.499479	0.600552	0.459686
	H326	H	0.493844	0.599063	0.472363
	O327	O	0.586108	0.570761	0.618517
	H328	H	0.576514	0.571672	0.615576
	H329	H	0.575222	0.561065	0.627813
	O330	O	1.028642	-0.024447	0.991197
	H331	H	1.030507	-0.029706	0.992846
	H332	H	1.040254	-0.025103	0.990447
	O333	O	0.940736	0.978545	-0.016738
	H334	H	0.945120	0.986479	-0.015698
	H335	H	0.937753	0.975030	-0.028109
	O336	O	0.616184	0.465458	0.566702
	H337	H	0.600943	0.487803	0.565784
	H338	H	0.625964	0.457828	0.567606
	O339	O	0.327010	0.645336	0.500115
	H340	H	0.349474	0.644293	0.512187
	H341	H	0.322820	0.663900	0.503285
	O342	O	0.001507	1.052986	-0.010828
	H343	H	-0.009159	1.051914	-0.006498
	H344	H	-0.008966	1.055085	-0.005433
	O345	O	-0.054161	-0.011950	-0.042456
	H346	H	-0.042508	-0.023872	-0.042311
	H347	H	-0.052128	-0.015631	-0.037614
	O348	O	0.436946	0.468176	0.494001
	H349	H	0.426462	0.469274	0.474644
	H350	H	0.433824	0.477909	0.489491
	O351	O	0.710506	0.475672	0.492638
	H352	H	0.728916	0.473479	0.494414
	H353	H	0.700341	0.479870	0.503656
	O354	O	0.323260	0.479442	0.452669
	H355	H	0.328700	0.489203	0.447377
	H356	H	0.319001	0.486003	0.465213
	O357	O	0.503656	0.469115	0.543621
	H358	H	0.512919	0.459398	0.554347
	H359	H	0.510551	0.487127	0.556580
	O360	O	-0.048157	0.070590	-0.039629
	H361	H	-0.048268	0.070167	-0.043254
	H362	H	-0.058416	0.070469	-0.035492
	O363	O	0.503896	0.539849	0.413705
	H364	H	0.500220	0.549647	0.411244
	H365	H	0.513840	0.550196	0.404293
	O366	O	0.020946	-0.063376	1.026459
	H367	H	0.017672	-0.057547	1.021971
	H368	H	0.023347	-0.075459	1.027877
	O369	O	0.508476	0.419046	0.503495
	H370	H	0.513462	0.422128	0.505093
	H371	H	0.500263	0.425612	0.497538
