data_Molecule from HDF5

_cell_length_a		16.235232
_cell_length_b		16.394466
_cell_length_c		16.519543
_cell_angle_alpha	89.873550
_cell_angle_beta	90.150748
_cell_angle_gamma	89.688942
_symmetry_space_group_name_H-M	'P 1'
_symmetry_Int_Tables_number		1

loop_
	_symmetry_equiv_pos_as_xyz
	x,y,z

loop_
	_atom_site_label
	_atom_site_type_symbol
	_atom_site_fract_x
	_atom_site_fract_y
	_atom_site_fract_z
	H0	H	0.393098	0.841161	0.712733
	H1	H	0.605690	0.156157	0.717756
	H2	H	0.605812	0.843633	0.268173
	H3	H	0.383233	0.157428	0.267294
	H4	H	0.717989	0.392685	0.834552
	H5	H	0.718621	0.604026	0.150346
	H6	H	0.274756	0.602435	0.835199
	H7	H	0.274528	0.393698	0.151263
	H8	H	0.834369	0.719482	0.386176
	H9	H	0.156322	0.713778	0.593848
	H10	H	0.834758	0.279680	0.595473
	H11	H	0.155870	0.277243	0.386974
	H12	H	0.836375	0.389562	0.715277
	H13	H	0.154104	0.601275	0.712304
	H14	H	0.835571	0.604867	0.269285
	H15	H	0.155425	0.390866	0.271159
	H16	H	0.386326	0.724080	0.837497
	H17	H	0.603183	0.722361	0.150094
	H18	H	0.603291	0.274441	0.835873
	H19	H	0.386115	0.273656	0.149078
	H20	H	0.715932	0.840447	0.390001
	H21	H	0.715821	0.159028	0.596798
	H22	H	0.280901	0.838887	0.592052
	H23	H	0.271625	0.158358	0.386288
	H24	H	0.891956	0.339654	0.212942
	H25	H	0.102858	0.656726	0.213542
	H26	H	0.101904	0.340697	0.770727
	H27	H	0.885743	0.655984	0.768953
	H28	H	0.212373	0.900035	0.331792
	H29	H	0.213211	0.098403	0.652640
	H30	H	0.775585	0.102284	0.332695
	H31	H	0.778795	0.897083	0.652870
	H32	H	0.334518	0.217004	0.888677
	H33	H	0.656282	0.216237	0.094711
	H34	H	0.333319	0.784631	0.094491
	H35	H	0.656595	0.780619	0.892476
	H36	H	0.335263	0.896410	0.213292
	H37	H	0.653898	0.107243	0.215291
	H38	H	0.335159	0.102996	0.772806
	H39	H	0.656808	0.893169	0.774933
	H40	H	0.891043	0.220196	0.332906
	H41	H	0.103090	0.220879	0.649594
	H42	H	0.097738	0.780752	0.332518
	H43	H	0.893190	0.778036	0.650985
	H44	H	0.215658	0.339381	0.890443
	H45	H	0.209752	0.660162	0.090927
	H46	H	0.777615	0.338354	0.093748
	H47	H	0.776399	0.659474	0.890796
	H48	H	0.405380	0.114252	0.581012
	H49	H	0.590001	0.883828	0.583815
	H50	H	0.580476	0.112282	0.405444
	H51	H	0.400188	0.883725	0.400850
	H52	H	0.586066	0.408465	0.104642
	H53	H	0.584133	0.582886	0.882778
	H54	H	0.407110	0.595944	0.108652
	H55	H	0.400498	0.407560	0.877925
	H56	H	0.109526	0.588649	0.403114
	H57	H	0.879645	0.591492	0.575450
	H58	H	0.111196	0.411201	0.587555
	H59	H	0.881562	0.411747	0.403378
	H60	H	0.110550	0.404853	0.580264
	H61	H	0.881426	0.582159	0.579701
	H62	H	0.110829	0.585955	0.400239
	H63	H	0.882190	0.412675	0.402405
	H64	H	0.399118	0.590126	0.108711
	H65	H	0.576419	0.592165	0.881919
	H66	H	0.583190	0.412148	0.102930
	H67	H	0.407975	0.415588	0.882604
	H68	H	0.582949	0.113195	0.404273
	H69	H	0.583841	0.884281	0.587773
	H70	H	0.403997	0.115553	0.585725
	H71	H	0.414068	0.886503	0.395802
	H72	H	0.908179	0.611490	0.080286
	H73	H	0.085972	0.381485	0.089302
	H74	H	0.081830	0.613418	0.897975
	H75	H	0.909578	0.386578	0.904365
	H76	H	0.086481	0.902765	0.606878
	H77	H	0.083223	0.086254	0.379958
	H78	H	0.911389	0.090034	0.603620
	H79	H	0.896681	0.910684	0.376875
	H80	H	0.613265	0.085541	0.897052
	H81	H	0.381120	0.085211	0.078662
	H82	H	0.609738	0.916289	0.083837
	H83	H	0.381027	0.918078	0.897334
	H84	H	0.612270	0.908015	0.085414
	H85	H	0.379479	0.086538	0.083255
	H86	H	0.612285	0.093085	0.906883
	H87	H	0.376642	0.905360	0.897366
	H88	H	0.904966	0.093412	0.606349
	H89	H	0.081229	0.088655	0.380864
	H90	H	0.090399	0.904803	0.607729
	H91	H	0.910810	0.916047	0.383668
	H92	H	0.080520	0.612120	0.902559
	H93	H	0.081072	0.385400	0.081973
	H94	H	0.904845	0.612690	0.081367
	H95	H	0.905006	0.384180	0.904217
	H96	H	0.408513	0.114760	0.584691
	H97	H	0.584471	0.887236	0.581113
	H98	H	0.580822	0.113153	0.403222
	H99	H	0.409335	0.890726	0.409806
	H100	H	0.581813	0.407768	0.103893
	H101	H	0.587529	0.593099	0.877949
	H102	H	0.407102	0.587140	0.104781
	H103	H	0.411562	0.404769	0.881339
	H104	H	0.111211	0.590149	0.400028
	H105	H	0.877000	0.589337	0.585447
	H106	H	0.107308	0.413833	0.578573
	H107	H	0.881182	0.412290	0.402008
	H108	H	0.907936	0.613100	0.084079
	H109	H	0.090053	0.383774	0.080948
	H110	H	0.085510	0.613587	0.902052
	H111	H	0.908050	0.384408	0.900220
	H112	H	0.087160	0.906796	0.605030
	H113	H	0.084034	0.089131	0.378908
	H114	H	0.904610	0.086056	0.604162
	H115	H	0.910256	0.900755	0.378452
	H116	H	0.607565	0.081687	0.908040
	H117	H	0.380140	0.090050	0.080084
	H118	H	0.608874	0.910017	0.077536
	H119	H	0.381710	0.910456	0.908732
	C120	C	0.375835	0.008598	0.613508
	C121	C	0.618557	0.990391	0.615887
	C122	C	0.615356	0.008433	0.372168
	C123	C	0.373400	0.991461	0.369809
	C124	C	0.616755	0.376650	0.000402
	C125	C	0.616203	0.621166	0.984925
	C126	C	0.372528	0.622275	0.002416
	C127	C	0.373595	0.376807	0.984506
	C128	C	0.004267	0.620480	0.369366
	C129	C	0.985839	0.618430	0.611907
	C130	C	0.004033	0.377322	0.614137
	C131	C	0.987350	0.378758	0.370937
	C132	C	0.874868	0.507184	0.113606
	C133	C	0.116826	0.489583	0.114099
	C134	C	0.116068	0.507671	0.870385
	C135	C	0.873667	0.489804	0.870793
	C136	C	0.118369	0.875829	0.500653
	C137	C	0.116192	0.119772	0.484251
	C138	C	0.873905	0.122025	0.500146
	C139	C	0.874774	0.877628	0.484482
	C140	C	0.504671	0.119173	0.871412
	C141	C	0.485871	0.120381	0.113692
	C142	C	0.504224	0.880007	0.113872
	C143	C	0.486558	0.878519	0.871114
	C144	C	0.374811	0.888374	0.672246
	C145	C	0.622725	0.109099	0.676891
	C146	C	0.621620	0.890276	0.310217
	C147	C	0.367372	0.110113	0.308278
	C148	C	0.677754	0.374233	0.881941
	C149	C	0.677769	0.622502	0.103243
	C150	C	0.313866	0.622336	0.882939
	C151	C	0.313910	0.375200	0.103530
	C152	C	0.882970	0.680398	0.367389
	C153	C	0.107642	0.675513	0.612941
	C154	C	0.883203	0.318068	0.614974
	C155	C	0.107800	0.317175	0.368901
	C156	C	0.884014	0.373128	0.674406
	C157	C	0.106539	0.619463	0.671805
	C158	C	0.883667	0.623146	0.309503
	C159	C	0.107675	0.373984	0.311143
	C160	C	0.369229	0.682816	0.884125
	C161	C	0.620378	0.681764	0.103078
	C162	C	0.620574	0.315395	0.882622
	C163	C	0.369829	0.315253	0.102385
	C164	C	0.676996	0.888778	0.370422
	C165	C	0.677627	0.110628	0.616603
	C166	C	0.318716	0.887554	0.612596
	C167	C	0.311423	0.110671	0.367391
	C168	C	0.873500	0.386967	0.172933
	C169	C	0.119548	0.609314	0.173164
	C170	C	0.119165	0.388005	0.811389
	C171	C	0.869425	0.609091	0.810326
	C172	C	0.174494	0.878929	0.380020
	C173	C	0.174523	0.118640	0.604295
	C174	C	0.814505	0.122285	0.380713
	C175	C	0.817490	0.877701	0.604711
	C176	C	0.382968	0.177866	0.870072
	C177	C	0.607341	0.178640	0.114655
	C178	C	0.382115	0.822729	0.114152
	C179	C	0.608039	0.819316	0.872076
	C180	C	0.383124	0.878479	0.172923
	C181	C	0.606172	0.124178	0.174608
	C182	C	0.383536	0.121290	0.812155
	C183	C	0.608317	0.875914	0.813998
	C184	C	0.871948	0.180918	0.380729
	C185	C	0.119585	0.179549	0.602952
	C186	C	0.117342	0.819601	0.380267
	C187	C	0.874341	0.818433	0.604004
	C188	C	0.175853	0.387388	0.870777
	C189	C	0.172990	0.611249	0.112209
	C190	C	0.816800	0.386334	0.113705
	C191	C	0.814769	0.610773	0.870976
	C192	C	0.399363	0.092891	0.590481
	C193	C	0.593271	0.906882	0.591278
	C194	C	0.588858	0.091249	0.397267
	C195	C	0.400348	0.908609	0.394876
	C196	C	0.591095	0.402292	0.082448
	C197	C	0.590186	0.596356	0.902444
	C198	C	0.397459	0.597943	0.085810
	C199	C	0.399269	0.402122	0.902033
	C200	C	0.088548	0.595433	0.394076
	C201	C	0.901283	0.594387	0.587229
	C202	C	0.087810	0.402618	0.589364
	C203	C	0.903427	0.404714	0.395645
	C204	C	0.899653	0.590487	0.089073
	C205	C	0.092805	0.405591	0.090980
	C206	C	0.090224	0.591318	0.894129
	C207	C	0.900003	0.406693	0.895758
	C208	C	0.094924	0.898223	0.584849
	C209	C	0.090443	0.095365	0.401364
	C210	C	0.899435	0.097121	0.583157
	C211	C	0.898837	0.902081	0.401163
	C212	C	0.589154	0.093995	0.896688
	C213	C	0.402003	0.094813	0.088234
	C214	C	0.588315	0.904188	0.089501
	C215	C	0.401864	0.903775	0.894392
	Zn216	Zn	0.496650	-0.000560	0.743316
	Zn217	Zn	0.495244	0.000356	0.241845
	Zn218	Zn	0.745811	0.498591	-0.007790
	Zn219	Zn	0.244624	0.499107	-0.006608
	Zn220	Zn	-0.004914	0.747382	0.491940
	Zn221	Zn	-0.004192	0.250717	0.492058
	Zn222	Zn	-0.005872	0.498526	0.741455
	Zn223	Zn	-0.003799	0.498320	0.242130
	Zn224	Zn	0.494423	0.751489	-0.006485
	Zn225	Zn	0.495113	0.246865	-0.007636
	Zn226	Zn	0.745208	-0.000354	0.492989
	Zn227	Zn	0.246691	-0.000350	0.492226
	N228	N	0.409404	0.964795	0.673104
	N229	N	0.586831	0.033273	0.676444
	N230	N	0.584072	0.965548	0.311109
	N231	N	0.405319	0.034931	0.309619
	N232	N	0.675369	0.411817	0.956121
	N233	N	0.675195	0.585548	0.028724
	N234	N	0.316004	0.585374	0.957519
	N235	N	0.316103	0.412984	0.029166
	N236	N	0.959128	0.678897	0.403949
	N237	N	0.031607	0.674842	0.576198
	N238	N	0.958899	0.320452	0.578093
	N239	N	0.031903	0.320068	0.405537
	N240	N	0.960203	0.409117	0.673967
	N241	N	0.029644	0.584930	0.671411
	N242	N	0.960091	0.586790	0.310414
	N243	N	0.032093	0.411766	0.312413
	N244	N	0.404917	0.683020	0.959576
	N245	N	0.582542	0.680913	0.028461
	N246	N	0.583382	0.316584	0.957224
	N247	N	0.406563	0.316263	0.027527
	N248	N	0.673153	0.963204	0.408396
	N249	N	0.675197	0.035788	0.579407
	N250	N	0.319099	0.963379	0.577074
	N251	N	0.315118	0.036011	0.405083
	N252	N	0.908642	0.463263	0.172990
	N253	N	0.085880	0.532520	0.174908
	N254	N	0.082512	0.463821	0.811249
	N255	N	0.904910	0.532922	0.809889
	N256	N	0.175526	0.912769	0.456112
	N257	N	0.172501	0.082283	0.529352
	N258	N	0.815483	0.086698	0.456068
	N259	N	0.817619	0.913881	0.529387
	N260	N	0.459311	0.176769	0.906310
	N261	N	0.531269	0.176600	0.077929
	N262	N	0.458344	0.823320	0.078335
	N263	N	0.531242	0.820714	0.906811
	N264	N	0.460063	0.913017	0.173250
	N265	N	0.529585	0.089042	0.174292
	N266	N	0.460224	0.085463	0.813115
	N267	N	0.531645	0.911806	0.813291
	N268	N	0.907742	0.181136	0.456251
	N269	N	0.084101	0.180415	0.527275
	N270	N	0.083306	0.817530	0.456340
	N271	N	0.908963	0.818290	0.528107
	N272	N	0.173821	0.462806	0.906912
	N273	N	0.171514	0.535871	0.076316
	N274	N	0.817391	0.461922	0.077850
	N275	N	0.817310	0.535620	0.907771
	O276	O	0.323762	0.301845	0.686571
	H277	H	0.335602	0.318882	0.695557
	H278	H	0.317606	0.321669	0.666330
	O279	O	0.484838	0.287495	0.680094
	H280	H	0.487083	0.295989	0.684981
	H281	H	0.480867	0.270456	0.688513
	O282	O	0.490459	0.410209	0.444623
	H283	H	0.484590	0.417543	0.451126
	H284	H	0.485973	0.412597	0.442810
	O285	O	0.894123	1.143733	-0.181331
	H286	H	0.882567	1.132556	-0.191090
	H287	H	0.873059	1.156561	-0.179784
	O288	O	0.447061	0.530050	0.652713
	H289	H	0.464578	0.538257	0.651145
	H290	H	0.473569	0.546341	0.649657
	O291	O	0.597556	0.393960	0.705982
	H292	H	0.611991	0.398572	0.703959
	H293	H	0.590114	0.381772	0.700371
	O294	O	0.988125	1.099103	0.979127
	H295	H	1.009952	1.094710	0.979111
	H296	H	0.983292	1.099610	0.994252
	O297	O	0.285172	0.443022	0.476421
	H298	H	0.283646	0.459140	0.489843
	H299	H	0.299866	0.438434	0.477252
	O300	O	0.295550	0.469670	0.691813
	H301	H	0.324960	0.501176	0.697538
	H302	H	0.276794	0.474716	0.702030
	O303	O	0.691638	0.340314	0.299143
	H304	H	0.663029	0.345998	0.287075
	H305	H	0.689995	0.356051	0.276465
	O306	O	0.013334	0.154914	1.143486
	H307	H	0.022607	0.151394	1.140446
	H308	H	0.019314	0.167633	1.160036
	O309	O	1.143844	0.032221	-0.120367
	H310	H	1.144856	0.042320	-0.134254
	H311	H	1.149693	0.040899	-0.118036
	O312	O	0.536928	0.548431	0.298601
	H313	H	0.508967	0.549099	0.285225
	H314	H	0.519535	0.571371	0.308730
	O315	O	0.520272	0.284270	0.272877
	H316	H	0.523231	0.242595	0.242338
	H317	H	0.494322	0.281154	0.311243
	O318	O	-0.177575	0.054041	0.160870
	H319	H	-0.178748	0.061119	0.158816
	H320	H	-0.156859	0.054238	0.149813
	O321	O	0.698053	0.699057	0.511304
	H322	H	0.696502	0.683715	0.501932
	H323	H	0.712094	0.707793	0.504592
	O324	O	0.978641	-0.039105	0.860432
	H325	H	0.990726	-0.038809	0.868195
	H326	H	0.979237	-0.042375	0.858830
	O327	O	0.673503	0.479425	0.284792
	H328	H	0.656466	0.490338	0.271849
	H329	H	0.673537	0.479893	0.266926
	O330	O	-0.103615	0.992033	1.123611
	H331	H	-0.103111	0.986809	1.121160
	H332	H	-0.099853	0.987705	1.129714
	O333	O	0.065490	1.182713	-0.180571
	H334	H	0.053704	1.193376	-0.192092
	H335	H	0.040028	1.196302	-0.185504
	O336	O	1.107677	0.828478	-0.192202
	H337	H	1.115530	0.848198	-0.202480
	H338	H	1.126512	0.820477	-0.209291
	O339	O	-0.108755	0.957845	0.955197
	H340	H	-0.119820	0.964929	0.947856
	H341	H	-0.083439	0.964398	0.938439
	O342	O	0.474874	0.711967	0.275508
	H343	H	0.452704	0.722791	0.288141
	H344	H	0.474966	0.736481	0.255312
	O345	O	-0.502755	-0.358984	1.549661
	H346	H	-0.509721	-0.361077	1.523484
	H347	H	-0.492658	-0.358826	1.557355
	O348	O	0.407522	0.554894	0.550507
	H349	H	0.399345	0.557868	0.547540
	H350	H	0.423087	0.557844	0.555995
	O351	O	1.131931	0.951012	-0.113150
	H352	H	1.133791	0.959982	-0.114667
	H353	H	1.120203	0.946975	-0.115772
	O354	O	1.076067	0.933299	1.054332
	H355	H	1.080995	0.933296	1.046249
	H356	H	1.064962	0.929734	1.050541
	O357	O	-0.166886	0.099292	-0.041113
	H358	H	-0.149819	0.104011	-0.046548
	H359	H	-0.168813	0.102134	-0.044172
	O360	O	0.521589	0.709363	0.707873
	H361	H	0.539963	0.726409	0.716629
	H362	H	0.538473	0.719532	0.702329
	O363	O	1.602928	-0.691488	0.544748
	H364	H	1.624351	-0.685786	0.527424
	H365	H	1.598756	-0.706041	0.548481
	O366	O	0.285985	0.286307	1.516687
	H367	H	0.270947	0.273770	1.528879
	H368	H	0.281453	0.293988	1.519697
	O369	O	1.123087	-0.163150	0.880488
	H370	H	1.120850	-0.165738	0.864179
	H371	H	1.146114	-0.172085	0.871849
	O372	O	0.698097	0.522873	0.701664
	H373	H	0.703168	0.516314	0.701711
	H374	H	0.713041	0.518529	0.697865
	O375	O	-0.032342	0.036545	1.008449
	H376	H	-0.022110	0.024002	1.001409
	H377	H	-0.020387	0.027370	1.021468
	O378	O	0.312297	0.692847	0.300190
	H379	H	0.323346	0.708083	0.299851
	H380	H	0.300019	0.642868	0.292254
	O381	O	-0.149455	0.844724	0.157749
	H382	H	-0.151149	0.844041	0.147624
	H383	H	-0.139506	0.854670	0.148982
	O384	O	0.378002	0.613107	0.691592
	H385	H	0.386250	0.614955	0.676758
	H386	H	0.398701	0.601990	0.682316
	O387	O	0.414017	0.444434	0.282180
	H388	H	0.424520	0.418321	0.273150
	H389	H	0.406339	0.444034	0.300161
	O390	O	0.912185	0.915197	0.033218
	H391	H	0.908128	0.910794	0.027773
	H392	H	0.912754	0.922204	0.028179
	O393	O	0.827750	0.101583	0.887827
	H394	H	0.824992	0.070958	0.885668
	H395	H	0.811616	0.104886	0.891414
	O396	O	0.709080	0.284642	0.432044
	H397	H	0.731306	0.263899	0.420855
	H398	H	0.713023	0.283398	0.392642
	O399	O	0.448238	0.318657	0.432716
	H400	H	0.451406	0.314195	0.449856
	H401	H	0.456983	0.325877	0.453593
	O402	O	0.927054	1.020482	-0.078536
	H403	H	0.922976	1.006866	-0.090903
	H404	H	0.936926	1.009460	-0.076478
	O405	O	0.280869	0.533355	0.276102
	H406	H	0.288139	0.506631	0.291014
	H407	H	0.249386	0.526565	0.251340
	O408	O	0.466481	0.504461	0.530034
	H409	H	0.486889	0.483003	0.533119
	H410	H	0.455401	0.514634	0.533436
	O411	O	0.981593	0.961861	0.825379
	H412	H	0.976819	0.961902	0.833853
	H413	H	1.000009	0.960342	0.822473
	O414	O	0.480018	0.711840	0.468649
	H415	H	0.495773	0.705664	0.462743
	H416	H	0.482593	0.710304	0.478281
	O417	O	0.020652	0.843973	1.123814
	H418	H	0.011580	0.833747	1.111499
	H419	H	0.013436	0.844362	1.129472
	O420	O	0.180797	1.131958	1.083725
	H421	H	0.190917	1.135905	1.085618
	H422	H	0.178941	1.110499	1.077178
	O423	O	0.119816	1.004916	0.139120
	H424	H	0.110342	0.996404	0.134616
	H425	H	0.127482	1.006021	0.130452
	O426	O	0.707115	0.474680	0.515541
	H427	H	0.709960	0.457592	0.500377
	H428	H	0.711667	0.475958	0.510134
	O429	O	0.686330	0.686069	0.675071
	H430	H	0.685897	0.648913	0.678925
	H431	H	0.689871	0.697931	0.646370
	O432	O	0.631126	0.631800	0.425868
	H433	H	0.623640	0.626878	0.419553
	H434	H	0.635853	0.616912	0.416834
	O435	O	0.118638	0.011337	0.017339
	H436	H	0.133330	0.009028	0.010494
	H437	H	0.121015	0.012047	0.001396
	O438	O	-0.148350	0.807061	1.182162
	H439	H	-0.157755	0.799551	1.189422
	H440	H	-0.149583	0.817188	1.180170
	O441	O	0.289544	0.682000	0.460189
	H442	H	0.296609	0.672456	0.424188
	H443	H	0.263312	0.703306	0.454140
