data_Molecule from HDF5

_cell_length_a		15.798971
_cell_length_b		16.281067
_cell_length_c		16.408118
_cell_angle_alpha	89.472446
_cell_angle_beta	91.574732
_cell_angle_gamma	89.932906
_symmetry_space_group_name_H-M	'P 1'
_symmetry_Int_Tables_number		1

loop_
	_symmetry_equiv_pos_as_xyz
	x,y,z

loop_
	_atom_site_label
	_atom_site_type_symbol
	_atom_site_fract_x
	_atom_site_fract_y
	_atom_site_fract_z
	H0	H	0.398891	0.835260	0.717770
	H1	H	0.608457	0.160007	0.720207
	H2	H	0.602077	0.834551	0.288219
	H3	H	0.392551	0.159146	0.274919
	H4	H	0.706912	0.403881	0.832526
	H5	H	0.721289	0.590018	0.161507
	H6	H	0.284644	0.593961	0.835700
	H7	H	0.297066	0.401151	0.164799
	H8	H	0.832749	0.710822	0.394997
	H9	H	0.169741	0.708688	0.599573
	H10	H	0.833435	0.287270	0.592343
	H11	H	0.169930	0.290438	0.406693
	H12	H	0.832062	0.399587	0.705555
	H13	H	0.167229	0.599215	0.717256
	H14	H	0.836989	0.604714	0.275511
	H15	H	0.169920	0.400525	0.293078
	H16	H	0.392167	0.719175	0.838609
	H17	H	0.610408	0.713052	0.161563
	H18	H	0.598302	0.280712	0.836550
	H19	H	0.403107	0.277812	0.160344
	H20	H	0.707202	0.831408	0.414404
	H21	H	0.716429	0.163703	0.597307
	H22	H	0.295265	0.831324	0.588225
	H23	H	0.289267	0.164485	0.400894
	H24	H	0.900756	0.337631	0.217657
	H25	H	0.111182	0.661802	0.218412
	H26	H	0.102194	0.336175	0.785161
	H27	H	0.893839	0.661091	0.775460
	H28	H	0.204427	0.909114	0.333155
	H29	H	0.219420	0.091159	0.662867
	H30	H	0.782415	0.094782	0.335569
	H31	H	0.800104	0.905364	0.666140
	H32	H	0.332566	0.209139	0.896018
	H33	H	0.670349	0.207155	0.100618
	H34	H	0.334233	0.784737	0.094596
	H35	H	0.670009	0.787742	0.908644
	H36	H	0.331821	0.897257	0.206935
	H37	H	0.667833	0.095630	0.217808
	H38	H	0.335720	0.099692	0.778745
	H39	H	0.669880	0.896873	0.792544
	H40	H	0.893618	0.218403	0.336134
	H41	H	0.108791	0.214541	0.661875
	H42	H	0.100142	0.782165	0.337223
	H43	H	0.903987	0.778113	0.659785
	H44	H	0.206090	0.331117	0.913505
	H45	H	0.216523	0.663243	0.093998
	H46	H	0.798170	0.331691	0.087544
	H47	H	0.787890	0.663688	0.899100
	H48	H	0.417652	0.114402	0.595111
	H49	H	0.595416	0.880409	0.599553
	H50	H	0.594027	0.115404	0.408657
	H51	H	0.409284	0.882148	0.404722
	H52	H	0.594877	0.387387	0.116979
	H53	H	0.590073	0.597065	0.881998
	H54	H	0.405520	0.589998	0.118491
	H55	H	0.396579	0.400041	0.879622
	H56	H	0.127802	0.592615	0.397331
	H57	H	0.879486	0.583123	0.589275
	H58	H	0.127755	0.402112	0.605830
	H59	H	0.877511	0.404645	0.400112
	H60	H	0.121543	0.403224	0.587352
	H61	H	0.877077	0.596454	0.589354
	H62	H	0.124977	0.602699	0.416154
	H63	H	0.882512	0.410930	0.410823
	H64	H	0.420141	0.587419	0.112435
	H65	H	0.589034	0.594078	0.882476
	H66	H	0.613692	0.402409	0.118390
	H67	H	0.404216	0.410866	0.884299
	H68	H	0.589750	0.117091	0.400339
	H69	H	0.598331	0.880946	0.598566
	H70	H	0.412274	0.114022	0.586785
	H71	H	0.398870	0.878656	0.402576
	H72	H	0.910443	0.616690	0.090003
	H73	H	0.095971	0.381739	0.095212
	H74	H	0.090660	0.617138	0.901393
	H75	H	0.908651	0.380624	0.897760
	H76	H	0.114077	0.900645	0.620193
	H77	H	0.087726	0.101987	0.381764
	H78	H	0.903800	0.093491	0.618044
	H79	H	0.903123	0.900442	0.381158
	H80	H	0.624737	0.098874	0.913198
	H81	H	0.378310	0.085196	0.092284
	H82	H	0.621496	0.910112	0.096704
	H83	H	0.380882	0.907549	0.905460
	H84	H	0.625049	0.905317	0.103062
	H85	H	0.377271	0.096885	0.088118
	H86	H	0.618771	0.084079	0.917473
	H87	H	0.381957	0.909977	0.905530
	H88	H	0.920441	0.088698	0.611643
	H89	H	0.094991	0.100209	0.380092
	H90	H	0.090220	0.917107	0.610077
	H91	H	0.899785	0.905554	0.381920
	H92	H	0.088497	0.614432	0.905521
	H93	H	0.101133	0.379259	0.103543
	H94	H	0.916702	0.616264	0.091793
	H95	H	0.907014	0.380671	0.901282
	H96	H	0.407801	0.116709	0.595240
	H97	H	0.598555	0.880096	0.602049
	H98	H	0.584953	0.113240	0.406503
	H99	H	0.406182	0.878441	0.395801
	H100	H	0.591885	0.410156	0.109544
	H101	H	0.586957	0.596921	0.882939
	H102	H	0.415798	0.600861	0.117812
	H103	H	0.409723	0.397721	0.882716
	H104	H	0.118344	0.582456	0.415328
	H105	H	0.881894	0.590868	0.577156
	H106	H	0.120026	0.418758	0.596180
	H107	H	0.880938	0.416822	0.398850
	H108	H	0.914815	0.614930	0.085184
	H109	H	0.091771	0.381910	0.103969
	H110	H	0.093776	0.615982	0.906781
	H111	H	0.904129	0.379776	0.897683
	H112	H	0.088095	0.889382	0.615929
	H113	H	0.090204	0.095237	0.383741
	H114	H	0.916769	0.105560	0.616939
	H115	H	0.905768	0.906378	0.383188
	H116	H	0.625809	0.088121	0.901224
	H117	H	0.381995	0.088497	0.080845
	H118	H	0.622906	0.902190	0.095684
	H119	H	0.380162	0.909913	0.904143
	C120	C	0.382951	0.006391	0.619633
	C121	C	0.626628	0.989172	0.626558
	C122	C	0.619463	0.006641	0.380369
	C123	C	0.375906	0.988829	0.373100
	C124	C	0.624869	0.373886	0.006688
	C125	C	0.623049	0.621422	0.989989
	C126	C	0.380323	0.621577	0.008622
	C127	C	0.379092	0.375052	0.990800
	C128	C	0.012133	0.621785	0.377099
	C129	C	0.990934	0.618893	0.617666
	C130	C	0.010984	0.378980	0.620529
	C131	C	0.992228	0.382162	0.379217
	C132	C	0.884255	0.507683	0.117571
	C133	C	0.126742	0.489949	0.125937
	C134	C	0.120363	0.506979	0.879093
	C135	C	0.876554	0.489415	0.871358
	C136	C	0.123055	0.876637	0.507197
	C137	C	0.124132	0.124212	0.489928
	C138	C	0.879448	0.123841	0.507637
	C139	C	0.878774	0.876424	0.490490
	C140	C	0.511594	0.119186	0.878337
	C141	C	0.491034	0.118056	0.118927
	C142	C	0.511043	0.876972	0.122399
	C143	C	0.492581	0.879299	0.880156
	C144	C	0.381879	0.883349	0.676701
	C145	C	0.626367	0.111955	0.681097
	C146	C	0.619932	0.883256	0.326875
	C147	C	0.375085	0.111279	0.315309
	C148	C	0.673157	0.380726	0.882470
	C149	C	0.682885	0.613783	0.112765
	C150	C	0.322061	0.616756	0.885231
	C151	C	0.330820	0.379499	0.114980
	C152	C	0.884194	0.675091	0.375732
	C153	C	0.118610	0.672661	0.618899
	C154	C	0.883862	0.324182	0.613969
	C155	C	0.119428	0.327213	0.385477
	C156	C	0.883148	0.380225	0.670292
	C157	C	0.117388	0.617936	0.677253
	C158	C	0.886324	0.622186	0.316224
	C159	C	0.119614	0.382229	0.328975
	C160	C	0.375999	0.679070	0.886800
	C161	C	0.627454	0.674769	0.112800
	C162	C	0.619253	0.319294	0.884567
	C163	C	0.383586	0.317632	0.112505
	C164	C	0.672662	0.881638	0.389440
	C165	C	0.680334	0.113740	0.620122
	C166	C	0.329890	0.881406	0.612747
	C167	C	0.323704	0.113931	0.378029
	C168	C	0.883802	0.385205	0.175976
	C169	C	0.128446	0.612903	0.179537
	C170	C	0.120170	0.384165	0.824654
	C171	C	0.875966	0.612580	0.815090
	C172	C	0.171073	0.884950	0.382837
	C173	C	0.181843	0.115583	0.613623
	C174	C	0.820327	0.118112	0.384701
	C175	C	0.832307	0.882209	0.615597
	C176	C	0.383871	0.172765	0.876874
	C177	C	0.619298	0.170968	0.120005
	C178	C	0.384124	0.821897	0.116174
	C179	C	0.619619	0.824461	0.886596
	C180	C	0.383182	0.878070	0.171914
	C181	C	0.618091	0.115525	0.178273
	C182	C	0.385522	0.118611	0.818454
	C183	C	0.619632	0.878892	0.829033
	C184	C	0.875904	0.179352	0.385013
	C185	C	0.126922	0.177166	0.612786
	C186	C	0.118797	0.822174	0.384773
	C187	C	0.884015	0.818984	0.612574
	C188	C	0.171881	0.381613	0.888474
	C189	C	0.181341	0.613811	0.117959
	C190	C	0.832423	0.382233	0.111380
	C191	C	0.823158	0.613886	0.876554
	C192	C	0.405847	0.092723	0.598652
	C193	C	0.604013	0.902835	0.606333
	C194	C	0.596390	0.092848	0.399455
	C195	C	0.398257	0.902066	0.394700
	C196	C	0.605916	0.394007	0.092596
	C197	C	0.596500	0.601817	0.904538
	C198	C	0.406325	0.599386	0.094173
	C199	C	0.397784	0.396589	0.904564
	C200	C	0.100672	0.599316	0.402293
	C201	C	0.902450	0.596754	0.592569
	C202	C	0.100025	0.401507	0.601976
	C203	C	0.903399	0.404443	0.397627
	C204	C	0.907052	0.593665	0.095484
	C205	C	0.103434	0.403417	0.106653
	C206	C	0.097681	0.593562	0.898708
	C207	C	0.899690	0.402822	0.892524
	C208	C	0.103512	0.896512	0.593204
	C209	C	0.098544	0.104923	0.404144
	C210	C	0.905678	0.102313	0.593363
	C211	C	0.897405	0.897715	0.404482
	C212	C	0.600123	0.096759	0.903380
	C213	C	0.402278	0.096507	0.094201
	C214	C	0.600009	0.899237	0.104005
	C215	C	0.403962	0.902421	0.899209
	Zn216	Zn	0.503294	-0.002374	0.752668
	Zn217	Zn	0.499139	-0.002631	0.247132
	Zn218	Zn	0.752579	0.497731	-0.003634
	Zn219	Zn	0.251342	0.497815	0.001052
	Zn220	Zn	0.001178	0.746502	0.498236
	Zn221	Zn	0.001594	0.254763	0.498623
	Zn222	Zn	-0.000191	0.498777	0.745958
	Zn223	Zn	0.003593	0.500400	0.252115
	Zn224	Zn	0.501727	0.752898	0.000644
	Zn225	Zn	0.501388	0.245196	-0.001529
	Zn226	Zn	0.750906	-0.001122	0.501529
	Zn227	Zn	0.252023	-0.001263	0.497547
	N228	N	0.413950	0.962042	0.681189
	N229	N	0.593802	0.033438	0.685242
	N230	N	0.587594	0.961841	0.320971
	N231	N	0.407022	0.032544	0.312209
	N232	N	0.676864	0.414144	0.959275
	N233	N	0.680210	0.581339	0.035431
	N234	N	0.324466	0.581585	0.962023
	N235	N	0.327864	0.414640	0.038232
	N236	N	0.963523	0.675109	0.412974
	N237	N	0.039008	0.673114	0.582215
	N238	N	0.964344	0.323224	0.584032
	N239	N	0.039189	0.326700	0.415907
	N240	N	0.963428	0.413434	0.674881
	N241	N	0.037053	0.585118	0.676636
	N242	N	0.966871	0.589786	0.316911
	N243	N	0.039566	0.415783	0.324813
	N244	N	0.411545	0.682196	0.964541
	N245	N	0.591181	0.679837	0.035495
	N246	N	0.590143	0.314814	0.962806
	N247	N	0.413251	0.315081	0.034405
	N248	N	0.672619	0.959478	0.422063
	N249	N	0.680666	0.036474	0.587048
	N250	N	0.330500	0.958788	0.577804
	N251	N	0.324168	0.036680	0.413172
	N252	N	0.915332	0.464218	0.180002
	N253	N	0.095246	0.534784	0.184620
	N254	N	0.088991	0.463197	0.818586
	N255	N	0.908364	0.534086	0.811772
	N256	N	0.173963	0.918038	0.459905
	N257	N	0.180549	0.083504	0.536181
	N258	N	0.822371	0.084223	0.462079
	N259	N	0.828870	0.917239	0.538894
	N260	N	0.463497	0.173462	0.913324
	N261	N	0.539422	0.172717	0.084020
	N262	N	0.464568	0.821051	0.086159
	N263	N	0.539724	0.824766	0.917837
	N264	N	0.463206	0.911808	0.175874
	N265	N	0.537399	0.083451	0.177908
	N266	N	0.465993	0.085997	0.819141
	N267	N	0.539560	0.912372	0.824949
	N268	N	0.911972	0.182949	0.462527
	N269	N	0.091744	0.182580	0.534876
	N270	N	0.089808	0.816685	0.463122
	N271	N	0.911967	0.815091	0.533835
	N272	N	0.172289	0.459049	0.921691
	N273	N	0.180379	0.536233	0.085233
	N274	N	0.832539	0.459181	0.075658
	N275	N	0.823210	0.536290	0.910805
	O276	O	-0.031485	0.014401	0.087440
	H277	H	-0.037424	0.001195	0.085924
	H278	H	-0.033998	0.016794	0.085591
	O279	O	0.556779	0.494286	0.558613
	H280	H	0.563534	0.496528	0.565372
	H281	H	0.547762	0.494100	0.558942
	O282	O	0.517496	0.452035	0.496870
	H283	H	0.506053	0.438850	0.492385
	H284	H	0.534964	0.458926	0.495258
	O285	O	-0.065212	1.085322	0.905952
	H286	H	-0.062388	1.078479	0.903669
	H287	H	-0.061632	1.094725	0.896678
	O288	O	0.567233	0.464386	0.383197
	H289	H	0.558275	0.460811	0.400720
	H290	H	0.565982	0.458723	0.386835
	O291	O	1.027473	0.991580	1.050998
	H292	H	1.011629	0.999249	1.051065
	H293	H	1.026586	0.993457	1.044309
	O294	O	0.523140	1.436291	0.333151
	H295	H	0.516487	1.441359	0.325807
	H296	H	0.516763	1.423878	0.329698
	O297	O	0.936883	0.042096	0.887926
	H298	H	0.944378	0.047739	0.882598
	H299	H	0.930109	0.039482	0.889423
	O300	O	0.452608	0.509817	0.439049
	H301	H	0.458201	0.502416	0.442373
	H302	H	0.453016	0.504131	0.446742
	O303	O	1.009964	0.062671	-0.031788
	H304	H	1.019176	0.054053	-0.043586
	H305	H	1.007435	0.076914	-0.026478
	O306	O	0.071683	0.990952	0.939137
	H307	H	0.075318	0.988989	0.936363
	H308	H	0.074762	0.986753	0.952267
	O309	O	0.508323	0.498786	0.649616
	H310	H	0.514308	0.492784	0.663471
	H311	H	0.519428	0.500422	0.640871
	O312	O	0.932532	-0.053916	1.016539
	H313	H	0.927382	-0.052655	1.018436
	H314	H	0.939513	-0.062276	1.018418
	O315	O	0.426971	0.622525	0.582257
	H316	H	0.429164	0.624987	0.580097
	H317	H	0.436760	0.612435	0.584663
	O318	O	0.521051	0.474696	0.411460
	H319	H	0.508372	0.485447	0.402770
	H320	H	0.520238	0.471170	0.409250
	O321	O	0.983651	0.963823	1.007739
	H322	H	0.979453	0.966783	0.994399
	H323	H	0.984240	0.959921	1.007938
	O324	O	0.441929	0.495452	0.354384
	H325	H	0.432191	0.492748	0.349239
	H326	H	0.439943	0.497487	0.347292
	O327	O	0.554123	0.450534	0.577660
	H328	H	0.559257	0.470812	0.579654
	H329	H	0.548132	0.466125	0.582665
	O330	O	1.030998	-0.006817	0.983118
	H331	H	1.038804	0.001594	0.990825
	H332	H	1.027755	-0.010082	0.982683
	O333	O	0.975421	1.006561	-0.008323
	H334	H	0.974085	1.004166	-0.001494
	H335	H	0.986575	1.012992	-0.002079
	O336	O	0.520050	0.624679	0.616394
	H337	H	0.521522	0.634640	0.614618
	H338	H	0.513423	0.616181	0.593203
	O339	O	0.542608	0.603516	0.537663
	H340	H	0.551171	0.599471	0.544895
	H341	H	0.538952	0.609977	0.541575
	O342	O	-0.040000	0.966451	-0.050069
	H343	H	-0.039844	0.969482	-0.056542
	H344	H	-0.029393	0.963941	-0.055627
	O345	O	0.014527	0.071498	0.026466
	H346	H	0.009513	0.063209	0.027317
	H347	H	0.006392	0.079029	0.025370
	O348	O	0.475527	0.584982	0.472686
	H349	H	0.468351	0.586565	0.476134
	H350	H	0.467638	0.575909	0.473598
	O351	O	0.503177	0.542960	0.414787
	H352	H	0.520191	0.550684	0.413910
	H353	H	0.504256	0.539885	0.417018
	O354	O	0.585148	0.504279	0.507191
	H355	H	0.581728	0.489228	0.496810
	H356	H	0.582021	0.504777	0.506402
	O357	O	0.442348	0.388678	0.548926
	H358	H	0.447205	0.397970	0.540071
	H359	H	0.453308	0.389732	0.554794
	O360	O	-0.059927	-0.072441	0.122785
	H361	H	-0.061900	-0.070765	0.135736
	H362	H	-0.074314	-0.070695	0.119826
	O363	O	0.397334	0.461702	0.476157
	H364	H	0.402679	0.461917	0.482571
	H365	H	0.399704	0.455996	0.471451
	O366	O	-0.072609	-0.047946	1.066058
	H367	H	-0.079529	-0.060681	1.059833
	H368	H	-0.074135	-0.039691	1.069755
	O369	O	0.484193	0.394931	0.638059
	H370	H	0.485526	0.401831	0.633736
	H371	H	0.475566	0.392001	0.649887
