data_Molecule from HDF5

_cell_length_a		16.174183
_cell_length_b		16.144216
_cell_length_c		16.256429
_cell_angle_alpha	90.594673
_cell_angle_beta	89.305424
_cell_angle_gamma	90.026204
_symmetry_space_group_name_H-M	'P 1'
_symmetry_Int_Tables_number		1

loop_
	_symmetry_equiv_pos_as_xyz
	x,y,z

loop_
	_atom_site_label
	_atom_site_type_symbol
	_atom_site_fract_x
	_atom_site_fract_y
	_atom_site_fract_z
	H0	H	0.398000	0.835783	0.711204
	H1	H	0.595991	0.166121	0.711556
	H2	H	0.601432	0.837427	0.278601
	H3	H	0.402796	0.166397	0.289529
	H4	H	0.716282	0.401443	0.832485
	H5	H	0.712427	0.600453	0.161952
	H6	H	0.290297	0.597363	0.832088
	H7	H	0.282562	0.403957	0.160463
	H8	H	0.834124	0.710172	0.404487
	H9	H	0.164967	0.713909	0.594127
	H10	H	0.833922	0.289782	0.594929
	H11	H	0.165481	0.285863	0.396590
	H12	H	0.836404	0.400837	0.716002
	H13	H	0.165259	0.600637	0.709583
	H14	H	0.835108	0.597784	0.286387
	H15	H	0.164145	0.397606	0.278883
	H16	H	0.404886	0.712945	0.833484
	H17	H	0.596718	0.717113	0.162303
	H18	H	0.600624	0.283937	0.833554
	H19	H	0.400971	0.292065	0.163667
	H20	H	0.712808	0.834962	0.396734
	H21	H	0.711773	0.166001	0.596291
	H22	H	0.285099	0.835665	0.594917
	H23	H	0.287177	0.165678	0.401573
	H24	H	0.899262	0.335277	0.210409
	H25	H	0.097865	0.664651	0.212444
	H26	H	0.101763	0.336497	0.779254
	H27	H	0.904546	0.665751	0.788690
	H28	H	0.215946	0.899900	0.333338
	H29	H	0.210681	0.099843	0.662614
	H30	H	0.787532	0.096942	0.332747
	H31	H	0.782735	0.902586	0.660938
	H32	H	0.333902	0.212264	0.905128
	H33	H	0.665187	0.215000	0.093157
	H34	H	0.334041	0.789802	0.097037
	H35	H	0.665286	0.789208	0.898448
	H36	H	0.335410	0.903837	0.213627
	H37	H	0.664787	0.102325	0.211234
	H38	H	0.333881	0.099275	0.787892
	H39	H	0.663023	0.900001	0.778975
	H40	H	0.903976	0.210920	0.332020
	H41	H	0.095784	0.217465	0.661275
	H42	H	0.100870	0.782764	0.333988
	H43	H	0.900076	0.789198	0.662810
	H44	H	0.215307	0.335941	0.895340
	H45	H	0.211853	0.666417	0.095414
	H46	H	0.784737	0.335553	0.095592
	H47	H	0.789720	0.666288	0.902458
	H48	H	0.412212	0.114421	0.584483
	H49	H	0.577351	0.885073	0.593706
	H50	H	0.610774	0.123604	0.405684
	H51	H	0.405099	0.882021	0.407280
	H52	H	0.590246	0.413782	0.112710
	H53	H	0.597826	0.586786	0.882153
	H54	H	0.394598	0.606300	0.120990
	H55	H	0.410520	0.415183	0.882983
	H56	H	0.120964	0.587714	0.389407
	H57	H	0.882828	0.593537	0.590309
	H58	H	0.119229	0.403608	0.588410
	H59	H	0.885107	0.415122	0.402513
	H60	H	0.115630	0.410394	0.583705
	H61	H	0.881907	0.590326	0.599391
	H62	H	0.120344	0.604775	0.409010
	H63	H	0.878035	0.400293	0.396121
	H64	H	0.400987	0.582097	0.112749
	H65	H	0.590330	0.597414	0.881249
	H66	H	0.588723	0.404255	0.115307
	H67	H	0.416404	0.398021	0.879960
	H68	H	0.585985	0.121142	0.391575
	H69	H	0.594787	0.885981	0.574720
	H70	H	0.392628	0.122673	0.592624
	H71	H	0.406596	0.880832	0.398602
	H72	H	0.904611	0.620890	0.099354
	H73	H	0.090217	0.385989	0.077831
	H74	H	0.097127	0.618717	0.906290
	H75	H	0.905606	0.381783	0.904254
	H76	H	0.088049	0.920479	0.610829
	H77	H	0.084873	0.085529	0.384839
	H78	H	0.898473	0.104790	0.618657
	H79	H	0.899293	0.902770	0.377108
	H80	H	0.619132	0.099823	0.903243
	H81	H	0.381464	0.093810	0.097535
	H82	H	0.616141	0.912143	0.085031
	H83	H	0.382329	0.906127	0.909327
	H84	H	0.618117	0.912078	0.091659
	H85	H	0.380091	0.099124	0.098172
	H86	H	0.615209	0.089547	0.909138
	H87	H	0.380944	0.910404	0.903062
	H88	H	0.899623	0.083933	0.613069
	H89	H	0.094331	0.104631	0.377624
	H90	H	0.082767	0.897110	0.614694
	H91	H	0.910523	0.909669	0.382164
	H92	H	0.096957	0.620476	0.900699
	H93	H	0.102197	0.378159	0.090116
	H94	H	0.912551	0.617135	0.093155
	H95	H	0.911793	0.382408	0.901795
	H96	H	0.410915	0.121613	0.605915
	H97	H	0.601248	0.876381	0.598326
	H98	H	0.586705	0.113019	0.418387
	H99	H	0.413411	0.884173	0.404559
	H100	H	0.597888	0.408931	0.116352
	H101	H	0.602559	0.598283	0.876685
	H102	H	0.418309	0.599146	0.112349
	H103	H	0.398400	0.402389	0.875631
	H104	H	0.112249	0.580743	0.413264
	H105	H	0.880419	0.599059	0.598120
	H106	H	0.118067	0.411313	0.591198
	H107	H	0.883362	0.401100	0.412587
	H108	H	0.903272	0.618097	0.089286
	H109	H	0.085042	0.382325	0.094516
	H110	H	0.092445	0.619246	0.903488
	H111	H	0.910302	0.383689	0.908642
	H112	H	0.104649	0.905824	0.619215
	H113	H	0.106732	0.086295	0.378972
	H114	H	0.916560	0.096059	0.610952
	H115	H	0.911673	0.896274	0.379366
	H116	H	0.618067	0.088690	0.897021
	H117	H	0.382735	0.096963	0.093831
	H118	H	0.618527	0.905903	0.087944
	H119	H	0.379210	0.903021	0.903257
	C120	C	0.376543	0.009974	0.620703
	C121	C	0.619792	0.991992	0.618287
	C122	C	0.622817	0.009893	0.375173
	C123	C	0.379979	0.992006	0.377258
	C124	C	0.622191	0.379287	0.006050
	C125	C	0.623335	0.623327	0.988970
	C126	C	0.378319	0.622516	0.006184
	C127	C	0.378686	0.378976	0.988557
	C128	C	0.008537	0.619685	0.377002
	C129	C	0.991289	0.622450	0.621292
	C130	C	0.008657	0.379671	0.617817
	C131	C	0.991185	0.376599	0.374128
	C132	C	0.877386	0.509137	0.120684
	C133	C	0.120583	0.491700	0.116723
	C134	C	0.123984	0.510133	0.873900
	C135	C	0.881024	0.491946	0.877699
	C136	C	0.121800	0.877891	0.506314
	C137	C	0.121679	0.121891	0.489093
	C138	C	0.877736	0.121868	0.505650
	C139	C	0.877797	0.877016	0.488764
	C140	C	0.508226	0.121496	0.877227
	C141	C	0.490834	0.124497	0.122155
	C142	C	0.508244	0.881302	0.118171
	C143	C	0.490201	0.878232	0.875355
	C144	C	0.378304	0.885217	0.673879
	C145	C	0.616768	0.116578	0.673855
	C146	C	0.620919	0.886220	0.317789
	C147	C	0.382758	0.116754	0.325592
	C148	C	0.678734	0.380692	0.882113
	C149	C	0.675419	0.620781	0.113024
	C150	C	0.326407	0.618310	0.881851
	C151	C	0.321310	0.383036	0.111967
	C152	C	0.883873	0.673400	0.382558
	C153	C	0.115752	0.676654	0.615356
	C154	C	0.883831	0.326133	0.616180
	C155	C	0.115762	0.322402	0.375966
	C156	C	0.884984	0.381646	0.676059
	C157	C	0.115847	0.620417	0.672941
	C158	C	0.884406	0.617290	0.323857
	C159	C	0.115101	0.377683	0.317223
	C160	C	0.383483	0.675804	0.882394
	C161	C	0.618065	0.678975	0.112913
	C162	C	0.621104	0.322587	0.882449
	C163	C	0.380427	0.327268	0.113501
	C164	C	0.676398	0.884843	0.376523
	C165	C	0.674520	0.116529	0.616366
	C166	C	0.322112	0.885230	0.616096
	C167	C	0.325166	0.116273	0.381340
	C168	C	0.878992	0.384816	0.173787
	C169	C	0.118160	0.615753	0.173524
	C170	C	0.121969	0.385706	0.817481
	C171	C	0.883734	0.616407	0.824925
	C172	C	0.177918	0.879730	0.382761
	C173	C	0.174019	0.120323	0.613388
	C174	C	0.824517	0.117867	0.381944
	C175	C	0.821255	0.881538	0.612186
	C176	C	0.383430	0.175484	0.882899
	C177	C	0.615929	0.178144	0.115807
	C178	C	0.383644	0.827051	0.116958
	C179	C	0.615158	0.824960	0.877113
	C180	C	0.384507	0.883484	0.175345
	C181	C	0.615239	0.122371	0.174559
	C182	C	0.383506	0.119398	0.824558
	C183	C	0.614080	0.880561	0.818172
	C184	C	0.882368	0.174796	0.381439
	C185	C	0.116921	0.178579	0.612654
	C186	C	0.120687	0.821356	0.382978
	C187	C	0.879977	0.825405	0.613294
	C188	C	0.178391	0.385462	0.875143
	C189	C	0.174502	0.616683	0.115200
	C190	C	0.822012	0.384922	0.116722
	C191	C	0.826648	0.616532	0.881634
	C192	C	0.398642	0.096971	0.600476
	C193	C	0.597747	0.904891	0.595553
	C194	C	0.601033	0.096829	0.398618
	C195	C	0.401869	0.904866	0.397611
	C196	C	0.599148	0.402352	0.092359
	C197	C	0.602872	0.600973	0.902447
	C198	C	0.398449	0.601695	0.092911
	C199	C	0.401760	0.399011	0.901942
	C200	C	0.095569	0.597557	0.397727
	C201	C	0.904136	0.600742	0.601678
	C202	C	0.095167	0.401854	0.594614
	C203	C	0.904693	0.398893	0.397077
	C204	C	0.900023	0.596236	0.099993
	C205	C	0.098883	0.404835	0.094092
	C206	C	0.101979	0.596994	0.896619
	C207	C	0.902801	0.404964	0.898736
	C208	C	0.098633	0.900982	0.592723
	C209	C	0.101320	0.098864	0.402808
	C210	C	0.898646	0.101136	0.591897
	C211	C	0.900569	0.897035	0.402092
	C212	C	0.594880	0.099335	0.897201
	C213	C	0.404077	0.103092	0.102192
	C214	C	0.595089	0.903467	0.094975
	C215	C	0.403282	0.900101	0.898538
	Zn216	Zn	0.498184	0.000485	0.747805
	Zn217	Zn	0.500420	0.002054	0.248404
	Zn218	Zn	0.751759	0.501133	-0.002068
	Zn219	Zn	0.250202	0.501075	-0.003720
	Zn220	Zn	-0.000576	0.748546	0.498606
	Zn221	Zn	-0.000360	0.250592	0.496521
	Zn222	Zn	0.001067	0.501026	0.748217
	Zn223	Zn	-0.000308	0.499116	0.247089
	Zn224	Zn	0.499712	0.751259	-0.002399
	Zn225	Zn	0.500065	0.250278	-0.001587
	Zn226	Zn	0.749507	-0.000112	0.496694
	Zn227	Zn	0.250903	0.000383	0.497746
	N228	N	0.411477	0.963848	0.676895
	N229	N	0.583346	0.038160	0.674982
	N230	N	0.588412	0.964988	0.316824
	N231	N	0.416232	0.038357	0.322843
	N232	N	0.679434	0.415346	0.959964
	N233	N	0.678734	0.586998	0.035117
	N234	N	0.323023	0.586040	0.959962
	N235	N	0.320084	0.414284	0.033532
	N236	N	0.961927	0.674724	0.415211
	N237	N	0.037223	0.677975	0.583929
	N238	N	0.961503	0.324876	0.580668
	N239	N	0.037541	0.321302	0.410486
	N240	N	0.963704	0.414235	0.677234
	N241	N	0.037355	0.587499	0.676962
	N242	N	0.963062	0.584378	0.320554
	N243	N	0.036819	0.410946	0.316027
	N244	N	0.414971	0.678696	0.960682
	N245	N	0.586366	0.680737	0.034611
	N246	N	0.587016	0.321261	0.960472
	N247	N	0.415637	0.324613	0.035818
	N248	N	0.677674	0.962920	0.411491
	N249	N	0.676288	0.038087	0.582345
	N250	N	0.320966	0.963619	0.583644
	N251	N	0.323186	0.037520	0.412829
	N252	N	0.912720	0.462993	0.176115
	N253	N	0.085236	0.537136	0.174572
	N254	N	0.089082	0.464301	0.816430
	N255	N	0.916782	0.537897	0.822326
	N256	N	0.178732	0.914202	0.460608
	N257	N	0.177221	0.085811	0.535670
	N258	N	0.821528	0.085697	0.459984
	N259	N	0.819827	0.912892	0.533868
	N260	N	0.461850	0.177002	0.915044
	N261	N	0.537598	0.179896	0.084140
	N262	N	0.461745	0.825333	0.082282
	N263	N	0.537174	0.823446	0.912054
	N264	N	0.463039	0.916671	0.176105
	N265	N	0.536571	0.089952	0.178637
	N266	N	0.461873	0.086355	0.820938
	N267	N	0.535158	0.912716	0.816871
	N268	N	0.914619	0.177772	0.459451
	N269	N	0.085185	0.179601	0.534431
	N270	N	0.086560	0.819993	0.460940
	N271	N	0.914355	0.822291	0.535288
	N272	N	0.179826	0.463762	0.909483
	N273	N	0.176110	0.538510	0.080483
	N274	N	0.820976	0.463451	0.084464
	N275	N	0.825174	0.538060	0.913966
	O276	O	1.039944	0.996227	0.010853
	H277	H	1.044548	0.994458	0.013501
	H278	H	1.039121	1.006540	0.015295
	O279	O	0.018266	0.041324	1.017103
	H280	H	0.022185	0.049029	1.027266
	H281	H	0.022484	0.048269	1.015249
	O282	O	-0.045221	-0.002016	-0.059604
	H283	H	-0.035471	0.004034	-0.066210
	H284	H	-0.034917	-0.002451	-0.050376
	O285	O	0.523550	0.538814	0.523982
	H286	H	0.527625	0.532980	0.520922
	H287	H	0.525414	0.533679	0.523924
	O288	O	-0.018662	0.032643	0.083510
	H289	H	-0.009556	0.028453	0.083900
	H290	H	-0.020320	0.025980	0.089616
	O291	O	0.004424	1.054693	0.013423
	H292	H	-0.005577	1.059493	0.012767
	H293	H	0.010117	1.046480	0.014107
	O294	O	-0.029385	1.024593	0.011153
	H295	H	-0.023769	1.022268	0.000022
	H296	H	-0.028468	1.015144	0.017632
	O297	O	0.545159	0.526944	0.447283
	H298	H	0.547155	0.528484	0.461503
	H299	H	0.555085	0.537819	0.450295
	O300	O	0.571713	0.473208	0.432717
	H301	H	0.576837	0.478181	0.425873
	H302	H	0.556589	0.468237	0.427987
	O303	O	0.991020	0.005205	0.938642
	H304	H	0.988500	0.006756	0.925049
	H305	H	0.983106	0.009281	0.937353
	O306	O	-0.067824	1.035500	1.049452
	H307	H	-0.068883	1.036335	1.045659
	H308	H	-0.071206	1.032096	1.051833
	O309	O	0.012994	0.987959	1.014447
	H310	H	0.011584	0.992477	1.019150
	H311	H	0.007553	0.981149	1.017507
	O312	O	0.013820	-0.015028	0.977437
	H313	H	0.016404	-0.016915	0.970630
	H314	H	0.009289	-0.015367	0.981325
	O315	O	0.531634	0.466417	0.434626
	H316	H	0.535852	0.454992	0.429550
	H317	H	0.533688	0.468663	0.433026
	O318	O	0.489009	-0.535633	0.461823
	H319	H	0.487300	-0.532910	0.461689
	H320	H	0.491843	-0.534484	0.455096
	O321	O	0.445620	0.540776	0.465172
	H322	H	0.440381	0.536736	0.466307
	H323	H	0.435526	0.545097	0.474000
	O324	O	1.034902	0.014930	1.030844
	H325	H	1.032508	0.021392	1.019977
	H326	H	1.035071	0.019874	1.036325
	O327	O	0.992091	1.012741	1.065084
	H328	H	0.991305	1.017951	1.075001
	H329	H	0.990925	1.004086	1.063170
	O330	O	0.506169	0.445151	0.476678
	H331	H	0.512564	0.458416	0.480738
	H332	H	0.509708	0.437456	0.478587
	O333	O	0.594716	0.484506	0.538294
	H334	H	0.581402	0.484964	0.535626
	H335	H	0.601277	0.485029	0.546449
	O336	O	0.488496	0.433839	0.512865
	H337	H	0.493410	0.445264	0.514861
	H338	H	0.487708	0.427701	0.508353
	O339	O	0.484841	0.526711	0.512539
	H340	H	0.477434	0.523899	0.514663
	H341	H	0.484034	0.532426	0.518605
	O342	O	0.482657	0.517843	0.485794
	H343	H	0.480080	0.510115	0.470390
	H344	H	0.487333	0.515920	0.483828
	O345	O	0.410937	0.472055	0.508676
	H346	H	0.414806	0.474770	0.500709
	H347	H	0.414260	0.467367	0.508602
