data_Molecule from HDF5

_cell_length_a		16.521667
_cell_length_b		16.581584
_cell_length_c		16.456281
_cell_angle_alpha	89.843242
_cell_angle_beta	90.171523
_cell_angle_gamma	89.852548
_symmetry_space_group_name_H-M	'P 1'
_symmetry_Int_Tables_number		1

loop_
	_symmetry_equiv_pos_as_xyz
	x,y,z

loop_
	_atom_site_label
	_atom_site_type_symbol
	_atom_site_fract_x
	_atom_site_fract_y
	_atom_site_fract_z
	H0	H	0.410675	0.857682	0.712761
	H1	H	0.617740	0.171909	0.711776
	H2	H	0.616469	0.857340	0.272308
	H3	H	0.407208	0.171414	0.268449
	H4	H	0.733191	0.410805	0.835181
	H5	H	0.736221	0.619864	0.150422
	H6	H	0.294295	0.617887	0.833872
	H7	H	0.291493	0.407454	0.149615
	H8	H	0.859566	0.740245	0.380240
	H9	H	0.169241	0.736923	0.600266
	H10	H	0.856342	0.293187	0.597670
	H11	H	0.170389	0.291862	0.388399
	H12	H	0.855116	0.412246	0.710626
	H13	H	0.170090	0.618011	0.714254
	H14	H	0.859003	0.622742	0.265951
	H15	H	0.171308	0.408327	0.271364
	H16	H	0.408321	0.735921	0.834647
	H17	H	0.620299	0.736657	0.149993
	H18	H	0.618190	0.295278	0.834933
	H19	H	0.407049	0.290441	0.148995
	H20	H	0.734525	0.857969	0.387206
	H21	H	0.735834	0.170277	0.596904
	H22	H	0.293567	0.857681	0.596460
	H23	H	0.288879	0.170731	0.384381
	H24	H	0.905323	0.359141	0.218515
	H25	H	0.120108	0.669525	0.215724
	H26	H	0.117326	0.356310	0.773052
	H27	H	0.911317	0.671294	0.773089
	H28	H	0.237463	0.906487	0.335353
	H29	H	0.235016	0.117161	0.649108
	H30	H	0.793066	0.118985	0.333492
	H31	H	0.794685	0.910633	0.648806
	H32	H	0.355915	0.235324	0.886995
	H33	H	0.669334	0.238014	0.100317
	H34	H	0.356071	0.793278	0.096947
	H35	H	0.670271	0.792897	0.887186
	H36	H	0.354632	0.911481	0.211450
	H37	H	0.668902	0.121695	0.216043
	H38	H	0.355535	0.116847	0.772562
	H39	H	0.672905	0.913451	0.774630
	H40	H	0.907909	0.236528	0.334212
	H41	H	0.118602	0.233136	0.649951
	H42	H	0.122021	0.790055	0.336329
	H43	H	0.909447	0.792317	0.647587
	H44	H	0.237339	0.358606	0.886749
	H45	H	0.235688	0.671035	0.097899
	H46	H	0.787412	0.360000	0.103774
	H47	H	0.793024	0.670976	0.888050
	H48	H	0.420040	0.127214	0.579902
	H49	H	0.601517	0.903981	0.579815
	H50	H	0.599397	0.127123	0.398590
	H51	H	0.436941	0.906056	0.399262
	H52	H	0.595648	0.423596	0.104911
	H53	H	0.600527	0.598021	0.882489
	H54	H	0.427102	0.604342	0.104322
	H55	H	0.429314	0.425887	0.881452
	H56	H	0.126522	0.604619	0.404470
	H57	H	0.902539	0.603028	0.576169
	H58	H	0.127619	0.419560	0.583788
	H59	H	0.901220	0.431919	0.399756
	H60	H	0.125641	0.422711	0.580019
	H61	H	0.901364	0.600771	0.584123
	H62	H	0.122272	0.600428	0.412830
	H63	H	0.899676	0.419872	0.403198
	H64	H	0.423645	0.605705	0.106617
	H65	H	0.597012	0.610107	0.879398
	H66	H	0.604057	0.425176	0.107061
	H67	H	0.422138	0.422414	0.877386
	H68	H	0.599261	0.124355	0.408086
	H69	H	0.609119	0.901139	0.581181
	H70	H	0.424104	0.127358	0.584331
	H71	H	0.422629	0.907412	0.415833
	H72	H	0.920601	0.624889	0.074579
	H73	H	0.099985	0.403799	0.081194
	H74	H	0.105520	0.626504	0.904831
	H75	H	0.923036	0.401851	0.904159
	H76	H	0.099670	0.926541	0.601505
	H77	H	0.098188	0.101597	0.380523
	H78	H	0.923171	0.096685	0.603283
	H79	H	0.923917	0.932484	0.379515
	H80	H	0.625453	0.106438	0.907348
	H81	H	0.401720	0.104873	0.076418
	H82	H	0.625813	0.927787	0.084974
	H83	H	0.400614	0.919888	0.905694
	H84	H	0.626013	0.921746	0.080086
	H85	H	0.403589	0.100057	0.076639
	H86	H	0.626329	0.101683	0.899165
	H87	H	0.403788	0.930722	0.904716
	H88	H	0.931038	0.106114	0.603179
	H89	H	0.100929	0.105656	0.378752
	H90	H	0.101705	0.923332	0.604583
	H91	H	0.931197	0.923400	0.379190
	H92	H	0.104346	0.627819	0.900172
	H93	H	0.104981	0.403287	0.077673
	H94	H	0.927305	0.625767	0.084762
	H95	H	0.921973	0.400079	0.902285
	H96	H	0.425490	0.125956	0.578270
	H97	H	0.603320	0.900579	0.586813
	H98	H	0.607502	0.127473	0.403511
	H99	H	0.416629	0.898500	0.396702
	H100	H	0.598876	0.431533	0.103555
	H101	H	0.609495	0.606151	0.877567
	H102	H	0.424179	0.601500	0.104866
	H103	H	0.422167	0.429945	0.880897
	H104	H	0.123336	0.595321	0.404156
	H105	H	0.899439	0.608423	0.581559
	H106	H	0.126915	0.424353	0.585313
	H107	H	0.905347	0.427916	0.411492
	H108	H	0.931990	0.620885	0.074910
	H109	H	0.105137	0.401542	0.083571
	H110	H	0.100863	0.625272	0.902987
	H111	H	0.923921	0.400915	0.902028
	H112	H	0.104132	0.927496	0.603827
	H113	H	0.103173	0.101250	0.378125
	H114	H	0.919282	0.107509	0.607715
	H115	H	0.920573	0.922241	0.375077
	H116	H	0.629745	0.110546	0.899417
	H117	H	0.401501	0.102448	0.081003
	H118	H	0.622668	0.928168	0.077517
	H119	H	0.398366	0.925548	0.895828
	C120	C	0.392473	0.022889	0.612812
	C121	C	0.635844	1.005840	0.613611
	C122	C	0.634188	0.022942	0.370704
	C123	C	0.391486	1.006736	0.369969
	C124	C	0.632912	0.394440	0.001327
	C125	C	0.634937	0.636544	0.984402
	C126	C	0.392874	0.635597	0.000834
	C127	C	0.392072	0.393064	0.983872
	C128	C	0.022246	0.634917	0.371275
	C129	C	1.004832	0.635355	0.613077
	C130	C	0.022333	0.391642	0.614621
	C131	C	1.005417	0.393480	0.371623
	C132	C	0.892642	0.522099	0.113269
	C133	C	0.135763	0.506227	0.113783
	C134	C	0.135360	0.522490	0.870675
	C135	C	0.891729	0.505119	0.871227
	C136	C	0.135475	0.892516	0.500116
	C137	C	0.133838	0.134562	0.483208
	C138	C	0.892184	0.135925	0.500430
	C139	C	0.892979	0.893237	0.481817
	C140	C	0.522487	0.137056	0.870095
	C141	C	0.504747	0.135878	0.112716
	C142	C	0.521257	0.893300	0.113560
	C143	C	0.505395	0.893917	0.870955
	C144	C	0.391856	0.904756	0.672723
	C145	C	0.637072	0.124180	0.672608
	C146	C	0.635656	0.904801	0.311401
	C147	C	0.388353	0.124553	0.308774
	C148	C	0.693538	0.392385	0.882758
	C149	C	0.695851	0.638367	0.103006
	C150	C	0.333622	0.636891	0.881486
	C151	C	0.331510	0.389399	0.102117
	C152	C	0.905928	0.698652	0.364103
	C153	C	0.122625	0.695893	0.617163
	C154	C	0.903702	0.332729	0.616061
	C155	C	0.123547	0.332554	0.369471
	C156	C	0.903022	0.392009	0.672361
	C157	C	0.122762	0.636967	0.674104
	C158	C	0.905468	0.639901	0.307388
	C159	C	0.123882	0.390321	0.311233
	C160	C	0.390403	0.695546	0.881968
	C161	C	0.638133	0.696494	0.102866
	C162	C	0.636281	0.334699	0.882590
	C163	C	0.389068	0.331257	0.101856
	C164	C	0.694159	0.905005	0.368801
	C165	C	0.695604	0.123599	0.615261
	C166	C	0.333665	0.904578	0.614773
	C167	C	0.329586	0.124040	0.366017
	C168	C	0.887971	0.405635	0.177127
	C169	C	0.138478	0.623160	0.175093
	C170	C	0.136409	0.403987	0.812020
	C171	C	0.891311	0.623881	0.812367
	C172	C	0.197117	0.888708	0.382759
	C173	C	0.194456	0.135878	0.601959
	C174	C	0.832735	0.137779	0.381149
	C175	C	0.834025	0.891495	0.601056
	C176	C	0.403476	0.195822	0.868364
	C177	C	0.622105	0.197320	0.117452
	C178	C	0.403194	0.833312	0.115618
	C179	C	0.623596	0.833758	0.869159
	C180	C	0.402347	0.892294	0.172489
	C181	C	0.621990	0.139485	0.175299
	C182	C	0.403126	0.136972	0.811517
	C183	C	0.624751	0.893349	0.813024
	C184	C	0.889944	0.196153	0.381575
	C185	C	0.136721	0.193599	0.602381
	C186	C	0.139556	0.830900	0.382935
	C187	C	0.890949	0.832747	0.600480
	C188	C	0.195923	0.404849	0.868762
	C189	C	0.195645	0.623786	0.116387
	C190	C	0.828884	0.406299	0.120350
	C191	C	0.832841	0.623679	0.869783
	C192	C	0.416236	0.105360	0.587741
	C193	C	0.611576	0.923337	0.589580
	C194	C	0.608964	0.105022	0.395995
	C195	C	0.417806	0.925287	0.396351
	C196	C	0.607059	0.419512	0.083628
	C197	C	0.609612	0.611969	0.901624
	C198	C	0.417904	0.610867	0.083664
	C199	C	0.417492	0.418875	0.901483
	C200	C	0.103160	0.607738	0.399109
	C201	C	0.922467	0.610966	0.587633
	C202	C	0.105313	0.415484	0.590219
	C203	C	0.923550	0.419138	0.397153
	C204	C	0.919071	0.602616	0.085912
	C205	C	0.110614	0.424251	0.088126
	C206	C	0.110709	0.605061	0.895550
	C207	C	0.916058	0.422423	0.895798
	C208	C	0.109211	0.918387	0.582208
	C209	C	0.108054	0.110019	0.400621
	C210	C	0.917300	0.110541	0.583166
	C211	C	0.917963	0.918604	0.399486
	C212	C	0.605632	0.113049	0.894807
	C213	C	0.423439	0.109835	0.085746
	C214	C	0.603487	0.918394	0.088135
	C215	C	0.422554	0.918319	0.895109
	Zn216	Zn	0.514194	0.014890	0.742228
	Zn217	Zn	0.513004	0.014853	0.241750
	Zn218	Zn	0.762491	0.514164	-0.007140
	Zn219	Zn	0.264255	0.514757	-0.007437
	Zn220	Zn	0.014204	0.764282	0.490953
	Zn221	Zn	0.013467	0.263997	0.492582
	Zn222	Zn	0.013122	0.513739	0.742238
	Zn223	Zn	0.013808	0.514100	0.242108
	Zn224	Zn	0.513424	0.764969	-0.007686
	Zn225	Zn	0.513634	0.264865	-0.008146
	Zn226	Zn	0.764071	0.014646	0.491276
	Zn227	Zn	0.262785	0.014168	0.491498
	N228	N	0.427673	0.979450	0.671822
	N229	N	0.600648	0.049928	0.671839
	N230	N	0.599172	0.979362	0.312364
	N231	N	0.425712	0.050530	0.311057
	N232	N	0.691759	0.428823	0.957625
	N233	N	0.694125	0.601903	0.028184
	N234	N	0.334810	0.600521	0.956545
	N235	N	0.333126	0.427005	0.027551
	N236	N	0.979361	0.695344	0.403229
	N237	N	0.048078	0.695204	0.579853
	N238	N	0.979048	0.332210	0.581018
	N239	N	0.049087	0.334402	0.406253
	N240	N	0.977930	0.427656	0.671785
	N241	N	0.048663	0.599847	0.671590
	N242	N	0.978724	0.600655	0.311697
	N243	N	0.049331	0.427399	0.312441
	N244	N	0.426493	0.695035	0.957234
	N245	N	0.601154	0.695594	0.028039
	N246	N	0.599492	0.335567	0.957310
	N247	N	0.425828	0.333473	0.027187
	N248	N	0.693405	0.979562	0.404882
	N249	N	0.695278	0.048884	0.579536
	N250	N	0.333954	0.978978	0.578231
	N251	N	0.331327	0.049698	0.403294
	N252	N	0.927129	0.478486	0.172860
	N253	N	0.102079	0.548922	0.173628
	N254	N	0.099469	0.478359	0.813188
	N255	N	0.926927	0.549001	0.813008
	N256	N	0.194504	0.926381	0.456739
	N257	N	0.192951	0.100027	0.526767
	N258	N	0.833731	0.101315	0.456184
	N259	N	0.835069	0.928333	0.526371
	N260	N	0.478851	0.196062	0.903930
	N261	N	0.548251	0.195026	0.079010
	N262	N	0.478289	0.833728	0.080009
	N263	N	0.548295	0.833786	0.904268
	N264	N	0.476914	0.928670	0.171445
	N265	N	0.548053	0.101894	0.172531
	N266	N	0.478168	0.101268	0.812490
	N267	N	0.550135	0.929845	0.813858
	N268	N	0.925880	0.195393	0.456907
	N269	N	0.099778	0.192942	0.527512
	N270	N	0.101968	0.833185	0.457063
	N271	N	0.926776	0.833475	0.525231
	N272	N	0.195483	0.479654	0.904296
	N273	N	0.194109	0.549762	0.079200
	N274	N	0.831683	0.479403	0.081176
	N275	N	0.832660	0.548594	0.905318
	O276	O	0.804571	0.808616	0.160900
	H277	H	0.814572	0.836146	0.164594
	H278	H	0.795747	0.782117	0.178103
	O279	O	-0.047107	-0.119838	1.146356
	H280	H	-0.052860	-0.106237	1.144417
	H281	H	-0.057518	-0.124184	1.160211
	O282	O	0.662172	0.716300	0.592506
	H283	H	0.675464	0.734822	0.621715
	H284	H	0.641185	0.721155	0.575682
	O285	O	0.363910	0.702141	0.630212
	H286	H	0.361655	0.695968	0.617679
	H287	H	0.369259	0.700384	0.631914
	O288	O	0.792000	0.018445	0.996332
	H289	H	0.791128	0.019088	0.980967
	H290	H	0.787495	-0.003959	0.975213
	O291	O	0.475196	0.310985	0.707984
	H292	H	0.467725	0.306059	0.720582
	H293	H	0.485701	0.309703	0.723853
	O294	O	0.227247	0.229413	0.016442
	H295	H	0.254972	0.257684	0.034877
	H296	H	0.213568	0.224877	0.046310
	O297	O	0.542455	-0.267537	0.690797
	H298	H	0.548631	-0.277176	0.697227
	H299	H	0.550350	-0.258047	0.701489
	O300	O	-0.014932	0.165593	-0.048317
	H301	H	-0.021216	0.149457	-0.040810
	H302	H	-0.027147	0.168603	-0.051302
	O303	O	0.221264	-0.015560	-0.218406
	H304	H	0.234471	-0.024056	-0.227310
	H305	H	0.230288	-0.008588	-0.201359
	O306	O	1.226954	0.005663	0.157043
	H307	H	1.245348	0.008106	0.175821
	H308	H	1.214023	0.003937	0.170325
	O309	O	0.381110	0.532587	0.570748
	H310	H	0.398996	0.523882	0.574261
	H311	H	0.380854	0.519809	0.573720
	O312	O	0.504472	0.502259	0.268795
	H313	H	0.487032	0.510505	0.258941
	H314	H	0.500669	0.498301	0.275946
	O315	O	0.297493	0.567100	0.481692
	H316	H	0.295655	0.574206	0.484480
	H317	H	0.311742	0.556515	0.489261
	O318	O	0.778812	0.779460	-0.243249
	H319	H	0.794824	0.777730	-0.217739
	H320	H	0.793299	0.795841	-0.264965
	O321	O	0.707806	0.304788	0.470753
	H322	H	0.722206	0.285489	0.464718
	H323	H	0.702296	0.302121	0.447557
	O324	O	1.101064	-0.188418	0.788719
	H325	H	1.074734	-0.198291	0.785941
	H326	H	1.104038	-0.177328	0.785328
	O327	O	0.312349	0.708030	0.300787
	H328	H	0.300713	0.716508	0.344907
	H329	H	0.332306	0.710974	0.287698
	O330	O	0.229653	0.998583	0.006730
	H331	H	0.239905	1.002181	0.039495
	H332	H	0.222055	0.993197	0.006849
	O333	O	0.480460	0.582739	0.688941
	H334	H	0.485000	0.579595	0.681976
	H335	H	0.457224	0.580301	0.684127
	O336	O	0.395755	0.355848	0.624016
	H337	H	0.377904	0.343399	0.639851
	H338	H	0.408901	0.353109	0.623006
	O339	O	0.538337	0.311625	0.287817
	H340	H	0.518606	0.307119	0.301515
	H341	H	0.520834	0.304788	0.286693
	O342	O	0.231207	0.796050	-0.039406
	H343	H	0.239317	0.796711	-0.050599
	H344	H	0.250648	0.784562	-0.065458
	O345	O	1.031182	0.889276	0.001676
	H346	H	1.044644	0.888400	-0.001358
	H347	H	1.034157	0.889073	0.001471
	O348	O	0.500547	0.536333	0.527572
	H349	H	0.497583	0.542242	0.525307
	H350	H	0.523354	0.537565	0.531596
	O351	O	0.081721	0.110852	0.812556
	H352	H	0.067326	0.114641	0.827846
	H353	H	0.092417	0.096491	0.800889
	O354	O	0.825672	-0.193996	1.017607
	H355	H	0.801152	-0.212639	1.033506
	H356	H	0.840163	-0.195011	1.044973
	O357	O	0.385922	0.725241	0.462172
	H358	H	0.377972	0.707557	0.451700
	H359	H	0.391911	0.735774	0.469443
	O360	O	0.057061	-0.014934	0.956575
	H361	H	0.062702	-0.003776	0.961241
	H362	H	0.075595	-0.017113	0.953393
	O363	O	0.314086	0.378049	0.361653
	H364	H	0.325176	0.391604	0.369395
	H365	H	0.331693	0.391419	0.364693
	O366	O	1.246104	0.245573	0.752562
	H367	H	1.231093	0.238507	0.765979
	H368	H	1.249873	0.233008	0.773885
	O369	O	-0.188231	0.037670	0.784288
	H370	H	-0.176092	0.043723	0.786881
	H371	H	-0.204355	0.055047	0.763417
	O372	O	-0.008693	1.228836	1.017218
	H373	H	-0.014721	1.222250	1.030369
	H374	H	0.001689	1.230312	1.030497
	O375	O	0.964932	0.046875	0.173070
	H376	H	0.954523	0.058458	0.170608
	H377	H	0.980152	0.036261	0.183388
	O378	O	0.297931	0.483370	0.695281
	H379	H	0.297658	0.474152	0.697755
	H380	H	0.291056	0.475440	0.705145
	O381	O	-0.031035	0.931819	-0.097587
	H382	H	-0.042585	0.929883	-0.104171
	H383	H	-0.024901	0.937663	-0.093166
	O384	O	0.295632	0.541816	0.270843
	H385	H	0.264722	0.548464	0.246588
	H386	H	0.296512	0.575119	0.284584
	O387	O	0.307922	0.302143	0.511339
	H388	H	0.290685	0.295780	0.523070
	H389	H	0.303320	0.312467	0.529814
	O390	O	0.028935	0.809241	1.129943
	H391	H	0.023588	0.818229	1.123575
	H392	H	0.046315	0.798680	1.123083
	O393	O	1.048384	0.230407	0.193770
	H394	H	1.035466	0.246578	0.189292
	H395	H	1.032936	0.243852	0.198506
	O396	O	0.215555	0.212127	0.187423
	H397	H	0.200053	0.206953	0.201687
	H398	H	0.207712	0.217233	0.209100
	O399	O	-0.095586	0.897519	0.782547
	H400	H	-0.101041	0.898363	0.797355
	H401	H	-0.085859	0.913607	0.777201
	O402	O	0.981047	0.228529	0.780033
	H403	H	0.998636	0.235839	0.768009
	H404	H	0.987645	0.233023	0.782034
	O405	O	0.736815	0.551071	0.712831
	H406	H	0.753094	0.557432	0.731991
	H407	H	0.742982	0.575645	0.720117
	O408	O	1.171247	1.082145	1.022609
	H409	H	1.173025	1.082430	1.037322
	H410	H	1.183003	1.099180	1.032641
	O411	O	0.704086	0.322096	0.300178
	H412	H	0.669405	0.325278	0.298292
	H413	H	0.698067	0.338032	0.290853
	O414	O	-0.198968	0.222416	-0.039316
	H415	H	-0.203063	0.206459	-0.050812
	H416	H	-0.221943	0.244662	-0.041330
	O417	O	0.590422	0.473644	0.691583
	H418	H	0.593188	0.474291	0.697463
	H419	H	0.587807	0.489993	0.688472
	O420	O	0.930138	-0.100047	0.974481
	H421	H	0.926466	-0.101560	0.976110
	H422	H	0.935081	-0.100184	0.967904
	O423	O	1.092135	0.812344	0.101913
	H424	H	1.092910	0.821838	0.107502
	H425	H	1.083011	0.820133	0.098434
	O426	O	0.662079	0.696846	0.335395
	H427	H	0.662008	0.666242	0.342086
	H428	H	0.655155	0.688900	0.351638
	O429	O	0.478961	0.734225	0.271260
	H430	H	0.479497	0.765237	0.239886
	H431	H	0.475699	0.718796	0.277152
	O432	O	1.020115	0.154325	0.980551
	H433	H	1.024800	0.154413	0.973062
	H434	H	1.001065	0.157877	0.976353
	O435	O	0.735135	0.702584	0.522164
	H436	H	0.753001	0.709014	0.521896
	H437	H	0.750413	0.688957	0.525266
	O438	O	0.721345	0.491128	0.285935
	H439	H	0.741597	0.482114	0.276880
	H440	H	0.709909	0.495556	0.283047
	O441	O	0.683715	0.465574	0.522303
	H442	H	0.689829	0.440969	0.523637
	H443	H	0.682280	0.464926	0.539801
	O444	O	0.461277	0.291486	0.431117
	H445	H	0.445331	0.289737	0.443794
	H446	H	0.453598	0.301539	0.451748
	O447	O	0.818092	0.210941	0.799816
	H448	H	0.862729	0.217064	0.797981
	H449	H	0.798794	0.216000	0.804054
	O450	O	0.729188	0.545633	0.442816
	H451	H	0.720723	0.517188	0.467131
	H452	H	0.734594	0.542634	0.428655
	O453	O	0.507695	0.529123	0.305423
	H454	H	0.498518	0.526635	0.322278
	H455	H	0.503892	0.527297	0.302433
	O456	O	-0.200035	0.985639	1.204270
	H457	H	-0.194783	0.978888	1.205545
	H458	H	-0.218429	0.990726	1.210511
	O459	O	0.258280	0.778303	0.749145
	H460	H	0.239731	0.788065	0.745793
	H461	H	0.265441	0.771709	0.731077
	O462	O	0.525298	0.545670	0.513337
	H463	H	0.519719	0.562232	0.519556
	H464	H	0.536638	0.543056	0.509846
	O465	O	0.692351	0.333278	0.675709
	H466	H	0.694839	0.327218	0.671186
	H467	H	0.675376	0.351319	0.666682
	O468	O	-0.512705	0.679656	0.481294
	H469	H	-0.486583	0.691386	0.472003
	H470	H	-0.503793	0.691045	0.495201
	O471	O	0.130900	-0.021228	1.208724
	H472	H	0.121334	-0.018833	1.207162
	H473	H	0.142043	-0.020428	1.207548
	O474	O	0.835896	1.112906	0.094325
	H475	H	0.822410	1.107437	0.112573
	H476	H	0.833122	1.084389	0.075185
	O477	O	0.565179	0.288660	0.559532
	H478	H	0.564902	0.283276	0.577948
	H479	H	0.555896	0.284492	0.543452
