data_Molecule from HDF5

_cell_length_a		16.103418
_cell_length_b		16.258477
_cell_length_c		16.131236
_cell_angle_alpha	91.039767
_cell_angle_beta	90.583017
_cell_angle_gamma	90.885414
_symmetry_space_group_name_H-M	'P 1'
_symmetry_Int_Tables_number		1

loop_
	_symmetry_equiv_pos_as_xyz
	x,y,z

loop_
	_atom_site_label
	_atom_site_type_symbol
	_atom_site_fract_x
	_atom_site_fract_y
	_atom_site_fract_z
	H0	H	0.399206	0.837115	0.709861
	H1	H	0.602545	0.165330	0.723526
	H2	H	0.592428	0.837988	0.286539
	H3	H	0.400134	0.167921	0.289423
	H4	H	0.705338	0.402473	0.835955
	H5	H	0.713090	0.606572	0.166963
	H6	H	0.284550	0.592075	0.836867
	H7	H	0.282472	0.405074	0.167935
	H8	H	0.832713	0.710907	0.401747
	H9	H	0.162733	0.721964	0.606444
	H10	H	0.833551	0.287038	0.596252
	H11	H	0.163962	0.288108	0.402412
	H12	H	0.831134	0.404325	0.708727
	H13	H	0.162780	0.605570	0.719295
	H14	H	0.832721	0.593785	0.289131
	H15	H	0.164578	0.405633	0.288693
	H16	H	0.396522	0.709536	0.836877
	H17	H	0.600974	0.723290	0.165095
	H18	H	0.590559	0.285047	0.837642
	H19	H	0.395776	0.289809	0.168224
	H20	H	0.705900	0.837098	0.402972
	H21	H	0.715830	0.166535	0.605520
	H22	H	0.282157	0.838292	0.595679
	H23	H	0.284992	0.167409	0.406654
	H24	H	0.897237	0.337378	0.210050
	H25	H	0.103144	0.664450	0.222248
	H26	H	0.091720	0.339224	0.784593
	H27	H	0.899523	0.668340	0.789738
	H28	H	0.206546	0.903286	0.336850
	H29	H	0.214633	0.105505	0.668031
	H30	H	0.785398	0.093597	0.336649
	H31	H	0.785377	0.905948	0.668932
	H32	H	0.329926	0.208462	0.905087
	H33	H	0.660080	0.224222	0.108859
	H34	H	0.331342	0.787714	0.096992
	H35	H	0.662023	0.787147	0.901782
	H36	H	0.330919	0.904625	0.210505
	H37	H	0.662900	0.104494	0.217362
	H38	H	0.331103	0.093595	0.789518
	H39	H	0.663685	0.905724	0.790072
	H40	H	0.899397	0.208371	0.335910
	H41	H	0.103837	0.223995	0.666352
	H42	H	0.094935	0.785350	0.338378
	H43	H	0.898985	0.789125	0.667824
	H44	H	0.205355	0.337638	0.901611
	H45	H	0.214737	0.665681	0.105747
	H46	H	0.779525	0.339610	0.095735
	H47	H	0.784840	0.667932	0.905442
	H48	H	0.413755	0.119216	0.600173
	H49	H	0.594866	0.885569	0.589292
	H50	H	0.598063	0.120503	0.416001
	H51	H	0.402440	0.886490	0.404396
	H52	H	0.581723	0.423980	0.115004
	H53	H	0.584399	0.607201	0.880635
	H54	H	0.412510	0.595692	0.119548
	H55	H	0.401788	0.395185	0.882251
	H56	H	0.115400	0.598242	0.417522
	H57	H	0.876233	0.602435	0.594997
	H58	H	0.120543	0.404527	0.598104
	H59	H	0.878941	0.404593	0.401702
	H60	H	0.114179	0.413211	0.586434
	H61	H	0.881783	0.593317	0.588434
	H62	H	0.116338	0.591821	0.411654
	H63	H	0.879528	0.399068	0.406105
	H64	H	0.405914	0.603879	0.124709
	H65	H	0.602954	0.590584	0.879452
	H66	H	0.584079	0.402407	0.123010
	H67	H	0.392485	0.405167	0.882274
	H68	H	0.596403	0.123275	0.405476
	H69	H	0.593311	0.881277	0.601775
	H70	H	0.406425	0.118920	0.593190
	H71	H	0.401307	0.886161	0.406512
	H72	H	0.915686	0.616895	0.095906
	H73	H	0.094429	0.383566	0.087739
	H74	H	0.086413	0.619115	0.909986
	H75	H	0.904967	0.387591	0.904716
	H76	H	0.084154	0.907372	0.621395
	H77	H	0.093862	0.094210	0.383135
	H78	H	0.901777	0.101317	0.624870
	H79	H	0.893034	0.907505	0.382832
	H80	H	0.616167	0.104075	0.918869
	H81	H	0.379634	0.092913	0.089429
	H82	H	0.611704	0.919834	0.090519
	H83	H	0.376476	0.895914	0.911065
	H84	H	0.618141	0.912876	0.105095
	H85	H	0.377553	0.090610	0.102198
	H86	H	0.612153	0.090112	0.919482
	H87	H	0.381546	0.911450	0.908219
	H88	H	0.907550	0.088354	0.618871
	H89	H	0.090149	0.092032	0.384944
	H90	H	0.098711	0.909632	0.624755
	H91	H	0.908219	0.909698	0.387763
	H92	H	0.095553	0.619474	0.917093
	H93	H	0.090904	0.380981	0.101441
	H94	H	0.899941	0.620505	0.091787
	H95	H	0.896389	0.386294	0.908316
	H96	H	0.404459	0.122266	0.602359
	H97	H	0.583791	0.886410	0.594689
	H98	H	0.588202	0.118287	0.411337
	H99	H	0.399696	0.884365	0.404027
	H100	H	0.602362	0.416353	0.123484
	H101	H	0.579863	0.584272	0.888127
	H102	H	0.400978	0.593824	0.122151
	H103	H	0.405361	0.408109	0.887418
	H104	H	0.119094	0.599916	0.410576
	H105	H	0.878550	0.591432	0.599128
	H106	H	0.116383	0.420222	0.599720
	H107	H	0.879796	0.405548	0.407373
	H108	H	0.904945	0.624481	0.107427
	H109	H	0.081052	0.386803	0.092272
	H110	H	0.096218	0.623298	0.906838
	H111	H	0.897758	0.383685	0.899014
	H112	H	0.091041	0.919398	0.618978
	H113	H	0.090018	0.096547	0.383431
	H114	H	0.916935	0.101611	0.620310
	H115	H	0.903312	0.894591	0.382007
	H116	H	0.617621	0.094964	0.906479
	H117	H	0.375210	0.102466	0.096958
	H118	H	0.617355	0.903360	0.088986
	H119	H	0.374837	0.901591	0.895953
	C120	C	0.377717	0.011221	0.623464
	C121	C	0.621326	0.992859	0.626185
	C122	C	0.619493	0.011397	0.380977
	C123	C	0.374888	0.994713	0.379055
	C124	C	0.616328	0.382625	0.010984
	C125	C	0.619424	0.625283	0.992010
	C126	C	0.377140	0.622027	0.012022
	C127	C	0.372605	0.377976	0.993803
	C128	C	0.007560	0.622514	0.382407
	C129	C	0.988600	0.625975	0.624776
	C130	C	0.007282	0.382628	0.621445
	C131	C	0.989315	0.377227	0.377476
	C132	C	0.876100	0.511843	0.123811
	C133	C	0.119697	0.492627	0.124709
	C134	C	0.118203	0.511745	0.880926
	C135	C	0.873565	0.494996	0.877925
	C136	C	0.118195	0.882125	0.512027
	C137	C	0.121531	0.125294	0.493285
	C138	C	0.878888	0.121985	0.511163
	C139	C	0.874455	0.877978	0.493804
	C140	C	0.505699	0.121866	0.884101
	C141	C	0.487106	0.125925	0.126031
	C142	C	0.506064	0.882079	0.121869
	C143	C	0.488202	0.877391	0.878453
	C144	C	0.379051	0.886430	0.673777
	C145	C	0.621457	0.116375	0.684286
	C146	C	0.613625	0.887333	0.324529
	C147	C	0.379305	0.118624	0.326550
	C148	C	0.668473	0.382912	0.885948
	C149	C	0.675437	0.625755	0.116991
	C150	C	0.321569	0.615210	0.886497
	C151	C	0.319052	0.383537	0.118360
	C152	C	0.882498	0.674304	0.382627
	C153	C	0.113096	0.683291	0.625424
	C154	C	0.882455	0.325925	0.616884
	C155	C	0.114372	0.324869	0.381311
	C156	C	0.881548	0.384172	0.672975
	C157	C	0.113322	0.625473	0.681503
	C158	C	0.882307	0.616140	0.326698
	C159	C	0.114639	0.383409	0.324928
	C160	C	0.377388	0.673225	0.886435
	C161	C	0.619577	0.683698	0.116198
	C162	C	0.611500	0.324350	0.886892
	C163	C	0.375303	0.325986	0.118544
	C164	C	0.670043	0.886742	0.382762
	C165	C	0.678003	0.117154	0.625531
	C166	C	0.320609	0.887262	0.617458
	C167	C	0.321881	0.118344	0.384647
	C168	C	0.877026	0.387261	0.174490
	C169	C	0.121150	0.615655	0.183060
	C170	C	0.112775	0.388019	0.823780
	C171	C	0.878417	0.618946	0.826097
	C172	C	0.170492	0.883357	0.386683
	C173	C	0.177273	0.125059	0.618038
	C174	C	0.822928	0.115645	0.386313
	C175	C	0.821195	0.883732	0.618873
	C176	C	0.379957	0.172875	0.885029
	C177	C	0.611225	0.184664	0.127015
	C178	C	0.381144	0.825850	0.118136
	C179	C	0.612724	0.824436	0.881604
	C180	C	0.381007	0.883921	0.174608
	C181	C	0.612642	0.125381	0.181125
	C182	C	0.380526	0.115850	0.827628
	C183	C	0.613520	0.883339	0.826030
	C184	C	0.879852	0.172637	0.385978
	C185	C	0.122171	0.184079	0.617301
	C186	C	0.114716	0.824931	0.387406
	C187	C	0.877953	0.825688	0.618417
	C188	C	0.169189	0.387182	0.882171
	C189	C	0.177133	0.616185	0.125312
	C190	C	0.818452	0.388314	0.117756
	C191	C	0.821051	0.618829	0.883548
	C192	C	0.401159	0.097798	0.604328
	C193	C	0.597749	0.906586	0.602356
	C194	C	0.599971	0.098282	0.404009
	C195	C	0.395281	0.907897	0.398927
	C196	C	0.595510	0.407004	0.098098
	C197	C	0.595960	0.601198	0.905281
	C198	C	0.399786	0.603418	0.099246
	C199	C	0.393572	0.397025	0.906557
	C200	C	0.094463	0.602804	0.406312
	C201	C	0.901567	0.602634	0.601191
	C202	C	0.094402	0.405800	0.600903
	C203	C	0.901973	0.396984	0.398664
	C204	C	0.899820	0.598328	0.104263
	C205	C	0.095869	0.406179	0.100690
	C206	C	0.098552	0.598345	0.904458
	C207	C	0.893784	0.408284	0.897902
	C208	C	0.097460	0.905504	0.599151
	C209	C	0.098171	0.101420	0.406020
	C210	C	0.901940	0.102865	0.598709
	C211	C	0.895456	0.897882	0.406634
	C212	C	0.592706	0.102076	0.907871
	C213	C	0.399890	0.102179	0.103018
	C214	C	0.593346	0.905119	0.100859
	C215	C	0.400323	0.897044	0.899009
	Zn216	Zn	0.498014	0.001345	0.753833
	Zn217	Zn	0.497557	0.003512	0.251131
	Zn218	Zn	0.746509	0.504258	0.000989
	Zn219	Zn	0.247029	0.501854	0.002763
	Zn220	Zn	-0.002055	0.752144	0.502786
	Zn221	Zn	-0.001096	0.251838	0.501460
	Zn222	Zn	-0.002944	0.503979	0.750518
	Zn223	Zn	-0.001181	0.501274	0.252489
	Zn224	Zn	0.497103	0.751325	0.001224
	Zn225	Zn	0.495005	0.251822	0.004190
	Zn226	Zn	0.748551	0.001709	0.502815
	Zn227	Zn	0.247285	0.003084	0.502791
	N228	N	0.413615	0.964457	0.677919
	N229	N	0.586856	0.038240	0.684704
	N230	N	0.582966	0.966017	0.323169
	N231	N	0.411201	0.040540	0.322728
	N232	N	0.671271	0.418614	0.964149
	N233	N	0.675367	0.590088	0.038855
	N234	N	0.321080	0.584249	0.965482
	N235	N	0.317095	0.415057	0.039843
	N236	N	0.961398	0.678607	0.416576
	N237	N	0.034484	0.683557	0.590664
	N238	N	0.961635	0.324756	0.585566
	N239	N	0.035344	0.320945	0.413226
	N240	N	0.960141	0.418931	0.675850
	N241	N	0.034902	0.590390	0.681041
	N242	N	0.961092	0.584724	0.326226
	N243	N	0.035820	0.415027	0.322299
	N244	N	0.411364	0.677512	0.965243
	N245	N	0.585315	0.683635	0.037535
	N246	N	0.579938	0.324035	0.966000
	N247	N	0.408016	0.322328	0.040022
	N248	N	0.673782	0.964841	0.417354
	N249	N	0.678285	0.039367	0.590115
	N250	N	0.319799	0.965834	0.586778
	N251	N	0.318815	0.040288	0.416428
	N252	N	0.912404	0.464967	0.178158
	N253	N	0.086081	0.537730	0.182761
	N254	N	0.081852	0.466395	0.822942
	N255	N	0.910316	0.540761	0.822364
	N256	N	0.172903	0.918371	0.465122
	N257	N	0.176817	0.089231	0.539909
	N258	N	0.822440	0.084697	0.465195
	N259	N	0.818559	0.915459	0.540210
	N260	N	0.458607	0.176611	0.919540
	N261	N	0.532103	0.185307	0.093783
	N262	N	0.460094	0.824715	0.085921
	N263	N	0.533528	0.820425	0.913188
	N264	N	0.459689	0.918450	0.177003
	N265	N	0.534622	0.089108	0.180514
	N266	N	0.459593	0.084695	0.827016
	N267	N	0.534966	0.915503	0.824083
	N268	N	0.914051	0.176755	0.464662
	N269	N	0.087815	0.184148	0.538615
	N270	N	0.082778	0.824257	0.466221
	N271	N	0.910021	0.821959	0.539768
	N272	N	0.172780	0.465185	0.917097
	N273	N	0.176479	0.538602	0.089640
	N274	N	0.817728	0.466737	0.086879
	N275	N	0.817874	0.540600	0.914984
	O276	O	0.023264	0.062567	0.022304
	H277	H	0.016996	0.060071	0.028147
	H278	H	0.021012	0.072551	0.023528
	O279	O	0.591472	0.459718	0.505109
	H280	H	0.594103	0.459313	0.486985
	H281	H	0.606282	0.469252	0.511883
	O282	O	0.545668	0.521954	0.641516
	H283	H	0.558328	0.516848	0.648165
	H284	H	0.539662	0.528043	0.641837
	O285	O	0.931192	-0.071006	1.043420
	H286	H	0.937725	-0.072910	1.045925
	H287	H	0.922117	-0.074196	1.035601
	O288	O	0.999195	0.138875	0.017343
	H289	H	0.999780	0.134759	0.015408
	H290	H	0.998057	0.148048	0.020597
	O291	O	0.506877	0.557239	0.500387
	H292	H	0.497116	0.556675	0.511577
	H293	H	0.506681	0.555286	0.497758
	O294	O	1.115625	0.040032	1.114031
	H295	H	1.116775	0.042749	1.118372
	H296	H	1.121953	0.045292	1.111862
	O297	O	0.052383	0.050238	-0.004098
	H298	H	0.055180	0.057881	-0.015062
	H299	H	0.049450	0.047825	0.000110
	O300	O	0.459525	0.466476	0.505665
	H301	H	0.465007	0.462006	0.508088
	H302	H	0.454118	0.461468	0.506261
	O303	O	0.607745	0.582868	0.510741
	H304	H	0.619718	0.599573	0.511129
	H305	H	0.604714	0.582712	0.521056
	O306	O	0.976094	-0.067663	0.031566
	H307	H	0.969437	-0.073267	0.045199
	H308	H	0.973849	-0.058639	0.035568
	O309	O	-0.021401	0.072948	0.994067
	H310	H	-0.022778	0.068406	0.998982
	H311	H	-0.016971	0.075957	0.998488
	O312	O	1.532644	0.452531	0.457731
	H313	H	1.533816	0.448298	0.461888
	H314	H	1.526155	0.460928	0.454825
	O315	O	0.533471	0.473997	0.457856
	H316	H	0.529828	0.477984	0.453903
	H317	H	0.539105	0.476972	0.452801
	O318	O	0.497874	0.480165	0.512844
	H319	H	0.495980	0.481019	0.524600
	H320	H	0.505784	0.480053	0.510322
	O321	O	-0.003392	1.028552	1.039467
	H322	H	0.008101	1.037711	1.047856
	H323	H	-0.015020	1.027098	1.027777
	O324	O	0.658499	0.607627	0.319458
	H325	H	0.668535	0.618605	0.314596
	H326	H	0.667519	0.611726	0.317348
	O327	O	0.478142	0.574556	0.458302
	H328	H	0.476773	0.559260	0.466560
	H329	H	0.465941	0.580734	0.454088
	O330	O	1.007751	1.013151	0.019612
	H331	H	1.011194	1.006375	0.017996
	H332	H	1.022753	1.026940	0.019207
	O333	O	0.459899	0.487947	0.548415
	H334	H	0.462405	0.497684	0.550174
	H335	H	0.455622	0.483312	0.545663
	O336	O	0.462143	0.445656	0.561395
	H337	H	0.462467	0.442199	0.551600
	H338	H	0.471239	0.436852	0.550970
	O339	O	0.897120	0.983588	-0.033872
	H340	H	0.900919	0.980098	-0.028207
	H341	H	0.897617	0.987833	-0.035289
	O342	O	0.468329	0.515508	0.541852
	H343	H	0.475301	0.517796	0.539156
	H344	H	0.463699	0.512243	0.548848
	O345	O	0.473741	0.557753	0.465439
	H346	H	0.467055	0.548110	0.480373
	H347	H	0.478075	0.561942	0.474970
	O348	O	0.009727	0.010763	-0.008942
	H349	H	0.015547	0.019279	0.003224
	H350	H	0.008774	-0.000391	-0.018599
	O351	O	-0.009012	1.030731	0.978976
	H352	H	-0.006305	1.034141	0.976508
	H353	H	-0.008041	1.030442	0.989546
	O354	O	0.508045	0.473539	0.429501
	H355	H	0.510775	0.467767	0.430025
	H356	H	0.505831	0.473509	0.421066
	O357	O	-0.016918	1.033506	0.985795
	H358	H	-0.012197	1.030565	0.987164
	H359	H	-0.021991	1.018282	0.996567
