data_Molecule from HDF5

_cell_length_a		16.333834
_cell_length_b		16.230377
_cell_length_c		16.044751
_cell_angle_alpha	90.263653
_cell_angle_beta	90.305918
_cell_angle_gamma	90.302041
_symmetry_space_group_name_H-M	'P 1'
_symmetry_Int_Tables_number		1

loop_
	_symmetry_equiv_pos_as_xyz
	x,y,z

loop_
	_atom_site_label
	_atom_site_type_symbol
	_atom_site_fract_x
	_atom_site_fract_y
	_atom_site_fract_z
	H0	H	0.402650	0.835205	0.705707
	H1	H	0.595533	0.166388	0.711562
	H2	H	0.590505	0.836081	0.285338
	H3	H	0.402332	0.167392	0.286788
	H4	H	0.706904	0.402591	0.830429
	H5	H	0.712906	0.603956	0.161754
	H6	H	0.282117	0.599715	0.831335
	H7	H	0.281175	0.401380	0.161587
	H8	H	0.833874	0.716229	0.395788
	H9	H	0.160772	0.716691	0.597904
	H10	H	0.834071	0.284694	0.594547
	H11	H	0.161360	0.286836	0.397766
	H12	H	0.831059	0.405136	0.705757
	H13	H	0.160561	0.598380	0.711655
	H14	H	0.832084	0.596404	0.283212
	H15	H	0.161637	0.404687	0.282939
	H16	H	0.398887	0.712218	0.830690
	H17	H	0.594304	0.714846	0.163368
	H18	H	0.592650	0.287617	0.831202
	H19	H	0.398794	0.290417	0.163670
	H20	H	0.711273	0.836997	0.396565
	H21	H	0.715936	0.164807	0.599913
	H22	H	0.281505	0.837732	0.596877
	H23	H	0.282410	0.165138	0.397070
	H24	H	0.900230	0.335760	0.205665
	H25	H	0.093791	0.666657	0.209637
	H26	H	0.087315	0.335117	0.785070
	H27	H	0.901566	0.667310	0.785259
	H28	H	0.209760	0.903164	0.331126
	H29	H	0.213732	0.102271	0.663150
	H30	H	0.783676	0.098507	0.331862
	H31	H	0.785322	0.901556	0.663327
	H32	H	0.333048	0.214667	0.897102
	H33	H	0.659437	0.218898	0.098737
	H34	H	0.333068	0.785827	0.095970
	H35	H	0.659461	0.786202	0.899050
	H36	H	0.331269	0.905533	0.208052
	H37	H	0.661086	0.099938	0.211486
	H38	H	0.333184	0.097048	0.781660
	H39	H	0.661440	0.905205	0.786618
	H40	H	0.899006	0.211574	0.331273
	H41	H	0.097156	0.215799	0.663407
	H42	H	0.094099	0.788457	0.330875
	H43	H	0.903009	0.790121	0.663866
	H44	H	0.210456	0.336936	0.894023
	H45	H	0.214059	0.664556	0.098201
	H46	H	0.779480	0.337792	0.095062
	H47	H	0.780689	0.665324	0.895074
	H48	H	0.400453	0.121937	0.595507
	H49	H	0.595685	0.882748	0.588233
	H50	H	0.593997	0.116967	0.412816
	H51	H	0.403782	0.883059	0.398001
	H52	H	0.591727	0.410100	0.116032
	H53	H	0.585422	0.589639	0.880810
	H54	H	0.398406	0.583676	0.114622
	H55	H	0.399128	0.409419	0.877308
	H56	H	0.112756	0.592794	0.403935
	H57	H	0.881615	0.594601	0.585856
	H58	H	0.113588	0.406157	0.590301
	H59	H	0.878071	0.403690	0.393643
	H60	H	0.112287	0.408967	0.589910
	H61	H	0.879460	0.594230	0.591197
	H62	H	0.114244	0.597353	0.402137
	H63	H	0.880891	0.397987	0.406741
	H64	H	0.415802	0.593797	0.112372
	H65	H	0.585797	0.599298	0.876430
	H66	H	0.589582	0.413598	0.114865
	H67	H	0.404467	0.408504	0.879829
	H68	H	0.599226	0.121142	0.403305
	H69	H	0.592031	0.883375	0.592681
	H70	H	0.413489	0.116524	0.591282
	H71	H	0.405695	0.885848	0.407377
	H72	H	0.908785	0.616171	0.085168
	H73	H	0.086076	0.384862	0.089665
	H74	H	0.095850	0.619857	0.904531
	H75	H	0.898461	0.382394	0.897191
	H76	H	0.094397	0.912208	0.615726
	H77	H	0.092508	0.092102	0.378469
	H78	H	0.897752	0.089843	0.618017
	H79	H	0.893290	0.915437	0.377360
	H80	H	0.611899	0.097033	0.911096
	H81	H	0.378004	0.091556	0.102254
	H82	H	0.612401	0.908478	0.089992
	H83	H	0.379625	0.901199	0.908831
	H84	H	0.613359	0.909213	0.092979
	H85	H	0.376945	0.107376	0.090029
	H86	H	0.612690	0.092203	0.903903
	H87	H	0.382807	0.914381	0.904005
	H88	H	0.913577	0.088595	0.612533
	H89	H	0.089347	0.091117	0.379900
	H90	H	0.086708	0.909241	0.615253
	H91	H	0.914449	0.912255	0.383838
	H92	H	0.088084	0.618919	0.901291
	H93	H	0.090400	0.385473	0.083104
	H94	H	0.897832	0.619846	0.085500
	H95	H	0.902404	0.385945	0.904627
	H96	H	0.403150	0.117219	0.581156
	H97	H	0.590233	0.884955	0.587757
	H98	H	0.587451	0.118612	0.402668
	H99	H	0.396608	0.883001	0.404720
	H100	H	0.587564	0.410458	0.114867
	H101	H	0.594421	0.593636	0.876338
	H102	H	0.400046	0.603697	0.119762
	H103	H	0.402443	0.403226	0.876573
	H104	H	0.112925	0.596642	0.407063
	H105	H	0.879762	0.599146	0.589065
	H106	H	0.114264	0.408703	0.593355
	H107	H	0.883910	0.411449	0.404226
	H108	H	0.903768	0.620785	0.095397
	H109	H	0.093302	0.381781	0.090008
	H110	H	0.089971	0.616699	0.909378
	H111	H	0.894417	0.383004	0.904355
	H112	H	0.093674	0.905207	0.618481
	H113	H	0.089884	0.094761	0.378442
	H114	H	0.907464	0.103533	0.619275
	H115	H	0.902843	0.895558	0.374373
	H116	H	0.614832	0.099877	0.903425
	H117	H	0.383530	0.089978	0.082801
	H118	H	0.613617	0.905940	0.091568
	H119	H	0.377278	0.904347	0.895549
	C120	C	0.376973	0.009817	0.617716
	C121	C	0.620936	0.992635	0.619346
	C122	C	0.619700	0.009882	0.376682
	C123	C	0.374878	0.993105	0.375555
	C124	C	0.616925	0.381586	0.005285
	C125	C	0.617857	0.623568	0.987870
	C126	C	0.375742	0.621657	0.005630
	C127	C	0.374321	0.379524	0.987907
	C128	C	0.005098	0.623019	0.375085
	C129	C	0.988554	0.623687	0.618535
	C130	C	0.005103	0.379468	0.618228
	C131	C	0.989314	0.377630	0.373660
	C132	C	0.874812	0.509999	0.116583
	C133	C	0.118617	0.492542	0.117931
	C134	C	0.117472	0.509594	0.875662
	C135	C	0.872534	0.492765	0.873656
	C136	C	0.118982	0.880512	0.506313
	C137	C	0.119669	0.122499	0.488869
	C138	C	0.877296	0.121547	0.506443
	C139	C	0.876459	0.879762	0.488647
	C140	C	0.505048	0.123126	0.876109
	C141	C	0.487831	0.124759	0.120483
	C142	C	0.504555	0.879775	0.119242
	C143	C	0.487898	0.878688	0.874962
	C144	C	0.380714	0.885051	0.670410
	C145	C	0.617293	0.116667	0.674678
	C146	C	0.613282	0.885650	0.321962
	C147	C	0.380686	0.117798	0.323315
	C148	C	0.670028	0.382871	0.880222
	C149	C	0.674187	0.622659	0.112495
	C150	C	0.320137	0.619482	0.880862
	C151	C	0.319511	0.381735	0.112601
	C152	C	0.882260	0.677749	0.376263
	C153	C	0.111897	0.678527	0.617333
	C154	C	0.882288	0.323398	0.614683
	C155	C	0.112541	0.323991	0.376752
	C156	C	0.880974	0.383239	0.670201
	C157	C	0.111857	0.619602	0.673815
	C158	C	0.881483	0.618199	0.320178
	C159	C	0.112606	0.382523	0.319619
	C160	C	0.378167	0.675464	0.880479
	C161	C	0.615348	0.678094	0.113449
	C162	C	0.613075	0.325740	0.880731
	C163	C	0.377532	0.326258	0.113463
	C164	C	0.673265	0.885981	0.377455
	C165	C	0.676927	0.116087	0.618994
	C166	C	0.320538	0.886373	0.615954
	C167	C	0.320771	0.116535	0.377904
	C168	C	0.878271	0.385484	0.169809
	C169	C	0.115368	0.616916	0.172781
	C170	C	0.110700	0.384631	0.821679
	C171	C	0.879024	0.617467	0.820882
	C172	C	0.172335	0.882886	0.380700
	C173	C	0.175227	0.121625	0.613701
	C174	C	0.821690	0.118652	0.381422
	C175	C	0.822547	0.881558	0.613744
	C176	C	0.381844	0.176900	0.877224
	C177	C	0.610854	0.180521	0.118563
	C178	C	0.381700	0.824225	0.116073
	C179	C	0.611170	0.824351	0.878560
	C180	C	0.380764	0.883955	0.171909
	C181	C	0.611700	0.121384	0.174736
	C182	C	0.382070	0.118424	0.819796
	C183	C	0.611977	0.883250	0.822499
	C184	C	0.879138	0.174832	0.381002
	C185	C	0.117396	0.178171	0.613732
	C186	C	0.115089	0.825871	0.380669
	C187	C	0.880911	0.826200	0.614026
	C188	C	0.171877	0.385693	0.875693
	C189	C	0.175317	0.615810	0.117640
	C190	C	0.818430	0.386616	0.114527
	C191	C	0.818886	0.616560	0.875547
	C192	C	0.399209	0.096114	0.595932
	C193	C	0.599074	0.906120	0.596319
	C194	C	0.599473	0.096613	0.399643
	C195	C	0.395739	0.906236	0.396897
	C196	C	0.596007	0.404686	0.092865
	C197	C	0.595224	0.600856	0.900506
	C198	C	0.398095	0.600021	0.093143
	C199	C	0.395573	0.400867	0.900506
	C200	C	0.091011	0.601889	0.397683
	C201	C	0.902586	0.602281	0.595580
	C202	C	0.091271	0.401321	0.597362
	C203	C	0.903246	0.398170	0.395121
	C204	C	0.896927	0.596625	0.094872
	C205	C	0.096430	0.406335	0.094615
	C206	C	0.097328	0.595928	0.898325
	C207	C	0.892475	0.406223	0.895480
	C208	C	0.097889	0.902314	0.593690
	C209	C	0.097228	0.099437	0.401496
	C210	C	0.899797	0.100285	0.593952
	C211	C	0.897255	0.901399	0.401180
	C212	C	0.590735	0.102366	0.899219
	C213	C	0.401816	0.102823	0.098326
	C214	C	0.590852	0.901490	0.097929
	C215	C	0.402091	0.900189	0.896483
	Zn216	Zn	0.497757	0.000587	0.746521
	Zn217	Zn	0.496650	0.002072	0.248143
	Zn218	Zn	0.744976	0.502184	-0.004226
	Zn219	Zn	0.247510	0.500763	-0.003325
	Zn220	Zn	-0.002606	0.752508	0.497041
	Zn221	Zn	-0.002199	0.249506	0.496980
	Zn222	Zn	-0.004410	0.501221	0.747032
	Zn223	Zn	-0.003299	0.500854	0.245562
	Zn224	Zn	0.495995	0.750240	-0.002727
	Zn225	Zn	0.496056	0.253011	-0.002040
	Zn226	Zn	0.749771	0.000927	0.497912
	Zn227	Zn	0.247244	0.001544	0.497254
	N228	N	0.415401	0.962589	0.671364
	N229	N	0.583325	0.038887	0.675199
	N230	N	0.581096	0.963764	0.321046
	N231	N	0.413695	0.040047	0.321911
	N232	N	0.672352	0.417025	0.958846
	N233	N	0.675874	0.589799	0.033242
	N234	N	0.318584	0.586722	0.959797
	N235	N	0.317197	0.413972	0.033528
	N236	N	0.960053	0.680929	0.409541
	N237	N	0.034357	0.681007	0.583535
	N238	N	0.960398	0.321222	0.582923
	N239	N	0.034812	0.320653	0.409571
	N240	N	0.958301	0.417312	0.672477
	N241	N	0.034254	0.586128	0.674608
	N242	N	0.958910	0.584711	0.319459
	N243	N	0.035062	0.415135	0.317806
	N244	N	0.411976	0.676941	0.959223
	N245	N	0.580991	0.678733	0.034875
	N246	N	0.580673	0.325012	0.959634
	N247	N	0.411115	0.324888	0.034943
	N248	N	0.677442	0.964511	0.410729
	N249	N	0.679450	0.037807	0.585360
	N250	N	0.318016	0.964875	0.583879
	N251	N	0.317014	0.037840	0.409652
	N252	N	0.912573	0.463139	0.171281
	N253	N	0.080832	0.539353	0.172878
	N254	N	0.077565	0.462384	0.821548
	N255	N	0.911512	0.539400	0.819577
	N256	N	0.174961	0.916178	0.459685
	N257	N	0.176857	0.087885	0.534873
	N258	N	0.820562	0.086246	0.460550
	N259	N	0.819910	0.914444	0.534833
	N260	N	0.459114	0.179910	0.911615
	N261	N	0.532817	0.182919	0.085656
	N262	N	0.459540	0.821614	0.084111
	N263	N	0.533014	0.821170	0.910535
	N264	N	0.458337	0.917698	0.174029
	N265	N	0.534305	0.087471	0.176016
	N266	N	0.459792	0.085929	0.818835
	N267	N	0.534663	0.916140	0.820255
	N268	N	0.913063	0.176610	0.459613
	N269	N	0.083459	0.178528	0.535046
	N270	N	0.082804	0.824097	0.459788
	N271	N	0.913570	0.824783	0.535259
	N272	N	0.176311	0.464397	0.908430
	N273	N	0.177251	0.537623	0.083959
	N274	N	0.816126	0.465092	0.082206
	N275	N	0.814877	0.538331	0.907733
	O276	O	0.492798	0.535319	0.530039
	H277	H	0.489707	0.548764	0.527977
	H278	H	0.498840	0.534050	0.535300
	O279	O	0.522973	0.475126	0.498417
	H280	H	0.523323	0.468812	0.497079
	H281	H	0.523870	0.475052	0.494550
	O282	O	0.445613	0.527209	0.499618
	H283	H	0.449560	0.528320	0.503104
	H284	H	0.433571	0.532614	0.509683
	O285	O	-0.046480	0.972315	1.065839
	H286	H	-0.047298	0.971745	1.075348
	H287	H	-0.059682	0.965904	1.070130
	O288	O	0.520019	0.495220	0.539581
	H289	H	0.526376	0.496852	0.538837
	H290	H	0.522244	0.487477	0.535628
	O291	O	-0.009943	0.071074	1.001417
	H292	H	-0.010057	0.079097	1.002808
	H293	H	-0.007394	0.073693	1.012308
	O294	O	0.505809	0.545317	0.562091
	H295	H	0.507063	0.535685	0.566497
	H296	H	0.510506	0.533979	0.559174
	O297	O	0.553766	0.540854	0.583785
	H298	H	0.549638	0.539618	0.595382
	H299	H	0.555097	0.529451	0.581689
	O300	O	0.547301	0.455848	0.477104
	H301	H	0.546065	0.458341	0.480015
	H302	H	0.542801	0.453542	0.486804
	O303	O	0.570229	0.543050	0.531182
	H304	H	0.571796	0.548235	0.539786
	H305	H	0.570208	0.549987	0.533607
	O306	O	0.971667	-0.027909	0.979832
	H307	H	0.964378	-0.026138	0.981154
	H308	H	0.974025	-0.029171	0.979265
	O309	O	0.577047	0.483287	0.403135
	H310	H	0.571231	0.478974	0.403083
	H311	H	0.581744	0.464937	0.401673
	O312	O	0.461342	0.553634	0.427886
	H313	H	0.463429	0.564018	0.411848
	H314	H	0.464468	0.555775	0.429107
	O315	O	0.961493	0.033603	1.020520
	H316	H	0.956685	0.030490	1.014297
	H317	H	0.964235	0.037276	1.013226
	O318	O	-0.010510	0.080545	0.026385
	H319	H	-0.009620	0.092057	0.026928
	H320	H	-0.005100	0.075143	0.028275
	O321	O	0.518061	0.451100	0.475698
	H322	H	0.514989	0.451714	0.475113
	H323	H	0.520218	0.466205	0.480573
	O324	O	0.991799	0.016739	0.030652
	H325	H	0.987703	0.014011	0.027568
	H326	H	0.999687	0.019293	0.039550
	O327	O	0.918581	1.019148	0.056218
	H328	H	0.924039	1.019178	0.058250
	H329	H	0.909951	1.024577	0.053380
	O330	O	0.475838	0.461307	0.499920
	H331	H	0.475704	0.461922	0.497290
	H332	H	0.469538	0.463368	0.499789
	O333	O	0.556870	0.444488	0.505586
	H334	H	0.564661	0.454224	0.500456
	H335	H	0.554921	0.442506	0.505389
