data_Molecule from HDF5

_cell_length_a		16.280324
_cell_length_b		16.156228
_cell_length_c		16.106292
_cell_angle_alpha	89.727147
_cell_angle_beta	89.903310
_cell_angle_gamma	89.750227
_symmetry_space_group_name_H-M	'P 1'
_symmetry_Int_Tables_number		1

loop_
	_symmetry_equiv_pos_as_xyz
	x,y,z

loop_
	_atom_site_label
	_atom_site_type_symbol
	_atom_site_fract_x
	_atom_site_fract_y
	_atom_site_fract_z
	H0	H	0.402459	0.835962	0.712624
	H1	H	0.597075	0.166037	0.707439
	H2	H	0.598997	0.834734	0.283574
	H3	H	0.401535	0.164643	0.283163
	H4	H	0.715129	0.399185	0.832889
	H5	H	0.714339	0.598765	0.163525
	H6	H	0.283957	0.602676	0.833397
	H7	H	0.284849	0.397847	0.162315
	H8	H	0.836704	0.717489	0.397626
	H9	H	0.163781	0.712352	0.596452
	H10	H	0.837883	0.283404	0.601056
	H11	H	0.162609	0.284087	0.396413
	H12	H	0.836400	0.400651	0.712867
	H13	H	0.162776	0.599310	0.712855
	H14	H	0.836712	0.601508	0.281521
	H15	H	0.162954	0.401195	0.284268
	H16	H	0.399826	0.715637	0.832483
	H17	H	0.595969	0.711889	0.164316
	H18	H	0.599631	0.288559	0.831873
	H19	H	0.402132	0.284894	0.162375
	H20	H	0.716619	0.835510	0.396216
	H21	H	0.715806	0.163181	0.597661
	H22	H	0.286852	0.835418	0.598548
	H23	H	0.282459	0.162571	0.393978
	H24	H	0.900892	0.335024	0.214717
	H25	H	0.096007	0.664903	0.209409
	H26	H	0.098227	0.334407	0.785661
	H27	H	0.900812	0.664032	0.783986
	H28	H	0.215955	0.899161	0.333773
	H29	H	0.214811	0.098271	0.662299
	H30	H	0.784890	0.101660	0.333139
	H31	H	0.786676	0.898973	0.662697
	H32	H	0.337303	0.218126	0.895555
	H33	H	0.664281	0.212628	0.094228
	H34	H	0.335386	0.786827	0.097815
	H35	H	0.663052	0.784292	0.897594
	H36	H	0.336960	0.900884	0.212900
	H37	H	0.663662	0.098597	0.211054
	H38	H	0.336645	0.101552	0.781404
	H39	H	0.664723	0.903171	0.783978
	H40	H	0.901399	0.215957	0.333275
	H41	H	0.098511	0.212590	0.663620
	H42	H	0.099210	0.787110	0.333052
	H43	H	0.903219	0.787665	0.663029
	H44	H	0.216150	0.336103	0.898204
	H45	H	0.213367	0.664347	0.097064
	H46	H	0.784891	0.334496	0.100463
	H47	H	0.783318	0.662673	0.896973
	H48	H	0.404504	0.119022	0.589272
	H49	H	0.599131	0.880723	0.587803
	H50	H	0.588824	0.115472	0.407350
	H51	H	0.413551	0.882510	0.404505
	H52	H	0.589715	0.408220	0.114811
	H53	H	0.598871	0.588911	0.878751
	H54	H	0.399801	0.578424	0.114165
	H55	H	0.409019	0.403833	0.878034
	H56	H	0.120609	0.598293	0.394639
	H57	H	0.880607	0.595245	0.597033
	H58	H	0.118743	0.396353	0.587455
	H59	H	0.879615	0.407482	0.397172
	H60	H	0.112274	0.413712	0.585663
	H61	H	0.882310	0.598995	0.587924
	H62	H	0.115979	0.600426	0.414910
	H63	H	0.883178	0.400741	0.413994
	H64	H	0.419872	0.595830	0.112173
	H65	H	0.587054	0.588125	0.883473
	H66	H	0.592229	0.401713	0.117040
	H67	H	0.401185	0.412810	0.878880
	H68	H	0.596979	0.117187	0.407079
	H69	H	0.593829	0.879770	0.596461
	H70	H	0.409324	0.118221	0.589140
	H71	H	0.406426	0.882254	0.410422
	H72	H	0.903567	0.619276	0.094019
	H73	H	0.099111	0.380055	0.092487
	H74	H	0.081549	0.615762	0.900106
	H75	H	0.908192	0.381927	0.908637
	H76	H	0.101845	0.905751	0.619615
	H77	H	0.091204	0.093810	0.379510
	H78	H	0.904102	0.095356	0.619117
	H79	H	0.906731	0.906312	0.377772
	H80	H	0.618868	0.110387	0.911145
	H81	H	0.381713	0.100250	0.088916
	H82	H	0.615440	0.907946	0.086809
	H83	H	0.381205	0.901520	0.904644
	H84	H	0.617785	0.907366	0.092029
	H85	H	0.386368	0.090369	0.083929
	H86	H	0.610904	0.079919	0.910109
	H87	H	0.385958	0.911728	0.908530
	H88	H	0.905123	0.085229	0.615245
	H89	H	0.093792	0.091521	0.380457
	H90	H	0.091330	0.911748	0.614619
	H91	H	0.904806	0.909883	0.378218
	H92	H	0.095043	0.615071	0.916670
	H93	H	0.089022	0.381491	0.094678
	H94	H	0.911414	0.614621	0.088671
	H95	H	0.904136	0.380109	0.906668
	H96	H	0.406138	0.117836	0.584399
	H97	H	0.588899	0.884113	0.588189
	H98	H	0.591595	0.118276	0.400336
	H99	H	0.403995	0.879527	0.401362
	H100	H	0.596428	0.407739	0.117996
	H101	H	0.590985	0.598874	0.878717
	H102	H	0.396116	0.603669	0.122812
	H103	H	0.412349	0.414765	0.881791
	H104	H	0.112890	0.581727	0.404299
	H105	H	0.884303	0.589312	0.588578
	H106	H	0.120437	0.407973	0.601275
	H107	H	0.886702	0.417799	0.409987
	H108	H	0.902301	0.616331	0.082754
	H109	H	0.091525	0.383287	0.085569
	H110	H	0.101583	0.622707	0.897605
	H111	H	0.908277	0.379797	0.903916
	H112	H	0.090762	0.898751	0.618034
	H113	H	0.091373	0.090980	0.380150
	H114	H	0.912943	0.091602	0.613568
	H115	H	0.908372	0.910003	0.379856
	H116	H	0.623013	0.094756	0.884829
	H117	H	0.382511	0.090121	0.094649
	H118	H	0.617317	0.903037	0.088081
	H119	H	0.381099	0.910548	0.897564
	C120	C	0.379118	0.009321	0.617769
	C121	C	0.622142	0.990794	0.618883
	C122	C	0.622131	0.008291	0.375469
	C123	C	0.378663	0.990445	0.375350
	C124	C	0.621595	0.377967	0.006935
	C125	C	0.620976	0.621005	0.989722
	C126	C	0.376917	0.622297	0.007000
	C127	C	0.378830	0.379438	0.988570
	C128	C	0.008546	0.623036	0.375573
	C129	C	0.990845	0.622262	0.619926
	C130	C	0.009031	0.377638	0.620698
	C131	C	0.990773	0.378912	0.377217
	C132	C	0.877186	0.507848	0.119500
	C133	C	0.120952	0.490848	0.118977
	C134	C	0.121333	0.508705	0.876170
	C135	C	0.878030	0.489657	0.876700
	C136	C	0.122520	0.877702	0.507523
	C137	C	0.121110	0.120770	0.489141
	C138	C	0.878221	0.121244	0.506964
	C139	C	0.878953	0.879109	0.488350
	C140	C	0.509263	0.123791	0.873446
	C141	C	0.491705	0.121853	0.118050
	C142	C	0.508349	0.878089	0.118627
	C143	C	0.491392	0.878967	0.875431
	C144	C	0.382268	0.885009	0.674256
	C145	C	0.618538	0.115769	0.671861
	C146	C	0.619930	0.884333	0.320305
	C147	C	0.380586	0.114708	0.319851
	C148	C	0.677305	0.379825	0.882294
	C149	C	0.676050	0.618340	0.114045
	C150	C	0.321754	0.621879	0.882725
	C151	C	0.323051	0.379101	0.112952
	C152	C	0.885677	0.679466	0.377402
	C153	C	0.114423	0.675766	0.617140
	C154	C	0.886244	0.322052	0.619870
	C155	C	0.113706	0.322724	0.377600
	C156	C	0.885651	0.380289	0.675649
	C157	C	0.113842	0.618922	0.674854
	C158	C	0.885355	0.621739	0.319733
	C159	C	0.113798	0.380865	0.321457
	C160	C	0.379451	0.678184	0.882267
	C161	C	0.617080	0.674817	0.114530
	C162	C	0.619637	0.324615	0.881778
	C163	C	0.381488	0.322967	0.112983
	C164	C	0.678187	0.884703	0.376791
	C165	C	0.677537	0.114405	0.617075
	C166	C	0.324498	0.884734	0.617856
	C167	C	0.321212	0.113646	0.375006
	C168	C	0.880329	0.384231	0.176531
	C169	C	0.117239	0.615505	0.172764
	C170	C	0.118751	0.384136	0.822350
	C171	C	0.880149	0.614480	0.821440
	C172	C	0.177592	0.879696	0.382887
	C173	C	0.176716	0.118284	0.613304
	C174	C	0.822587	0.120859	0.382647
	C175	C	0.824007	0.879723	0.612970
	C176	C	0.386180	0.179632	0.875893
	C177	C	0.615163	0.175495	0.115003
	C178	C	0.384821	0.823794	0.117506
	C179	C	0.614334	0.822799	0.877392
	C180	C	0.385565	0.880605	0.174875
	C181	C	0.614597	0.119097	0.173576
	C182	C	0.385745	0.121483	0.819060
	C183	C	0.615405	0.881990	0.820996
	C184	C	0.880761	0.177858	0.382667
	C185	C	0.118779	0.175118	0.614070
	C186	C	0.119585	0.823846	0.382640
	C187	C	0.882307	0.824497	0.613252
	C188	C	0.177659	0.384934	0.878333
	C189	C	0.175562	0.615085	0.117011
	C190	C	0.822685	0.383809	0.119612
	C191	C	0.821500	0.613684	0.877280
	C192	C	0.400240	0.095807	0.594501
	C193	C	0.600316	0.903977	0.597114
	C194	C	0.599172	0.094505	0.398221
	C195	C	0.401323	0.903812	0.398648
	C196	C	0.599409	0.399539	0.093984
	C197	C	0.598882	0.598654	0.902806
	C198	C	0.398895	0.599472	0.093971
	C199	C	0.400987	0.403359	0.901964
	C200	C	0.094284	0.600155	0.397938
	C201	C	0.904666	0.600871	0.597653
	C202	C	0.095010	0.399497	0.598119
	C203	C	0.905124	0.401890	0.400202
	C204	C	0.899137	0.594448	0.095556
	C205	C	0.099562	0.404123	0.097363
	C206	C	0.099181	0.595464	0.898228
	C207	C	0.900241	0.403051	0.899729
	C208	C	0.101087	0.899308	0.594834
	C209	C	0.098556	0.098777	0.402495
	C210	C	0.900914	0.097792	0.593674
	C211	C	0.900454	0.901912	0.401217
	C212	C	0.595345	0.101414	0.895409
	C213	C	0.405653	0.100115	0.095880
	C214	C	0.594573	0.899718	0.095722
	C215	C	0.405225	0.901268	0.897057
	Zn216	Zn	0.500132	0.001130	0.745904
	Zn217	Zn	0.500304	-0.000337	0.247141
	Zn218	Zn	0.749008	0.498257	-0.002042
	Zn219	Zn	0.249679	0.500087	-0.001815
	Zn220	Zn	0.000040	0.751423	0.498029
	Zn221	Zn	0.000306	0.249600	0.498929
	Zn222	Zn	-0.000843	0.499457	0.748382
	Zn223	Zn	-0.000653	0.499855	0.247300
	Zn224	Zn	0.498750	0.749853	-0.002019
	Zn225	Zn	0.500834	0.251531	-0.003336
	Zn226	Zn	0.750239	-0.000798	0.497613
	Zn227	Zn	0.250326	-0.001022	0.497424
	N228	N	0.415342	0.963342	0.674667
	N229	N	0.584675	0.037834	0.673066
	N230	N	0.585973	0.962468	0.319154
	N231	N	0.415381	0.037037	0.319740
	N232	N	0.678620	0.412394	0.961057
	N233	N	0.678618	0.585642	0.035208
	N234	N	0.319863	0.587750	0.961175
	N235	N	0.321263	0.413570	0.034600
	N236	N	0.963347	0.680467	0.411276
	N237	N	0.036887	0.677942	0.583481
	N238	N	0.964058	0.320067	0.586165
	N239	N	0.036278	0.321232	0.411658
	N240	N	0.962987	0.414080	0.676294
	N241	N	0.035861	0.586294	0.676807
	N242	N	0.962739	0.587460	0.318346
	N243	N	0.036320	0.415286	0.320930
	N244	N	0.413425	0.678261	0.960490
	N245	N	0.583474	0.676712	0.036074
	N246	N	0.585820	0.323200	0.960157
	N247	N	0.415359	0.322824	0.034567
	N248	N	0.679929	0.962828	0.410161
	N249	N	0.679812	0.035712	0.584784
	N250	N	0.322633	0.962795	0.583085
	N251	N	0.319761	0.035137	0.408677
	N252	N	0.913502	0.462488	0.176645
	N253	N	0.083981	0.537292	0.174353
	N254	N	0.084566	0.462102	0.821001
	N255	N	0.914450	0.536412	0.820876
	N256	N	0.179824	0.912125	0.461629
	N257	N	0.178235	0.085149	0.534749
	N258	N	0.820853	0.086538	0.461055
	N259	N	0.821634	0.912815	0.534177
	N260	N	0.463891	0.180962	0.909260
	N261	N	0.537586	0.177630	0.081355
	N262	N	0.462322	0.822002	0.083279
	N263	N	0.536264	0.820694	0.910294
	N264	N	0.463449	0.913486	0.175838
	N265	N	0.536882	0.086160	0.175275
	N266	N	0.463343	0.087521	0.817345
	N267	N	0.537859	0.916259	0.819549
	N268	N	0.914455	0.178239	0.461068
	N269	N	0.084706	0.176683	0.535915
	N270	N	0.086063	0.822396	0.461213
	N271	N	0.915757	0.823808	0.534683
	N272	N	0.179501	0.463493	0.910879
	N273	N	0.177941	0.536572	0.084449
	N274	N	0.820605	0.461807	0.084937
	N275	N	0.820241	0.535361	0.911130
	O276	O	0.071612	0.006185	0.000574
	H277	H	0.070971	0.003897	0.011957
	H278	H	0.079948	0.011932	0.005918
	O279	O	0.443261	0.546443	0.455600
	H280	H	0.446312	0.547411	0.449393
	H281	H	0.444443	0.557060	0.462618
	O282	O	0.542753	0.403530	0.466925
	H283	H	0.543013	0.415931	0.463150
	H284	H	0.533159	0.400168	0.455683
	O285	O	-0.002073	0.980352	0.980334
	H286	H	0.002552	0.982924	0.978207
	H287	H	0.003151	0.984607	0.984333
	O288	O	0.447013	0.525022	0.469375
	H289	H	0.429654	0.518706	0.456861
	H290	H	0.454548	0.526525	0.480692
	O291	O	0.976250	1.068212	0.994139
	H292	H	0.977598	1.068363	0.991689
	H293	H	0.962216	1.054189	0.996596
	O294	O	0.555061	1.471005	0.543219
	H295	H	0.549583	1.476214	0.540710
	H296	H	0.549099	1.471341	0.548381
	O297	O	0.978243	-0.033715	0.998498
	H298	H	0.986855	-0.027942	0.990852
	H299	H	0.973064	-0.032292	1.009209
	O300	O	0.573609	0.374584	0.419954
	H301	H	0.572604	0.374303	0.418006
	H302	H	0.561081	0.380775	0.409369
	O303	O	0.942733	0.051294	-0.039549
	H304	H	0.940583	0.050115	-0.037863
	H305	H	0.946594	0.058947	-0.036515
	O306	O	0.015906	0.993320	1.034410
	H307	H	0.015076	0.983796	1.036244
	H308	H	0.018322	0.995596	1.041523
	O309	O	0.505451	0.373064	0.469033
	H310	H	0.501339	0.362028	0.473316
	H311	H	0.511888	0.364889	0.463558
	O312	O	1.039953	-0.102040	0.998893
	H313	H	1.040276	-0.102569	0.991158
	H314	H	1.045678	-0.110146	1.000060
	O315	O	0.370756	0.490011	0.540407
	H316	H	0.375960	0.491311	0.540674
	H317	H	0.367920	0.491199	0.541047
	O318	O	0.431802	0.448714	0.544123
	H319	H	0.429139	0.454360	0.545179
	H320	H	0.433303	0.441072	0.540169
	O321	O	0.991182	1.004320	1.001606
	H322	H	0.987429	1.010234	0.998483
	H323	H	0.980702	1.011996	0.996750
	O324	O	0.554585	0.477939	0.364828
	H325	H	0.548606	0.469228	0.370975
	H326	H	0.570636	0.483196	0.364119
	O327	O	0.598589	0.589085	0.467723
	H328	H	0.607074	0.595420	0.480831
	H329	H	0.591477	0.591460	0.457915
	O330	O	1.111009	0.046024	1.117942
	H331	H	1.104623	0.041491	1.111021
	H332	H	1.097831	0.042078	1.131314
	O333	O	1.094282	1.022992	0.039237
	H334	H	1.097260	1.031258	0.043918
	H335	H	1.099000	1.022312	0.034758
	O336	O	0.561402	0.612776	0.452287
	H337	H	0.570618	0.618699	0.446850
	H338	H	0.567876	0.616956	0.460370
	O339	O	0.457222	0.484048	0.538903
	H340	H	0.453151	0.477409	0.540242
	H341	H	0.461919	0.488377	0.549358
	O342	O	-0.004311	0.973611	0.066834
	H343	H	0.003687	0.980360	0.065555
	H344	H	-0.001981	0.978910	0.069174
	O345	O	-0.010876	-0.103861	0.004938
	H346	H	-0.007637	-0.108407	0.009822
	H347	H	-0.021463	-0.098292	0.000961
	O348	O	0.627686	0.529031	0.557243
	H349	H	0.613934	0.530920	0.548743
	H350	H	0.634997	0.532831	0.567847
	O351	O	0.450612	0.601659	0.519316
	H352	H	0.448211	0.600832	0.521363
	H353	H	0.459302	0.602931	0.525155
	O354	O	0.488780	0.614952	0.527338
	H355	H	0.477823	0.619376	0.539247
	H356	H	0.500341	0.610457	0.538220
	O357	O	0.487827	0.499630	0.566548
	H358	H	0.490332	0.501473	0.557858
	H359	H	0.480882	0.504552	0.567645
	O360	O	-0.036680	0.012909	-0.003272
	H361	H	-0.033231	0.008391	-0.013826
	H362	H	-0.046933	0.007220	-0.000232
	O363	O	0.395974	0.411281	0.559275
	H364	H	0.397012	0.406710	0.544847
	H365	H	0.391287	0.403958	0.565639
	O366	O	-0.125489	-0.064385	1.056214
	H367	H	-0.123754	-0.072665	1.051497
	H368	H	-0.125390	-0.071815	1.058966
	O369	O	0.458329	0.530334	0.522583
	H370	H	0.459646	0.528855	0.530039
	H371	H	0.461912	0.530711	0.523974
