data_Molecule from HDF5

_cell_length_a		16.493530
_cell_length_b		16.452815
_cell_length_c		16.621617
_cell_angle_alpha	89.995219
_cell_angle_beta	89.923197
_cell_angle_gamma	90.160859
_symmetry_space_group_name_H-M	'P 1'
_symmetry_Int_Tables_number		1

loop_
	_symmetry_equiv_pos_as_xyz
	x,y,z

loop_
	_atom_site_label
	_atom_site_type_symbol
	_atom_site_fract_x
	_atom_site_fract_y
	_atom_site_fract_z
	H0	H	0.398307	0.865406	0.721731
	H1	H	0.613375	0.179844	0.723110
	H2	H	0.610064	0.866207	0.278413
	H3	H	0.399467	0.180769	0.277320
	H4	H	0.734006	0.409861	0.844484
	H5	H	0.729248	0.629289	0.153534
	H6	H	0.280597	0.630052	0.845874
	H7	H	0.279121	0.412224	0.153757
	H8	H	0.845441	0.740132	0.397666
	H9	H	0.161081	0.743640	0.604695
	H10	H	0.849054	0.294650	0.609692
	H11	H	0.161968	0.301970	0.395187
	H12	H	0.849328	0.408418	0.727126
	H13	H	0.158537	0.629775	0.724000
	H14	H	0.846391	0.626559	0.278990
	H15	H	0.160629	0.416081	0.277699
	H16	H	0.398052	0.745635	0.844793
	H17	H	0.610103	0.743777	0.155115
	H18	H	0.616378	0.294571	0.844584
	H19	H	0.397527	0.297963	0.154210
	H20	H	0.724026	0.864744	0.396962
	H21	H	0.728170	0.180377	0.606198
	H22	H	0.285840	0.864720	0.602411
	H23	H	0.284786	0.181174	0.395770
	H24	H	0.894487	0.364517	0.223343
	H25	H	0.107050	0.678835	0.218526
	H26	H	0.111826	0.366947	0.775210
	H27	H	0.893406	0.677306	0.772959
	H28	H	0.225154	0.918476	0.343058
	H29	H	0.229601	0.130415	0.655031
	H30	H	0.781582	0.128917	0.343612
	H31	H	0.778914	0.913643	0.655820
	H32	H	0.349137	0.242904	0.895070
	H33	H	0.662162	0.247704	0.106890
	H34	H	0.348440	0.802272	0.102669
	H35	H	0.663985	0.802227	0.895286
	H36	H	0.348354	0.917380	0.219742
	H37	H	0.662643	0.131896	0.222804
	H38	H	0.350623	0.130190	0.776392
	H39	H	0.662814	0.914915	0.776021
	H40	H	0.896684	0.246265	0.344270
	H41	H	0.111946	0.245820	0.654902
	H42	H	0.105676	0.804323	0.342661
	H43	H	0.894846	0.796596	0.655648
	H44	H	0.225495	0.365292	0.893821
	H45	H	0.222787	0.679028	0.101067
	H46	H	0.781603	0.364365	0.104441
	H47	H	0.783536	0.680093	0.892790
	H48	H	0.414738	0.136115	0.587140
	H49	H	0.589675	0.911646	0.589283
	H50	H	0.594179	0.136454	0.411963
	H51	H	0.416229	0.911939	0.414042
	H52	H	0.593673	0.436901	0.108092
	H53	H	0.586913	0.615419	0.888839
	H54	H	0.411560	0.609232	0.111948
	H55	H	0.419626	0.432655	0.888797
	H56	H	0.119268	0.618008	0.407608
	H57	H	0.893762	0.610570	0.579647
	H58	H	0.114715	0.433757	0.585263
	H59	H	0.892342	0.431162	0.417242
	H60	H	0.113531	0.438784	0.586112
	H61	H	0.894336	0.599790	0.587802
	H62	H	0.116714	0.610641	0.410433
	H63	H	0.893359	0.439916	0.410996
	H64	H	0.419342	0.609862	0.109017
	H65	H	0.600636	0.615236	0.884050
	H66	H	0.591785	0.440078	0.106077
	H67	H	0.413597	0.433272	0.886481
	H68	H	0.592806	0.136962	0.409900
	H69	H	0.591034	0.911921	0.585127
	H70	H	0.419098	0.137516	0.593620
	H71	H	0.410820	0.907705	0.406571
	H72	H	0.918185	0.633782	0.090808
	H73	H	0.095149	0.405745	0.091375
	H74	H	0.097034	0.634262	0.918152
	H75	H	0.918592	0.409445	0.908494
	H76	H	0.094337	0.930061	0.613243
	H77	H	0.098613	0.107590	0.388490
	H78	H	0.920343	0.109133	0.609410
	H79	H	0.913913	0.931595	0.389284
	H80	H	0.615848	0.107870	0.916019
	H81	H	0.393476	0.112926	0.087690
	H82	H	0.619922	0.935388	0.091885
	H83	H	0.392994	0.933551	0.909336
	H84	H	0.619661	0.931923	0.088818
	H85	H	0.396317	0.107787	0.086107
	H86	H	0.617202	0.105286	0.911895
	H87	H	0.393155	0.932777	0.911014
	H88	H	0.915884	0.109758	0.610187
	H89	H	0.088901	0.109695	0.390842
	H90	H	0.098860	0.935432	0.613665
	H91	H	0.914371	0.933827	0.389396
	H92	H	0.093948	0.638274	0.904838
	H93	H	0.089149	0.407688	0.091463
	H94	H	0.917388	0.633787	0.088277
	H95	H	0.925331	0.413632	0.913769
	H96	H	0.421925	0.133882	0.587152
	H97	H	0.593590	0.910511	0.588474
	H98	H	0.592330	0.135116	0.411702
	H99	H	0.420661	0.910460	0.405525
	H100	H	0.589721	0.436548	0.106614
	H101	H	0.594319	0.602938	0.889534
	H102	H	0.415735	0.616427	0.113545
	H103	H	0.415906	0.438143	0.890062
	H104	H	0.119258	0.611335	0.402786
	H105	H	0.889386	0.611446	0.592734
	H106	H	0.115996	0.436132	0.589776
	H107	H	0.889855	0.430670	0.407072
	H108	H	0.915537	0.634282	0.090128
	H109	H	0.092032	0.407920	0.086314
	H110	H	0.084150	0.631096	0.912457
	H111	H	0.916934	0.411812	0.917475
	H112	H	0.092857	0.935971	0.610476
	H113	H	0.094776	0.117357	0.386854
	H114	H	0.917633	0.105876	0.608484
	H115	H	0.915959	0.932032	0.389298
	H116	H	0.618773	0.109839	0.912286
	H117	H	0.393887	0.108848	0.091599
	H118	H	0.617899	0.936300	0.088198
	H119	H	0.393953	0.934305	0.910412
	C120	C	0.385118	0.031478	0.621179
	C121	C	0.625891	1.014775	0.621067
	C122	C	0.625357	0.031722	0.379348
	C123	C	0.384036	1.014915	0.377350
	C124	C	0.626705	0.401700	0.005781
	C125	C	0.627155	0.644125	0.990157
	C126	C	0.382989	0.644144	0.008606
	C127	C	0.383098	0.400612	0.990899
	C128	C	0.013053	0.643804	0.377194
	C129	C	0.995381	0.642131	0.620400
	C130	C	0.012328	0.400436	0.621794
	C131	C	0.995644	0.401032	0.378964
	C132	C	0.882788	0.529957	0.121774
	C133	C	0.124516	0.511874	0.120583
	C134	C	0.124587	0.530939	0.878825
	C135	C	0.884719	0.514287	0.878701
	C136	C	0.126115	0.901861	0.508639
	C137	C	0.127383	0.144878	0.491219
	C138	C	0.883664	0.142781	0.507296
	C139	C	0.881456	0.899282	0.492192
	C140	C	0.514464	0.142000	0.879839
	C141	C	0.497454	0.144919	0.121822
	C142	C	0.514890	0.902192	0.120857
	C143	C	0.497439	0.900685	0.877440
	C144	C	0.381087	0.912922	0.681272
	C145	C	0.630694	0.132889	0.682592
	C146	C	0.628183	0.913014	0.319016
	C147	C	0.381941	0.133677	0.317948
	C148	C	0.691797	0.394029	0.890727
	C149	C	0.688291	0.647217	0.107198
	C150	C	0.321530	0.647576	0.892207
	C151	C	0.320430	0.395514	0.107163
	C152	C	0.893474	0.701314	0.378321
	C153	C	0.113649	0.703467	0.623414
	C154	C	0.895844	0.336227	0.626821
	C155	C	0.114305	0.341200	0.376495
	C156	C	0.896081	0.393182	0.685441
	C157	C	0.112568	0.646890	0.682357
	C158	C	0.893670	0.644594	0.319195
	C159	C	0.113771	0.398196	0.318277
	C160	C	0.379917	0.705336	0.891802
	C161	C	0.629041	0.703949	0.108134
	C162	C	0.632824	0.336656	0.890564
	C163	C	0.379525	0.338583	0.107537
	C164	C	0.684644	0.912348	0.377848
	C165	C	0.687827	0.133006	0.624401
	C166	C	0.324796	0.912529	0.622029
	C167	C	0.324628	0.133852	0.376475
	C168	C	0.877612	0.411822	0.182650
	C169	C	0.126168	0.631450	0.179033
	C170	C	0.128946	0.413560	0.816547
	C171	C	0.878078	0.631136	0.815084
	C172	C	0.185045	0.900274	0.390195
	C173	C	0.188748	0.148275	0.607964
	C174	C	0.821954	0.146870	0.390619
	C175	C	0.819558	0.895827	0.608935
	C176	C	0.396399	0.203138	0.876717
	C177	C	0.614900	0.207462	0.125142
	C178	C	0.395952	0.842193	0.121773
	C179	C	0.616006	0.840998	0.875789
	C180	C	0.395975	0.899532	0.179992
	C181	C	0.615315	0.149275	0.182665
	C182	C	0.397327	0.146973	0.817681
	C183	C	0.615677	0.897470	0.816700
	C184	C	0.879578	0.205213	0.390821
	C185	C	0.130380	0.206008	0.608213
	C186	C	0.125899	0.843175	0.390169
	C187	C	0.877525	0.837587	0.608894
	C188	C	0.185502	0.412688	0.875335
	C189	C	0.183431	0.631490	0.120745
	C190	C	0.821341	0.411855	0.123514
	C191	C	0.823066	0.632286	0.874704
	C192	C	0.411083	0.114203	0.596353
	C193	C	0.599027	0.932831	0.595052
	C194	C	0.600243	0.114410	0.404063
	C195	C	0.408736	0.931713	0.401781
	C196	C	0.599460	0.429774	0.086111
	C197	C	0.601448	0.618411	0.908841
	C198	C	0.408331	0.618916	0.090234
	C199	C	0.409118	0.427208	0.909521
	C200	C	0.096640	0.620062	0.400147
	C201	C	0.913782	0.615230	0.594216
	C202	C	0.093684	0.428197	0.594739
	C203	C	0.913593	0.426520	0.404617
	C204	C	0.909493	0.612457	0.096840
	C205	C	0.099398	0.428759	0.096623
	C206	C	0.099083	0.612995	0.904549
	C207	C	0.912205	0.432867	0.905638
	C208	C	0.102227	0.926584	0.590930
	C209	C	0.101241	0.118869	0.409764
	C210	C	0.910313	0.115946	0.588326
	C211	C	0.907256	0.925349	0.410617
	C212	C	0.595995	0.115278	0.905839
	C213	C	0.415759	0.117692	0.095833
	C214	C	0.597458	0.927270	0.096584
	C215	C	0.414929	0.926375	0.902696
	Zn216	Zn	0.506178	0.022331	0.749806
	Zn217	Zn	0.506021	0.023376	0.249835
	Zn218	Zn	0.756492	0.522426	-0.001580
	Zn219	Zn	0.253546	0.521761	-0.000441
	Zn220	Zn	0.004432	0.771402	0.500291
	Zn221	Zn	0.004514	0.272671	0.499578
	Zn222	Zn	0.003813	0.522401	0.749930
	Zn223	Zn	0.003906	0.520947	0.249525
	Zn224	Zn	0.505962	0.772960	-0.000505
	Zn225	Zn	0.505676	0.272144	-0.001205
	Zn226	Zn	0.753732	0.022583	0.500025
	Zn227	Zn	0.256342	0.023018	0.499732
	N228	N	0.417749	0.987912	0.680891
	N229	N	0.593078	0.058240	0.680664
	N230	N	0.592116	0.988225	0.319665
	N231	N	0.417723	0.058463	0.318257
	N232	N	0.687841	0.434106	0.963146
	N233	N	0.687135	0.610636	0.033002
	N234	N	0.323283	0.610139	0.965842
	N235	N	0.322310	0.433353	0.033468
	N236	N	0.968628	0.700800	0.413634
	N237	N	0.039714	0.700688	0.585865
	N238	N	0.969339	0.340399	0.588046
	N239	N	0.039972	0.342999	0.413628
	N240	N	0.969571	0.432710	0.682155
	N241	N	0.037967	0.609693	0.680702
	N242	N	0.969364	0.609629	0.318121
	N243	N	0.038824	0.434441	0.319357
	N244	N	0.417802	0.703333	0.965215
	N245	N	0.591877	0.702288	0.034350
	N246	N	0.592872	0.341515	0.963019
	N247	N	0.417651	0.341579	0.034101
	N248	N	0.682979	0.987028	0.414491
	N249	N	0.684899	0.058587	0.586944
	N250	N	0.327102	0.987349	0.585267
	N251	N	0.325903	0.058847	0.412746
	N252	N	0.914865	0.486709	0.181974
	N253	N	0.090179	0.556025	0.179028
	N254	N	0.091896	0.488098	0.818470
	N255	N	0.915416	0.556520	0.817185
	N256	N	0.185499	0.935941	0.464908
	N257	N	0.187158	0.111208	0.534015
	N258	N	0.824373	0.108853	0.464059
	N259	N	0.821896	0.933518	0.535205
	N260	N	0.470407	0.200309	0.914532
	N261	N	0.540545	0.204983	0.088039
	N262	N	0.470933	0.843478	0.085809
	N263	N	0.541373	0.842651	0.912569
	N264	N	0.470868	0.936318	0.179607
	N265	N	0.541053	0.111376	0.180903
	N266	N	0.471645	0.109708	0.819465
	N267	N	0.540525	0.933462	0.817368
	N268	N	0.916978	0.203089	0.464689
	N269	N	0.092778	0.203902	0.534531
	N270	N	0.089883	0.843908	0.464760
	N271	N	0.915526	0.839719	0.535368
	N272	N	0.182974	0.486620	0.913444
	N273	N	0.182584	0.556112	0.085457
	N274	N	0.824379	0.486414	0.086510
	N275	N	0.827098	0.558627	0.913495
	O276	O	0.797884	0.819855	0.205258
	H277	H	0.781571	0.836238	0.222154
	H278	H	0.804911	0.807092	0.201403
	O279	O	-0.034831	-0.195106	1.219302
	H280	H	-0.053552	-0.189758	1.200521
	H281	H	-0.036244	-0.223049	1.248354
	O282	O	0.428917	0.395564	0.645459
	H283	H	0.428117	0.385345	0.662581
	H284	H	0.424653	0.398704	0.632093
	O285	O	0.307478	0.375286	0.384987
	H286	H	0.319363	0.380243	0.378632
	H287	H	0.311397	0.387159	0.395455
	O288	O	0.794690	-0.192342	1.030042
	H289	H	0.776021	-0.212043	1.048455
	H290	H	0.801413	-0.193190	1.031050
	O291	O	0.388651	0.636816	0.372736
	H292	H	0.364249	0.648258	0.361042
	H293	H	0.394428	0.650052	0.389966
	O294	O	-0.026295	0.233667	0.026191
	H295	H	-0.011973	0.231697	0.032055
	H296	H	-0.023457	0.232436	0.013402
	O297	O	0.837385	0.006699	1.204631
	H298	H	0.840458	0.008695	1.200596
	H299	H	0.834998	-0.002799	1.217354
	O300	O	-0.046027	-0.059876	-0.030884
	H301	H	-0.041940	-0.057648	-0.042718
	H302	H	-0.043906	-0.069702	-0.038975
	O303	O	-0.014187	0.019057	0.046820
	H304	H	-0.023250	0.014192	0.039097
	H305	H	-0.012708	0.024134	0.044276
	O306	O	1.229839	0.047123	-0.028279
	H307	H	1.224944	0.047867	-0.031280
	H308	H	1.235739	0.036651	-0.037002
	O309	O	0.310612	0.332365	0.501299
	H310	H	0.293037	0.317160	0.495725
	H311	H	0.328265	0.342774	0.507953
	O312	O	0.477016	0.313305	0.446303
	H313	H	0.474504	0.306841	0.427585
	H314	H	0.481463	0.315671	0.457010
	O315	O	0.293430	0.496939	0.714304
	H316	H	0.301684	0.491199	0.716144
	H317	H	0.280797	0.498393	0.723532
	O318	O	0.688602	0.707631	-0.684566
	H319	H	0.672001	0.708429	-0.671411
	H320	H	0.666477	0.686694	-0.684511
	O321	O	0.726613	0.303861	0.476396
	H322	H	0.752550	0.271793	0.472366
	H323	H	0.720517	0.310835	0.437651
	O324	O	1.449759	-0.258323	0.559370
	H325	H	1.444358	-0.260507	0.564211
	H326	H	1.458770	-0.251468	0.587616
	O327	O	0.295162	0.731879	0.471001
	H328	H	0.298150	0.727359	0.473319
	H329	H	0.292944	0.750131	0.473298
	O330	O	0.160511	0.987819	0.049022
	H331	H	0.150873	1.002360	0.055903
	H332	H	0.161385	1.004076	0.055419
	O333	O	0.288825	0.551892	0.531333
	H334	H	0.290587	0.558204	0.534761
	H335	H	0.288531	0.545489	0.519745
	O336	O	0.565558	0.581208	0.272211
	H337	H	0.555410	0.576302	0.284018
	H338	H	0.572330	0.570537	0.271638
	O339	O	0.463383	0.442706	0.618104
	H340	H	0.469495	0.448604	0.624643
	H341	H	0.460300	0.442350	0.614262
	O342	O	0.204243	0.824771	-0.014004
	H343	H	0.200595	0.833215	-0.008147
	H344	H	0.206613	0.821125	-0.022318
	O345	O	0.978702	0.905123	-0.151514
	H346	H	0.971760	0.892382	-0.173301
	H347	H	0.967658	0.915983	-0.164938
	O348	O	0.569947	0.737982	0.448001
	H349	H	0.547311	0.734388	0.442917
	H350	H	0.567619	0.742795	0.455177
	O351	O	-0.067279	0.068946	0.782478
	H352	H	-0.060109	0.082812	0.798635
	H353	H	-0.061773	0.070616	0.781220
	O354	O	0.992546	-0.180911	1.002134
	H355	H	0.978429	-0.185236	1.019321
	H356	H	0.976961	-0.166045	1.004522
	O357	O	0.558659	0.540553	0.473666
	H358	H	0.565152	0.538033	0.485503
	H359	H	0.545372	0.545773	0.475387
	O360	O	0.257552	-0.234247	1.251791
	H361	H	0.236538	-0.204701	1.225565
	H362	H	0.240281	-0.239418	1.262749
	O363	O	0.445125	0.456884	0.265749
	H364	H	0.419880	0.472116	0.258928
	H365	H	0.449118	0.476095	0.284518
	O366	O	1.589603	0.347679	0.550014
	H367	H	1.596830	0.347138	0.541502
	H368	H	1.596193	0.351399	0.550952
	O369	O	-0.209842	0.042828	0.778797
	H370	H	-0.205117	0.071562	0.776026
	H371	H	-0.235282	0.048080	0.766996
	O372	O	0.041956	1.016682	1.107033
	H373	H	0.038766	1.021545	1.099837
	H374	H	0.048734	1.009340	1.099294
	O375	O	1.102056	-0.027871	-0.019346
	H376	H	1.090301	-0.036206	-0.014579
	H377	H	1.103346	-0.001112	-0.000235
	O378	O	0.299695	0.316301	0.708765
	H379	H	0.311625	0.307558	0.721572
	H380	H	0.294982	0.339440	0.683251
	O381	O	-0.022376	0.854891	-0.143462
	H382	H	-0.016646	0.837330	-0.162899
	H383	H	-0.010834	0.858420	-0.134928
	O384	O	0.524037	0.491594	0.565789
	H385	H	0.517339	0.485969	0.564851
	H386	H	0.524110	0.482841	0.571099
	O387	O	0.290579	0.546642	0.275770
	H388	H	0.273027	0.554529	0.261810
	H389	H	0.284622	0.573005	0.281174
	O390	O	0.161389	1.183690	1.030358
	H391	H	0.176370	1.201025	1.016519
	H392	H	0.144130	1.176610	1.011559
	O393	O	1.020253	0.225082	-0.094986
	H394	H	1.028278	0.206322	-0.110638
	H395	H	1.022273	0.218201	-0.099337
	O396	O	0.128772	-0.091415	0.193282
	H397	H	0.111075	-0.080816	0.189421
	H398	H	0.136499	-0.069600	0.182683
	O399	O	0.207123	0.820623	0.798733
	H400	H	0.180675	0.813956	0.816075
	H401	H	0.226814	0.814706	0.792657
	O402	O	1.178287	0.041561	0.784808
	H403	H	1.199727	0.024138	0.766334
	H404	H	1.181468	0.024381	0.789370
	O405	O	0.723876	0.542777	0.720658
	H406	H	0.746173	0.534906	0.726691
	H407	H	0.744960	0.528329	0.708048
	O408	O	1.023287	1.229023	1.214197
	H409	H	1.037531	1.233178	1.206815
	H410	H	1.022365	1.247175	1.223666
	O411	O	0.701155	0.327090	0.308046
	H412	H	0.692411	0.362551	0.298767
	H413	H	0.666541	0.331165	0.301944
	O414	O	-0.196438	0.222887	-0.017316
	H415	H	-0.183799	0.218862	-0.009981
	H416	H	-0.208820	0.232421	-0.009651
	O417	O	0.719094	0.498140	0.280317
	H418	H	0.726932	0.507918	0.297002
	H419	H	0.734128	0.496673	0.255298
	O420	O	1.226653	0.058469	1.221252
	H421	H	1.262237	0.057420	1.252870
	H422	H	1.205906	0.085759	1.219542
	O423	O	1.196553	1.219788	0.195395
	H424	H	1.189481	1.229772	0.169522
	H425	H	1.199566	1.215485	0.193213
	O426	O	0.717218	0.727419	0.528716
	H427	H	0.716661	0.736572	0.542134
	H428	H	0.714893	0.744427	0.513634
	O429	O	0.472999	0.733481	0.286886
	H430	H	0.476064	0.747692	0.266265
	H431	H	0.448361	0.726172	0.285256
	O432	O	1.055723	0.192778	0.819454
	H433	H	1.061421	0.184490	0.810795
	H434	H	1.050935	0.188987	0.812802
	O435	O	0.532359	0.744038	0.721585
	H436	H	0.562769	0.722196	0.716905
	H437	H	0.535282	0.778362	0.756644
	O438	O	0.668878	0.447167	0.577683
	H439	H	0.662628	0.433617	0.571860
	H440	H	0.665882	0.435819	0.559025
	O441	O	0.439529	0.504926	0.498163
	H442	H	0.443294	0.515709	0.513164
	H443	H	0.444411	0.492650	0.492884
	O444	O	0.904610	0.123951	0.192073
	H445	H	0.893135	0.129066	0.198773
	H446	H	0.907630	0.121115	0.200608
	O447	O	0.863762	0.031959	0.860527
	H448	H	0.872878	0.036002	0.874386
	H449	H	0.860776	0.026329	0.861062
	O450	O	0.726101	0.561877	0.465721
	H451	H	0.716741	0.570867	0.466703
	H452	H	0.725406	0.574224	0.471480
	O453	O	0.689537	0.705745	0.688382
	H454	H	0.694166	0.661423	0.697364
	H455	H	0.689653	0.712190	0.659805
	O456	O	-0.202742	0.982522	1.030096
	H457	H	-0.198881	0.989466	1.037986
	H458	H	-0.204393	0.994318	1.037950
	O459	O	0.323446	0.690699	0.687174
	H460	H	0.334095	0.666930	0.677102
	H461	H	0.322003	0.681316	0.688916
	O462	O	0.529339	0.310533	0.283694
	H463	H	0.521443	0.290249	0.266739
	H464	H	0.508041	0.335582	0.269514
	O465	O	0.643121	0.381957	0.743415
	H466	H	0.633088	0.377407	0.740184
	H467	H	0.679969	0.390292	0.751280
	O468	O	-0.829692	0.224208	-0.106230
	H469	H	-0.828004	0.229786	-0.114169
	H470	H	-0.846133	0.212382	-0.103413
	O471	O	0.021030	0.041956	0.797676
	H472	H	0.033768	0.025771	0.798047
	H473	H	0.021553	0.031343	0.803041
	O474	O	0.895788	0.965479	0.040156
	H475	H	0.906709	0.952803	0.046495
	H476	H	0.881187	0.968292	0.050463
	O477	O	0.456648	0.490821	0.728048
	H478	H	0.476996	0.484386	0.731716
	H479	H	0.471960	0.486122	0.741416
