data_Molecule from HDF5

_cell_length_a		16.205313
_cell_length_b		16.199109
_cell_length_c		16.180747
_cell_angle_alpha	90.062482
_cell_angle_beta	89.574775
_cell_angle_gamma	90.520981
_symmetry_space_group_name_H-M	'P 1'
_symmetry_Int_Tables_number		1

loop_
	_symmetry_equiv_pos_as_xyz
	x,y,z

loop_
	_atom_site_label
	_atom_site_type_symbol
	_atom_site_fract_x
	_atom_site_fract_y
	_atom_site_fract_z
	H0	H	0.397966	0.836639	0.712971
	H1	H	0.600902	0.163763	0.712116
	H2	H	0.596321	0.835800	0.281867
	H3	H	0.400260	0.165121	0.283237
	H4	H	0.719600	0.404165	0.833980
	H5	H	0.716723	0.602734	0.163324
	H6	H	0.289515	0.601394	0.835436
	H7	H	0.285475	0.400478	0.162651
	H8	H	0.835794	0.711807	0.401021
	H9	H	0.164146	0.718502	0.598222
	H10	H	0.836486	0.283674	0.602121
	H11	H	0.165547	0.287235	0.400511
	H12	H	0.837512	0.400208	0.716646
	H13	H	0.165546	0.602172	0.712823
	H14	H	0.837395	0.597459	0.284920
	H15	H	0.165581	0.401448	0.284960
	H16	H	0.408248	0.711483	0.833434
	H17	H	0.601650	0.719109	0.162421
	H18	H	0.603220	0.287884	0.833294
	H19	H	0.400034	0.285079	0.161817
	H20	H	0.713740	0.835392	0.395925
	H21	H	0.714908	0.163815	0.596712
	H22	H	0.283807	0.836269	0.598500
	H23	H	0.286852	0.164937	0.399516
	H24	H	0.901127	0.334640	0.212294
	H25	H	0.103320	0.663297	0.215072
	H26	H	0.101759	0.335750	0.783065
	H27	H	0.906375	0.664738	0.786347
	H28	H	0.215325	0.901719	0.334155
	H29	H	0.215619	0.100967	0.663231
	H30	H	0.789310	0.098122	0.333828
	H31	H	0.780355	0.897591	0.662055
	H32	H	0.337668	0.216933	0.897969
	H33	H	0.665632	0.217112	0.095694
	H34	H	0.338568	0.782683	0.100396
	H35	H	0.666268	0.790875	0.897453
	H36	H	0.335563	0.900707	0.210951
	H37	H	0.663918	0.103579	0.213087
	H38	H	0.335514	0.098506	0.785109
	H39	H	0.662851	0.903346	0.780747
	H40	H	0.904825	0.213597	0.334943
	H41	H	0.099452	0.215109	0.663845
	H42	H	0.099007	0.786042	0.333949
	H43	H	0.898253	0.784895	0.663500
	H44	H	0.217350	0.336842	0.899394
	H45	H	0.216118	0.665303	0.097189
	H46	H	0.781947	0.338296	0.100846
	H47	H	0.794072	0.666046	0.901884
	H48	H	0.409783	0.114838	0.581125
	H49	H	0.591407	0.883044	0.583879
	H50	H	0.595557	0.117782	0.405720
	H51	H	0.409778	0.884992	0.405142
	H52	H	0.585599	0.410323	0.112271
	H53	H	0.604991	0.599874	0.878592
	H54	H	0.416394	0.591004	0.114672
	H55	H	0.410690	0.410127	0.880207
	H56	H	0.117301	0.594069	0.410614
	H57	H	0.885736	0.585144	0.592917
	H58	H	0.117559	0.410705	0.589541
	H59	H	0.881777	0.404697	0.403187
	H60	H	0.118730	0.407742	0.592743
	H61	H	0.881987	0.592810	0.599103
	H62	H	0.118011	0.590858	0.405662
	H63	H	0.883481	0.403148	0.409272
	H64	H	0.408964	0.600872	0.119286
	H65	H	0.599476	0.590135	0.882813
	H66	H	0.594721	0.404737	0.117857
	H67	H	0.411683	0.410913	0.882014
	H68	H	0.594998	0.117932	0.404013
	H69	H	0.593611	0.880281	0.593410
	H70	H	0.399226	0.122107	0.593872
	H71	H	0.403744	0.883593	0.407148
	H72	H	0.915694	0.615117	0.087390
	H73	H	0.087654	0.385041	0.090284
	H74	H	0.104781	0.619879	0.906675
	H75	H	0.899652	0.381942	0.912719
	H76	H	0.096618	0.901050	0.620361
	H77	H	0.084023	0.094812	0.385122
	H78	H	0.903878	0.092265	0.618482
	H79	H	0.912227	0.907525	0.383090
	H80	H	0.615945	0.093030	0.908330
	H81	H	0.383333	0.095500	0.086768
	H82	H	0.621941	0.902920	0.096020
	H83	H	0.381711	0.902709	0.908414
	H84	H	0.615763	0.909987	0.079163
	H85	H	0.384207	0.089264	0.090020
	H86	H	0.618132	0.091891	0.900638
	H87	H	0.383216	0.907267	0.906185
	H88	H	0.906593	0.088885	0.616296
	H89	H	0.099611	0.099878	0.377808
	H90	H	0.095783	0.917779	0.614516
	H91	H	0.905556	0.898299	0.378851
	H92	H	0.092724	0.618032	0.898691
	H93	H	0.099853	0.382350	0.086284
	H94	H	0.903058	0.620576	0.092623
	H95	H	0.913680	0.381606	0.897786
	H96	H	0.415446	0.116901	0.597581
	H97	H	0.584032	0.883682	0.591261
	H98	H	0.593970	0.116314	0.405117
	H99	H	0.406067	0.882673	0.401241
	H100	H	0.596508	0.416433	0.114093
	H101	H	0.593763	0.600240	0.880943
	H102	H	0.404162	0.589098	0.117881
	H103	H	0.411305	0.408849	0.880650
	H104	H	0.119454	0.596704	0.406108
	H105	H	0.883862	0.595158	0.589797
	H106	H	0.117566	0.405906	0.588847
	H107	H	0.884483	0.409550	0.406785
	H108	H	0.913561	0.618868	0.101198
	H109	H	0.095700	0.379331	0.099727
	H110	H	0.092903	0.615166	0.912451
	H111	H	0.917908	0.388116	0.917295
	H112	H	0.081054	0.908556	0.613454
	H113	H	0.097016	0.082822	0.384151
	H114	H	0.907734	0.092998	0.616448
	H115	H	0.901427	0.909702	0.380266
	H116	H	0.619521	0.099044	0.904035
	H117	H	0.382025	0.095400	0.093986
	H118	H	0.616500	0.920812	0.093426
	H119	H	0.381577	0.904149	0.903776
	C120	C	0.378332	0.009342	0.619991
	C121	C	0.620291	0.991088	0.618563
	C122	C	0.622095	0.008644	0.375372
	C123	C	0.377986	0.992176	0.376195
	C124	C	0.623474	0.381208	0.006548
	C125	C	0.626611	0.625523	0.989619
	C126	C	0.382280	0.622084	0.008302
	C127	C	0.380577	0.379614	0.989545
	C128	C	0.009539	0.621408	0.378262
	C129	C	0.992247	0.621948	0.621796
	C130	C	0.009914	0.378373	0.621438
	C131	C	0.992374	0.377798	0.377805
	C132	C	0.880290	0.509427	0.121865
	C133	C	0.123775	0.491029	0.120848
	C134	C	0.125461	0.509382	0.876392
	C135	C	0.882732	0.492359	0.879690
	C136	C	0.120724	0.879914	0.507369
	C137	C	0.122676	0.122479	0.490692
	C138	C	0.878835	0.120568	0.507985
	C139	C	0.876676	0.876568	0.489487
	C140	C	0.509186	0.122940	0.875697
	C141	C	0.491710	0.123415	0.119365
	C142	C	0.509486	0.880502	0.119006
	C143	C	0.491397	0.878552	0.876644
	C144	C	0.378391	0.885607	0.675392
	C145	C	0.619961	0.114663	0.674249
	C146	C	0.617745	0.884996	0.319707
	C147	C	0.380372	0.116035	0.320990
	C148	C	0.680970	0.383432	0.882980
	C149	C	0.679948	0.623426	0.113814
	C150	C	0.327530	0.620537	0.884378
	C151	C	0.323837	0.381005	0.113289
	C152	C	0.885296	0.674726	0.380792
	C153	C	0.115339	0.679909	0.618907
	C154	C	0.886125	0.321609	0.621734
	C155	C	0.116118	0.323675	0.379827
	C156	C	0.886238	0.379650	0.678420
	C157	C	0.116181	0.621886	0.675678
	C158	C	0.886171	0.617678	0.322940
	C159	C	0.116360	0.380619	0.322396
	C160	C	0.386585	0.675610	0.883492
	C161	C	0.622937	0.681406	0.113282
	C162	C	0.623248	0.325560	0.882764
	C163	C	0.380776	0.323361	0.112971
	C164	C	0.676115	0.884895	0.376566
	C165	C	0.676635	0.114746	0.616335
	C166	C	0.321669	0.885578	0.618579
	C167	C	0.323658	0.115830	0.378712
	C168	C	0.880713	0.384956	0.176009
	C169	C	0.122687	0.614584	0.176548
	C170	C	0.122714	0.385319	0.820672
	C171	C	0.885502	0.615805	0.823944
	C172	C	0.177155	0.881215	0.383304
	C173	C	0.177811	0.120822	0.614196
	C174	C	0.826107	0.118339	0.383376
	C175	C	0.819345	0.878128	0.613264
	C176	C	0.386443	0.178611	0.877922
	C177	C	0.615873	0.179596	0.116816
	C178	C	0.386835	0.821955	0.118936
	C179	C	0.616020	0.826444	0.877454
	C180	C	0.385262	0.881073	0.173875
	C181	C	0.615048	0.123047	0.174942
	C182	C	0.385375	0.119834	0.821816
	C183	C	0.614544	0.882696	0.819551
	C184	C	0.883224	0.175950	0.383975
	C185	C	0.120121	0.177744	0.614501
	C186	C	0.119046	0.824072	0.383167
	C187	C	0.878040	0.822129	0.614027
	C188	C	0.180333	0.385868	0.878468
	C189	C	0.178630	0.615648	0.118140
	C190	C	0.821643	0.386483	0.120637
	C191	C	0.829692	0.616479	0.881520
	C192	C	0.401332	0.095617	0.597547
	C193	C	0.596654	0.904778	0.596213
	C194	C	0.601091	0.095031	0.398204
	C195	C	0.399970	0.906013	0.397899
	C196	C	0.599616	0.404112	0.092626
	C197	C	0.605544	0.603127	0.903082
	C198	C	0.403574	0.600091	0.094923
	C199	C	0.404444	0.402875	0.903351
	C200	C	0.095798	0.600152	0.400688
	C201	C	0.906122	0.598001	0.600428
	C202	C	0.095783	0.401420	0.597421
	C203	C	0.905637	0.399420	0.399888
	C204	C	0.903898	0.595823	0.099993
	C205	C	0.101226	0.404613	0.098565
	C206	C	0.103441	0.595482	0.899059
	C207	C	0.904303	0.406131	0.902433
	C208	C	0.097945	0.902471	0.593687
	C209	C	0.100148	0.099409	0.404519
	C210	C	0.899592	0.098071	0.594667
	C211	C	0.899691	0.898564	0.403227
	C212	C	0.595612	0.101237	0.897666
	C213	C	0.405467	0.100354	0.096890
	C214	C	0.595773	0.904140	0.096195
	C215	C	0.404615	0.898942	0.899474
	Zn216	Zn	0.498939	0.000254	0.747929
	Zn217	Zn	0.499625	0.001361	0.247132
	Zn218	Zn	0.753713	0.502216	-0.000892
	Zn219	Zn	0.252673	0.501530	-0.000712
	Zn220	Zn	-0.000462	0.750227	0.499496
	Zn221	Zn	0.000561	0.249871	0.499791
	Zn222	Zn	0.001971	0.499882	0.749413
	Zn223	Zn	0.002085	0.499388	0.249266
	Zn224	Zn	0.502316	0.751465	-0.001645
	Zn225	Zn	0.501665	0.251665	-0.002607
	Zn226	Zn	0.750138	-0.000737	0.498204
	Zn227	Zn	0.250634	0.000720	0.498833
	N228	N	0.412935	0.963509	0.676610
	N229	N	0.585652	0.036786	0.675801
	N230	N	0.584652	0.963004	0.319021
	N231	N	0.413530	0.038149	0.319333
	N232	N	0.681248	0.417418	0.961074
	N233	N	0.682571	0.589642	0.035860
	N234	N	0.324489	0.588176	0.962980
	N235	N	0.323302	0.415092	0.035256
	N236	N	0.963010	0.677128	0.414428
	N237	N	0.037278	0.680124	0.586100
	N238	N	0.963765	0.320853	0.586779
	N239	N	0.037893	0.321745	0.413607
	N240	N	0.964274	0.414162	0.678543
	N241	N	0.038724	0.586411	0.677433
	N242	N	0.964519	0.585339	0.321001
	N243	N	0.038339	0.413447	0.320866
	N244	N	0.420149	0.676578	0.961326
	N245	N	0.590750	0.683139	0.034912
	N246	N	0.588425	0.323993	0.960465
	N247	N	0.415434	0.322564	0.034949
	N248	N	0.679413	0.962959	0.410290
	N249	N	0.676958	0.036817	0.582250
	N250	N	0.321524	0.963422	0.584675
	N251	N	0.322058	0.037973	0.412488
	N252	N	0.916427	0.462521	0.176863
	N253	N	0.089445	0.536148	0.178439
	N254	N	0.089401	0.463161	0.819134
	N255	N	0.917797	0.537630	0.822654
	N256	N	0.178039	0.915573	0.461164
	N257	N	0.179617	0.087091	0.536040
	N258	N	0.823282	0.084628	0.461582
	N259	N	0.818563	0.911500	0.534970
	N260	N	0.464606	0.180701	0.910629
	N261	N	0.538092	0.179972	0.083012
	N262	N	0.465080	0.821598	0.085567
	N263	N	0.538455	0.823802	0.912303
	N264	N	0.462719	0.916829	0.174182
	N265	N	0.536952	0.088868	0.176743
	N266	N	0.462832	0.085741	0.820302
	N267	N	0.535917	0.914177	0.818658
	N268	N	0.915241	0.177476	0.462475
	N269	N	0.086502	0.178723	0.536731
	N270	N	0.084685	0.823166	0.461266
	N271	N	0.912931	0.821010	0.536250
	N272	N	0.182270	0.463913	0.912043
	N273	N	0.179555	0.537772	0.084095
	N274	N	0.820881	0.465036	0.088019
	N275	N	0.827742	0.538747	0.915593
	O276	O	-0.011673	-0.037902	-0.071196
	H277	H	-0.019429	-0.024818	-0.075922
	H278	H	-0.019751	-0.043352	-0.078279
	O279	O	0.576550	0.432727	0.429559
	H280	H	0.586653	0.425393	0.420883
	H281	H	0.576655	0.432673	0.424114
	O282	O	0.479542	0.489480	0.569235
	H283	H	0.494919	0.492668	0.567289
	H284	H	0.485717	0.479180	0.557606
	O285	O	-0.068969	1.043987	1.042529
	H286	H	-0.060319	1.042860	1.040861
	H287	H	-0.065096	1.043640	1.042824
	O288	O	0.538370	0.438650	0.398074
	H289	H	0.542734	0.434816	0.402358
	H290	H	0.542880	0.428183	0.398395
	O291	O	0.878679	0.901604	1.018628
	H292	H	0.877777	0.908372	1.032477
	H293	H	0.887300	0.902212	1.012308
	O294	O	0.560213	1.509087	0.503563
	H295	H	0.556648	1.499761	0.509009
	H296	H	0.559631	1.518184	0.503932
	O297	O	0.932840	0.012262	1.055761
	H298	H	0.938577	0.007309	1.056051
	H299	H	0.910138	0.012888	1.057281
	O300	O	0.563910	0.454571	0.552164
	H301	H	0.566735	0.448073	0.546736
	H302	H	0.568035	0.457828	0.559863
	O303	O	1.002431	-0.038927	0.054042
	H304	H	0.995678	-0.035445	0.067109
	H305	H	1.010665	-0.033290	0.064488
	O306	O	-0.009635	1.008938	0.950238
	H307	H	-0.013407	0.997360	0.940879
	H308	H	-0.013346	1.013182	0.953388
	O309	O	0.426161	0.485793	0.529197
	H310	H	0.427834	0.488545	0.543757
	H311	H	0.424541	0.484536	0.534185
	O312	O	1.016723	0.077563	0.983463
	H313	H	1.005409	0.072745	0.986464
	H314	H	1.014538	0.080098	0.970712
	O315	O	0.418596	0.457479	0.467143
	H316	H	0.414883	0.460388	0.466005
	H317	H	0.414123	0.452875	0.474284
	O318	O	0.448947	0.604726	0.481423
	H319	H	0.449409	0.604335	0.478418
	H320	H	0.440121	0.610374	0.480374
	O321	O	0.959191	1.047348	0.973347
	H322	H	0.963020	1.031099	0.960365
	H323	H	0.952886	1.050453	0.972020
	O324	O	0.497313	0.434813	0.497055
	H325	H	0.491808	0.425403	0.487716
	H326	H	0.500937	0.426774	0.495281
	O327	O	0.544985	0.500837	0.414509
	H328	H	0.548912	0.505333	0.411725
	H329	H	0.545294	0.509436	0.406531
	O330	O	1.006165	-0.035549	1.036172
	H331	H	1.016200	-0.028894	1.038423
	H332	H	1.016911	-0.036368	1.033165
	O333	O	1.061750	0.967740	0.072945
	H334	H	1.064494	0.971180	0.065176
	H335	H	1.065563	0.969708	0.074694
	O336	O	0.390509	0.458415	0.505680
	H337	H	0.385527	0.439110	0.502710
	H338	H	0.378715	0.454651	0.517168
	O339	O	0.471205	0.431779	0.507883
	H340	H	0.457938	0.435139	0.512006
	H341	H	0.462974	0.433083	0.505115
	O342	O	0.025093	1.096318	0.026878
	H343	H	0.021980	1.100789	0.032571
	H344	H	0.031924	1.096606	0.023390
	O345	O	0.006908	-0.035862	0.007841
	H346	H	0.001197	-0.035361	0.003835
	H347	H	0.009686	-0.040386	0.028426
	O348	O	0.514325	0.560118	0.373812
	H349	H	0.511078	0.563311	0.370460
	H350	H	0.530493	0.567538	0.370769
	O351	O	0.543905	0.366841	0.438380
	H352	H	0.551734	0.368526	0.429998
	H353	H	0.535140	0.368593	0.440445
	O354	O	0.530047	0.515952	0.559156
	H355	H	0.527796	0.509789	0.555604
	H356	H	0.536930	0.509957	0.562208
	O357	O	0.533958	0.518599	0.519760
	H358	H	0.536132	0.527804	0.530707
	H359	H	0.522733	0.523525	0.521346
	O360	O	-0.023456	-0.032407	-0.012554
	H361	H	-0.026854	-0.043485	0.001278
	H362	H	-0.023572	-0.034117	-0.004660
	O363	O	0.501929	0.571854	0.583068
	H364	H	0.508387	0.574376	0.574992
	H365	H	0.497931	0.572866	0.589180
	O366	O	0.007778	-0.045928	1.054803
	H367	H	0.007374	-0.053251	1.048412
	H368	H	0.007173	-0.041657	1.050469
	O369	O	0.474544	0.570760	0.551315
	H370	H	0.469661	0.564380	0.558515
	H371	H	0.475606	0.585995	0.552021
