data_Molecule from HDF5

_cell_length_a		16.183567
_cell_length_b		16.186485
_cell_length_c		16.349686
_cell_angle_alpha	90.117823
_cell_angle_beta	89.556971
_cell_angle_gamma	89.224470
_symmetry_space_group_name_H-M	'P 1'
_symmetry_Int_Tables_number		1

loop_
	_symmetry_equiv_pos_as_xyz
	x,y,z

loop_
	_atom_site_label
	_atom_site_type_symbol
	_atom_site_fract_x
	_atom_site_fract_y
	_atom_site_fract_z
	H0	H	0.395682	0.837665	0.714172
	H1	H	0.597502	0.162418	0.717251
	H2	H	0.602030	0.837179	0.281932
	H3	H	0.394496	0.164406	0.281365
	H4	H	0.716632	0.394572	0.836708
	H5	H	0.709869	0.595177	0.161147
	H6	H	0.282665	0.600720	0.834491
	H7	H	0.280977	0.402622	0.160149
	H8	H	0.834190	0.719048	0.399017
	H9	H	0.162136	0.712717	0.593655
	H10	H	0.832487	0.292519	0.594728
	H11	H	0.160635	0.283299	0.395701
	H12	H	0.835142	0.399241	0.715156
	H13	H	0.160679	0.600149	0.712092
	H14	H	0.834585	0.606555	0.280360
	H15	H	0.162090	0.399582	0.280260
	H16	H	0.395804	0.717609	0.835901
	H17	H	0.594533	0.714127	0.160897
	H18	H	0.599893	0.281682	0.836139
	H19	H	0.398935	0.287314	0.161346
	H20	H	0.716738	0.839102	0.397533
	H21	H	0.704295	0.168134	0.594850
	H22	H	0.283868	0.837724	0.597917
	H23	H	0.282171	0.166841	0.401964
	H24	H	0.895524	0.338598	0.216569
	H25	H	0.097119	0.663270	0.211530
	H26	H	0.101716	0.336416	0.778807
	H27	H	0.890993	0.662192	0.780390
	H28	H	0.218170	0.898987	0.336883
	H29	H	0.209863	0.103596	0.660742
	H30	H	0.778639	0.105846	0.334908
	H31	H	0.780623	0.905557	0.660299
	H32	H	0.333800	0.217391	0.900902
	H33	H	0.661457	0.212333	0.097310
	H34	H	0.332110	0.787614	0.099835
	H35	H	0.659851	0.778986	0.895589
	H36	H	0.334327	0.899337	0.217415
	H37	H	0.660410	0.098777	0.212509
	H38	H	0.333281	0.103238	0.784430
	H39	H	0.659485	0.892247	0.777614
	H40	H	0.895202	0.220484	0.334830
	H41	H	0.092225	0.217143	0.659927
	H42	H	0.102168	0.783735	0.335400
	H43	H	0.892335	0.782935	0.658299
	H44	H	0.216561	0.336742	0.895438
	H45	H	0.207159	0.664422	0.095322
	H46	H	0.785630	0.334052	0.098344
	H47	H	0.777420	0.660909	0.898610
	H48	H	0.401929	0.119912	0.593584
	H49	H	0.585956	0.885837	0.587481
	H50	H	0.585409	0.119755	0.398402
	H51	H	0.409376	0.886465	0.411226
	H52	H	0.580493	0.405186	0.111827
	H53	H	0.587884	0.585021	0.884402
	H54	H	0.398237	0.602132	0.117972
	H55	H	0.404379	0.413139	0.883485
	H56	H	0.113903	0.589612	0.403210
	H57	H	0.883029	0.586155	0.589910
	H58	H	0.111492	0.414854	0.584860
	H59	H	0.881196	0.409888	0.408761
	H60	H	0.117266	0.408183	0.594777
	H61	H	0.877159	0.597092	0.594443
	H62	H	0.115201	0.588794	0.399413
	H63	H	0.882093	0.418927	0.404513
	H64	H	0.394814	0.587538	0.113111
	H65	H	0.584995	0.589656	0.883539
	H66	H	0.595086	0.396001	0.118983
	H67	H	0.413509	0.406816	0.883350
	H68	H	0.581962	0.116934	0.406560
	H69	H	0.591920	0.884720	0.585462
	H70	H	0.405267	0.117651	0.592896
	H71	H	0.404819	0.883300	0.405778
	H72	H	0.897540	0.615840	0.080675
	H73	H	0.088607	0.382840	0.088668
	H74	H	0.094982	0.621749	0.895514
	H75	H	0.895608	0.375598	0.900034
	H76	H	0.091620	0.905642	0.614251
	H77	H	0.089500	0.093957	0.382463
	H78	H	0.895253	0.086546	0.611635
	H79	H	0.909092	0.911346	0.382873
	H80	H	0.611496	0.084104	0.908247
	H81	H	0.383350	0.087641	0.086213
	H82	H	0.611062	0.907004	0.082379
	H83	H	0.379884	0.905416	0.909266
	H84	H	0.613835	0.910643	0.093342
	H85	H	0.379041	0.090608	0.097640
	H86	H	0.615323	0.086748	0.900269
	H87	H	0.382537	0.914367	0.908578
	H88	H	0.913056	0.100243	0.609809
	H89	H	0.091223	0.091917	0.381736
	H90	H	0.089387	0.911361	0.613645
	H91	H	0.907267	0.912231	0.382207
	H92	H	0.076815	0.614815	0.899593
	H93	H	0.088850	0.382863	0.086648
	H94	H	0.899813	0.619615	0.095125
	H95	H	0.921206	0.382923	0.893928
	H96	H	0.403590	0.117972	0.590017
	H97	H	0.589952	0.883032	0.591045
	H98	H	0.590667	0.119263	0.405676
	H99	H	0.411795	0.884120	0.403247
	H100	H	0.596969	0.413851	0.114029
	H101	H	0.590034	0.589104	0.882015
	H102	H	0.409150	0.593134	0.111432
	H103	H	0.404285	0.402594	0.879473
	H104	H	0.114913	0.592249	0.401734
	H105	H	0.881531	0.597143	0.582329
	H106	H	0.115371	0.402204	0.583204
	H107	H	0.878877	0.411700	0.399625
	H108	H	0.911784	0.613800	0.087255
	H109	H	0.090422	0.382081	0.087373
	H110	H	0.090384	0.614616	0.913777
	H111	H	0.912519	0.387879	0.918942
	H112	H	0.085742	0.905975	0.612578
	H113	H	0.088643	0.090651	0.382561
	H114	H	0.893712	0.108033	0.617595
	H115	H	0.908765	0.913388	0.383335
	H116	H	0.614297	0.092415	0.907299
	H117	H	0.379442	0.099646	0.088820
	H118	H	0.615711	0.899836	0.089816
	H119	H	0.378783	0.910253	0.901378
	C120	C	0.374942	0.010131	0.620678
	C121	C	0.617123	0.993004	0.618059
	C122	C	0.618594	0.010697	0.374777
	C123	C	0.377005	0.993108	0.377593
	C124	C	0.620829	0.374897	0.007478
	C125	C	0.616717	0.618067	0.990299
	C126	C	0.372779	0.623372	0.006682
	C127	C	0.376613	0.378998	0.989305
	C128	C	0.006771	0.622765	0.373285
	C129	C	0.988835	0.622195	0.618037
	C130	C	0.006243	0.380696	0.616876
	C131	C	0.988791	0.380937	0.374360
	C132	C	0.875163	0.508114	0.118375
	C133	C	0.117532	0.491130	0.116695
	C134	C	0.118785	0.508527	0.873874
	C135	C	0.876527	0.489871	0.875516
	C136	C	0.120457	0.878342	0.506278
	C137	C	0.116985	0.122479	0.489599
	C138	C	0.872316	0.127226	0.505682
	C139	C	0.876548	0.882191	0.489241
	C140	C	0.505822	0.119893	0.877200
	C141	C	0.488728	0.120991	0.119506
	C142	C	0.505479	0.877818	0.119550
	C143	C	0.488315	0.877597	0.875687
	C144	C	0.376736	0.886711	0.675990
	C145	C	0.616199	0.114826	0.676895
	C146	C	0.620684	0.886710	0.319510
	C147	C	0.376120	0.115940	0.320907
	C148	C	0.677925	0.375275	0.885253
	C149	C	0.671880	0.616090	0.112584
	C150	C	0.319380	0.620951	0.883514
	C151	C	0.319713	0.381939	0.111656
	C152	C	0.883202	0.680381	0.377472
	C153	C	0.112792	0.675792	0.614664
	C154	C	0.881896	0.328120	0.615480
	C155	C	0.111846	0.322212	0.375692
	C156	C	0.883232	0.381580	0.675106
	C157	C	0.111812	0.619792	0.673618
	C158	C	0.883465	0.624559	0.318438
	C159	C	0.112275	0.379552	0.317601
	C160	C	0.375678	0.679426	0.884345
	C161	C	0.614606	0.675074	0.112429
	C162	C	0.620029	0.318838	0.884970
	C163	C	0.378562	0.324790	0.112474
	C164	C	0.677844	0.887633	0.376857
	C165	C	0.669493	0.117463	0.616020
	C166	C	0.320659	0.886708	0.618403
	C167	C	0.320275	0.117168	0.380873
	C168	C	0.876890	0.386326	0.176940
	C169	C	0.115704	0.614525	0.172758
	C170	C	0.120337	0.385471	0.817433
	C171	C	0.873186	0.613055	0.819154
	C172	C	0.178989	0.879499	0.385121
	C173	C	0.171763	0.122355	0.611959
	C174	C	0.816741	0.125663	0.383412
	C175	C	0.818818	0.884230	0.611479
	C176	C	0.382542	0.178254	0.880287
	C177	C	0.612176	0.175338	0.117272
	C178	C	0.381473	0.824676	0.118805
	C179	C	0.611039	0.818310	0.875949
	C180	C	0.382799	0.879758	0.178133
	C181	C	0.611843	0.118758	0.174722
	C182	C	0.382397	0.121388	0.822250
	C183	C	0.610625	0.874408	0.816924
	C184	C	0.874749	0.182872	0.383463
	C185	C	0.113781	0.179387	0.611562
	C186	C	0.121275	0.821742	0.384337
	C187	C	0.874795	0.823473	0.610469
	C188	C	0.177676	0.385696	0.875311
	C189	C	0.170785	0.614969	0.114918
	C190	C	0.822164	0.384113	0.117956
	C191	C	0.816629	0.612507	0.877909
	C192	C	0.397029	0.096291	0.598723
	C193	C	0.595712	0.906878	0.594677
	C194	C	0.593512	0.096328	0.396938
	C195	C	0.401436	0.907101	0.400215
	C196	C	0.597612	0.398026	0.092738
	C197	C	0.594048	0.594828	0.905197
	C198	C	0.394363	0.600908	0.092082
	C199	C	0.400478	0.400928	0.904164
	C200	C	0.092580	0.597583	0.395060
	C201	C	0.902942	0.600173	0.595482
	C202	C	0.092394	0.402135	0.594030
	C203	C	0.902907	0.405954	0.397622
	C204	C	0.896654	0.594107	0.094667
	C205	C	0.095609	0.404983	0.094266
	C206	C	0.094580	0.594750	0.896459
	C207	C	0.902096	0.404325	0.897866
	C208	C	0.095893	0.901214	0.591495
	C209	C	0.095853	0.098991	0.404251
	C210	C	0.894021	0.104762	0.590876
	C211	C	0.901194	0.905634	0.404715
	C212	C	0.591411	0.094895	0.898948
	C213	C	0.402929	0.099107	0.097186
	C214	C	0.591411	0.899527	0.095546
	C215	C	0.402562	0.902781	0.899354
	Zn216	Zn	0.496751	-0.000506	0.747475
	Zn217	Zn	0.497473	-0.000085	0.246796
	Zn218	Zn	0.747814	0.496830	-0.002192
	Zn219	Zn	0.245647	0.500789	-0.003014
	Zn220	Zn	-0.001982	0.750225	0.496562
	Zn221	Zn	-0.003650	0.253040	0.497121
	Zn222	Zn	-0.002806	0.499613	0.745925
	Zn223	Zn	-0.002565	0.501594	0.244467
	Zn224	Zn	0.495951	0.749969	-0.001588
	Zn225	Zn	0.498252	0.248919	-0.001726
	Zn226	Zn	0.745692	0.003528	0.497028
	Zn227	Zn	0.247530	0.001538	0.499689
	N228	N	0.409626	0.964641	0.677640
	N229	N	0.584594	0.036350	0.678439
	N230	N	0.584650	0.964129	0.317810
	N231	N	0.410651	0.037796	0.318927
	N232	N	0.678697	0.409230	0.962324
	N233	N	0.673593	0.581713	0.035493
	N234	N	0.317251	0.586986	0.960538
	N235	N	0.318283	0.414842	0.034215
	N236	N	0.960899	0.679539	0.410618
	N237	N	0.035164	0.677473	0.580888
	N238	N	0.959079	0.327580	0.579568
	N239	N	0.033869	0.322879	0.410038
	N240	N	0.961531	0.413420	0.676096
	N241	N	0.033648	0.587485	0.676030
	N242	N	0.961452	0.589534	0.315738
	N243	N	0.034722	0.415289	0.316605
	N244	N	0.408055	0.681143	0.961865
	N245	N	0.581476	0.676626	0.035167
	N246	N	0.585524	0.318190	0.962034
	N247	N	0.413152	0.322624	0.035311
	N248	N	0.676851	0.965537	0.410299
	N249	N	0.670231	0.040421	0.580078
	N250	N	0.319353	0.964434	0.584617
	N251	N	0.320767	0.039689	0.415490
	N252	N	0.909023	0.464648	0.177606
	N253	N	0.083077	0.536533	0.173942
	N254	N	0.084619	0.463052	0.816348
	N255	N	0.909776	0.535924	0.817731
	N256	N	0.178586	0.913797	0.462082
	N257	N	0.174147	0.087632	0.535065
	N258	N	0.814854	0.091864	0.460402
	N259	N	0.819834	0.919911	0.535226
	N260	N	0.460325	0.177704	0.913633
	N261	N	0.534587	0.176814	0.083674
	N262	N	0.458862	0.823146	0.083141
	N263	N	0.533843	0.820158	0.911680
	N264	N	0.460906	0.912156	0.178565
	N265	N	0.534133	0.085686	0.176231
	N266	N	0.459862	0.085393	0.820530
	N267	N	0.533266	0.910797	0.816940
	N268	N	0.908306	0.184161	0.460430
	N269	N	0.080340	0.179543	0.534403
	N270	N	0.085644	0.820750	0.461046
	N271	N	0.910067	0.821966	0.533531
	N272	N	0.176711	0.463247	0.909851
	N273	N	0.172047	0.537285	0.080754
	N274	N	0.821019	0.460826	0.082168
	N275	N	0.818490	0.534935	0.912325
	O276	O	1.022998	-0.001261	1.127143
	H277	H	1.024382	0.009456	1.127911
	H278	H	1.010833	-0.020742	1.143162
	O279	O	0.469565	0.510992	0.600913
	H280	H	0.464190	0.509735	0.582637
	H281	H	0.472067	0.512333	0.599682
	O282	O	0.455614	0.499746	0.520304
	H283	H	0.452503	0.510532	0.532469
	H284	H	0.456481	0.498547	0.522637
	O285	O	0.514473	0.577244	0.407863
	H286	H	0.512899	0.571802	0.415178
	H287	H	0.517312	0.575697	0.409995
	O288	O	0.565782	0.584490	0.532491
	H289	H	0.574279	0.589283	0.519938
	H290	H	0.570037	0.575255	0.525667
	O291	O	-0.037244	-0.021169	0.870541
	H292	H	-0.041121	-0.022485	0.864711
	H293	H	-0.040761	-0.021115	0.875966
	O294	O	1.027919	0.882590	-0.007532
	H295	H	1.038934	0.886335	0.000050
	H296	H	1.027077	0.879058	-0.016025
	O297	O	0.929470	1.067919	0.008899
	H298	H	0.930186	1.068532	0.001596
	H299	H	0.931893	1.079313	-0.013210
	O300	O	0.572162	0.591686	0.443486
	H301	H	0.572738	0.583654	0.451332
	H302	H	0.557325	0.572730	0.441771
	O303	O	0.589594	0.475688	0.608889
	H304	H	0.599568	0.481976	0.610499
	H305	H	0.589665	0.473273	0.606992
	O306	O	0.434031	0.484544	0.617369
	H307	H	0.426033	0.479024	0.635170
	H308	H	0.434616	0.470080	0.605023
	O309	O	0.637571	0.418583	0.428889
	H310	H	0.639548	0.415142	0.418699
	H311	H	0.625785	0.403569	0.435012
	O312	O	1.028580	1.148387	1.018181
	H313	H	1.022959	1.149158	1.029165
	H314	H	1.022636	1.147053	1.029250
	O315	O	1.041146	0.953621	-0.101660
	H316	H	1.042151	0.929304	-0.103590
	H317	H	1.042270	0.951854	-0.113243
	O318	O	-0.116836	0.975145	1.142664
	H319	H	-0.114023	0.979877	1.149014
	H320	H	-0.116243	0.978942	1.154531
	O321	O	0.517343	0.467155	0.478231
	H322	H	0.521697	0.460471	0.484707
	H323	H	0.512364	0.463955	0.483757
	O324	O	-0.108893	1.121429	0.863205
	H325	H	-0.107058	1.104711	0.875112
	H326	H	-0.108832	1.131765	0.861303
	O327	O	-0.016190	1.088792	1.088482
	H328	H	-0.015526	1.080606	1.092990
	H329	H	-0.016628	1.094079	1.089701
	O330	O	-0.050762	-0.063038	0.165875
	H331	H	-0.067325	-0.057530	0.163922
	H332	H	-0.050477	-0.068532	0.155583
	O333	O	0.418906	0.578783	0.536968
	H334	H	0.433742	0.566883	0.530068
	H335	H	0.404802	0.585382	0.541426
	O336	O	0.026574	0.099715	0.061684
	H337	H	0.027704	0.113626	0.073802
	H338	H	0.020470	0.094880	0.056686
	O339	O	0.184017	-0.094250	-0.126811
	H340	H	0.172727	-0.093122	-0.117578
	H341	H	0.198867	-0.073771	-0.124969
	O342	O	0.556940	0.406634	0.395829
	H343	H	0.550360	0.406655	0.395981
	H344	H	0.560772	0.399471	0.409058
	O345	O	0.092862	0.915569	0.838474
	H346	H	0.094415	0.910427	0.842310
	H347	H	0.087958	0.926199	0.842580
	O348	O	0.515639	0.455868	0.497438
	H349	H	0.512352	0.447677	0.491807
	H350	H	0.505896	0.455020	0.500822
	O351	O	0.881142	0.000975	0.123010
	H352	H	0.884670	-0.014086	0.121556
	H353	H	0.877166	-0.016140	0.124357
	O354	O	-0.177285	0.979889	-0.128573
	H355	H	-0.191167	0.982876	-0.138533
	H356	H	-0.176021	0.990969	-0.126732
	O357	O	0.484543	0.441951	0.493106
	H358	H	0.474113	0.443643	0.492304
	H359	H	0.485465	0.436910	0.497404
	O360	O	1.099997	0.053476	0.988094
	H361	H	1.096898	0.056683	0.997071
	H362	H	1.100951	0.043569	0.986216
	O363	O	0.555372	0.493100	0.494444
	H364	H	0.554220	0.502442	0.494119
	H365	H	0.556372	0.493565	0.492057
	O366	O	0.438003	0.472891	0.510336
	H367	H	0.443480	0.485602	0.500318
	H368	H	0.442994	0.475276	0.512514
	O369	O	1.085075	0.103026	-0.028084
	H370	H	1.068182	0.105213	-0.038991
	H371	H	1.087928	0.085741	-0.020853
	O372	O	0.548743	0.494484	0.492861
	H373	H	0.553589	0.499518	0.493224
	H374	H	0.546113	0.505818	0.499104
	O375	O	1.055833	0.064214	0.847160
	H376	H	1.069725	0.067817	0.851749
	H377	H	1.042615	0.075631	0.848015
	O378	O	-0.132629	0.850471	0.071420
	H379	H	-0.129728	0.850560	0.064913
	H380	H	-0.134244	0.843198	0.049657
	O381	O	0.083820	0.815846	1.037048
	H382	H	0.069355	0.817149	1.041047
	H383	H	0.085764	0.810728	1.039936
	O384	O	1.103732	1.125790	0.064438
	H385	H	1.108452	1.120280	0.058292
	H386	H	1.102372	1.135828	0.073702
	O387	O	0.963652	-0.069385	0.934020
	H388	H	0.970697	-0.088655	0.924941
	H389	H	0.985142	-0.068048	0.942039
	O390	O	0.943035	0.865047	0.084303
	H391	H	0.944249	0.865950	0.090512
	H392	H	0.939861	0.853524	0.068113
	O393	O	0.414330	0.506192	0.448762
	H394	H	0.422036	0.517022	0.444701
	H395	H	0.428909	0.510513	0.453280
