data_Molecule from HDF5

_cell_length_a		16.685896
_cell_length_b		16.549038
_cell_length_c		16.649254
_cell_angle_alpha	90.113808
_cell_angle_beta	90.066398
_cell_angle_gamma	89.976358
_symmetry_space_group_name_H-M	'P 1'
_symmetry_Int_Tables_number		1

loop_
	_symmetry_equiv_pos_as_xyz
	x,y,z

loop_
	_atom_site_label
	_atom_site_type_symbol
	_atom_site_fract_x
	_atom_site_fract_y
	_atom_site_fract_z
	H0	H	0.400773	0.831618	0.711378
	H1	H	0.606749	0.144863	0.717207
	H2	H	0.605937	0.834057	0.273763
	H3	H	0.398153	0.147161	0.276500
	H4	H	0.725618	0.382243	0.840758
	H5	H	0.724786	0.597705	0.149314
	H6	H	0.278507	0.596663	0.840059
	H7	H	0.278262	0.382504	0.147535
	H8	H	0.848459	0.715146	0.386232
	H9	H	0.157819	0.709619	0.597564
	H10	H	0.850076	0.265819	0.603079
	H11	H	0.155500	0.268045	0.389514
	H12	H	0.847858	0.384586	0.716975
	H13	H	0.155546	0.597866	0.717988
	H14	H	0.849326	0.600429	0.268478
	H15	H	0.154320	0.381474	0.270888
	H16	H	0.396428	0.710563	0.838914
	H17	H	0.604958	0.710469	0.151348
	H18	H	0.609323	0.265762	0.840181
	H19	H	0.396986	0.268836	0.149173
	H20	H	0.724745	0.835412	0.386854
	H21	H	0.725589	0.143190	0.603871
	H22	H	0.283918	0.831728	0.595495
	H23	H	0.283172	0.147958	0.393430
	H24	H	0.897234	0.334322	0.215744
	H25	H	0.105740	0.646287	0.213968
	H26	H	0.105486	0.334144	0.773946
	H27	H	0.898788	0.648250	0.777598
	H28	H	0.219978	0.886840	0.337445
	H29	H	0.219224	0.091286	0.652256
	H30	H	0.776478	0.100855	0.341659
	H31	H	0.776055	0.881331	0.647558
	H32	H	0.346122	0.208137	0.893967
	H33	H	0.657682	0.209427	0.098544
	H34	H	0.344332	0.770474	0.097126
	H35	H	0.657433	0.768839	0.891466
	H36	H	0.344706	0.886420	0.214280
	H37	H	0.656932	0.092997	0.214866
	H38	H	0.345071	0.091633	0.777230
	H39	H	0.656567	0.883654	0.773330
	H40	H	0.892783	0.215358	0.342057
	H41	H	0.102923	0.207505	0.652464
	H42	H	0.104301	0.769657	0.338606
	H43	H	0.895187	0.767731	0.649240
	H44	H	0.222427	0.333914	0.889764
	H45	H	0.221595	0.646305	0.098445
	H46	H	0.780273	0.334512	0.101126
	H47	H	0.781693	0.647305	0.891776
	H48	H	0.410111	0.103353	0.588609
	H49	H	0.587142	0.877189	0.586992
	H50	H	0.588790	0.100890	0.407438
	H51	H	0.406815	0.874838	0.400365
	H52	H	0.590383	0.397295	0.105440
	H53	H	0.593947	0.581518	0.882421
	H54	H	0.412124	0.576501	0.104977
	H55	H	0.407583	0.398907	0.881135
	H56	H	0.112090	0.582771	0.409563
	H57	H	0.889938	0.582078	0.581689
	H58	H	0.110751	0.404344	0.581356
	H59	H	0.893565	0.403992	0.410142
	H60	H	0.113352	0.404585	0.587452
	H61	H	0.891477	0.575727	0.585450
	H62	H	0.109708	0.573248	0.407352
	H63	H	0.892107	0.406498	0.405296
	H64	H	0.413460	0.580665	0.106293
	H65	H	0.592713	0.573861	0.885287
	H66	H	0.594487	0.403542	0.105614
	H67	H	0.413561	0.404855	0.884267
	H68	H	0.588829	0.101153	0.407392
	H69	H	0.584637	0.881829	0.577173
	H70	H	0.410208	0.102105	0.584744
	H71	H	0.413740	0.878074	0.402631
	H72	H	0.914578	0.602030	0.085604
	H73	H	0.098627	0.375126	0.083411
	H74	H	0.094510	0.604359	0.902422
	H75	H	0.906869	0.373683	0.898910
	H76	H	0.093082	0.899465	0.606697
	H77	H	0.092917	0.079750	0.382663
	H78	H	0.915234	0.073620	0.603752
	H79	H	0.914530	0.904108	0.384561
	H80	H	0.611738	0.074184	0.907541
	H81	H	0.392120	0.079207	0.079648
	H82	H	0.612906	0.897955	0.085220
	H83	H	0.387984	0.898543	0.897766
	H84	H	0.610506	0.901797	0.081900
	H85	H	0.389531	0.075758	0.090404
	H86	H	0.614404	0.076947	0.900383
	H87	H	0.389720	0.894791	0.908023
	H88	H	0.916443	0.079671	0.605315
	H89	H	0.092003	0.080979	0.382256
	H90	H	0.093752	0.899452	0.607057
	H91	H	0.913634	0.903388	0.385024
	H92	H	0.085197	0.600999	0.905518
	H93	H	0.085943	0.376342	0.088798
	H94	H	0.917145	0.600065	0.080790
	H95	H	0.923640	0.381128	0.903553
	H96	H	0.406695	0.105011	0.586098
	H97	H	0.594252	0.876823	0.578814
	H98	H	0.588432	0.101101	0.407287
	H99	H	0.407919	0.877109	0.407785
	H100	H	0.587161	0.404437	0.103490
	H101	H	0.586975	0.579539	0.884988
	H102	H	0.409139	0.579163	0.107084
	H103	H	0.416091	0.396779	0.882651
	H104	H	0.114267	0.578907	0.400758
	H105	H	0.888756	0.581861	0.589067
	H106	H	0.114616	0.399345	0.583435
	H107	H	0.890064	0.401836	0.406754
	H108	H	0.911103	0.602416	0.080493
	H109	H	0.088355	0.380841	0.075779
	H110	H	0.093143	0.601177	0.912328
	H111	H	0.909877	0.380373	0.915715
	H112	H	0.093604	0.900048	0.607139
	H113	H	0.093372	0.080587	0.382489
	H114	H	0.910445	0.076875	0.606028
	H115	H	0.913767	0.904733	0.384915
	H116	H	0.614150	0.082192	0.906106
	H117	H	0.387131	0.086806	0.087262
	H118	H	0.611984	0.903186	0.087226
	H119	H	0.392683	0.905377	0.905134
	C120	C	0.379422	-0.001538	0.616169
	C121	C	0.621763	0.981189	0.614925
	C122	C	0.622087	-0.001518	0.373909
	C123	C	0.379571	0.981213	0.373334
	C124	C	0.623639	0.368600	0.002806
	C125	C	0.623015	0.610983	0.986630
	C126	C	0.379727	0.611203	0.003223
	C127	C	0.380568	0.368423	0.985367
	C128	C	0.010395	0.612186	0.372364
	C129	C	0.992865	0.612228	0.616763
	C130	C	0.011051	0.369579	0.616753
	C131	C	0.993437	0.369742	0.374292
	C132	C	0.881395	0.498748	0.115390
	C133	C	0.122763	0.480992	0.114853
	C134	C	0.123245	0.499110	0.873402
	C135	C	0.881087	0.482037	0.874416
	C136	C	0.123192	0.868856	0.502958
	C137	C	0.122904	0.111026	0.486362
	C138	C	0.880039	0.111613	0.503674
	C139	C	0.880532	0.869573	0.486561
	C140	C	0.510332	0.109915	0.873666
	C141	C	0.492883	0.111358	0.116730
	C142	C	0.508726	0.869293	0.115821
	C143	C	0.492939	0.867515	0.872600
	C144	C	0.380759	0.879129	0.672777
	C145	C	0.625335	0.098092	0.676766
	C146	C	0.624552	0.881050	0.313413
	C147	C	0.379334	0.100189	0.315910
	C148	C	0.685054	0.364310	0.886981
	C149	C	0.683818	0.614673	0.103189
	C150	C	0.319147	0.614367	0.886486
	C151	C	0.319187	0.364801	0.101301
	C152	C	0.894824	0.674398	0.368167
	C153	C	0.110260	0.671259	0.617400
	C154	C	0.895499	0.307355	0.620421
	C155	C	0.108927	0.308169	0.371059
	C156	C	0.894554	0.366244	0.677057
	C157	C	0.109444	0.615490	0.677057
	C158	C	0.895396	0.617378	0.309529
	C159	C	0.108502	0.364682	0.312129
	C160	C	0.377647	0.671209	0.886134
	C161	C	0.624417	0.671001	0.104025
	C162	C	0.627191	0.306528	0.886757
	C163	C	0.378269	0.308459	0.102325
	C164	C	0.683641	0.881940	0.369631
	C165	C	0.683966	0.097394	0.620418
	C166	C	0.322612	0.879277	0.615529
	C167	C	0.322224	0.100327	0.373941
	C168	C	0.878846	0.381222	0.175716
	C169	C	0.124163	0.599222	0.174150
	C170	C	0.124483	0.381068	0.813671
	C171	C	0.879920	0.600667	0.816343
	C172	C	0.180939	0.867753	0.384740
	C173	C	0.180207	0.110464	0.604973
	C174	C	0.817464	0.117427	0.388318
	C175	C	0.817696	0.864469	0.601742
	C176	C	0.392892	0.168774	0.873960
	C177	C	0.610588	0.169930	0.117509
	C178	C	0.391236	0.810436	0.115929
	C179	C	0.610444	0.808273	0.871963
	C180	C	0.391331	0.867999	0.174327
	C181	C	0.610346	0.112011	0.175279
	C182	C	0.392526	0.111055	0.815913
	C183	C	0.609990	0.865209	0.813318
	C184	C	0.875508	0.174548	0.388480
	C185	C	0.122473	0.168380	0.605129
	C186	C	0.123167	0.809985	0.385023
	C187	C	0.876822	0.808034	0.602732
	C188	C	0.182165	0.380872	0.871389
	C189	C	0.181818	0.599172	0.116728
	C190	C	0.820872	0.381426	0.118598
	C191	C	0.821677	0.600124	0.873193
	C192	C	0.402441	0.081931	0.593111
	C193	C	0.596004	0.899784	0.588561
	C194	C	0.596121	0.080008	0.399984
	C195	C	0.402903	0.898305	0.396621
	C196	C	0.597929	0.394418	0.083666
	C197	C	0.598192	0.585532	0.905262
	C198	C	0.404576	0.585836	0.084817
	C199	C	0.405440	0.393250	0.903775
	C200	C	0.090972	0.585983	0.398600
	C201	C	0.911285	0.586932	0.592235
	C202	C	0.091882	0.395561	0.591310
	C203	C	0.912818	0.396586	0.400129
	C204	C	0.906994	0.580257	0.089901
	C205	C	0.097954	0.398812	0.089777
	C206	C	0.098206	0.580998	0.899230
	C207	C	0.906131	0.399893	0.899042
	C208	C	0.100049	0.892734	0.585475
	C209	C	0.099494	0.087514	0.404098
	C210	C	0.906613	0.084313	0.584026
	C211	C	0.906818	0.896320	0.405827
	C212	C	0.592242	0.085034	0.897806
	C213	C	0.410821	0.087230	0.092662
	C214	C	0.590421	0.893824	0.091855
	C215	C	0.411350	0.892332	0.896833
	Zn216	Zn	0.501471	-0.010947	0.743924
	Zn217	Zn	0.500632	-0.009797	0.245849
	Zn218	Zn	0.752457	0.490061	-0.005172
	Zn219	Zn	0.251805	0.489696	-0.005669
	Zn220	Zn	0.001571	0.740457	0.494916
	Zn221	Zn	0.001755	0.240001	0.495612
	Zn222	Zn	0.001411	0.491174	0.745610
	Zn223	Zn	0.002043	0.489941	0.243997
	Zn224	Zn	0.501247	0.739475	-0.005306
	Zn225	Zn	0.502510	0.239875	-0.005145
	Zn226	Zn	0.750903	-0.009852	0.494575
	Zn227	Zn	0.251834	-0.010152	0.494463
	N228	N	0.414915	0.954613	0.673785
	N229	N	0.587057	0.024708	0.673508
	N230	N	0.586861	0.954810	0.315816
	N231	N	0.414091	0.025015	0.315189
	N232	N	0.683145	0.402179	0.960267
	N233	N	0.683087	0.578130	0.029143
	N234	N	0.320129	0.577945	0.960490
	N235	N	0.320282	0.401245	0.027347
	N236	N	0.967299	0.671210	0.406784
	N237	N	0.036593	0.669441	0.580475
	N238	N	0.968908	0.309264	0.583510
	N239	N	0.036195	0.311030	0.409104
	N240	N	0.967526	0.404068	0.675204
	N241	N	0.035429	0.579379	0.676811
	N242	N	0.968181	0.579061	0.312139
	N243	N	0.035465	0.402396	0.313966
	N244	N	0.414671	0.669524	0.959874
	N245	N	0.587246	0.669023	0.030481
	N246	N	0.589696	0.309089	0.959820
	N247	N	0.415737	0.310275	0.029127
	N248	N	0.682346	0.956130	0.406329
	N249	N	0.681960	0.023624	0.582723
	N250	N	0.321283	0.954843	0.581563
	N251	N	0.322064	0.025311	0.408854
	N252	N	0.915604	0.455351	0.174075
	N253	N	0.088419	0.524518	0.173536
	N254	N	0.088715	0.455880	0.814583
	N255	N	0.915854	0.525845	0.816541
	N256	N	0.181352	0.903458	0.459325
	N257	N	0.181131	0.075901	0.530016
	N258	N	0.819919	0.078959	0.461148
	N259	N	0.819962	0.902171	0.528366
	N260	N	0.467355	0.168531	0.908751
	N261	N	0.536520	0.169790	0.081813
	N262	N	0.465273	0.810970	0.080324
	N263	N	0.536512	0.809304	0.907953
	N264	N	0.465541	0.903716	0.174702
	N265	N	0.535999	0.076511	0.174996
	N266	N	0.466783	0.075305	0.815374
	N267	N	0.535926	0.901335	0.813504
	N268	N	0.913761	0.171317	0.461406
	N269	N	0.087901	0.169178	0.530260
	N270	N	0.088241	0.810253	0.459643
	N271	N	0.915035	0.810902	0.529839
	N272	N	0.181666	0.455401	0.907589
	N273	N	0.181241	0.524552	0.080570
	N274	N	0.822138	0.455613	0.081887
	N275	N	0.821965	0.525137	0.908206
	O276	O	-0.214784	0.984546	-0.149326
	H277	H	-0.208349	0.971955	-0.160833
	H278	H	-0.225387	0.962007	-0.146092
	O279	O	0.725445	0.522883	0.721642
	H280	H	0.724749	0.515667	0.732802
	H281	H	0.738663	0.529954	0.736490
	O282	O	1.045927	-0.065119	1.221150
	H283	H	1.039157	-0.060980	1.221405
	H284	H	1.054811	-0.067592	1.218774
	O285	O	0.280679	0.709339	0.450690
	H286	H	0.274025	0.701443	0.441060
	H287	H	0.262013	0.719268	0.453868
	O288	O	0.715239	0.702032	0.708820
	H289	H	0.686902	0.694668	0.692694
	H290	H	0.699688	0.680408	0.698418
	O291	O	0.554222	0.311346	0.622176
	H292	H	0.557296	0.330279	0.635122
	H293	H	0.564123	0.315603	0.598063
	O294	O	0.777990	-0.025676	0.970752
	H295	H	0.782671	-0.024684	0.968052
	H296	H	0.772084	-0.027407	0.977902
	O297	O	0.554044	0.300364	0.459349
	H298	H	0.545716	0.299305	0.449638
	H299	H	0.564547	0.317165	0.454063
	O300	O	-0.051669	0.155538	0.840124
	H301	H	-0.044866	0.156601	0.822833
	H302	H	-0.061365	0.160512	0.845969
	O303	O	0.270715	0.267284	0.532629
	H304	H	0.258129	0.256148	0.563537
	H305	H	0.256495	0.250338	0.549982
	O306	O	0.728724	0.464226	0.272606
	H307	H	0.720185	0.473933	0.269248
	H308	H	0.744878	0.463608	0.252518
	O309	O	0.538628	0.705708	0.712791
	H310	H	0.522247	0.704692	0.721989
	H311	H	0.523277	0.705479	0.723798
	O312	O	0.448980	0.453370	0.430719
	H313	H	0.448537	0.447818	0.447415
	H314	H	0.450572	0.437187	0.430353
	O315	O	1.037442	1.201026	1.211996
	H316	H	1.033390	1.203090	1.207031
	H317	H	1.023498	1.214921	1.209645
	O318	O	0.555324	0.699644	0.279439
	H319	H	0.559533	0.729323	0.255338
	H320	H	0.522601	0.689158	0.293316
	O321	O	0.072158	1.215302	0.945859
	H322	H	0.089529	1.215410	0.955590
	H323	H	0.048067	1.213568	0.942605
	O324	O	1.021925	0.798055	-0.029747
	H325	H	1.004065	0.795470	-0.031749
	H326	H	1.011522	0.795481	-0.022665
	O327	O	0.223908	0.023778	1.215629
	H328	H	0.221898	0.051494	1.223837
	H329	H	0.243629	0.047373	1.234064
	O330	O	0.655641	0.477779	0.427897
	H331	H	0.653577	0.492139	0.415604
	H332	H	0.650748	0.481545	0.423201
	O333	O	0.463329	0.265868	0.723851
	H334	H	0.475858	0.275878	0.706368
	H335	H	0.459017	0.233022	0.755636
	O336	O	0.530124	0.568913	0.642505
	H337	H	0.527799	0.567119	0.646387
	H338	H	0.514246	0.580805	0.641967
	O339	O	1.017174	0.105748	1.024322
	H340	H	1.018323	0.100098	1.015510
	H341	H	1.001795	0.103905	1.015074
	O342	O	-0.049348	-0.180002	-0.057073
	H343	H	-0.061695	-0.185852	-0.054899
	H344	H	-0.066506	-0.174733	-0.069309
	O345	O	-0.024545	0.777334	1.210787
	H346	H	-0.040768	0.768498	1.215520
	H347	H	-0.027561	0.773449	1.224215
	O348	O	0.305165	0.299614	0.299473
	H349	H	0.322648	0.323730	0.307464
	H350	H	0.327894	0.311615	0.321617
	O351	O	0.973862	1.145318	-0.189752
	H352	H	0.970287	1.129457	-0.187630
	H353	H	0.966592	1.165872	-0.211636
	O354	O	-0.064029	0.047246	1.227897
	H355	H	-0.054246	0.042809	1.208841
	H356	H	-0.057052	0.060046	1.231207
	O357	O	0.529494	0.684198	0.371243
	H358	H	0.519713	0.678618	0.359856
	H359	H	0.520685	0.695719	0.382268
	O360	O	0.501912	0.422811	0.666463
	H361	H	0.490341	0.429479	0.666132
	H362	H	0.495979	0.402987	0.660941
	O363	O	-0.102980	0.107434	0.007173
	H364	H	-0.099214	0.096395	0.012941
	H365	H	-0.100913	0.105325	-0.016110
	O366	O	0.289676	0.699573	0.281083
	H367	H	0.310101	0.703969	0.306006
	H368	H	0.257507	0.733105	0.250144
	O369	O	0.770118	0.103096	0.021274
	H370	H	0.759902	0.126520	0.022961
	H371	H	0.769063	0.100965	0.017696
	O372	O	0.785063	1.201507	0.211331
	H373	H	0.813452	1.194145	0.196256
	H374	H	0.768920	1.233167	0.226952
	O375	O	0.791797	-0.217476	0.203177
	H376	H	0.797128	-0.179037	0.204571
	H377	H	0.773515	-0.226652	0.226649
	O378	O	0.488824	0.536024	0.370490
	H379	H	0.501936	0.534430	0.371028
	H380	H	0.473522	0.542109	0.380627
	O381	O	0.227102	0.950359	0.771011
	H382	H	0.242948	0.946681	0.757825
	H383	H	0.231796	0.941059	0.765880
	O384	O	0.971159	0.002614	0.871420
	H385	H	0.964480	-0.001558	0.871075
	H386	H	0.975261	-0.014621	0.874334
	O387	O	1.204802	0.783460	-0.210728
	H388	H	1.177465	0.808448	-0.217602
	H389	H	1.200606	0.779884	-0.165216
	O390	O	0.419495	0.684562	0.557310
	H391	H	0.412350	0.694077	0.560415
	H392	H	0.396502	0.693873	0.560097
	O393	O	0.403420	0.294498	0.451605
	H394	H	0.368561	0.280475	0.476765
	H395	H	0.433913	0.292076	0.470665
	O396	O	0.192328	0.180490	0.810069
	H397	H	0.180787	0.165594	0.838430
	H398	H	0.168307	0.159576	0.821591
	O399	O	0.208960	0.192756	1.201138
	H400	H	0.165272	0.200964	1.194902
	H401	H	0.236807	0.227099	1.229432
	O402	O	0.684537	0.310500	0.311543
	H403	H	0.675451	0.328133	0.328055
	H404	H	0.665874	0.321939	0.307058
	O405	O	0.788934	0.123803	0.782637
	H406	H	0.776264	0.097973	0.767436
	H407	H	0.795104	0.141546	0.774644
	O408	O	-0.215189	-0.046031	0.210866
	H409	H	-0.195436	-0.023162	0.217355
	H410	H	-0.227217	-0.034248	0.227303
	O411	O	1.037424	0.944516	1.014110
	H412	H	1.035289	0.951500	1.015519
	H413	H	1.031770	0.944258	1.016329
	O414	O	0.554466	0.422400	0.623062
	H415	H	0.548082	0.438387	0.611136
	H416	H	0.551780	0.426047	0.614963
	O417	O	0.649582	0.525231	0.408307
	H418	H	0.641573	0.528226	0.399187
	H419	H	0.643903	0.539471	0.407612
	O420	O	0.282958	0.460761	0.428980
	H421	H	0.283282	0.442426	0.432602
	H422	H	0.278902	0.461712	0.412348
	O423	O	0.037005	-0.220972	0.776370
	H424	H	0.037016	-0.229286	0.772534
	H425	H	0.030817	-0.231374	0.784587
	O426	O	0.717834	0.273385	0.485906
	H427	H	0.737625	0.268825	0.470755
	H428	H	0.716574	0.277826	0.471883
	O429	O	1.215215	0.779797	0.956803
	H430	H	1.217875	0.795392	0.978442
	H431	H	1.228620	0.761752	0.963253
	O432	O	0.717649	0.702790	0.518679
	H433	H	0.724218	0.710213	0.524910
	H434	H	0.717547	0.703685	0.523740
	O435	O	0.228725	1.035184	-0.037199
	H436	H	0.235787	1.046813	-0.027577
	H437	H	0.219007	1.015752	-0.030730
	O438	O	0.042806	-0.001990	-0.192374
	H439	H	0.036290	-0.011208	-0.178564
	H440	H	0.058656	-0.023083	-0.198471
	O441	O	-0.214689	-0.228071	0.029031
	H442	H	-0.223584	-0.222670	0.053201
	H443	H	-0.237300	-0.245837	0.038347
	O444	O	0.399593	0.452579	0.269580
	H445	H	0.399116	0.475367	0.263568
	H446	H	0.390195	0.474763	0.272295
	O447	O	-0.468134	1.268164	1.272150
	H448	H	-0.474062	1.249577	1.242220
	H449	H	-0.469002	1.283345	1.274539
	O450	O	-0.181765	0.808798	0.811623
	H451	H	-0.194469	0.804692	0.797864
	H452	H	-0.197946	0.807243	0.809246
	O453	O	0.276624	0.461278	0.720597
	H454	H	0.243393	0.449764	0.748987
	H455	H	0.278417	0.446215	0.696377
	O456	O	0.288788	0.279313	0.706177
	H457	H	0.317998	0.281370	0.718815
	H458	H	0.262293	0.260335	0.738013
	O459	O	0.930768	0.928961	0.059230
	H460	H	0.911345	0.931385	0.049009
	H461	H	0.931931	0.915575	0.063499
	O462	O	0.601383	0.521585	0.464901
	H463	H	0.603629	0.507599	0.463257
	H464	H	0.600185	0.516242	0.465286
	O465	O	0.616782	-0.304605	0.329640
	H466	H	0.612237	-0.310309	0.355637
	H467	H	0.610777	-0.310099	0.342380
	O468	O	0.275634	0.532855	0.562768
	H469	H	0.279246	0.507974	0.555966
	H470	H	0.274668	0.537856	0.554935
	O471	O	0.326846	0.506933	0.271781
	H472	H	0.318100	0.519809	0.276525
	H473	H	0.315112	0.522928	0.266725
	O474	O	0.118172	0.938040	-0.066310
	H475	H	0.104347	0.933175	-0.050925
	H476	H	0.126163	0.916187	-0.081986
	O477	O	0.426853	0.498052	1.677303
	H478	H	0.425988	0.489378	1.664632
	H479	H	0.406613	0.476852	1.686023
	O480	O	0.579294	0.529956	0.484538
	H481	H	0.579665	0.543261	0.484566
	H482	H	0.574057	0.534083	0.490346
	O483	O	0.674442	0.552029	0.537351
	H484	H	0.665356	0.542727	0.540868
	H485	H	0.675880	0.552348	0.553129
	O486	O	0.733058	0.260211	0.725788
	H487	H	0.723604	0.267527	0.705284
	H488	H	0.736149	0.268806	0.717573
	O489	O	1.187715	0.799140	0.182939
	H490	H	1.156996	0.805461	0.166523
	H491	H	1.175380	0.829493	0.166440
	O492	O	0.207114	0.201364	0.025057
	H493	H	0.221139	0.219522	0.037645
	H494	H	0.201742	0.201851	0.038531
	O495	O	-0.135090	1.200968	1.011970
	H496	H	-0.148334	1.200913	1.010576
	H497	H	-0.151850	1.205820	0.991524
	O498	O	1.205361	0.929144	1.079842
	H499	H	1.193216	0.948781	1.072385
	H500	H	1.218546	0.944863	1.096212
	O501	O	0.334865	0.658025	0.692561
	H502	H	0.308959	0.675268	0.715725
	H503	H	0.327064	0.624114	0.691757
