data_Molecule from HDF5

_cell_length_a		16.518519
_cell_length_b		16.291854
_cell_length_c		16.346919
_cell_angle_alpha	90.073333
_cell_angle_beta	89.926786
_cell_angle_gamma	90.068286
_symmetry_space_group_name_H-M	'P 1'
_symmetry_Int_Tables_number		1

loop_
	_symmetry_equiv_pos_as_xyz
	x,y,z

loop_
	_atom_site_label
	_atom_site_type_symbol
	_atom_site_fract_x
	_atom_site_fract_y
	_atom_site_fract_z
	H0	H	0.390667	0.849402	0.709860
	H1	H	0.596349	0.171623	0.708660
	H2	H	0.599809	0.852948	0.266902
	H3	H	0.388357	0.171089	0.270449
	H4	H	0.717693	0.401497	0.832583
	H5	H	0.717863	0.623051	0.147170
	H6	H	0.269620	0.619714	0.831457
	H7	H	0.268827	0.403028	0.147143
	H8	H	0.837188	0.733792	0.382125
	H9	H	0.152370	0.732266	0.594926
	H10	H	0.836344	0.287151	0.597176
	H11	H	0.151817	0.288706	0.384117
	H12	H	0.836320	0.402627	0.712818
	H13	H	0.151421	0.617273	0.713446
	H14	H	0.835895	0.616529	0.267620
	H15	H	0.150563	0.404807	0.266215
	H16	H	0.389066	0.731819	0.829928
	H17	H	0.598133	0.734961	0.148678
	H18	H	0.597284	0.289895	0.830130
	H19	H	0.386239	0.289149	0.148303
	H20	H	0.717600	0.853302	0.381349
	H21	H	0.719343	0.167774	0.601773
	H22	H	0.269486	0.851800	0.600384
	H23	H	0.271084	0.169072	0.385019
	H24	H	0.889280	0.349081	0.207763
	H25	H	0.094498	0.670992	0.207520
	H26	H	0.095852	0.349381	0.771459
	H27	H	0.890085	0.671255	0.769521
	H28	H	0.216133	0.904929	0.332093
	H29	H	0.214439	0.116908	0.650637
	H30	H	0.770052	0.119863	0.333359
	H31	H	0.772009	0.903009	0.648968
	H32	H	0.333875	0.229701	0.886921
	H33	H	0.651032	0.232543	0.092955
	H34	H	0.334952	0.792456	0.094420
	H35	H	0.650803	0.790497	0.885156
	H36	H	0.336052	0.907317	0.212886
	H37	H	0.650434	0.120910	0.213126
	H38	H	0.335139	0.114721	0.769377
	H39	H	0.650997	0.905535	0.768178
	H40	H	0.891771	0.227358	0.329840
	H41	H	0.099416	0.233287	0.649379
	H42	H	0.097496	0.792555	0.329614
	H43	H	0.891936	0.790573	0.649482
	H44	H	0.213939	0.351098	0.884412
	H45	H	0.213388	0.670082	0.096311
	H46	H	0.769519	0.352033	0.097537
	H47	H	0.771118	0.670211	0.883053
	H48	H	0.412290	0.120271	0.573759
	H49	H	0.585672	0.894809	0.581631
	H50	H	0.583848	0.125625	0.404748
	H51	H	0.400926	0.895433	0.403340
	H52	H	0.586034	0.425201	0.103776
	H53	H	0.582097	0.597660	0.877499
	H54	H	0.402033	0.595213	0.101727
	H55	H	0.406724	0.421104	0.876110
	H56	H	0.104748	0.599510	0.404454
	H57	H	0.882609	0.600152	0.576021
	H58	H	0.105109	0.416272	0.570942
	H59	H	0.881268	0.421936	0.401232
	H60	H	0.102868	0.431170	0.578422
	H61	H	0.882396	0.597167	0.579391
	H62	H	0.106347	0.594553	0.395738
	H63	H	0.880295	0.420183	0.398264
	H64	H	0.407819	0.601815	0.102232
	H65	H	0.580592	0.600498	0.876859
	H66	H	0.577676	0.429239	0.100032
	H67	H	0.399927	0.421480	0.874034
	H68	H	0.582146	0.125007	0.403169
	H69	H	0.577035	0.897592	0.578686
	H70	H	0.392529	0.125732	0.573485
	H71	H	0.408253	0.896986	0.399366
	H72	H	0.906151	0.625621	0.082776
	H73	H	0.082615	0.396663	0.073551
	H74	H	0.085023	0.623940	0.907665
	H75	H	0.901489	0.393906	0.896216
	H76	H	0.088235	0.924959	0.605361
	H77	H	0.087549	0.097784	0.376533
	H78	H	0.907696	0.095813	0.602602
	H79	H	0.904166	0.926785	0.377228
	H80	H	0.608534	0.108715	0.901299
	H81	H	0.383330	0.096029	0.074711
	H82	H	0.604327	0.928287	0.079596
	H83	H	0.379993	0.919584	0.902940
	H84	H	0.607863	0.921697	0.080707
	H85	H	0.378495	0.097216	0.087532
	H86	H	0.603006	0.096722	0.906229
	H87	H	0.381299	0.925888	0.900490
	H88	H	0.906192	0.100984	0.605294
	H89	H	0.082987	0.094435	0.378575
	H90	H	0.077891	0.924675	0.601655
	H91	H	0.907360	0.922768	0.376887
	H92	H	0.085086	0.627481	0.896632
	H93	H	0.085335	0.393839	0.078792
	H94	H	0.907575	0.621390	0.073396
	H95	H	0.910978	0.399543	0.903639
	H96	H	0.403856	0.128470	0.590610
	H97	H	0.584952	0.897694	0.573002
	H98	H	0.582017	0.123998	0.405641
	H99	H	0.406894	0.899223	0.407384
	H100	H	0.577931	0.419865	0.103098
	H101	H	0.583629	0.599962	0.876307
	H102	H	0.398996	0.602689	0.105037
	H103	H	0.403054	0.426900	0.877335
	H104	H	0.108292	0.604656	0.396512
	H105	H	0.880980	0.601255	0.579963
	H106	H	0.110011	0.418105	0.587222
	H107	H	0.880929	0.417951	0.401515
	H108	H	0.898192	0.625458	0.076175
	H109	H	0.079835	0.396340	0.078710
	H110	H	0.075471	0.622457	0.901001
	H111	H	0.899148	0.397772	0.908274
	H112	H	0.082278	0.915465	0.606087
	H113	H	0.082046	0.100739	0.377297
	H114	H	0.902029	0.096599	0.604905
	H115	H	0.902251	0.922006	0.374858
	H116	H	0.607424	0.097396	0.892876
	H117	H	0.378145	0.107608	0.078996
	H118	H	0.604496	0.923198	0.074615
	H119	H	0.378451	0.920577	0.896183
	C120	C	0.371332	0.019012	0.612549
	C121	C	0.614960	1.001998	0.611501
	C122	C	0.615618	0.020301	0.369749
	C123	C	0.373082	1.002449	0.370656
	C124	C	0.613431	0.390549	-0.002180
	C125	C	0.614643	0.633252	0.981485
	C126	C	0.370954	0.632864	-0.001948
	C127	C	0.370990	0.390332	0.980881
	C128	C	0.002266	0.632055	0.367002
	C129	C	0.986023	0.632498	0.611322
	C130	C	0.001856	0.388822	0.611455
	C131	C	0.985083	0.387973	0.367480
	C132	C	0.871025	0.519145	0.111023
	C133	C	0.113878	0.501414	0.109731
	C134	C	0.114024	0.519204	0.869151
	C135	C	0.871578	0.502496	0.868934
	C136	C	0.115469	0.889625	0.499170
	C137	C	0.115632	0.131124	0.482764
	C138	C	0.872675	0.130987	0.499544
	C139	C	0.872945	0.889931	0.481553
	C140	C	0.501623	0.132541	0.868404
	C141	C	0.484088	0.133866	0.112082
	C142	C	0.501823	0.891285	0.111665
	C143	C	0.484632	0.889622	0.868006
	C144	C	0.370779	0.898200	0.671414
	C145	C	0.616178	0.122756	0.670733
	C146	C	0.618425	0.900907	0.307225
	C147	C	0.370268	0.122741	0.310294
	C148	C	0.675630	0.385370	0.879306
	C149	C	0.676558	0.638958	0.099928
	C150	C	0.310248	0.636681	0.878991
	C151	C	0.309544	0.386043	0.099979
	C152	C	0.884194	0.693266	0.364616
	C153	C	0.104863	0.692461	0.613509
	C154	C	0.883851	0.327375	0.614989
	C155	C	0.104052	0.328310	0.365273
	C156	C	0.883689	0.385337	0.672581
	C157	C	0.104189	0.635193	0.672661
	C158	C	0.883449	0.634660	0.307471
	C159	C	0.103494	0.386114	0.306636
	C160	C	0.369863	0.692715	0.878066
	C161	C	0.617047	0.694997	0.100790
	C162	C	0.615985	0.329423	0.878328
	C163	C	0.367999	0.329111	0.100316
	C164	C	0.676891	0.900859	0.364424
	C165	C	0.677410	0.120793	0.617272
	C166	C	0.310507	0.899235	0.616817
	C167	C	0.311694	0.121877	0.367172
	C168	C	0.869700	0.398145	0.169683
	C169	C	0.114066	0.622661	0.168745
	C170	C	0.115313	0.398075	0.810011
	C171	C	0.870619	0.622760	0.808765
	C172	C	0.175742	0.887175	0.379404
	C173	C	0.174722	0.134641	0.602714
	C174	C	0.811370	0.135901	0.380478
	C175	C	0.812859	0.885984	0.601356
	C176	C	0.381897	0.191008	0.867471
	C177	C	0.603450	0.193636	0.112551
	C178	C	0.382676	0.831635	0.113672
	C179	C	0.603587	0.830121	0.866453
	C180	C	0.383380	0.888649	0.172719
	C181	C	0.603144	0.137668	0.172118
	C182	C	0.382276	0.133515	0.809119
	C183	C	0.603491	0.887333	0.808032
	C184	C	0.872223	0.189607	0.378497
	C185	C	0.117300	0.192420	0.602092
	C186	C	0.116707	0.831400	0.378072
	C187	C	0.872184	0.829800	0.601640
	C188	C	0.173649	0.398746	0.866698
	C189	C	0.173301	0.622082	0.113218
	C190	C	0.810346	0.399440	0.114305
	C191	C	0.811521	0.622341	0.865477
	C192	C	0.395929	0.102922	0.586773
	C193	C	0.589988	0.918528	0.585173
	C194	C	0.590060	0.103116	0.396878
	C195	C	0.398096	0.918910	0.396059
	C196	C	0.587935	0.417243	0.080613
	C197	C	0.589269	0.606933	0.898530
	C198	C	0.395847	0.607394	0.081370
	C199	C	0.396139	0.415782	0.897582
	C200	C	0.084923	0.606814	0.392018
	C201	C	0.903540	0.606860	0.585880
	C202	C	0.084452	0.414564	0.586049
	C203	C	0.902490	0.412803	0.393009
	C204	C	0.896538	0.602545	0.085100
	C205	C	0.089413	0.417572	0.084499
	C206	C	0.089071	0.602936	0.894458
	C207	C	0.896396	0.418823	0.895261
	C208	C	0.090333	0.914438	0.582636
	C209	C	0.091219	0.105063	0.399297
	C210	C	0.897885	0.105229	0.582533
	C211	C	0.897581	0.916051	0.398390
	C212	C	0.584648	0.107911	0.892971
	C213	C	0.401577	0.107833	0.087565
	C214	C	0.584150	0.916869	0.085636
	C215	C	0.401499	0.914655	0.892919
	Zn216	Zn	0.493715	0.010842	0.739281
	Zn217	Zn	0.493699	0.012718	0.241194
	Zn218	Zn	0.742639	0.511117	-0.009785
	Zn219	Zn	0.242343	0.511169	-0.010741
	Zn220	Zn	-0.005334	0.761440	0.488767
	Zn221	Zn	-0.006283	0.259271	0.490354
	Zn222	Zn	-0.006630	0.510118	0.740569
	Zn223	Zn	-0.007442	0.509933	0.237960
	Zn224	Zn	0.492553	0.761597	-0.010359
	Zn225	Zn	0.491915	0.261531	-0.010144
	Zn226	Zn	0.743851	0.010793	0.491309
	Zn227	Zn	0.244241	0.010215	0.491731
	N228	N	0.407854	0.973772	0.668761
	N229	N	0.578098	0.047918	0.667283
	N230	N	0.581130	0.976179	0.310365
	N231	N	0.407706	0.047519	0.312347
	N232	N	0.673947	0.422919	0.954541
	N233	N	0.675204	0.601230	0.024723
	N234	N	0.311070	0.600124	0.954615
	N235	N	0.311649	0.423734	0.024902
	N236	N	0.959180	0.691756	0.400954
	N237	N	0.030434	0.690922	0.576040
	N238	N	0.958355	0.329377	0.577471
	N239	N	0.029462	0.329271	0.402422
	N240	N	0.958073	0.422834	0.670467
	N241	N	0.029162	0.598712	0.671467
	N242	N	0.957862	0.597300	0.308780
	N243	N	0.028507	0.422432	0.307844
	N244	N	0.407096	0.690571	0.953167
	N245	N	0.579226	0.691642	0.026052
	N246	N	0.577668	0.332715	0.952910
	N247	N	0.405678	0.331736	0.025451
	N248	N	0.675529	0.976207	0.402438
	N249	N	0.676834	0.044603	0.580979
	N250	N	0.310607	0.975515	0.581020
	N251	N	0.313360	0.046157	0.404195
	N252	N	0.906524	0.473783	0.167788
	N253	N	0.077749	0.546690	0.166899
	N254	N	0.079098	0.474007	0.811273
	N255	N	0.906931	0.547097	0.810747
	N256	N	0.175308	0.922428	0.455818
	N257	N	0.173818	0.097170	0.527510
	N258	N	0.811345	0.100161	0.456675
	N259	N	0.812991	0.922412	0.525657
	N260	N	0.457183	0.190791	0.903345
	N261	N	0.528359	0.191692	0.076295
	N262	N	0.457424	0.832886	0.076671
	N263	N	0.528636	0.831612	0.903052
	N264	N	0.458520	0.924600	0.171733
	N265	N	0.528108	0.101234	0.171886
	N266	N	0.457717	0.098094	0.809558
	N267	N	0.528479	0.923679	0.809230
	N268	N	0.909773	0.186788	0.453489
	N269	N	0.081151	0.190224	0.526491
	N270	N	0.080009	0.832786	0.453542
	N271	N	0.908485	0.831768	0.526017
	N272	N	0.173155	0.475199	0.902375
	N273	N	0.173488	0.545726	0.077465
	N274	N	0.810813	0.475853	0.078698
	N275	N	0.811953	0.546324	0.902038
	O276	O	0.282384	0.563808	0.619844
	H277	H	0.278260	0.545939	0.616600
	H278	H	0.277892	0.552044	0.621588
	O279	O	0.408184	0.437810	0.285542
	H280	H	0.423878	0.451091	0.286591
	H281	H	0.413183	0.436880	0.295856
	O282	O	0.697252	0.442082	0.283169
	H283	H	0.721289	0.457025	0.254540
	H284	H	0.660521	0.457892	0.273225
	O285	O	1.039547	1.169592	0.104923
	H286	H	1.045031	1.153512	0.115753
	H287	H	1.052315	1.163013	0.109727
	O288	O	0.707236	0.722706	0.514354
	H289	H	0.695963	0.718927	0.540597
	H290	H	0.733826	0.742732	0.521669
	O291	O	0.437405	0.719224	0.277591
	H292	H	0.437768	0.734757	0.278666
	H293	H	0.448629	0.734002	0.287302
	O294	O	0.837879	1.016920	1.049256
	H295	H	0.852327	1.013336	1.058978
	H296	H	0.837824	1.015456	1.044588
	O297	O	0.683375	0.319887	0.355776
	H298	H	0.702804	0.309559	0.383191
	H299	H	0.689733	0.355388	0.341691
	O300	O	0.487603	0.341463	0.464664
	H301	H	0.467322	0.345089	0.471016
	H302	H	0.480908	0.347816	0.460935
	O303	O	0.309427	0.648103	0.307672
	H304	H	0.317302	0.617755	0.292329
	H305	H	0.336896	0.641192	0.304888
	O306	O	-0.332088	0.303859	1.496051
	H307	H	-0.306248	0.274360	1.492763
	H308	H	-0.364431	0.300812	1.508837
	O309	O	0.887865	-0.074742	0.088558
	H310	H	0.878925	-0.075258	0.089260
	H311	H	0.884725	-0.059603	0.080160
	O312	O	0.886751	-0.151393	-0.043285
	H313	H	0.885737	-0.141462	-0.039598
	H314	H	0.882827	-0.134894	-0.051534
	O315	O	0.682640	0.701511	0.674463
	H316	H	0.679904	0.677443	0.686954
	H317	H	0.651441	0.709000	0.672152
	O318	O	0.259191	-0.258926	0.392199
	H319	H	0.264785	-0.265794	0.364160
	H320	H	0.240300	-0.242850	0.369765
	O321	O	0.335033	0.328161	0.669419
	H322	H	0.336126	0.332893	0.670821
	H323	H	0.370765	0.315855	0.675866
	O324	O	1.065761	-0.106753	0.966189
	H325	H	1.062961	-0.110041	0.961561
	H326	H	1.074846	-0.098727	0.961020
	O327	O	0.458868	0.713393	0.578060
	H328	H	0.451004	0.708964	0.587292
	H329	H	0.424099	0.713139	0.576512
	O330	O	-0.008125	1.108192	0.883574
	H331	H	-0.019210	1.113081	0.888335
	H332	H	-0.019556	1.111496	0.880554
	O333	O	-0.041452	1.065312	-0.012542
	H334	H	-0.034222	1.068546	0.003862
	H335	H	-0.044859	1.075730	-0.001987
	O336	O	0.979099	0.946937	-0.081907
	H337	H	0.979507	0.938600	-0.086456
	H338	H	0.987216	0.949121	-0.068071
	O339	O	-0.326148	1.460451	1.571848
	H340	H	-0.330928	1.443342	1.558667
	H341	H	-0.319482	1.471750	1.576143
	O342	O	0.277930	0.522758	0.363659
	H343	H	0.296518	0.494101	0.365977
	H344	H	0.255586	0.524878	0.344271
	O345	O	-0.687399	-0.611347	1.470007
	H346	H	-0.701926	-0.627290	1.471177
	H347	H	-0.683964	-0.585733	1.496950
	O348	O	0.453283	0.482109	0.520233
	H349	H	0.460121	0.492961	0.525089
	H350	H	0.448994	0.481113	0.515745
	O351	O	0.931004	0.881147	0.103598
	H352	H	0.925234	0.859014	0.102604
	H353	H	0.942506	0.886244	0.104498
	O354	O	1.581717	0.638869	1.316669
	H355	H	1.569139	0.631725	1.329718
	H356	H	1.568629	0.652859	1.323706
	O357	O	-0.217717	0.081686	-0.207305
	H358	H	-0.221716	0.092482	-0.217344
	H359	H	-0.218442	0.075096	-0.222290
	O360	O	1.032237	-0.003923	0.089606
	H361	H	1.022700	-0.012904	0.091747
	H362	H	1.040784	-0.004324	0.088014
	O363	O	1.177054	-0.949465	0.006120
	H364	H	1.173692	-0.963360	0.009917
	H365	H	1.185970	-0.943641	-0.004661
	O366	O	0.712004	0.537247	1.711067
	H367	H	0.704552	0.540986	1.688117
	H368	H	0.750421	0.537905	1.749133
	O369	O	0.764652	-0.115407	1.151347
	H370	H	0.769606	-0.128173	1.141598
	H371	H	0.760967	-0.117804	1.150109
	O372	O	0.692075	0.553606	0.389918
	H373	H	0.705862	0.576038	0.377899
	H374	H	0.684096	0.553499	0.380941
	O375	O	0.050565	-0.157249	0.861819
	H376	H	0.043384	-0.167340	0.852551
	H377	H	0.045728	-0.152676	0.860479
	O378	O	0.372927	0.562296	0.444916
	H379	H	0.367513	0.572807	0.467443
	H380	H	0.362855	0.576404	0.437105
	O381	O	0.108916	1.065940	0.113174
	H382	H	0.102131	1.067610	0.117429
	H383	H	0.102838	1.044727	0.117144
	O384	O	0.487510	0.519408	0.491272
	H385	H	0.486703	0.524348	0.491149
	H386	H	0.504311	0.508687	0.489739
	O387	O	0.512767	0.684240	0.497468
	H388	H	0.516880	0.686969	0.504228
	H389	H	0.503840	0.670247	0.515274
	O390	O	0.495645	0.329576	0.690796
	H391	H	0.507199	0.349405	0.696312
	H392	H	0.500361	0.329967	0.702771
	O393	O	1.055460	-0.015465	0.838487
	H394	H	1.049450	-0.012627	0.841583
	H395	H	1.063683	-0.007384	0.833064
	O396	O	0.885834	0.075220	0.004792
	H397	H	0.886869	0.070971	0.004948
	H398	H	0.901971	0.073742	0.014553
	O399	O	0.412782	0.432071	0.499236
	H400	H	0.409634	0.439540	0.482564
	H401	H	0.424621	0.418608	0.491936
	O402	O	0.875502	1.034406	0.083007
	H403	H	0.880842	1.032523	0.093890
	H404	H	0.872421	1.024424	0.095126
	O405	O	0.447682	0.625781	0.633100
	H406	H	0.432247	0.604564	0.633542
	H407	H	0.444166	0.637087	0.635067
	O408	O	0.374031	0.581490	0.679580
	H409	H	0.351833	0.577913	0.670373
	H410	H	0.379164	0.560798	0.676725
	O411	O	0.960267	0.901970	1.133675
	H412	H	0.955151	0.891584	1.149466
	H413	H	0.937788	0.901235	1.117897
	O414	O	0.494973	0.292886	0.327625
	H415	H	0.499213	0.263104	0.306041
	H416	H	0.531933	0.300793	0.331675
	O417	O	0.140914	0.962850	0.837104
	H418	H	0.139831	0.941288	0.844943
	H419	H	0.146645	0.975019	0.821642
	O420	O	-0.114704	1.146538	0.878826
	H421	H	-0.124025	1.153714	0.890926
	H422	H	-0.108783	1.158413	0.880810
	O423	O	0.032415	0.974373	0.086352
	H424	H	0.020776	0.987453	0.079848
	H425	H	0.032216	0.972225	0.077211
	O426	O	0.592961	0.464208	0.657043
	H427	H	0.600473	0.477163	0.637894
	H428	H	0.610230	0.476878	0.661231
	O429	O	0.478110	0.359685	0.350027
	H430	H	0.466693	0.362017	0.346832
	H431	H	0.484299	0.350142	0.346271
	O432	O	0.171100	1.138177	-0.016338
	H433	H	0.165733	1.134093	-0.020937
	H434	H	0.175055	1.138104	-0.014229
	O435	O	0.009215	0.134698	0.126545
	H436	H	0.021896	0.147165	0.140250
	H437	H	0.024257	0.140767	0.134120
	O438	O	-0.051367	1.156325	0.936431
	H439	H	-0.057461	1.143803	0.931388
	H440	H	-0.052628	1.164966	0.942691
	O441	O	1.139503	-0.101028	0.870656
	H442	H	1.145435	-0.105758	0.869805
	H443	H	1.129356	-0.107500	0.873007
