data_Molecule from HDF5

_cell_length_a		16.310180
_cell_length_b		16.263661
_cell_length_c		16.047793
_cell_angle_alpha	90.081158
_cell_angle_beta	89.767395
_cell_angle_gamma	89.968359
_symmetry_space_group_name_H-M	'P 1'
_symmetry_Int_Tables_number		1

loop_
	_symmetry_equiv_pos_as_xyz
	x,y,z

loop_
	_atom_site_label
	_atom_site_type_symbol
	_atom_site_fract_x
	_atom_site_fract_y
	_atom_site_fract_z
	H0	H	0.402344	0.838110	0.710722
	H1	H	0.594304	0.167954	0.710819
	H2	H	0.596974	0.838104	0.284324
	H3	H	0.404824	0.167759	0.288216
	H4	H	0.713414	0.402720	0.833989
	H5	H	0.711667	0.602815	0.164536
	H6	H	0.284914	0.603270	0.834298
	H7	H	0.285035	0.404546	0.163210
	H8	H	0.835849	0.720785	0.398158
	H9	H	0.161912	0.718945	0.597312
	H10	H	0.835788	0.286983	0.599785
	H11	H	0.161886	0.285668	0.396133
	H12	H	0.835130	0.405609	0.712944
	H13	H	0.163156	0.599995	0.710601
	H14	H	0.833932	0.600062	0.286174
	H15	H	0.163899	0.406637	0.285192
	H16	H	0.399701	0.715185	0.832644
	H17	H	0.595830	0.716751	0.164205
	H18	H	0.598415	0.289585	0.833366
	H19	H	0.400005	0.291425	0.164606
	H20	H	0.716873	0.840279	0.396430
	H21	H	0.714701	0.166168	0.599537
	H22	H	0.282333	0.840468	0.601166
	H23	H	0.284542	0.166136	0.398864
	H24	H	0.903413	0.337750	0.211051
	H25	H	0.095479	0.667575	0.211695
	H26	H	0.096543	0.338133	0.785240
	H27	H	0.902776	0.667059	0.786745
	H28	H	0.213247	0.904428	0.333177
	H29	H	0.211754	0.101759	0.664262
	H30	H	0.785197	0.102484	0.334285
	H31	H	0.784183	0.903401	0.663807
	H32	H	0.335732	0.219552	0.898819
	H33	H	0.661629	0.219215	0.099439
	H34	H	0.335253	0.788667	0.098058
	H35	H	0.661569	0.786673	0.896593
	H36	H	0.335562	0.905423	0.213902
	H37	H	0.663525	0.099020	0.210210
	H38	H	0.334100	0.099241	0.786343
	H39	H	0.663178	0.907222	0.784813
	H40	H	0.901736	0.214991	0.332457
	H41	H	0.097065	0.216778	0.664021
	H42	H	0.097325	0.790677	0.332791
	H43	H	0.900255	0.791204	0.664419
	H44	H	0.215847	0.340160	0.897525
	H45	H	0.215314	0.666427	0.099744
	H46	H	0.782590	0.339672	0.099881
	H47	H	0.782075	0.665135	0.896849
	H48	H	0.407116	0.119235	0.590507
	H49	H	0.597129	0.885281	0.588704
	H50	H	0.592720	0.118249	0.410219
	H51	H	0.403381	0.884330	0.404531
	H52	H	0.598425	0.399912	0.123309
	H53	H	0.588477	0.591893	0.882470
	H54	H	0.404734	0.592360	0.116879
	H55	H	0.414679	0.411195	0.882239
	H56	H	0.113887	0.592829	0.404016
	H57	H	0.879262	0.599972	0.597251
	H58	H	0.111908	0.412344	0.581094
	H59	H	0.882485	0.414518	0.399026
	H60	H	0.116007	0.415110	0.598850
	H61	H	0.882461	0.601366	0.586655
	H62	H	0.117561	0.601001	0.400141
	H63	H	0.880206	0.399598	0.404388
	H64	H	0.409422	0.596817	0.117618
	H65	H	0.590775	0.597230	0.879168
	H66	H	0.596887	0.424202	0.115276
	H67	H	0.404621	0.403513	0.876441
	H68	H	0.598778	0.121209	0.405312
	H69	H	0.591686	0.884492	0.594586
	H70	H	0.401879	0.121111	0.590562
	H71	H	0.409957	0.885971	0.405436
	H72	H	0.915655	0.614446	0.084227
	H73	H	0.090483	0.385572	0.097807
	H74	H	0.089364	0.617713	0.911408
	H75	H	0.905564	0.387038	0.911899
	H76	H	0.095447	0.912531	0.617257
	H77	H	0.083404	0.090152	0.383974
	H78	H	0.917031	0.103898	0.616707
	H79	H	0.903087	0.913234	0.379211
	H80	H	0.615947	0.099198	0.904885
	H81	H	0.380917	0.099394	0.095143
	H82	H	0.615468	0.911710	0.092010
	H83	H	0.382056	0.906689	0.908174
	H84	H	0.617213	0.905555	0.092974
	H85	H	0.381319	0.099437	0.091235
	H86	H	0.613997	0.096370	0.907488
	H87	H	0.382802	0.911548	0.905414
	H88	H	0.894719	0.101272	0.623060
	H89	H	0.093348	0.106908	0.375850
	H90	H	0.088477	0.913354	0.615781
	H91	H	0.910812	0.914973	0.381934
	H92	H	0.100367	0.621128	0.907013
	H93	H	0.089990	0.389245	0.084585
	H94	H	0.892587	0.620946	0.083025
	H95	H	0.902016	0.383578	0.904506
	H96	H	0.404755	0.121154	0.594857
	H97	H	0.589710	0.887959	0.587843
	H98	H	0.590721	0.120827	0.401155
	H99	H	0.405213	0.886317	0.410207
	H100	H	0.576550	0.408917	0.114043
	H101	H	0.594563	0.592253	0.880446
	H102	H	0.403960	0.599118	0.118648
	H103	H	0.402228	0.416382	0.879930
	H104	H	0.114692	0.601054	0.409897
	H105	H	0.884355	0.592390	0.591273
	H106	H	0.119037	0.398562	0.591851
	H107	H	0.885744	0.411042	0.414541
	H108	H	0.905099	0.623006	0.103742
	H109	H	0.101469	0.383736	0.089931
	H110	H	0.090200	0.620383	0.899597
	H111	H	0.910066	0.386566	0.904921
	H112	H	0.090622	0.907357	0.618877
	H113	H	0.103699	0.088865	0.378527
	H114	H	0.905884	0.083295	0.613541
	H115	H	0.908556	0.906620	0.378322
	H116	H	0.615462	0.094946	0.903694
	H117	H	0.382304	0.096623	0.092741
	H118	H	0.615216	0.907174	0.086635
	H119	H	0.380966	0.906941	0.903438
	C120	C	0.376812	0.011919	0.620740
	C121	C	0.620608	0.994562	0.619556
	C122	C	0.622404	0.011490	0.376100
	C123	C	0.378057	0.994082	0.377795
	C124	C	0.620305	0.381492	0.008157
	C125	C	0.619745	0.623416	0.989985
	C126	C	0.377770	0.624321	0.007842
	C127	C	0.378189	0.382159	0.989245
	C128	C	0.006938	0.626004	0.376486
	C129	C	0.990260	0.625678	0.620362
	C130	C	0.007502	0.380194	0.620193
	C131	C	0.991123	0.380924	0.376992
	C132	C	0.876591	0.511292	0.119983
	C133	C	0.121651	0.494610	0.119744
	C134	C	0.121725	0.511584	0.876518
	C135	C	0.877155	0.493926	0.877858
	C136	C	0.120601	0.882000	0.507796
	C137	C	0.120943	0.124112	0.489375
	C138	C	0.877899	0.124196	0.508006
	C139	C	0.878312	0.882843	0.489499
	C140	C	0.507054	0.125144	0.876908
	C141	C	0.490057	0.125496	0.120681
	C142	C	0.507515	0.880504	0.119778
	C143	C	0.489998	0.880507	0.876325
	C144	C	0.380616	0.887863	0.674599
	C145	C	0.616278	0.118413	0.673991
	C146	C	0.618373	0.887674	0.321386
	C147	C	0.382689	0.118298	0.324354
	C148	C	0.675784	0.382959	0.883454
	C149	C	0.674182	0.622300	0.114902
	C150	C	0.322844	0.622738	0.883295
	C151	C	0.322733	0.384535	0.114056
	C152	C	0.883969	0.681462	0.378997
	C153	C	0.113215	0.680680	0.617646
	C154	C	0.884614	0.325126	0.619251
	C155	C	0.113778	0.325331	0.377549
	C156	C	0.884041	0.384460	0.675188
	C157	C	0.113844	0.621372	0.673797
	C158	C	0.883301	0.621807	0.322901
	C159	C	0.114474	0.385152	0.322164
	C160	C	0.379903	0.678553	0.882800
	C161	C	0.616827	0.679289	0.114752
	C162	C	0.618733	0.326616	0.883251
	C163	C	0.379700	0.328226	0.114554
	C164	C	0.678130	0.888809	0.376880
	C165	C	0.675850	0.117589	0.618409
	C166	C	0.321156	0.888834	0.619672
	C167	C	0.322745	0.117325	0.379565
	C168	C	0.881464	0.387297	0.174272
	C169	C	0.117085	0.618613	0.173996
	C170	C	0.118105	0.387530	0.822003
	C171	C	0.881110	0.617692	0.823417
	C172	C	0.175634	0.884194	0.382705
	C173	C	0.174911	0.122447	0.614537
	C174	C	0.823404	0.121967	0.383201
	C175	C	0.822220	0.883754	0.614357
	C176	C	0.384028	0.180805	0.879117
	C177	C	0.613062	0.180588	0.118633
	C178	C	0.384254	0.826103	0.118297
	C179	C	0.613012	0.825277	0.877299
	C180	C	0.384304	0.884342	0.175434
	C181	C	0.614167	0.120712	0.173726
	C182	C	0.383116	0.121248	0.823124
	C183	C	0.613886	0.885057	0.821658
	C184	C	0.881003	0.178301	0.382507
	C185	C	0.117513	0.179226	0.614496
	C186	C	0.118025	0.827489	0.382570
	C187	C	0.879850	0.828124	0.614787
	C188	C	0.177650	0.388712	0.877684
	C189	C	0.176819	0.617901	0.118533
	C190	C	0.821030	0.388315	0.119444
	C191	C	0.820966	0.616489	0.878157
	C192	C	0.398184	0.098213	0.598483
	C193	C	0.599129	0.908201	0.596906
	C194	C	0.600570	0.097884	0.398832
	C195	C	0.399711	0.907724	0.400008
	C196	C	0.597342	0.404172	0.095195
	C197	C	0.597768	0.600520	0.902919
	C198	C	0.399625	0.602397	0.095104
	C199	C	0.400629	0.403981	0.901905
	C200	C	0.093145	0.604626	0.398226
	C201	C	0.904278	0.604187	0.598281
	C202	C	0.093497	0.402140	0.597426
	C203	C	0.905090	0.402110	0.399458
	C204	C	0.897968	0.597409	0.096932
	C205	C	0.100392	0.408453	0.097356
	C206	C	0.099645	0.597647	0.899189
	C207	C	0.899313	0.407815	0.900617
	C208	C	0.098138	0.904446	0.594835
	C209	C	0.099778	0.101779	0.401976
	C210	C	0.899507	0.102474	0.595196
	C211	C	0.900943	0.905158	0.402641
	C212	C	0.592788	0.103390	0.898861
	C213	C	0.403865	0.104469	0.099504
	C214	C	0.593637	0.901855	0.097225
	C215	C	0.404013	0.901949	0.899004
	Zn216	Zn	0.498703	0.003215	0.747982
	Zn217	Zn	0.499293	0.002972	0.248523
	Zn218	Zn	0.747586	0.502289	-0.001225
	Zn219	Zn	0.250954	0.503254	-0.001929
	Zn220	Zn	-0.001703	0.755124	0.498963
	Zn221	Zn	-0.000855	0.251031	0.498287
	Zn222	Zn	-0.001083	0.502825	0.748786
	Zn223	Zn	-0.001041	0.503534	0.247802
	Zn224	Zn	0.498410	0.750877	-0.002157
	Zn225	Zn	0.498685	0.254596	-0.001050
	Zn226	Zn	0.750475	0.003119	0.499084
	Zn227	Zn	0.248959	0.003089	0.499026
	N228	N	0.414478	0.965236	0.675385
	N229	N	0.582934	0.040909	0.674780
	N230	N	0.584425	0.965193	0.320878
	N231	N	0.416128	0.040701	0.322915
	N232	N	0.676592	0.416600	0.962112
	N233	N	0.676316	0.588431	0.036238
	N234	N	0.321302	0.589512	0.962148
	N235	N	0.321661	0.417532	0.035092
	N236	N	0.962033	0.684313	0.411487
	N237	N	0.035375	0.683540	0.585342
	N238	N	0.962318	0.322770	0.585335
	N239	N	0.036093	0.322436	0.411092
	N240	N	0.961516	0.418048	0.675847
	N241	N	0.036361	0.587875	0.675682
	N242	N	0.960625	0.588039	0.321425
	N243	N	0.037227	0.419099	0.321771
	N244	N	0.413425	0.679535	0.961265
	N245	N	0.583549	0.679813	0.036251
	N246	N	0.584827	0.325626	0.961952
	N247	N	0.413613	0.326663	0.036019
	N248	N	0.680914	0.966832	0.410163
	N249	N	0.678597	0.039370	0.585269
	N250	N	0.318499	0.967022	0.586940
	N251	N	0.319907	0.039008	0.411995
	N252	N	0.915121	0.464857	0.174895
	N253	N	0.083650	0.541192	0.174997
	N254	N	0.083956	0.464832	0.821281
	N255	N	0.915303	0.540312	0.822784
	N256	N	0.177236	0.917552	0.461456
	N257	N	0.177059	0.088785	0.535842
	N258	N	0.821176	0.089330	0.462273
	N259	N	0.821010	0.916933	0.535600
	N260	N	0.461974	0.183663	0.911538
	N261	N	0.534971	0.183772	0.086401
	N262	N	0.461838	0.823486	0.084345
	N263	N	0.535128	0.821980	0.910178
	N264	N	0.461997	0.917306	0.176529
	N265	N	0.536809	0.087269	0.175319
	N266	N	0.460481	0.087347	0.821475
	N267	N	0.536396	0.918690	0.820869
	N268	N	0.914186	0.179785	0.461101
	N269	N	0.084582	0.180255	0.535596
	N270	N	0.084307	0.826324	0.461249
	N271	N	0.913858	0.827056	0.536132
	N272	N	0.179947	0.466738	0.910983
	N273	N	0.179801	0.539710	0.085475
	N274	N	0.818031	0.466361	0.086353
	N275	N	0.818708	0.538507	0.911363
	O276	O	0.435321	0.569405	0.467791
	H277	H	0.433750	0.567421	0.460917
	H278	H	0.442769	0.573196	0.463456
	O279	O	0.547191	0.553103	0.554530
	H280	H	0.548256	0.552146	0.556119
	H281	H	0.546288	0.552646	0.563266
	O282	O	0.549436	0.485898	0.491552
	H283	H	0.535923	0.494452	0.491756
	H284	H	0.549355	0.483403	0.506289
	O285	O	0.008678	0.995602	0.963503
	H286	H	0.021208	0.990963	0.963385
	H287	H	0.005000	1.001290	0.960890
	O288	O	0.487671	0.479517	0.518268
	H289	H	0.480754	0.481954	0.512413
	H290	H	0.485849	0.482874	0.519637
	O291	O	-0.035046	-0.050132	1.040484
	H292	H	-0.045968	-0.057348	1.049430
	H293	H	-0.031068	-0.043378	1.051882
	O294	O	0.473989	0.535549	0.535794
	H295	H	0.475269	0.542567	0.538571
	H296	H	0.461414	0.524571	0.544583
	O297	O	0.516211	0.472406	0.486636
	H298	H	0.528428	0.480088	0.486287
	H299	H	0.514619	0.464970	0.482031
	O300	O	0.503255	0.490725	0.527815
	H301	H	0.507529	0.493644	0.524158
	H302	H	0.503981	0.490389	0.531456
	O303	O	0.418790	0.519210	0.442775
	H304	H	0.409561	0.519544	0.432318
	H305	H	0.426205	0.524006	0.441210
	O306	O	0.967138	-0.043661	0.988488
	H307	H	0.965927	-0.046410	0.982129
	H308	H	0.957953	-0.043223	0.991185
	O309	O	0.511038	0.536674	0.478101
	H310	H	0.515114	0.541796	0.479060
	H311	H	0.516296	0.536502	0.479771
	O312	O	0.528948	0.493306	0.470027
	H313	H	0.536533	0.487575	0.466046
	H314	H	0.539839	0.502232	0.475681
	O315	O	0.946811	0.039077	0.983686
	H316	H	0.945420	0.045006	0.968016
	H317	H	0.951460	0.033428	0.979911
	O318	O	-0.020345	-0.048677	0.009356
	H319	H	-0.012182	-0.049333	0.007217
	H320	H	-0.039906	-0.046401	0.008685
	O321	O	0.465037	0.521799	0.522993
	H322	H	0.452039	0.520183	0.527152
	H323	H	0.461908	0.506304	0.513297
	O324	O	0.973910	-0.063858	0.029875
	H325	H	0.968012	-0.069136	0.038969
	H326	H	0.981620	-0.061162	0.039315
	O327	O	0.935154	0.976737	-0.041961
	H328	H	0.938638	0.967319	-0.049192
	H329	H	0.937076	0.976608	-0.036654
	O330	O	0.501559	0.463534	0.524240
	H331	H	0.500111	0.464047	0.517933
	H332	H	0.496710	0.459845	0.519386
	O333	O	0.487822	0.487740	0.478826
	H334	H	0.484283	0.485931	0.472556
	H335	H	0.493103	0.486288	0.479473
