data_Molecule from HDF5

_cell_length_a		16.018040
_cell_length_b		16.306721
_cell_length_c		16.262748
_cell_angle_alpha	90.151836
_cell_angle_beta	89.906889
_cell_angle_gamma	89.499456
_symmetry_space_group_name_H-M	'P 1'
_symmetry_Int_Tables_number		1

loop_
	_symmetry_equiv_pos_as_xyz
	x,y,z

loop_
	_atom_site_label
	_atom_site_type_symbol
	_atom_site_fract_x
	_atom_site_fract_y
	_atom_site_fract_z
	H0	H	0.387168	0.836382	0.710348
	H1	H	0.588388	0.160650	0.711722
	H2	H	0.589662	0.836206	0.274623
	H3	H	0.381734	0.161281	0.276096
	H4	H	0.700557	0.400253	0.827046
	H5	H	0.700470	0.595632	0.155778
	H6	H	0.273091	0.597761	0.826772
	H7	H	0.273618	0.403929	0.154857
	H8	H	0.823353	0.716768	0.388571
	H9	H	0.153207	0.711749	0.591617
	H10	H	0.820967	0.288805	0.590216
	H11	H	0.152728	0.282060	0.391161
	H12	H	0.822089	0.400012	0.705064
	H13	H	0.152408	0.597272	0.706324
	H14	H	0.821484	0.596506	0.278611
	H15	H	0.153265	0.395981	0.275894
	H16	H	0.383011	0.719242	0.829515
	H17	H	0.588551	0.715819	0.155134
	H18	H	0.590829	0.279966	0.829473
	H19	H	0.383094	0.283699	0.153107
	H20	H	0.702786	0.835921	0.394282
	H21	H	0.696551	0.163935	0.590205
	H22	H	0.275049	0.834931	0.590784
	H23	H	0.273869	0.164085	0.399301
	H24	H	0.888412	0.335124	0.206195
	H25	H	0.090154	0.660563	0.210053
	H26	H	0.090493	0.335585	0.773177
	H27	H	0.883265	0.660874	0.773516
	H28	H	0.201899	0.901810	0.328694
	H29	H	0.196455	0.095183	0.657515
	H30	H	0.772271	0.096397	0.327704
	H31	H	0.774757	0.905725	0.658295
	H32	H	0.322368	0.216138	0.892192
	H33	H	0.652006	0.211863	0.092701
	H34	H	0.321470	0.786910	0.092797
	H35	H	0.651925	0.781873	0.890945
	H36	H	0.320814	0.901037	0.205486
	H37	H	0.652009	0.096939	0.206024
	H38	H	0.321443	0.100589	0.779926
	H39	H	0.652884	0.899055	0.779999
	H40	H	0.886142	0.214469	0.328358
	H41	H	0.086425	0.215614	0.654777
	H42	H	0.090886	0.782135	0.329221
	H43	H	0.884135	0.781603	0.654995
	H44	H	0.204102	0.335368	0.892082
	H45	H	0.197360	0.663360	0.087487
	H46	H	0.775916	0.333514	0.086757
	H47	H	0.771588	0.662201	0.893730
	H48	H	0.389878	0.117138	0.588750
	H49	H	0.572537	0.882894	0.596001
	H50	H	0.582993	0.116897	0.400289
	H51	H	0.390376	0.879410	0.393525
	H52	H	0.574213	0.402081	0.108033
	H53	H	0.578060	0.584681	0.876949
	H54	H	0.391301	0.594843	0.108466
	H55	H	0.399163	0.400359	0.873328
	H56	H	0.105509	0.588162	0.400799
	H57	H	0.868497	0.590349	0.583652
	H58	H	0.108084	0.406822	0.591012
	H59	H	0.868664	0.413798	0.391368
	H60	H	0.109427	0.396492	0.578443
	H61	H	0.868869	0.594400	0.581139
	H62	H	0.106971	0.589030	0.398037
	H63	H	0.865015	0.398726	0.397142
	H64	H	0.394214	0.592642	0.107234
	H65	H	0.570890	0.595317	0.876322
	H66	H	0.585759	0.400891	0.111450
	H67	H	0.392581	0.408709	0.872753
	H68	H	0.576184	0.117390	0.392426
	H69	H	0.574913	0.886884	0.575515
	H70	H	0.395110	0.115273	0.590058
	H71	H	0.403719	0.884118	0.395248
	H72	H	0.898674	0.615757	0.095051
	H73	H	0.083145	0.380146	0.087273
	H74	H	0.078331	0.613730	0.899140
	H75	H	0.895300	0.381007	0.893130
	H76	H	0.079496	0.906360	0.609604
	H77	H	0.081291	0.097625	0.373193
	H78	H	0.901865	0.104291	0.608588
	H79	H	0.894368	0.907396	0.375763
	H80	H	0.604963	0.090426	0.903625
	H81	H	0.367522	0.102942	0.073149
	H82	H	0.606072	0.906752	0.083905
	H83	H	0.373683	0.912245	0.911946
	H84	H	0.605791	0.906212	0.084208
	H85	H	0.373022	0.080708	0.082156
	H86	H	0.605402	0.086858	0.901143
	H87	H	0.367665	0.917604	0.892330
	H88	H	0.881347	0.100600	0.613641
	H89	H	0.083129	0.087319	0.375034
	H90	H	0.077666	0.903267	0.609412
	H91	H	0.897716	0.908770	0.377240
	H92	H	0.079154	0.616919	0.894145
	H93	H	0.075287	0.383842	0.085628
	H94	H	0.899000	0.610961	0.076240
	H95	H	0.898238	0.382953	0.895883
	H96	H	0.393027	0.115595	0.585476
	H97	H	0.590356	0.878118	0.587403
	H98	H	0.573176	0.114043	0.401938
	H99	H	0.393780	0.883631	0.406144
	H100	H	0.581174	0.411089	0.106906
	H101	H	0.582718	0.595552	0.872359
	H102	H	0.394922	0.596516	0.107858
	H103	H	0.401531	0.410426	0.876608
	H104	H	0.106328	0.590047	0.400206
	H105	H	0.869873	0.590245	0.579265
	H106	H	0.102281	0.412205	0.576714
	H107	H	0.872407	0.409613	0.406459
	H108	H	0.883348	0.617946	0.083899
	H109	H	0.081923	0.383449	0.078644
	H110	H	0.074269	0.614159	0.896211
	H111	H	0.893992	0.381135	0.898219
	H112	H	0.080517	0.903136	0.610284
	H113	H	0.074105	0.091412	0.376630
	H114	H	0.893751	0.084762	0.606021
	H115	H	0.897132	0.904892	0.376762
	H116	H	0.607212	0.091082	0.900118
	H117	H	0.361686	0.097673	0.097750
	H118	H	0.606016	0.906247	0.083870
	H119	H	0.363291	0.898216	0.899314
	C120	C	0.364561	0.007876	0.616496
	C121	C	0.607997	0.990475	0.615268
	C122	C	0.608179	0.008047	0.369682
	C123	C	0.365098	0.990358	0.371006
	C124	C	0.609581	0.376002	0.000501
	C125	C	0.607546	0.620557	0.983273
	C126	C	0.364018	0.622890	-0.000121
	C127	C	0.366742	0.378418	0.982205
	C128	C	-0.002876	0.619613	0.369896
	C129	C	0.978531	0.619830	0.611734
	C130	C	-0.003559	0.377648	0.611504
	C131	C	0.978506	0.377276	0.369436
	C132	C	0.865575	0.506589	0.112970
	C133	C	0.108848	0.490338	0.112808
	C134	C	0.108644	0.506964	0.867694
	C135	C	0.865377	0.489673	0.867920
	C136	C	0.109520	0.876324	0.501464
	C137	C	0.107947	0.120754	0.483224
	C138	C	0.863368	0.123449	0.500959
	C139	C	0.865846	0.878094	0.484453
	C140	C	0.496407	0.120104	0.872168
	C141	C	0.476984	0.121644	0.113822
	C142	C	0.496018	0.878510	0.112970
	C143	C	0.477748	0.878454	0.871644
	C144	C	0.367084	0.885033	0.671947
	C145	C	0.607286	0.112546	0.672334
	C146	C	0.608454	0.885021	0.313493
	C147	C	0.364035	0.113057	0.315409
	C148	C	0.664229	0.378818	0.876626
	C149	C	0.663334	0.617018	0.106630
	C150	C	0.309429	0.619717	0.876372
	C151	C	0.310682	0.382339	0.105625
	C152	C	0.872627	0.677577	0.369707
	C153	C	0.103418	0.674421	0.611196
	C154	C	0.870937	0.324920	0.609947
	C155	C	0.103188	0.320143	0.371220
	C156	C	0.871458	0.380337	0.667150
	C157	C	0.103066	0.617328	0.667957
	C158	C	0.871665	0.617795	0.315060
	C159	C	0.103612	0.377112	0.314161
	C160	C	0.364361	0.679772	0.877742
	C161	C	0.607602	0.676965	0.106265
	C162	C	0.609853	0.318726	0.878016
	C163	C	0.365109	0.322522	0.104790
	C164	C	0.665165	0.884962	0.372707
	C165	C	0.661218	0.114161	0.611929
	C166	C	0.311126	0.884352	0.612537
	C167	C	0.310249	0.114361	0.376622
	C168	C	0.868212	0.383695	0.168002
	C169	C	0.108114	0.612483	0.170114
	C170	C	0.109645	0.384293	0.811960
	C171	C	0.864984	0.612441	0.812251
	C172	C	0.165089	0.880144	0.377889
	C173	C	0.160646	0.116794	0.607874
	C174	C	0.809129	0.118462	0.377007
	C175	C	0.811043	0.882740	0.608385
	C176	C	0.371588	0.177246	0.873068
	C177	C	0.602109	0.175138	0.112318
	C178	C	0.371084	0.824311	0.111920
	C179	C	0.602482	0.820816	0.872258
	C180	C	0.370897	0.880798	0.168318
	C181	C	0.602150	0.117686	0.168851
	C182	C	0.371243	0.119987	0.816980
	C183	C	0.603130	0.879097	0.816964
	C184	C	0.865737	0.177110	0.377411
	C185	C	0.105691	0.176522	0.606519
	C186	C	0.109554	0.820861	0.378117
	C187	C	0.865664	0.821345	0.606791
	C188	C	0.166149	0.384267	0.871097
	C189	C	0.161624	0.613908	0.108939
	C190	C	0.812453	0.382890	0.108517
	C191	C	0.808930	0.612957	0.871707
	C192	C	0.386332	0.093647	0.594659
	C193	C	0.585995	0.904721	0.592902
	C194	C	0.584287	0.093875	0.391651
	C195	C	0.388854	0.904628	0.391990
	C196	C	0.586847	0.397969	0.086391
	C197	C	0.584251	0.598431	0.897449
	C198	C	0.386658	0.600874	0.085645
	C199	C	0.390642	0.400178	0.896543
	C200	C	0.083834	0.596140	0.392919
	C201	C	0.891499	0.598144	0.588306
	C202	C	0.083962	0.398989	0.588771
	C203	C	0.891353	0.400514	0.391857
	C204	C	0.887288	0.592527	0.091346
	C205	C	0.086620	0.404670	0.090544
	C206	C	0.084256	0.592734	0.889903
	C207	C	0.888892	0.403981	0.889451
	C208	C	0.086133	0.897844	0.587468
	C209	C	0.086165	0.098573	0.397195
	C210	C	0.885627	0.102649	0.587184
	C211	C	0.889482	0.900301	0.398836
	C212	C	0.583187	0.096462	0.894960
	C213	C	0.389932	0.100110	0.091002
	C214	C	0.583398	0.899979	0.090497
	C215	C	0.390845	0.902346	0.894503
	Zn216	Zn	0.487111	-0.000630	0.744827
	Zn217	Zn	0.486000	-0.001003	0.240478
	Zn218	Zn	0.736797	0.497896	-0.008974
	Zn219	Zn	0.237056	0.499590	-0.009624
	Zn220	Zn	-0.012104	0.747609	0.491596
	Zn221	Zn	-0.013012	0.250486	0.491889
	Zn222	Zn	-0.012881	0.498145	0.738226
	Zn223	Zn	-0.012147	0.498488	0.242142
	Zn224	Zn	0.486393	0.751092	-0.007613
	Zn225	Zn	0.487239	0.248562	-0.008006
	Zn226	Zn	0.735943	0.000321	0.493222
	Zn227	Zn	0.236675	-0.000522	0.493676
	N228	N	0.399495	0.962960	0.674631
	N229	N	0.574706	0.034831	0.674412
	N230	N	0.573784	0.962696	0.311456
	N231	N	0.397585	0.035089	0.311716
	N232	N	0.664591	0.413564	0.953777
	N233	N	0.663420	0.582708	0.029137
	N234	N	0.308906	0.585082	0.953385
	N235	N	0.311179	0.416311	0.028294
	N236	N	0.951606	0.679050	0.403052
	N237	N	0.024887	0.676084	0.577023
	N238	N	0.949822	0.322939	0.576206
	N239	N	0.024282	0.319974	0.404930
	N240	N	0.950692	0.412227	0.668345
	N241	N	0.024190	0.584260	0.668492
	N242	N	0.949899	0.582537	0.315083
	N243	N	0.025184	0.412018	0.312930
	N244	N	0.397779	0.681676	0.955524
	N245	N	0.573636	0.679326	0.028664
	N246	N	0.576467	0.316977	0.955989
	N247	N	0.399319	0.319924	0.027057
	N248	N	0.665015	0.962203	0.406991
	N249	N	0.661756	0.037165	0.577032
	N250	N	0.309227	0.961652	0.578943
	N251	N	0.310690	0.037124	0.410423
	N252	N	0.900609	0.461621	0.170865
	N253	N	0.075993	0.534483	0.172662
	N254	N	0.074656	0.461614	0.809813
	N255	N	0.899159	0.534751	0.809499
	N256	N	0.165286	0.913776	0.455689
	N257	N	0.162157	0.082644	0.530425
	N258	N	0.807582	0.085837	0.454884
	N259	N	0.810883	0.917146	0.531217
	N260	N	0.450252	0.177544	0.906765
	N261	N	0.523101	0.177975	0.078927
	N262	N	0.450033	0.822413	0.078302
	N263	N	0.523488	0.820023	0.905279
	N264	N	0.449549	0.913691	0.169346
	N265	N	0.523301	0.085223	0.170059
	N266	N	0.449786	0.084875	0.816420
	N267	N	0.524537	0.914094	0.816249
	N268	N	0.898921	0.180141	0.455264
	N269	N	0.073603	0.179262	0.528061
	N270	N	0.075783	0.818172	0.455939
	N271	N	0.899076	0.818263	0.528762
	N272	N	0.165608	0.461734	0.905003
	N273	N	0.162282	0.536959	0.074052
	N274	N	0.810754	0.460260	0.074973
	N275	N	0.809139	0.535775	0.905598
	O276	O	0.403271	0.350248	0.523039
	H277	H	0.399619	0.349686	0.509000
	H278	H	0.395962	0.364156	0.536974
	O279	O	0.593028	0.576913	0.616952
	H280	H	0.593990	0.597867	0.629787
	H281	H	0.582453	0.577631	0.623331
	O282	O	0.954389	0.947266	0.000769
	H283	H	0.968245	0.942561	0.010323
	H284	H	0.952313	0.942651	-0.006679
	O285	O	1.049885	-0.026377	0.912535
	H286	H	1.059434	-0.032346	0.918515
	H287	H	1.050865	-0.028507	0.893466
	O288	O	0.506884	0.535162	0.611351
	H289	H	0.502551	0.535696	0.599113
	H290	H	0.515473	0.528213	0.615341
	O291	O	0.387370	0.415086	0.436305
	H292	H	0.397428	0.407465	0.439043
	H293	H	0.371437	0.412424	0.434387
	O294	O	0.389842	0.452867	0.492015
	H295	H	0.400264	0.455229	0.495136
	H296	H	0.379073	0.456197	0.495062
	O297	O	0.004241	-0.024498	0.976355
	H298	H	0.009292	-0.009977	0.977293
	H299	H	0.017329	-0.028764	0.970041
	O300	O	0.564072	0.612707	0.434331
	H301	H	0.576751	0.612424	0.437611
	H302	H	0.549421	0.615364	0.421430
	O303	O	0.914618	1.005765	-0.036300
	H304	H	0.904739	1.001229	-0.035838
	H305	H	0.915629	1.009211	-0.033982
	O306	O	0.003674	1.023590	0.978325
	H307	H	0.000391	1.024020	0.982280
	H308	H	-0.007009	1.024147	0.973050
	O309	O	0.483589	0.582515	0.390137
	H310	H	0.487543	0.589862	0.380067
	H311	H	0.469217	0.585809	0.393373
	O312	O	0.028329	0.022699	0.068027
	H313	H	0.037449	0.022049	0.071434
	H314	H	0.028162	0.028054	0.075652
	O315	O	0.887882	-0.004368	0.041868
	H316	H	0.883387	-0.009552	0.029175
	H317	H	0.879724	-0.011134	0.043530
	O318	O	1.021273	1.024818	1.012197
	H319	H	1.024898	1.032565	1.016599
	H320	H	1.016202	1.024051	1.008427
	O321	O	-0.043279	0.016629	1.004505
	H322	H	-0.056775	0.005615	0.997259
	H323	H	-0.041632	0.012243	1.000467
	O324	O	0.591438	0.426020	0.584770
	H325	H	0.600983	0.418154	0.575464
	H326	H	0.589555	0.434208	0.596921
	O327	O	-0.020040	-0.090389	0.100378
	H328	H	-0.030259	-0.096137	0.105271
	H329	H	-0.028498	-0.081462	0.100124
	O330	O	0.414504	0.571730	0.586197
	H331	H	0.418663	0.584133	0.591662
	H332	H	0.427679	0.565645	0.568908
	O333	O	0.414102	0.445384	1.470087
	H334	H	0.412392	0.437943	1.467318
	H335	H	0.397646	0.452340	1.466839
	O336	O	0.620915	-0.595596	0.481979
	H337	H	0.614625	-0.588986	0.494289
	H338	H	0.628899	-0.593065	0.462781
	O339	O	0.437497	0.610921	0.558277
	H340	H	0.436076	0.605868	0.552246
	H341	H	0.431089	0.617987	0.546897
	O342	O	0.984317	1.031694	0.942968
	H343	H	0.989759	1.038548	0.953906
	H344	H	0.995844	1.027094	0.931863
	O345	O	1.637353	1.309060	-0.567425
	H346	H	1.643644	1.300928	-0.577181
	H347	H	1.639157	1.302218	-0.570750
	O348	O	0.466993	0.650492	0.346073
	H349	H	0.462916	0.652331	0.346595
	H350	H	0.472272	0.651615	0.355446
	O351	O	0.954328	0.931699	0.925457
	H352	H	0.962039	0.927821	0.915298
	H353	H	0.963741	0.935325	0.923795
	O354	O	0.467199	0.383662	0.330184
	H355	H	0.487832	0.389513	0.330833
	H356	H	0.467996	0.381017	0.323218
	O357	O	0.971405	-0.055363	1.030370
	H358	H	0.969910	-0.053644	1.037416
	H359	H	0.961714	-0.053094	1.036369
	O360	O	1.018919	-0.106552	-0.031703
	H361	H	1.014472	-0.103879	-0.026882
	H362	H	1.031886	-0.097015	-0.028719
	O363	O	0.472927	0.656494	0.503713
	H364	H	0.468710	0.665721	0.507741
	H365	H	0.485088	0.660671	0.494565
	O366	O	1.039031	1.003282	0.945134
	H367	H	1.045935	0.998791	0.943165
	H368	H	1.039364	1.005906	0.948623
	O369	O	0.425984	0.469586	1.617906
	H370	H	0.411570	0.467988	1.625068
	H371	H	0.428188	0.483424	1.627055
	O372	O	0.061502	-0.013340	0.033841
	H373	H	0.058250	-0.013581	0.038170
	H374	H	0.048943	-0.009319	0.043981
	O375	O	1.429226	0.606856	0.525331
	H376	H	1.432673	0.596840	0.515996
	H377	H	1.432773	0.599910	0.546356
	O378	O	0.461367	0.496194	0.457143
	H379	H	0.468906	0.502486	0.461479
	H380	H	0.448746	0.485020	0.447825
	O381	O	0.583223	0.510929	0.355142
	H382	H	0.576782	0.517153	0.358368
	H383	H	0.587434	0.495746	0.365614
