data_Molecule from HDF5

_cell_length_a		16.669713
_cell_length_b		16.558974
_cell_length_c		16.652362
_cell_angle_alpha	90.020429
_cell_angle_beta	89.994337
_cell_angle_gamma	89.927401
_symmetry_space_group_name_H-M	'P 1'
_symmetry_Int_Tables_number		1

loop_
	_symmetry_equiv_pos_as_xyz
	x,y,z

loop_
	_atom_site_label
	_atom_site_type_symbol
	_atom_site_fract_x
	_atom_site_fract_y
	_atom_site_fract_z
	H0	H	0.394715	0.826896	0.742083
	H1	H	0.603024	0.137839	0.736208
	H2	H	0.611989	0.826855	0.292616
	H3	H	0.394699	0.134826	0.295524
	H4	H	0.726381	0.370503	0.864716
	H5	H	0.726965	0.587197	0.170958
	H6	H	0.274660	0.592433	0.867155
	H7	H	0.279839	0.374045	0.172682
	H8	H	0.847348	0.702483	0.412024
	H9	H	0.154099	0.706213	0.627337
	H10	H	0.848710	0.257105	0.625225
	H11	H	0.157995	0.261067	0.415664
	H12	H	0.849803	0.370865	0.743983
	H13	H	0.153164	0.591405	0.745661
	H14	H	0.846765	0.584498	0.297338
	H15	H	0.156639	0.374291	0.296898
	H16	H	0.393429	0.705289	0.865491
	H17	H	0.612903	0.706734	0.170056
	H18	H	0.606778	0.257829	0.863917
	H19	H	0.397694	0.260673	0.174680
	H20	H	0.726802	0.825506	0.409933
	H21	H	0.717868	0.138124	0.618797
	H22	H	0.279709	0.825848	0.625764
	H23	H	0.276611	0.133560	0.409783
	H24	H	0.898867	0.323410	0.237892
	H25	H	0.108283	0.635327	0.240943
	H26	H	0.108130	0.324613	0.796347
	H27	H	0.894296	0.633443	0.794628
	H28	H	0.224239	0.873615	0.364439
	H29	H	0.223179	0.085941	0.672402
	H30	H	0.781211	0.084218	0.362170
	H31	H	0.783017	0.877078	0.675061
	H32	H	0.345128	0.197250	0.919164
	H33	H	0.655716	0.203931	0.127442
	H34	H	0.349142	0.754711	0.127279
	H35	H	0.655957	0.757401	0.912086
	H36	H	0.347966	0.872742	0.241438
	H37	H	0.656108	0.085616	0.241938
	H38	H	0.347088	0.084709	0.799282
	H39	H	0.656311	0.873967	0.795979
	H40	H	0.899296	0.198131	0.360831
	H41	H	0.105786	0.201185	0.672554
	H42	H	0.105394	0.761127	0.362154
	H43	H	0.897186	0.758463	0.673339
	H44	H	0.225035	0.325333	0.911775
	H45	H	0.223926	0.634895	0.124640
	H46	H	0.782491	0.323907	0.122408
	H47	H	0.779007	0.633516	0.910755
	H48	H	0.411696	0.093054	0.608637
	H49	H	0.590080	0.866814	0.610492
	H50	H	0.589286	0.088905	0.436204
	H51	H	0.412194	0.869384	0.433574
	H52	H	0.590563	0.396222	0.128254
	H53	H	0.591261	0.570097	0.905739
	H54	H	0.420693	0.571018	0.128304
	H55	H	0.413315	0.384999	0.905760
	H56	H	0.115553	0.571262	0.425410
	H57	H	0.889840	0.567958	0.610200
	H58	H	0.114780	0.393953	0.614214
	H59	H	0.888475	0.388249	0.424218
	H60	H	0.114204	0.384504	0.604460
	H61	H	0.892514	0.569810	0.600116
	H62	H	0.112779	0.571912	0.432861
	H63	H	0.889619	0.387317	0.429596
	H64	H	0.408161	0.567707	0.130916
	H65	H	0.592560	0.563195	0.908579
	H66	H	0.589570	0.387987	0.129874
	H67	H	0.407397	0.393174	0.905991
	H68	H	0.593962	0.092862	0.429143
	H69	H	0.592771	0.867611	0.606688
	H70	H	0.414554	0.092523	0.607284
	H71	H	0.414288	0.868439	0.427488
	H72	H	0.911550	0.592598	0.106194
	H73	H	0.093404	0.368582	0.105404
	H74	H	0.080647	0.589276	0.926735
	H75	H	0.920066	0.368319	0.928390
	H76	H	0.092884	0.898232	0.629042
	H77	H	0.084675	0.074641	0.406135
	H78	H	0.909153	0.070385	0.629932
	H79	H	0.911495	0.895198	0.408558
	H80	H	0.615711	0.071542	0.929189
	H81	H	0.386667	0.070798	0.120158
	H82	H	0.610183	0.901624	0.109620
	H83	H	0.393071	0.899677	0.928975
	H84	H	0.615530	0.886858	0.110322
	H85	H	0.390212	0.078922	0.100532
	H86	H	0.613447	0.069230	0.930504
	H87	H	0.387909	0.888485	0.926491
	H88	H	0.910390	0.070921	0.630773
	H89	H	0.098287	0.070092	0.403011
	H90	H	0.083995	0.893830	0.626793
	H91	H	0.915853	0.890458	0.407562
	H92	H	0.087185	0.586965	0.940683
	H93	H	0.093255	0.365900	0.110609
	H94	H	0.913875	0.592733	0.109855
	H95	H	0.915130	0.369976	0.935947
	H96	H	0.412038	0.092548	0.605559
	H97	H	0.594573	0.866358	0.610624
	H98	H	0.585143	0.090188	0.427648
	H99	H	0.417978	0.870830	0.431623
	H100	H	0.597093	0.391692	0.131601
	H101	H	0.586168	0.566720	0.910044
	H102	H	0.415965	0.559092	0.125375
	H103	H	0.416299	0.393116	0.909734
	H104	H	0.112082	0.564818	0.429073
	H105	H	0.895418	0.560609	0.604470
	H106	H	0.109515	0.396453	0.601979
	H107	H	0.890310	0.393114	0.427237
	H108	H	0.915761	0.591466	0.106346
	H109	H	0.088601	0.368528	0.108341
	H110	H	0.095417	0.594102	0.929719
	H111	H	0.910957	0.366112	0.928985
	H112	H	0.091323	0.888558	0.631659
	H113	H	0.088580	0.060757	0.409428
	H114	H	0.909474	0.071401	0.630792
	H115	H	0.909657	0.889674	0.405587
	H116	H	0.614303	0.068938	0.927067
	H117	H	0.395894	0.058226	0.104831
	H118	H	0.610151	0.892324	0.096547
	H119	H	0.392471	0.890306	0.937869
	C120	C	0.380688	-0.010349	0.639571
	C121	C	0.622451	0.971469	0.639491
	C122	C	0.623050	-0.011858	0.397480
	C123	C	0.381058	0.971539	0.397658
	C124	C	0.624426	0.358455	0.027361
	C125	C	0.623980	0.600625	1.009514
	C126	C	0.380984	0.601011	0.027056
	C127	C	0.380425	0.358836	1.009826
	C128	C	0.010495	0.601263	0.396846
	C129	C	0.993517	0.601179	0.639501
	C130	C	0.010908	0.358337	0.639896
	C131	C	0.992775	0.358465	0.396315
	C132	C	0.881802	0.488485	0.138975
	C133	C	0.123341	0.471085	0.140103
	C134	C	0.122512	0.488242	0.897961
	C135	C	0.881447	0.470161	0.897294
	C136	C	0.122561	0.859574	0.526952
	C137	C	0.122703	0.101054	0.508888
	C138	C	0.879204	0.102176	0.526958
	C139	C	0.880261	0.859239	0.509915
	C140	C	0.510876	0.101211	0.898600
	C141	C	0.493079	0.102117	0.141262
	C142	C	0.510783	0.858835	0.139899
	C143	C	0.493043	0.859194	0.897084
	C144	C	0.377520	0.873241	0.700866
	C145	C	0.622382	0.090380	0.697060
	C146	C	0.628334	0.872412	0.334667
	C147	C	0.376872	0.088090	0.336097
	C148	C	0.685314	0.353690	0.910996
	C149	C	0.686350	0.605291	0.124851
	C150	C	0.317116	0.608147	0.912654
	C151	C	0.320236	0.356314	0.126482
	C152	C	0.893784	0.661740	0.394236
	C153	C	0.108251	0.664987	0.644915
	C154	C	0.894938	0.297243	0.643358
	C155	C	0.110643	0.299849	0.396037
	C156	C	0.895717	0.353896	0.702221
	C157	C	0.107651	0.607927	0.703490
	C158	C	0.893740	0.603392	0.336830
	C159	C	0.110150	0.356425	0.337315
	C160	C	0.375979	0.664672	0.912039
	C161	C	0.629488	0.664356	0.124516
	C162	C	0.625821	0.297692	0.910606
	C163	C	0.379004	0.299945	0.127326
	C164	C	0.685560	0.872048	0.392746
	C165	C	0.679204	0.090735	0.638711
	C166	C	0.320033	0.872894	0.643072
	C167	C	0.318294	0.087489	0.392906
	C168	C	0.880310	0.370537	0.198076
	C169	C	0.126136	0.588239	0.200757
	C170	C	0.126348	0.371619	0.836460
	C171	C	0.877053	0.587107	0.835766
	C172	C	0.183579	0.856021	0.410719
	C173	C	0.182904	0.104043	0.625867
	C174	C	0.821034	0.102998	0.408967
	C175	C	0.821554	0.857612	0.627581
	C176	C	0.392621	0.158838	0.899118
	C177	C	0.609457	0.163123	0.144967
	C178	C	0.395317	0.796028	0.144502
	C179	C	0.609414	0.797896	0.893767
	C180	C	0.394771	0.854488	0.201511
	C181	C	0.609588	0.104757	0.202105
	C182	C	0.393503	0.102867	0.839606
	C183	C	0.609558	0.855787	0.836096
	C184	C	0.879630	0.159801	0.408383
	C185	C	0.124593	0.161253	0.625866
	C186	C	0.124229	0.800161	0.409672
	C187	C	0.878392	0.798763	0.626782
	C188	C	0.184356	0.371910	0.893820
	C189	C	0.183548	0.588388	0.142969
	C190	C	0.822656	0.370654	0.140572
	C191	C	0.819720	0.587043	0.893286
	C192	C	0.405719	0.071611	0.614146
	C193	C	0.599229	0.888486	0.615932
	C194	C	0.596834	0.069512	0.423654
	C195	C	0.407457	0.890429	0.423650
	C196	C	0.599502	0.384492	0.108693
	C197	C	0.597477	0.574156	0.928993
	C198	C	0.407467	0.573660	0.107199
	C199	C	0.405170	0.383706	0.928257
	C200	C	0.092246	0.576346	0.422001
	C201	C	0.913542	0.573809	0.612450
	C202	C	0.091772	0.384367	0.613957
	C203	C	0.910849	0.382724	0.420122
	C204	C	0.906442	0.570865	0.114550
	C205	C	0.098829	0.389144	0.115164
	C206	C	0.095428	0.569095	0.924831
	C207	C	0.907804	0.389095	0.923426
	C208	C	0.096718	0.885753	0.608071
	C209	C	0.097826	0.075653	0.427542
	C210	C	0.902813	0.078032	0.608895
	C211	C	0.905104	0.884493	0.428374
	C212	C	0.592982	0.076882	0.922123
	C213	C	0.412067	0.076630	0.115684
	C214	C	0.590918	0.885875	0.113148
	C215	C	0.412132	0.885394	0.923270
	Zn216	Zn	0.501800	-0.019163	0.768562
	Zn217	Zn	0.501941	-0.020375	0.268763
	Zn218	Zn	0.753523	0.479272	0.017929
	Zn219	Zn	0.251836	0.480253	0.018775
	Zn220	Zn	0.001768	0.730340	0.518139
	Zn221	Zn	0.001414	0.229646	0.517294
	Zn222	Zn	0.001906	0.479948	0.768806
	Zn223	Zn	0.001940	0.479557	0.268047
	Zn224	Zn	0.502477	0.730014	0.018024
	Zn225	Zn	0.502474	0.230664	0.019348
	Zn226	Zn	0.751283	-0.019810	0.518533
	Zn227	Zn	0.251779	-0.019711	0.518496
	N228	N	0.414595	0.947043	0.698912
	N229	N	0.588048	0.015179	0.697917
	N230	N	0.589742	0.945563	0.337662
	N231	N	0.415291	0.014861	0.338762
	N232	N	0.684536	0.390808	0.984710
	N233	N	0.683094	0.566459	0.052261
	N234	N	0.319971	0.569178	0.985328
	N235	N	0.320671	0.392072	0.052111
	N236	N	0.967651	0.660797	0.430674
	N237	N	0.036236	0.660880	0.605537
	N238	N	0.967867	0.299629	0.605223
	N239	N	0.036535	0.300893	0.431993
	N240	N	0.968983	0.391005	0.700277
	N241	N	0.035376	0.568655	0.700091
	N242	N	0.967571	0.566701	0.338107
	N243	N	0.035837	0.391941	0.337017
	N244	N	0.415147	0.660318	0.984231
	N245	N	0.591077	0.661537	0.051737
	N246	N	0.589011	0.300135	0.984289
	N247	N	0.415810	0.301209	0.053772
	N248	N	0.682222	0.945169	0.431295
	N249	N	0.680011	0.015414	0.604090
	N250	N	0.321935	0.946491	0.605382
	N251	N	0.320728	0.014021	0.430603
	N252	N	0.916353	0.444884	0.197283
	N253	N	0.089646	0.514193	0.199352
	N254	N	0.088812	0.445346	0.838672
	N255	N	0.914811	0.513434	0.838175
	N256	N	0.182925	0.892051	0.484923
	N257	N	0.182207	0.067541	0.551960
	N258	N	0.820364	0.068022	0.483679
	N259	N	0.822179	0.894156	0.553647
	N260	N	0.466678	0.158199	0.935022
	N261	N	0.535798	0.161964	0.108151
	N262	N	0.468639	0.798181	0.107010
	N263	N	0.535858	0.799694	0.930874
	N264	N	0.467720	0.892604	0.198994
	N265	N	0.535948	0.067823	0.200250
	N266	N	0.468073	0.067882	0.838898
	N267	N	0.535866	0.892912	0.837772
	N268	N	0.914853	0.159809	0.482948
	N269	N	0.088091	0.159718	0.552130
	N270	N	0.086994	0.802048	0.483018
	N271	N	0.914062	0.799565	0.552529
	N272	N	0.182260	0.445710	0.931257
	N273	N	0.182194	0.514345	0.105868
	N274	N	0.823551	0.445132	0.104414
	N275	N	0.822182	0.513274	0.930750
	O276	O	0.119770	1.173770	-0.069419
	H277	H	0.126730	1.154080	-0.066504
	H278	H	0.115072	1.190490	-0.063997
	O279	O	0.298157	0.607017	0.328337
	H280	H	0.300117	0.579216	0.339503
	H281	H	0.312556	0.603709	0.344246
	O282	O	0.769108	0.023315	1.058955
	H283	H	0.769446	0.037283	1.035046
	H284	H	0.769526	0.038558	1.062349
	O285	O	0.462480	0.548461	0.744305
	H286	H	0.460761	0.541385	0.740281
	H287	H	0.460009	0.535192	0.745148
	O288	O	1.025640	0.977936	0.024102
	H289	H	1.017886	0.973564	0.018835
	H290	H	1.024872	0.980241	0.030281
	O291	O	0.372228	0.305076	0.542303
	H292	H	0.391194	0.309130	0.520380
	H293	H	0.379335	0.295469	0.563626
	O294	O	1.405933	0.318136	0.536820
	H295	H	1.398862	0.308586	0.524243
	H296	H	1.414511	0.324351	0.523428
	O297	O	0.735109	0.530077	0.492150
	H298	H	0.728086	0.546421	0.476834
	H299	H	0.728021	0.543530	0.487124
	O300	O	0.216224	0.013549	1.220963
	H301	H	0.228624	0.001000	1.227673
	H302	H	0.209605	0.004736	1.217403
	O303	O	0.533378	0.554056	0.284861
	H304	H	0.537298	0.550345	0.282871
	H305	H	0.524615	0.543604	0.292827
	O306	O	0.925689	1.007810	0.220024
	H307	H	0.927112	1.002415	0.211912
	H308	H	0.926784	1.031835	0.220695
	O309	O	0.526122	0.702497	0.736261
	H310	H	0.526089	0.687716	0.743537
	H311	H	0.530993	0.717471	0.752846
	O312	O	0.550609	0.546987	0.560112
	H313	H	0.553578	0.565378	0.551677
	H314	H	0.543967	0.536438	0.548037
	O315	O	1.017273	0.791514	0.810400
	H316	H	1.018126	0.797174	0.815977
	H317	H	1.010356	0.784575	0.800582
	O318	O	0.514908	1.260464	0.494666
	H319	H	0.513450	1.267624	0.493709
	H320	H	0.522149	1.266644	0.488392
	O321	O	-0.210626	1.183941	0.806689
	H322	H	-0.239107	1.220135	0.774891
	H323	H	-0.166230	1.192259	0.811209
	O324	O	1.154527	1.021915	0.072516
	H325	H	1.151489	1.019803	0.072217
	H326	H	1.137603	1.020680	0.069496
	O327	O	-0.014039	0.155729	1.085150
	H328	H	-0.023616	0.161351	1.089650
	H329	H	-0.022672	0.158664	1.074698
	O330	O	0.460811	0.408727	0.293911
	H331	H	0.456217	0.392157	0.286645
	H332	H	0.434856	0.410026	0.301113
	O333	O	0.730004	0.437859	0.634071
	H334	H	0.726639	0.458406	0.639977
	H335	H	0.731658	0.462395	0.641578
	O336	O	0.727610	0.700666	0.551129
	H337	H	0.729949	0.699218	0.559777
	H338	H	0.747921	0.724451	0.542918
	O339	O	1.100108	-0.141354	0.935845
	H340	H	1.120462	-0.150693	0.923960
	H341	H	1.096411	-0.157386	0.933414
	O342	O	-0.073189	-0.057736	-0.175283
	H343	H	-0.099206	-0.047995	-0.177865
	H344	H	-0.081209	-0.054123	-0.173201
	O345	O	-0.154381	1.164745	1.187922
	H346	H	-0.168496	1.165933	1.171993
	H347	H	-0.184944	1.181527	1.190160
	O348	O	0.169830	-0.226044	-0.046442
	H349	H	0.170531	-0.230027	-0.054975
	H350	H	0.187447	-0.226507	-0.050301
	O351	O	0.863699	0.764546	0.047461
	H352	H	0.868908	0.771214	0.055215
	H353	H	0.854768	0.752909	0.054819
	O354	O	0.208412	0.179500	1.066473
	H355	H	0.197724	0.176440	1.069892
	H356	H	0.226170	0.195097	1.079169
	O357	O	0.724092	0.265017	0.483917
	H358	H	0.754477	0.240749	0.485561
	H359	H	0.729333	0.295968	0.505215
	O360	O	0.583857	0.697648	0.477172
	H361	H	0.599796	0.704921	0.471397
	H362	H	0.574037	0.705140	0.465684
	O363	O	-0.227549	0.194193	0.001331
	H364	H	-0.249134	0.224004	-0.018687
	H365	H	-0.205168	0.195202	-0.026648
	O366	O	0.488063	0.400602	0.524594
	H367	H	0.476979	0.391839	0.526182
	H368	H	0.481780	0.397608	0.533727
	O369	O	0.772492	0.014336	-0.205943
	H370	H	0.758321	0.042402	-0.220666
	H371	H	0.762226	0.035723	-0.222094
	O372	O	0.983451	0.764026	0.192948
	H373	H	0.992459	0.743054	0.212997
	H374	H	0.985561	0.773089	0.188024
	O375	O	0.931568	-0.099132	0.126958
	H376	H	0.939694	-0.103446	0.135268
	H377	H	0.928984	-0.102189	0.130019
	O378	O	0.486431	0.549957	0.351966
	H379	H	0.482511	0.576270	0.346572
	H380	H	0.487203	0.537406	0.340175
	O381	O	-0.198223	0.849980	0.988045
	H382	H	-0.199658	0.845905	0.970123
	H383	H	-0.205031	0.849506	0.975395
	O384	O	0.795723	-0.223423	1.219882
	H385	H	0.836174	-0.217063	1.220988
	H386	H	0.793091	-0.192696	1.199259
	O387	O	1.220612	0.983859	-0.148479
	H388	H	1.224537	0.966647	-0.149423
	H389	H	1.234910	0.968679	-0.157964
	O390	O	0.560718	0.433872	0.749716
	H391	H	0.563081	0.432638	0.746790
	H392	H	0.565380	0.433834	0.746272
	O393	O	0.212422	0.181224	0.229702
	H394	H	0.173155	0.171854	0.227856
	H395	H	0.217624	0.152119	0.206543
	O396	O	0.376770	0.275178	0.724787
	H397	H	0.388197	0.282264	0.700557
	H398	H	0.363140	0.267780	0.751330
	O399	O	0.030985	-0.153818	1.163941
	H400	H	0.041888	-0.139730	1.164999
	H401	H	0.013749	-0.157937	1.159180
	O402	O	0.799624	-0.008504	0.214583
	H403	H	0.790398	0.016274	0.211778
	H404	H	0.793943	-0.006910	0.214185
	O405	O	1.281628	0.269639	0.626884
	H406	H	1.292095	0.262787	0.650062
	H407	H	1.275746	0.262464	0.595794
	O408	O	0.186164	-0.204066	0.207393
	H409	H	0.199698	-0.219532	0.213617
	H410	H	0.171972	-0.199988	0.181912
	O411	O	1.058780	0.803381	1.000930
	H412	H	1.065176	0.803398	1.006092
	H413	H	1.047854	0.810389	1.014978
	O414	O	0.290570	0.441217	0.478799
	H415	H	0.291670	0.434038	0.495251
	H416	H	0.287265	0.428322	0.483499
	O417	O	0.533234	0.258986	0.298167
	H418	H	0.534718	0.252691	0.284475
	H419	H	0.531978	0.245867	0.292474
	O420	O	0.690905	0.670556	0.326925
	H421	H	0.679266	0.668837	0.312852
	H422	H	0.702014	0.694637	0.313958
	O423	O	0.047188	-0.032746	1.062616
	H424	H	0.036823	-0.027001	1.056978
	H425	H	0.042039	-0.021728	1.068965
	O426	O	0.289503	0.529325	0.601520
	H427	H	0.289533	0.529126	0.616887
	H428	H	0.282230	0.526564	0.596399
	O429	O	0.877630	0.969943	0.957530
	H430	H	0.870659	0.976343	0.952828
	H431	H	0.870478	0.974965	0.958299
	O432	O	0.721234	0.444091	0.298517
	H433	H	0.742340	0.451416	0.276913
	H434	H	0.707983	0.436629	0.307541
	O435	O	0.214488	0.780062	-0.191671
	H436	H	0.174142	0.771210	-0.178574
	H437	H	0.241963	0.743281	-0.221638
	O438	O	-0.287738	0.273802	0.309278
	H439	H	-0.293547	0.293248	0.334185
	H440	H	-0.310703	0.279478	0.325910
	O441	O	0.048581	0.040679	-0.213240
	H442	H	0.054318	0.036657	-0.202281
	H443	H	0.064300	0.023925	-0.218421
	O444	O	0.236045	-0.076304	0.067185
	H445	H	0.230616	-0.083393	0.077187
	H446	H	0.234927	-0.065156	0.055172
	O447	O	-0.955112	2.196272	1.235473
	H448	H	-0.961506	2.223778	1.265509
	H449	H	-0.966113	2.185922	1.215483
	O450	O	-0.281499	0.694441	0.734027
	H451	H	-0.304843	0.696111	0.711450
	H452	H	-0.279049	0.697060	0.750356
	O453	O	0.484383	0.706507	0.293193
	H454	H	0.467528	0.732780	0.262247
	H455	H	0.483700	0.681859	0.286968
	O456	O	0.507034	0.263221	0.682331
	H457	H	0.490557	0.245266	0.682426
	H458	H	0.507016	0.266179	0.671898
	O459	O	1.160264	1.181523	-0.110640
	H460	H	1.158283	1.173675	-0.097507
	H461	H	1.161982	1.164955	-0.099192
	O462	O	0.278883	0.697996	0.416950
	H463	H	0.273252	0.708732	0.428583
	H464	H	0.260859	0.714495	0.398320
	O465	O	0.277585	-0.540419	0.745389
	H466	H	0.250065	-0.553123	0.770207
	H467	H	0.286761	-0.555219	0.738551
	O468	O	0.619442	0.423387	0.495039
	H469	H	0.615664	0.432350	0.484249
	H470	H	0.628609	0.445910	0.501871
	O471	O	0.307859	0.670072	0.712198
	H472	H	0.338400	0.651137	0.710153
	H473	H	0.314602	0.650730	0.682296
	O474	O	-0.022644	1.191380	-0.197113
	H475	H	-0.009362	1.171604	-0.213166
	H476	H	-0.021330	1.209033	-0.202059
	O477	O	0.442494	0.705730	1.586071
	H478	H	0.455019	0.702602	1.567208
	H479	H	0.454001	0.713011	1.598229
	O480	O	0.367840	0.684225	0.479829
	H481	H	0.359267	0.699022	0.466209
	H482	H	0.377878	0.671266	0.479012
	O483	O	0.311912	0.291110	0.326495
	H484	H	0.284845	0.256250	0.298503
	H485	H	0.323534	0.301540	0.346577
	O486	O	0.405814	0.478913	0.357233
	H487	H	0.390086	0.462740	0.357163
	H488	H	0.397330	0.474777	0.342192
	O489	O	1.413891	0.499318	0.562553
	H490	H	1.412025	0.507674	0.564882
	H491	H	1.404371	0.514430	0.554041
	O492	O	-0.060770	0.164963	-0.045726
	H493	H	-0.051800	0.152841	-0.054411
	H494	H	-0.042095	0.164932	-0.051885
	O495	O	-0.180402	0.789385	0.830937
	H496	H	-0.184595	0.787790	0.822614
	H497	H	-0.166821	0.797030	0.856337
	O498	O	0.698244	1.290750	0.709419
	H499	H	0.670130	1.305224	0.696942
	H500	H	0.688641	1.315718	0.687143
	O501	O	0.671001	0.530353	0.697758
	H502	H	0.663427	0.540825	0.699555
	H503	H	0.684585	0.539234	0.696347
