data_Molecule from HDF5

_cell_length_a		16.639599
_cell_length_b		16.591817
_cell_length_c		16.479694
_cell_angle_alpha	90.153494
_cell_angle_beta	90.073383
_cell_angle_gamma	89.915633
_symmetry_space_group_name_H-M	'P 1'
_symmetry_Int_Tables_number		1

loop_
	_symmetry_equiv_pos_as_xyz
	x,y,z

loop_
	_atom_site_label
	_atom_site_type_symbol
	_atom_site_fract_x
	_atom_site_fract_y
	_atom_site_fract_z
	H0	H	0.409536	0.834823	0.734668
	H1	H	0.617609	0.147739	0.734487
	H2	H	0.615907	0.833363	0.294491
	H3	H	0.409761	0.148143	0.294023
	H4	H	0.734906	0.385826	0.856924
	H5	H	0.735457	0.598297	0.169703
	H6	H	0.294436	0.593637	0.855876
	H7	H	0.293161	0.386118	0.170907
	H8	H	0.859073	0.713239	0.408947
	H9	H	0.168532	0.713799	0.622633
	H10	H	0.857001	0.271921	0.616370
	H11	H	0.168053	0.267589	0.406525
	H12	H	0.857175	0.388153	0.733282
	H13	H	0.169564	0.594220	0.735267
	H14	H	0.856727	0.594762	0.294038
	H15	H	0.168988	0.385676	0.291852
	H16	H	0.411551	0.708602	0.855406
	H17	H	0.620198	0.713889	0.169794
	H18	H	0.620834	0.267995	0.857705
	H19	H	0.410734	0.272137	0.171956
	H20	H	0.733213	0.834360	0.410448
	H21	H	0.733666	0.148783	0.617059
	H22	H	0.290729	0.836152	0.620825
	H23	H	0.290124	0.146083	0.406970
	H24	H	0.910834	0.334612	0.232435
	H25	H	0.117371	0.648833	0.234537
	H26	H	0.116892	0.333720	0.793620
	H27	H	0.910341	0.647844	0.793448
	H28	H	0.238383	0.880741	0.358540
	H29	H	0.234953	0.095592	0.670588
	H30	H	0.794997	0.094090	0.355737
	H31	H	0.794516	0.888148	0.671491
	H32	H	0.359210	0.214409	0.907228
	H33	H	0.670377	0.210676	0.117579
	H34	H	0.357120	0.769025	0.118537
	H35	H	0.669139	0.768981	0.908522
	H36	H	0.357324	0.887125	0.234458
	H37	H	0.670880	0.092984	0.232681
	H38	H	0.357796	0.094986	0.792571
	H39	H	0.670787	0.888230	0.794587
	H40	H	0.912700	0.208340	0.354701
	H41	H	0.117166	0.209452	0.671285
	H42	H	0.122186	0.765472	0.358866
	H43	H	0.910088	0.772144	0.671586
	H44	H	0.235073	0.334843	0.908711
	H45	H	0.234064	0.648807	0.118816
	H46	H	0.792955	0.336253	0.117246
	H47	H	0.791884	0.647398	0.907634
	H48	H	0.420515	0.103076	0.600365
	H49	H	0.606874	0.879057	0.600356
	H50	H	0.607260	0.106494	0.416705
	H51	H	0.432139	0.881042	0.420468
	H52	H	0.603108	0.402951	0.125991
	H53	H	0.599668	0.577089	0.902754
	H54	H	0.419784	0.580723	0.128434
	H55	H	0.424052	0.394719	0.898807
	H56	H	0.127838	0.577691	0.414876
	H57	H	0.902371	0.576243	0.606083
	H58	H	0.122514	0.403476	0.596306
	H59	H	0.900106	0.397160	0.420940
	H60	H	0.126187	0.404522	0.609947
	H61	H	0.900900	0.586277	0.602682
	H62	H	0.126613	0.588643	0.431304
	H63	H	0.902288	0.399421	0.427083
	H64	H	0.426092	0.577650	0.125627
	H65	H	0.600892	0.584059	0.900025
	H66	H	0.603935	0.404845	0.125783
	H67	H	0.419236	0.407671	0.901703
	H68	H	0.598235	0.101951	0.423254
	H69	H	0.607269	0.877983	0.605048
	H70	H	0.428203	0.102838	0.605100
	H71	H	0.425721	0.882810	0.431795
	H72	H	0.923906	0.603702	0.102487
	H73	H	0.102311	0.382006	0.098313
	H74	H	0.107032	0.604946	0.922677
	H75	H	0.919954	0.377250	0.922498
	H76	H	0.101550	0.903906	0.625410
	H77	H	0.098536	0.082948	0.400392
	H78	H	0.921368	0.084164	0.628660
	H79	H	0.927644	0.904418	0.403311
	H80	H	0.624698	0.080057	0.926716
	H81	H	0.402705	0.080092	0.103401
	H82	H	0.622539	0.907884	0.102285
	H83	H	0.398956	0.893863	0.923640
	H84	H	0.626107	0.898066	0.106233
	H85	H	0.400302	0.083628	0.105177
	H86	H	0.625948	0.080665	0.922842
	H87	H	0.405523	0.904652	0.930669
	H88	H	0.922206	0.080045	0.626983
	H89	H	0.107901	0.078476	0.399184
	H90	H	0.103039	0.902666	0.624769
	H91	H	0.925838	0.896271	0.399334
	H92	H	0.100429	0.602724	0.923211
	H93	H	0.109004	0.378784	0.101716
	H94	H	0.925331	0.604568	0.102647
	H95	H	0.928119	0.379727	0.921532
	H96	H	0.427896	0.099817	0.596366
	H97	H	0.603180	0.879537	0.603094
	H98	H	0.609137	0.103370	0.428607
	H99	H	0.420239	0.876492	0.422066
	H100	H	0.601968	0.403845	0.125070
	H101	H	0.606028	0.578894	0.899714
	H102	H	0.425801	0.585122	0.126897
	H103	H	0.432471	0.404244	0.904530
	H104	H	0.119838	0.570614	0.431125
	H105	H	0.904981	0.579166	0.596108
	H106	H	0.127819	0.392401	0.602883
	H107	H	0.902255	0.403594	0.421795
	H108	H	0.924842	0.603462	0.101454
	H109	H	0.101777	0.378842	0.105848
	H110	H	0.105051	0.602220	0.928579
	H111	H	0.924337	0.381388	0.929283
	H112	H	0.102674	0.904758	0.625798
	H113	H	0.100163	0.072959	0.403745
	H114	H	0.925130	0.083097	0.627204
	H115	H	0.919108	0.902712	0.400048
	H116	H	0.626671	0.083478	0.925581
	H117	H	0.401763	0.084191	0.100528
	H118	H	0.623014	0.899601	0.095473
	H119	H	0.401650	0.906683	0.916852
	C120	C	0.393441	-0.000734	0.633864
	C121	C	0.636004	0.983074	0.634408
	C122	C	0.635282	-0.000149	0.391779
	C123	C	0.392650	0.982920	0.392132
	C124	C	0.635182	0.370849	0.021963
	C125	C	0.634768	0.612864	1.004450
	C126	C	0.392939	0.611915	0.022282
	C127	C	0.393347	0.370283	1.005693
	C128	C	0.022304	0.612085	0.392885
	C129	C	1.005350	0.612229	0.634762
	C130	C	0.022162	0.369175	0.634796
	C131	C	1.004666	0.368481	0.390707
	C132	C	0.893127	0.500251	0.133707
	C133	C	0.135472	0.483540	0.134938
	C134	C	0.135307	0.499425	0.892616
	C135	C	0.892249	0.482595	0.892057
	C136	C	0.135709	0.869594	0.522381
	C137	C	0.134749	0.111000	0.504865
	C138	C	0.892668	0.112473	0.522363
	C139	C	0.892895	0.870303	0.505458
	C140	C	0.522712	0.113380	0.892319
	C141	C	0.505322	0.112941	0.134926
	C142	C	0.521292	0.869431	0.134205
	C143	C	0.505240	0.869839	0.891890
	C144	C	0.391039	0.881871	0.694664
	C145	C	0.636499	0.101263	0.694054
	C146	C	0.635240	0.880964	0.333700
	C147	C	0.390409	0.100648	0.332799
	C148	C	0.694931	0.367877	0.903938
	C149	C	0.695412	0.616162	0.122397
	C150	C	0.334196	0.612307	0.903146
	C151	C	0.333455	0.368281	0.123968
	C152	C	0.905427	0.672844	0.390403
	C153	C	0.122290	0.672640	0.639119
	C154	C	0.904197	0.311183	0.635474
	C155	C	0.121716	0.308499	0.388535
	C156	C	0.904218	0.368943	0.693598
	C157	C	0.122726	0.613363	0.695429
	C158	C	0.904349	0.613937	0.333387
	C159	C	0.122049	0.367073	0.331328
	C160	C	0.392331	0.669381	0.902715
	C161	C	0.637557	0.673479	0.122667
	C162	C	0.638435	0.309140	0.904561
	C163	C	0.391905	0.311424	0.124367
	C164	C	0.693545	0.881421	0.391320
	C165	C	0.694409	0.101375	0.636259
	C166	C	0.332188	0.882286	0.637828
	C167	C	0.330838	0.099539	0.388929
	C168	C	0.891663	0.381981	0.192802
	C169	C	0.136553	0.601579	0.194894
	C170	C	0.136275	0.381266	0.833119
	C171	C	0.890862	0.600740	0.832462
	C172	C	0.197689	0.863806	0.405440
	C173	C	0.194783	0.113590	0.623220
	C174	C	0.834383	0.112873	0.402951
	C175	C	0.833843	0.869157	0.624005
	C176	C	0.405376	0.173570	0.889370
	C177	C	0.623572	0.170857	0.136245
	C178	C	0.404069	0.809291	0.137037
	C179	C	0.622646	0.809640	0.890150
	C180	C	0.403987	0.867983	0.194466
	C181	C	0.623809	0.112149	0.193131
	C182	C	0.405064	0.114383	0.832290
	C183	C	0.623357	0.868843	0.833477
	C184	C	0.892727	0.169804	0.402558
	C185	C	0.136522	0.170667	0.623513
	C186	C	0.139685	0.806547	0.405630
	C187	C	0.891787	0.811872	0.624109
	C188	C	0.194973	0.381745	0.890405
	C189	C	0.194428	0.601579	0.137127
	C190	C	0.833164	0.382724	0.135511
	C191	C	0.832244	0.600491	0.889442
	C192	C	0.418438	0.080596	0.608051
	C193	C	0.612427	0.900431	0.609834
	C194	C	0.611781	0.082547	0.415863
	C195	C	0.418594	0.901283	0.417450
	C196	C	0.610166	0.396733	0.104258
	C197	C	0.609495	0.587301	0.922168
	C198	C	0.417100	0.588044	0.105344
	C199	C	0.418180	0.395104	0.923278
	C200	C	0.103511	0.586503	0.418337
	C201	C	0.923976	0.587591	0.608886
	C202	C	0.104249	0.393314	0.610035
	C203	C	0.922785	0.393029	0.415966
	C204	C	0.917829	0.582476	0.109190
	C205	C	0.111222	0.401494	0.109441
	C206	C	0.111017	0.581992	0.917612
	C207	C	0.917030	0.400726	0.917250
	C208	C	0.109867	0.896144	0.604076
	C209	C	0.109481	0.085528	0.422460
	C210	C	0.916215	0.089178	0.605884
	C211	C	0.917146	0.894444	0.422482
	C212	C	0.604549	0.088551	0.917655
	C213	C	0.423016	0.089454	0.110234
	C214	C	0.602710	0.894574	0.108510
	C215	C	0.423374	0.894429	0.916742
	Zn216	Zn	0.514536	-0.008441	0.762841
	Zn217	Zn	0.513613	-0.008778	0.262916
	Zn218	Zn	0.763526	0.492321	0.013128
	Zn219	Zn	0.264739	0.491156	0.013994
	Zn220	Zn	0.014171	0.741770	0.514392
	Zn221	Zn	0.013788	0.240429	0.513187
	Zn222	Zn	0.013570	0.490820	0.763729
	Zn223	Zn	0.013831	0.491459	0.263045
	Zn224	Zn	0.513208	0.740362	0.013136
	Zn225	Zn	0.514323	0.241978	0.014183
	Zn226	Zn	0.764579	-0.008680	0.513651
	Zn227	Zn	0.263913	-0.009114	0.513310
	N228	N	0.428405	0.955552	0.692444
	N229	N	0.601038	0.026666	0.693109
	N230	N	0.600027	0.955799	0.333549
	N231	N	0.427907	0.026963	0.334515
	N232	N	0.693156	0.405615	0.978063
	N233	N	0.693772	0.579068	0.047946
	N234	N	0.334438	0.577378	0.978608
	N235	N	0.334166	0.404138	0.049109
	N236	N	0.979841	0.672226	0.426358
	N237	N	0.048391	0.672067	0.602081
	N238	N	0.978613	0.311115	0.599799
	N239	N	0.047573	0.309168	0.424710
	N240	N	0.978733	0.404332	0.693378
	N241	N	0.049009	0.576663	0.693180
	N242	N	0.978095	0.576769	0.334739
	N243	N	0.048196	0.403620	0.332505
	N244	N	0.428179	0.669272	0.977754
	N245	N	0.600629	0.671723	0.048161
	N246	N	0.601627	0.311132	0.978943
	N247	N	0.428443	0.312370	0.049687
	N248	N	0.694227	0.956507	0.426322
	N249	N	0.694142	0.026795	0.599850
	N250	N	0.333516	0.956192	0.600582
	N251	N	0.331901	0.025036	0.424863
	N252	N	0.928053	0.456146	0.191898
	N253	N	0.100904	0.527022	0.193957
	N254	N	0.100081	0.455635	0.834216
	N255	N	0.927270	0.526440	0.833764
	N256	N	0.195446	0.902228	0.479140
	N257	N	0.193925	0.077348	0.548277
	N258	N	0.834279	0.077863	0.478392
	N259	N	0.834371	0.904835	0.548842
	N260	N	0.479658	0.173170	0.925727
	N261	N	0.548878	0.171581	0.100915
	N262	N	0.478140	0.809957	0.100431
	N263	N	0.548033	0.810004	0.925761
	N264	N	0.477891	0.904454	0.192968
	N265	N	0.549202	0.077102	0.192683
	N266	N	0.479065	0.077802	0.833834
	N267	N	0.549364	0.905384	0.834274
	N268	N	0.927959	0.169966	0.477924
	N269	N	0.100018	0.169366	0.548737
	N270	N	0.101963	0.809831	0.479504
	N271	N	0.927686	0.812281	0.549261
	N272	N	0.194554	0.456368	0.926630
	N273	N	0.194475	0.526830	0.101018
	N274	N	0.833614	0.457432	0.099879
	N275	N	0.832662	0.526038	0.925474
	O276	O	0.077693	0.934932	-0.098790
	H277	H	0.065184	0.923896	-0.103229
	H278	H	0.075582	0.923399	-0.108036
	O279	O	0.343461	0.292294	0.358926
	H280	H	0.370018	0.297066	0.365346
	H281	H	0.351342	0.300779	0.364831
	O282	O	1.221387	-0.153766	0.864081
	H283	H	1.217957	-0.152375	0.860367
	H284	H	1.233662	-0.159517	0.869933
	O285	O	0.712771	0.572152	0.465756
	H286	H	0.717545	0.589192	0.466591
	H287	H	0.719169	0.578786	0.454029
	O288	O	0.700714	0.305988	0.700428
	H289	H	0.692487	0.313943	0.686968
	H290	H	0.680850	0.321666	0.687848
	O291	O	0.725935	0.294370	0.485244
	H292	H	0.739835	0.288937	0.496755
	H293	H	0.716963	0.310044	0.496027
	O294	O	0.788420	-0.045716	1.235792
	H295	H	0.755002	-0.046196	1.268620
	H296	H	0.799042	-0.076561	1.224635
	O297	O	0.205148	0.849489	0.918782
	H298	H	0.202848	0.873903	0.931882
	H299	H	0.227413	0.823409	0.904954
	O300	O	0.232560	0.017002	1.236109
	H301	H	0.223028	0.017921	1.218194
	H302	H	0.259957	0.025881	1.267257
	O303	O	0.573186	0.459187	0.679111
	H304	H	0.568389	0.465468	0.677131
	H305	H	0.567211	0.439156	0.686274
	O306	O	0.510568	0.563305	0.477705
	H307	H	0.509919	0.548257	0.458604
	H308	H	0.516831	0.571452	0.468311
	O309	O	0.702332	0.463706	0.302604
	H310	H	0.706183	0.430301	0.296120
	H311	H	0.712878	0.461152	0.295665
	O312	O	0.572942	0.461298	0.353488
	H313	H	0.563940	0.450140	0.349347
	H314	H	0.589681	0.456693	0.343542
	O315	O	1.072690	1.002834	1.087037
	H316	H	1.089311	0.993436	1.097477
	H317	H	1.058616	1.016791	1.082528
	O318	O	0.722276	0.529359	0.727407
	H319	H	0.714497	0.531293	0.726319
	H320	H	0.740240	0.525643	0.740719
	O321	O	0.290761	0.709935	0.490128
	H322	H	0.303893	0.701198	0.479904
	H323	H	0.265567	0.739297	0.488663
	O324	O	1.078034	0.932471	0.232459
	H325	H	1.062724	0.942792	0.225278
	H326	H	1.095546	0.940384	0.241939
	O327	O	0.046337	-0.225141	0.796679
	H328	H	0.075067	-0.234077	0.795692
	H329	H	0.064744	-0.242623	0.782097
	O330	O	0.728946	0.696410	0.543682
	H331	H	0.729777	0.710720	0.554662
	H332	H	0.728363	0.704109	0.551981
	O333	O	0.696204	0.433917	0.569547
	H334	H	0.700361	0.440541	0.566791
	H335	H	0.693598	0.450129	0.573134
	O336	O	0.727526	0.283686	0.299359
	H337	H	0.744123	0.267755	0.323570
	H338	H	0.749494	0.263859	0.290882
	O339	O	0.843980	-0.012870	0.959581
	H340	H	0.835004	-0.036213	0.960293
	H341	H	0.854322	-0.006037	0.968057
	O342	O	0.191193	-0.155325	0.117109
	H343	H	0.188960	-0.157759	0.098662
	H344	H	0.177116	-0.148574	0.118947
	O345	O	-0.177188	1.105515	1.159058
	H346	H	-0.161071	1.097388	1.137647
	H347	H	-0.178096	1.073961	1.162672
	O348	O	0.210892	-0.003727	-0.184800
	H349	H	0.219500	0.017700	-0.196765
	H350	H	0.208769	-0.029473	-0.193671
	O351	O	0.327240	0.534915	0.586984
	H352	H	0.325691	0.519166	0.572592
	H353	H	0.333189	0.538529	0.572660
	O354	O	0.083806	0.113203	1.222763
	H355	H	0.083239	0.097836	1.227157
	H356	H	0.081390	0.126989	1.244381
	O357	O	0.190270	0.121325	-0.014849
	H358	H	0.188664	0.120459	-0.000389
	H359	H	0.197300	0.131581	-0.009531
	O360	O	0.298597	0.480181	0.693839
	H361	H	0.293928	0.487138	0.684489
	H362	H	0.292983	0.486416	0.696999
	O363	O	0.035848	-0.145672	-0.045380
	H364	H	0.026418	-0.146010	-0.048693
	H365	H	0.033905	-0.148886	-0.050174
	O366	O	0.327595	0.673417	0.699807
	H367	H	0.329872	0.657788	0.667315
	H368	H	0.360631	0.654966	0.692427
	O369	O	0.957357	0.096787	0.134098
	H370	H	0.945512	0.100997	0.124895
	H371	H	0.958953	0.095301	0.122424
	O372	O	1.001393	1.193233	0.170977
	H373	H	0.994860	1.206777	0.169326
	H374	H	0.998947	1.193709	0.165440
	O375	O	1.186213	0.045705	-0.038018
	H376	H	1.182694	0.064290	-0.034766
	H377	H	1.188968	0.047896	-0.052530
	O378	O	0.293216	0.273883	0.581018
	H379	H	0.275080	0.259559	0.587508
	H380	H	0.297271	0.266231	0.579525
	O381	O	0.063448	0.954776	1.003845
	H382	H	0.073007	0.963132	1.000261
	H383	H	0.076886	0.964782	1.012984
	O384	O	0.413459	0.322599	0.544829
	H385	H	0.408857	0.323307	0.544593
	H386	H	0.417495	0.323943	0.552122
	O387	O	0.720700	0.697631	-0.284105
	H388	H	0.723599	0.715186	-0.282284
	H389	H	0.721246	0.675479	-0.271259
	O390	O	0.547883	0.272376	0.294159
	H391	H	0.564775	0.248500	0.273149
	H392	H	0.581208	0.275274	0.292981
	O393	O	0.511366	0.532282	0.721357
	H394	H	0.522864	0.550274	0.719275
	H395	H	0.523994	0.524500	0.723843
	O396	O	-0.085075	0.886455	0.821846
	H397	H	-0.072742	0.883134	0.817842
	H398	H	-0.075417	0.883166	0.827898
	O399	O	-0.202663	0.028769	0.804774
	H400	H	-0.212972	0.026416	0.793081
	H401	H	-0.202295	0.038352	0.802022
	O402	O	0.671740	0.683363	0.344063
	H403	H	0.672003	0.668748	0.332997
	H404	H	0.663769	0.676377	0.360413
	O405	O	0.982413	0.208971	0.815176
	H406	H	0.971775	0.211169	0.812286
	H407	H	0.990955	0.221984	0.819601
	O408	O	-0.055369	0.167149	0.058983
	H409	H	-0.058632	0.157092	0.046376
	H410	H	-0.036538	0.166224	0.056411
	O411	O	0.317200	0.434775	0.504689
	H412	H	0.317588	0.404269	0.517656
	H413	H	0.324739	0.444557	0.506672
	O414	O	0.582948	0.269689	0.560542
	H415	H	0.576356	0.274095	0.573529
	H416	H	0.574174	0.278260	0.556238
	O417	O	0.517920	0.606169	0.431408
	H418	H	0.515194	0.606902	0.407967
	H419	H	0.507984	0.602109	0.441662
	O420	O	0.432596	0.452870	0.563645
	H421	H	0.436870	0.472988	0.556915
	H422	H	0.418825	0.457035	0.569723
	O423	O	0.484480	0.271759	0.732520
	H424	H	0.453556	0.275617	0.721152
	H425	H	0.479769	0.241708	0.757581
	O426	O	0.460334	0.473044	0.305855
	H427	H	0.442755	0.468507	0.295428
	H428	H	0.457580	0.463915	0.306237
	O429	O	1.305518	1.322955	0.719427
	H430	H	1.295599	1.306665	0.718701
	H431	H	1.309370	1.354565	0.724285
	O432	O	-0.212052	0.989205	1.011986
	H433	H	-0.208773	0.997714	1.002956
	H434	H	-0.208875	0.991467	1.008010
	O435	O	-0.010453	0.786585	0.235258
	H436	H	-0.000336	0.789897	0.225654
	H437	H	-0.003311	0.772666	0.259415
	O438	O	-0.201354	-0.221762	0.045209
	H439	H	-0.212261	-0.229667	0.048439
	H440	H	-0.199569	-0.222951	0.052740
	O441	O	-0.196067	0.202386	-0.009541
	H442	H	-0.221958	0.209204	-0.013425
	H443	H	-0.193037	0.190592	-0.036253
	O444	O	0.223296	0.201350	0.140070
	H445	H	0.241277	0.209241	0.136185
	H446	H	0.197284	0.202342	0.160991
	O447	O	-0.138835	0.844318	0.818506
	H448	H	-0.134426	0.838659	0.812883
	H449	H	-0.134642	0.846810	0.838572
	O450	O	-0.196517	1.198420	0.808051
	H451	H	-0.215168	1.211161	0.784845
	H452	H	-0.176252	1.193741	0.812457
	O453	O	0.290532	0.523782	0.290554
	H454	H	0.266659	0.519187	0.278338
	H455	H	0.283952	0.542079	0.289760
	O456	O	-0.050255	-0.182521	1.027615
	H457	H	-0.063977	-0.185882	1.043143
	H458	H	-0.030143	-0.176794	1.023902
	O459	O	0.808818	0.784111	0.217676
	H460	H	0.837769	0.779897	0.230176
	H461	H	0.798855	0.777956	0.206164
	O462	O	0.618160	0.479661	0.467563
	H463	H	0.626374	0.485958	0.455682
	H464	H	0.623421	0.475095	0.462272
	O465	O	1.146569	0.181574	-0.096846
	H466	H	1.156034	0.185880	-0.083265
	H467	H	1.128051	0.157692	-0.080956
	O468	O	0.049500	1.065555	-0.084677
	H469	H	0.046373	1.075216	-0.091593
	H470	H	0.051677	1.055903	-0.088961
	O471	O	0.483100	0.722048	0.607403
	H472	H	0.465220	0.726932	0.610119
	H473	H	0.493504	0.719369	0.616666
	O474	O	-0.457888	1.710643	-0.312950
	H475	H	-0.434505	1.707189	-0.309763
	H476	H	-0.459922	1.728386	-0.299639
	O477	O	0.392048	0.699563	1.319245
	H478	H	0.392831	0.716621	1.337972
	H479	H	0.395540	0.696611	1.307101
	O480	O	0.543317	0.647723	0.296398
	H481	H	0.547209	0.639883	0.294844
	H482	H	0.532892	0.647991	0.279622
	O483	O	0.389282	0.509485	0.361355
	H484	H	0.408714	0.500509	0.381693
	H485	H	0.400728	0.489649	0.348327
	O486	O	1.108944	-0.034094	1.115722
	H487	H	1.124020	-0.034463	1.112553
	H488	H	1.105993	-0.031875	1.108530
	O489	O	1.176042	0.905614	0.055554
	H490	H	1.184055	0.909282	0.061531
	H491	H	1.184701	0.900530	0.061244
