data_Molecule from HDF5

_cell_length_a		16.260350
_cell_length_b		16.208978
_cell_length_c		16.284191
_cell_angle_alpha	90.008609
_cell_angle_beta	89.890028
_cell_angle_gamma	89.872144
_symmetry_space_group_name_H-M	'P 1'
_symmetry_Int_Tables_number		1

loop_
	_symmetry_equiv_pos_as_xyz
	x,y,z

loop_
	_atom_site_label
	_atom_site_type_symbol
	_atom_site_fract_x
	_atom_site_fract_y
	_atom_site_fract_z
	H0	H	0.397125	0.837255	0.721667
	H1	H	0.592743	0.165831	0.721830
	H2	H	0.593815	0.838027	0.292783
	H3	H	0.395805	0.165778	0.293307
	H4	H	0.710942	0.402037	0.844001
	H5	H	0.709995	0.599709	0.170842
	H6	H	0.280997	0.600744	0.843745
	H7	H	0.281511	0.403812	0.171344
	H8	H	0.830708	0.714595	0.409937
	H9	H	0.160014	0.713929	0.604012
	H10	H	0.831406	0.287670	0.605768
	H11	H	0.159429	0.285762	0.409505
	H12	H	0.832276	0.401650	0.722636
	H13	H	0.158961	0.599643	0.722137
	H14	H	0.831110	0.599258	0.293265
	H15	H	0.159517	0.401204	0.292708
	H16	H	0.398984	0.714762	0.842705
	H17	H	0.592150	0.714657	0.171138
	H18	H	0.593271	0.288720	0.843586
	H19	H	0.398503	0.288518	0.171418
	H20	H	0.709318	0.836958	0.408228
	H21	H	0.707226	0.166392	0.604360
	H22	H	0.281563	0.836757	0.605677
	H23	H	0.280586	0.165385	0.409766
	H24	H	0.898622	0.336013	0.220206
	H25	H	0.093636	0.665386	0.221146
	H26	H	0.096657	0.336696	0.790454
	H27	H	0.897157	0.664489	0.793821
	H28	H	0.211902	0.900627	0.344178
	H29	H	0.208762	0.099152	0.671035
	H30	H	0.781343	0.099334	0.343757
	H31	H	0.781234	0.903088	0.671098
	H32	H	0.331790	0.216676	0.909936
	H33	H	0.660436	0.213901	0.104499
	H34	H	0.331735	0.787576	0.105816
	H35	H	0.659940	0.787439	0.909330
	H36	H	0.331725	0.903754	0.221615
	H37	H	0.658046	0.100969	0.223440
	H38	H	0.331416	0.101727	0.793768
	H39	H	0.659674	0.902335	0.792419
	H40	H	0.897611	0.214611	0.343999
	H41	H	0.093356	0.215160	0.671247
	H42	H	0.094370	0.786003	0.343457
	H43	H	0.897886	0.787304	0.671524
	H44	H	0.212019	0.337001	0.907306
	H45	H	0.207475	0.666095	0.104421
	H46	H	0.783603	0.335710	0.104298
	H47	H	0.783065	0.665410	0.910666
	H48	H	0.397443	0.119270	0.596269
	H49	H	0.591971	0.880171	0.610540
	H50	H	0.579727	0.120092	0.400789
	H51	H	0.401902	0.884575	0.417664
	H52	H	0.596853	0.398443	0.129213
	H53	H	0.595100	0.596223	0.888090
	H54	H	0.396913	0.590093	0.124303
	H55	H	0.396044	0.410131	0.889498
	H56	H	0.116378	0.592951	0.398787
	H57	H	0.880656	0.596853	0.591044
	H58	H	0.111569	0.415385	0.602941
	H59	H	0.878378	0.403432	0.416297
	H60	H	0.114962	0.401196	0.603232
	H61	H	0.880679	0.584371	0.602709
	H62	H	0.113606	0.606129	0.420620
	H63	H	0.879518	0.411186	0.415119
	H64	H	0.407050	0.593863	0.121699
	H65	H	0.588835	0.588687	0.892167
	H66	H	0.595527	0.418124	0.123414
	H67	H	0.407349	0.414658	0.893404
	H68	H	0.580787	0.112912	0.426775
	H69	H	0.579210	0.887041	0.599612
	H70	H	0.399233	0.120686	0.606897
	H71	H	0.401447	0.882654	0.412432
	H72	H	0.904337	0.619430	0.107582
	H73	H	0.083631	0.383651	0.105630
	H74	H	0.075725	0.612710	0.918100
	H75	H	0.902028	0.381210	0.909285
	H76	H	0.091312	0.909108	0.623900
	H77	H	0.089318	0.100149	0.388756
	H78	H	0.902684	0.089335	0.622663
	H79	H	0.915089	0.905595	0.393592
	H80	H	0.609698	0.092121	0.920440
	H81	H	0.376743	0.098803	0.103536
	H82	H	0.613064	0.912702	0.105402
	H83	H	0.376279	0.906811	0.906077
	H84	H	0.614814	0.900638	0.102238
	H85	H	0.379421	0.096044	0.096145
	H86	H	0.612924	0.089390	0.907683
	H87	H	0.378424	0.902677	0.920921
	H88	H	0.904518	0.098283	0.624752
	H89	H	0.094015	0.089126	0.390586
	H90	H	0.086002	0.908185	0.622914
	H91	H	0.894770	0.897751	0.385157
	H92	H	0.097798	0.618486	0.922558
	H93	H	0.088392	0.386428	0.092298
	H94	H	0.907262	0.615156	0.095304
	H95	H	0.907158	0.384666	0.915026
	H96	H	0.406948	0.117158	0.600872
	H97	H	0.595416	0.884085	0.592665
	H98	H	0.603279	0.123741	0.414800
	H99	H	0.406240	0.885033	0.413806
	H100	H	0.578722	0.406220	0.122122
	H101	H	0.584808	0.598217	0.890171
	H102	H	0.399434	0.601675	0.125983
	H103	H	0.406110	0.402320	0.889471
	H104	H	0.107085	0.581488	0.419424
	H105	H	0.874457	0.600193	0.606683
	H106	H	0.109953	0.406747	0.590669
	H107	H	0.876365	0.406672	0.408310
	H108	H	0.895010	0.619745	0.099012
	H109	H	0.096719	0.380737	0.102346
	H110	H	0.089156	0.621590	0.900913
	H111	H	0.900044	0.383122	0.917167
	H112	H	0.088939	0.904520	0.624716
	H113	H	0.082300	0.091404	0.393356
	H114	H	0.895463	0.094445	0.626522
	H115	H	0.896821	0.920378	0.393335
	H116	H	0.614608	0.101568	0.912260
	H117	H	0.379321	0.090669	0.102473
	H118	H	0.610031	0.909532	0.094324
	H119	H	0.381710	0.917283	0.916387
	C120	C	0.373413	0.010103	0.629496
	C121	C	0.616448	0.992814	0.629073
	C122	C	0.616504	0.010162	0.385964
	C123	C	0.373925	0.992787	0.386149
	C124	C	0.618145	0.379371	0.016315
	C125	C	0.617519	0.622711	0.998587
	C126	C	0.373322	0.623644	0.015583
	C127	C	0.374745	0.380710	0.999133
	C128	C	0.003820	0.622132	0.384973
	C129	C	0.986969	0.622370	0.628553
	C130	C	0.003890	0.379548	0.628016
	C131	C	0.986643	0.378362	0.384985
	C132	C	0.874060	0.509297	0.128921
	C133	C	0.117005	0.492595	0.128490
	C134	C	0.117262	0.509021	0.885161
	C135	C	0.874195	0.491680	0.885754
	C136	C	0.117335	0.878733	0.515724
	C137	C	0.116171	0.121899	0.499399
	C138	C	0.872935	0.122529	0.516249
	C139	C	0.873722	0.879419	0.499049
	C140	C	0.503882	0.123345	0.885485
	C141	C	0.486864	0.123197	0.128921
	C142	C	0.504178	0.880010	0.128938
	C143	C	0.487491	0.880446	0.885846
	C144	C	0.376600	0.886273	0.684027
	C145	C	0.613389	0.116916	0.683620
	C146	C	0.614540	0.886706	0.330510
	C147	C	0.375858	0.116690	0.331277
	C148	C	0.672819	0.381905	0.892779
	C149	C	0.671868	0.620124	0.122118
	C150	C	0.319046	0.621069	0.892241
	C151	C	0.319232	0.383143	0.122407
	C152	C	0.879759	0.676763	0.388814
	C153	C	0.110959	0.676296	0.624960
	C154	C	0.880255	0.325270	0.625942
	C155	C	0.110388	0.323639	0.388574
	C156	C	0.880863	0.381790	0.683951
	C157	C	0.110387	0.619693	0.683772
	C158	C	0.879845	0.619482	0.330948
	C159	C	0.110593	0.381363	0.330674
	C160	C	0.377348	0.678022	0.891990
	C161	C	0.613512	0.677199	0.122174
	C162	C	0.614894	0.324969	0.892865
	C163	C	0.377612	0.326245	0.122644
	C164	C	0.671778	0.886210	0.388076
	C165	C	0.670361	0.117003	0.625572
	C166	C	0.319434	0.885981	0.626380
	C167	C	0.318605	0.116601	0.389008
	C168	C	0.877585	0.385088	0.182932
	C169	C	0.114010	0.616334	0.183367
	C170	C	0.115907	0.385441	0.829480
	C171	C	0.876773	0.615493	0.831255
	C172	C	0.173318	0.880582	0.392623
	C173	C	0.170761	0.119443	0.622563
	C174	C	0.818516	0.120084	0.392996
	C175	C	0.819111	0.882321	0.622253
	C176	C	0.380518	0.178653	0.889054
	C177	C	0.610852	0.176959	0.125648
	C178	C	0.380626	0.825472	0.126173
	C179	C	0.611060	0.825288	0.888659
	C180	C	0.380711	0.882870	0.183893
	C181	C	0.609793	0.120823	0.184504
	C182	C	0.380376	0.121379	0.831364
	C183	C	0.610826	0.882581	0.830601
	C184	C	0.876544	0.177145	0.392920
	C185	C	0.113286	0.176971	0.622556
	C186	C	0.115124	0.823478	0.392491
	C187	C	0.877146	0.824956	0.622456
	C188	C	0.173260	0.385631	0.887638
	C189	C	0.170675	0.616775	0.125462
	C190	C	0.820139	0.385047	0.125616
	C191	C	0.819844	0.615838	0.889206
	C192	C	0.394729	0.096766	0.607676
	C193	C	0.594936	0.906209	0.607488
	C194	C	0.594460	0.096523	0.407736
	C195	C	0.396522	0.906382	0.408020
	C196	C	0.596626	0.401188	0.102565
	C197	C	0.596126	0.600775	0.912504
	C198	C	0.394780	0.601639	0.101736
	C199	C	0.396469	0.402661	0.913058
	C200	C	0.090027	0.599983	0.406420
	C201	C	0.900853	0.600168	0.606630
	C202	C	0.089959	0.401402	0.605679
	C203	C	0.900285	0.400754	0.406628
	C204	C	0.895824	0.595788	0.107250
	C205	C	0.095707	0.406044	0.106497
	C206	C	0.094344	0.595329	0.907474
	C207	C	0.896433	0.405312	0.907401
	C208	C	0.095345	0.900793	0.601576
	C209	C	0.094893	0.100010	0.413142
	C210	C	0.894635	0.100530	0.602613
	C211	C	0.895734	0.901460	0.412712
	C212	C	0.590077	0.100900	0.907026
	C213	C	0.400770	0.101436	0.107237
	C214	C	0.590335	0.901421	0.107075
	C215	C	0.401241	0.902562	0.907855
	Zn216	Zn	0.495253	0.001510	0.757013
	Zn217	Zn	0.495306	0.001509	0.257626
	Zn218	Zn	0.745995	0.500562	0.007683
	Zn219	Zn	0.245385	0.501708	0.007357
	Zn220	Zn	-0.004712	0.750672	0.506989
	Zn221	Zn	-0.005128	0.250665	0.507765
	Zn222	Zn	-0.004458	0.500307	0.757039
	Zn223	Zn	-0.004437	0.500714	0.256747
	Zn224	Zn	0.495599	0.751475	0.007043
	Zn225	Zn	0.496078	0.251528	0.007505
	Zn226	Zn	0.744661	0.000983	0.507398
	Zn227	Zn	0.245052	0.000903	0.507465
	N228	N	0.409319	0.964518	0.686047
	N229	N	0.580759	0.038805	0.685864
	N230	N	0.580817	0.964461	0.329142
	N231	N	0.409381	0.038606	0.329234
	N232	N	0.675011	0.414772	0.970645
	N233	N	0.674461	0.586967	0.044394
	N234	N	0.316510	0.588065	0.970042
	N235	N	0.317438	0.416361	0.044584
	N236	N	0.957598	0.678454	0.421680
	N237	N	0.033264	0.678216	0.591595
	N238	N	0.957706	0.323666	0.591962
	N239	N	0.032540	0.321694	0.421531
	N240	N	0.958689	0.414893	0.685478
	N241	N	0.032339	0.586805	0.685973
	N242	N	0.957831	0.586194	0.328514
	N243	N	0.032521	0.414460	0.328266
	N244	N	0.410379	0.679618	0.969763
	N245	N	0.580350	0.678905	0.044402
	N246	N	0.581395	0.323606	0.970493
	N247	N	0.411011	0.324256	0.045039
	N248	N	0.673162	0.964102	0.421753
	N249	N	0.672206	0.038949	0.592077
	N250	N	0.317159	0.963954	0.593232
	N251	N	0.317431	0.038678	0.422628
	N252	N	0.910603	0.463092	0.184861
	N253	N	0.081302	0.538175	0.185233
	N254	N	0.081630	0.463097	0.827999
	N255	N	0.909875	0.537361	0.829082
	N256	N	0.174890	0.914248	0.470280
	N257	N	0.172734	0.085919	0.545136
	N258	N	0.816261	0.086883	0.470716
	N259	N	0.816988	0.915380	0.544621
	N260	N	0.458202	0.179942	0.922197
	N261	N	0.533380	0.178557	0.091787
	N262	N	0.458203	0.823686	0.092582
	N263	N	0.533277	0.823806	0.922172
	N264	N	0.458493	0.916095	0.185680
	N265	N	0.531848	0.088186	0.186720
	N266	N	0.458125	0.087679	0.829009
	N267	N	0.533064	0.916168	0.828867
	N268	N	0.909481	0.178952	0.470756
	N269	N	0.080076	0.178457	0.544723
	N270	N	0.080933	0.822446	0.469771
	N271	N	0.910534	0.823183	0.544619
	N272	N	0.174019	0.463557	0.921471
	N273	N	0.172641	0.538839	0.091910
	N274	N	0.817880	0.463298	0.092749
	N275	N	0.818307	0.537883	0.922568
	O276	O	1.061870	-0.072044	1.017139
	H277	H	1.060943	-0.083704	1.020630
	H278	H	1.072299	-0.074088	1.021742
	O279	O	1.032302	-0.029418	-0.003465
	H280	H	1.036598	-0.029736	-0.006189
	H281	H	1.034526	-0.039402	-0.003342
	O282	O	1.067082	0.961180	0.023688
	H283	H	1.059135	0.959671	0.012910
	H284	H	1.069126	0.966167	0.027489
	O285	O	0.037433	0.924259	0.003403
	H286	H	0.038483	0.931669	0.006868
	H287	H	0.039330	0.932236	0.002426
