data_Molecule from HDF5

_cell_length_a		16.487507
_cell_length_b		16.519188
_cell_length_c		16.406021
_cell_angle_alpha	89.997253
_cell_angle_beta	90.015222
_cell_angle_gamma	90.015647
_symmetry_space_group_name_H-M	'P 1'
_symmetry_Int_Tables_number		1

loop_
	_symmetry_equiv_pos_as_xyz
	x,y,z

loop_
	_atom_site_label
	_atom_site_type_symbol
	_atom_site_fract_x
	_atom_site_fract_y
	_atom_site_fract_z
	H0	H	0.391260	0.843743	0.720016
	H1	H	0.598060	0.159733	0.714864
	H2	H	0.601175	0.843021	0.277206
	H3	H	0.396613	0.161316	0.280582
	H4	H	0.717748	0.398952	0.839749
	H5	H	0.718175	0.607716	0.156188
	H6	H	0.275948	0.607624	0.840743
	H7	H	0.279172	0.399390	0.157863
	H8	H	0.840919	0.726548	0.389632
	H9	H	0.154495	0.723200	0.604554
	H10	H	0.840028	0.280368	0.603826
	H11	H	0.155343	0.282576	0.395046
	H12	H	0.839271	0.396913	0.719638
	H13	H	0.156064	0.605064	0.717713
	H14	H	0.839860	0.608049	0.276040
	H15	H	0.155668	0.399252	0.278865
	H16	H	0.390362	0.724762	0.840555
	H17	H	0.602646	0.723577	0.156110
	H18	H	0.601508	0.282140	0.840551
	H19	H	0.394470	0.282637	0.157643
	H20	H	0.721570	0.844562	0.389628
	H21	H	0.715341	0.159277	0.599085
	H22	H	0.275765	0.844008	0.602396
	H23	H	0.278304	0.160454	0.395268
	H24	H	0.897219	0.344516	0.215187
	H25	H	0.101424	0.659246	0.220582
	H26	H	0.100013	0.344099	0.779717
	H27	H	0.892138	0.660127	0.774730
	H28	H	0.217781	0.895657	0.340643
	H29	H	0.214774	0.102445	0.657539
	H30	H	0.779052	0.103852	0.339656
	H31	H	0.774235	0.894449	0.656589
	H32	H	0.340335	0.222959	0.892941
	H33	H	0.655891	0.220259	0.100833
	H34	H	0.339890	0.779676	0.103669
	H35	H	0.654555	0.780243	0.891160
	H36	H	0.339701	0.896293	0.219931
	H37	H	0.657189	0.101552	0.214724
	H38	H	0.339523	0.104476	0.778223
	H39	H	0.655444	0.897241	0.777253
	H40	H	0.895253	0.220363	0.339887
	H41	H	0.099762	0.219598	0.657164
	H42	H	0.104608	0.776974	0.342958
	H43	H	0.889363	0.778911	0.657371
	H44	H	0.216992	0.344710	0.895480
	H45	H	0.219507	0.659176	0.104448
	H46	H	0.779265	0.345498	0.099973
	H47	H	0.772673	0.659693	0.887614
	H48	H	0.405515	0.113788	0.585767
	H49	H	0.585151	0.886797	0.589554
	H50	H	0.595996	0.115928	0.407621
	H51	H	0.417359	0.892858	0.413587
	H52	H	0.588134	0.413051	0.111480
	H53	H	0.580020	0.591836	0.886698
	H54	H	0.409737	0.592777	0.112752
	H55	H	0.411205	0.408781	0.884442
	H56	H	0.108826	0.586242	0.406205
	H57	H	0.884578	0.592200	0.585509
	H58	H	0.110854	0.407298	0.584991
	H59	H	0.883463	0.407181	0.412494
	H60	H	0.109823	0.414738	0.589347
	H61	H	0.886514	0.587974	0.583446
	H62	H	0.109965	0.596073	0.413869
	H63	H	0.885547	0.416306	0.409701
	H64	H	0.408503	0.590115	0.111392
	H65	H	0.587337	0.594807	0.882395
	H66	H	0.587312	0.411594	0.112300
	H67	H	0.403421	0.411195	0.882982
	H68	H	0.585385	0.114762	0.401079
	H69	H	0.583869	0.889029	0.584041
	H70	H	0.404654	0.116100	0.589914
	H71	H	0.397725	0.888474	0.415966
	H72	H	0.908933	0.615680	0.085860
	H73	H	0.086564	0.391566	0.083597
	H74	H	0.084086	0.613547	0.911106
	H75	H	0.905854	0.393557	0.917951
	H76	H	0.086192	0.915236	0.610967
	H77	H	0.089519	0.088926	0.383915
	H78	H	0.906176	0.092624	0.614292
	H79	H	0.911878	0.912446	0.386651
	H80	H	0.611806	0.094028	0.909181
	H81	H	0.384870	0.088772	0.086291
	H82	H	0.608336	0.911923	0.080815
	H83	H	0.388057	0.920113	0.911224
	H84	H	0.608719	0.918279	0.088961
	H85	H	0.381745	0.092796	0.094490
	H86	H	0.610679	0.090510	0.908031
	H87	H	0.382331	0.911388	0.903101
	H88	H	0.907083	0.090149	0.612558
	H89	H	0.083014	0.093438	0.384786
	H90	H	0.084116	0.913491	0.610956
	H91	H	0.909052	0.914636	0.386655
	H92	H	0.088729	0.615542	0.911908
	H93	H	0.092798	0.387938	0.088787
	H94	H	0.907114	0.617331	0.086791
	H95	H	0.902697	0.388369	0.904948
	H96	H	0.408710	0.113644	0.589076
	H97	H	0.589314	0.887241	0.585032
	H98	H	0.585755	0.111441	0.413655
	H99	H	0.406659	0.885520	0.397773
	H100	H	0.588783	0.412327	0.113003
	H101	H	0.586958	0.586085	0.885835
	H102	H	0.411185	0.591145	0.110738
	H103	H	0.408721	0.416150	0.886725
	H104	H	0.105218	0.585719	0.417686
	H105	H	0.885055	0.587786	0.588229
	H106	H	0.112214	0.407866	0.593147
	H107	H	0.881739	0.409641	0.402989
	H108	H	0.908922	0.616460	0.088374
	H109	H	0.084513	0.389080	0.091901
	H110	H	0.086859	0.615216	0.907197
	H111	H	0.915572	0.393191	0.907554
	H112	H	0.086887	0.912776	0.612707
	H113	H	0.089829	0.096070	0.381290
	H114	H	0.908695	0.093028	0.612889
	H115	H	0.912150	0.915804	0.388515
	H116	H	0.612219	0.092181	0.905976
	H117	H	0.382569	0.097893	0.085977
	H118	H	0.612084	0.908433	0.089573
	H119	H	0.385450	0.907866	0.915744
	C120	C	0.374895	0.010085	0.620119
	C121	C	0.617202	0.992546	0.617926
	C122	C	0.620295	0.009663	0.375636
	C123	C	0.376023	0.993591	0.377213
	C124	C	0.618973	0.381307	0.007218
	C125	C	0.617915	0.623330	0.989351
	C126	C	0.376348	0.623985	0.007282
	C127	C	0.376657	0.380889	0.989968
	C128	C	0.005287	0.623317	0.378132
	C129	C	0.989024	0.622281	0.619207
	C130	C	0.006420	0.379147	0.620929
	C131	C	0.988596	0.380596	0.377255
	C132	C	0.876805	0.512090	0.118808
	C133	C	0.120026	0.493469	0.120896
	C134	C	0.118575	0.510862	0.878012
	C135	C	0.875150	0.494843	0.875887
	C136	C	0.118263	0.880496	0.507550
	C137	C	0.118261	0.122933	0.489043
	C138	C	0.876670	0.122451	0.507785
	C139	C	0.876778	0.880654	0.491215
	C140	C	0.506476	0.123352	0.876629
	C141	C	0.488529	0.123007	0.119577
	C142	C	0.505385	0.880425	0.119201
	C143	C	0.488821	0.880537	0.876762
	C144	C	0.373143	0.891086	0.679717
	C145	C	0.617237	0.112082	0.675630
	C146	C	0.620861	0.890631	0.316397
	C147	C	0.376693	0.113209	0.319318
	C148	C	0.677996	0.379899	0.887539
	C149	C	0.678589	0.626228	0.108519
	C150	C	0.315518	0.626547	0.888395
	C151	C	0.318423	0.380289	0.109994
	C152	C	0.887651	0.685335	0.373047
	C153	C	0.107309	0.683144	0.622732
	C154	C	0.887324	0.320034	0.622568
	C155	C	0.107863	0.322122	0.376279
	C156	C	0.886961	0.378349	0.679915
	C157	C	0.108115	0.624061	0.678892
	C158	C	0.887155	0.626251	0.316477
	C159	C	0.108024	0.380060	0.318365
	C160	C	0.372853	0.684412	0.888165
	C161	C	0.620808	0.683663	0.108601
	C162	C	0.620322	0.321837	0.887840
	C163	C	0.375519	0.321951	0.109703
	C164	C	0.680671	0.891376	0.372494
	C165	C	0.675668	0.111820	0.618158
	C166	C	0.315601	0.891136	0.621372
	C167	C	0.317442	0.112691	0.376020
	C168	C	0.876787	0.392364	0.176717
	C169	C	0.121093	0.612100	0.180739
	C170	C	0.119357	0.391784	0.818998
	C171	C	0.873232	0.612931	0.814694
	C172	C	0.178361	0.877190	0.388496
	C173	C	0.176130	0.122532	0.609643
	C174	C	0.818312	0.122946	0.387376
	C175	C	0.814778	0.876782	0.609259
	C176	C	0.387652	0.182718	0.874765
	C177	C	0.608342	0.180682	0.120011
	C178	C	0.386954	0.820069	0.121809
	C179	C	0.607428	0.820461	0.873557
	C180	C	0.386798	0.878029	0.179444
	C181	C	0.608890	0.121884	0.176797
	C182	C	0.387037	0.123755	0.817955
	C183	C	0.607777	0.878516	0.816617
	C184	C	0.875855	0.181002	0.387681
	C185	C	0.118832	0.180473	0.609478
	C186	C	0.122024	0.818201	0.389651
	C187	C	0.872356	0.819307	0.609738
	C188	C	0.177566	0.392016	0.876635
	C189	C	0.179540	0.611998	0.123135
	C190	C	0.818169	0.393076	0.119611
	C191	C	0.813808	0.612690	0.871202
	C192	C	0.399255	0.092840	0.595480
	C193	C	0.593161	0.909346	0.593513
	C194	C	0.596188	0.092501	0.400359
	C195	C	0.400113	0.910662	0.402036
	C196	C	0.594965	0.405496	0.090514
	C197	C	0.592145	0.598241	0.906661
	C198	C	0.402360	0.598751	0.090093
	C199	C	0.400860	0.404984	0.906506
	C200	C	0.086835	0.596944	0.404943
	C201	C	0.906656	0.596695	0.593256
	C202	C	0.089448	0.403413	0.596401
	C203	C	0.905216	0.404374	0.401361
	C204	C	0.901269	0.595060	0.094237
	C205	C	0.095178	0.410872	0.095570
	C206	C	0.093652	0.593420	0.902924
	C207	C	0.900651	0.412996	0.902466
	C208	C	0.092960	0.906492	0.590053
	C209	C	0.094469	0.099464	0.405254
	C210	C	0.900469	0.098647	0.591493
	C211	C	0.903355	0.906889	0.408708
	C212	C	0.589787	0.099167	0.900762
	C213	C	0.404709	0.099868	0.095816
	C214	C	0.588218	0.905576	0.093751
	C215	C	0.406583	0.905699	0.902574
	Zn216	Zn	0.497342	0.000622	0.748070
	Zn217	Zn	0.497682	0.001306	0.247968
	Zn218	Zn	0.746973	0.503731	-0.002133
	Zn219	Zn	0.248497	0.502664	-0.000943
	Zn220	Zn	-0.003346	0.751961	0.499751
	Zn221	Zn	-0.002607	0.251358	0.498515
	Zn222	Zn	-0.002250	0.502238	0.748001
	Zn223	Zn	-0.002753	0.502369	0.248770
	Zn224	Zn	0.497605	0.751854	-0.002098
	Zn225	Zn	0.497807	0.252146	-0.001579
	Zn226	Zn	0.747917	0.000773	0.498057
	Zn227	Zn	0.246383	0.001673	0.497892
	N228	N	0.409200	0.966008	0.679200
	N229	N	0.581755	0.036870	0.675509
	N230	N	0.583966	0.965116	0.318268
	N231	N	0.412165	0.037891	0.319657
	N232	N	0.677286	0.416171	0.962702
	N233	N	0.677189	0.589754	0.033275
	N234	N	0.317587	0.589680	0.963521
	N235	N	0.318840	0.416054	0.034396
	N236	N	0.962181	0.683846	0.410626
	N237	N	0.032130	0.682192	0.586498
	N238	N	0.962574	0.320319	0.586606
	N239	N	0.032463	0.322302	0.412094
	N240	N	0.961991	0.414353	0.678944
	N241	N	0.033440	0.587262	0.677018
	N242	N	0.961225	0.588549	0.319385
	N243	N	0.032953	0.415950	0.319108
	N244	N	0.409717	0.683110	0.963208
	N245	N	0.583924	0.682070	0.033602
	N246	N	0.584540	0.322305	0.963331
	N247	N	0.410855	0.322040	0.033960
	N248	N	0.680485	0.966411	0.408614
	N249	N	0.675755	0.036319	0.582994
	N250	N	0.316443	0.966122	0.585091
	N251	N	0.316847	0.037152	0.411047
	N252	N	0.912280	0.467596	0.176520
	N253	N	0.084934	0.537363	0.179478
	N254	N	0.083466	0.466731	0.819684
	N255	N	0.910386	0.538604	0.817343
	N256	N	0.176054	0.915370	0.462809
	N257	N	0.176291	0.087928	0.533582
	N258	N	0.818596	0.087231	0.462980
	N259	N	0.817405	0.914095	0.534509
	N260	N	0.463029	0.182693	0.910381
	N261	N	0.532231	0.181939	0.085686
	N262	N	0.461739	0.821601	0.085052
	N263	N	0.532380	0.821069	0.909952
	N264	N	0.461532	0.914735	0.178035
	N265	N	0.533140	0.087169	0.177034
	N266	N	0.462043	0.087575	0.818709
	N267	N	0.532909	0.915052	0.818387
	N268	N	0.910921	0.181239	0.463702
	N269	N	0.083835	0.181026	0.533520
	N270	N	0.085271	0.820164	0.464609
	N271	N	0.910268	0.821644	0.535086
	N272	N	0.177599	0.467202	0.912356
	N273	N	0.179006	0.537129	0.086847
	N274	N	0.817845	0.468573	0.084608
	N275	N	0.814799	0.538152	0.908449
	O276	O	0.693416	0.601418	0.280245
	H277	H	0.680700	0.606841	0.287657
	H278	H	0.719364	0.617706	0.256868
	O279	O	0.285948	0.356209	0.711036
	H280	H	0.271936	0.346900	0.684789
	H281	H	0.265679	0.317597	0.728622
	O282	O	0.785264	0.786031	0.023468
	H283	H	0.783833	0.773515	0.022541
	H284	H	0.774884	0.784090	0.014535
	O285	O	0.642271	0.495599	0.287826
	H286	H	0.635303	0.475364	0.291672
	H287	H	0.652523	0.490572	0.265142
	O288	O	-0.149311	-0.197405	0.175728
	H289	H	-0.150837	-0.188197	0.170182
	H290	H	-0.141256	-0.199901	0.145500
	O291	O	0.881456	0.954427	-0.086320
	H292	H	0.893159	0.953875	-0.078412
	H293	H	0.874622	0.977115	-0.098225
	O294	O	0.067879	0.801687	0.017411
	H295	H	0.058810	0.799539	0.016537
	H296	H	0.087352	0.796447	0.010803
	O297	O	0.221170	0.220381	0.073186
	H298	H	0.217410	0.208703	0.075094
	H299	H	0.248687	0.248004	0.073595
	O300	O	0.607534	0.400105	0.442987
	H301	H	0.619393	0.400638	0.445618
	H302	H	0.617167	0.406450	0.451708
	O303	O	0.518385	0.405215	0.473934
	H304	H	0.537305	0.406341	0.477909
	H305	H	0.524924	0.415170	0.459458
	O306	O	0.205627	0.792763	0.941168
	H307	H	0.203386	0.799400	0.934482
	H308	H	0.226411	0.784020	0.937705
	O309	O	0.712456	0.586865	0.499151
	H310	H	0.709313	0.590106	0.492105
	H311	H	0.709661	0.598756	0.496361
	O312	O	0.367143	0.700116	0.596466
	H313	H	0.363329	0.684787	0.590122
	H314	H	0.373826	0.689281	0.604198
	O315	O	0.319195	-0.315961	1.298724
	H316	H	0.300926	-0.306891	1.297457
	H317	H	0.317359	-0.306416	1.308397
	O318	O	0.217858	1.015119	0.188459
	H319	H	0.218001	1.055732	0.193672
	H320	H	0.232319	1.024553	0.207852
	O321	O	0.787540	0.985752	0.175016
	H322	H	0.804455	0.983856	0.177694
	H323	H	0.768682	0.995418	0.192967
	O324	O	0.798060	0.201483	0.990472
	H325	H	0.785076	0.208669	0.970252
	H326	H	0.808980	0.208446	0.981043
	O327	O	0.809851	0.193078	1.186746
	H328	H	0.820296	0.181975	1.199070
	H329	H	0.818026	0.181282	1.160473
	O330	O	0.990582	-0.206615	0.187355
	H331	H	0.997331	-0.212037	0.179830
	H332	H	0.974423	-0.205615	0.194988
	O333	O	1.109646	1.070292	1.063547
	H334	H	1.121399	1.068258	1.077759
	H335	H	1.113491	1.059281	1.063458
	O336	O	1.049850	0.202455	0.940939
	H337	H	1.048766	0.204530	0.941939
	H338	H	1.035712	0.190468	0.925952
	O339	O	0.291793	0.292719	0.587084
	H340	H	0.304369	0.283978	0.574646
	H341	H	0.286281	0.285439	0.557276
	O342	O	0.326507	0.513805	0.422635
	H343	H	0.322646	0.520906	0.425784
	H344	H	0.335621	0.518345	0.416101
	O345	O	0.193306	0.170169	-0.113957
	H346	H	0.178769	0.165555	-0.098082
	H347	H	0.179961	0.153358	-0.104696
	O348	O	0.788951	0.032680	0.798736
	H349	H	0.777626	0.036419	0.788779
	H350	H	0.793151	0.043764	0.801790
	O351	O	0.815409	0.986840	-0.055703
	H352	H	0.816874	0.977137	-0.048376
	H353	H	0.817278	1.002566	-0.061799
	O354	O	0.691698	0.325828	0.665037
	H355	H	0.679341	0.347911	0.639841
	H356	H	0.679542	0.339745	0.658595
	O357	O	1.109494	0.857103	1.127043
	H358	H	1.114542	0.866524	1.119264
	H359	H	1.102792	0.869186	1.118963
	O360	O	0.596570	0.470088	0.485934
	H361	H	0.581207	0.474359	0.489843
	H362	H	0.580992	0.481299	0.500771
	O363	O	0.433093	0.476008	0.589340
	H364	H	0.455169	0.469460	0.594239
	H365	H	0.438753	0.465775	0.583086
	O366	O	0.797329	0.198679	0.816235
	H367	H	0.771399	0.219693	0.794060
	H368	H	0.814327	0.187179	0.817999
	O369	O	0.385673	0.338820	0.366313
	H370	H	0.396512	0.340151	0.376144
	H371	H	0.394493	0.354526	0.382660
	O372	O	0.518183	0.395645	0.712141
	H373	H	0.533603	0.390298	0.700846
	H374	H	0.525274	0.383667	0.721749
	O375	O	0.174909	0.985588	0.836298
	H376	H	0.166885	0.991165	0.853079
	H377	H	0.191758	0.981347	0.826719
	O378	O	0.359630	0.405447	0.526307
	H379	H	0.369382	0.399199	0.540352
	H380	H	0.364461	0.416108	0.524600
	O381	O	1.019216	-0.007763	-0.058913
	H382	H	1.018328	-0.018788	-0.058677
	H383	H	1.003829	-0.017498	-0.062503
	O384	O	0.027947	-0.206635	0.796729
	H385	H	0.045381	-0.211236	0.787485
	H386	H	0.043249	-0.216110	0.790722
	O387	O	0.024065	0.932047	0.991231
	H388	H	0.011270	0.912182	0.989407
	H389	H	0.017297	0.940537	0.988536
	O390	O	-0.048640	0.212326	0.786328
	H391	H	-0.037515	0.218107	0.779012
	H392	H	-0.067972	0.223198	0.772202
	O393	O	0.914568	0.802180	-0.089500
	H394	H	0.924522	0.807230	-0.095527
	H395	H	0.920729	0.795902	-0.086091
	O396	O	0.289771	0.597234	0.313363
	H397	H	0.266861	0.604277	0.302564
	H398	H	0.295695	0.605406	0.314462
	O399	O	0.316757	0.538771	0.697627
	H400	H	0.295017	0.526009	0.718413
	H401	H	0.329341	0.505431	0.696966
	O402	O	0.015341	0.162737	0.920743
	H403	H	-0.002013	0.138287	0.928918
	H404	H	0.026209	0.163094	0.924565
	O405	O	-0.121741	0.021360	0.116266
	H406	H	-0.109310	0.007999	0.111177
	H407	H	-0.110095	0.020852	0.132573
	O408	O	0.683973	0.685440	0.683046
	H409	H	0.653851	0.698399	0.668178
	H410	H	0.675145	0.702089	0.668881
	O411	O	0.336041	0.700519	0.505241
	H412	H	0.342487	0.700422	0.503273
	H413	H	0.330166	0.680658	0.510429
	O414	O	0.614426	0.716662	0.429740
	H415	H	0.610282	0.726968	0.411243
	H416	H	0.609318	0.724211	0.415714
	O417	O	0.453289	0.605304	0.401325
	H418	H	0.452856	0.612183	0.385307
	H419	H	0.459207	0.588676	0.399984
	O420	O	0.480468	0.512872	0.413612
	H421	H	0.477534	0.523993	0.408604
	H422	H	0.488645	0.525026	0.426224
	O423	O	0.038181	1.031228	-0.091221
	H424	H	0.029039	1.028088	-0.104792
	H425	H	0.025750	1.032628	-0.087337
	O426	O	1.155545	1.027902	1.029612
	H427	H	1.157830	1.017813	1.037283
	H428	H	1.164231	1.033425	1.040277
	O429	O	0.588624	0.639399	0.425259
	H430	H	0.585921	0.649146	0.411256
	H431	H	0.579135	0.633601	0.423875
	O432	O	0.404922	0.500939	0.581555
	H433	H	0.403213	0.499454	0.583326
	H434	H	0.405047	0.496764	0.593324
	O435	O	0.193008	0.164127	0.198766
	H436	H	0.184054	0.180108	0.177013
	H437	H	0.196115	0.188906	0.217275
	O438	O	1.025278	0.203674	0.196603
	H439	H	1.017615	0.207185	0.201483
	H440	H	1.025819	0.206761	0.189184
	O441	O	0.535259	0.280571	0.277518
	H442	H	0.535442	0.265585	0.264115
	H443	H	0.556758	0.273839	0.267317
	O444	O	0.194429	0.842177	0.810348
	H445	H	0.208232	0.847897	0.797974
	H446	H	0.192224	0.859926	0.828658
	O447	O	0.436755	0.377474	0.650690
	H448	H	0.434332	0.363790	0.662325
	H449	H	0.415231	0.378221	0.643999
	O450	O	0.524703	0.717825	0.707340
	H451	H	0.504895	0.723224	0.703622
	H452	H	0.510409	0.727215	0.728641
	O453	O	0.715908	0.525480	0.710358
	H454	H	0.720937	0.558907	0.716731
	H455	H	0.734111	0.544582	0.725650
	O456	O	0.704331	0.294975	0.293248
	H457	H	0.727154	0.280692	0.290062
	H458	H	0.694301	0.307688	0.304250
	O459	O	0.652032	0.382464	0.430775
	H460	H	0.660522	0.373832	0.422089
	H461	H	0.665519	0.383980	0.431201
	O462	O	0.542659	0.445669	0.535724
	H463	H	0.545589	0.460726	0.527239
	H464	H	0.543210	0.448206	0.527744
	O465	O	0.984369	-0.017298	0.200522
	H466	H	0.993949	-0.028208	0.197278
	H467	H	0.999472	-0.023063	0.193818
