data_Molecule from HDF5

_cell_length_a		16.193102
_cell_length_b		16.321015
_cell_length_c		16.265678
_cell_angle_alpha	90.403920
_cell_angle_beta	90.317108
_cell_angle_gamma	90.344890
_symmetry_space_group_name_H-M	'P 1'
_symmetry_Int_Tables_number		1

loop_
	_symmetry_equiv_pos_as_xyz
	x,y,z

loop_
	_atom_site_label
	_atom_site_type_symbol
	_atom_site_fract_x
	_atom_site_fract_y
	_atom_site_fract_z
	H0	H	0.395651	0.832541	0.713244
	H1	H	0.602285	0.156165	0.722415
	H2	H	0.598940	0.833149	0.282540
	H3	H	0.394811	0.156270	0.281598
	H4	H	0.710647	0.389903	0.836252
	H5	H	0.713296	0.594654	0.160866
	H6	H	0.280501	0.591867	0.835342
	H7	H	0.278598	0.394416	0.160862
	H8	H	0.832319	0.710167	0.397924
	H9	H	0.157917	0.715612	0.602759
	H10	H	0.834697	0.277775	0.597560
	H11	H	0.158874	0.278723	0.392719
	H12	H	0.831918	0.394244	0.711593
	H13	H	0.157982	0.600260	0.717269
	H14	H	0.832124	0.596473	0.281583
	H15	H	0.158045	0.396121	0.280302
	H16	H	0.390841	0.712182	0.837644
	H17	H	0.599007	0.711624	0.161691
	H18	H	0.597055	0.272456	0.838723
	H19	H	0.391025	0.276844	0.161154
	H20	H	0.709790	0.832284	0.402738
	H21	H	0.715892	0.157936	0.603861
	H22	H	0.276236	0.836087	0.602109
	H23	H	0.280854	0.158545	0.398134
	H24	H	0.891734	0.334771	0.214602
	H25	H	0.097280	0.657999	0.214483
	H26	H	0.095596	0.335166	0.778234
	H27	H	0.893895	0.658551	0.781979
	H28	H	0.212363	0.895844	0.336781
	H29	H	0.214692	0.101281	0.661445
	H30	H	0.779735	0.092577	0.336378
	H31	H	0.782685	0.895720	0.663306
	H32	H	0.332776	0.207708	0.897284
	H33	H	0.657391	0.213959	0.104495
	H34	H	0.332335	0.778263	0.099165
	H35	H	0.659050	0.778169	0.901249
	H36	H	0.333219	0.893389	0.215801
	H37	H	0.659671	0.095870	0.216400
	H38	H	0.334347	0.093967	0.782136
	H39	H	0.660105	0.892616	0.784754
	H40	H	0.892710	0.210283	0.335712
	H41	H	0.103119	0.219668	0.658660
	H42	H	0.097162	0.778373	0.336529
	H43	H	0.895140	0.778325	0.661183
	H44	H	0.207504	0.331209	0.897022
	H45	H	0.214883	0.656617	0.099544
	H46	H	0.780862	0.332013	0.094414
	H47	H	0.777658	0.657417	0.898081
	H48	H	0.412251	0.111821	0.598226
	H49	H	0.593578	0.880764	0.584747
	H50	H	0.586857	0.108780	0.415178
	H51	H	0.401457	0.879514	0.408901
	H52	H	0.577488	0.403359	0.112846
	H53	H	0.580337	0.577973	0.886482
	H54	H	0.408265	0.585469	0.113880
	H55	H	0.399622	0.393679	0.880329
	H56	H	0.112800	0.588465	0.405827
	H57	H	0.879782	0.581407	0.592220
	H58	H	0.111586	0.399951	0.579149
	H59	H	0.880767	0.404763	0.407193
	H60	H	0.107636	0.419393	0.586539
	H61	H	0.875634	0.593334	0.592994
	H62	H	0.112864	0.589117	0.408913
	H63	H	0.878765	0.402869	0.403258
	H64	H	0.405176	0.587731	0.114918
	H65	H	0.579283	0.594745	0.882171
	H66	H	0.591246	0.397673	0.118644
	H67	H	0.399588	0.404926	0.883755
	H68	H	0.595461	0.113631	0.408079
	H69	H	0.594341	0.876249	0.599986
	H70	H	0.411795	0.108793	0.587006
	H71	H	0.407768	0.881130	0.406585
	H72	H	0.904602	0.611413	0.090322
	H73	H	0.078090	0.381905	0.090066
	H74	H	0.090705	0.615033	0.898269
	H75	H	0.903859	0.381108	0.906056
	H76	H	0.083345	0.899765	0.615731
	H77	H	0.084512	0.081758	0.385663
	H78	H	0.911827	0.085881	0.612261
	H79	H	0.903114	0.892230	0.379141
	H80	H	0.612670	0.081060	0.907717
	H81	H	0.381124	0.087559	0.084530
	H82	H	0.612184	0.905222	0.093520
	H83	H	0.382026	0.908207	0.909779
	H84	H	0.614002	0.901098	0.095030
	H85	H	0.380676	0.076684	0.092594
	H86	H	0.613984	0.090778	0.913465
	H87	H	0.377575	0.900564	0.898845
	H88	H	0.910250	0.092757	0.615655
	H89	H	0.084937	0.092279	0.381989
	H90	H	0.093566	0.908328	0.617069
	H91	H	0.894105	0.907887	0.382057
	H92	H	0.077949	0.606717	0.910391
	H93	H	0.089337	0.380788	0.082529
	H94	H	0.903925	0.610919	0.089481
	H95	H	0.901093	0.379543	0.904072
	H96	H	0.402423	0.112961	0.592295
	H97	H	0.580622	0.882124	0.593645
	H98	H	0.584635	0.111061	0.403245
	H99	H	0.406735	0.882986	0.413671
	H100	H	0.590364	0.412589	0.112560
	H101	H	0.595091	0.585544	0.880308
	H102	H	0.403858	0.583843	0.114093
	H103	H	0.409756	0.398487	0.883909
	H104	H	0.111814	0.586076	0.407109
	H105	H	0.880760	0.588508	0.582508
	H106	H	0.116700	0.404694	0.598964
	H107	H	0.878833	0.401047	0.407393
	H108	H	0.903519	0.613005	0.090510
	H109	H	0.089128	0.376457	0.095768
	H110	H	0.096152	0.611020	0.916419
	H111	H	0.904143	0.380048	0.902547
	H112	H	0.082209	0.912351	0.610689
	H113	H	0.093384	0.086442	0.381202
	H114	H	0.904467	0.086464	0.615144
	H115	H	0.911798	0.906492	0.386702
	H116	H	0.609845	0.081399	0.918446
	H117	H	0.376035	0.088979	0.097516
	H118	H	0.613067	0.901528	0.090112
	H119	H	0.378438	0.894820	0.911706
	C120	C	0.376563	0.004466	0.621808
	C121	C	0.620466	0.986444	0.624184
	C122	C	0.618115	0.003867	0.379389
	C123	C	0.375053	0.987590	0.378671
	C124	C	0.616299	0.372427	0.007848
	C125	C	0.616373	0.615967	0.990383
	C126	C	0.374764	0.615296	0.007227
	C127	C	0.372838	0.370862	0.989936
	C128	C	0.004322	0.617008	0.377241
	C129	C	0.986408	0.618817	0.620828
	C130	C	0.004593	0.376421	0.618074
	C131	C	0.986980	0.373814	0.375209
	C132	C	0.873752	0.504452	0.119047
	C133	C	0.116983	0.486749	0.119906
	C134	C	0.116729	0.503894	0.877198
	C135	C	0.872672	0.487176	0.875306
	C136	C	0.117268	0.875552	0.507594
	C137	C	0.119463	0.119363	0.489584
	C138	C	0.876477	0.117063	0.507344
	C139	C	0.874444	0.873207	0.490772
	C140	C	0.504902	0.114317	0.880520
	C141	C	0.487035	0.115447	0.122024
	C142	C	0.505134	0.872388	0.122199
	C143	C	0.487352	0.871896	0.878011
	C144	C	0.375884	0.881912	0.676648
	C145	C	0.621520	0.107830	0.683078
	C146	C	0.617393	0.881666	0.322140
	C147	C	0.375559	0.108462	0.320530
	C148	C	0.672800	0.370836	0.885441
	C149	C	0.674393	0.615015	0.112427
	C150	C	0.317849	0.612996	0.884579
	C151	C	0.316385	0.373708	0.112357
	C152	C	0.881102	0.672516	0.378120
	C153	C	0.109160	0.676764	0.621584
	C154	C	0.882788	0.317050	0.617312
	C155	C	0.109774	0.317413	0.374354
	C156	C	0.881614	0.375667	0.673794
	C157	C	0.108988	0.619715	0.679057
	C158	C	0.881172	0.616108	0.320068
	C159	C	0.109358	0.375479	0.317941
	C160	C	0.373107	0.672679	0.885649
	C161	C	0.617579	0.673211	0.112728
	C162	C	0.616016	0.312422	0.886594
	C163	C	0.372675	0.315246	0.112386
	C164	C	0.672980	0.881268	0.381492
	C165	C	0.677884	0.108772	0.624130
	C166	C	0.316379	0.883615	0.621137
	C167	C	0.319000	0.109688	0.378935
	C168	C	0.873378	0.382601	0.175371
	C169	C	0.117386	0.608930	0.176747
	C170	C	0.115039	0.382755	0.818367
	C171	C	0.873764	0.609499	0.819762
	C172	C	0.174082	0.875945	0.385482
	C173	C	0.176787	0.120784	0.612224
	C174	C	0.818293	0.113482	0.384988
	C175	C	0.819885	0.875362	0.613892
	C176	C	0.382047	0.169997	0.879148
	C177	C	0.609003	0.174579	0.123443
	C178	C	0.381605	0.816082	0.120128
	C179	C	0.610409	0.816063	0.880596
	C180	C	0.382136	0.873717	0.177703
	C181	C	0.610276	0.115648	0.178804
	C182	C	0.382791	0.113070	0.821600
	C183	C	0.610919	0.872906	0.822836
	C184	C	0.874685	0.172120	0.384741
	C185	C	0.121132	0.179548	0.610860
	C186	C	0.116859	0.817327	0.385401
	C187	C	0.875782	0.816817	0.612716
	C188	C	0.171084	0.380873	0.877232
	C189	C	0.175757	0.608191	0.119476
	C190	C	0.817865	0.381455	0.115670
	C191	C	0.815781	0.608965	0.877191
	C192	C	0.401538	0.089052	0.599194
	C193	C	0.596607	0.901680	0.599784
	C194	C	0.595597	0.089080	0.402294
	C195	C	0.398338	0.903162	0.402701
	C196	C	0.593028	0.397298	0.092587
	C197	C	0.592030	0.592696	0.905006
	C198	C	0.398888	0.592442	0.092332
	C199	C	0.396103	0.392711	0.904875
	C200	C	0.090069	0.594593	0.400463
	C201	C	0.901121	0.594794	0.596283
	C202	C	0.089909	0.400975	0.594924
	C203	C	0.901671	0.396231	0.398931
	C204	C	0.897044	0.589721	0.096694
	C205	C	0.092396	0.401681	0.096404
	C206	C	0.094725	0.588816	0.901372
	C207	C	0.896217	0.402298	0.897641
	C208	C	0.093516	0.899772	0.592368
	C209	C	0.094987	0.094119	0.405036
	C210	C	0.901462	0.094978	0.592403
	C211	C	0.896323	0.895697	0.404921
	C212	C	0.590234	0.091111	0.905875
	C213	C	0.401317	0.091536	0.098504
	C214	C	0.591046	0.895574	0.099607
	C215	C	0.401548	0.894640	0.900075
	Zn216	Zn	0.497557	-0.005558	0.751321
	Zn217	Zn	0.496641	-0.005398	0.250242
	Zn218	Zn	0.744638	0.494864	-0.002603
	Zn219	Zn	0.245932	0.493675	-0.002010
	Zn220	Zn	-0.004152	0.745450	0.498424
	Zn221	Zn	-0.002572	0.246808	0.496844
	Zn222	Zn	-0.004479	0.496857	0.747461
	Zn223	Zn	-0.005536	0.496164	0.248504
	Zn224	Zn	0.495204	0.744687	-0.000358
	Zn225	Zn	0.495167	0.243142	0.000571
	Zn226	Zn	0.747423	-0.004513	0.500813
	Zn227	Zn	0.247010	-0.002607	0.500452
	N228	N	0.412822	0.957977	0.677013
	N229	N	0.586708	0.030854	0.683295
	N230	N	0.584112	0.958934	0.320499
	N231	N	0.409928	0.031720	0.320364
	N232	N	0.673164	0.407636	0.961763
	N233	N	0.673521	0.580008	0.035337
	N234	N	0.318730	0.577991	0.961097
	N235	N	0.316256	0.407465	0.035265
	N236	N	0.958652	0.673449	0.412779
	N237	N	0.031873	0.676443	0.586115
	N238	N	0.960142	0.317569	0.583026
	N239	N	0.032674	0.316276	0.409312
	N240	N	0.958556	0.411762	0.674372
	N241	N	0.031682	0.584424	0.678596
	N242	N	0.958781	0.582365	0.319394
	N243	N	0.032026	0.409799	0.318252
	N244	N	0.407685	0.674350	0.962974
	N245	N	0.582260	0.673995	0.035681
	N246	N	0.581640	0.313278	0.963678
	N247	N	0.407142	0.313312	0.035455
	N248	N	0.673356	0.958049	0.416644
	N249	N	0.677496	0.032287	0.588214
	N250	N	0.316671	0.960847	0.587732
	N251	N	0.318397	0.033384	0.414262
	N252	N	0.907272	0.460132	0.177696
	N253	N	0.081575	0.532205	0.177178
	N254	N	0.082184	0.460231	0.817906
	N255	N	0.908205	0.532760	0.818210
	N256	N	0.174372	0.911371	0.462433
	N257	N	0.175889	0.083975	0.535988
	N258	N	0.819045	0.080113	0.462399
	N259	N	0.818935	0.909941	0.537071
	N260	N	0.458967	0.170646	0.915351
	N261	N	0.531410	0.174643	0.088996
	N262	N	0.459071	0.815491	0.086113
	N263	N	0.532525	0.815199	0.913956
	N264	N	0.459971	0.907779	0.179304
	N265	N	0.533274	0.079536	0.178237
	N266	N	0.460289	0.079203	0.822557
	N267	N	0.533457	0.906723	0.820893
	N268	N	0.910391	0.174303	0.461688
	N269	N	0.086227	0.178927	0.533469
	N270	N	0.082343	0.816806	0.462393
	N271	N	0.909081	0.815465	0.535031
	N272	N	0.172486	0.457380	0.912978
	N273	N	0.175553	0.531178	0.084919
	N274	N	0.817984	0.458240	0.081324
	N275	N	0.814623	0.531751	0.910570
	O276	O	0.000067	-0.026025	0.039745
	H277	H	0.000088	-0.025482	0.053211
	H278	H	-0.003748	-0.023876	0.029087
	O279	O	0.606402	0.419175	0.382899
	H280	H	0.595593	0.420652	0.378423
	H281	H	0.601292	0.404045	0.378422
	O282	O	1.064217	-0.113236	0.032410
	H283	H	1.065658	-0.114847	0.031537
	H284	H	1.073709	-0.115982	0.026516
	O285	O	0.067193	1.042523	0.094960
	H286	H	0.082967	1.051980	0.112414
	H287	H	0.069905	1.055815	0.092579
	O288	O	0.488444	0.512955	0.529095
	H289	H	0.485064	0.510355	0.511462
	H290	H	0.480262	0.500186	0.534131
	O291	O	0.542822	0.527871	0.564597
	H292	H	0.552228	0.542859	0.555834
	H293	H	0.524401	0.514134	0.566072
	O294	O	0.984588	1.023884	1.107946
	H295	H	0.983466	1.022919	1.115595
	H296	H	0.979026	1.022771	1.121489
	O297	O	0.009398	0.028638	-0.106521
	H298	H	0.019949	0.028351	-0.098896
	H299	H	-0.000871	0.030616	-0.086645
	O300	O	0.622247	0.630587	0.633856
	H301	H	0.626515	0.647810	0.640632
	H302	H	0.623423	0.641059	0.614405
	O303	O	0.135808	0.990268	0.897499
	H304	H	0.132112	0.978744	0.879032
	H305	H	0.132319	0.993381	0.891389
	O306	O	0.465572	0.590617	0.549598
	H307	H	0.453778	0.600549	0.554603
	H308	H	0.458384	0.593233	0.552088
	O309	O	1.089237	0.082551	0.094740
	H310	H	1.092453	0.091013	0.121154
	H311	H	1.097573	0.080555	0.082937
	O312	O	0.023179	-0.114609	1.107604
	H313	H	0.014894	-0.117523	1.119340
	H314	H	0.020035	-0.119404	1.103595
	O315	O	0.414206	0.677030	0.438871
	H316	H	0.422226	0.660994	0.427679
	H317	H	0.400067	0.681347	0.426110
	O318	O	0.406288	0.435368	0.426410
	H319	H	0.409727	0.458605	0.423560
	H320	H	0.413805	0.443971	0.443710
	O321	O	0.444684	0.501865	0.464931
	H322	H	0.452722	0.493670	0.461595
	H323	H	0.446842	0.500687	0.460225
	O324	O	0.496065	0.318091	0.374007
	H325	H	0.496581	0.315566	0.382107
	H326	H	0.507319	0.324432	0.375006
	O327	O	-0.079278	1.124143	0.834417
	H328	H	-0.082559	1.126967	0.825432
	H329	H	-0.081450	1.127963	0.837419
	O330	O	0.512871	0.478617	0.527970
	H331	H	0.499361	0.474713	0.544779
	H332	H	0.516976	0.479378	0.526273
	O333	O	-0.118244	1.007820	0.978373
	H334	H	-0.122568	1.021673	0.983151
	H335	H	-0.117275	1.004416	0.967301
	O336	O	0.998232	1.032085	1.000604
	H337	H	0.990052	1.039130	0.991872
	H338	H	1.009232	1.036459	1.007138
	O339	O	0.458581	0.416366	0.317055
	H340	H	0.445276	0.435704	0.321077
	H341	H	0.483884	0.401164	0.302565
	O342	O	1.005998	-0.079619	0.008546
	H343	H	1.023752	-0.075240	-0.000157
	H344	H	1.002188	-0.072762	-0.001908
	O345	O	0.675329	0.408605	0.377581
	H346	H	0.683765	0.393216	0.377648
	H347	H	0.664942	0.393009	0.378764
	O348	O	1.248527	1.316797	0.764128
	H349	H	1.252231	1.316248	0.772748
	H350	H	1.262059	1.327082	0.772955
	O351	O	0.912781	0.955304	0.081017
	H352	H	0.915043	0.961606	0.080263
	H353	H	0.906318	0.941806	0.092551
	O354	O	0.394180	0.391292	0.495351
	H355	H	0.395646	0.380149	0.496678
	H356	H	0.374709	0.383600	0.508229
	O357	O	0.360759	0.323352	0.587613
	H358	H	0.378197	0.319981	0.569914
	H359	H	0.373031	0.316298	0.590900
	O360	O	-0.052518	-0.029162	-0.095826
	H361	H	-0.051172	-0.025886	-0.079219
	H362	H	-0.052370	-0.021415	-0.105793
	O363	O	0.629776	0.383033	0.494918
	H364	H	0.624128	0.382294	0.503234
	H365	H	0.627486	0.378917	0.491938
	O366	O	0.476907	0.520263	0.627865
	H367	H	0.482979	0.526753	0.626694
	H368	H	0.481985	0.530105	0.636092
	O369	O	0.334561	0.449700	0.495930
	H370	H	0.339790	0.445442	0.505009
	H371	H	0.336028	0.459560	0.495244
	O372	O	0.650586	0.372182	0.551575
	H373	H	0.652015	0.380880	0.544712
	H374	H	0.639130	0.377789	0.570335
	O375	O	0.649378	0.549194	0.628441
	H376	H	0.660299	0.565954	0.620322
	H377	H	0.655301	0.563476	0.634786
	O378	O	0.456235	0.602215	0.331902
	H379	H	0.450710	0.598293	0.338235
	H380	H	0.450794	0.589663	0.332555
	O381	O	0.405281	0.640626	0.424364
	H382	H	0.409538	0.657724	0.405697
	H383	H	0.381619	0.625622	0.435225
	O384	O	-0.087166	1.088668	0.049733
	H385	H	-0.084476	1.083126	0.065051
	H386	H	-0.091731	1.083140	0.038295
	O387	O	0.875659	0.059625	1.072609
	H388	H	0.864515	0.062215	1.068735
	H389	H	0.870643	0.069203	1.076118
	O390	O	0.053531	0.987777	-0.060463
	H391	H	0.057231	0.989034	-0.069593
	H392	H	0.056025	0.976097	-0.077521
	O393	O	1.146821	1.051602	0.061214
	H394	H	1.141876	1.046242	0.059876
	H395	H	1.142387	1.054767	0.038958
	O396	O	0.616561	0.608267	0.640301
	H397	H	0.603509	0.614117	0.636551
	H398	H	0.622151	0.625133	0.648116
	O399	O	0.093324	1.051197	0.965143
	H400	H	0.094280	1.057840	0.966245
	H401	H	0.101383	1.048485	0.950163
	O402	O	0.995822	0.928798	0.864003
	H403	H	0.987716	0.919320	0.872366
	H404	H	0.980052	0.931416	0.867302
	O405	O	0.380931	0.622703	0.570395
	H406	H	0.375598	0.624393	0.576238
	H407	H	0.386847	0.625445	0.560834
