data_Molecule from HDF5

_cell_length_a		16.150244
_cell_length_b		16.468769
_cell_length_c		16.270907
_cell_angle_alpha	89.873940
_cell_angle_beta	90.188978
_cell_angle_gamma	90.420873
_symmetry_space_group_name_H-M	'P 1'
_symmetry_Int_Tables_number		1

loop_
	_symmetry_equiv_pos_as_xyz
	x,y,z

loop_
	_atom_site_label
	_atom_site_type_symbol
	_atom_site_fract_x
	_atom_site_fract_y
	_atom_site_fract_z
	H0	H	0.397210	0.823828	0.700522
	H1	H	0.604313	0.144357	0.704327
	H2	H	0.605105	0.825333	0.263947
	H3	H	0.399201	0.144649	0.264192
	H4	H	0.712653	0.386542	0.819009
	H5	H	0.715621	0.583671	0.145445
	H6	H	0.284689	0.581700	0.819782
	H7	H	0.281843	0.382382	0.145232
	H8	H	0.837207	0.705255	0.376320
	H9	H	0.160970	0.704659	0.586184
	H10	H	0.837523	0.263588	0.587917
	H11	H	0.160571	0.268645	0.378379
	H12	H	0.833464	0.384837	0.696066
	H13	H	0.160840	0.587757	0.700345
	H14	H	0.834594	0.584747	0.267353
	H15	H	0.161195	0.386823	0.266841
	H16	H	0.395464	0.702874	0.822556
	H17	H	0.607097	0.704130	0.143821
	H18	H	0.604394	0.263913	0.822209
	H19	H	0.394803	0.263950	0.143831
	H20	H	0.716360	0.824647	0.383291
	H21	H	0.719001	0.145528	0.585659
	H22	H	0.280692	0.824879	0.584009
	H23	H	0.286378	0.147036	0.382764
	H24	H	0.894149	0.325012	0.201783
	H25	H	0.102660	0.645020	0.200155
	H26	H	0.097621	0.325823	0.762425
	H27	H	0.894376	0.646017	0.762792
	H28	H	0.212923	0.890482	0.319251
	H29	H	0.215298	0.085557	0.647188
	H30	H	0.782634	0.084262	0.320752
	H31	H	0.783964	0.884408	0.646144
	H32	H	0.337005	0.200275	0.877686
	H33	H	0.660572	0.204561	0.086729
	H34	H	0.338321	0.765490	0.086829
	H35	H	0.662273	0.767048	0.880876
	H36	H	0.336731	0.883603	0.198536
	H37	H	0.663212	0.086022	0.199075
	H38	H	0.335643	0.081441	0.768852
	H39	H	0.663308	0.885049	0.769242
	H40	H	0.895311	0.203515	0.321075
	H41	H	0.104741	0.206320	0.644749
	H42	H	0.104127	0.768088	0.322174
	H43	H	0.894908	0.764591	0.643235
	H44	H	0.213692	0.324389	0.879469
	H45	H	0.217001	0.644711	0.082349
	H46	H	0.780765	0.324314	0.081913
	H47	H	0.782290	0.646958	0.881870
	H48	H	0.410564	0.099200	0.575187
	H49	H	0.586773	0.872274	0.573209
	H50	H	0.603521	0.101998	0.394687
	H51	H	0.406893	0.871340	0.395273
	H52	H	0.581132	0.395386	0.095063
	H53	H	0.580602	0.572175	0.871178
	H54	H	0.415514	0.573097	0.096345
	H55	H	0.404087	0.386168	0.864174
	H56	H	0.115445	0.578706	0.389345
	H57	H	0.877205	0.587985	0.572031
	H58	H	0.109002	0.408012	0.568147
	H59	H	0.882827	0.398328	0.391439
	H60	H	0.118251	0.395445	0.583932
	H61	H	0.887283	0.572209	0.559158
	H62	H	0.114763	0.581372	0.394276
	H63	H	0.879939	0.390385	0.389624
	H64	H	0.408366	0.581386	0.101679
	H65	H	0.586384	0.586802	0.865052
	H66	H	0.587769	0.386946	0.098817
	H67	H	0.404096	0.395438	0.867350
	H68	H	0.585484	0.101140	0.379049
	H69	H	0.594303	0.870520	0.576818
	H70	H	0.408003	0.100302	0.577796
	H71	H	0.403279	0.868831	0.390855
	H72	H	0.907846	0.598717	0.072866
	H73	H	0.091713	0.368402	0.076549
	H74	H	0.084322	0.595373	0.898532
	H75	H	0.896788	0.368110	0.886433
	H76	H	0.086661	0.899209	0.596824
	H77	H	0.090570	0.088493	0.364582
	H78	H	0.908746	0.081246	0.600991
	H79	H	0.914767	0.892776	0.369251
	H80	H	0.617415	0.076230	0.893296
	H81	H	0.379196	0.084013	0.073340
	H82	H	0.615459	0.894450	0.070360
	H83	H	0.381992	0.887745	0.893661
	H84	H	0.617128	0.896865	0.076362
	H85	H	0.386350	0.069611	0.064675
	H86	H	0.615082	0.076960	0.898322
	H87	H	0.385402	0.893336	0.898095
	H88	H	0.908637	0.072602	0.597942
	H89	H	0.098196	0.075441	0.366825
	H90	H	0.084352	0.890455	0.597974
	H91	H	0.903659	0.891811	0.364522
	H92	H	0.099059	0.601457	0.892548
	H93	H	0.084113	0.370263	0.079643
	H94	H	0.906501	0.599991	0.075259
	H95	H	0.913437	0.372096	0.884178
	H96	H	0.411283	0.099614	0.578788
	H97	H	0.587576	0.869558	0.580816
	H98	H	0.581648	0.093028	0.401075
	H99	H	0.409404	0.870396	0.389421
	H100	H	0.592736	0.397119	0.096772
	H101	H	0.597006	0.573706	0.866015
	H102	H	0.403363	0.570346	0.099123
	H103	H	0.411964	0.390024	0.868209
	H104	H	0.114481	0.575613	0.394054
	H105	H	0.880765	0.567874	0.579890
	H106	H	0.114664	0.387074	0.564098
	H107	H	0.882436	0.392045	0.397701
	H108	H	0.908681	0.600081	0.075053
	H109	H	0.085994	0.372064	0.071120
	H110	H	0.086320	0.600256	0.882403
	H111	H	0.906312	0.375039	0.899321
	H112	H	0.093066	0.893580	0.599823
	H113	H	0.083660	0.076521	0.371260
	H114	H	0.916648	0.076936	0.596983
	H115	H	0.908023	0.901826	0.369581
	H116	H	0.614246	0.072265	0.895872
	H117	H	0.381609	0.068401	0.082140
	H118	H	0.618512	0.890945	0.075033
	H119	H	0.382189	0.894970	0.891144
	C120	C	0.377880	-0.006403	0.606809
	C121	C	0.621685	0.976487	0.607243
	C122	C	0.621153	-0.006935	0.361824
	C123	C	0.377697	0.976435	0.361318
	C124	C	0.618714	0.363267	-0.009565
	C125	C	0.620223	0.606974	0.974058
	C126	C	0.378025	0.605173	-0.008033
	C127	C	0.376284	0.360858	0.973787
	C128	C	0.007296	0.607842	0.361196
	C129	C	0.989209	0.607490	0.602988
	C130	C	0.006645	0.364839	0.603110
	C131	C	0.989519	0.364392	0.361859
	C132	C	0.876381	0.493573	0.104603
	C133	C	0.119473	0.476008	0.105100
	C134	C	0.119130	0.493512	0.860237
	C135	C	0.875149	0.477594	0.859930
	C136	C	0.119419	0.865521	0.491307
	C137	C	0.121816	0.109412	0.474761
	C138	C	0.879019	0.107048	0.491663
	C139	C	0.877821	0.864037	0.474477
	C140	C	0.507972	0.104580	0.863601
	C141	C	0.490350	0.105284	0.104269
	C142	C	0.509599	0.863037	0.104782
	C143	C	0.490976	0.863032	0.863583
	C144	C	0.377541	0.872261	0.662791
	C145	C	0.623200	0.096618	0.665205
	C146	C	0.622689	0.872926	0.303780
	C147	C	0.379506	0.096928	0.303548
	C148	C	0.675515	0.365396	0.868140
	C149	C	0.678079	0.604640	0.096512
	C150	C	0.321842	0.602925	0.869243
	C151	C	0.319440	0.361872	0.096032
	C152	C	0.885170	0.665434	0.359113
	C153	C	0.111903	0.665848	0.604997
	C154	C	0.885131	0.304341	0.605127
	C155	C	0.112034	0.307539	0.360348
	C156	C	0.883135	0.364775	0.658904
	C157	C	0.111763	0.607734	0.661786
	C158	C	0.884083	0.605802	0.304419
	C159	C	0.112160	0.365859	0.304275
	C160	C	0.377013	0.663210	0.870616
	C161	C	0.623789	0.664478	0.095686
	C162	C	0.621325	0.304553	0.869663
	C163	C	0.375570	0.302839	0.095359
	C164	C	0.678154	0.872451	0.363187
	C165	C	0.680336	0.097198	0.606250
	C166	C	0.319657	0.872883	0.604675
	C167	C	0.323054	0.098032	0.362620
	C168	C	0.875405	0.373070	0.162338
	C169	C	0.121227	0.596889	0.161577
	C170	C	0.117724	0.373321	0.801932
	C171	C	0.875733	0.598099	0.802456
	C172	C	0.175662	0.868933	0.368495
	C173	C	0.177817	0.106512	0.597847
	C174	C	0.821126	0.104924	0.369502
	C175	C	0.821381	0.864364	0.597053
	C176	C	0.385518	0.161385	0.860591
	C177	C	0.612458	0.164681	0.105430
	C178	C	0.386846	0.804746	0.105540
	C179	C	0.613503	0.806013	0.862702
	C180	C	0.386149	0.863218	0.161248
	C181	C	0.613635	0.105771	0.161261
	C182	C	0.385040	0.102619	0.805967
	C183	C	0.614194	0.864682	0.806872
	C184	C	0.877153	0.164446	0.369671
	C185	C	0.122898	0.166706	0.596526
	C186	C	0.121350	0.808070	0.369836
	C187	C	0.876393	0.804607	0.595442
	C188	C	0.175420	0.372623	0.860145
	C189	C	0.178175	0.596712	0.102990
	C190	C	0.818808	0.372609	0.102688
	C191	C	0.819784	0.598656	0.861697
	C192	C	0.402604	0.077872	0.583982
	C193	C	0.596841	0.892540	0.583785
	C194	C	0.597325	0.076861	0.385011
	C195	C	0.400137	0.892208	0.384950
	C196	C	0.594205	0.386350	0.074950
	C197	C	0.595115	0.584089	0.889412
	C198	C	0.402039	0.581759	0.077032
	C199	C	0.399970	0.383970	0.888782
	C200	C	0.092649	0.585173	0.385506
	C201	C	0.903917	0.583229	0.577678
	C202	C	0.091903	0.389622	0.579018
	C203	C	0.904075	0.387014	0.386051
	C204	C	0.900663	0.577929	0.081248
	C205	C	0.094607	0.392138	0.082407
	C206	C	0.096573	0.577352	0.884298
	C207	C	0.898519	0.393393	0.883210
	C208	C	0.095133	0.888038	0.576191
	C209	C	0.097798	0.086928	0.389638
	C210	C	0.904072	0.083826	0.576554
	C211	C	0.901872	0.888223	0.389855
	C212	C	0.593386	0.081860	0.888674
	C213	C	0.404722	0.081101	0.080521
	C214	C	0.594823	0.886963	0.081040
	C215	C	0.405396	0.885548	0.887198
	Zn216	Zn	0.499532	-0.015727	0.736408
	Zn217	Zn	0.500221	-0.016134	0.232285
	Zn218	Zn	0.746638	0.485632	-0.018353
	Zn219	Zn	0.248414	0.483458	-0.017256
	Zn220	Zn	-0.001167	0.735680	0.481935
	Zn221	Zn	-0.000781	0.237071	0.483081
	Zn222	Zn	-0.003310	0.485822	0.730339
	Zn223	Zn	-0.002033	0.486081	0.234370
	Zn224	Zn	0.499830	0.734602	-0.015490
	Zn225	Zn	0.498296	0.232934	-0.017495
	Zn226	Zn	0.749844	-0.014861	0.483880
	Zn227	Zn	0.249165	-0.013618	0.483494
	N228	N	0.413069	0.948470	0.664088
	N229	N	0.587580	0.020564	0.666005
	N230	N	0.588051	0.948977	0.302643
	N231	N	0.412826	0.020443	0.302698
	N232	N	0.674110	0.401317	0.944233
	N233	N	0.675934	0.569527	0.019981
	N234	N	0.322353	0.567423	0.945787
	N235	N	0.319336	0.397003	0.019363
	N236	N	0.962949	0.666990	0.393594
	N237	N	0.034669	0.665757	0.569290
	N238	N	0.963047	0.304429	0.571157
	N239	N	0.034713	0.306586	0.395391
	N240	N	0.959694	0.401734	0.657708
	N241	N	0.034492	0.572210	0.660624
	N242	N	0.961068	0.570816	0.305581
	N243	N	0.035133	0.400652	0.305146
	N244	N	0.411216	0.664798	0.948068
	N245	N	0.588353	0.665898	0.018762
	N246	N	0.586654	0.303100	0.946614
	N247	N	0.409881	0.301825	0.018157
	N248	N	0.677263	0.948022	0.398696
	N249	N	0.679328	0.021473	0.570893
	N250	N	0.319710	0.949358	0.570714
	N251	N	0.321636	0.021947	0.397917
	N252	N	0.910129	0.449486	0.163661
	N253	N	0.085610	0.520777	0.163150
	N254	N	0.083423	0.449360	0.801826
	N255	N	0.909272	0.521619	0.800946
	N256	N	0.174690	0.903833	0.445052
	N257	N	0.177646	0.071775	0.520964
	N258	N	0.822085	0.069980	0.446300
	N259	N	0.822083	0.900593	0.520852
	N260	N	0.463103	0.163035	0.895375
	N261	N	0.534751	0.164421	0.070667
	N262	N	0.464638	0.804224	0.071491
	N263	N	0.535887	0.804860	0.897309
	N264	N	0.463505	0.898562	0.161123
	N265	N	0.536741	0.069336	0.160506
	N266	N	0.462176	0.067916	0.807713
	N267	N	0.537000	0.899413	0.807400
	N268	N	0.912415	0.165765	0.446782
	N269	N	0.088848	0.168639	0.519011
	N270	N	0.087040	0.805945	0.447113
	N271	N	0.910615	0.804196	0.518279
	N272	N	0.176522	0.448281	0.895698
	N273	N	0.177445	0.520635	0.068719
	N274	N	0.819270	0.448610	0.067339
	N275	N	0.819391	0.522656	0.896801
	O276	O	0.623635	0.539324	0.658790
	H277	H	0.634279	0.536971	0.653889
	H278	H	0.605374	0.548838	0.663413
	O279	O	0.481107	0.605491	0.602325
	H280	H	0.479164	0.608210	0.592347
	H281	H	0.486949	0.610245	0.601429
	O282	O	1.141385	-0.138967	0.810222
	H283	H	1.144681	-0.144394	0.808893
	H284	H	1.154129	-0.139905	0.816678
	O285	O	0.613826	0.603746	0.375319
	H286	H	0.605372	0.606468	0.387880
	H287	H	0.619269	0.602806	0.386319
	O288	O	0.964245	1.086207	1.013705
	H289	H	0.965429	1.096065	1.013685
	H290	H	0.966299	1.091246	1.008091
	O291	O	0.117960	0.994842	-0.066425
	H292	H	0.113367	0.986912	-0.072523
	H293	H	0.117674	1.002377	-0.066433
	O294	O	0.444677	0.543012	0.315896
	H295	H	0.452341	0.544408	0.303914
	H296	H	0.454015	0.537683	0.316270
	O297	O	0.430704	0.651150	0.440042
	H298	H	0.405707	0.648711	0.429637
	H299	H	0.423637	0.650207	0.429583
	O300	O	0.535344	0.559553	0.561249
	H301	H	0.555186	0.557290	0.571521
	H302	H	0.527210	0.573755	0.540700
	O303	O	0.460834	0.314417	0.594989
	H304	H	0.469339	0.316344	0.603685
	H305	H	0.459448	0.313102	0.596131
	O306	O	0.506408	0.465307	0.415091
	H307	H	0.509109	0.467374	0.419048
	H308	H	0.495185	0.467417	0.411944
	O309	O	0.498531	0.424002	0.504851
	H310	H	0.505766	0.416661	0.515731
	H311	H	0.491355	0.423162	0.496832
	O312	O	0.136739	-0.008091	0.106547
	H313	H	0.125973	0.002404	0.104346
	H314	H	0.153891	-0.003320	0.120923
	O315	O	0.553106	0.437983	0.421358
	H316	H	0.558341	0.425654	0.416950
	H317	H	0.558506	0.441345	0.416718
	O318	O	-0.141690	0.828105	1.096165
	H319	H	-0.153202	0.834031	1.090831
	H320	H	-0.149164	0.821182	1.065183
	O321	O	0.379462	0.468468	0.398876
	H322	H	0.387555	0.478466	0.402822
	H323	H	0.378052	0.450034	0.403344
	O324	O	-0.145101	1.001797	0.016102
	H325	H	-0.132051	0.997998	0.006602
	H326	H	-0.149333	1.004178	0.006568
	O327	O	0.340353	0.625684	0.369735
	H328	H	0.349621	0.620623	0.367144
	H329	H	0.341928	0.607856	0.360114
	O330	O	-0.013685	0.014076	0.951806
	H331	H	-0.011124	0.009804	0.948160
	H332	H	-0.011485	0.023132	0.949471
	O333	O	-0.003618	0.159819	1.072109
	H334	H	-0.007961	0.158282	1.090917
	H335	H	-0.013625	0.142774	1.080961
	O336	O	0.518822	0.349480	0.621728
	H337	H	0.501166	0.354687	0.630632
	H338	H	0.538115	0.356918	0.608864
	O339	O	0.474199	0.469933	0.491004
	H340	H	0.478274	0.466709	0.492934
	H341	H	0.479929	0.464268	0.500852
	O342	O	0.319141	-0.479390	0.458826
	H343	H	0.299719	-0.482256	0.437799
	H344	H	0.327098	-0.487229	0.457354
	O345	O	1.561204	0.531972	1.490503
	H346	H	1.543247	0.542220	1.490989
	H347	H	1.564370	0.530286	1.487909
	O348	O	1.062266	0.877516	0.128537
	H349	H	1.056821	0.865284	0.133453
	H350	H	1.058946	0.875921	0.142416
	O351	O	0.670017	0.387211	0.408101
	H352	H	0.669011	0.388270	0.395641
	H353	H	0.680843	0.376065	0.408730
	O354	O	1.047119	-0.047440	0.982055
	H355	H	1.051153	-0.059035	0.971244
	H356	H	1.043226	-0.050218	0.983102
	O357	O	0.399177	0.416148	0.552985
	H358	H	0.398260	0.421089	0.560614
	H359	H	0.385170	0.393096	0.549948
	O360	O	1.004931	0.869634	0.970323
	H361	H	1.014743	0.869788	0.956643
	H362	H	1.001358	0.881567	0.966077
	O363	O	-0.116000	0.845642	1.087499
	H364	H	-0.124691	0.835050	1.077896
	H365	H	-0.120174	0.857989	1.081161
	O366	O	0.586628	0.318653	0.387423
	H367	H	0.586659	0.313366	0.385322
	H368	H	0.573937	0.320256	0.392761
	O369	O	0.186999	1.170340	0.059007
	H370	H	0.193641	1.168852	0.081686
	H371	H	0.199211	1.177950	0.059767
	O372	O	0.327143	0.299477	0.621206
	H373	H	0.326972	0.298076	0.633972
	H374	H	0.322527	0.302310	0.634789
	O375	O	0.511388	0.469998	0.387004
	H376	H	0.513952	0.470561	0.386818
	H377	H	0.518532	0.469065	0.389949
	O378	O	0.990648	0.968819	-0.034985
	H379	H	1.000758	0.976589	-0.036007
	H380	H	0.998921	0.966997	-0.040366
	O381	O	0.964035	0.064737	-0.065408
	H382	H	0.965395	0.053519	-0.074565
	H383	H	0.968441	0.065896	-0.064666
	O384	O	1.017572	0.893297	0.015737
	H385	H	1.012450	0.890605	0.016504
	H386	H	1.006317	0.900256	0.012414
	O387	O	-0.586078	0.597290	0.419545
	H388	H	-0.576337	0.589368	0.405523
	H389	H	-0.604919	0.598895	0.410472
	O390	O	-0.011639	1.046773	-0.139399
	H391	H	-0.008877	1.049007	-0.134981
	H392	H	-0.006989	1.062504	-0.142384
	O393	O	0.931145	0.950564	1.052970
	H394	H	0.921597	0.946252	1.044199
	H395	H	0.920115	0.941490	1.052872
	O396	O	0.454565	0.426247	0.368053
	H397	H	0.456000	0.422787	0.369492
	H398	H	0.467494	0.421816	0.372382
	O399	O	0.023184	1.034774	1.164880
	H400	H	0.014611	1.020806	1.173725
	H401	H	0.024829	1.029316	1.184378
	O402	O	0.460001	0.564342	0.574224
	H403	H	0.463100	0.574494	0.586521
	H404	H	0.459574	0.574787	0.575990
	O405	O	1.065217	1.062242	-0.084722
	H406	H	1.063900	1.058344	-0.083733
	H407	H	1.064522	1.059103	-0.087388
	O408	O	0.920810	1.097340	-0.162240
	H409	H	0.916636	1.097365	-0.170399
	H410	H	0.916447	1.104825	-0.156970
	O411	O	0.994414	-0.022754	1.851223
	H412	H	1.002234	-0.014966	1.865337
	H413	H	1.001953	-0.027258	1.850211
	O414	O	0.689551	0.579450	0.569184
	H415	H	0.696416	0.587989	0.576682
	H416	H	0.691120	0.578092	0.574532
	O417	O	-0.054962	-0.103807	0.863609
	H418	H	-0.055594	-0.098261	0.859052
	H419	H	-0.040414	-0.114797	0.864201
