data_Molecule from HDF5

_cell_length_a		16.302468
_cell_length_b		16.274413
_cell_length_c		16.171073
_cell_angle_alpha	89.821484
_cell_angle_beta	89.990336
_cell_angle_gamma	90.038085
_symmetry_space_group_name_H-M	'P 1'
_symmetry_Int_Tables_number		1

loop_
	_symmetry_equiv_pos_as_xyz
	x,y,z

loop_
	_atom_site_label
	_atom_site_type_symbol
	_atom_site_fract_x
	_atom_site_fract_y
	_atom_site_fract_z
	H0	H	0.403437	0.835201	0.719036
	H1	H	0.595806	0.164719	0.720491
	H2	H	0.595035	0.835240	0.296349
	H3	H	0.403223	0.163944	0.293752
	H4	H	0.713097	0.400456	0.842666
	H5	H	0.712585	0.597319	0.172289
	H6	H	0.284243	0.597874	0.842979
	H7	H	0.283968	0.400425	0.172089
	H8	H	0.835190	0.716128	0.407990
	H9	H	0.162788	0.715207	0.605574
	H10	H	0.836141	0.284463	0.607364
	H11	H	0.162583	0.286528	0.407789
	H12	H	0.834305	0.403970	0.720049
	H13	H	0.162427	0.597924	0.721266
	H14	H	0.834731	0.597812	0.293836
	H15	H	0.162748	0.404253	0.293797
	H16	H	0.400829	0.712673	0.842646
	H17	H	0.596910	0.712798	0.172696
	H18	H	0.594400	0.287900	0.841714
	H19	H	0.400049	0.285483	0.172352
	H20	H	0.714275	0.837345	0.408224
	H21	H	0.713168	0.164171	0.605708
	H22	H	0.283341	0.836640	0.607675
	H23	H	0.284812	0.163973	0.407515
	H24	H	0.900511	0.336178	0.223608
	H25	H	0.095109	0.664764	0.218940
	H26	H	0.095955	0.336484	0.793915
	H27	H	0.901713	0.664655	0.793279
	H28	H	0.212404	0.903787	0.343228
	H29	H	0.213634	0.099552	0.672229
	H30	H	0.784147	0.101107	0.342800
	H31	H	0.784563	0.902365	0.671472
	H32	H	0.334468	0.213970	0.906986
	H33	H	0.661026	0.215036	0.107167
	H34	H	0.334949	0.783655	0.107585
	H35	H	0.662124	0.784502	0.908435
	H36	H	0.334993	0.901291	0.222382
	H37	H	0.662721	0.096309	0.219924
	H38	H	0.334336	0.096055	0.793156
	H39	H	0.663023	0.903983	0.794297
	H40	H	0.902007	0.214217	0.342241
	H41	H	0.095808	0.212819	0.672829
	H42	H	0.096173	0.789385	0.342303
	H43	H	0.900185	0.786713	0.672120
	H44	H	0.211857	0.335979	0.908898
	H45	H	0.214918	0.662276	0.107433
	H46	H	0.783884	0.336082	0.107211
	H47	H	0.782983	0.664118	0.906905
	H48	H	0.397621	0.119193	0.597713
	H49	H	0.601813	0.880260	0.601905
	H50	H	0.592695	0.116932	0.415022
	H51	H	0.397245	0.882402	0.418263
	H52	H	0.602296	0.403057	0.128822
	H53	H	0.591683	0.599026	0.887522
	H54	H	0.403561	0.580797	0.122436
	H55	H	0.408880	0.416737	0.894576
	H56	H	0.116571	0.594475	0.411156
	H57	H	0.880233	0.606614	0.596187
	H58	H	0.119088	0.397266	0.602017
	H59	H	0.884399	0.419186	0.411873
	H60	H	0.112323	0.408714	0.591610
	H61	H	0.886918	0.586250	0.591987
	H62	H	0.116665	0.599155	0.413032
	H63	H	0.877632	0.398760	0.407201
	H64	H	0.415254	0.594247	0.123462
	H65	H	0.595992	0.587309	0.890330
	H66	H	0.589002	0.416220	0.121389
	H67	H	0.411427	0.395749	0.888966
	H68	H	0.592889	0.117547	0.413035
	H69	H	0.587606	0.882669	0.608388
	H70	H	0.407864	0.118340	0.607313
	H71	H	0.405276	0.881067	0.407945
	H72	H	0.903796	0.613821	0.090075
	H73	H	0.092405	0.380002	0.109484
	H74	H	0.095812	0.613921	0.929944
	H75	H	0.912130	0.383129	0.904454
	H76	H	0.081155	0.918548	0.618796
	H77	H	0.080009	0.092742	0.393783
	H78	H	0.911196	0.098950	0.624732
	H79	H	0.913934	0.898047	0.388905
	H80	H	0.616432	0.096339	0.911411
	H81	H	0.381850	0.087144	0.105975
	H82	H	0.616958	0.896002	0.098087
	H83	H	0.379733	0.902090	0.910643
	H84	H	0.611548	0.911566	0.092635
	H85	H	0.379037	0.099174	0.101189
	H86	H	0.613978	0.095046	0.917279
	H87	H	0.382580	0.903578	0.918016
	H88	H	0.898167	0.094571	0.626968
	H89	H	0.096255	0.106465	0.384670
	H90	H	0.087009	0.892176	0.629513
	H91	H	0.893873	0.909003	0.386402
	H92	H	0.101766	0.622213	0.905771
	H93	H	0.083944	0.385391	0.098219
	H94	H	0.896532	0.620275	0.104502
	H95	H	0.908963	0.389141	0.926030
	H96	H	0.410526	0.113492	0.594284
	H97	H	0.590306	0.886331	0.593504
	H98	H	0.591646	0.116847	0.413428
	H99	H	0.409657	0.885420	0.420076
	H100	H	0.583004	0.397839	0.124559
	H101	H	0.583547	0.590860	0.893015
	H102	H	0.398280	0.597024	0.129233
	H103	H	0.392497	0.405683	0.886008
	H104	H	0.114887	0.594844	0.415945
	H105	H	0.879479	0.591458	0.611972
	H106	H	0.116017	0.413179	0.608305
	H107	H	0.885213	0.403430	0.427261
	H108	H	0.912556	0.615911	0.104382
	H109	H	0.098788	0.382741	0.095326
	H110	H	0.078404	0.613903	0.910374
	H111	H	0.891769	0.379860	0.914501
	H112	H	0.107320	0.912346	0.628701
	H113	H	0.100884	0.084491	0.390474
	H114	H	0.908302	0.085210	0.622002
	H115	H	0.912219	0.920228	0.395181
	H116	H	0.613963	0.090812	0.912754
	H117	H	0.384600	0.090430	0.092766
	H118	H	0.615974	0.909113	0.109608
	H119	H	0.383335	0.909857	0.912268
	C120	C	0.377062	0.008637	0.628800
	C121	C	0.620763	0.991783	0.628846
	C122	C	0.620461	0.008854	0.385783
	C123	C	0.376685	0.991521	0.386363
	C124	C	0.619762	0.377547	0.016002
	C125	C	0.619222	0.620492	0.999214
	C126	C	0.377063	0.619910	0.016080
	C127	C	0.375936	0.377311	0.998570
	C128	C	0.007169	0.623454	0.385270
	C129	C	0.990618	0.622959	0.629121
	C130	C	0.007557	0.378566	0.629431
	C131	C	0.990625	0.379490	0.386451
	C132	C	0.876190	0.508312	0.129133
	C133	C	0.119876	0.491177	0.129073
	C134	C	0.119828	0.508385	0.886648
	C135	C	0.876349	0.492127	0.885864
	C136	C	0.119999	0.879789	0.516400
	C137	C	0.120358	0.122290	0.498903
	C138	C	0.877431	0.122046	0.515628
	C139	C	0.877461	0.879728	0.498663
	C140	C	0.506417	0.121501	0.885163
	C141	C	0.490074	0.120577	0.128766
	C142	C	0.506744	0.877147	0.129377
	C143	C	0.489995	0.877492	0.885325
	C144	C	0.381172	0.884600	0.682713
	C145	C	0.616980	0.115605	0.683157
	C146	C	0.616601	0.884644	0.332809
	C147	C	0.380948	0.114922	0.330880
	C148	C	0.674374	0.380962	0.891615
	C149	C	0.674677	0.617924	0.123323
	C150	C	0.322067	0.618046	0.892116
	C151	C	0.321640	0.379959	0.122925
	C152	C	0.884082	0.678191	0.387647
	C153	C	0.113801	0.677446	0.626375
	C154	C	0.884517	0.323266	0.627227
	C155	C	0.113901	0.324361	0.388076
	C156	C	0.883662	0.382406	0.683424
	C157	C	0.113633	0.619115	0.683834
	C158	C	0.883819	0.619116	0.331118
	C159	C	0.114188	0.383186	0.331674
	C160	C	0.379757	0.675143	0.891992
	C161	C	0.617092	0.674965	0.123575
	C162	C	0.615689	0.324721	0.891201
	C163	C	0.379153	0.322697	0.123082
	C164	C	0.675759	0.885699	0.388488
	C165	C	0.675109	0.115562	0.626289
	C166	C	0.321870	0.885393	0.627217
	C167	C	0.322634	0.114975	0.387734
	C168	C	0.879684	0.385002	0.185203
	C169	C	0.116553	0.615217	0.182660
	C170	C	0.116379	0.385050	0.831954
	C171	C	0.879975	0.615674	0.830676
	C172	C	0.174733	0.882734	0.392266
	C173	C	0.175131	0.119323	0.623052
	C174	C	0.822611	0.120552	0.391618
	C175	C	0.822293	0.881854	0.622570
	C176	C	0.383403	0.176077	0.887231
	C177	C	0.612642	0.176264	0.126584
	C178	C	0.383927	0.821379	0.128139
	C179	C	0.613564	0.823047	0.888100
	C180	C	0.383633	0.880199	0.184555
	C181	C	0.613507	0.117290	0.182914
	C182	C	0.383185	0.117545	0.830479
	C183	C	0.613924	0.882068	0.831401
	C184	C	0.880715	0.177037	0.391527
	C185	C	0.116757	0.175768	0.623347
	C186	C	0.116632	0.826202	0.391750
	C187	C	0.879713	0.824550	0.622873
	C188	C	0.174322	0.385071	0.888746
	C189	C	0.175631	0.614231	0.127001
	C190	C	0.821889	0.384886	0.127440
	C191	C	0.820950	0.615160	0.886971
	C192	C	0.398887	0.094697	0.606436
	C193	C	0.599709	0.905436	0.607410
	C194	C	0.598872	0.094929	0.407407
	C195	C	0.397973	0.905120	0.408749
	C196	C	0.597920	0.399131	0.102535
	C197	C	0.596935	0.598850	0.912636
	C198	C	0.399420	0.597438	0.102618
	C199	C	0.397697	0.399522	0.912036
	C200	C	0.093672	0.602382	0.407064
	C201	C	0.904290	0.601092	0.606711
	C202	C	0.093531	0.400187	0.607373
	C203	C	0.904739	0.400753	0.408886
	C204	C	0.897919	0.594320	0.106353
	C205	C	0.098108	0.405004	0.107437
	C206	C	0.098314	0.594373	0.908777
	C207	C	0.897968	0.406235	0.908444
	C208	C	0.098372	0.901307	0.603264
	C209	C	0.098755	0.100810	0.411980
	C210	C	0.899381	0.099571	0.602115
	C211	C	0.899942	0.902381	0.412423
	C212	C	0.592587	0.100182	0.907346
	C213	C	0.403890	0.098480	0.106672
	C214	C	0.592536	0.899030	0.106763
	C215	C	0.404163	0.898869	0.907334
	Zn216	Zn	0.498624	0.000087	0.756738
	Zn217	Zn	0.498702	-0.000916	0.257711
	Zn218	Zn	0.746980	0.499864	0.007697
	Zn219	Zn	0.248198	0.499186	0.007733
	Zn220	Zn	-0.000980	0.751913	0.507617
	Zn221	Zn	-0.001063	0.250263	0.507292
	Zn222	Zn	-0.001339	0.500420	0.757785
	Zn223	Zn	-0.001231	0.500688	0.257319
	Zn224	Zn	0.498201	0.748570	0.007877
	Zn225	Zn	0.497825	0.249515	0.007335
	Zn226	Zn	0.749156	0.001030	0.507128
	Zn227	Zn	0.248057	0.000771	0.508001
	N228	N	0.414827	0.962114	0.683820
	N229	N	0.583857	0.037745	0.684949
	N230	N	0.583194	0.962254	0.330693
	N231	N	0.414103	0.037168	0.330038
	N232	N	0.677175	0.413019	0.970307
	N233	N	0.675697	0.584574	0.045247
	N234	N	0.320203	0.584436	0.970315
	N235	N	0.319615	0.413230	0.044667
	N236	N	0.961951	0.680898	0.420661
	N237	N	0.036211	0.679721	0.593088
	N238	N	0.962332	0.320732	0.594464
	N239	N	0.036054	0.321853	0.421451
	N240	N	0.961168	0.416055	0.684867
	N241	N	0.035813	0.585836	0.685354
	N242	N	0.961437	0.585976	0.329526
	N243	N	0.036796	0.416694	0.330584
	N244	N	0.413379	0.676244	0.969988
	N245	N	0.583188	0.676592	0.045515
	N246	N	0.582298	0.322528	0.969361
	N247	N	0.412341	0.321037	0.044895
	N248	N	0.678323	0.963934	0.420604
	N249	N	0.677610	0.037698	0.593320
	N250	N	0.319157	0.963573	0.594550
	N251	N	0.319829	0.037337	0.421402
	N252	N	0.912944	0.462747	0.186174
	N253	N	0.082605	0.537822	0.184083
	N254	N	0.083138	0.462744	0.830488
	N255	N	0.913613	0.538149	0.829765
	N256	N	0.176661	0.915567	0.470472
	N257	N	0.177461	0.086909	0.544533
	N258	N	0.820539	0.086781	0.469718
	N259	N	0.820782	0.915543	0.544430
	N260	N	0.461073	0.178587	0.920609
	N261	N	0.534777	0.178314	0.093562
	N262	N	0.461351	0.819721	0.094281
	N263	N	0.535853	0.820161	0.921087
	N264	N	0.461014	0.914042	0.185596
	N265	N	0.536091	0.083623	0.184624
	N266	N	0.460692	0.084296	0.829267
	N267	N	0.536269	0.915342	0.829565
	N268	N	0.913969	0.178125	0.469578
	N269	N	0.083414	0.177733	0.545149
	N270	N	0.083367	0.824455	0.470084
	N271	N	0.913297	0.823196	0.544895
	N272	N	0.176285	0.462600	0.922186
	N273	N	0.177857	0.536201	0.094462
	N274	N	0.819479	0.462583	0.093548
	N275	N	0.818526	0.537384	0.920668
	O276	O	0.931834	0.001314	1.022170
	H277	H	0.927868	-0.004199	1.026421
	H278	H	0.928520	0.002151	1.019415
	O279	O	0.938329	-0.035013	-0.005754
	H280	H	0.934175	-0.036071	-0.007752
	H281	H	0.944034	-0.027355	-0.008623
	O282	O	0.928793	1.006963	-0.020507
	H283	H	0.932356	1.012109	-0.017549
	H284	H	0.930157	1.003246	-0.023282
	O285	O	-0.058591	0.963473	0.017335
	H286	H	-0.069744	0.964534	0.013586
	H287	H	-0.053729	0.962575	0.025629
