data_Molecule from HDF5

_cell_length_a		16.473722
_cell_length_b		16.466628
_cell_length_c		16.507732
_cell_angle_alpha	89.948230
_cell_angle_beta	89.980557
_cell_angle_gamma	89.939704
_symmetry_space_group_name_H-M	'P 1'
_symmetry_Int_Tables_number		1

loop_
	_symmetry_equiv_pos_as_xyz
	x,y,z

loop_
	_atom_site_label
	_atom_site_type_symbol
	_atom_site_fract_x
	_atom_site_fract_y
	_atom_site_fract_z
	H0	H	0.393314	0.840564	0.709230
	H1	H	0.599891	0.155629	0.713746
	H2	H	0.598599	0.842057	0.270567
	H3	H	0.382648	0.154008	0.264305
	H4	H	0.717153	0.391386	0.834697
	H5	H	0.714729	0.600755	0.149573
	H6	H	0.275409	0.601081	0.832431
	H7	H	0.270518	0.389888	0.146770
	H8	H	0.835308	0.715582	0.389495
	H9	H	0.153679	0.716353	0.592829
	H10	H	0.839379	0.273952	0.597258
	H11	H	0.151356	0.272593	0.381259
	H12	H	0.838582	0.390360	0.712821
	H13	H	0.152900	0.602065	0.711603
	H14	H	0.836659	0.601977	0.270578
	H15	H	0.152095	0.391397	0.268217
	H16	H	0.393153	0.716951	0.832235
	H17	H	0.597846	0.717461	0.149075
	H18	H	0.600282	0.275681	0.834563
	H19	H	0.384710	0.272874	0.146514
	H20	H	0.712400	0.840696	0.389748
	H21	H	0.717907	0.154990	0.597032
	H22	H	0.276725	0.839871	0.593695
	H23	H	0.268860	0.154766	0.382709
	H24	H	0.888639	0.338194	0.213250
	H25	H	0.095559	0.655509	0.208616
	H26	H	0.102892	0.339378	0.766965
	H27	H	0.893564	0.656160	0.772455
	H28	H	0.215567	0.894357	0.333679
	H29	H	0.212908	0.100545	0.650449
	H30	H	0.770841	0.105722	0.334257
	H31	H	0.776379	0.896951	0.649236
	H32	H	0.337256	0.223535	0.883719
	H33	H	0.652631	0.219326	0.095548
	H34	H	0.336640	0.780012	0.092338
	H35	H	0.653612	0.780342	0.887704
	H36	H	0.336967	0.895382	0.210712
	H37	H	0.651320	0.105593	0.214178
	H38	H	0.336275	0.106413	0.768106
	H39	H	0.653403	0.898412	0.773171
	H40	H	0.886521	0.221376	0.333535
	H41	H	0.099267	0.218626	0.648326
	H42	H	0.095368	0.781155	0.331262
	H43	H	0.893673	0.780715	0.649339
	H44	H	0.219027	0.339338	0.883013
	H45	H	0.212490	0.655369	0.091757
	H46	H	0.774087	0.338000	0.095149
	H47	H	0.777347	0.656436	0.889996
	H48	H	0.405848	0.112177	0.578862
	H49	H	0.582250	0.884723	0.585237
	H50	H	0.581064	0.114656	0.394124
	H51	H	0.408511	0.886795	0.399805
	H52	H	0.586137	0.409322	0.104344
	H53	H	0.587849	0.590515	0.877303
	H54	H	0.398999	0.591450	0.106833
	H55	H	0.416679	0.420996	0.886456
	H56	H	0.105218	0.581031	0.403636
	H57	H	0.879437	0.589060	0.586726
	H58	H	0.108647	0.407202	0.580142
	H59	H	0.879733	0.408127	0.394114
	H60	H	0.106759	0.409302	0.573797
	H61	H	0.880278	0.592891	0.579828
	H62	H	0.111809	0.587794	0.389454
	H63	H	0.882739	0.403093	0.410690
	H64	H	0.402824	0.584283	0.103521
	H65	H	0.587181	0.587149	0.877822
	H66	H	0.581753	0.411690	0.102659
	H67	H	0.412434	0.398796	0.876743
	H68	H	0.575118	0.108430	0.407521
	H69	H	0.582484	0.887184	0.578317
	H70	H	0.401412	0.112700	0.579622
	H71	H	0.407498	0.888666	0.405155
	H72	H	0.907387	0.607517	0.079211
	H73	H	0.085663	0.383028	0.078356
	H74	H	0.091323	0.611200	0.900930
	H75	H	0.902813	0.383506	0.904430
	H76	H	0.087525	0.906443	0.605360
	H77	H	0.081723	0.081053	0.380961
	H78	H	0.923503	0.101123	0.601812
	H79	H	0.901302	0.904253	0.375235
	H80	H	0.603490	0.083163	0.905359
	H81	H	0.382197	0.088581	0.075565
	H82	H	0.611065	0.902721	0.082605
	H83	H	0.381489	0.910672	0.900747
	H84	H	0.607248	0.909726	0.077106
	H85	H	0.385299	0.081714	0.074399
	H86	H	0.606953	0.085357	0.896785
	H87	H	0.378123	0.906485	0.895602
	H88	H	0.886960	0.090251	0.611085
	H89	H	0.078816	0.085320	0.380184
	H90	H	0.084342	0.906884	0.604458
	H91	H	0.900975	0.909099	0.376519
	H92	H	0.078917	0.609029	0.895376
	H93	H	0.081057	0.382902	0.082750
	H94	H	0.900870	0.610305	0.080358
	H95	H	0.906186	0.382501	0.897605
	H96	H	0.404535	0.113661	0.582515
	H97	H	0.588400	0.884146	0.581613
	H98	H	0.589787	0.113088	0.406995
	H99	H	0.403163	0.885453	0.402162
	H100	H	0.581695	0.406666	0.103789
	H101	H	0.584515	0.589459	0.877744
	H102	H	0.407396	0.591432	0.104142
	H103	H	0.395072	0.415770	0.877280
	H104	H	0.109701	0.597577	0.403324
	H105	H	0.883320	0.585435	0.580586
	H106	H	0.106928	0.413572	0.578737
	H107	H	0.887500	0.419462	0.405288
	H108	H	0.905920	0.610536	0.086160
	H109	H	0.080184	0.385469	0.077248
	H110	H	0.081743	0.605773	0.908996
	H111	H	0.909960	0.385820	0.903305
	H112	H	0.085639	0.904052	0.604990
	H113	H	0.083454	0.084974	0.378822
	H114	H	0.910729	0.064905	0.593232
	H115	H	0.905354	0.906962	0.376847
	H116	H	0.607151	0.092129	0.903704
	H117	H	0.382833	0.083687	0.081012
	H118	H	0.609022	0.911488	0.085949
	H119	H	0.379744	0.904025	0.902062
	C120	C	0.373213	0.007772	0.611978
	C121	C	0.616118	0.990043	0.613173
	C122	C	0.614764	0.007815	0.370538
	C123	C	0.372255	0.990357	0.369121
	C124	C	0.615763	0.376752	-0.000311
	C125	C	0.617006	0.619505	0.982473
	C126	C	0.372769	0.619774	-0.000217
	C127	C	0.373399	0.377071	0.982692
	C128	C	0.003429	0.619461	0.368638
	C129	C	0.986147	0.619510	0.612821
	C130	C	0.003633	0.376600	0.611308
	C131	C	0.986593	0.376245	0.369652
	C132	C	0.872458	0.504829	0.113911
	C133	C	0.114433	0.488293	0.110791
	C134	C	0.117190	0.504906	0.868354
	C135	C	0.874822	0.488801	0.870368
	C136	C	0.116844	0.875453	0.499935
	C137	C	0.114883	0.117614	0.483291
	C138	C	0.873203	0.119378	0.498798
	C139	C	0.872601	0.876467	0.481506
	C140	C	0.502113	0.120628	0.868895
	C141	C	0.486636	0.118942	0.111044
	C142	C	0.504146	0.877152	0.112721
	C143	C	0.485689	0.877399	0.869819
	C144	C	0.373428	0.888131	0.670352
	C145	C	0.618290	0.108778	0.673078
	C146	C	0.616880	0.889062	0.310835
	C147	C	0.366652	0.107551	0.306343
	C148	C	0.676713	0.373474	0.881643
	C149	C	0.675217	0.619930	0.102129
	C150	C	0.314781	0.620285	0.880126
	C151	C	0.310965	0.372444	0.099941
	C152	C	0.883339	0.676997	0.369352
	C153	C	0.105824	0.677405	0.612610
	C154	C	0.886317	0.314745	0.615027
	C155	C	0.104206	0.313677	0.364497
	C156	C	0.885849	0.372601	0.672678
	C157	C	0.105418	0.620469	0.671586
	C158	C	0.883957	0.620419	0.310370
	C159	C	0.104637	0.372519	0.307859
	C160	C	0.373350	0.677824	0.880027
	C161	C	0.617035	0.677701	0.101978
	C162	C	0.618531	0.316043	0.881605
	C163	C	0.368097	0.314359	0.099817
	C164	C	0.673450	0.888382	0.369881
	C165	C	0.676976	0.108295	0.615549
	C166	C	0.315797	0.887693	0.612638
	C167	C	0.309767	0.107849	0.365184
	C168	C	0.870604	0.385674	0.173007
	C169	C	0.115010	0.608271	0.168949
	C170	C	0.120722	0.386620	0.807138
	C171	C	0.874442	0.608525	0.812252
	C172	C	0.175508	0.875327	0.380669
	C173	C	0.173852	0.119310	0.602501
	C174	C	0.811478	0.123122	0.381062
	C175	C	0.815338	0.877085	0.601494
	C176	C	0.384138	0.182612	0.865851
	C177	C	0.604997	0.179645	0.113958
	C178	C	0.384364	0.818907	0.112593
	C179	C	0.605784	0.819722	0.869233
	C180	C	0.384578	0.876015	0.171271
	C181	C	0.604495	0.123044	0.172931
	C182	C	0.383685	0.124383	0.808178
	C183	C	0.605610	0.878444	0.812126
	C184	C	0.869353	0.180827	0.380984
	C185	C	0.117151	0.178049	0.601596
	C186	C	0.115822	0.819179	0.379436
	C187	C	0.873334	0.819137	0.601571
	C188	C	0.178207	0.386475	0.865288
	C189	C	0.173071	0.608022	0.111183
	C190	C	0.813425	0.385496	0.114318
	C191	C	0.816343	0.608648	0.870146
	C192	C	0.396998	0.090971	0.587274
	C193	C	0.591328	0.906964	0.588708
	C194	C	0.589434	0.090624	0.395793
	C195	C	0.398798	0.908333	0.395010
	C196	C	0.590550	0.402054	0.082072
	C197	C	0.593467	0.595738	0.899416
	C198	C	0.396249	0.596064	0.083112
	C199	C	0.400298	0.403954	0.901345
	C200	C	0.087071	0.595533	0.391972
	C201	C	0.902676	0.595890	0.589132
	C202	C	0.086061	0.402604	0.585110
	C203	C	0.904677	0.402581	0.395956
	C204	C	0.897504	0.587750	0.089192
	C205	C	0.089637	0.405542	0.086427
	C206	C	0.091214	0.587183	0.894087
	C207	C	0.899338	0.405480	0.894750
	C208	C	0.092742	0.899049	0.583197
	C209	C	0.088952	0.091325	0.401291
	C210	C	0.899437	0.092985	0.580784
	C211	C	0.895901	0.899870	0.397862
	C212	C	0.584418	0.094435	0.894625
	C213	C	0.404748	0.092359	0.084555
	C214	C	0.587377	0.901166	0.088781
	C215	C	0.401719	0.900378	0.892861
	Zn216	Zn	0.493719	-0.000805	0.740808
	Zn217	Zn	0.494272	-0.000688	0.241006
	Zn218	Zn	0.745087	0.497425	-0.008666
	Zn219	Zn	0.244601	0.496948	-0.009567
	Zn220	Zn	-0.005427	0.747749	0.490234
	Zn221	Zn	-0.004734	0.247659	0.490469
	Zn222	Zn	-0.004538	0.496458	0.740483
	Zn223	Zn	-0.005396	0.496461	0.241346
	Zn224	Zn	0.495273	0.748366	-0.008969
	Zn225	Zn	0.494006	0.248380	-0.008855
	Zn226	Zn	0.744390	-0.000995	0.491069
	Zn227	Zn	0.244468	-0.001496	0.491499
	N228	N	0.408072	0.963934	0.670238
	N229	N	0.581213	0.034281	0.671497
	N230	N	0.581210	0.964432	0.311255
	N231	N	0.405021	0.033469	0.308705
	N232	N	0.675190	0.410374	0.956071
	N233	N	0.675322	0.584458	0.027020
	N234	N	0.314190	0.584907	0.955602
	N235	N	0.314186	0.410730	0.026106
	N236	N	0.958721	0.676760	0.404647
	N237	N	0.030501	0.677016	0.576775
	N238	N	0.960657	0.317305	0.577577
	N239	N	0.029835	0.315931	0.402150
	N240	N	0.960080	0.410339	0.670430
	N241	N	0.029931	0.585204	0.671900
	N242	N	0.959764	0.585434	0.309735
	N243	N	0.030494	0.410586	0.310727
	N244	N	0.408257	0.677773	0.955543
	N245	N	0.581521	0.677583	0.026567
	N246	N	0.581449	0.317860	0.956103
	N247	N	0.406400	0.317251	0.025980
	N248	N	0.672443	0.963490	0.406088
	N249	N	0.675474	0.033510	0.578839
	N250	N	0.315450	0.963148	0.577223
	N251	N	0.313331	0.034089	0.403710
	N252	N	0.906322	0.460957	0.172860
	N253	N	0.079445	0.532862	0.169070
	N254	N	0.083640	0.461383	0.808927
	N255	N	0.909685	0.532882	0.811966
	N256	N	0.176361	0.909420	0.456519
	N257	N	0.172389	0.082537	0.527849
	N258	N	0.813768	0.085699	0.455485
	N259	N	0.814675	0.911829	0.525854
	N260	N	0.458944	0.180447	0.902578
	N261	N	0.530686	0.177138	0.076254
	N262	N	0.459826	0.819243	0.077147
	N263	N	0.530159	0.818891	0.904339
	N264	N	0.460030	0.911350	0.171639
	N265	N	0.529764	0.086239	0.171347
	N266	N	0.458197	0.086882	0.809628
	N267	N	0.529852	0.913469	0.812117
	N268	N	0.906975	0.178525	0.455187
	N269	N	0.081498	0.177372	0.526315
	N270	N	0.080137	0.819070	0.454605
	N271	N	0.908315	0.818683	0.525909
	N272	N	0.176229	0.461035	0.902566
	N273	N	0.172916	0.532493	0.075827
	N274	N	0.814591	0.460719	0.078171
	N275	N	0.816415	0.532947	0.905373
	O276	O	1.079942	0.801444	0.159633
	H277	H	1.063223	0.805154	0.143181
	H278	H	1.077945	0.801602	0.152015
	O279	O	0.029025	-0.015073	-0.105702
	H280	H	0.054391	-0.017271	-0.105055
	H281	H	0.035496	0.003434	-0.104466
	O282	O	0.966908	1.183085	0.049325
	H283	H	0.964609	1.185020	0.041850
	H284	H	0.958526	1.177354	0.049440
	O285	O	0.661459	0.457995	0.442593
	H286	H	0.659187	0.467171	0.456215
	H287	H	0.657800	0.458986	0.428520
	O288	O	-0.312296	0.306145	-0.320746
	H289	H	-0.299393	0.297593	-0.304900
	H290	H	-0.318163	0.316569	-0.341409
	O291	O	1.328614	0.446342	0.286846
	H292	H	1.331848	0.437527	0.286524
	H293	H	1.352864	0.439673	0.287461
	O294	O	0.109337	1.177140	0.180670
	H295	H	0.090960	1.174637	0.171603
	H296	H	0.105505	1.195967	0.199485
	O297	O	0.111146	0.052492	-0.003648
	H298	H	0.114299	0.070187	0.023461
	H299	H	0.112233	0.047751	-0.015651
	O300	O	0.441838	0.323118	0.441225
	H301	H	0.454265	0.319490	0.462693
	H302	H	0.427748	0.309330	0.452921
	O303	O	0.512399	0.475447	0.709830
	H304	H	0.509233	0.470394	0.705020
	H305	H	0.529703	0.474637	0.718452
	O306	O	0.718132	0.531685	0.714031
	H307	H	0.710481	0.578711	0.708529
	H308	H	0.751495	0.539699	0.746096
	O309	O	0.513244	0.282774	0.271482
	H310	H	0.526084	0.274625	0.284242
	H311	H	0.526972	0.256941	0.259442
	O312	O	0.512671	0.639862	0.492557
	H313	H	0.513233	0.637222	0.476806
	H314	H	0.500792	0.629165	0.500736
	O315	O	0.514585	-0.391058	1.579391
	H316	H	0.513090	-0.397747	1.560994
	H317	H	0.522241	-0.408568	1.581425
	O318	O	0.023497	0.793021	-0.211780
	H319	H	0.037693	0.790612	-0.209823
	H320	H	0.032545	0.790457	-0.217179
	O321	O	0.274311	0.282697	-0.486861
	H322	H	0.270288	0.289922	-0.472295
	H323	H	0.256216	0.262705	-0.467964
	O324	O	0.804448	-0.154793	0.869306
	H325	H	0.809012	-0.139822	0.890066
	H326	H	0.817316	-0.135243	0.872282
	O327	O	0.668828	0.316531	1.315350
	H328	H	0.671661	0.360785	1.309853
	H329	H	0.665758	0.304263	1.346009
	O330	O	0.709438	0.469120	0.277822
	H331	H	0.712600	0.477694	0.257183
	H332	H	0.709842	0.473522	0.276813
	O333	O	1.308946	0.538680	1.376715
	H334	H	1.311657	0.539897	1.366865
	H335	H	1.308148	0.535510	1.367255
	O336	O	0.697366	0.702907	0.696825
	H337	H	0.699646	0.715873	0.662230
	H338	H	0.693625	0.725385	0.712135
	O339	O	0.136656	0.041092	0.938439
	H340	H	0.141789	0.040763	0.934102
	H341	H	0.154858	0.027079	0.946507
	O342	O	-0.034295	1.198988	0.795503
	H343	H	-0.041386	1.202371	0.782171
	H344	H	-0.029221	1.180891	0.787286
	O345	O	-0.193208	0.037670	-0.205893
	H346	H	-0.191039	0.022994	-0.199537
	H347	H	-0.198878	0.041251	-0.210064
	O348	O	0.788552	0.127982	0.960991
	H349	H	0.774869	0.150047	0.965437
	H350	H	0.798024	0.125474	0.944205
	O351	O	0.910126	1.048420	0.192813
	H352	H	0.905803	1.049418	0.184115
	H353	H	0.907939	1.043982	0.199723
	O354	O	0.522431	0.702778	0.696796
	H355	H	0.526802	0.701117	0.711601
	H356	H	0.528815	0.702971	0.682466
	O357	O	1.700902	1.349443	0.487745
	H358	H	1.726776	1.332330	0.500892
	H359	H	1.699296	1.370400	0.504556
	O360	O	0.459046	0.568751	0.559344
	H361	H	0.448593	0.556080	0.553608
	H362	H	0.479151	0.588147	0.577420
	O363	O	0.506754	0.576674	0.502000
	H364	H	0.493945	0.569401	0.499648
	H365	H	0.511839	0.574012	0.505927
	O366	O	1.204060	0.200078	1.056181
	H367	H	1.209879	0.223083	1.057661
	H368	H	1.194792	0.214974	1.055979
	O369	O	0.984350	0.955795	0.837094
	H370	H	0.991780	0.938168	0.832685
	H371	H	0.994760	0.963207	0.814116
	O372	O	0.306711	0.312195	0.675450
	H373	H	0.332826	0.324117	0.688021
	H374	H	0.321101	0.327837	0.669817
	O375	O	0.155628	1.138051	0.935570
	H376	H	0.159793	1.143160	0.946157
	H377	H	0.148269	1.140159	0.928293
	O378	O	0.340894	0.539625	0.638522
	H379	H	0.336612	0.532173	0.634520
	H380	H	0.333656	0.541150	0.640628
	O381	O	1.235733	-0.242894	0.227305
	H382	H	1.212390	-0.232136	0.201616
	H383	H	1.230575	-0.249851	0.213565
	O384	O	0.281563	-0.421968	1.361765
	H385	H	0.280724	-0.436369	1.355493
	H386	H	0.273427	-0.423290	1.352769
	O387	O	-0.207902	1.030027	1.125767
	H388	H	-0.216704	1.013463	1.115984
	H389	H	-0.215417	1.026730	1.127650
	O390	O	0.194732	0.022306	1.180313
	H391	H	0.203936	0.045552	1.181327
	H392	H	0.188867	0.040579	1.190986
	O393	O	0.906308	1.140168	-0.010306
	H394	H	0.898002	1.150186	-0.016301
	H395	H	0.917329	1.131582	-0.000689
	O396	O	0.677929	0.685380	0.312100
	H397	H	0.669840	0.680286	0.310194
	H398	H	0.657144	0.677004	0.326049
	O399	O	0.889583	0.799463	0.188012
	H400	H	0.901965	0.798982	0.177278
	H401	H	0.908183	0.817028	0.191538
	O402	O	0.002424	0.109834	1.000753
	H403	H	-0.009960	0.103418	0.997504
	H404	H	0.006812	0.124107	1.017088
	O405	O	-0.038817	-0.071307	0.007002
	H406	H	-0.036024	-0.074452	0.017259
	H407	H	-0.051886	-0.080207	0.005688
	O408	O	0.386907	0.503424	0.499710
	H409	H	0.373242	0.510666	0.483909
	H410	H	0.379292	0.504299	0.497562
	O411	O	0.029495	0.945045	1.195946
	H412	H	0.017137	0.936750	1.201026
	H413	H	0.046583	0.958233	1.190928
	O414	O	0.674177	0.435870	0.612499
	H415	H	0.689384	0.451887	0.624979
	H416	H	0.686700	0.445474	0.614635
	O417	O	0.496026	0.648117	0.298360
	H418	H	0.478562	0.653021	0.288950
	H419	H	0.490315	0.651357	0.299809
	O420	O	0.303978	0.626116	0.617008
	H421	H	0.310997	0.619462	0.601797
	H422	H	0.320144	0.623951	0.611236
	O423	O	0.318152	1.363602	0.403113
	H424	H	0.316208	1.360802	0.412860
	H425	H	0.323568	1.375320	0.393824
	O426	O	0.807462	0.813642	1.100914
	H427	H	0.783922	0.795702	1.121049
	H428	H	0.845505	0.804405	1.104532
	O429	O	0.470357	0.289821	0.700025
	H430	H	0.480340	0.286210	0.713594
	H431	H	0.487034	0.291449	0.706104
	O432	O	0.543630	0.273415	0.546242
	H433	H	0.545363	0.270244	0.546106
	H434	H	0.558424	0.271317	0.553604
	O435	O	0.209977	-0.027052	-0.215655
	H436	H	0.234083	-0.027133	-0.234306
	H437	H	0.206662	-0.035618	-0.204163
	O438	O	1.210208	-0.218008	-0.047601
	H439	H	1.217355	-0.226474	-0.061755
	H440	H	1.224787	-0.228017	-0.056683
	O441	O	0.459266	0.503736	0.302933
	H442	H	0.456294	0.495918	0.306909
	H443	H	0.467407	0.475167	0.302662
	O444	O	0.041683	0.807042	1.031556
	H445	H	0.017564	0.805007	1.016285
	H446	H	0.051055	0.805226	1.009606
	O447	O	0.534694	0.606501	0.417820
	H448	H	0.514738	0.602482	0.414705
	H449	H	0.530920	0.614962	0.401861
	O450	O	0.203628	0.787805	0.777275
	H451	H	0.195882	0.799884	0.785894
	H452	H	0.228759	0.764124	0.752096
	O453	O	0.700905	0.703973	0.529622
	H454	H	0.690842	0.706331	0.518076
	H455	H	0.713513	0.713246	0.519683
	O456	O	0.833010	-0.077868	0.053575
	H457	H	0.828495	-0.076234	0.066315
	H458	H	0.824451	-0.066942	0.066220
	O459	O	0.813579	-0.150925	0.952808
	H460	H	0.829487	-0.147496	0.977446
	H461	H	0.798563	-0.163282	0.971254
	O462	O	0.275212	0.715549	0.458545
	H463	H	0.268536	0.731042	0.434373
	H464	H	0.266107	0.727792	0.444578
	O465	O	0.809901	0.166330	-0.214268
	H466	H	0.819441	0.160625	-0.195600
	H467	H	0.805699	0.152530	-0.221701
