data_Molecule from HDF5

_cell_length_a		16.598357
_cell_length_b		16.702125
_cell_length_c		16.613751
_cell_angle_alpha	90.004417
_cell_angle_beta	89.845167
_cell_angle_gamma	89.790309
_symmetry_space_group_name_H-M	'P 1'
_symmetry_Int_Tables_number		1

loop_
	_symmetry_equiv_pos_as_xyz
	x,y,z

loop_
	_atom_site_label
	_atom_site_type_symbol
	_atom_site_fract_x
	_atom_site_fract_y
	_atom_site_fract_z
	H0	H	0.393493	0.831028	0.741482
	H1	H	0.613790	0.135091	0.745152
	H2	H	0.609863	0.831410	0.293656
	H3	H	0.395973	0.139473	0.296027
	H4	H	0.727265	0.376961	0.862919
	H5	H	0.724186	0.590802	0.172174
	H6	H	0.282618	0.588337	0.861278
	H7	H	0.279950	0.377540	0.170638
	H8	H	0.850404	0.709365	0.408159
	H9	H	0.155100	0.708932	0.627887
	H10	H	0.849306	0.259181	0.628670
	H11	H	0.155077	0.258304	0.407905
	H12	H	0.847778	0.377422	0.742164
	H13	H	0.155449	0.592773	0.741969
	H14	H	0.849489	0.592599	0.293400
	H15	H	0.154723	0.372688	0.291436
	H16	H	0.396705	0.706160	0.862637
	H17	H	0.607034	0.706199	0.172848
	H18	H	0.614424	0.258777	0.863768
	H19	H	0.396416	0.261705	0.170729
	H20	H	0.726679	0.831633	0.408850
	H21	H	0.730571	0.134206	0.630849
	H22	H	0.275061	0.833127	0.628272
	H23	H	0.279790	0.139312	0.412115
	H24	H	0.892666	0.330748	0.243263
	H25	H	0.109737	0.636001	0.241033
	H26	H	0.106115	0.328883	0.796383
	H27	H	0.895022	0.638389	0.795672
	H28	H	0.224094	0.878809	0.362138
	H29	H	0.223507	0.088986	0.672451
	H30	H	0.778237	0.093627	0.363546
	H31	H	0.776010	0.874596	0.668718
	H32	H	0.348795	0.207986	0.909087
	H33	H	0.659522	0.202255	0.119100
	H34	H	0.346791	0.763381	0.124121
	H35	H	0.657551	0.762496	0.912530
	H36	H	0.345471	0.881992	0.237733
	H37	H	0.659273	0.087204	0.235790
	H38	H	0.346517	0.089530	0.796386
	H39	H	0.656340	0.877176	0.795086
	H40	H	0.893389	0.210331	0.364711
	H41	H	0.108742	0.206846	0.672160
	H42	H	0.110342	0.761158	0.362766
	H43	H	0.891146	0.758588	0.668498
	H44	H	0.223726	0.328449	0.911466
	H45	H	0.224441	0.636776	0.123499
	H46	H	0.775889	0.331756	0.128114
	H47	H	0.779070	0.638453	0.912572
	H48	H	0.415385	0.091693	0.600231
	H49	H	0.589624	0.876934	0.597604
	H50	H	0.592426	0.094948	0.433191
	H51	H	0.414027	0.872176	0.424579
	H52	H	0.593212	0.399244	0.128299
	H53	H	0.589480	0.566794	0.909234
	H54	H	0.416325	0.578332	0.129767
	H55	H	0.413247	0.388861	0.901659
	H56	H	0.112674	0.570383	0.430912
	H57	H	0.889140	0.574421	0.608596
	H58	H	0.110173	0.397602	0.598449
	H59	H	0.891975	0.398461	0.430598
	H60	H	0.112907	0.401489	0.609630
	H61	H	0.891610	0.575495	0.601780
	H62	H	0.113354	0.570095	0.429207
	H63	H	0.891720	0.396652	0.432314
	H64	H	0.407016	0.572652	0.131473
	H65	H	0.585117	0.576624	0.907199
	H66	H	0.584123	0.397394	0.125129
	H67	H	0.410979	0.399952	0.905104
	H68	H	0.590801	0.096615	0.424705
	H69	H	0.589609	0.874263	0.605895
	H70	H	0.407318	0.096025	0.607196
	H71	H	0.414234	0.874122	0.429390
	H72	H	0.916490	0.591643	0.103762
	H73	H	0.097182	0.372082	0.100249
	H74	H	0.094759	0.596750	0.925987
	H75	H	0.915686	0.374640	0.932407
	H76	H	0.086866	0.896660	0.626428
	H77	H	0.088189	0.075810	0.404789
	H78	H	0.916817	0.064669	0.623215
	H79	H	0.914114	0.891917	0.404092
	H80	H	0.614866	0.069536	0.926897
	H81	H	0.390691	0.073536	0.107490
	H82	H	0.611046	0.900846	0.103897
	H83	H	0.389769	0.893893	0.932901
	H84	H	0.615578	0.893724	0.110941
	H85	H	0.389822	0.075971	0.106167
	H86	H	0.612865	0.072411	0.932405
	H87	H	0.391342	0.898525	0.929460
	H88	H	0.920825	0.075556	0.627251
	H89	H	0.094093	0.073093	0.404748
	H90	H	0.088629	0.895651	0.628528
	H91	H	0.912972	0.901853	0.405648
	H92	H	0.089190	0.593550	0.927104
	H93	H	0.089625	0.368908	0.111300
	H94	H	0.913243	0.593239	0.103827
	H95	H	0.914672	0.373740	0.930321
	H96	H	0.417982	0.094510	0.611034
	H97	H	0.582575	0.877147	0.602175
	H98	H	0.584423	0.092614	0.429434
	H99	H	0.409776	0.872245	0.427854
	H100	H	0.589024	0.390562	0.129083
	H101	H	0.595530	0.574576	0.903883
	H102	H	0.415924	0.567722	0.125810
	H103	H	0.421989	0.395332	0.907175
	H104	H	0.114163	0.571682	0.430612
	H105	H	0.892653	0.569325	0.605324
	H106	H	0.115868	0.390157	0.606219
	H107	H	0.893172	0.399083	0.433104
	H108	H	0.915189	0.593462	0.106329
	H109	H	0.084227	0.376066	0.101079
	H110	H	0.093394	0.594894	0.931355
	H111	H	0.916420	0.375437	0.930207
	H112	H	0.088853	0.898497	0.627245
	H113	H	0.089155	0.070403	0.408326
	H114	H	0.909139	0.071633	0.630537
	H115	H	0.921600	0.897627	0.406994
	H116	H	0.610928	0.066341	0.930976
	H117	H	0.391156	0.073842	0.104551
	H118	H	0.613259	0.890655	0.100515
	H119	H	0.389312	0.893335	0.926863
	C120	C	0.380397	-0.007347	0.639185
	C121	C	0.623127	0.975703	0.638083
	C122	C	0.623238	-0.006768	0.395540
	C123	C	0.380433	0.975915	0.395787
	C124	C	0.623856	0.362522	0.025442
	C125	C	0.622589	0.605371	1.009246
	C126	C	0.380705	0.605365	0.026146
	C127	C	0.381979	0.362026	1.007222
	C128	C	0.011683	0.604735	0.396459
	C129	C	0.993207	0.606104	0.639028
	C130	C	0.010621	0.363414	0.639022
	C131	C	0.993595	0.362994	0.397185
	C132	C	0.880521	0.491954	0.139269
	C133	C	0.123319	0.474224	0.137741
	C134	C	0.124185	0.492442	0.895326
	C135	C	0.881750	0.476236	0.897752
	C136	C	0.122695	0.863536	0.525503
	C137	C	0.123056	0.105592	0.508740
	C138	C	0.880871	0.105708	0.525896
	C139	C	0.881753	0.863340	0.507316
	C140	C	0.511005	0.103833	0.896033
	C141	C	0.494208	0.105177	0.137472
	C142	C	0.510154	0.863399	0.138432
	C143	C	0.492973	0.862480	0.896635
	C144	C	0.376154	0.877344	0.700958
	C145	C	0.630043	0.089290	0.703362
	C146	C	0.627777	0.877807	0.333800
	C147	C	0.377809	0.092662	0.336039
	C148	C	0.686672	0.358906	0.909463
	C149	C	0.683229	0.608484	0.126085
	C150	C	0.321946	0.607226	0.908331
	C151	C	0.320677	0.359218	0.123993
	C152	C	0.896281	0.667802	0.391471
	C153	C	0.108761	0.668295	0.644522
	C154	C	0.895234	0.300736	0.644993
	C155	C	0.108875	0.299503	0.391398
	C156	C	0.894496	0.359325	0.701608
	C157	C	0.108850	0.610387	0.701575
	C158	C	0.895749	0.609670	0.334359
	C159	C	0.108781	0.356583	0.333411
	C160	C	0.378477	0.665813	0.909119
	C161	C	0.625342	0.666044	0.125972
	C162	C	0.630174	0.300336	0.909818
	C163	C	0.378362	0.301493	0.124054
	C164	C	0.685891	0.878030	0.391087
	C165	C	0.688257	0.089000	0.646171
	C166	C	0.317301	0.878298	0.644535
	C167	C	0.319870	0.092442	0.393656
	C168	C	0.875502	0.377054	0.202264
	C169	C	0.127345	0.589632	0.200110
	C170	C	0.125323	0.375533	0.835762
	C171	C	0.877870	0.592331	0.836902
	C172	C	0.184115	0.860266	0.408958
	C173	C	0.183136	0.107491	0.625881
	C174	C	0.818622	0.111045	0.410139
	C175	C	0.818079	0.858273	0.622652
	C176	C	0.394910	0.166441	0.892124
	C177	C	0.612351	0.163251	0.138237
	C178	C	0.393178	0.803820	0.141651
	C179	C	0.610291	0.802303	0.894146
	C180	C	0.392591	0.862215	0.198491
	C181	C	0.611919	0.106218	0.196435
	C182	C	0.393769	0.107577	0.835896
	C183	C	0.609963	0.859261	0.835769
	C184	C	0.875839	0.169126	0.410821
	C185	C	0.126107	0.166070	0.625520
	C186	C	0.127518	0.801888	0.409231
	C187	C	0.875370	0.800310	0.622552
	C188	C	0.183703	0.375385	0.893057
	C189	C	0.184330	0.590195	0.141526
	C190	C	0.817393	0.377414	0.144791
	C191	C	0.819951	0.592297	0.894700
	C192	C	0.406495	0.073029	0.613312
	C193	C	0.595015	0.896686	0.609826
	C194	C	0.596748	0.073843	0.421704
	C195	C	0.405449	0.894256	0.420349
	C196	C	0.596648	0.388368	0.106390
	C197	C	0.597434	0.579817	0.928031
	C198	C	0.405782	0.580013	0.107789
	C199	C	0.407932	0.387452	0.925797
	C200	C	0.092450	0.578089	0.422867
	C201	C	0.912292	0.580143	0.612758
	C202	C	0.091652	0.389360	0.612228
	C203	C	0.913220	0.390235	0.424510
	C204	C	0.907446	0.571984	0.112300
	C205	C	0.097682	0.393434	0.111584
	C206	C	0.099590	0.573902	0.920745
	C207	C	0.908038	0.395586	0.923729
	C208	C	0.095718	0.889583	0.606463
	C209	C	0.097771	0.080350	0.427196
	C210	C	0.907940	0.078276	0.606125
	C211	C	0.908524	0.889651	0.426696
	C212	C	0.591782	0.077094	0.922458
	C213	C	0.411974	0.081238	0.113161
	C214	C	0.591878	0.888190	0.112634
	C215	C	0.411336	0.888089	0.922252
	Zn216	Zn	0.501969	-0.016647	0.767516
	Zn217	Zn	0.502136	-0.015525	0.266533
	Zn218	Zn	0.751454	0.483837	0.017927
	Zn219	Zn	0.253279	0.483218	0.016462
	Zn220	Zn	0.003134	0.734453	0.516876
	Zn221	Zn	0.001845	0.234446	0.518421
	Zn222	Zn	0.002054	0.484265	0.767065
	Zn223	Zn	0.002418	0.483119	0.267981
	Zn224	Zn	0.501311	0.734096	0.018033
	Zn225	Zn	0.503669	0.233653	0.016111
	Zn226	Zn	0.752643	-0.015181	0.516433
	Zn227	Zn	0.251894	-0.015863	0.517475
	N228	N	0.414819	0.949548	0.697795
	N229	N	0.589962	0.017841	0.698458
	N230	N	0.589502	0.950501	0.336355
	N231	N	0.414793	0.018987	0.336948
	N232	N	0.683077	0.396921	0.982600
	N233	N	0.682064	0.571559	0.052295
	N234	N	0.323014	0.570345	0.982271
	N235	N	0.322651	0.396070	0.050136
	N236	N	0.969416	0.664675	0.429712
	N237	N	0.035709	0.666016	0.606339
	N238	N	0.968621	0.302853	0.606870
	N239	N	0.036053	0.303260	0.430449
	N240	N	0.967417	0.397489	0.698071
	N241	N	0.035782	0.572345	0.698554
	N242	N	0.968573	0.570997	0.337233
	N243	N	0.035934	0.395405	0.336711
	N244	N	0.414102	0.664960	0.983523
	N245	N	0.588609	0.664433	0.052291
	N246	N	0.591790	0.302552	0.983017
	N247	N	0.415724	0.302983	0.050360
	N248	N	0.683368	0.950981	0.428844
	N249	N	0.684217	0.017426	0.605964
	N250	N	0.319828	0.951002	0.606505
	N251	N	0.321217	0.018665	0.429911
	N252	N	0.914375	0.449385	0.198900
	N253	N	0.090141	0.516510	0.197979
	N254	N	0.089131	0.449466	0.836956
	N255	N	0.915498	0.519139	0.838462
	N256	N	0.181460	0.897750	0.482377
	N257	N	0.181346	0.070538	0.552107
	N258	N	0.821538	0.072400	0.482869
	N259	N	0.821849	0.896863	0.550015
	N260	N	0.468988	0.164562	0.928749
	N261	N	0.537895	0.162856	0.102263
	N262	N	0.467316	0.804274	0.105168
	N263	N	0.536266	0.803785	0.931028
	N264	N	0.466573	0.898422	0.196900
	N265	N	0.537138	0.071202	0.196446
	N266	N	0.467108	0.069532	0.838093
	N267	N	0.535853	0.895854	0.837039
	N268	N	0.913671	0.166100	0.484018
	N269	N	0.089674	0.165101	0.551606
	N270	N	0.090088	0.803690	0.482919
	N271	N	0.914511	0.803223	0.549779
	N272	N	0.183584	0.449313	0.929052
	N273	N	0.182230	0.517116	0.103453
	N274	N	0.820336	0.449950	0.106392
	N275	N	0.822307	0.519052	0.932000
	O276	O	0.166550	1.171458	-0.173751
	H277	H	0.160420	1.170812	-0.150340
	H278	H	0.159319	1.155551	-0.170192
	O279	O	0.294661	0.693498	0.311419
	H280	H	0.330161	0.683391	0.314633
	H281	H	0.299137	0.673564	0.335601
	O282	O	0.796544	0.119028	0.922796
	H283	H	0.803256	0.129047	0.938394
	H284	H	0.788736	0.121530	0.922771
	O285	O	0.578917	0.444967	0.675897
	H286	H	0.574388	0.445673	0.684150
	H287	H	0.575287	0.461723	0.684987
	O288	O	0.988071	0.801997	0.233906
	H289	H	1.013928	0.791253	0.231996
	H290	H	1.007472	0.798078	0.242094
	O291	O	0.692187	0.418909	0.417156
	H292	H	0.684649	0.436372	0.413076
	H293	H	0.669965	0.423591	0.419234
	O294	O	1.274835	0.261031	0.544601
	H295	H	1.286781	0.270758	0.534171
	H296	H	1.249290	0.233330	0.549899
	O297	O	0.666912	0.381298	0.537080
	H298	H	0.677157	0.371956	0.563717
	H299	H	0.671387	0.395670	0.544652
	O300	O	0.225275	0.203190	1.041405
	H301	H	0.228799	0.200244	1.063776
	H302	H	0.243501	0.226756	1.059790
	O303	O	0.442028	0.592217	0.357012
	H304	H	0.436374	0.600560	0.344686
	H305	H	0.457885	0.594715	0.380739
	O306	O	0.813608	0.776127	0.078606
	H307	H	0.822576	0.772718	0.070156
	H308	H	0.803148	0.763131	0.075967
	O309	O	0.409685	0.484856	0.694263
	H310	H	0.404039	0.496622	0.698029
	H311	H	0.399776	0.481593	0.691525
	O312	O	0.526544	0.629775	0.527216
	H313	H	0.524228	0.634133	0.554745
	H314	H	0.530011	0.614594	0.536675
	O315	O	0.851662	0.959674	0.922365
	H316	H	0.864244	0.955337	0.926516
	H317	H	0.851142	0.974525	0.928067
	O318	O	0.541184	1.260479	0.400565
	H319	H	0.545926	1.253023	0.424277
	H320	H	0.535638	1.287651	0.413418
	O321	O	-0.127243	1.175914	0.830763
	H322	H	-0.132909	1.182649	0.829911
	H323	H	-0.124724	1.173969	0.828136
	O324	O	1.081346	0.935939	0.071190
	H325	H	1.079461	0.942750	0.077819
	H326	H	1.087306	0.942643	0.080296
	O327	O	-0.083828	-0.185535	1.001215
	H328	H	-0.088766	-0.180530	0.999099
	H329	H	-0.066714	-0.179856	1.014812
	O330	O	0.631968	0.443711	0.524307
	H331	H	0.631478	0.453277	0.531804
	H332	H	0.630044	0.457067	0.520652
	O333	O	0.583301	0.549392	0.570879
	H334	H	0.588408	0.546719	0.576412
	H335	H	0.579626	0.537601	0.594088
	O336	O	0.703466	0.703171	0.536859
	H337	H	0.708740	0.694188	0.519820
	H338	H	0.724368	0.705493	0.532479
	O339	O	1.212653	-0.039397	0.810786
	H340	H	1.218470	-0.035804	0.810043
	H341	H	1.222951	-0.033179	0.809012
	O342	O	-0.009418	0.086627	-0.066772
	H343	H	-0.016353	0.080321	-0.049083
	H344	H	-0.003808	0.086685	-0.060580
	O345	O	-0.033155	1.218937	1.054375
	H346	H	-0.028880	1.223790	1.072668
	H347	H	-0.039540	1.216154	1.046888
	O348	O	0.014257	-0.233509	-0.200419
	H349	H	0.007970	-0.225447	-0.190522
	H350	H	0.023010	-0.249610	-0.225576
	O351	O	0.855096	0.775490	0.198734
	H352	H	0.870612	0.775388	0.184779
	H353	H	0.870865	0.784285	0.186775
	O354	O	0.102934	-0.003648	1.230573
	H355	H	0.080823	0.002642	1.233517
	H356	H	0.137865	0.000019	1.245488
	O357	O	0.722985	0.253395	0.504771
	H358	H	0.736487	0.251472	0.488281
	H359	H	0.739112	0.252109	0.486590
	O360	O	0.535539	0.708910	0.737657
	H361	H	0.537582	0.732629	0.761244
	H362	H	0.563691	0.709342	0.732738
	O363	O	-0.187370	0.172128	-0.013164
	H364	H	-0.185272	0.182097	-0.008636
	H365	H	-0.197099	0.182920	-0.012145
	O366	O	0.555044	0.431551	0.421356
	H367	H	0.552709	0.424577	0.419643
	H368	H	0.561383	0.432065	0.428372
	O369	O	0.788723	-0.002844	-0.196383
	H370	H	0.768952	0.014971	-0.217466
	H371	H	0.803800	0.000417	-0.187907
	O372	O	0.935286	0.938450	0.075852
	H373	H	0.936226	0.927638	0.085074
	H374	H	0.910654	0.944669	0.082068
	O375	O	0.823336	-0.041589	0.180332
	H376	H	0.809825	-0.050216	0.192694
	H377	H	0.825378	-0.047564	0.178429
	O378	O	0.527547	0.515516	0.296294
	H379	H	0.531445	0.529566	0.296424
	H380	H	0.528681	0.517983	0.298310
	O381	O	0.042772	0.844407	0.987788
	H382	H	0.042957	0.866108	0.973861
	H383	H	0.036990	0.845073	0.995621
	O384	O	0.715693	-0.302572	1.301075
	H385	H	0.728077	-0.278926	1.275310
	H386	H	0.714284	-0.298912	1.303230
	O387	O	1.230886	1.052447	-0.029927
	H388	H	1.226618	1.054211	-0.012098
	H389	H	1.239734	1.054604	-0.018436
	O390	O	0.524072	0.508304	0.740402
	H391	H	0.532775	0.530440	0.748712
	H392	H	0.486972	0.515746	0.733664
	O393	O	0.208543	0.191449	0.219995
	H394	H	0.207163	0.199838	0.242738
	H395	H	0.190550	0.209035	0.232498
	O396	O	0.478879	0.259165	0.740374
	H397	H	0.471072	0.261207	0.751231
	H398	H	0.468900	0.243896	0.752795
	O399	O	0.068764	-0.190895	1.071997
	H400	H	0.071470	-0.174747	1.059294
	H401	H	0.090020	-0.198155	1.073696
	O402	O	0.817623	0.166555	0.165415
	H403	H	0.794298	0.179432	0.179905
	H404	H	0.818531	0.157657	0.154379
	O405	O	1.293702	0.275905	0.726744
	H406	H	1.306226	0.278478	0.700189
	H407	H	1.274047	0.250047	0.733989
	O408	O	0.181824	-0.077055	0.117320
	H409	H	0.199818	-0.090359	0.135165
	H410	H	0.176902	-0.084850	0.118639
	O411	O	1.220625	0.767158	0.988361
	H412	H	1.232955	0.764231	0.981818
	H413	H	1.228328	0.768753	0.991378
	O414	O	0.328679	0.350931	0.472824
	H415	H	0.333207	0.360110	0.457722
	H416	H	0.343281	0.357231	0.486609
	O417	O	0.535413	0.256465	0.289743
	H418	H	0.526553	0.243134	0.305554
	H419	H	0.543322	0.232778	0.272171
	O420	O	0.646857	0.637436	0.423232
	H421	H	0.639732	0.629659	0.411953
	H422	H	0.661735	0.635341	0.418242
	O423	O	-0.040240	-0.060854	0.857460
	H424	H	-0.043775	-0.060794	0.853841
	H425	H	-0.030142	-0.062183	0.865628
	O426	O	0.265276	0.538963	0.564350
	H427	H	0.266720	0.537439	0.579552
	H428	H	0.270084	0.549624	0.584171
	O429	O	0.857742	0.941443	1.044353
	H430	H	0.868396	0.952897	1.025673
	H431	H	0.856729	0.950274	1.049356
	O432	O	0.712786	0.465869	0.302428
	H433	H	0.723383	0.472959	0.290526
	H434	H	0.717753	0.476495	0.307169
	O435	O	0.211089	0.776024	-0.191875
	H436	H	0.196845	0.802379	-0.197451
	H437	H	0.195732	0.770254	-0.156945
	O438	O	-0.206999	0.182646	0.260751
	H439	H	-0.219051	0.189779	0.265565
	H440	H	-0.224151	0.182315	0.266288
	O441	O	0.054704	0.039189	-0.193983
	H442	H	0.050822	0.050334	-0.198231
	H443	H	0.054537	0.056571	-0.199548
	O444	O	0.135905	-0.000924	0.140024
	H445	H	0.139101	0.005021	0.135389
	H446	H	0.146701	0.012359	0.151491
	O447	O	-0.990726	2.088287	1.243061
	H448	H	-1.012880	2.090262	1.239921
	H449	H	-0.985363	2.091219	1.245620
	O450	O	-0.287236	0.690742	0.730652
	H451	H	-0.300032	0.693834	0.696254
	H452	H	-0.258496	0.710567	0.750965
	O453	O	0.520596	0.685454	0.352007
	H454	H	0.516079	0.689311	0.357145
	H455	H	0.528794	0.690977	0.366554
	O456	O	0.492803	0.331586	0.554741
	H457	H	0.495708	0.326322	0.565941
	H458	H	0.514436	0.338778	0.549832
	O459	O	1.157372	0.806630	0.160027
	H460	H	1.178173	0.790099	0.182017
	H461	H	1.155789	0.807333	0.149495
	O462	O	0.281387	0.708987	0.503178
	H463	H	0.270036	0.720220	0.498458
	H464	H	0.280738	0.710383	0.494237
	O465	O	0.272905	-0.546696	0.741975
	H466	H	0.270090	-0.558413	0.757449
	H467	H	0.261225	-0.578122	0.755256
	O468	O	0.420022	0.532609	0.463201
	H469	H	0.411532	0.534527	0.465906
	H470	H	0.430246	0.528662	0.484155
	O471	O	0.309630	0.675689	0.707921
	H472	H	0.300733	0.674982	0.711531
	H473	H	0.301944	0.701540	0.706570
	O474	O	0.025023	1.184387	-0.121812
	H475	H	0.020238	1.190461	-0.144645
	H476	H	0.042585	1.178742	-0.100654
	O477	O	0.309155	0.558529	1.359320
	H478	H	0.306181	0.547585	1.358704
	H479	H	0.304363	0.552395	1.367552
	O480	O	0.474102	0.668623	0.627842
	H481	H	0.453239	0.658806	0.632170
	H482	H	0.488582	0.673898	0.633609
	O483	O	0.315208	0.299688	0.325451
	H484	H	0.323111	0.317095	0.348326
	H485	H	0.335969	0.320846	0.331434
	O486	O	0.394375	0.427581	0.299173
	H487	H	0.395413	0.422060	0.291909
	H488	H	0.411544	0.441633	0.293359
	O489	O	1.414892	0.415987	0.547455
	H490	H	1.420614	0.411639	0.551787
	H491	H	1.415355	0.418499	0.548664
	O492	O	0.035462	0.177547	0.165828
	H493	H	0.026577	0.182866	0.169113
	H494	H	0.021546	0.167638	0.185127
	O495	O	-0.191783	0.816903	0.846635
	H496	H	-0.181959	0.825942	0.863874
	H497	H	-0.173309	0.832638	0.855905
	O498	O	0.691819	1.294281	0.702095
	H499	H	0.683411	1.299636	0.675973
	H500	H	0.672209	1.301468	0.712160
	O501	O	0.720921	0.519801	0.734612
	H502	H	0.722472	0.531504	0.741159
	H503	H	0.730613	0.532318	0.750018
