data_Molecule from HDF5

_cell_length_a		16.181217
_cell_length_b		16.120364
_cell_length_c		16.350893
_cell_angle_alpha	89.842566
_cell_angle_beta	90.093733
_cell_angle_gamma	90.217683
_symmetry_space_group_name_H-M	'P 1'
_symmetry_Int_Tables_number		1

loop_
	_symmetry_equiv_pos_as_xyz
	x,y,z

loop_
	_atom_site_label
	_atom_site_type_symbol
	_atom_site_fract_x
	_atom_site_fract_y
	_atom_site_fract_z
	H0	H	0.401616	0.836998	0.718548
	H1	H	0.603126	0.166154	0.716084
	H2	H	0.601779	0.837273	0.286520
	H3	H	0.402695	0.165638	0.288830
	H4	H	0.715274	0.405362	0.838490
	H5	H	0.719984	0.603030	0.164944
	H6	H	0.286024	0.600865	0.838729
	H7	H	0.287965	0.402006	0.165309
	H8	H	0.836991	0.711922	0.405127
	H9	H	0.166996	0.711285	0.600822
	H10	H	0.837073	0.284352	0.601809
	H11	H	0.167253	0.288692	0.409187
	H12	H	0.838306	0.396354	0.719859
	H13	H	0.165414	0.597917	0.718143
	H14	H	0.838921	0.600063	0.286760
	H15	H	0.165916	0.398099	0.289132
	H16	H	0.405109	0.715420	0.838198
	H17	H	0.600661	0.715981	0.166349
	H18	H	0.599878	0.288135	0.838708
	H19	H	0.403557	0.286431	0.165809
	H20	H	0.712953	0.833922	0.405445
	H21	H	0.716423	0.165575	0.598912
	H22	H	0.290940	0.834629	0.599017
	H23	H	0.289558	0.165774	0.403602
	H24	H	0.900775	0.334918	0.218742
	H25	H	0.103023	0.664013	0.218176
	H26	H	0.101900	0.334768	0.790863
	H27	H	0.902016	0.662967	0.786307
	H28	H	0.216173	0.901619	0.339311
	H29	H	0.218942	0.098032	0.665316
	H30	H	0.787727	0.098860	0.339702
	H31	H	0.785973	0.899117	0.665540
	H32	H	0.335428	0.211569	0.906080
	H33	H	0.667138	0.214348	0.098409
	H34	H	0.337428	0.786321	0.101329
	H35	H	0.667180	0.790611	0.906453
	H36	H	0.337089	0.901526	0.217148
	H37	H	0.666114	0.102294	0.218051
	H38	H	0.339120	0.103353	0.784520
	H39	H	0.665537	0.901776	0.787101
	H40	H	0.905569	0.213790	0.339732
	H41	H	0.100473	0.212656	0.666761
	H42	H	0.099948	0.784772	0.340069
	H43	H	0.903682	0.784817	0.666618
	H44	H	0.213044	0.334492	0.908224
	H45	H	0.214255	0.665860	0.099927
	H46	H	0.786420	0.335384	0.101612
	H47	H	0.792067	0.666274	0.904504
	H48	H	0.409239	0.119095	0.594520
	H49	H	0.593983	0.879170	0.608307
	H50	H	0.604476	0.123158	0.404310
	H51	H	0.412269	0.881839	0.402162
	H52	H	0.596021	0.412045	0.117303
	H53	H	0.604975	0.599386	0.882408
	H54	H	0.403803	0.586891	0.117520
	H55	H	0.404599	0.403906	0.883015
	H56	H	0.117876	0.591818	0.416360
	H57	H	0.880371	0.588479	0.607721
	H58	H	0.117175	0.402660	0.587329
	H59	H	0.887469	0.408786	0.418051
	H60	H	0.117846	0.418497	0.601902
	H61	H	0.881244	0.601208	0.593326
	H62	H	0.119373	0.587184	0.406716
	H63	H	0.884188	0.413810	0.404732
	H64	H	0.416799	0.593133	0.115057
	H65	H	0.596016	0.588055	0.888880
	H66	H	0.590988	0.408660	0.117024
	H67	H	0.404786	0.410805	0.886415
	H68	H	0.585672	0.117556	0.403838
	H69	H	0.583014	0.887777	0.591964
	H70	H	0.412525	0.119399	0.595732
	H71	H	0.413647	0.884540	0.413334
	H72	H	0.904073	0.620847	0.098473
	H73	H	0.095525	0.384007	0.087765
	H74	H	0.101831	0.620015	0.912941
	H75	H	0.915440	0.382616	0.907177
	H76	H	0.098452	0.910322	0.617846
	H77	H	0.098559	0.096239	0.384448
	H78	H	0.908402	0.086266	0.617676
	H79	H	0.903237	0.910916	0.386749
	H80	H	0.616957	0.090000	0.913753
	H81	H	0.383005	0.093233	0.100694
	H82	H	0.622511	0.903268	0.097399
	H83	H	0.384208	0.910798	0.906288
	H84	H	0.615576	0.912973	0.089369
	H85	H	0.383110	0.096631	0.095964
	H86	H	0.620561	0.092732	0.904089
	H87	H	0.383897	0.906988	0.909479
	H88	H	0.912705	0.093910	0.618594
	H89	H	0.096021	0.090832	0.387729
	H90	H	0.092369	0.903889	0.619114
	H91	H	0.914139	0.906392	0.388998
	H92	H	0.091948	0.620105	0.900715
	H93	H	0.103823	0.377439	0.102827
	H94	H	0.918720	0.616691	0.101163
	H95	H	0.909251	0.383575	0.918867
	H96	H	0.411899	0.117824	0.592470
	H97	H	0.602893	0.881650	0.589053
	H98	H	0.596574	0.115607	0.419417
	H99	H	0.402935	0.880224	0.410315
	H100	H	0.596229	0.405628	0.119522
	H101	H	0.590140	0.602804	0.885967
	H102	H	0.406230	0.600938	0.120983
	H103	H	0.411316	0.406400	0.886447
	H104	H	0.122059	0.597608	0.407985
	H105	H	0.888563	0.582688	0.590674
	H106	H	0.124944	0.398628	0.607439
	H107	H	0.881372	0.399253	0.408297
	H108	H	0.913248	0.614828	0.087598
	H109	H	0.085105	0.382325	0.102977
	H110	H	0.087461	0.614839	0.914636
	H111	H	0.902214	0.378482	0.907974
	H112	H	0.100333	0.902337	0.622452
	H113	H	0.092776	0.095534	0.386820
	H114	H	0.904276	0.093498	0.621309
	H115	H	0.906062	0.899035	0.384073
	H116	H	0.620418	0.099695	0.910781
	H117	H	0.385267	0.090688	0.095943
	H118	H	0.619132	0.915631	0.102866
	H119	H	0.385123	0.911100	0.911260
	C120	C	0.381740	0.009684	0.623354
	C121	C	0.623410	0.991889	0.624200
	C122	C	0.623800	0.009586	0.380672
	C123	C	0.381376	0.991919	0.380984
	C124	C	0.623250	0.380292	0.010075
	C125	C	0.625018	0.624786	0.994130
	C126	C	0.380027	0.623061	0.010113
	C127	C	0.379305	0.378838	0.993610
	C128	C	0.011074	0.620965	0.381550
	C129	C	0.992718	0.619297	0.624750
	C130	C	0.010926	0.376969	0.626503
	C131	C	0.993350	0.378947	0.382925
	C132	C	0.881045	0.508520	0.125068
	C133	C	0.123691	0.490820	0.125516
	C134	C	0.122248	0.508739	0.882296
	C135	C	0.880907	0.490742	0.882165
	C136	C	0.124665	0.877371	0.511555
	C137	C	0.124554	0.122160	0.494145
	C138	C	0.880488	0.120903	0.511577
	C139	C	0.879263	0.876861	0.494424
	C140	C	0.510444	0.122871	0.880983
	C141	C	0.492798	0.122907	0.124962
	C142	C	0.510421	0.880521	0.124851
	C143	C	0.493157	0.880833	0.881109
	C144	C	0.382569	0.885760	0.679614
	C145	C	0.622662	0.116547	0.678495
	C146	C	0.621718	0.885810	0.325069
	C147	C	0.383034	0.116176	0.326331
	C148	C	0.678155	0.383918	0.887472
	C149	C	0.680964	0.622751	0.116554
	C150	C	0.324273	0.621082	0.887479
	C151	C	0.325768	0.381818	0.116697
	C152	C	0.886738	0.675189	0.384127
	C153	C	0.117159	0.674277	0.621746
	C154	C	0.886594	0.321888	0.622675
	C155	C	0.117855	0.324992	0.387214
	C156	C	0.887160	0.377430	0.681387
	C157	C	0.116634	0.617649	0.679847
	C158	C	0.887614	0.619640	0.325330
	C159	C	0.117074	0.379635	0.327703
	C160	C	0.383147	0.678283	0.887285
	C161	C	0.621791	0.678967	0.117170
	C162	C	0.620694	0.325445	0.887524
	C163	C	0.383141	0.324161	0.116764
	C164	C	0.676919	0.884330	0.384055
	C165	C	0.679235	0.116275	0.620445
	C166	C	0.327579	0.884529	0.620332
	C167	C	0.326536	0.116081	0.383335
	C168	C	0.881457	0.384328	0.180467
	C169	C	0.122555	0.614874	0.180440
	C170	C	0.120849	0.384163	0.828370
	C171	C	0.882766	0.614464	0.825401
	C172	C	0.178675	0.880705	0.388456
	C173	C	0.180536	0.118886	0.616893
	C174	C	0.825938	0.118902	0.388162
	C175	C	0.824059	0.878922	0.617026
	C176	C	0.385472	0.175820	0.884365
	C177	C	0.617684	0.177164	0.120283
	C178	C	0.386538	0.824519	0.121863
	C179	C	0.617594	0.826869	0.884908
	C180	C	0.386595	0.881236	0.179866
	C181	C	0.617155	0.121807	0.179631
	C182	C	0.387245	0.121841	0.824183
	C183	C	0.616823	0.882267	0.825911
	C184	C	0.883940	0.176633	0.388598
	C185	C	0.122075	0.176032	0.617571
	C186	C	0.120627	0.822851	0.388730
	C187	C	0.882836	0.822382	0.617805
	C188	C	0.176340	0.384040	0.886607
	C189	C	0.177816	0.615941	0.121413
	C190	C	0.824359	0.384559	0.122556
	C191	C	0.828156	0.616052	0.884277
	C192	C	0.404525	0.096409	0.600965
	C193	C	0.600063	0.905197	0.602847
	C194	C	0.602040	0.096428	0.402787
	C195	C	0.403285	0.904610	0.402325
	C196	C	0.600852	0.402419	0.095773
	C197	C	0.603387	0.603021	0.908229
	C198	C	0.402311	0.600555	0.095636
	C199	C	0.400506	0.400770	0.907465
	C200	C	0.097371	0.598760	0.403713
	C201	C	0.905789	0.597243	0.603482
	C202	C	0.097669	0.399782	0.605273
	C203	C	0.906587	0.400881	0.404054
	C204	C	0.904965	0.595108	0.102488
	C205	C	0.101499	0.403775	0.104085
	C206	C	0.100213	0.595846	0.903222
	C207	C	0.902328	0.403992	0.904831
	C208	C	0.103512	0.899141	0.597639
	C209	C	0.102321	0.100570	0.408461
	C210	C	0.902035	0.098041	0.597049
	C211	C	0.901175	0.899081	0.408725
	C212	C	0.596987	0.100806	0.903132
	C213	C	0.406307	0.100361	0.103738
	C214	C	0.596718	0.903755	0.102960
	C215	C	0.406713	0.902946	0.902662
	Zn216	Zn	0.501955	0.001759	0.752647
	Zn217	Zn	0.501736	0.001624	0.253457
	Zn218	Zn	0.753411	0.501577	0.002424
	Zn219	Zn	0.250284	0.500653	0.002251
	Zn220	Zn	0.001561	0.748484	0.503767
	Zn221	Zn	0.002047	0.250647	0.503896
	Zn222	Zn	0.001400	0.498408	0.754444
	Zn223	Zn	0.002705	0.499269	0.253693
	Zn224	Zn	0.502022	0.752841	0.002662
	Zn225	Zn	0.501125	0.250363	0.002062
	Zn226	Zn	0.751134	-0.000410	0.502435
	Zn227	Zn	0.254056	0.000242	0.502090
	N228	N	0.415704	0.964589	0.681439
	N229	N	0.588676	0.038185	0.681102
	N230	N	0.589429	0.964631	0.322805
	N231	N	0.416620	0.037871	0.324876
	N232	N	0.679559	0.417352	0.964810
	N233	N	0.683165	0.589884	0.039194
	N234	N	0.322086	0.587523	0.965094
	N235	N	0.323059	0.414979	0.039143
	N236	N	0.964355	0.676044	0.418589
	N237	N	0.039217	0.675321	0.588029
	N238	N	0.964617	0.321496	0.589410
	N239	N	0.039978	0.324507	0.420771
	N240	N	0.965505	0.411029	0.683957
	N241	N	0.038336	0.584128	0.681878
	N242	N	0.965896	0.586559	0.323610
	N243	N	0.038657	0.412585	0.324986
	N244	N	0.417101	0.679488	0.964461
	N245	N	0.587773	0.680545	0.039898
	N246	N	0.587231	0.323079	0.964881
	N247	N	0.415839	0.322420	0.039092
	N248	N	0.678223	0.962462	0.418064
	N249	N	0.679657	0.037957	0.587241
	N250	N	0.327073	0.962522	0.586015
	N251	N	0.325403	0.037710	0.416740
	N252	N	0.915942	0.462655	0.182175
	N253	N	0.089620	0.536222	0.183086
	N254	N	0.087936	0.462810	0.825646
	N255	N	0.915054	0.535650	0.823954
	N256	N	0.181212	0.913899	0.465895
	N257	N	0.182230	0.086079	0.539234
	N258	N	0.823250	0.085364	0.465515
	N259	N	0.821744	0.912078	0.539390
	N260	N	0.463046	0.176393	0.919152
	N261	N	0.539451	0.178166	0.087076
	N262	N	0.464363	0.824003	0.088434
	N263	N	0.539844	0.826234	0.918772
	N264	N	0.464742	0.915386	0.182027
	N265	N	0.538679	0.088712	0.182725
	N266	N	0.465793	0.089327	0.822082
	N267	N	0.538377	0.915051	0.823413
	N268	N	0.916853	0.177991	0.466131
	N269	N	0.087935	0.178231	0.540434
	N270	N	0.087748	0.820659	0.466289
	N271	N	0.916416	0.821066	0.540572
	N272	N	0.177366	0.462476	0.919344
	N273	N	0.178905	0.537639	0.088129
	N274	N	0.823881	0.462799	0.088960
	N275	N	0.826847	0.538171	0.918786
	O276	O	0.985284	0.999654	0.018285
	H277	H	0.983845	1.004073	0.018585
	H278	H	0.990946	1.001917	0.019205
	O279	O	-0.084647	-0.111274	0.032383
	H280	H	-0.090200	-0.118656	0.038047
	H281	H	-0.084331	-0.111084	0.043434
	O282	O	-0.022482	-0.021034	1.021213
	H283	H	-0.017646	-0.015676	1.015161
	H284	H	-0.026717	-0.021915	1.010603
	O285	O	0.501514	0.498383	0.429731
	H286	H	0.495221	0.496586	0.416503
	H287	H	0.504004	0.507896	0.428558
	O288	O	0.566116	0.468904	0.401105
	H289	H	0.560826	0.459621	0.403938
	H290	H	0.579467	0.462908	0.395043
	O291	O	0.541852	0.473541	0.423845
	H292	H	0.549825	0.475020	0.430966
	H293	H	0.537415	0.478843	0.419116
	O294	O	-0.008588	-0.067809	0.025457
	H295	H	0.006369	-0.062974	0.018335
	H296	H	-0.007932	-0.071631	0.034273
	O297	O	0.490278	0.501025	0.441697
	H298	H	0.497349	0.497855	0.438299
	H299	H	0.492500	0.505498	0.437073
	O300	O	-0.015245	0.965200	0.986977
	H301	H	-0.018325	0.973117	0.987536
	H302	H	-0.022613	0.960539	0.988452
	O303	O	0.523127	0.523022	0.400518
	H304	H	0.526267	0.519779	0.405177
	H305	H	0.530477	0.517847	0.402268
	O306	O	-0.040663	-0.047021	0.965591
	H307	H	-0.045901	-0.055473	0.976997
	H308	H	-0.039631	-0.049088	0.964614
	O309	O	0.962077	0.939516	0.996567
	H310	H	0.956142	0.931736	0.997255
	H311	H	0.960217	0.940072	1.001541
	O312	O	0.467224	0.514710	0.420783
	H313	H	0.470046	0.509870	0.417757
	H314	H	0.455069	0.522144	0.418795
	O315	O	0.504966	0.498473	0.445353
	H316	H	0.506174	0.503284	0.444265
	H317	H	0.493625	0.505497	0.446323
	O318	O	-0.026499	0.951900	0.016953
	H319	H	-0.021621	0.950378	0.014050
	H320	H	-0.032110	0.952587	0.021745
	O321	O	1.006101	0.995376	-0.023988
	H322	H	0.999275	0.994106	-0.026233
	H323	H	1.004537	0.996055	-0.034305
