data_Molecule from HDF5

_cell_length_a		16.299202
_cell_length_b		16.251705
_cell_length_c		15.985088
_cell_angle_alpha	90.389520
_cell_angle_beta	90.033625
_cell_angle_gamma	90.516962
_symmetry_space_group_name_H-M	'P 1'
_symmetry_Int_Tables_number		1

loop_
	_symmetry_equiv_pos_as_xyz
	x,y,z

loop_
	_atom_site_label
	_atom_site_type_symbol
	_atom_site_fract_x
	_atom_site_fract_y
	_atom_site_fract_z
	H0	H	0.407077	0.837263	0.704137
	H1	H	0.601868	0.168173	0.709571
	H2	H	0.597788	0.838511	0.282289
	H3	H	0.410060	0.169421	0.283833
	H4	H	0.718074	0.403056	0.829242
	H5	H	0.718798	0.604463	0.162087
	H6	H	0.293108	0.598620	0.830098
	H7	H	0.290820	0.401084	0.162315
	H8	H	0.840431	0.717449	0.398854
	H9	H	0.166854	0.724839	0.599910
	H10	H	0.842146	0.285289	0.598085
	H11	H	0.167585	0.288960	0.394249
	H12	H	0.839497	0.407073	0.709030
	H13	H	0.169323	0.603510	0.709252
	H14	H	0.839906	0.599207	0.284272
	H15	H	0.169167	0.410151	0.283579
	H16	H	0.407178	0.711413	0.828432
	H17	H	0.606198	0.720223	0.160506
	H18	H	0.603077	0.288837	0.829429
	H19	H	0.407673	0.292408	0.162914
	H20	H	0.720489	0.840423	0.391564
	H21	H	0.721842	0.166784	0.597925
	H22	H	0.285052	0.841262	0.596626
	H23	H	0.289815	0.166896	0.393633
	H24	H	0.907812	0.339204	0.207346
	H25	H	0.101573	0.669867	0.207151
	H26	H	0.098900	0.339189	0.781302
	H27	H	0.913755	0.670827	0.789682
	H28	H	0.215250	0.905143	0.329424
	H29	H	0.220433	0.105705	0.661923
	H30	H	0.792469	0.102425	0.330149
	H31	H	0.788000	0.903785	0.660486
	H32	H	0.341178	0.217628	0.895523
	H33	H	0.666618	0.222501	0.099188
	H34	H	0.342078	0.784143	0.094473
	H35	H	0.668257	0.787562	0.893273
	H36	H	0.339219	0.905417	0.206956
	H37	H	0.669763	0.100702	0.207406
	H38	H	0.338712	0.096220	0.783538
	H39	H	0.669014	0.907992	0.781972
	H40	H	0.907866	0.214044	0.329776
	H41	H	0.106803	0.222048	0.661881
	H42	H	0.102362	0.789050	0.330871
	H43	H	0.905349	0.794888	0.663491
	H44	H	0.218337	0.338298	0.894513
	H45	H	0.225586	0.665350	0.099222
	H46	H	0.788328	0.341109	0.097171
	H47	H	0.789025	0.665764	0.894020
	H48	H	0.412530	0.121156	0.591073
	H49	H	0.596174	0.885671	0.588194
	H50	H	0.608416	0.124414	0.399364
	H51	H	0.418728	0.884815	0.386300
	H52	H	0.592564	0.411564	0.113814
	H53	H	0.598051	0.590675	0.877730
	H54	H	0.421133	0.599064	0.114524
	H55	H	0.395299	0.409844	0.872420
	H56	H	0.121206	0.601614	0.406412
	H57	H	0.885270	0.603040	0.593325
	H58	H	0.119813	0.412557	0.581723
	H59	H	0.888540	0.417185	0.399344
	H60	H	0.119656	0.419073	0.588937
	H61	H	0.887277	0.599862	0.589766
	H62	H	0.121073	0.597164	0.403995
	H63	H	0.883782	0.399888	0.397083
	H64	H	0.408522	0.597063	0.117577
	H65	H	0.596509	0.597775	0.874903
	H66	H	0.600680	0.407586	0.117622
	H67	H	0.419841	0.420815	0.882966
	H68	H	0.593166	0.120277	0.399374
	H69	H	0.597366	0.887241	0.583958
	H70	H	0.413681	0.120512	0.588941
	H71	H	0.415268	0.892737	0.417497
	H72	H	0.911296	0.621408	0.086488
	H73	H	0.098939	0.387469	0.082253
	H74	H	0.097702	0.618499	0.907762
	H75	H	0.908323	0.385716	0.900875
	H76	H	0.095302	0.916967	0.614709
	H77	H	0.091588	0.098103	0.379550
	H78	H	0.923840	0.091356	0.611314
	H79	H	0.907344	0.899642	0.371283
	H80	H	0.618694	0.090509	0.902786
	H81	H	0.385810	0.105314	0.083557
	H82	H	0.624392	0.902838	0.087475
	H83	H	0.389450	0.910605	0.903752
	H84	H	0.618473	0.913918	0.079967
	H85	H	0.391593	0.090007	0.083452
	H86	H	0.624189	0.102544	0.897293
	H87	H	0.385279	0.904136	0.893241
	H88	H	0.911835	0.108055	0.619637
	H89	H	0.102568	0.101812	0.374205
	H90	H	0.095529	0.913921	0.615391
	H91	H	0.905077	0.918725	0.377077
	H92	H	0.109238	0.621382	0.908638
	H93	H	0.104757	0.383199	0.092485
	H94	H	0.908228	0.623085	0.090995
	H95	H	0.913847	0.386414	0.902234
	H96	H	0.410981	0.121455	0.588677
	H97	H	0.601083	0.885077	0.585772
	H98	H	0.600818	0.119251	0.412101
	H99	H	0.389381	0.881070	0.400451
	H100	H	0.599968	0.416783	0.113646
	H101	H	0.603922	0.593939	0.874427
	H102	H	0.416496	0.586767	0.112413
	H103	H	0.417871	0.393694	0.873587
	H104	H	0.123002	0.601085	0.402563
	H105	H	0.886909	0.597855	0.595592
	H106	H	0.122138	0.410268	0.590805
	H107	H	0.889288	0.405282	0.413381
	H108	H	0.913972	0.622419	0.091897
	H109	H	0.092476	0.386267	0.092841
	H110	H	0.104481	0.623028	0.899097
	H111	H	0.908844	0.386751	0.905913
	H112	H	0.097923	0.915880	0.616602
	H113	H	0.100172	0.089889	0.377529
	H114	H	0.903141	0.088999	0.616572
	H115	H	0.923199	0.909697	0.380220
	H116	H	0.619307	0.101688	0.911263
	H117	H	0.385350	0.095735	0.097448
	H118	H	0.621987	0.915079	0.094097
	H119	H	0.386320	0.897337	0.903854
	C120	C	0.382834	0.012155	0.617038
	C121	C	0.626796	0.994430	0.616442
	C122	C	0.627663	0.012686	0.373404
	C123	C	0.381957	0.995341	0.373251
	C124	C	0.626068	0.382446	0.004704
	C125	C	0.627750	0.624308	0.986002
	C126	C	0.386092	0.621720	0.004671
	C127	C	0.383192	0.380599	0.987030
	C128	C	0.012997	0.626767	0.376301
	C129	C	0.995113	0.628921	0.620564
	C130	C	0.012617	0.383423	0.617427
	C131	C	0.995822	0.381182	0.373909
	C132	C	0.882643	0.513208	0.118233
	C133	C	0.127748	0.494418	0.118296
	C134	C	0.129033	0.512104	0.874606
	C135	C	0.884048	0.495139	0.875071
	C136	C	0.124714	0.884709	0.505673
	C137	C	0.127231	0.126677	0.487156
	C138	C	0.885079	0.123786	0.505521
	C139	C	0.882925	0.882429	0.486484
	C140	C	0.512483	0.124898	0.874595
	C141	C	0.495660	0.125975	0.117667
	C142	C	0.513170	0.881079	0.116010
	C143	C	0.495834	0.878328	0.871852
	C144	C	0.385664	0.887373	0.669074
	C145	C	0.623251	0.118600	0.672331
	C146	C	0.620834	0.888120	0.318701
	C147	C	0.387716	0.119454	0.319753
	C148	C	0.680733	0.383607	0.879309
	C149	C	0.681526	0.623468	0.112020
	C150	C	0.330647	0.618525	0.879535
	C151	C	0.328590	0.382170	0.112493
	C152	C	0.889238	0.680048	0.378626
	C153	C	0.118239	0.685499	0.618976
	C154	C	0.890435	0.325173	0.617236
	C155	C	0.118753	0.327102	0.375046
	C156	C	0.889130	0.385839	0.672465
	C157	C	0.119552	0.625230	0.673384
	C158	C	0.888881	0.621165	0.321736
	C159	C	0.119699	0.387320	0.319865
	C160	C	0.387786	0.674573	0.878547
	C161	C	0.625482	0.681225	0.111329
	C162	C	0.623237	0.326757	0.879332
	C163	C	0.386341	0.327885	0.112626
	C164	C	0.681669	0.889162	0.373433
	C165	C	0.683145	0.117865	0.616841
	C166	C	0.325236	0.889325	0.615020
	C167	C	0.328020	0.118405	0.374690
	C168	C	0.886196	0.388911	0.171313
	C169	C	0.124099	0.619305	0.172000
	C170	C	0.121938	0.388210	0.818803
	C171	C	0.890383	0.620326	0.823862
	C172	C	0.178485	0.885177	0.379651
	C173	C	0.183043	0.126077	0.612038
	C174	C	0.830081	0.121985	0.379887
	C175	C	0.826534	0.884459	0.611574
	C176	C	0.389583	0.179270	0.875991
	C177	C	0.618534	0.182917	0.117206
	C178	C	0.390326	0.823636	0.114146
	C179	C	0.619307	0.825102	0.873341
	C180	C	0.389087	0.883770	0.170375
	C181	C	0.620008	0.122253	0.171125
	C182	C	0.388404	0.118921	0.820295
	C183	C	0.619703	0.885167	0.818206
	C184	C	0.887644	0.177407	0.379605
	C185	C	0.126391	0.183815	0.612103
	C186	C	0.122142	0.827636	0.380472
	C187	C	0.884827	0.830100	0.612886
	C188	C	0.181170	0.387698	0.875209
	C189	C	0.185587	0.617150	0.118128
	C190	C	0.826558	0.389942	0.116806
	C191	C	0.828880	0.617888	0.876374
	C192	C	0.405607	0.098625	0.595820
	C193	C	0.604790	0.908153	0.592842
	C194	C	0.607013	0.098863	0.396544
	C195	C	0.402033	0.908727	0.394976
	C196	C	0.604203	0.405127	0.092464
	C197	C	0.606025	0.601160	0.898396
	C198	C	0.408661	0.600608	0.092301
	C199	C	0.404571	0.401918	0.898992
	C200	C	0.099108	0.606286	0.397884
	C201	C	0.908882	0.606690	0.599371
	C202	C	0.098608	0.406967	0.593856
	C203	C	0.909438	0.401547	0.396584
	C204	C	0.904699	0.599750	0.096351
	C205	C	0.105348	0.408029	0.095762
	C206	C	0.109629	0.598594	0.898244
	C207	C	0.904337	0.408443	0.896560
	C208	C	0.102813	0.908663	0.593031
	C209	C	0.104767	0.103380	0.399748
	C210	C	0.906659	0.102375	0.593112
	C211	C	0.905233	0.903264	0.398960
	C212	C	0.598423	0.104362	0.897024
	C213	C	0.409713	0.103633	0.094865
	C214	C	0.599308	0.903757	0.093598
	C215	C	0.409383	0.898164	0.893910
	Zn216	Zn	0.504360	0.002265	0.744968
	Zn217	Zn	0.504380	0.004058	0.245305
	Zn218	Zn	0.754933	0.503361	-0.004189
	Zn219	Zn	0.257799	0.501286	-0.002985
	Zn220	Zn	0.003469	0.756490	0.497991
	Zn221	Zn	0.004193	0.252400	0.496197
	Zn222	Zn	0.004939	0.505349	0.747153
	Zn223	Zn	0.004439	0.504608	0.246222
	Zn224	Zn	0.505574	0.750371	-0.005414
	Zn225	Zn	0.504381	0.254851	-0.003780
	Zn226	Zn	0.757082	0.003755	0.495549
	Zn227	Zn	0.253974	0.004214	0.495790
	N228	N	0.420772	0.964681	0.670437
	N229	N	0.589102	0.040800	0.672402
	N230	N	0.587937	0.965952	0.318500
	N231	N	0.420436	0.041792	0.318679
	N232	N	0.682775	0.417426	0.958466
	N233	N	0.682992	0.588660	0.033051
	N234	N	0.329477	0.586335	0.958936
	N235	N	0.326380	0.414199	0.033165
	N236	N	0.967219	0.683522	0.411778
	N237	N	0.039942	0.688076	0.586917
	N238	N	0.968392	0.323458	0.583884
	N239	N	0.040523	0.323035	0.407753
	N240	N	0.966400	0.421331	0.672702
	N241	N	0.042099	0.590535	0.674445
	N242	N	0.966696	0.588837	0.319971
	N243	N	0.042179	0.420068	0.318876
	N244	N	0.421657	0.676737	0.957383
	N245	N	0.592740	0.681832	0.031989
	N246	N	0.589966	0.325997	0.958539
	N247	N	0.419524	0.326610	0.033556
	N248	N	0.685763	0.967385	0.406978
	N249	N	0.685452	0.039821	0.582874
	N250	N	0.323533	0.967953	0.583213
	N251	N	0.323959	0.039965	0.406871
	N252	N	0.920434	0.466716	0.172620
	N253	N	0.088883	0.541862	0.172308
	N254	N	0.090370	0.466557	0.818135
	N255	N	0.923918	0.542892	0.822797
	N256	N	0.180311	0.920164	0.458450
	N257	N	0.183988	0.091481	0.533156
	N258	N	0.828344	0.089223	0.459047
	N259	N	0.825062	0.916157	0.531973
	N260	N	0.467729	0.183137	0.908679
	N261	N	0.540202	0.185324	0.084602
	N262	N	0.468625	0.821947	0.081398
	N263	N	0.541306	0.820922	0.906062
	N264	N	0.466377	0.918848	0.171657
	N265	N	0.542789	0.087632	0.171683
	N266	N	0.465819	0.085812	0.819133
	N267	N	0.541891	0.917418	0.817174
	N268	N	0.921156	0.178762	0.458665
	N269	N	0.092423	0.184090	0.533259
	N270	N	0.089421	0.827280	0.459841
	N271	N	0.919005	0.828510	0.534167
	N272	N	0.185825	0.465783	0.909022
	N273	N	0.187891	0.538583	0.085470
	N274	N	0.824363	0.468210	0.084438
	N275	N	0.824684	0.538965	0.907255
	O276	O	0.068332	0.007061	-0.026224
	H277	H	0.073172	0.000709	-0.030019
	H278	H	0.086009	-0.002360	-0.030945
	O279	O	0.423839	0.451379	0.497410
	H280	H	0.422726	0.449083	0.496428
	H281	H	0.410580	0.456508	0.501506
	O282	O	0.554165	0.413696	0.475236
	H283	H	0.544396	0.409233	0.463606
	H284	H	0.551180	0.421506	0.480035
	O285	O	0.880241	0.061715	1.005033
	H286	H	0.873390	0.059987	1.007987
	H287	H	0.869487	0.052299	0.999997
	O288	O	1.037545	0.017677	-0.007817
	H289	H	1.033122	0.017012	0.005569
	H290	H	1.036806	0.028348	-0.003734
	O291	O	0.510479	0.591762	0.429758
	H292	H	0.514360	0.590218	0.428822
	H293	H	0.504622	0.572214	0.418080
	O294	O	0.954366	0.075173	1.006989
	H295	H	0.952309	0.072284	1.013829
	H296	H	0.955103	0.074792	1.005711
	O297	O	-0.073225	-0.049178	0.012364
	H298	H	-0.071406	-0.056520	0.012063
	H299	H	-0.069097	-0.051502	-0.005671
	O300	O	0.420200	0.408854	0.581586
	H301	H	0.420018	0.418678	0.596602
	H302	H	0.423262	0.410795	0.578549
	O303	O	0.526455	0.486051	0.507363
	H304	H	0.527612	0.483196	0.508957
	H305	H	0.525600	0.482074	0.501732
	O306	O	0.999922	-0.012225	-0.054072
	H307	H	0.998150	-0.019227	-0.053192
	H308	H	1.003633	-0.003675	-0.053323
	O309	O	-0.002796	-0.037673	0.930675
	H310	H	-0.004753	-0.032768	0.925979
	H311	H	0.002577	-0.018943	0.927608
	O312	O	1.003370	0.999407	1.103512
	H313	H	0.995886	1.005650	1.112798
	H314	H	1.001353	0.992318	1.111145
	O315	O	0.513668	0.600605	0.543224
	H316	H	0.521792	0.605709	0.546130
	H317	H	0.503621	0.596781	0.538522
	O318	O	0.480199	0.538675	0.500251
	H319	H	0.478485	0.541412	0.507642
	H320	H	0.485019	0.545657	0.512778
	O321	O	0.011091	1.025629	0.970195
	H322	H	0.011459	1.031039	0.973495
	H323	H	0.008379	1.030597	0.980776
	O324	O	0.552700	0.517998	0.563712
	H325	H	0.553845	0.519588	0.568196
	H326	H	0.546249	0.523339	0.561325
	O327	O	0.499926	0.542713	0.528092
	H328	H	0.501723	0.535724	0.534241
	H329	H	0.504359	0.528248	0.523316
	O330	O	0.438578	0.507202	0.401834
	H331	H	0.435904	0.502958	0.394013
	H332	H	0.446444	0.515261	0.402184
	O333	O	0.415087	0.509565	0.432766
	H334	H	0.420692	0.510569	0.443414
	H335	H	0.414787	0.511018	0.431897
	O336	O	0.570758	0.495014	0.490395
	H337	H	0.571755	0.500587	0.493895
	H338	H	0.565777	0.487016	0.494757
	O339	O	1.127162	1.069814	0.060617
	H340	H	1.128286	1.077041	0.064120
	H341	H	1.121097	1.073892	0.068577
	O342	O	0.472765	0.474810	0.520300
	H343	H	0.474047	0.463782	0.529311
	H344	H	0.465578	0.473916	0.527804
	O345	O	0.549910	0.429786	0.510342
	H346	H	0.546020	0.432545	0.510486
	H347	H	0.549367	0.430396	0.504328
	O348	O	0.013286	0.057298	0.030677
	H349	H	0.015389	0.059194	0.026250
	H350	H	0.016131	0.049138	0.031508
	O351	O	-0.062193	1.039072	1.092036
	H352	H	-0.071159	1.045562	1.091065
	H353	H	-0.073060	1.037001	1.085382
	O354	O	0.636974	0.538628	0.543632
	H355	H	0.652626	0.549421	0.541024
	H356	H	0.645042	0.546622	0.543477
	O357	O	0.087536	1.015024	0.914825
	H358	H	0.085929	1.012390	0.922634
	H359	H	0.093502	1.025163	0.924963
