data_Molecule from HDF5

_cell_length_a		16.181737
_cell_length_b		16.222273
_cell_length_c		16.313691
_cell_angle_alpha	90.001538
_cell_angle_beta	89.910345
_cell_angle_gamma	90.087545
_symmetry_space_group_name_H-M	'P 1'
_symmetry_Int_Tables_number		1

loop_
	_symmetry_equiv_pos_as_xyz
	x,y,z

loop_
	_atom_site_label
	_atom_site_type_symbol
	_atom_site_fract_x
	_atom_site_fract_y
	_atom_site_fract_z
	H0	H	0.393358	0.842655	0.718440
	H1	H	0.592051	0.170655	0.718798
	H2	H	0.591984	0.842523	0.290602
	H3	H	0.392207	0.170198	0.289205
	H4	H	0.706045	0.409529	0.839423
	H5	H	0.706774	0.605092	0.168419
	H6	H	0.280176	0.603686	0.839874
	H7	H	0.277876	0.407963	0.167607
	H8	H	0.827552	0.717860	0.408041
	H9	H	0.157518	0.719872	0.602179
	H10	H	0.826820	0.294610	0.602290
	H11	H	0.156483	0.292235	0.405803
	H12	H	0.829397	0.406366	0.720517
	H13	H	0.157199	0.605746	0.718146
	H14	H	0.829445	0.607773	0.289066
	H15	H	0.156844	0.406690	0.289470
	H16	H	0.395889	0.720372	0.840650
	H17	H	0.592044	0.721293	0.167480
	H18	H	0.590790	0.291057	0.841344
	H19	H	0.394244	0.292515	0.167639
	H20	H	0.704738	0.841820	0.407641
	H21	H	0.705444	0.170755	0.600930
	H22	H	0.279795	0.842070	0.601405
	H23	H	0.280840	0.171514	0.408009
	H24	H	0.893160	0.343509	0.219803
	H25	H	0.093256	0.670286	0.218763
	H26	H	0.093190	0.342735	0.789308
	H27	H	0.894089	0.669949	0.789738
	H28	H	0.205854	0.909692	0.340327
	H29	H	0.205992	0.103754	0.667747
	H30	H	0.778923	0.104853	0.340556
	H31	H	0.778152	0.909440	0.667995
	H32	H	0.327939	0.218537	0.907394
	H33	H	0.657851	0.219444	0.101875
	H34	H	0.328439	0.793117	0.100882
	H35	H	0.658941	0.793730	0.908076
	H36	H	0.328428	0.907100	0.217736
	H37	H	0.657679	0.104167	0.218116
	H38	H	0.328480	0.104755	0.790797
	H39	H	0.657454	0.907013	0.789698
	H40	H	0.893133	0.221692	0.341111
	H41	H	0.090692	0.221376	0.668086
	H42	H	0.091038	0.791870	0.341122
	H43	H	0.894130	0.792268	0.668540
	H44	H	0.205039	0.341301	0.907577
	H45	H	0.205938	0.671006	0.099906
	H46	H	0.780862	0.342494	0.100817
	H47	H	0.780259	0.671990	0.907085
	H48	H	0.402525	0.122993	0.598070
	H49	H	0.585767	0.888956	0.598171
	H50	H	0.587789	0.124141	0.413136
	H51	H	0.390259	0.884720	0.405637
	H52	H	0.585411	0.408281	0.121710
	H53	H	0.590764	0.603447	0.885342
	H54	H	0.400315	0.597342	0.119531
	H55	H	0.396770	0.407057	0.885485
	H56	H	0.112260	0.602311	0.408331
	H57	H	0.875902	0.597342	0.597717
	H58	H	0.109785	0.419618	0.601849
	H59	H	0.876254	0.414600	0.415831
	H60	H	0.112141	0.407320	0.598766
	H61	H	0.874540	0.599411	0.600857
	H62	H	0.109619	0.600565	0.414943
	H63	H	0.875572	0.418473	0.407992
	H64	H	0.401640	0.602081	0.119918
	H65	H	0.587835	0.592984	0.889599
	H66	H	0.591698	0.414078	0.122218
	H67	H	0.395820	0.416400	0.887440
	H68	H	0.585425	0.125355	0.406759
	H69	H	0.584537	0.888393	0.599275
	H70	H	0.397788	0.124581	0.596754
	H71	H	0.410163	0.890930	0.405604
	H72	H	0.893534	0.626549	0.094832
	H73	H	0.086190	0.386586	0.104736
	H74	H	0.086806	0.624622	0.907246
	H75	H	0.899490	0.388795	0.912418
	H76	H	0.081978	0.906331	0.622138
	H77	H	0.096419	0.099861	0.384773
	H78	H	0.898251	0.102491	0.621758
	H79	H	0.898501	0.919892	0.389703
	H80	H	0.611120	0.104198	0.913230
	H81	H	0.378237	0.093874	0.091660
	H82	H	0.614330	0.907851	0.103463
	H83	H	0.372826	0.907635	0.906056
	H84	H	0.608900	0.912421	0.089390
	H85	H	0.373819	0.094574	0.104482
	H86	H	0.608688	0.094796	0.913795
	H87	H	0.376407	0.910398	0.916056
	H88	H	0.896838	0.099412	0.621408
	H89	H	0.080561	0.091015	0.392398
	H90	H	0.093712	0.913178	0.622828
	H91	H	0.905090	0.908394	0.388279
	H92	H	0.083557	0.622653	0.911029
	H93	H	0.079360	0.391679	0.096686
	H94	H	0.901103	0.626620	0.105819
	H95	H	0.897982	0.389001	0.911133
	H96	H	0.399481	0.125299	0.601751
	H97	H	0.584264	0.888973	0.597974
	H98	H	0.581286	0.123161	0.411687
	H99	H	0.398608	0.892313	0.422563
	H100	H	0.584056	0.416056	0.118811
	H101	H	0.580361	0.601761	0.889258
	H102	H	0.396858	0.600322	0.122147
	H103	H	0.404807	0.412306	0.888681
	H104	H	0.110066	0.595935	0.410134
	H105	H	0.874424	0.601210	0.597486
	H106	H	0.107951	0.415897	0.590176
	H107	H	0.873197	0.409959	0.409291
	H108	H	0.906367	0.622056	0.094264
	H109	H	0.090886	0.388002	0.094266
	H110	H	0.088707	0.623997	0.912152
	H111	H	0.900312	0.389240	0.910316
	H112	H	0.083314	0.919702	0.617989
	H113	H	0.079540	0.109916	0.386864
	H114	H	0.900587	0.099522	0.620256
	H115	H	0.892392	0.909068	0.385251
	H116	H	0.612710	0.098612	0.905620
	H117	H	0.374184	0.104952	0.097095
	H118	H	0.609237	0.922124	0.101711
	H119	H	0.376244	0.917639	0.907907
	C120	C	0.371209	0.015477	0.626589
	C121	C	0.613870	0.997528	0.626137
	C122	C	0.613348	0.015314	0.382812
	C123	C	0.371253	0.998118	0.382911
	C124	C	0.615079	0.384584	0.012508
	C125	C	0.614774	0.627998	0.996158
	C126	C	0.371424	0.627920	0.012594
	C127	C	0.370920	0.384153	0.995616
	C128	C	0.001983	0.628402	0.383029
	C129	C	0.984108	0.627724	0.626536
	C130	C	0.001098	0.385460	0.625776
	C131	C	0.983799	0.385802	0.383127
	C132	C	0.871657	0.515980	0.126366
	C133	C	0.114312	0.497747	0.126056
	C134	C	0.114673	0.514948	0.882250
	C135	C	0.871159	0.497990	0.883062
	C136	C	0.114574	0.884708	0.513003
	C137	C	0.114298	0.128985	0.495689
	C138	C	0.870015	0.128804	0.512854
	C139	C	0.870282	0.884279	0.496213
	C140	C	0.501488	0.127237	0.882959
	C141	C	0.484085	0.127064	0.126565
	C142	C	0.501936	0.885195	0.125840
	C143	C	0.484551	0.884339	0.882610
	C144	C	0.373366	0.891708	0.680711
	C145	C	0.612539	0.121418	0.681405
	C146	C	0.611679	0.891456	0.328281
	C147	C	0.372753	0.121288	0.327377
	C148	C	0.669339	0.388164	0.889045
	C149	C	0.669477	0.625702	0.119295
	C150	C	0.317384	0.624557	0.888943
	C151	C	0.316109	0.387547	0.118912
	C152	C	0.877347	0.682008	0.386440
	C153	C	0.108189	0.682409	0.622997
	C154	C	0.876729	0.331310	0.623033
	C155	C	0.107711	0.330365	0.385585
	C156	C	0.877810	0.386905	0.681681
	C157	C	0.108124	0.625590	0.680465
	C158	C	0.878071	0.626592	0.327789
	C159	C	0.107847	0.387385	0.327997
	C160	C	0.374813	0.682811	0.889326
	C161	C	0.612315	0.683384	0.118919
	C162	C	0.612180	0.329154	0.889849
	C163	C	0.373456	0.329739	0.118847
	C164	C	0.667792	0.891166	0.386590
	C165	C	0.668528	0.121670	0.622626
	C166	C	0.316888	0.891475	0.622357
	C167	C	0.317078	0.121979	0.386278
	C168	C	0.873705	0.392243	0.181206
	C169	C	0.112874	0.621390	0.180519
	C170	C	0.112888	0.391513	0.827122
	C171	C	0.874052	0.621458	0.828214
	C172	C	0.168629	0.888442	0.389288
	C173	C	0.169017	0.125781	0.618957
	C174	C	0.815744	0.125747	0.389764
	C175	C	0.815806	0.888439	0.619346
	C176	C	0.377194	0.181313	0.886424
	C177	C	0.608492	0.181854	0.122925
	C178	C	0.377536	0.830400	0.122211
	C179	C	0.609259	0.830767	0.886751
	C180	C	0.377718	0.887067	0.180238
	C181	C	0.608495	0.124812	0.180605
	C182	C	0.377549	0.124629	0.828696
	C183	C	0.608614	0.886930	0.828011
	C184	C	0.872679	0.183913	0.389998
	C185	C	0.111592	0.183933	0.619041
	C186	C	0.111640	0.829948	0.389788
	C187	C	0.873767	0.830394	0.619545
	C188	C	0.168468	0.390713	0.885944
	C189	C	0.169011	0.621730	0.121641
	C190	C	0.817780	0.391736	0.122221
	C191	C	0.817506	0.622472	0.886429
	C192	C	0.393432	0.102080	0.605125
	C193	C	0.591490	0.911196	0.604752
	C194	C	0.591302	0.101861	0.404329
	C195	C	0.393283	0.911522	0.404930
	C196	C	0.593400	0.406246	0.098767
	C197	C	0.592739	0.605809	0.910271
	C198	C	0.393108	0.606282	0.098369
	C199	C	0.392838	0.405495	0.909501
	C200	C	0.088452	0.606318	0.404793
	C201	C	0.897348	0.605812	0.605172
	C202	C	0.087665	0.407812	0.603465
	C203	C	0.897393	0.407802	0.404765
	C204	C	0.893712	0.602713	0.104663
	C205	C	0.092037	0.411134	0.105021
	C206	C	0.092930	0.601433	0.903868
	C207	C	0.892761	0.411280	0.904896
	C208	C	0.092686	0.906524	0.598658
	C209	C	0.091956	0.107034	0.410139
	C210	C	0.892063	0.106900	0.598989
	C211	C	0.892251	0.906001	0.410027
	C212	C	0.588467	0.105545	0.904461
	C213	C	0.397681	0.104444	0.104409
	C214	C	0.588362	0.907502	0.104457
	C215	C	0.397550	0.905680	0.903651
	Zn216	Zn	0.492993	0.006259	0.754691
	Zn217	Zn	0.492700	0.006171	0.254637
	Zn218	Zn	0.743481	0.507403	0.004711
	Zn219	Zn	0.242448	0.505870	0.003694
	Zn220	Zn	-0.007272	0.755383	0.504555
	Zn221	Zn	-0.007963	0.257601	0.504754
	Zn222	Zn	-0.006927	0.506045	0.754652
	Zn223	Zn	-0.007183	0.507431	0.255123
	Zn224	Zn	0.493630	0.756993	0.004451
	Zn225	Zn	0.492470	0.255071	0.004599
	Zn226	Zn	0.741282	0.006913	0.503708
	Zn227	Zn	0.243308	0.006886	0.504249
	N228	N	0.406442	0.969816	0.683304
	N229	N	0.579241	0.043138	0.683703
	N230	N	0.578744	0.969554	0.325831
	N231	N	0.405685	0.043055	0.325127
	N232	N	0.671262	0.421923	0.966560
	N233	N	0.671016	0.591921	0.042018
	N234	N	0.315174	0.591230	0.966481
	N235	N	0.314343	0.420569	0.041244
	N236	N	0.955287	0.683056	0.420235
	N237	N	0.029933	0.683868	0.590075
	N238	N	0.954502	0.330396	0.588885
	N239	N	0.029673	0.329079	0.419206
	N240	N	0.956180	0.419963	0.683495
	N241	N	0.030024	0.592090	0.682820
	N242	N	0.956438	0.594060	0.325490
	N243	N	0.029968	0.421223	0.326412
	N244	N	0.407733	0.685064	0.967069
	N245	N	0.579060	0.684954	0.041340
	N246	N	0.579070	0.327025	0.967468
	N247	N	0.407014	0.327523	0.041371
	N248	N	0.668947	0.969179	0.419823
	N249	N	0.669291	0.044138	0.588813
	N250	N	0.315327	0.969543	0.589479
	N251	N	0.316231	0.044410	0.420159
	N252	N	0.906412	0.470679	0.183817
	N253	N	0.079674	0.543360	0.183368
	N254	N	0.080281	0.469787	0.824744
	N255	N	0.906814	0.543112	0.825905
	N256	N	0.170624	0.921900	0.466839
	N257	N	0.170754	0.092104	0.541613
	N258	N	0.813973	0.092151	0.467237
	N259	N	0.813570	0.921342	0.541595
	N260	N	0.455350	0.183169	0.919527
	N261	N	0.530162	0.183586	0.089934
	N262	N	0.455760	0.828978	0.089172
	N263	N	0.531069	0.829075	0.919953
	N264	N	0.455982	0.920243	0.182758
	N265	N	0.530212	0.091667	0.182856
	N266	N	0.455996	0.091970	0.826413
	N267	N	0.530210	0.919440	0.825288
	N268	N	0.905971	0.185766	0.467540
	N269	N	0.078280	0.185969	0.541461
	N270	N	0.078769	0.827513	0.467512
	N271	N	0.906861	0.827917	0.541862
	N272	N	0.169587	0.468399	0.919661
	N273	N	0.170081	0.543757	0.088428
	N274	N	0.816475	0.469604	0.088875
	N275	N	0.815435	0.544636	0.919675
	O276	O	0.515769	-0.534420	0.489764
	H277	H	0.516275	-0.534258	0.488109
	H278	H	0.508889	-0.535843	0.493330
	O279	O	0.515407	0.495083	0.453126
	H280	H	0.520362	0.492320	0.447414
	H281	H	0.512662	0.494122	0.448067
	O282	O	0.496712	0.564816	0.511341
	H283	H	0.499970	0.560075	0.513810
	H284	H	0.490577	0.560425	0.514003
	O285	O	0.494903	0.508020	0.526620
	H286	H	0.498206	0.512656	0.534819
	H287	H	0.490619	0.514131	0.522146
	O288	O	0.514996	0.527237	0.504687
	H289	H	0.519299	0.527065	0.501439
	H290	H	0.507483	0.524813	0.504607
	O291	O	0.490016	0.497829	0.450144
	H292	H	0.489401	0.502587	0.454436
	H293	H	0.494305	0.505173	0.446076
	O294	O	0.475927	0.462615	0.443935
	H295	H	0.475251	0.457023	0.447400
	H296	H	0.475409	0.461786	0.451407
	O297	O	1.255266	0.305062	0.243604
	H298	H	1.256598	0.307477	0.242674
	H299	H	1.250616	0.301194	0.233934
