data_Molecule from HDF5

_cell_length_a		16.205695
_cell_length_b		16.371185
_cell_length_c		16.419800
_cell_angle_alpha	90.127667
_cell_angle_beta	90.077176
_cell_angle_gamma	89.963258
_symmetry_space_group_name_H-M	'P 1'
_symmetry_Int_Tables_number		1

loop_
	_symmetry_equiv_pos_as_xyz
	x,y,z

loop_
	_atom_site_label
	_atom_site_type_symbol
	_atom_site_fract_x
	_atom_site_fract_y
	_atom_site_fract_z
	H0	H	0.399829	0.838096	0.716028
	H1	H	0.604495	0.160642	0.718018
	H2	H	0.609406	0.840877	0.274892
	H3	H	0.391170	0.156062	0.274936
	H4	H	0.713783	0.397793	0.834684
	H5	H	0.720913	0.605460	0.153829
	H6	H	0.282087	0.600353	0.834269
	H7	H	0.277494	0.398391	0.156004
	H8	H	0.836260	0.716701	0.396508
	H9	H	0.160944	0.716168	0.601411
	H10	H	0.836465	0.282418	0.597216
	H11	H	0.160561	0.280555	0.392847
	H12	H	0.837024	0.395146	0.713585
	H13	H	0.160750	0.599990	0.714912
	H14	H	0.836619	0.604843	0.277775
	H15	H	0.159600	0.396383	0.276681
	H16	H	0.397126	0.718134	0.836228
	H17	H	0.605756	0.721405	0.154890
	H18	H	0.601057	0.279254	0.837661
	H19	H	0.389912	0.278219	0.155643
	H20	H	0.716521	0.836859	0.399906
	H21	H	0.718627	0.160556	0.600251
	H22	H	0.283296	0.837024	0.600816
	H23	H	0.280034	0.158148	0.395855
	H24	H	0.891356	0.339830	0.216413
	H25	H	0.104671	0.659177	0.219285
	H26	H	0.104896	0.340004	0.774474
	H27	H	0.893968	0.658591	0.773715
	H28	H	0.221032	0.892877	0.338655
	H29	H	0.215783	0.098417	0.659519
	H30	H	0.779090	0.100108	0.339312
	H31	H	0.783195	0.896584	0.659819
	H32	H	0.335755	0.217927	0.893488
	H33	H	0.657442	0.223113	0.104622
	H34	H	0.337950	0.780731	0.101124
	H35	H	0.661387	0.782349	0.894861
	H36	H	0.340670	0.890513	0.220783
	H37	H	0.659422	0.106027	0.219070
	H38	H	0.338440	0.104438	0.777002
	H39	H	0.663457	0.899936	0.783359
	H40	H	0.892028	0.218429	0.339223
	H41	H	0.104432	0.219851	0.656660
	H42	H	0.106551	0.775541	0.338293
	H43	H	0.898416	0.778790	0.658122
	H44	H	0.219209	0.339898	0.891661
	H45	H	0.216322	0.661365	0.098114
	H46	H	0.779567	0.339346	0.096337
	H47	H	0.780815	0.661264	0.892961
	H48	H	0.410857	0.115769	0.596307
	H49	H	0.594716	0.883548	0.592305
	H50	H	0.582948	0.111056	0.407598
	H51	H	0.405201	0.884376	0.414939
	H52	H	0.587675	0.417233	0.107494
	H53	H	0.593771	0.587957	0.879987
	H54	H	0.414504	0.588413	0.107251
	H55	H	0.409048	0.407872	0.883203
	H56	H	0.115192	0.590127	0.405850
	H57	H	0.886148	0.587969	0.577671
	H58	H	0.113534	0.407709	0.583887
	H59	H	0.885110	0.408725	0.413572
	H60	H	0.114433	0.410945	0.586767
	H61	H	0.884801	0.580585	0.589163
	H62	H	0.112174	0.585952	0.410897
	H63	H	0.883016	0.414887	0.400918
	H64	H	0.408558	0.597493	0.112499
	H65	H	0.581820	0.589890	0.884721
	H66	H	0.581621	0.408808	0.110137
	H67	H	0.408615	0.409062	0.883012
	H68	H	0.591191	0.111702	0.414389
	H69	H	0.589786	0.883762	0.595042
	H70	H	0.413145	0.110756	0.585751
	H71	H	0.412891	0.882149	0.399745
	H72	H	0.912570	0.613445	0.088188
	H73	H	0.087292	0.386954	0.085648
	H74	H	0.080692	0.609489	0.911781
	H75	H	0.902376	0.382305	0.900834
	H76	H	0.093126	0.908508	0.611977
	H77	H	0.090549	0.084152	0.384512
	H78	H	0.908277	0.088159	0.612481
	H79	H	0.917603	0.908333	0.387062
	H80	H	0.611774	0.087238	0.914453
	H81	H	0.384497	0.091731	0.081692
	H82	H	0.615863	0.912140	0.091368
	H83	H	0.381746	0.910379	0.901049
	H84	H	0.614798	0.906103	0.083485
	H85	H	0.387174	0.080226	0.085710
	H86	H	0.614393	0.088420	0.903805
	H87	H	0.382686	0.905486	0.906902
	H88	H	0.913930	0.090080	0.611020
	H89	H	0.084897	0.089334	0.384334
	H90	H	0.086240	0.907658	0.610478
	H91	H	0.907883	0.899216	0.381752
	H92	H	0.097771	0.615868	0.906870
	H93	H	0.085461	0.387014	0.086902
	H94	H	0.910201	0.613021	0.083914
	H95	H	0.911270	0.385690	0.901016
	H96	H	0.402294	0.114733	0.588234
	H97	H	0.589608	0.884882	0.590597
	H98	H	0.592573	0.115616	0.404757
	H99	H	0.422244	0.888523	0.412935
	H100	H	0.591901	0.408956	0.112084
	H101	H	0.587953	0.598875	0.878957
	H102	H	0.403150	0.586759	0.111090
	H103	H	0.409158	0.408697	0.883228
	H104	H	0.113114	0.583152	0.404489
	H105	H	0.880282	0.593522	0.588916
	H106	H	0.116349	0.406479	0.587629
	H107	H	0.879122	0.401369	0.402419
	H108	H	0.907804	0.614213	0.087849
	H109	H	0.085590	0.387522	0.085050
	H110	H	0.084004	0.616460	0.894693
	H111	H	0.906491	0.386151	0.908246
	H112	H	0.090289	0.902500	0.612777
	H113	H	0.092056	0.090832	0.382296
	H114	H	0.909945	0.094146	0.613466
	H115	H	0.903806	0.913033	0.384450
	H116	H	0.615892	0.096663	0.910290
	H117	H	0.381513	0.088640	0.092872
	H118	H	0.611498	0.915637	0.082912
	H119	H	0.385255	0.912931	0.908321
	C120	C	0.378516	0.007227	0.620711
	C121	C	0.622655	0.990900	0.622150
	C122	C	0.621354	0.007192	0.377593
	C123	C	0.379161	0.989606	0.376886
	C124	C	0.618396	0.379463	0.004323
	C125	C	0.620518	0.623163	0.986604
	C126	C	0.377674	0.621478	0.004412
	C127	C	0.375770	0.377950	0.988096
	C128	C	0.006980	0.619181	0.376025
	C129	C	0.990484	0.618260	0.616871
	C130	C	0.007856	0.377348	0.617240
	C131	C	0.989461	0.377458	0.374331
	C132	C	0.876783	0.508172	0.117694
	C133	C	0.119050	0.492179	0.117816
	C134	C	0.120018	0.508027	0.873544
	C135	C	0.876002	0.490879	0.872587
	C136	C	0.122348	0.874807	0.506513
	C137	C	0.120555	0.119118	0.489653
	C138	C	0.878023	0.120579	0.506988
	C139	C	0.878987	0.876722	0.490453
	C140	C	0.507259	0.121685	0.877143
	C141	C	0.490191	0.120385	0.119386
	C142	C	0.508331	0.878023	0.118354
	C143	C	0.490984	0.879575	0.876333
	C144	C	0.380015	0.886207	0.677564
	C145	C	0.623743	0.112161	0.679421
	C146	C	0.625418	0.887632	0.316684
	C147	C	0.374664	0.108932	0.316270
	C148	C	0.675571	0.378700	0.883542
	C149	C	0.680788	0.624087	0.106433
	C150	C	0.320081	0.620647	0.883155
	C151	C	0.316558	0.378195	0.108345
	C152	C	0.885064	0.678211	0.376233
	C153	C	0.112463	0.676597	0.619108
	C154	C	0.885176	0.320481	0.616598
	C155	C	0.111656	0.319513	0.373588
	C156	C	0.885472	0.376775	0.674494
	C157	C	0.112502	0.619041	0.675793
	C158	C	0.885016	0.622182	0.317540
	C159	C	0.111091	0.376892	0.315485
	C160	C	0.377182	0.679290	0.883822
	C161	C	0.623651	0.681986	0.106857
	C162	C	0.619406	0.319357	0.885019
	C163	C	0.372856	0.318852	0.108159
	C164	C	0.679098	0.885706	0.378566
	C165	C	0.680343	0.112286	0.620672
	C166	C	0.321736	0.885643	0.620111
	C167	C	0.319123	0.109812	0.376311
	C168	C	0.873921	0.388042	0.176693
	C169	C	0.122125	0.611810	0.178390
	C170	C	0.122724	0.387786	0.814408
	C171	C	0.875345	0.611021	0.813865
	C172	C	0.181950	0.873826	0.386401
	C173	C	0.178059	0.118748	0.610742
	C174	C	0.818654	0.119884	0.386810
	C175	C	0.821520	0.876915	0.611260
	C176	C	0.384861	0.178901	0.875435
	C177	C	0.609848	0.182329	0.122556
	C178	C	0.386878	0.819090	0.119983
	C179	C	0.612972	0.821600	0.876281
	C180	C	0.388002	0.874243	0.179313
	C181	C	0.610862	0.123923	0.179312
	C182	C	0.386152	0.122505	0.817276
	C183	C	0.614025	0.880152	0.820742
	C184	C	0.874938	0.178627	0.386773
	C185	C	0.122355	0.179079	0.609316
	C186	C	0.124787	0.815464	0.386427
	C187	C	0.878612	0.818140	0.610456
	C188	C	0.179555	0.387787	0.873027
	C189	C	0.177655	0.613117	0.117966
	C190	C	0.817898	0.387599	0.116984
	C191	C	0.819062	0.612541	0.873192
	C192	C	0.401830	0.091945	0.596976
	C193	C	0.598563	0.906355	0.599240
	C194	C	0.596201	0.090968	0.401988
	C195	C	0.405684	0.906463	0.401859
	C196	C	0.594006	0.404481	0.088212
	C197	C	0.595251	0.599311	0.903021
	C198	C	0.401720	0.597793	0.088226
	C199	C	0.401286	0.401705	0.904792
	C200	C	0.091556	0.593748	0.400124
	C201	C	0.905953	0.594253	0.592300
	C202	C	0.092689	0.401319	0.593089
	C203	C	0.904607	0.401335	0.398556
	C204	C	0.902673	0.591734	0.093678
	C205	C	0.093628	0.408783	0.092968
	C206	C	0.094771	0.592038	0.897459
	C207	C	0.899860	0.406482	0.896428
	C208	C	0.097318	0.899053	0.589990
	C209	C	0.096410	0.095116	0.405795
	C210	C	0.903312	0.097402	0.590689
	C211	C	0.902715	0.900321	0.406265
	C212	C	0.592017	0.097682	0.902444
	C213	C	0.406170	0.094280	0.093961
	C214	C	0.592317	0.903812	0.093139
	C215	C	0.405486	0.902880	0.898916
	Zn216	Zn	0.500331	0.000252	0.749481
	Zn217	Zn	0.500372	-0.001670	0.247515
	Zn218	Zn	0.748414	0.500446	-0.005350
	Zn219	Zn	0.247873	0.500604	-0.003875
	Zn220	Zn	-0.000490	0.746936	0.497487
	Zn221	Zn	-0.000760	0.249130	0.496874
	Zn222	Zn	-0.001382	0.498149	0.744848
	Zn223	Zn	-0.002446	0.499895	0.247045
	Zn224	Zn	0.498729	0.751413	-0.003579
	Zn225	Zn	0.497477	0.249279	-0.002294
	Zn226	Zn	0.750225	-0.001034	0.499355
	Zn227	Zn	0.250459	-0.002649	0.498432
	N228	N	0.414377	0.962988	0.678111
	N229	N	0.588691	0.035658	0.680553
	N230	N	0.590448	0.964189	0.315884
	N231	N	0.411133	0.033173	0.316561
	N232	N	0.674896	0.415621	0.958962
	N233	N	0.679164	0.588223	0.030765
	N234	N	0.320202	0.585421	0.959219
	N235	N	0.318249	0.413943	0.032827
	N236	N	0.961947	0.676543	0.411802
	N237	N	0.035779	0.676240	0.583075
	N238	N	0.962257	0.320559	0.581843
	N239	N	0.034994	0.319312	0.409408
	N240	N	0.962864	0.411170	0.675313
	N241	N	0.035713	0.583544	0.674703
	N242	N	0.961837	0.586474	0.317157
	N243	N	0.034037	0.411922	0.315879
	N244	N	0.412047	0.680072	0.960142
	N245	N	0.586686	0.681329	0.031433
	N246	N	0.584445	0.319771	0.961273
	N247	N	0.408855	0.318416	0.032349
	N248	N	0.676914	0.961081	0.415681
	N249	N	0.679926	0.035859	0.585984
	N250	N	0.320640	0.962149	0.585582
	N251	N	0.321528	0.034416	0.413127
	N252	N	0.909598	0.464144	0.177333
	N253	N	0.086345	0.535721	0.178233
	N254	N	0.086067	0.463530	0.814932
	N255	N	0.909721	0.534170	0.813244
	N256	N	0.180645	0.910020	0.462005
	N257	N	0.177239	0.082138	0.535233
	N258	N	0.820590	0.084466	0.462519
	N259	N	0.821574	0.912504	0.535582
	N260	N	0.461278	0.178385	0.911993
	N261	N	0.533629	0.180286	0.085982
	N262	N	0.462849	0.821206	0.082875
	N263	N	0.535415	0.821117	0.910223
	N264	N	0.464546	0.910167	0.178547
	N265	N	0.535120	0.086404	0.177662
	N266	N	0.463321	0.087593	0.818255
	N267	N	0.537084	0.915329	0.820466
	N268	N	0.911227	0.179178	0.462477
	N269	N	0.087300	0.179457	0.533094
	N270	N	0.088395	0.815932	0.462038
	N271	N	0.913645	0.818004	0.534257
	N272	N	0.177769	0.463507	0.909185
	N273	N	0.175878	0.537713	0.081003
	N274	N	0.819373	0.463285	0.081022
	N275	N	0.819425	0.536806	0.908908
	O276	O	0.306103	0.703766	0.469987
	H277	H	0.307228	0.702104	0.427739
	H278	H	0.291735	0.722979	0.462482
	O279	O	0.645470	0.492249	0.329329
	H280	H	0.666037	0.480924	0.315484
	H281	H	0.640970	0.464065	0.344829
	O282	O	0.659306	0.502175	0.534301
	H283	H	0.654227	0.521280	0.548002
	H284	H	0.656693	0.508221	0.519755
	O285	O	0.953723	-0.003800	0.037376
	H286	H	0.955615	-0.004218	0.039066
	H287	H	0.961431	-0.010188	0.050645
	O288	O	0.160317	-0.185158	0.863925
	H289	H	0.163592	-0.194306	0.868911
	H290	H	0.169779	-0.181375	0.853604
	O291	O	0.501476	0.407887	0.618338
	H292	H	0.501149	0.413518	0.619796
	H293	H	0.522335	0.425440	0.623983
	O294	O	0.361804	0.524386	0.328055
	H295	H	0.360426	0.521555	0.328005
	H296	H	0.378160	0.524521	0.337338
	O297	O	0.918051	0.979249	1.092083
	H298	H	0.918022	0.977498	1.091384
	H299	H	0.932129	0.986258	1.101875
	O300	O	-0.186184	0.117281	-0.087208
	H301	H	-0.168769	0.117210	-0.084199
	H302	H	-0.191216	0.120380	-0.088063
	O303	O	0.500459	0.350263	0.503460
	H304	H	0.507733	0.351723	0.511621
	H305	H	0.487296	0.350337	0.505844
	O306	O	1.186497	0.107159	-0.034196
	H307	H	1.190867	0.113273	-0.034517
	H308	H	1.181769	0.090832	-0.040350
	O309	O	0.542228	0.686579	0.388179
	H310	H	0.551701	0.696698	0.376023
	H311	H	0.543975	0.672352	0.382771
	O312	O	1.029336	1.099265	-0.156670
	H313	H	1.021875	1.107333	-0.166621
	H314	H	1.031309	1.099686	-0.139118
	O315	O	0.505278	0.598331	0.487132
	H316	H	0.515646	0.590903	0.472355
	H317	H	0.510935	0.601311	0.482451
	O318	O	0.676347	0.585918	0.683027
	H319	H	0.691496	0.596207	0.701009
	H320	H	0.680105	0.613397	0.672406
	O321	O	0.864171	-0.055121	0.999774
	H322	H	0.847712	-0.042735	1.005797
	H323	H	0.847025	-0.052751	0.978289
	O324	O	-0.193552	0.046259	0.920478
	H325	H	-0.200368	0.052651	0.912684
	H326	H	-0.195310	0.033190	0.910127
	O327	O	0.556877	0.579262	0.294861
	H328	H	0.560079	0.573894	0.304902
	H329	H	0.556327	0.564459	0.290000
	O330	O	0.500457	0.299813	0.297463
	H331	H	0.501971	0.288167	0.276692
	H332	H	0.480123	0.295528	0.312969
	O333	O	0.983545	0.974532	1.159681
	H334	H	0.977207	0.972441	1.151274
	H335	H	0.981208	0.986613	1.178900
	O336	O	0.544629	0.682273	0.543344
	H337	H	0.528293	0.691825	0.535341
	H338	H	0.538290	0.688805	0.524922
	O339	O	1.173196	-0.127805	0.962937
	H340	H	1.178513	-0.136835	0.959974
	H341	H	1.166919	-0.125144	0.975148
	O342	O	-0.181090	0.975262	1.085374
	H343	H	-0.176554	0.994130	1.095279
	H344	H	-0.174225	0.968393	1.074260
	O345	O	0.034600	0.962969	1.064493
	H346	H	0.041476	0.953925	1.074532
	H347	H	0.028046	0.949500	1.076387
	O348	O	0.471633	0.472769	0.607982
	H349	H	0.472289	0.495736	0.614480
	H350	H	0.478008	0.482213	0.613986
	O351	O	0.022228	0.081548	0.117877
	H352	H	0.029371	0.091012	0.134692
	H353	H	0.035748	0.083253	0.112309
	O354	O	1.004445	1.187886	0.203933
	H355	H	1.013383	1.194874	0.205680
	H356	H	1.011375	1.191212	0.210684
	O357	O	0.191466	1.199075	0.134812
	H358	H	0.194634	1.218309	0.143452
	H359	H	0.188609	1.196557	0.096292
	O360	O	0.341757	0.473215	0.658459
	H361	H	0.345344	0.475425	0.662466
	H362	H	0.339609	0.480105	0.670377
	O363	O	0.652911	0.332697	0.532226
	H364	H	0.651041	0.333778	0.544182
	H365	H	0.662395	0.327518	0.530360
	O366	O	0.580292	0.559195	0.459109
	H367	H	0.575441	0.539641	0.467910
	H368	H	0.566937	0.556350	0.441451
	O369	O	0.378479	0.320840	0.568799
	H370	H	0.364773	0.314080	0.585877
	H371	H	0.370944	0.322446	0.592157
	O372	O	0.466476	0.336947	0.442971
	H373	H	0.466628	0.330489	0.443734
	H374	H	0.469921	0.348229	0.456471
	O375	O	0.420982	0.385674	0.605565
	H376	H	0.437072	0.382561	0.605366
	H377	H	0.411348	0.391733	0.601591
	O378	O	0.465579	0.614422	0.626185
	H379	H	0.462680	0.626361	0.624608
	H380	H	0.473328	0.618494	0.621549
	O381	O	0.595972	0.598846	0.584290
	H382	H	0.593866	0.614386	0.571647
	H383	H	0.584722	0.606298	0.581546
	O384	O	-0.007180	0.814274	1.203541
	H385	H	-0.014115	0.822598	1.213438
	H386	H	-0.017517	0.805553	1.211763
	O387	O	1.003079	0.989048	-0.040242
	H388	H	1.014028	0.990247	-0.036632
	H389	H	1.000009	0.989988	-0.038111
	O390	O	0.637808	0.332645	0.357501
	H391	H	0.618816	0.320642	0.351651
	H392	H	0.633414	0.330306	0.374022
	O393	O	1.198158	0.074044	1.203395
	H394	H	1.206114	0.074455	1.206050
	H395	H	1.216449	0.092633	1.196420
	O396	O	0.125131	0.962749	1.044497
	H397	H	0.128854	0.954214	1.043718
	H398	H	0.123126	0.961373	1.046708
	O399	O	0.336321	0.501853	0.314326
	H400	H	0.335128	0.494985	0.335732
	H401	H	0.343640	0.483136	0.313730
	O402	O	0.986605	0.110017	0.934455
	H403	H	0.981624	0.112471	0.926766
	H404	H	0.992185	0.121636	0.927580
	O405	O	-0.022778	0.039733	-0.200120
	H406	H	-0.036220	0.053112	-0.204852
	H407	H	-0.034674	0.029297	-0.204033
	O408	O	0.925074	0.956929	1.032394
	H409	H	0.928818	0.953870	1.023397
	H410	H	0.938134	0.968722	1.044952
	O411	O	1.106517	1.062631	-0.111148
	H412	H	1.105446	1.070672	-0.118565
	H413	H	1.104880	1.064308	-0.113362
	O414	O	-0.117653	0.024108	0.963858
	H415	H	-0.132078	0.017562	0.971471
	H416	H	-0.107363	0.019445	0.979508
	O417	O	0.434215	0.644038	0.323062
	H418	H	0.445941	0.626839	0.323338
	H419	H	0.445116	0.641055	0.307921
	O420	O	0.068931	0.836432	-0.187936
	H421	H	0.053469	0.824228	-0.187552
	H422	H	0.088883	0.858249	-0.197097
	O423	O	0.899112	-0.188175	-0.056585
	H424	H	0.888821	-0.181259	-0.048000
	H425	H	0.904961	-0.194942	-0.055749
	O426	O	-0.092357	0.018282	0.951115
	H427	H	-0.105111	0.021191	0.953059
	H428	H	-0.092264	0.007426	0.968203
	O429	O	0.379631	0.469270	0.517771
	H430	H	0.370947	0.464990	0.532639
	H431	H	0.378527	0.478301	0.523647
