data_Molecule from HDF5

_cell_length_a		16.487175
_cell_length_b		16.447604
_cell_length_c		16.467560
_cell_angle_alpha	90.005517
_cell_angle_beta	90.206711
_cell_angle_gamma	90.016907
_symmetry_space_group_name_H-M	'P 1'
_symmetry_Int_Tables_number		1

loop_
	_symmetry_equiv_pos_as_xyz
	x,y,z

loop_
	_atom_site_label
	_atom_site_type_symbol
	_atom_site_fract_x
	_atom_site_fract_y
	_atom_site_fract_z
	H0	H	0.381867	0.839668	0.721201
	H1	H	0.598024	0.153481	0.721448
	H2	H	0.593531	0.839247	0.276913
	H3	H	0.384298	0.156450	0.276395
	H4	H	0.712733	0.390511	0.842564
	H5	H	0.714344	0.606077	0.154940
	H6	H	0.264237	0.606477	0.842240
	H7	H	0.267982	0.392047	0.154963
	H8	H	0.833344	0.721691	0.390949
	H9	H	0.148222	0.719300	0.604183
	H10	H	0.831070	0.278975	0.599214
	H11	H	0.147552	0.276966	0.394602
	H12	H	0.831884	0.393307	0.718047
	H13	H	0.147654	0.603584	0.721224
	H14	H	0.832935	0.605588	0.273899
	H15	H	0.147870	0.393765	0.279051
	H16	H	0.380503	0.722605	0.842491
	H17	H	0.595009	0.718888	0.157897
	H18	H	0.596051	0.275042	0.841853
	H19	H	0.385208	0.276512	0.155888
	H20	H	0.710802	0.838834	0.391615
	H21	H	0.712105	0.153900	0.603868
	H22	H	0.268292	0.839617	0.602651
	H23	H	0.266329	0.155244	0.391035
	H24	H	0.880537	0.340053	0.221743
	H25	H	0.092836	0.654411	0.218868
	H26	H	0.093802	0.338718	0.777979
	H27	H	0.881594	0.655455	0.774255
	H28	H	0.207711	0.895076	0.340186
	H29	H	0.214363	0.105798	0.655492
	H30	H	0.765601	0.105245	0.341335
	H31	H	0.765595	0.889693	0.655462
	H32	H	0.331800	0.219330	0.892305
	H33	H	0.647422	0.221021	0.104736
	H34	H	0.333310	0.776651	0.104634
	H35	H	0.646993	0.775407	0.893274
	H36	H	0.331604	0.896851	0.217084
	H37	H	0.647126	0.107290	0.222711
	H38	H	0.332146	0.102259	0.775957
	H39	H	0.647010	0.889732	0.775681
	H40	H	0.883449	0.219429	0.340128
	H41	H	0.097121	0.220842	0.656618
	H42	H	0.093178	0.777225	0.341408
	H43	H	0.882038	0.774179	0.656226
	H44	H	0.211617	0.340032	0.891483
	H45	H	0.209469	0.654482	0.102479
	H46	H	0.767366	0.340057	0.102451
	H47	H	0.765371	0.655998	0.890098
	H48	H	0.406369	0.109299	0.588577
	H49	H	0.577475	0.883725	0.588974
	H50	H	0.572755	0.109099	0.408322
	H51	H	0.404855	0.885630	0.404108
	H52	H	0.569008	0.416875	0.105362
	H53	H	0.575172	0.581265	0.888635
	H54	H	0.393286	0.582389	0.113196
	H55	H	0.400215	0.413528	0.886472
	H56	H	0.099369	0.581283	0.410655
	H57	H	0.876729	0.588595	0.587394
	H58	H	0.100876	0.412054	0.585488
	H59	H	0.877099	0.410650	0.410063
	H60	H	0.104104	0.410629	0.592648
	H61	H	0.878969	0.585751	0.583079
	H62	H	0.103383	0.587254	0.405645
	H63	H	0.876110	0.407817	0.407341
	H64	H	0.405790	0.581314	0.106755
	H65	H	0.572616	0.589273	0.887021
	H66	H	0.575605	0.399396	0.113756
	H67	H	0.404413	0.406945	0.885722
	H68	H	0.580564	0.108679	0.416109
	H69	H	0.573812	0.886037	0.583632
	H70	H	0.402212	0.108244	0.582296
	H71	H	0.399672	0.887328	0.414838
	H72	H	0.905146	0.607341	0.082343
	H73	H	0.076669	0.386452	0.081245
	H74	H	0.080899	0.610936	0.909675
	H75	H	0.897963	0.386902	0.915997
	H76	H	0.083797	0.911727	0.612990
	H77	H	0.081038	0.092924	0.383302
	H78	H	0.900786	0.082863	0.609494
	H79	H	0.902741	0.906547	0.386234
	H80	H	0.600381	0.081114	0.910849
	H81	H	0.375144	0.088151	0.091990
	H82	H	0.603034	0.910599	0.087260
	H83	H	0.376589	0.909402	0.907564
	H84	H	0.602954	0.909527	0.088317
	H85	H	0.377352	0.091554	0.083753
	H86	H	0.604154	0.088439	0.905849
	H87	H	0.378133	0.908053	0.912659
	H88	H	0.905102	0.085583	0.609276
	H89	H	0.083239	0.081342	0.386472
	H90	H	0.074996	0.910388	0.610470
	H91	H	0.897970	0.908784	0.385669
	H92	H	0.075093	0.610471	0.908472
	H93	H	0.085553	0.379425	0.089155
	H94	H	0.898986	0.610803	0.085011
	H95	H	0.898295	0.383954	0.905944
	H96	H	0.399263	0.111580	0.588813
	H97	H	0.580280	0.884392	0.583216
	H98	H	0.582907	0.112851	0.405826
	H99	H	0.393128	0.882474	0.405392
	H100	H	0.588343	0.415596	0.112490
	H101	H	0.580759	0.587258	0.885065
	H102	H	0.402326	0.593588	0.112828
	H103	H	0.396938	0.406933	0.883581
	H104	H	0.101966	0.589690	0.413976
	H105	H	0.878329	0.583343	0.588479
	H106	H	0.104385	0.404723	0.586763
	H107	H	0.876427	0.406850	0.410882
	H108	H	0.904974	0.609802	0.089967
	H109	H	0.073037	0.382289	0.093874
	H110	H	0.077105	0.608721	0.913669
	H111	H	0.906687	0.388825	0.909722
	H112	H	0.080302	0.903417	0.613862
	H113	H	0.072348	0.086278	0.389092
	H114	H	0.900678	0.088268	0.611201
	H115	H	0.901683	0.912047	0.388039
	H116	H	0.601683	0.089975	0.914836
	H117	H	0.379332	0.082627	0.086080
	H118	H	0.603152	0.909307	0.087157
	H119	H	0.378882	0.912664	0.910777
	C120	C	0.369140	0.005867	0.619132
	C121	C	0.610511	0.988467	0.618643
	C122	C	0.611112	0.006044	0.377057
	C123	C	0.368107	0.989969	0.376603
	C124	C	0.610588	0.376990	0.007048
	C125	C	0.610400	0.619523	0.990620
	C126	C	0.367365	0.619621	0.007579
	C127	C	0.368101	0.376512	0.989481
	C128	C	-0.002260	0.618910	0.377025
	C129	C	0.981678	0.619220	0.620057
	C130	C	-0.001436	0.376647	0.619506
	C131	C	0.980930	0.376305	0.377203
	C132	C	0.868535	0.505827	0.119329
	C133	C	0.110604	0.487429	0.119936
	C134	C	0.110514	0.505892	0.877360
	C135	C	0.867400	0.490074	0.876581
	C136	C	0.110581	0.876997	0.507598
	C137	C	0.111917	0.119674	0.490020
	C138	C	0.868820	0.118312	0.506050
	C139	C	0.867718	0.875531	0.490309
	C140	C	0.498224	0.119303	0.876822
	C141	C	0.481270	0.120563	0.120271
	C142	C	0.498671	0.877951	0.119829
	C143	C	0.481494	0.876165	0.877209
	C144	C	0.365015	0.887095	0.680346
	C145	C	0.614906	0.106346	0.680306
	C146	C	0.612154	0.886732	0.316948
	C147	C	0.366430	0.108979	0.316948
	C148	C	0.671831	0.373135	0.889390
	C149	C	0.672871	0.623301	0.108570
	C150	C	0.305159	0.623912	0.889434
	C151	C	0.308127	0.373745	0.108033
	C152	C	0.880146	0.680783	0.373181
	C153	C	0.100695	0.679151	0.622676
	C154	C	0.878912	0.317836	0.619430
	C155	C	0.100280	0.316938	0.375902
	C156	C	0.879173	0.375025	0.678088
	C157	C	0.100405	0.621696	0.681055
	C158	C	0.880122	0.623191	0.314795
	C159	C	0.100160	0.374793	0.318250
	C160	C	0.363570	0.681479	0.889619
	C161	C	0.613651	0.679617	0.109780
	C162	C	0.613833	0.315491	0.889126
	C163	C	0.366496	0.316578	0.108349
	C164	C	0.670511	0.886481	0.374269
	C165	C	0.672118	0.106566	0.622156
	C166	C	0.308063	0.887056	0.621538
	C167	C	0.307417	0.108431	0.373824
	C168	C	0.863882	0.387479	0.180661
	C169	C	0.111989	0.606913	0.179357
	C170	C	0.112772	0.386805	0.817150
	C171	C	0.863942	0.608197	0.814911
	C172	C	0.168619	0.876093	0.388120
	C173	C	0.173233	0.123304	0.608811
	C174	C	0.806933	0.122046	0.388245
	C175	C	0.806122	0.871579	0.608305
	C176	C	0.379412	0.179357	0.873957
	C177	C	0.600118	0.181098	0.122989
	C178	C	0.380061	0.817727	0.122228
	C179	C	0.599879	0.815578	0.875103
	C180	C	0.379444	0.877162	0.178417
	C181	C	0.599708	0.124265	0.181628
	C182	C	0.379611	0.121177	0.816037
	C183	C	0.599443	0.872108	0.815946
	C184	C	0.865685	0.179196	0.387702
	C185	C	0.114980	0.180728	0.608853
	C186	C	0.111681	0.817459	0.388607
	C187	C	0.864145	0.814138	0.608771
	C188	C	0.171339	0.387205	0.873995
	C189	C	0.169746	0.606901	0.121492
	C190	C	0.807023	0.387478	0.121671
	C191	C	0.805975	0.608464	0.872652
	C192	C	0.395008	0.088223	0.593653
	C193	C	0.584499	0.906179	0.592666
	C194	C	0.586083	0.088747	0.402859
	C195	C	0.392446	0.906681	0.401146
	C196	C	0.584808	0.403268	0.089494
	C197	C	0.583866	0.593503	0.908407
	C198	C	0.393089	0.593222	0.089665
	C199	C	0.393044	0.402014	0.906805
	C200	C	0.080044	0.593506	0.402846
	C201	C	0.899333	0.593389	0.593976
	C202	C	0.081473	0.401676	0.595412
	C203	C	0.898188	0.401238	0.402158
	C204	C	0.895152	0.587974	0.093386
	C205	C	0.085719	0.404422	0.095119
	C206	C	0.084936	0.588317	0.902995
	C207	C	0.893435	0.408048	0.903129
	C208	C	0.086434	0.901415	0.590766
	C209	C	0.086306	0.094159	0.407822
	C210	C	0.894710	0.092632	0.588657
	C211	C	0.893495	0.901404	0.408242
	C212	C	0.580635	0.093862	0.902931
	C213	C	0.398907	0.094801	0.094663
	C214	C	0.581451	0.902839	0.094794
	C215	C	0.399211	0.902425	0.902924
	Zn216	Zn	0.490316	-0.002782	0.748209
	Zn217	Zn	0.490033	-0.001041	0.248391
	Zn218	Zn	0.739251	0.498660	-0.001594
	Zn219	Zn	0.239050	0.497266	-0.001427
	Zn220	Zn	-0.010317	0.747709	0.499154
	Zn221	Zn	-0.010188	0.247527	0.498485
	Zn222	Zn	-0.010448	0.497531	0.748662
	Zn223	Zn	-0.011059	0.496758	0.248558
	Zn224	Zn	0.489872	0.748206	-0.000720
	Zn225	Zn	0.489543	0.248258	-0.001259
	Zn226	Zn	0.739376	-0.003177	0.498226
	Zn227	Zn	0.239780	-0.002014	0.498591
	N228	N	0.402373	0.961837	0.678951
	N229	N	0.577355	0.031888	0.678377
	N230	N	0.576343	0.962244	0.318015
	N231	N	0.403471	0.034353	0.318717
	N232	N	0.669791	0.410914	0.963836
	N233	N	0.671306	0.586977	0.033336
	N234	N	0.307431	0.585850	0.963662
	N235	N	0.308858	0.410080	0.032874
	N236	N	0.954256	0.678208	0.411245
	N237	N	0.025917	0.677819	0.585690
	N238	N	0.954349	0.318401	0.584339
	N239	N	0.025119	0.317610	0.411753
	N240	N	0.954637	0.410616	0.678410
	N241	N	0.025216	0.585246	0.679521
	N242	N	0.954103	0.585063	0.317423
	N243	N	0.024920	0.410594	0.318918
	N244	N	0.401470	0.679000	0.964061
	N245	N	0.575685	0.677366	0.035445
	N246	N	0.576442	0.318113	0.963379
	N247	N	0.402922	0.318249	0.033609
	N248	N	0.670062	0.961771	0.410637
	N249	N	0.669475	0.032128	0.584605
	N250	N	0.310345	0.961962	0.584422
	N251	N	0.308288	0.033306	0.410316
	N252	N	0.901277	0.462050	0.179252
	N253	N	0.075995	0.531512	0.178685
	N254	N	0.075836	0.461561	0.819035
	N255	N	0.901260	0.533510	0.817087
	N256	N	0.168398	0.912009	0.463474
	N257	N	0.171603	0.086032	0.534157
	N258	N	0.808968	0.084536	0.462863
	N259	N	0.808208	0.908982	0.533750
	N260	N	0.454364	0.178605	0.910656
	N261	N	0.525441	0.178966	0.085597
	N262	N	0.455359	0.817894	0.086751
	N263	N	0.525179	0.817685	0.912156
	N264	N	0.454142	0.913858	0.176882
	N265	N	0.524840	0.087456	0.180270
	N266	N	0.454716	0.084939	0.817395
	N267	N	0.524727	0.908993	0.817202
	N268	N	0.903963	0.176480	0.461873
	N269	N	0.077668	0.178689	0.534077
	N270	N	0.076451	0.817882	0.464031
	N271	N	0.901782	0.816376	0.534389
	N272	N	0.170461	0.462447	0.910454
	N273	N	0.169070	0.531568	0.085639
	N274	N	0.809861	0.462116	0.084238
	N275	N	0.807897	0.533873	0.910268
	O276	O	1.038464	1.095662	0.069881
	H277	H	1.034400	1.113886	0.065475
	H278	H	1.040191	1.100073	0.089482
	O279	O	0.197637	-0.029551	-0.013994
	H280	H	0.199138	-0.021756	-0.023705
	H281	H	0.207551	-0.026906	-0.009263
	O282	O	1.049550	1.042616	-0.210843
	H283	H	1.037796	1.035507	-0.203527
	H284	H	1.039181	1.066283	-0.214913
	O285	O	0.677167	0.312844	0.480911
	H286	H	0.661704	0.309957	0.496322
	H287	H	0.680284	0.329691	0.499218
	O288	O	-0.212116	0.025700	-0.209737
	H289	H	-0.219747	0.030399	-0.193065
	H290	H	-0.226129	0.028439	-0.225631
	O291	O	1.354225	0.600448	0.596328
	H292	H	1.353199	0.598465	0.599417
	H293	H	1.359585	0.581882	0.593463
	O294	O	-0.232921	0.970077	0.218392
	H295	H	-0.268072	0.966185	0.257053
	H296	H	-0.218037	0.918236	0.208518
	O297	O	0.183757	0.187966	0.190267
	H298	H	0.170749	0.194526	0.179191
	H299	H	0.189051	0.185471	0.200926
	O300	O	0.447454	0.553955	0.575652
	H301	H	0.441425	0.545055	0.575887
	H302	H	0.444065	0.543940	0.580418
	O303	O	0.511376	0.290362	0.290708
	H304	H	0.499487	0.274165	0.285883
	H305	H	0.494095	0.299532	0.293079
	O306	O	0.680436	0.648032	0.691140
	H307	H	0.693789	0.660328	0.656602
	H308	H	0.643227	0.661792	0.702875
	O309	O	0.397498	0.442488	0.429167
	H310	H	0.410765	0.451768	0.439257
	H311	H	0.374732	0.423412	0.434045
	O312	O	0.514078	0.717085	0.717753
	H313	H	0.509859	0.749548	0.742853
	H314	H	0.507456	0.723119	0.689669
	O315	O	0.702439	-0.494598	1.682596
	H316	H	0.690591	-0.456420	1.681825
	H317	H	0.729310	-0.479197	1.691111
	O318	O	0.017704	0.781243	-0.217935
	H319	H	0.009044	0.781096	-0.230173
	H320	H	0.037541	0.773297	-0.233176
	O321	O	0.289760	0.344614	-0.510762
	H322	H	0.288150	0.340363	-0.517863
	H323	H	0.290819	0.334827	-0.516425
	O324	O	0.861196	-0.054145	1.037806
	H325	H	0.861629	-0.069055	1.039401
	H326	H	0.863711	-0.040694	1.046566
	O327	O	0.807042	-0.181333	1.008423
	H328	H	0.794108	-0.192542	0.998616
	H329	H	0.818618	-0.187684	0.989972
	O330	O	0.675854	0.315927	0.315029
	H331	H	0.626964	0.303883	0.306228
	H332	H	0.681819	0.307793	0.365221
	O333	O	1.284279	0.700130	1.290640
	H334	H	1.303040	0.709060	1.319860
	H335	H	1.255855	0.722119	1.263771
	O336	O	0.496251	0.707664	0.567963
	H337	H	0.504902	0.692222	0.547290
	H338	H	0.483876	0.704584	0.557884
	O339	O	0.303581	0.307626	0.683816
	H340	H	0.292854	0.360062	0.695010
	H341	H	0.318632	0.296756	0.662743
	O342	O	0.127903	0.963458	0.869499
	H343	H	0.116050	0.981357	0.872999
	H344	H	0.121785	0.963609	0.856416
	O345	O	-0.040792	0.218726	-0.224272
	H346	H	-0.084502	0.215478	-0.219467
	H347	H	-0.041856	0.242573	-0.255995
	O348	O	0.786208	0.203043	0.794893
	H349	H	0.787408	0.201892	0.837083
	H350	H	0.763495	0.203553	0.780625
	O351	O	1.019745	1.213167	0.208950
	H352	H	1.009986	1.216444	0.216123
	H353	H	1.030667	1.221613	0.211560
	O354	O	0.506486	0.284654	0.525973
	H355	H	0.500528	0.291624	0.546931
	H356	H	0.480783	0.276573	0.536660
	O357	O	1.359437	1.526262	0.717724
	H358	H	1.362274	1.538785	0.729924
	H359	H	1.371267	1.535623	0.698627
	O360	O	0.278530	0.711837	0.460193
	H361	H	0.275033	0.712260	0.459793
	H362	H	0.260891	0.718081	0.464198
	O363	O	0.542857	0.438690	0.718229
	H364	H	0.547723	0.451128	0.723031
	H365	H	0.562069	0.423897	0.722705
	O366	O	1.028577	0.129177	0.943116
	H367	H	1.033225	0.122965	0.933949
	H368	H	1.022811	0.130016	0.925437
	O369	O	0.812126	0.928851	0.903090
	H370	H	0.817752	0.910941	0.917916
	H371	H	0.815767	0.945341	0.911105
	O372	O	0.542321	0.683048	0.415486
	H373	H	0.538766	0.673784	0.403086
	H374	H	0.548133	0.681914	0.415635
	O375	O	0.002882	1.028108	0.973638
	H376	H	0.002023	1.031708	0.983486
	H377	H	-0.004634	1.024356	0.966831
	O378	O	0.363199	0.493422	0.404376
	H379	H	0.364759	0.505917	0.412293
	H380	H	0.374021	0.495693	0.412868
	O381	O	0.990530	-0.157049	-0.138852
	H382	H	1.005814	-0.144676	-0.131872
	H383	H	1.003725	-0.147547	-0.148668
	O384	O	0.177503	-0.190013	1.185438
	H385	H	0.154364	-0.173647	1.172580
	H386	H	0.174377	-0.178822	1.163522
	O387	O	-0.170517	1.177836	0.974161
	H388	H	-0.177726	1.176530	0.985177
	H389	H	-0.168632	1.168130	0.991626
	O390	O	0.189420	0.016990	1.194200
	H391	H	0.195701	0.019467	1.208845
	H392	H	0.186755	0.026388	1.182043
	O393	O	0.842987	1.006375	0.040887
	H394	H	0.854903	1.000358	0.053702
	H395	H	0.849793	1.010195	0.039944
	O396	O	0.273359	0.524050	0.282426
	H397	H	0.272076	0.545392	0.273961
	H398	H	0.258685	0.543154	0.264682
	O399	O	0.805542	0.811356	0.190255
	H400	H	0.835579	0.794312	0.190615
	H401	H	0.802081	0.795082	0.158960
	O402	O	-0.101278	0.173311	1.099208
	H403	H	-0.109728	0.193931	1.096517
	H404	H	-0.094855	0.173987	1.103351
	O405	O	0.181927	-0.183159	-0.040117
	H406	H	0.171067	-0.158368	-0.049995
	H407	H	0.187599	-0.209228	-0.046699
	O408	O	0.457032	0.708781	0.288249
	H409	H	0.452935	0.710166	0.272261
	H410	H	0.451605	0.714041	0.284558
	O411	O	0.179892	0.838432	0.838391
	H412	H	0.169245	0.852601	0.843411
	H413	H	0.186778	0.863473	0.831870
	O414	O	0.627040	0.317633	0.647319
	H415	H	0.634054	0.339878	0.642142
	H416	H	0.614448	0.323191	0.643803
	O417	O	0.587365	0.589759	0.367239
	H418	H	0.577598	0.583679	0.373574
	H419	H	0.598385	0.578827	0.364601
	O420	O	0.702972	0.442491	0.543803
	H421	H	0.699012	0.452598	0.532767
	H422	H	0.712131	0.444342	0.553549
	O423	O	0.373862	1.293258	0.377476
	H424	H	0.383233	1.321626	0.394700
	H425	H	0.375402	1.295097	0.378062
	O426	O	1.198000	1.209614	1.021874
	H427	H	1.211063	1.229436	1.036497
	H428	H	1.192746	1.208925	1.022089
	O429	O	0.461833	0.278861	0.718076
	H430	H	0.463230	0.272422	0.736604
	H431	H	0.442900	0.271474	0.733536
	O432	O	0.700311	0.480914	0.282912
	H433	H	0.696165	0.454262	0.283131
	H434	H	0.715524	0.452531	0.266261
	O435	O	0.082567	0.017177	-0.093184
	H436	H	0.079793	0.021092	-0.097813
	H437	H	0.084894	0.014674	-0.093263
	O438	O	1.036065	-0.195758	0.045477
	H439	H	1.027477	-0.176988	0.043029
	H440	H	1.034265	-0.198167	0.032491
	O441	O	0.281839	0.504504	0.672693
	H442	H	0.259811	0.518335	0.684094
	H443	H	0.311460	0.520637	0.667714
	O444	O	-0.022431	0.805410	1.182753
	H445	H	-0.026253	0.802816	1.211325
	H446	H	-0.008821	0.823952	1.173511
	O447	O	0.497341	0.459664	0.403627
	H448	H	0.496585	0.462734	0.409514
	H449	H	0.486766	0.471707	0.409529
	O450	O	0.632166	0.557892	0.440093
	H451	H	0.640210	0.542152	0.429508
	H452	H	0.625595	0.554032	0.441697
	O453	O	0.694327	0.706172	0.524258
	H454	H	0.690625	0.706302	0.506771
	H455	H	0.709505	0.720787	0.518000
	O456	O	0.885493	0.031489	-0.153503
	H457	H	0.882890	0.027764	-0.144505
	H458	H	0.874406	0.042678	-0.159321
	O459	O	0.901141	0.054733	1.149972
	H460	H	0.882440	0.051620	1.164812
	H461	H	0.900197	0.050719	1.145670
	O462	O	0.407563	0.446917	0.465787
	H463	H	0.407585	0.448075	0.470457
	H464	H	0.402851	0.451793	0.457272
	O465	O	1.071132	-0.053277	0.157614
	H466	H	1.082875	-0.048023	0.156921
	H467	H	1.052567	-0.028378	0.164770
