data_Molecule from HDF5

_cell_length_a		16.714698
_cell_length_b		16.539683
_cell_length_c		16.604585
_cell_angle_alpha	89.866844
_cell_angle_beta	89.977059
_cell_angle_gamma	90.064054
_symmetry_space_group_name_H-M	'P 1'
_symmetry_Int_Tables_number		1

loop_
	_symmetry_equiv_pos_as_xyz
	x,y,z

loop_
	_atom_site_label
	_atom_site_type_symbol
	_atom_site_fract_x
	_atom_site_fract_y
	_atom_site_fract_z
	H0	H	0.393180	0.833693	0.727777
	H1	H	0.600647	0.147001	0.719651
	H2	H	0.606047	0.833125	0.282726
	H3	H	0.393811	0.143599	0.281690
	H4	H	0.726812	0.377048	0.852238
	H5	H	0.725208	0.596727	0.157047
	H6	H	0.277566	0.595004	0.849722
	H7	H	0.279598	0.384996	0.160581
	H8	H	0.844589	0.709947	0.399492
	H9	H	0.155225	0.710149	0.608053
	H10	H	0.848501	0.263125	0.612014
	H11	H	0.152650	0.264401	0.394072
	H12	H	0.850701	0.376228	0.731051
	H13	H	0.154708	0.594601	0.726205
	H14	H	0.845712	0.597387	0.280053
	H15	H	0.153436	0.383409	0.280296
	H16	H	0.397861	0.708057	0.848134
	H17	H	0.607742	0.711915	0.158034
	H18	H	0.604810	0.266950	0.848640
	H19	H	0.395804	0.267998	0.159508
	H20	H	0.721704	0.833594	0.398453
	H21	H	0.720646	0.145140	0.607201
	H22	H	0.277571	0.833120	0.611656
	H23	H	0.278772	0.143356	0.397760
	H24	H	0.893766	0.333264	0.225906
	H25	H	0.101960	0.647495	0.221547
	H26	H	0.106508	0.332724	0.782704
	H27	H	0.891707	0.641806	0.778873
	H28	H	0.224730	0.880222	0.349478
	H29	H	0.225464	0.097694	0.657343
	H30	H	0.779344	0.094249	0.348468
	H31	H	0.780160	0.883477	0.659474
	H32	H	0.343484	0.207811	0.900953
	H33	H	0.654177	0.212328	0.109558
	H34	H	0.346453	0.765693	0.111130
	H35	H	0.653090	0.764455	0.895851
	H36	H	0.347475	0.880671	0.227881
	H37	H	0.654797	0.095542	0.226225
	H38	H	0.345289	0.094649	0.782168
	H39	H	0.654263	0.883048	0.781479
	H40	H	0.897908	0.209056	0.347737
	H41	H	0.109833	0.213292	0.657379
	H42	H	0.107705	0.765717	0.348427
	H43	H	0.898300	0.768860	0.659805
	H44	H	0.219960	0.331998	0.900681
	H45	H	0.217815	0.647253	0.106328
	H46	H	0.776237	0.333864	0.112120
	H47	H	0.775503	0.641154	0.893234
	H48	H	0.407865	0.100202	0.587976
	H49	H	0.587950	0.877239	0.592162
	H50	H	0.585767	0.101111	0.413355
	H51	H	0.414068	0.875394	0.411054
	H52	H	0.582411	0.394234	0.115434
	H53	H	0.583195	0.579609	0.892877
	H54	H	0.405578	0.582834	0.119886
	H55	H	0.405756	0.403620	0.892265
	H56	H	0.111677	0.579410	0.410915
	H57	H	0.889694	0.573491	0.595000
	H58	H	0.110041	0.399596	0.583665
	H59	H	0.888106	0.399241	0.413853
	H60	H	0.108475	0.409300	0.590333
	H61	H	0.889329	0.580180	0.592125
	H62	H	0.110264	0.578981	0.413602
	H63	H	0.889626	0.399301	0.416424
	H64	H	0.406110	0.570737	0.115311
	H65	H	0.593103	0.575531	0.891701
	H66	H	0.596033	0.403998	0.116474
	H67	H	0.411976	0.399412	0.892517
	H68	H	0.589316	0.099537	0.420142
	H69	H	0.594720	0.874465	0.591957
	H70	H	0.410686	0.101955	0.595762
	H71	H	0.419175	0.880879	0.420801
	H72	H	0.905298	0.603216	0.093318
	H73	H	0.089171	0.375204	0.100345
	H74	H	0.091122	0.601318	0.915299
	H75	H	0.913232	0.375700	0.913732
	H76	H	0.089140	0.899753	0.615330
	H77	H	0.089223	0.079118	0.392265
	H78	H	0.912218	0.072131	0.613569
	H79	H	0.916101	0.899321	0.392987
	H80	H	0.612559	0.083645	0.914225
	H81	H	0.389838	0.074728	0.095694
	H82	H	0.609598	0.903271	0.092840
	H83	H	0.392492	0.909531	0.913986
	H84	H	0.612110	0.900179	0.095097
	H85	H	0.388544	0.080214	0.094749
	H86	H	0.608886	0.076545	0.916845
	H87	H	0.386548	0.895918	0.910441
	H88	H	0.914616	0.078522	0.615024
	H89	H	0.091925	0.072733	0.392842
	H90	H	0.089679	0.902221	0.613691
	H91	H	0.907430	0.896058	0.388822
	H92	H	0.088878	0.601203	0.912723
	H93	H	0.085460	0.378430	0.090298
	H94	H	0.918380	0.599252	0.094569
	H95	H	0.919898	0.380737	0.919846
	H96	H	0.415748	0.098169	0.590553
	H97	H	0.590755	0.874278	0.598405
	H98	H	0.593571	0.103101	0.414721
	H99	H	0.407799	0.876699	0.420998
	H100	H	0.581783	0.410014	0.109671
	H101	H	0.585395	0.569297	0.896146
	H102	H	0.416913	0.578451	0.114265
	H103	H	0.405946	0.396437	0.890096
	H104	H	0.110369	0.576528	0.412014
	H105	H	0.892086	0.575043	0.588430
	H106	H	0.113183	0.399675	0.595398
	H107	H	0.889483	0.402143	0.414733
	H108	H	0.911761	0.597489	0.083009
	H109	H	0.095850	0.375776	0.091384
	H110	H	0.087889	0.600081	0.915937
	H111	H	0.910614	0.378357	0.923431
	H112	H	0.087343	0.901128	0.613244
	H113	H	0.085231	0.074216	0.394868
	H114	H	0.908196	0.076959	0.616636
	H115	H	0.908588	0.905220	0.392231
	H116	H	0.611473	0.077071	0.908740
	H117	H	0.390815	0.077113	0.090356
	H118	H	0.611197	0.899316	0.091010
	H119	H	0.391974	0.898015	0.925030
	C120	C	0.378735	-0.002679	0.625098
	C121	C	0.621518	0.979971	0.625067
	C122	C	0.621571	-0.002036	0.383529
	C123	C	0.380274	0.980032	0.383934
	C124	C	0.620569	0.368184	0.012339
	C125	C	0.621646	0.609619	0.995152
	C126	C	0.378090	0.610061	0.013313
	C127	C	0.377221	0.367897	0.995322
	C128	C	0.008160	0.611146	0.380979
	C129	C	0.992382	0.609020	0.624408
	C130	C	0.009940	0.367348	0.624567
	C131	C	0.991026	0.367709	0.381670
	C132	C	0.878811	0.497301	0.124232
	C133	C	0.120748	0.481024	0.125128
	C134	C	0.121064	0.497154	0.883282
	C135	C	0.879538	0.479425	0.883291
	C136	C	0.121869	0.867442	0.511961
	C137	C	0.122206	0.109485	0.495348
	C138	C	0.879906	0.109029	0.512168
	C139	C	0.879130	0.867652	0.494772
	C140	C	0.508382	0.111003	0.881768
	C141	C	0.492132	0.110473	0.125680
	C142	C	0.509612	0.867054	0.126046
	C143	C	0.492125	0.868126	0.883246
	C144	C	0.375235	0.880373	0.687003
	C145	C	0.620802	0.099235	0.681530
	C146	C	0.624028	0.880110	0.323432
	C147	C	0.376439	0.096857	0.322382
	C148	C	0.684108	0.361582	0.897309
	C149	C	0.683904	0.614096	0.111007
	C150	C	0.318320	0.612956	0.896007
	C151	C	0.318913	0.366174	0.113366
	C152	C	0.891477	0.670789	0.380074
	C153	C	0.108777	0.669786	0.626378
	C154	C	0.895073	0.303757	0.629937
	C155	C	0.106799	0.306080	0.377310
	C156	C	0.895915	0.360274	0.688858
	C157	C	0.108536	0.612330	0.685066
	C158	C	0.891932	0.614608	0.320852
	C159	C	0.107058	0.365088	0.320458
	C160	C	0.377872	0.668972	0.895283
	C161	C	0.625584	0.671298	0.111388
	C162	C	0.623726	0.306690	0.895652
	C163	C	0.376587	0.308217	0.113021
	C164	C	0.681595	0.880298	0.380679
	C165	C	0.680525	0.098399	0.626041
	C166	C	0.317978	0.880005	0.629150
	C167	C	0.319095	0.096698	0.380035
	C168	C	0.875559	0.380185	0.185761
	C169	C	0.121012	0.599879	0.182826
	C170	C	0.123889	0.379439	0.823389
	C171	C	0.874489	0.595104	0.819811
	C172	C	0.183631	0.863083	0.395699
	C173	C	0.184422	0.114348	0.610994
	C174	C	0.819733	0.112164	0.395107
	C175	C	0.819878	0.865153	0.612436
	C176	C	0.390957	0.169305	0.881296
	C177	C	0.607992	0.171399	0.127690
	C178	C	0.393471	0.805635	0.129414
	C179	C	0.607365	0.806077	0.879068
	C180	C	0.393695	0.863253	0.187306
	C181	C	0.608253	0.113613	0.186010
	C182	C	0.391710	0.112831	0.822269
	C183	C	0.607784	0.864880	0.821942
	C184	C	0.878605	0.168978	0.394518
	C185	C	0.126925	0.172205	0.611038
	C186	C	0.125306	0.806185	0.395161
	C187	C	0.878522	0.808286	0.612784
	C188	C	0.180360	0.379211	0.882050
	C189	C	0.178760	0.599853	0.125633
	C190	C	0.817085	0.380550	0.129192
	C191	C	0.816465	0.594826	0.876763
	C192	C	0.404143	0.078735	0.598914
	C193	C	0.597815	0.897114	0.601275
	C194	C	0.596717	0.079850	0.408698
	C195	C	0.406374	0.898650	0.410162
	C196	C	0.594327	0.395192	0.092805
	C197	C	0.594960	0.582464	0.914632
	C198	C	0.402638	0.584525	0.095359
	C199	C	0.401175	0.392754	0.913001
	C200	C	0.089496	0.585634	0.405263
	C201	C	0.911482	0.583441	0.599233
	C202	C	0.089667	0.395138	0.597403
	C203	C	0.910260	0.393003	0.407717
	C204	C	0.904573	0.578615	0.097793
	C205	C	0.097067	0.398215	0.100813
	C206	C	0.096278	0.579362	0.907599
	C207	C	0.906665	0.399081	0.911385
	C208	C	0.096127	0.893614	0.592998
	C209	C	0.095955	0.082903	0.414193
	C210	C	0.904894	0.083475	0.593841
	C211	C	0.903716	0.892898	0.412666
	C212	C	0.589765	0.086270	0.906474
	C213	C	0.410910	0.084520	0.100513
	C214	C	0.590016	0.893472	0.100279
	C215	C	0.411279	0.893961	0.909137
	Zn216	Zn	0.500081	-0.011062	0.753097
	Zn217	Zn	0.500865	-0.011102	0.255402
	Zn218	Zn	0.750151	0.488064	0.003530
	Zn219	Zn	0.249185	0.489316	0.004387
	Zn220	Zn	0.000400	0.739369	0.503068
	Zn221	Zn	0.001139	0.238596	0.503302
	Zn222	Zn	0.000827	0.488137	0.754371
	Zn223	Zn	-0.001141	0.489745	0.252623
	Zn224	Zn	0.500134	0.738146	0.004179
	Zn225	Zn	0.499384	0.239743	0.003779
	Zn226	Zn	0.749974	-0.011331	0.504454
	Zn227	Zn	0.250799	-0.011765	0.504006
	N228	N	0.412355	0.954288	0.684725
	N229	N	0.585126	0.024416	0.681342
	N230	N	0.587462	0.954368	0.324798
	N231	N	0.413847	0.023171	0.324618
	N232	N	0.682282	0.399094	0.970831
	N233	N	0.681826	0.576606	0.037479
	N234	N	0.318162	0.577244	0.970615
	N235	N	0.319024	0.402433	0.038956
	N236	N	0.964836	0.668902	0.416661
	N237	N	0.035585	0.667715	0.589157
	N238	N	0.967209	0.307772	0.590788
	N239	N	0.033823	0.307781	0.414881
	N240	N	0.968373	0.399171	0.685758
	N241	N	0.034969	0.575490	0.684191
	N242	N	0.965659	0.578252	0.321108
	N243	N	0.034062	0.402866	0.323010
	N244	N	0.414287	0.667353	0.969354
	N245	N	0.587580	0.668703	0.038143
	N246	N	0.584699	0.310599	0.968168
	N247	N	0.412079	0.309074	0.038519
	N248	N	0.680613	0.954791	0.417063
	N249	N	0.681330	0.022935	0.591847
	N250	N	0.319743	0.953830	0.591452
	N251	N	0.321351	0.022893	0.417701
	N252	N	0.913262	0.453900	0.182745
	N253	N	0.085969	0.524671	0.183014
	N254	N	0.087824	0.453936	0.823831
	N255	N	0.913186	0.522114	0.823612
	N256	N	0.181690	0.900445	0.469355
	N257	N	0.181794	0.076123	0.537768
	N258	N	0.820468	0.075414	0.469294
	N259	N	0.820031	0.901260	0.537855
	N260	N	0.464596	0.168481	0.917658
	N261	N	0.534431	0.169697	0.091264
	N262	N	0.466637	0.807680	0.091994
	N263	N	0.534434	0.808166	0.916802
	N264	N	0.466926	0.900787	0.185719
	N265	N	0.534849	0.076394	0.184896
	N266	N	0.465866	0.077459	0.822015
	N267	N	0.534983	0.902904	0.824460
	N268	N	0.915052	0.167391	0.468495
	N269	N	0.088839	0.169336	0.537899
	N270	N	0.087457	0.808668	0.468572
	N271	N	0.914450	0.809503	0.538453
	N272	N	0.178967	0.453621	0.918489
	N273	N	0.178817	0.524808	0.090512
	N274	N	0.819008	0.454421	0.091535
	N275	N	0.819468	0.521670	0.915474
	O276	O	-0.224059	1.026084	-0.213421
	H277	H	-0.216412	1.031667	-0.222854
	H278	H	-0.230126	1.015249	-0.235605
	O279	O	0.288680	0.415277	0.539312
	H280	H	0.285831	0.401414	0.538852
	H281	H	0.300167	0.407132	0.536462
	O282	O	1.055936	0.023629	0.957881
	H283	H	1.046689	0.032522	0.944209
	H284	H	1.067370	0.028910	0.960431
	O285	O	0.539627	0.458197	0.737405
	H286	H	0.557886	0.453238	0.737578
	H287	H	0.551256	0.473092	0.728723
	O288	O	0.677188	0.663255	0.688343
	H289	H	0.662113	0.653811	0.677142
	H290	H	0.685278	0.675287	0.697357
	O291	O	0.419599	0.478980	0.459287
	H292	H	0.410151	0.483123	0.464043
	H293	H	0.418060	0.473682	0.470706
	O294	O	0.810768	0.023421	1.022055
	H295	H	0.814042	0.017006	1.030653
	H296	H	0.807859	0.028897	1.009880
	O297	O	0.686675	0.672494	0.320870
	H298	H	0.704794	0.693450	0.299799
	H299	H	0.668124	0.671795	0.325331
	O300	O	-0.074691	0.129919	1.072669
	H301	H	-0.074970	0.132967	1.066841
	H302	H	-0.061549	0.140709	1.082273
	O303	O	0.526603	0.364478	0.467230
	H304	H	0.532360	0.377847	0.455939
	H305	H	0.543919	0.361160	0.469081
	O306	O	0.722938	0.460481	0.286591
	H307	H	0.708531	0.467726	0.271539
	H308	H	0.733453	0.453523	0.266808
	O309	O	0.526931	0.701506	0.715321
	H310	H	0.523879	0.707130	0.711461
	H311	H	0.527939	0.703409	0.722689
	O312	O	0.670858	0.529610	0.444913
	H313	H	0.673461	0.536222	0.427772
	H314	H	0.667048	0.543531	0.427840
	O315	O	0.796600	0.869102	0.912694
	H316	H	0.786724	0.865297	0.893932
	H317	H	0.795882	0.887347	0.917120
	O318	O	0.787536	0.783921	0.210719
	H319	H	0.788499	0.818910	0.213914
	H320	H	0.791079	0.792049	0.175621
	O321	O	-0.009545	0.930787	0.878380
	H322	H	0.010477	0.943822	0.881091
	H323	H	0.004230	0.915631	0.873496
	O324	O	1.030258	0.814880	0.062522
	H325	H	1.012237	0.819624	0.078888
	H326	H	1.034720	0.805360	0.049807
	O327	O	-0.217582	-0.231171	1.032650
	H328	H	-0.251221	-0.247674	1.025972
	H329	H	-0.216968	-0.211201	1.022681
	O330	O	0.700110	0.269933	0.488307
	H331	H	0.710550	0.266674	0.490523
	H332	H	0.702685	0.273842	0.481470
	O333	O	0.667615	0.631872	0.568813
	H334	H	0.664810	0.649790	0.562900
	H335	H	0.671308	0.620869	0.554450
	O336	O	0.722775	0.497262	0.724607
	H337	H	0.737308	0.516676	0.736047
	H338	H	0.732373	0.500101	0.716350
	O339	O	1.211884	-0.221693	0.794013
	H340	H	1.197052	-0.211595	0.809041
	H341	H	1.243610	-0.254232	0.761671
	O342	O	-0.034292	-0.020085	-0.222244
	H343	H	-0.005760	-0.021098	-0.225984
	H344	H	-0.047006	-0.021807	-0.217593
	O345	O	0.084268	1.130846	1.002103
	H346	H	0.074040	1.127709	1.022349
	H347	H	0.097294	1.146503	1.000163
	O348	O	0.209677	0.196664	0.214453
	H349	H	0.198696	0.185351	0.192514
	H350	H	0.220828	0.172825	0.226953
	O351	O	1.168647	1.047490	-0.120108
	H352	H	1.173641	1.055623	-0.124064
	H353	H	1.177508	1.046674	-0.124369
	O354	O	0.033813	0.208237	1.218444
	H355	H	0.041876	0.211086	1.231847
	H356	H	0.048989	0.212734	1.232897
	O357	O	0.724722	0.639882	0.491187
	H358	H	0.731631	0.639920	0.494833
	H359	H	0.721045	0.643861	0.489074
	O360	O	0.310118	0.676341	0.694832
	H361	H	0.320977	0.665558	0.660808
	H362	H	0.338968	0.650889	0.695508
	O363	O	-0.018969	0.205950	-0.214060
	H364	H	-0.044700	0.218712	-0.225619
	H365	H	-0.016585	0.195062	-0.234293
	O366	O	0.291775	0.696116	0.296066
	H367	H	0.282944	0.643055	0.285833
	H368	H	0.262991	0.723371	0.272718
	O369	O	1.002567	0.219642	0.007766
	H370	H	0.998053	0.220456	0.009157
	H371	H	1.004794	0.225290	0.000521
	O372	O	0.816855	1.165372	0.179326
	H373	H	0.822511	1.160613	0.159386
	H374	H	0.825748	1.154667	0.167314
	O375	O	0.780903	-0.046087	0.221835
	H376	H	0.763427	-0.033777	0.231684
	H377	H	0.792991	-0.029850	0.223228
	O378	O	0.520319	0.270498	0.285265
	H379	H	0.548165	0.282161	0.291692
	H380	H	0.531422	0.249165	0.260247
	O381	O	0.054486	0.968207	1.235504
	H382	H	0.046702	0.956791	1.236435
	H383	H	0.069087	0.970563	1.233166
	O384	O	1.188878	0.165253	0.823957
	H385	H	1.206993	0.182612	0.806908
	H386	H	1.166493	0.158093	0.830218
	O387	O	1.218273	0.963647	-0.218973
	H388	H	1.227967	0.948590	-0.213456
	H389	H	1.240765	0.946813	-0.231249
	O390	O	0.374511	0.498130	0.536236
	H391	H	0.369563	0.493520	0.540805
	H392	H	0.375891	0.527410	0.527843
	O393	O	0.436920	0.433861	0.518325
	H394	H	0.435365	0.418145	0.514904
	H395	H	0.448541	0.443580	0.514154
	O396	O	0.277414	0.274569	0.719449
	H397	H	0.311146	0.271346	0.707332
	H398	H	0.272040	0.288202	0.717622
	O399	O	0.204555	-0.085882	1.032627
	H400	H	0.207222	-0.089175	1.016468
	H401	H	0.201932	-0.087298	1.026131
	O402	O	0.717534	0.272666	0.294146
	H403	H	0.722942	0.271252	0.295237
	H404	H	0.735505	0.266888	0.303716
	O405	O	0.789784	0.194771	0.796819
	H406	H	0.799235	0.174349	0.808266
	H407	H	0.767598	0.203345	0.786089
	O408	O	-0.215654	0.200060	-0.020841
	H409	H	-0.203514	0.202518	-0.022710
	H410	H	-0.221386	0.215774	-0.028466
	O411	O	0.928579	1.046015	1.217128
	H412	H	0.940217	1.043925	1.212490
	H413	H	0.933064	1.043258	1.215572
	O414	O	0.536820	0.604722	0.479420
	H415	H	0.526460	0.603431	0.466937
	H416	H	0.544626	0.602137	0.480863
	O417	O	0.482841	0.653458	0.416631
	H418	H	0.462346	0.650289	0.396412
	H419	H	0.478598	0.657787	0.429577
	O420	O	0.417546	0.461081	0.338206
	H421	H	0.419848	0.470899	0.332504
	H422	H	0.426285	0.453449	0.331761
	O423	O	0.050433	-0.157980	0.784263
	H424	H	0.066563	-0.169846	0.778955
	H425	H	0.054721	-0.169495	0.788349
	O426	O	0.706149	0.389107	0.483802
	H427	H	0.710097	0.414473	0.485895
	H428	H	0.722126	0.380867	0.467263
	O429	O	1.224630	0.769050	0.969092
	H430	H	1.235306	0.747924	0.954115
	H431	H	1.217080	0.758548	0.964238
	O432	O	0.576170	0.430382	0.522933
	H433	H	0.570989	0.432667	0.514333
	H434	H	0.567436	0.440293	0.523406
	O435	O	0.202240	1.143024	0.053308
	H436	H	0.198380	1.155045	0.042121
	H437	H	0.205308	1.140115	0.050828
	O438	O	-0.110076	-0.058444	0.019692
	H439	H	-0.097621	-0.043750	0.018341
	H440	H	-0.112184	-0.055237	0.025797
	O441	O	0.036620	-0.230162	-0.085169
	H442	H	0.025474	-0.239077	-0.081728
	H443	H	0.034826	-0.210184	-0.084545
	O444	O	0.307793	0.298788	0.315922
	H445	H	0.333964	0.302189	0.328306
	H446	H	0.295430	0.284026	0.301080
	O447	O	-0.453029	1.273527	1.534945
	H448	H	-0.450328	1.286531	1.528052
	H449	H	-0.445224	1.277195	1.525619
	O450	O	-0.225521	0.769550	0.782555
	H451	H	-0.215429	0.776693	0.775950
	H452	H	-0.229956	0.765220	0.787188
	O453	O	0.417750	0.518000	0.720648
	H454	H	0.417249	0.509919	0.726468
	H455	H	0.425109	0.495441	0.714253
	O456	O	0.356825	0.275432	0.549722
	H457	H	0.358243	0.257510	0.542031
	H458	H	0.374065	0.275402	0.551063
	O459	O	0.928370	1.032374	-0.044233
	H460	H	0.921276	1.031239	-0.068530
	H461	H	0.935942	1.043096	-0.061264
	O462	O	0.566758	0.544150	0.274889
	H463	H	0.556219	0.562448	0.271407
	H464	H	0.555141	0.555317	0.274682
	O465	O	0.479226	-0.288469	0.285935
	H466	H	0.443115	-0.289216	0.284427
	H467	H	0.463018	-0.271274	0.264813
	O468	O	0.280928	0.672261	0.494925
	H469	H	0.283952	0.667781	0.465137
	H470	H	0.265165	0.688650	0.476649
	O471	O	0.279060	0.528930	0.281716
	H472	H	0.253703	0.514916	0.266275
	H473	H	0.268322	0.502640	0.309594
	O474	O	-0.029824	0.769120	0.227341
	H475	H	-0.038589	0.737019	0.253996
	H476	H	-0.058831	0.772987	0.209887
	O477	O	0.306143	0.443743	1.433065
	H478	H	0.321957	0.462520	1.457183
	H479	H	0.305809	0.410682	1.436978
	O480	O	0.279015	0.460291	0.724490
	H481	H	0.285202	0.450684	0.705269
	H482	H	0.250154	0.456409	0.749633
	O483	O	0.457390	0.690514	0.547206
	H484	H	0.453678	0.695912	0.532343
	H485	H	0.450656	0.691574	0.544306
	O486	O	0.695311	0.298751	0.696914
	H487	H	0.687688	0.293296	0.699708
	H488	H	0.700293	0.330126	0.678250
	O489	O	1.189340	0.802636	0.190551
	H490	H	1.186989	0.817795	0.160451
	H491	H	1.161176	0.821003	0.185807
	O492	O	0.086457	0.043099	-0.015862
	H493	H	0.077337	0.049282	-0.029563
	H494	H	0.090042	0.034466	-0.025832
	O495	O	0.216043	1.022382	1.222054
	H496	H	0.241551	1.011286	1.235805
	H497	H	0.208767	1.007569	1.202110
	O498	O	0.934603	0.793849	1.034819
	H499	H	0.920257	0.784801	1.013703
	H500	H	0.927046	0.801417	1.039186
	O501	O	0.472766	0.295043	0.724050
	H502	H	0.472874	0.278661	0.740288
	H503	H	0.485194	0.307753	0.725687
