data_Molecule from HDF5

_cell_length_a		16.280715
_cell_length_b		16.163099
_cell_length_c		16.281088
_cell_angle_alpha	90.468948
_cell_angle_beta	89.817486
_cell_angle_gamma	89.358816
_symmetry_space_group_name_H-M	'P 1'
_symmetry_Int_Tables_number		1

loop_
	_symmetry_equiv_pos_as_xyz
	x,y,z

loop_
	_atom_site_label
	_atom_site_type_symbol
	_atom_site_fract_x
	_atom_site_fract_y
	_atom_site_fract_z
	H0	H	0.401008	0.815122	0.720686
	H1	H	0.600244	0.141553	0.722007
	H2	H	0.603277	0.816736	0.285694
	H3	H	0.396882	0.143593	0.291485
	H4	H	0.722719	0.375877	0.844231
	H5	H	0.714813	0.582440	0.169054
	H6	H	0.284114	0.581107	0.842365
	H7	H	0.283761	0.377485	0.166373
	H8	H	0.838089	0.696492	0.409193
	H9	H	0.163621	0.694731	0.607413
	H10	H	0.834996	0.269908	0.604496
	H11	H	0.160865	0.257778	0.404830
	H12	H	0.838677	0.380278	0.724825
	H13	H	0.164986	0.579654	0.722138
	H14	H	0.839385	0.584924	0.289240
	H15	H	0.163092	0.373086	0.288042
	H16	H	0.402463	0.693456	0.840579
	H17	H	0.602562	0.698468	0.166101
	H18	H	0.606891	0.259696	0.842920
	H19	H	0.404816	0.267717	0.168411
	H20	H	0.720488	0.816520	0.400430
	H21	H	0.711749	0.142748	0.606659
	H22	H	0.285240	0.815053	0.606413
	H23	H	0.282624	0.142731	0.406577
	H24	H	0.904307	0.316133	0.219112
	H25	H	0.102420	0.642547	0.224906
	H26	H	0.105530	0.316561	0.786156
	H27	H	0.900301	0.644864	0.793066
	H28	H	0.219056	0.874098	0.343753
	H29	H	0.216657	0.082134	0.669109
	H30	H	0.783669	0.080315	0.343659
	H31	H	0.782072	0.879281	0.667691
	H32	H	0.340632	0.197472	0.904472
	H33	H	0.665165	0.191385	0.104546
	H34	H	0.338823	0.764970	0.103955
	H35	H	0.665683	0.761218	0.902626
	H36	H	0.339003	0.879454	0.221495
	H37	H	0.663149	0.079178	0.222096
	H38	H	0.338712	0.079078	0.792152
	H39	H	0.663823	0.872777	0.784048
	H40	H	0.899071	0.193752	0.343590
	H41	H	0.096672	0.195490	0.669795
	H42	H	0.101887	0.760589	0.344633
	H43	H	0.901797	0.768207	0.670284
	H44	H	0.221657	0.316689	0.901172
	H45	H	0.216446	0.643730	0.107413
	H46	H	0.786742	0.317576	0.107876
	H47	H	0.784949	0.644595	0.909196
	H48	H	0.411184	0.094937	0.600287
	H49	H	0.589600	0.866664	0.580693
	H50	H	0.593511	0.099412	0.407940
	H51	H	0.395694	0.856626	0.409441
	H52	H	0.594793	0.388226	0.121664
	H53	H	0.602218	0.568929	0.886927
	H54	H	0.411062	0.578284	0.121168
	H55	H	0.412163	0.386578	0.888284
	H56	H	0.117281	0.569490	0.414091
	H57	H	0.882610	0.568718	0.612550
	H58	H	0.119137	0.385388	0.604816
	H59	H	0.886483	0.391699	0.416538
	H60	H	0.116640	0.379052	0.590468
	H61	H	0.881551	0.586691	0.597587
	H62	H	0.116443	0.568627	0.416335
	H63	H	0.882849	0.391548	0.406112
	H64	H	0.405151	0.570751	0.120932
	H65	H	0.593139	0.560592	0.892057
	H66	H	0.593809	0.385085	0.121839
	H67	H	0.411446	0.389314	0.888661
	H68	H	0.583349	0.093851	0.414518
	H69	H	0.605698	0.856110	0.596197
	H70	H	0.407220	0.094009	0.593054
	H71	H	0.422052	0.862746	0.399382
	H72	H	0.912292	0.598798	0.103141
	H73	H	0.095902	0.363040	0.092578
	H74	H	0.093070	0.595975	0.918843
	H75	H	0.909711	0.363408	0.916436
	H76	H	0.096576	0.896985	0.621732
	H77	H	0.089001	0.057592	0.394152
	H78	H	0.903016	0.076984	0.624685
	H79	H	0.912022	0.893333	0.392257
	H80	H	0.619850	0.069714	0.910679
	H81	H	0.381180	0.082918	0.099506
	H82	H	0.616736	0.892971	0.097603
	H83	H	0.384239	0.883586	0.907831
	H84	H	0.618407	0.884914	0.097045
	H85	H	0.387717	0.071252	0.089434
	H86	H	0.618551	0.068097	0.913608
	H87	H	0.386998	0.885305	0.917701
	H88	H	0.902882	0.071435	0.623708
	H89	H	0.084157	0.073937	0.391419
	H90	H	0.086483	0.886552	0.620524
	H91	H	0.914177	0.883184	0.390835
	H92	H	0.095329	0.597911	0.913190
	H93	H	0.093704	0.362963	0.097336
	H94	H	0.909741	0.595883	0.094796
	H95	H	0.912691	0.362890	0.911172
	H96	H	0.403050	0.098471	0.599876
	H97	H	0.583261	0.860834	0.604240
	H98	H	0.595437	0.095623	0.420169
	H99	H	0.415080	0.867779	0.427458
	H100	H	0.596856	0.386095	0.123055
	H101	H	0.590155	0.573308	0.888683
	H102	H	0.414052	0.568232	0.118233
	H103	H	0.413707	0.388436	0.890158
	H104	H	0.116605	0.567129	0.414430
	H105	H	0.890083	0.564962	0.590660
	H106	H	0.112386	0.394704	0.593442
	H107	H	0.882040	0.382653	0.412936
	H108	H	0.902859	0.599658	0.101148
	H109	H	0.091143	0.364545	0.093639
	H110	H	0.088984	0.595337	0.913948
	H111	H	0.915876	0.364716	0.916531
	H112	H	0.099298	0.883118	0.625888
	H113	H	0.099706	0.069005	0.388619
	H114	H	0.906443	0.074041	0.622341
	H115	H	0.904698	0.886726	0.388883
	H116	H	0.618733	0.066277	0.910908
	H117	H	0.384558	0.067765	0.104462
	H118	H	0.615007	0.889000	0.089454
	H119	H	0.387984	0.892854	0.911012
	C120	C	0.379016	-0.012700	0.626941
	C121	C	0.620948	0.969637	0.624842
	C122	C	0.622242	-0.011521	0.382946
	C123	C	0.379305	0.970427	0.383689
	C124	C	0.626082	0.356066	0.014663
	C125	C	0.623364	0.599754	0.996696
	C126	C	0.380272	0.601839	0.012725
	C127	C	0.382132	0.358848	0.996387
	C128	C	0.009428	0.600105	0.385845
	C129	C	0.992603	0.602093	0.629503
	C130	C	0.008321	0.358565	0.627160
	C131	C	0.991094	0.356546	0.382687
	C132	C	0.880245	0.489458	0.128268
	C133	C	0.123356	0.470962	0.126495
	C134	C	0.123609	0.488478	0.883723
	C135	C	0.881566	0.472056	0.886131
	C136	C	0.124046	0.856637	0.515572
	C137	C	0.120262	0.098865	0.498497
	C138	C	0.876122	0.102479	0.515546
	C139	C	0.880029	0.859119	0.498005
	C140	C	0.511471	0.099488	0.883219
	C141	C	0.492188	0.102005	0.127429
	C142	C	0.509465	0.858746	0.124897
	C143	C	0.493771	0.855996	0.881586
	C144	C	0.380751	0.864052	0.683042
	C145	C	0.619284	0.092662	0.683139
	C146	C	0.622731	0.865511	0.324416
	C147	C	0.378302	0.094192	0.329025
	C148	C	0.684010	0.356174	0.892796
	C149	C	0.677576	0.601002	0.119892
	C150	C	0.322858	0.600690	0.890903
	C151	C	0.323699	0.359129	0.118255
	C152	C	0.886947	0.657954	0.388513
	C153	C	0.115179	0.657325	0.627896
	C154	C	0.884810	0.305738	0.625218
	C155	C	0.112948	0.297174	0.384424
	C156	C	0.886708	0.360721	0.685212
	C157	C	0.115568	0.599934	0.685134
	C158	C	0.887571	0.602189	0.328885
	C159	C	0.113698	0.354369	0.326295
	C160	C	0.381885	0.656675	0.889883
	C161	C	0.621523	0.658773	0.118307
	C162	C	0.625739	0.298836	0.891820
	C163	C	0.383736	0.304327	0.119297
	C164	C	0.681129	0.865597	0.381277
	C165	C	0.674962	0.093276	0.625315
	C166	C	0.323415	0.864007	0.625809
	C167	C	0.321102	0.093773	0.386256
	C168	C	0.883612	0.365609	0.182483
	C169	C	0.122250	0.593809	0.185522
	C170	C	0.124523	0.365395	0.825381
	C171	C	0.881246	0.595674	0.831047
	C172	C	0.180327	0.855687	0.392716
	C173	C	0.177090	0.100377	0.620633
	C174	C	0.820819	0.100652	0.392640
	C175	C	0.821690	0.860105	0.619753
	C176	C	0.388942	0.157722	0.885129
	C177	C	0.615646	0.155121	0.124800
	C178	C	0.387452	0.803033	0.123651
	C179	C	0.616580	0.798604	0.882051
	C180	C	0.387489	0.859781	0.182421
	C181	C	0.614825	0.099073	0.183346
	C182	C	0.387849	0.099062	0.828967
	C183	C	0.615771	0.854886	0.823601
	C184	C	0.878042	0.157246	0.392571
	C185	C	0.117304	0.156765	0.621028
	C186	C	0.122237	0.798934	0.393197
	C187	C	0.881443	0.805085	0.620986
	C188	C	0.182012	0.365280	0.882821
	C189	C	0.178754	0.594320	0.126907
	C190	C	0.825065	0.366367	0.127137
	C191	C	0.823728	0.595418	0.888630
	C192	C	0.400780	0.073488	0.604327
	C193	C	0.599287	0.883525	0.600785
	C194	C	0.597925	0.074115	0.407051
	C195	C	0.403794	0.884574	0.405524
	C196	C	0.602146	0.379793	0.099960
	C197	C	0.601493	0.574970	0.911444
	C198	C	0.403465	0.579176	0.097991
	C199	C	0.405477	0.381558	0.911261
	C200	C	0.094634	0.575472	0.408314
	C201	C	0.906993	0.579903	0.606930
	C202	C	0.093998	0.380025	0.603252
	C203	C	0.905779	0.381409	0.405308
	C204	C	0.902006	0.575715	0.106261
	C205	C	0.100235	0.385682	0.101839
	C206	C	0.099356	0.574111	0.908043
	C207	C	0.905793	0.386101	0.908299
	C208	C	0.101027	0.881465	0.600624
	C209	C	0.097689	0.074015	0.413528
	C210	C	0.897863	0.080809	0.601119
	C211	C	0.903483	0.881179	0.412645
	C212	C	0.596811	0.075070	0.905083
	C213	C	0.406680	0.080367	0.104609
	C214	C	0.594689	0.882127	0.101567
	C215	C	0.408509	0.880260	0.905274
	Zn216	Zn	0.501610	-0.021825	0.753922
	Zn217	Zn	0.500268	-0.019286	0.254919
	Zn218	Zn	0.752392	0.480293	0.007680
	Zn219	Zn	0.252284	0.479846	0.004978
	Zn220	Zn	0.001036	0.729797	0.507971
	Zn221	Zn	-0.002034	0.228882	0.506388
	Zn222	Zn	0.001561	0.480278	0.756311
	Zn223	Zn	0.001684	0.479645	0.255222
	Zn224	Zn	0.502647	0.729010	0.003444
	Zn225	Zn	0.502323	0.228700	0.004541
	Zn226	Zn	0.749647	-0.020601	0.505739
	Zn227	Zn	0.251678	-0.021604	0.505688
	N228	N	0.414716	0.941703	0.683850
	N229	N	0.586221	0.014845	0.682925
	N230	N	0.586859	0.942956	0.325196
	N231	N	0.413612	0.016524	0.327145
	N232	N	0.684354	0.390943	0.970238
	N233	N	0.678675	0.564765	0.043202
	N234	N	0.321534	0.567687	0.968383
	N235	N	0.322912	0.392556	0.040889
	N236	N	0.963873	0.656834	0.423282
	N237	N	0.037847	0.659016	0.594023
	N238	N	0.961548	0.304381	0.589624
	N239	N	0.035554	0.298077	0.418460
	N240	N	0.964652	0.392626	0.686556
	N241	N	0.038117	0.566498	0.686185
	N242	N	0.964802	0.567135	0.327025
	N243	N	0.036937	0.390661	0.325164
	N244	N	0.416872	0.657507	0.966730
	N245	N	0.588629	0.658197	0.040681
	N246	N	0.590620	0.298344	0.968765
	N247	N	0.419238	0.303750	0.042479
	N248	N	0.680968	0.942994	0.417061
	N249	N	0.676148	0.015705	0.589715
	N250	N	0.322141	0.941720	0.591863
	N251	N	0.321347	0.015646	0.419362
	N252	N	0.917289	0.443225	0.183305
	N253	N	0.088879	0.515920	0.185623
	N254	N	0.089002	0.443064	0.825775
	N255	N	0.916635	0.517996	0.829384
	N256	N	0.181611	0.890656	0.469854
	N257	N	0.179133	0.065360	0.543444
	N258	N	0.819282	0.067225	0.470007
	N259	N	0.820797	0.893122	0.542192
	N260	N	0.466768	0.158371	0.917936
	N261	N	0.538371	0.157055	0.090736
	N262	N	0.464657	0.801973	0.088994
	N263	N	0.539750	0.799283	0.917370
	N264	N	0.464459	0.893784	0.183221
	N265	N	0.536997	0.067056	0.185225
	N266	N	0.464872	0.063438	0.827621
	N267	N	0.538255	0.889522	0.822910
	N268	N	0.911598	0.158709	0.469787
	N269	N	0.082631	0.156122	0.544004
	N270	N	0.087810	0.799329	0.470505
	N271	N	0.917110	0.804493	0.544364
	N272	N	0.181858	0.442804	0.918205
	N273	N	0.179757	0.517003	0.091063
	N274	N	0.822624	0.444464	0.094465
	N275	N	0.823729	0.517464	0.922196
	O276	O	0.523041	0.574297	0.382111
	H277	H	0.529666	0.576263	0.385849
	H278	H	0.530342	0.570382	0.377534
	O279	O	0.422904	0.449095	0.362480
	H280	H	0.438772	0.453407	0.364863
	H281	H	0.410147	0.450604	0.343672
	O282	O	1.041851	-0.066042	0.092043
	H283	H	1.041489	-0.073819	0.083994
	H284	H	1.050485	-0.061303	0.086283
	O285	O	-0.055303	1.015271	-0.121505
	H286	H	-0.047737	1.016396	-0.115550
	H287	H	-0.066686	1.021269	-0.119886
	O288	O	0.425407	0.620662	0.514964
	H289	H	0.430623	0.633977	0.507123
	H290	H	0.425448	0.605015	0.504215
	O291	O	0.495075	0.589142	0.690730
	H292	H	0.506965	0.581588	0.692469
	H293	H	0.503288	0.605499	0.700766
	O294	O	1.109744	1.014438	0.900701
	H295	H	1.112415	1.010318	0.894894
	H296	H	1.105734	1.010606	0.908084
	O297	O	0.031463	-0.018955	-0.045113
	H298	H	0.018415	-0.024866	-0.048940
	H299	H	0.034584	-0.020570	-0.047059
	O300	O	1.058442	-0.071010	0.054801
	H301	H	1.063698	-0.072053	0.051001
	H302	H	1.060564	-0.059228	0.070082
	O303	O	-0.063560	0.928830	1.058425
	H304	H	-0.060183	0.934395	1.052562
	H305	H	-0.060289	0.926549	1.044920
	O306	O	0.538615	0.442302	0.376499
	H307	H	0.530427	0.429855	0.381889
	H308	H	0.536444	0.451622	0.372614
	O309	O	1.053144	0.004215	0.028160
	H310	H	1.057500	0.015933	0.029400
	H311	H	1.050921	-0.002783	0.024377
	O312	O	-0.171213	-0.000925	1.050565
	H313	H	-0.175517	0.003689	1.054560
	H314	H	-0.171960	0.004176	1.040584
	O315	O	0.002652	0.972263	0.098192
	H316	H	-0.010469	0.969296	0.104536
	H317	H	0.012413	0.976968	0.114290
	O318	O	0.607934	0.479877	0.481386
	H319	H	0.613292	0.479807	0.483408
	H320	H	0.611922	0.469558	0.485985
	O321	O	0.890201	0.090028	0.005957
	H322	H	0.889954	0.092084	0.015405
	H323	H	0.890424	0.100920	0.002076
	O324	O	0.144136	1.108924	0.010528
	H325	H	0.143878	1.109326	0.016556
	H326	H	0.152959	1.099511	0.007358
	O327	O	-0.601752	1.375010	0.691255
	H328	H	-0.618386	1.382929	0.696197
	H329	H	-0.603531	1.388453	0.697313
	O330	O	0.379319	0.356086	0.596152
	H331	H	0.381035	0.360564	0.605326
	H332	H	0.363449	0.373823	0.594020
	O333	O	-0.029265	0.976643	0.927797
	H334	H	-0.026060	0.978697	0.918584
	H335	H	-0.032668	0.974125	0.935085
	O336	O	1.018490	0.826615	0.908137
	H337	H	1.018092	0.822108	0.917732
	H338	H	1.001606	0.825319	0.904942
	O339	O	0.887396	1.086725	-0.093629
	H340	H	0.898589	1.098352	-0.098100
	H341	H	0.873701	1.100725	-0.092060
	O342	O	0.992696	-0.129083	-0.039744
	H343	H	1.001030	-0.136985	-0.042300
	H344	H	0.986669	-0.127684	-0.040095
	O345	O	0.607637	0.422819	0.409905
	H346	H	0.607640	0.415869	0.405117
	H347	H	0.597511	0.422588	0.409105
	O348	O	1.028092	1.869808	1.179813
	H349	H	1.025031	1.876040	1.187504
	H350	H	1.025278	1.873063	1.176322
	O351	O	-0.019913	0.867335	0.087575
	H352	H	-0.022354	0.864853	0.083479
	H353	H	-0.008329	0.865492	0.084365
	O354	O	0.382962	0.507363	0.475332
	H355	H	0.382115	0.506856	0.468074
	H356	H	0.391937	0.525782	0.472356
	O357	O	0.330270	0.334359	0.623365
	H358	H	0.320305	0.345117	0.640203
	H359	H	0.321319	0.341456	0.617178
	O360	O	0.005860	0.047233	-0.151746
	H361	H	0.024841	0.044449	-0.155238
	H362	H	0.005983	0.048785	-0.160312
	O363	O	0.409871	0.517826	0.454091
	H364	H	0.414675	0.519531	0.455937
	H365	H	0.401560	0.522358	0.449801
	O366	O	0.507671	0.358342	0.399939
	H367	H	0.492035	0.365369	0.393533
	H368	H	0.517797	0.354553	0.398381
	O369	O	0.615505	0.312008	0.490394
	H370	H	0.604421	0.305821	0.491488
	H371	H	0.627990	0.301234	0.479338
	O372	O	0.428399	0.488156	0.560828
	H373	H	0.424785	0.485007	0.561472
	H374	H	0.438487	0.500713	0.546339
	O375	O	0.610818	0.450259	0.431594
	H376	H	0.622472	0.436216	0.429431
	H377	H	0.602911	0.449767	0.431012
	O378	O	0.527834	0.458568	0.623544
	H379	H	0.520727	0.447841	0.626022
	H380	H	0.524199	0.459869	0.626513
	O381	O	0.496927	0.605662	0.388070
	H382	H	0.518881	0.610753	0.391641
	H383	H	0.481602	0.608324	0.380544
	O384	O	0.114275	1.086970	0.140848
	H385	H	0.108661	1.086829	0.134223
	H386	H	0.113303	1.082854	0.135959
	O387	O	0.652389	0.499658	1.650151
	H388	H	0.647955	0.490926	1.640120
	H389	H	0.645674	0.488056	1.643453
	O390	O	-0.045180	0.979008	-0.011962
	H391	H	-0.042151	0.985712	-0.012841
	H392	H	-0.055715	0.973518	-0.011791
	O393	O	1.104556	1.004005	-0.040529
	H394	H	1.120439	1.009432	-0.036752
	H395	H	1.114916	0.981336	-0.035760
	O396	O	0.497136	0.646690	0.504579
	H397	H	0.516963	0.646689	0.501649
	H398	H	0.513687	0.656849	0.516362
	O399	O	0.641930	1.544708	1.609190
	H400	H	0.641807	1.537650	1.610191
	H401	H	0.632413	1.529694	1.604635
	O402	O	1.068094	1.043388	1.159850
	H403	H	1.073517	1.044149	1.164065
	H404	H	1.070448	1.059832	1.174083
	O405	O	0.391804	0.522272	0.340292
	H406	H	0.404393	0.541546	0.345397
	H407	H	0.390197	0.519002	0.343975
