data_Molecule from HDF5

_cell_length_a		16.284135
_cell_length_b		16.078859
_cell_length_c		16.262822
_cell_angle_alpha	90.097253
_cell_angle_beta	89.916368
_cell_angle_gamma	90.070161
_symmetry_space_group_name_H-M	'P 1'
_symmetry_Int_Tables_number		1

loop_
	_symmetry_equiv_pos_as_xyz
	x,y,z

loop_
	_atom_site_label
	_atom_site_type_symbol
	_atom_site_fract_x
	_atom_site_fract_y
	_atom_site_fract_z
	H0	H	0.394983	0.835337	0.711812
	H1	H	0.595321	0.164628	0.712379
	H2	H	0.594259	0.833852	0.285004
	H3	H	0.399338	0.165972	0.284646
	H4	H	0.714268	0.398133	0.837006
	H5	H	0.711706	0.600346	0.163170
	H6	H	0.279160	0.601447	0.835867
	H7	H	0.280461	0.399174	0.162756
	H8	H	0.832564	0.714045	0.403046
	H9	H	0.160980	0.714771	0.595405
	H10	H	0.832467	0.288556	0.597273
	H11	H	0.160965	0.287913	0.402230
	H12	H	0.833672	0.401222	0.714454
	H13	H	0.159375	0.603275	0.715654
	H14	H	0.833735	0.601735	0.283026
	H15	H	0.159416	0.400590	0.282435
	H16	H	0.400266	0.711262	0.833095
	H17	H	0.592841	0.713240	0.163205
	H18	H	0.596132	0.286956	0.834879
	H19	H	0.399946	0.286681	0.163409
	H20	H	0.711310	0.835445	0.398261
	H21	H	0.709133	0.165412	0.597703
	H22	H	0.282062	0.835209	0.596137
	H23	H	0.284420	0.166242	0.400053
	H24	H	0.898449	0.334933	0.211410
	H25	H	0.095121	0.666023	0.212227
	H26	H	0.095245	0.335417	0.784434
	H27	H	0.898373	0.666259	0.786985
	H28	H	0.209919	0.902250	0.334453
	H29	H	0.213928	0.102553	0.661602
	H30	H	0.781308	0.101446	0.335077
	H31	H	0.779387	0.899779	0.661218
	H32	H	0.332600	0.215648	0.899401
	H33	H	0.660973	0.213198	0.094440
	H34	H	0.331437	0.787825	0.093317
	H35	H	0.660206	0.786351	0.899069
	H36	H	0.333673	0.898528	0.213549
	H37	H	0.659745	0.100217	0.212651
	H38	H	0.333004	0.099237	0.782840
	H39	H	0.659371	0.898835	0.781298
	H40	H	0.902005	0.213003	0.333850
	H41	H	0.092443	0.212970	0.664496
	H42	H	0.093020	0.789021	0.334009
	H43	H	0.899408	0.789428	0.662992
	H44	H	0.209744	0.334945	0.900805
	H45	H	0.210236	0.666069	0.098965
	H46	H	0.783102	0.335103	0.098164
	H47	H	0.783108	0.665588	0.901989
	H48	H	0.410008	0.116314	0.588462
	H49	H	0.593733	0.877237	0.595816
	H50	H	0.591328	0.118981	0.404828
	H51	H	0.400488	0.879107	0.400434
	H52	H	0.586669	0.409072	0.115052
	H53	H	0.584351	0.588406	0.884677
	H54	H	0.400709	0.600142	0.118431
	H55	H	0.411737	0.418192	0.888286
	H56	H	0.114056	0.594534	0.401730
	H57	H	0.877794	0.601190	0.595264
	H58	H	0.112859	0.405308	0.585126
	H59	H	0.875925	0.402028	0.398944
	H60	H	0.111827	0.416701	0.593407
	H61	H	0.882443	0.592488	0.588293
	H62	H	0.114120	0.595746	0.406683
	H63	H	0.880589	0.403963	0.412348
	H64	H	0.397950	0.587350	0.115263
	H65	H	0.592743	0.598738	0.879984
	H66	H	0.591568	0.402435	0.118172
	H67	H	0.407561	0.395459	0.880052
	H68	H	0.587835	0.118825	0.402652
	H69	H	0.578536	0.883836	0.590352
	H70	H	0.401038	0.118918	0.587231
	H71	H	0.408601	0.883175	0.404693
	H72	H	0.899326	0.618175	0.084590
	H73	H	0.079394	0.386585	0.085432
	H74	H	0.097777	0.620663	0.908746
	H75	H	0.910515	0.382587	0.900284
	H76	H	0.087036	0.908702	0.614778
	H77	H	0.087922	0.094837	0.382586
	H78	H	0.892908	0.087873	0.616182
	H79	H	0.906838	0.908291	0.381357
	H80	H	0.610835	0.083297	0.900573
	H81	H	0.377848	0.099208	0.091908
	H82	H	0.612961	0.907807	0.089531
	H83	H	0.377361	0.903004	0.900753
	H84	H	0.613940	0.908173	0.094196
	H85	H	0.382046	0.089955	0.086146
	H86	H	0.616412	0.099396	0.899724
	H87	H	0.380357	0.905780	0.907778
	H88	H	0.910817	0.089590	0.613379
	H89	H	0.093276	0.095830	0.381190
	H90	H	0.094002	0.905992	0.617861
	H91	H	0.901248	0.904610	0.379776
	H92	H	0.085689	0.619970	0.898983
	H93	H	0.099391	0.380467	0.085618
	H94	H	0.900488	0.621884	0.098187
	H95	H	0.906355	0.384358	0.913458
	H96	H	0.405362	0.119249	0.595611
	H97	H	0.592547	0.884100	0.579764
	H98	H	0.587940	0.117877	0.406451
	H99	H	0.399632	0.882200	0.408847
	H100	H	0.594107	0.410712	0.116694
	H101	H	0.597644	0.585956	0.882528
	H102	H	0.409622	0.591677	0.112509
	H103	H	0.390094	0.412160	0.879809
	H104	H	0.112111	0.590966	0.405788
	H105	H	0.879043	0.590909	0.599564
	H106	H	0.117411	0.404755	0.598509
	H107	H	0.881106	0.414924	0.403358
	H108	H	0.911086	0.616763	0.091888
	H109	H	0.088360	0.378317	0.103513
	H110	H	0.083351	0.615922	0.913657
	H111	H	0.897275	0.378954	0.904628
	H112	H	0.092537	0.913021	0.615509
	H113	H	0.091433	0.090738	0.382960
	H114	H	0.901195	0.103289	0.618495
	H115	H	0.900822	0.911388	0.381979
	H116	H	0.609752	0.093219	0.913552
	H117	H	0.378190	0.089244	0.096617
	H118	H	0.614715	0.903805	0.092216
	H119	H	0.380177	0.910128	0.902097
	C120	C	0.375928	0.008847	0.618588
	C121	C	0.616869	0.991121	0.618131
	C122	C	0.617813	0.008887	0.376036
	C123	C	0.375010	0.991146	0.376318
	C124	C	0.619298	0.378445	0.008009
	C125	C	0.619058	0.621051	0.990815
	C126	C	0.374649	0.621819	0.007001
	C127	C	0.374704	0.379130	0.990695
	C128	C	0.005396	0.622436	0.377232
	C129	C	0.988238	0.623610	0.621826
	C130	C	0.005495	0.379944	0.620826
	C131	C	0.987675	0.378827	0.376838
	C132	C	0.875329	0.509544	0.120259
	C133	C	0.117411	0.491595	0.120363
	C134	C	0.117956	0.509477	0.877977
	C135	C	0.875755	0.491499	0.878313
	C136	C	0.118688	0.879689	0.507633
	C137	C	0.119399	0.123226	0.490446
	C138	C	0.874358	0.122541	0.507309
	C139	C	0.874499	0.879362	0.489768
	C140	C	0.504767	0.121450	0.876029
	C141	C	0.487826	0.121372	0.119476
	C142	C	0.505126	0.877781	0.119627
	C143	C	0.487512	0.877513	0.875082
	C144	C	0.376168	0.884489	0.673845
	C145	C	0.615174	0.115274	0.674210
	C146	C	0.614714	0.883882	0.321721
	C147	C	0.378069	0.116189	0.321478
	C148	C	0.675133	0.379721	0.885204
	C149	C	0.673674	0.619693	0.114297
	C150	C	0.318327	0.620360	0.884172
	C151	C	0.319076	0.379811	0.114008
	C152	C	0.881572	0.676495	0.381433
	C153	C	0.111712	0.678268	0.617482
	C154	C	0.881840	0.325387	0.617907
	C155	C	0.111511	0.324559	0.380496
	C156	C	0.882366	0.381532	0.676153
	C157	C	0.111103	0.622332	0.676948
	C158	C	0.882243	0.620728	0.321933
	C159	C	0.110736	0.380572	0.321057
	C160	C	0.378616	0.674972	0.882717
	C161	C	0.614909	0.676233	0.114084
	C162	C	0.616668	0.323960	0.884218
	C163	C	0.378430	0.323950	0.114377
	C164	C	0.673205	0.884594	0.377830
	C165	C	0.671238	0.115887	0.616653
	C166	C	0.319775	0.884543	0.616205
	C167	C	0.321417	0.116455	0.379210
	C168	C	0.877805	0.384696	0.174765
	C169	C	0.114957	0.616566	0.174714
	C170	C	0.115868	0.384869	0.822418
	C171	C	0.877973	0.616551	0.824328
	C172	C	0.172334	0.882293	0.383548
	C173	C	0.175001	0.121911	0.613379
	C174	C	0.819763	0.120973	0.383781
	C175	C	0.818426	0.880857	0.612592
	C176	C	0.381437	0.177305	0.878817
	C177	C	0.611569	0.176095	0.116050
	C178	C	0.381015	0.824423	0.114775
	C179	C	0.611172	0.822875	0.877851
	C180	C	0.381993	0.879537	0.174691
	C181	C	0.610954	0.119915	0.174547
	C182	C	0.381631	0.119445	0.820922
	C183	C	0.610688	0.879149	0.819405
	C184	C	0.880050	0.176002	0.383099
	C185	C	0.115041	0.177279	0.614655
	C186	C	0.114297	0.825906	0.383275
	C187	C	0.878125	0.825795	0.613509
	C188	C	0.172801	0.384636	0.879921
	C189	C	0.172212	0.616469	0.118354
	C190	C	0.820684	0.384536	0.118302
	C191	C	0.820581	0.616164	0.881269
	C192	C	0.398798	0.095695	0.596860
	C193	C	0.594771	0.904017	0.595444
	C194	C	0.595635	0.096126	0.398231
	C195	C	0.396498	0.904033	0.398175
	C196	C	0.597178	0.400688	0.094328
	C197	C	0.597766	0.597948	0.904569
	C198	C	0.396204	0.599727	0.093261
	C199	C	0.396512	0.401878	0.904970
	C200	C	0.091220	0.600455	0.398513
	C201	C	0.902179	0.601303	0.600802
	C202	C	0.091775	0.402448	0.598816
	C203	C	0.901386	0.400719	0.398553
	C204	C	0.897060	0.596470	0.098088
	C205	C	0.095657	0.404339	0.098093
	C206	C	0.095587	0.596379	0.900496
	C207	C	0.898122	0.404583	0.899631
	C208	C	0.097370	0.902400	0.593822
	C209	C	0.097337	0.100644	0.404460
	C210	C	0.895246	0.100254	0.593586
	C211	C	0.896437	0.901510	0.403203
	C212	C	0.590105	0.098643	0.898191
	C213	C	0.401679	0.099244	0.097856
	C214	C	0.591501	0.900081	0.098253
	C215	C	0.401727	0.899705	0.897126
	Zn216	Zn	0.496314	-0.000861	0.746657
	Zn217	Zn	0.496068	-0.000102	0.248045
	Zn218	Zn	0.747999	0.499531	-0.000356
	Zn219	Zn	0.245565	0.500749	-0.000366
	Zn220	Zn	-0.003072	0.751740	0.498658
	Zn221	Zn	-0.003746	0.251093	0.499904
	Zn222	Zn	-0.003119	0.500896	0.749793
	Zn223	Zn	-0.003594	0.500844	0.247764
	Zn224	Zn	0.496815	0.749564	-0.002527
	Zn225	Zn	0.497020	0.250784	-0.001558
	Zn226	Zn	0.745513	0.000601	0.498043
	Zn227	Zn	0.247762	0.000693	0.498291
	N228	N	0.410509	0.962684	0.675382
	N229	N	0.581837	0.036741	0.675144
	N230	N	0.581033	0.962444	0.320433
	N231	N	0.410764	0.037400	0.319527
	N232	N	0.677054	0.412679	0.963318
	N233	N	0.676121	0.585808	0.036569
	N234	N	0.315684	0.588071	0.962408
	N235	N	0.316729	0.413521	0.036286
	N236	N	0.958905	0.677760	0.415012
	N237	N	0.034461	0.678873	0.583641
	N238	N	0.959435	0.324423	0.584220
	N239	N	0.034104	0.323568	0.414751
	N240	N	0.960344	0.414852	0.678035
	N241	N	0.033202	0.589049	0.679894
	N242	N	0.960059	0.587493	0.319337
	N243	N	0.032871	0.413600	0.318743
	N244	N	0.413178	0.675814	0.959943
	N245	N	0.581602	0.677137	0.036399
	N246	N	0.582496	0.323119	0.961575
	N247	N	0.412374	0.323295	0.036745
	N248	N	0.675117	0.963323	0.411075
	N249	N	0.672632	0.037422	0.582470
	N250	N	0.319499	0.963041	0.582734
	N251	N	0.319414	0.037871	0.412602
	N252	N	0.911419	0.463308	0.175903
	N253	N	0.081507	0.537805	0.176047
	N254	N	0.082567	0.463497	0.820997
	N255	N	0.911546	0.538119	0.822283
	N256	N	0.175425	0.914918	0.461870
	N257	N	0.178096	0.089282	0.535162
	N258	N	0.816260	0.088327	0.461962
	N259	N	0.816060	0.913484	0.534452
	N260	N	0.458964	0.178939	0.912393
	N261	N	0.534058	0.177098	0.082414
	N262	N	0.458670	0.823310	0.081254
	N263	N	0.533862	0.821863	0.911951
	N264	N	0.460215	0.911891	0.177874
	N265	N	0.532982	0.086648	0.176898
	N266	N	0.459231	0.085777	0.818869
	N267	N	0.532801	0.912314	0.817493
	N268	N	0.912975	0.177221	0.460919
	N269	N	0.080864	0.177940	0.537225
	N270	N	0.081458	0.824502	0.461277
	N271	N	0.912314	0.824968	0.535997
	N272	N	0.174065	0.463135	0.913851
	N273	N	0.174056	0.537722	0.085268
	N274	N	0.819009	0.463106	0.085054
	N275	N	0.819172	0.537417	0.914251
	O276	O	0.492225	0.481820	0.422742
	H277	H	0.490681	0.469024	0.416106
	H278	H	0.491366	0.491126	0.413755
	O279	O	0.577416	0.454283	0.543279
	H280	H	0.572874	0.462626	0.552915
	H281	H	0.575015	0.451470	0.556652
	O282	O	0.549484	0.526454	0.538859
	H283	H	0.539740	0.534862	0.543063
	H284	H	0.555195	0.521318	0.536000
	O285	O	0.005791	1.017327	0.977625
	H286	H	0.002200	1.020782	0.975842
	H287	H	-0.001499	1.019589	0.989867
	O288	O	0.530154	0.555666	0.535962
	H289	H	0.527843	0.546185	0.541247
	H290	H	0.534964	0.550037	0.527081
	O291	O	-0.033614	0.010445	0.975787
	H292	H	-0.025928	0.010134	0.967682
	H293	H	-0.028912	0.017303	0.975096
	O294	O	0.498726	0.457980	0.519448
	H295	H	0.503528	0.455700	0.522025
	H296	H	0.501980	0.464300	0.509587
	O297	O	0.503879	0.483270	0.561209
	H298	H	0.491822	0.486065	0.560472
	H299	H	0.505827	0.471087	0.563895
	O300	O	0.547661	0.521678	0.535045
	H301	H	0.546165	0.514877	0.537116
	H302	H	0.541523	0.529397	0.542998
	O303	O	0.462883	0.486278	0.534379
	H304	H	0.466565	0.491222	0.529873
	H305	H	0.459407	0.490876	0.538676
	O306	O	1.009858	0.026460	0.953942
	H307	H	1.010125	0.030113	0.948619
	H308	H	1.001767	0.029404	0.953113
	O309	O	0.412423	0.496181	0.506409
	H310	H	0.412933	0.499721	0.503938
	H311	H	0.415667	0.499001	0.508798
	O312	O	0.492211	0.536041	0.491125
	H313	H	0.488877	0.538848	0.499326
	H314	H	0.501332	0.530827	0.480213
	O315	O	0.997603	0.022193	0.999548
	H316	H	0.998838	0.015322	1.000892
	H317	H	0.996940	0.021449	0.997306
	O318	O	0.021164	0.003692	0.019136
	H319	H	0.022041	0.005379	0.019896
	H320	H	0.025125	0.009599	0.009920
	O321	O	0.498909	0.487004	0.496251
	H322	H	0.500296	0.489178	0.488934
	H323	H	0.505915	0.496564	0.496769
	O324	O	1.001813	0.034723	-0.017799
	H325	H	1.002923	0.036679	-0.008398
	H326	H	1.007587	0.033572	-0.021083
	O327	O	1.101950	1.211201	-0.160127
	H328	H	1.099678	1.217084	-0.150274
	H329	H	1.109188	1.207206	-0.164007
	O330	O	0.371185	0.589609	0.547499
	H331	H	0.373200	0.575852	0.541077
	H332	H	0.359755	0.583309	0.552918
	O333	O	0.535348	0.400500	0.498836
	H334	H	0.539569	0.407408	0.501623
	H335	H	0.536723	0.398389	0.497436
