data_Molecule from HDF5

_cell_length_a		16.268127
_cell_length_b		16.556743
_cell_length_c		16.184808
_cell_angle_alpha	90.158361
_cell_angle_beta	90.094580
_cell_angle_gamma	89.904315
_symmetry_space_group_name_H-M	'P 1'
_symmetry_Int_Tables_number		1

loop_
	_symmetry_equiv_pos_as_xyz
	x,y,z

loop_
	_atom_site_label
	_atom_site_type_symbol
	_atom_site_fract_x
	_atom_site_fract_y
	_atom_site_fract_z
	H0	H	0.394908	0.825895	0.707410
	H1	H	0.599945	0.144283	0.712293
	H2	H	0.602143	0.827080	0.269134
	H3	H	0.393308	0.144824	0.269885
	H4	H	0.711904	0.382036	0.825419
	H5	H	0.712479	0.584674	0.150351
	H6	H	0.279409	0.586551	0.825291
	H7	H	0.277931	0.385884	0.150026
	H8	H	0.837922	0.708795	0.380643
	H9	H	0.155638	0.710329	0.597607
	H10	H	0.838640	0.265312	0.594158
	H11	H	0.156783	0.262485	0.377885
	H12	H	0.834553	0.385815	0.702636
	H13	H	0.158285	0.587990	0.706500
	H14	H	0.835385	0.587186	0.271138
	H15	H	0.159056	0.385293	0.269791
	H16	H	0.388329	0.707721	0.828373
	H17	H	0.603413	0.704705	0.149332
	H18	H	0.601134	0.263239	0.829174
	H19	H	0.387453	0.264857	0.149483
	H20	H	0.720356	0.828942	0.383953
	H21	H	0.719034	0.144886	0.597294
	H22	H	0.273736	0.828959	0.596231
	H23	H	0.277614	0.145822	0.386691
	H24	H	0.892581	0.328757	0.209677
	H25	H	0.101222	0.644224	0.209327
	H26	H	0.097637	0.326715	0.768858
	H27	H	0.892698	0.645128	0.768852
	H28	H	0.214984	0.884442	0.326803
	H29	H	0.213871	0.089256	0.651503
	H30	H	0.777020	0.090655	0.328259
	H31	H	0.782042	0.885789	0.651993
	H32	H	0.337206	0.208411	0.880363
	H33	H	0.655131	0.209249	0.099211
	H34	H	0.337213	0.764624	0.095540
	H35	H	0.656399	0.761701	0.880678
	H36	H	0.335820	0.883141	0.207900
	H37	H	0.658869	0.086247	0.207506
	H38	H	0.334605	0.085244	0.771658
	H39	H	0.659089	0.882358	0.770713
	H40	H	0.889815	0.207213	0.328292
	H41	H	0.105775	0.210274	0.648259
	H42	H	0.104569	0.764863	0.328789
	H43	H	0.889567	0.765170	0.648400
	H44	H	0.217674	0.328224	0.880824
	H45	H	0.216021	0.644535	0.092558
	H46	H	0.778137	0.326797	0.089810
	H47	H	0.773305	0.643440	0.882388
	H48	H	0.403909	0.098145	0.577249
	H49	H	0.593847	0.873129	0.575927
	H50	H	0.586133	0.098306	0.400237
	H51	H	0.404205	0.872935	0.401646
	H52	H	0.584820	0.393457	0.104689
	H53	H	0.583315	0.580735	0.870912
	H54	H	0.404789	0.566796	0.101266
	H55	H	0.403986	0.393937	0.871246
	H56	H	0.112112	0.578507	0.400615
	H57	H	0.880680	0.587493	0.571194
	H58	H	0.112442	0.400149	0.580514
	H59	H	0.881183	0.389002	0.403250
	H60	H	0.114104	0.392365	0.575322
	H61	H	0.886175	0.571586	0.569980
	H62	H	0.112262	0.576373	0.401393
	H63	H	0.886239	0.401334	0.404616
	H64	H	0.416869	0.578830	0.101219
	H65	H	0.588428	0.573675	0.870517
	H66	H	0.588381	0.396699	0.105547
	H67	H	0.409333	0.398824	0.875422
	H68	H	0.585068	0.097914	0.401087
	H69	H	0.588034	0.872972	0.583246
	H70	H	0.403866	0.100602	0.584314
	H71	H	0.405839	0.872271	0.397107
	H72	H	0.908628	0.597564	0.077041
	H73	H	0.090865	0.371285	0.080936
	H74	H	0.089841	0.601801	0.893568
	H75	H	0.895845	0.367773	0.889304
	H76	H	0.094968	0.900400	0.606473
	H77	H	0.088078	0.072792	0.373476
	H78	H	0.904458	0.074289	0.604476
	H79	H	0.918509	0.889875	0.373795
	H80	H	0.609727	0.072390	0.904857
	H81	H	0.381577	0.079770	0.078046
	H82	H	0.610902	0.899883	0.079214
	H83	H	0.382624	0.893345	0.902269
	H84	H	0.614631	0.889558	0.082707
	H85	H	0.382297	0.075282	0.074768
	H86	H	0.610393	0.074454	0.900952
	H87	H	0.382868	0.896712	0.900961
	H88	H	0.916768	0.076103	0.601353
	H89	H	0.081874	0.076886	0.375082
	H90	H	0.077602	0.904466	0.599562
	H91	H	0.899697	0.895294	0.369743
	H92	H	0.080258	0.597475	0.897187
	H93	H	0.082408	0.372894	0.079210
	H94	H	0.902045	0.599678	0.074739
	H95	H	0.914912	0.373560	0.889335
	H96	H	0.410376	0.098427	0.581189
	H97	H	0.585372	0.876746	0.575306
	H98	H	0.587172	0.098343	0.401289
	H99	H	0.408214	0.875313	0.400685
	H100	H	0.584024	0.397595	0.102512
	H101	H	0.579697	0.573333	0.873889
	H102	H	0.400795	0.582503	0.108234
	H103	H	0.411678	0.391616	0.873319
	H104	H	0.112115	0.576615	0.399694
	H105	H	0.879186	0.577465	0.585543
	H106	H	0.110015	0.400420	0.571373
	H107	H	0.881290	0.397352	0.392623
	H108	H	0.904252	0.600395	0.081844
	H109	H	0.088189	0.374193	0.073219
	H110	H	0.089495	0.598074	0.903892
	H111	H	0.904044	0.376076	0.906176
	H112	H	0.081531	0.886869	0.606945
	H113	H	0.088200	0.080070	0.371445
	H114	H	0.910338	0.085210	0.607442
	H115	H	0.912172	0.908329	0.378472
	H116	H	0.610472	0.076428	0.904538
	H117	H	0.381242	0.074446	0.080077
	H118	H	0.610874	0.891391	0.071567
	H119	H	0.382263	0.893642	0.899091
	C120	C	0.374426	-0.005822	0.612283
	C121	C	0.620147	0.978317	0.611551
	C122	C	0.619127	-0.005853	0.368171
	C123	C	0.374735	0.978424	0.367950
	C124	C	0.616855	0.363830	-0.002499
	C125	C	0.616435	0.605851	0.978977
	C126	C	0.375074	0.607370	-0.003045
	C127	C	0.375167	0.364157	0.979841
	C128	C	0.005885	0.607994	0.368281
	C129	C	0.987953	0.609367	0.608813
	C130	C	0.006009	0.366053	0.607604
	C131	C	0.988849	0.364103	0.366582
	C132	C	0.874766	0.494354	0.109104
	C133	C	0.118431	0.477628	0.109520
	C134	C	0.118136	0.494459	0.865350
	C135	C	0.872798	0.477220	0.863947
	C136	C	0.117643	0.865544	0.497851
	C137	C	0.117947	0.108383	0.480247
	C138	C	0.876972	0.109067	0.497961
	C139	C	0.877240	0.866321	0.480219
	C140	C	0.504511	0.105877	0.869801
	C141	C	0.487651	0.107406	0.110751
	C142	C	0.505760	0.863414	0.110219
	C143	C	0.489023	0.863324	0.868136
	C144	C	0.374468	0.874338	0.669614
	C145	C	0.620181	0.097115	0.672349
	C146	C	0.621034	0.875139	0.308337
	C147	C	0.373927	0.097372	0.308813
	C148	C	0.673749	0.363032	0.874752
	C149	C	0.674726	0.604935	0.101437
	C150	C	0.317132	0.607002	0.874547
	C151	C	0.316119	0.365327	0.101508
	C152	C	0.885462	0.668042	0.363918
	C153	C	0.108101	0.669356	0.614026
	C154	C	0.885918	0.306018	0.610812
	C155	C	0.108862	0.303431	0.361721
	C156	C	0.883930	0.366157	0.665010
	C157	C	0.109499	0.608419	0.668211
	C158	C	0.884195	0.607526	0.309327
	C159	C	0.110214	0.364345	0.307553
	C160	C	0.371705	0.667140	0.876274
	C161	C	0.619877	0.664499	0.100908
	C162	C	0.618674	0.303710	0.876645
	C163	C	0.370900	0.305169	0.101055
	C164	C	0.679919	0.875968	0.365698
	C165	C	0.679376	0.097261	0.615082
	C166	C	0.314244	0.875916	0.613975
	C167	C	0.316450	0.097819	0.367448
	C168	C	0.873970	0.375659	0.169165
	C169	C	0.119642	0.596860	0.169328
	C170	C	0.117898	0.374904	0.806894
	C171	C	0.872746	0.597211	0.806855
	C172	C	0.176318	0.865196	0.375790
	C173	C	0.176040	0.109023	0.602248
	C174	C	0.816525	0.109563	0.376700
	C175	C	0.819548	0.866320	0.602659
	C176	C	0.384587	0.166771	0.864624
	C177	C	0.607874	0.167904	0.115560
	C178	C	0.385108	0.804577	0.113110
	C179	C	0.608976	0.802880	0.864178
	C180	C	0.384520	0.863828	0.169186
	C181	C	0.609775	0.106871	0.169401
	C182	C	0.383257	0.105739	0.810236
	C183	C	0.610250	0.862758	0.808920
	C184	C	0.872840	0.167769	0.376736
	C185	C	0.122472	0.169517	0.600568
	C186	C	0.121447	0.805436	0.376723
	C187	C	0.873342	0.806202	0.600834
	C188	C	0.177454	0.375574	0.863051
	C189	C	0.176941	0.596809	0.111278
	C190	C	0.816650	0.374673	0.109732
	C191	C	0.813385	0.596282	0.863638
	C192	C	0.398969	0.077413	0.588064
	C193	C	0.595933	0.895866	0.585765
	C194	C	0.593530	0.076875	0.393628
	C195	C	0.399207	0.895268	0.392682
	C196	C	0.592604	0.388811	0.082248
	C197	C	0.591273	0.582520	0.894001
	C198	C	0.400131	0.583092	0.081630
	C199	C	0.400790	0.387908	0.895356
	C200	C	0.090029	0.584053	0.393410
	C201	C	0.903861	0.585572	0.582941
	C202	C	0.090247	0.390447	0.582851
	C203	C	0.904836	0.388663	0.392460
	C204	C	0.898186	0.577418	0.084762
	C205	C	0.094175	0.394395	0.084833
	C206	C	0.093705	0.577539	0.890817
	C207	C	0.897635	0.394243	0.887950
	C208	C	0.092096	0.890092	0.582351
	C209	C	0.093074	0.083755	0.395393
	C210	C	0.902841	0.085423	0.582296
	C211	C	0.902678	0.890780	0.395890
	C212	C	0.588416	0.081532	0.895991
	C213	C	0.403655	0.083315	0.085181
	C214	C	0.590189	0.886931	0.085243
	C215	C	0.404694	0.887563	0.893411
	Zn216	Zn	0.497253	-0.014695	0.740673
	Zn217	Zn	0.497054	-0.014047	0.238946
	Zn218	Zn	0.744315	0.485040	-0.012757
	Zn219	Zn	0.247442	0.486096	-0.012314
	Zn220	Zn	-0.003484	0.737466	0.488154
	Zn221	Zn	-0.001462	0.236805	0.488172
	Zn222	Zn	-0.003632	0.486477	0.735659
	Zn223	Zn	-0.002638	0.486968	0.239037
	Zn224	Zn	0.496918	0.734616	-0.011348
	Zn225	Zn	0.496333	0.235754	-0.010197
	Zn226	Zn	0.750122	-0.013232	0.489892
	Zn227	Zn	0.245231	-0.012845	0.489712
	N228	N	0.411104	0.949073	0.668711
	N229	N	0.584171	0.022193	0.670330
	N230	N	0.583951	0.949835	0.309847
	N231	N	0.409135	0.021917	0.308934
	N232	N	0.672918	0.399746	0.951007
	N233	N	0.672768	0.569222	0.024670
	N234	N	0.319176	0.570386	0.950563
	N235	N	0.318715	0.401279	0.025222
	N236	N	0.962066	0.668522	0.399749
	N237	N	0.031710	0.670003	0.577902
	N238	N	0.962777	0.306003	0.575688
	N239	N	0.032154	0.303079	0.397543
	N240	N	0.959624	0.403135	0.663026
	N241	N	0.033616	0.572026	0.665505
	N242	N	0.960062	0.570854	0.311815
	N243	N	0.034584	0.401347	0.310277
	N244	N	0.406984	0.667431	0.953501
	N245	N	0.584388	0.665156	0.023754
	N246	N	0.584408	0.304006	0.954113
	N247	N	0.407043	0.304329	0.024336
	N248	N	0.678959	0.951006	0.402148
	N249	N	0.679410	0.022548	0.577942
	N250	N	0.314107	0.951525	0.578998
	N251	N	0.316738	0.022642	0.403338
	N252	N	0.909198	0.450926	0.168966
	N253	N	0.084024	0.521701	0.168421
	N254	N	0.081852	0.450059	0.808060
	N255	N	0.909050	0.522293	0.806939
	N256	N	0.174555	0.901505	0.452282
	N257	N	0.173493	0.071891	0.526278
	N258	N	0.818688	0.073890	0.453219
	N259	N	0.821970	0.903224	0.526674
	N260	N	0.461073	0.166901	0.901098
	N261	N	0.531015	0.168613	0.079969
	N262	N	0.461637	0.803999	0.077339
	N263	N	0.532530	0.802988	0.899997
	N264	N	0.460697	0.899702	0.167687
	N265	N	0.534086	0.069986	0.166723
	N266	N	0.458689	0.068556	0.813346
	N267	N	0.534509	0.899642	0.811257
	N268	N	0.909777	0.167835	0.453157
	N269	N	0.086825	0.168946	0.523634
	N270	N	0.085926	0.805362	0.453709
	N271	N	0.908653	0.806195	0.523799
	N272	N	0.177768	0.450984	0.898816
	N273	N	0.176370	0.521641	0.074802
	N274	N	0.817109	0.449350	0.073031
	N275	N	0.813257	0.520584	0.898301
	O276	O	0.553799	0.476474	0.598516
	H277	H	0.544823	0.481689	0.600098
	H278	H	0.558067	0.482312	0.616567
	O279	O	0.469887	0.671193	0.472016
	H280	H	0.465563	0.675961	0.466880
	H281	H	0.459946	0.667484	0.464841
	O282	O	0.329467	0.533341	0.504274
	H283	H	0.330838	0.552790	0.490937
	H284	H	0.332185	0.522906	0.498637
	O285	O	0.864837	-0.004744	-0.079428
	H286	H	0.876313	0.001475	-0.084838
	H287	H	0.856716	-0.014413	-0.064040
	O288	O	-0.008242	0.189052	0.946871
	H289	H	0.007422	0.190160	0.946616
	H290	H	-0.010774	0.193470	0.952143
	O291	O	0.492627	0.518292	0.437480
	H292	H	0.495563	0.493565	0.439530
	H293	H	0.479037	0.518852	0.448359
	O294	O	0.353828	0.485018	0.352487
	H295	H	0.375137	0.465086	0.348475
	H296	H	0.358177	0.478130	0.342277
	O297	O	0.985274	0.937435	1.099492
	H298	H	0.994589	0.924824	1.099905
	H299	H	0.966993	0.936159	1.099364
	O300	O	0.053076	-0.100155	-0.184392
	H301	H	0.055119	-0.116730	-0.180140
	H302	H	0.058358	-0.091414	-0.182816
	O303	O	0.324703	0.407644	0.502359
	H304	H	0.343296	0.413877	0.495345
	H305	H	0.309490	0.405728	0.487683
	O306	O	1.166770	0.000440	-0.068780
	H307	H	1.164723	0.002861	-0.060995
	H308	H	1.166198	-0.009698	-0.067174
	O309	O	0.283849	0.411054	0.652476
	H310	H	0.268775	0.422568	0.652145
	H311	H	0.276629	0.424765	0.641112
	O312	O	0.967863	0.964895	0.075084
	H313	H	0.954524	0.956160	0.090059
	H314	H	0.972383	0.958018	0.080951
	O315	O	0.586921	0.386119	0.338034
	H316	H	0.597293	0.389855	0.354094
	H317	H	0.587456	0.373669	0.330489
	O318	O	0.587811	0.510521	0.389119
	H319	H	0.580735	0.504329	0.400269
	H320	H	0.598375	0.511856	0.407656
	O321	O	0.867790	-0.084740	0.991854
	H322	H	0.871136	-0.076654	1.000916
	H323	H	0.853577	-0.096930	0.990953
	O324	O	0.059799	-0.186357	1.019873
	H325	H	0.060048	-0.184492	1.007410
	H326	H	0.066853	-0.173757	1.019310
	O327	O	0.494072	0.346842	0.480503
	H328	H	0.483280	0.335400	0.504278
	H329	H	0.500807	0.330409	0.466200
	O330	O	0.618783	0.399834	0.331653
	H331	H	0.614178	0.384147	0.336547
	H332	H	0.635524	0.410967	0.342652
	O333	O	0.893406	0.960344	1.091073
	H334	H	0.891258	0.953767	1.103793
	H335	H	0.914956	0.938379	1.090923
	O336	O	0.704797	0.460191	0.574305
	H337	H	0.703683	0.467560	0.571035
	H338	H	0.726799	0.475661	0.589349
	O339	O	1.105944	-0.151476	0.815472
	H340	H	1.110518	-0.152661	0.826402
	H341	H	1.091728	-0.169674	0.808796
	O342	O	0.161681	0.824012	0.974367
	H343	H	0.178649	0.822969	0.967691
	H344	H	0.163511	0.824382	0.967836
	O345	O	0.116348	1.140003	0.987372
	H346	H	0.118827	1.141754	1.000205
	H347	H	0.122515	1.120327	0.974189
	O348	O	0.285138	0.658188	0.423386
	H349	H	0.255078	0.682554	0.415046
	H350	H	0.290773	0.646514	0.388636
	O351	O	-0.114456	-0.209302	0.173746
	H352	H	-0.096709	-0.223784	0.183428
	H353	H	-0.128395	-0.212713	0.167245
	O354	O	1.157414	0.995196	-0.049082
	H355	H	1.154328	0.990489	-0.027109
	H356	H	1.173145	0.986252	-0.057414
	O357	O	0.675759	1.603490	0.642461
	H358	H	0.662903	1.600116	0.632293
	H359	H	0.666510	1.593206	0.631809
	O360	O	0.480037	0.640159	0.657724
	H361	H	0.477167	0.654644	0.649000
	H362	H	0.476942	0.628773	0.669407
	O363	O	0.460828	0.363224	0.369784
	H364	H	0.483348	0.362243	0.374906
	H365	H	0.479584	0.354415	0.369120
	O366	O	1.054923	1.176008	0.825414
	H367	H	1.063223	1.171688	0.823864
	H368	H	1.053817	1.187298	0.826358
	O369	O	0.676182	0.295578	0.408065
	H370	H	0.694279	0.276256	0.426232
	H371	H	0.672408	0.315307	0.392943
	O372	O	0.388029	0.659885	0.332146
	H373	H	0.404631	0.653841	0.316887
	H374	H	0.402377	0.649020	0.328192
	O375	O	0.496772	0.294910	0.629390
	H376	H	0.476649	0.299909	0.622178
	H377	H	0.491346	0.296694	0.644904
	O378	O	0.475916	0.312376	0.516166
	H379	H	0.473803	0.323340	0.522020
	H380	H	0.464374	0.300167	0.532902
	O381	O	0.603077	0.431016	0.628501
	H382	H	0.594884	0.425108	0.642559
	H383	H	0.610693	0.424448	0.637389
	O384	O	-0.192453	1.021140	0.973990
	H385	H	-0.193492	1.038309	0.963487
	H386	H	-0.194195	1.016310	0.963342
	O387	O	0.965703	1.180641	0.132278
	H388	H	0.954853	1.169905	0.111536
	H389	H	0.958150	1.209266	0.142395
	O390	O	0.493970	0.643172	0.334260
	H391	H	0.500591	0.656497	0.321000
	H392	H	0.507664	0.637917	0.337026
	O393	O	1.582207	0.603275	1.404835
	H394	H	1.586005	0.590942	1.430212
	H395	H	1.578935	0.594560	1.407767
	O396	O	0.194572	1.031292	1.175438
	H397	H	0.192212	1.062683	1.180367
	H398	H	0.206781	1.048556	1.194452
	O399	O	0.657385	0.669754	0.541710
	H400	H	0.642703	0.663431	0.546156
	H401	H	0.657628	0.665314	0.536503
	O402	O	1.014002	-0.191857	0.993883
	H403	H	1.002500	-0.189425	1.003395
	H404	H	1.020974	-0.184516	0.992178
	O405	O	0.060252	-0.003565	-0.176896
	H406	H	0.064138	-0.005843	-0.180254
	H407	H	0.070939	-0.012703	-0.176202
	O408	O	0.466546	1.523635	1.453631
	H409	H	0.470289	1.520103	1.440325
	H410	H	0.468073	1.521290	1.455229
	O411	O	1.048823	1.105747	0.174950
	H412	H	1.046752	1.111737	0.153737
	H413	H	1.021543	1.114166	0.171381
	O414	O	-0.182559	0.008625	0.889716
	H415	H	-0.164960	0.005189	0.885068
	H416	H	-0.182597	0.009752	0.893346
	O417	O	0.387638	0.429783	0.646096
	H418	H	0.391637	0.435127	0.638544
	H419	H	0.377398	0.441895	0.644590
	O420	O	-0.101288	1.015653	-0.038647
	H421	H	-0.099942	1.005165	-0.039997
	H422	H	-0.113618	1.020193	-0.048545
	O423	O	0.946314	0.071722	-0.124490
	H424	H	0.945178	0.077957	-0.135154
	H425	H	0.944020	0.081868	-0.119829
	O426	O	-0.090518	0.022675	1.054516
	H427	H	-0.113250	0.030661	1.056972
	H428	H	-0.100139	0.009278	1.037026
	O429	O	-0.081064	1.053645	0.172553
	H430	H	-0.087349	1.045730	0.166257
	H431	H	-0.059409	1.049907	0.174572
