data_Molecule from HDF5

_cell_length_a		16.196992
_cell_length_b		16.226137
_cell_length_c		16.109352
_cell_angle_alpha	90.136374
_cell_angle_beta	90.194339
_cell_angle_gamma	90.422979
_symmetry_space_group_name_H-M	'P 1'
_symmetry_Int_Tables_number		1

loop_
	_symmetry_equiv_pos_as_xyz
	x,y,z

loop_
	_atom_site_label
	_atom_site_type_symbol
	_atom_site_fract_x
	_atom_site_fract_y
	_atom_site_fract_z
	H0	H	0.397567	0.836567	0.706507
	H1	H	0.597004	0.165917	0.710904
	H2	H	0.594046	0.836675	0.281112
	H3	H	0.400784	0.166383	0.281907
	H4	H	0.711020	0.402536	0.831911
	H5	H	0.710468	0.602116	0.162580
	H6	H	0.282330	0.599287	0.832200
	H7	H	0.283669	0.402900	0.162216
	H8	H	0.831891	0.716821	0.398130
	H9	H	0.161091	0.719892	0.599432
	H10	H	0.833591	0.284298	0.598235
	H11	H	0.160853	0.289708	0.398106
	H12	H	0.832064	0.403230	0.709567
	H13	H	0.161536	0.602430	0.711050
	H14	H	0.831487	0.599165	0.283452
	H15	H	0.161456	0.406346	0.286120
	H16	H	0.397272	0.712215	0.830546
	H17	H	0.597943	0.718772	0.160669
	H18	H	0.594723	0.287149	0.831170
	H19	H	0.395785	0.286933	0.160859
	H20	H	0.711677	0.837969	0.395270
	H21	H	0.713182	0.166885	0.594634
	H22	H	0.280392	0.838482	0.593964
	H23	H	0.284779	0.166635	0.396509
	H24	H	0.898345	0.336958	0.209499
	H25	H	0.096429	0.666322	0.212513
	H26	H	0.093776	0.338190	0.781677
	H27	H	0.898874	0.667490	0.783651
	H28	H	0.206633	0.905545	0.329907
	H29	H	0.213900	0.103492	0.661602
	H30	H	0.785979	0.099470	0.330391
	H31	H	0.782230	0.903387	0.661227
	H32	H	0.330690	0.214011	0.895388
	H33	H	0.659094	0.218428	0.097182
	H34	H	0.331974	0.786505	0.092778
	H35	H	0.660293	0.787202	0.894360
	H36	H	0.331893	0.901581	0.206961
	H37	H	0.660962	0.100777	0.208221
	H38	H	0.331196	0.097700	0.780848
	H39	H	0.661269	0.905324	0.783118
	H40	H	0.896807	0.215302	0.331801
	H41	H	0.096609	0.217489	0.661705
	H42	H	0.094079	0.788620	0.332814
	H43	H	0.896701	0.790252	0.662850
	H44	H	0.208809	0.337301	0.899586
	H45	H	0.214143	0.666031	0.098083
	H46	H	0.779477	0.338125	0.097762
	H47	H	0.783892	0.666733	0.899688
	H48	H	0.416254	0.113760	0.579649
	H49	H	0.587164	0.884107	0.592552
	H50	H	0.591384	0.119335	0.401714
	H51	H	0.400618	0.884674	0.405042
	H52	H	0.583118	0.399531	0.115869
	H53	H	0.591529	0.593743	0.878099
	H54	H	0.410090	0.592198	0.112758
	H55	H	0.405054	0.406822	0.877863
	H56	H	0.115313	0.594994	0.399684
	H57	H	0.875236	0.608719	0.588678
	H58	H	0.116240	0.401346	0.585077
	H59	H	0.877925	0.408475	0.402609
	H60	H	0.111339	0.418289	0.584657
	H61	H	0.883040	0.589168	0.582298
	H62	H	0.116227	0.603961	0.407407
	H63	H	0.878011	0.405708	0.404340
	H64	H	0.406945	0.601700	0.117353
	H65	H	0.589466	0.595028	0.877971
	H66	H	0.598965	0.411076	0.117707
	H67	H	0.398831	0.403913	0.875352
	H68	H	0.593995	0.119395	0.401839
	H69	H	0.589000	0.885392	0.583811
	H70	H	0.391752	0.122801	0.584058
	H71	H	0.398979	0.881991	0.398395
	H72	H	0.900131	0.619867	0.087635
	H73	H	0.088801	0.380433	0.105932
	H74	H	0.077785	0.615367	0.904834
	H75	H	0.898898	0.384991	0.908562
	H76	H	0.088325	0.906377	0.616445
	H77	H	0.095329	0.105112	0.373092
	H78	H	0.907295	0.101121	0.617582
	H79	H	0.897829	0.901891	0.373680
	H80	H	0.613811	0.094845	0.900161
	H81	H	0.376050	0.088733	0.099265
	H82	H	0.615562	0.903863	0.084194
	H83	H	0.379268	0.907756	0.903579
	H84	H	0.611767	0.915161	0.083182
	H85	H	0.374048	0.105018	0.087317
	H86	H	0.614418	0.098246	0.904898
	H87	H	0.376730	0.905916	0.895817
	H88	H	0.898420	0.092381	0.617053
	H89	H	0.095866	0.088831	0.378651
	H90	H	0.096082	0.912233	0.617542
	H91	H	0.901647	0.918850	0.380044
	H92	H	0.099009	0.619358	0.917078
	H93	H	0.079627	0.388743	0.084889
	H94	H	0.901711	0.622131	0.096149
	H95	H	0.900427	0.382660	0.897860
	H96	H	0.409331	0.123129	0.602915
	H97	H	0.595061	0.883754	0.588124
	H98	H	0.592680	0.120112	0.399952
	H99	H	0.405297	0.883779	0.400010
	H100	H	0.580858	0.419064	0.111379
	H101	H	0.591499	0.595545	0.876956
	H102	H	0.400545	0.593126	0.116966
	H103	H	0.399264	0.410379	0.876794
	H104	H	0.111169	0.593137	0.411089
	H105	H	0.875519	0.593098	0.603222
	H106	H	0.117719	0.410437	0.600507
	H107	H	0.878494	0.408299	0.405709
	H108	H	0.908538	0.618603	0.091866
	H109	H	0.103153	0.381339	0.086765
	H110	H	0.096875	0.625226	0.894298
	H111	H	0.908117	0.386714	0.903892
	H112	H	0.087703	0.916891	0.614079
	H113	H	0.080558	0.097259	0.380128
	H114	H	0.910718	0.090663	0.612186
	H115	H	0.914391	0.906028	0.380137
	H116	H	0.611901	0.093172	0.906909
	H117	H	0.381427	0.087929	0.078737
	H118	H	0.616484	0.911016	0.094125
	H119	H	0.376747	0.899838	0.900949
	C120	C	0.376204	0.010807	0.616465
	C121	C	0.619613	0.993175	0.617579
	C122	C	0.619908	0.010581	0.372683
	C123	C	0.374814	0.992725	0.372905
	C124	C	0.617099	0.380669	0.005456
	C125	C	0.619138	0.624460	0.987241
	C126	C	0.376036	0.622857	0.006006
	C127	C	0.373749	0.379741	0.986851
	C128	C	0.005089	0.624904	0.376704
	C129	C	0.987392	0.625820	0.619707
	C130	C	0.006194	0.380753	0.618652
	C131	C	0.987287	0.380566	0.376006
	C132	C	0.874385	0.511110	0.119836
	C133	C	0.119525	0.492872	0.120629
	C134	C	0.118605	0.511046	0.876008
	C135	C	0.874853	0.493703	0.875367
	C136	C	0.118037	0.882861	0.506403
	C137	C	0.119958	0.125831	0.486962
	C138	C	0.876473	0.123324	0.505805
	C139	C	0.875145	0.880694	0.487437
	C140	C	0.504426	0.123001	0.874244
	C141	C	0.486477	0.123272	0.117436
	C142	C	0.505381	0.880259	0.115642
	C143	C	0.486865	0.877868	0.872314
	C144	C	0.377500	0.886282	0.669937
	C145	C	0.617543	0.116846	0.672996
	C146	C	0.615309	0.886338	0.318241
	C147	C	0.379100	0.116917	0.318541
	C148	C	0.672672	0.382472	0.881073
	C149	C	0.673726	0.622873	0.112345
	C150	C	0.320054	0.619638	0.881373
	C151	C	0.320503	0.382429	0.112463
	C152	C	0.881087	0.679076	0.378222
	C153	C	0.111811	0.681493	0.618589
	C154	C	0.882407	0.323749	0.617171
	C155	C	0.111626	0.327214	0.378407
	C156	C	0.881746	0.382695	0.672805
	C157	C	0.112048	0.623175	0.674259
	C158	C	0.880955	0.620483	0.321224
	C159	C	0.111932	0.385258	0.322693
	C160	C	0.377375	0.675842	0.880544
	C161	C	0.617568	0.680907	0.111258
	C162	C	0.615326	0.324766	0.880778
	C163	C	0.376042	0.324574	0.111523
	C164	C	0.673734	0.886879	0.375279
	C165	C	0.675430	0.117329	0.615368
	C166	C	0.319282	0.887078	0.613952
	C167	C	0.321441	0.116907	0.375478
	C168	C	0.877052	0.386429	0.173249
	C169	C	0.116954	0.617158	0.175043
	C170	C	0.114799	0.387341	0.819954
	C171	C	0.878245	0.618029	0.821141
	C172	C	0.170620	0.884823	0.380294
	C173	C	0.175542	0.123343	0.611854
	C174	C	0.822140	0.120343	0.380603
	C175	C	0.819865	0.883494	0.612072
	C176	C	0.380347	0.177085	0.875706
	C177	C	0.610153	0.179985	0.116655
	C178	C	0.381496	0.824076	0.113136
	C179	C	0.611122	0.824498	0.874348
	C180	C	0.381300	0.881601	0.169983
	C181	C	0.611127	0.121278	0.171908
	C182	C	0.380544	0.118923	0.818542
	C183	C	0.611425	0.883176	0.818971
	C184	C	0.877760	0.177859	0.381160
	C185	C	0.117432	0.180196	0.612025
	C186	C	0.114480	0.826927	0.381742
	C187	C	0.877015	0.827217	0.612989
	C188	C	0.171934	0.386852	0.878520
	C189	C	0.175645	0.616761	0.118350
	C190	C	0.818264	0.387124	0.117283
	C191	C	0.820817	0.617781	0.878742
	C192	C	0.399142	0.097346	0.595159
	C193	C	0.597125	0.906862	0.594897
	C194	C	0.598812	0.097149	0.394685
	C195	C	0.395470	0.906046	0.394536
	C196	C	0.594284	0.403222	0.092340
	C197	C	0.597299	0.601486	0.900068
	C198	C	0.398937	0.601653	0.092999
	C199	C	0.394778	0.400867	0.899556
	C200	C	0.091872	0.603603	0.399235
	C201	C	0.900514	0.603663	0.597810
	C202	C	0.092655	0.403510	0.596718
	C203	C	0.900558	0.401315	0.397762
	C204	C	0.896718	0.597904	0.098219
	C205	C	0.097118	0.406094	0.098930
	C206	C	0.097679	0.597599	0.898849
	C207	C	0.896121	0.407242	0.897112
	C208	C	0.097014	0.905276	0.593617
	C209	C	0.097379	0.103520	0.399907
	C210	C	0.898868	0.101295	0.593052
	C211	C	0.897846	0.902217	0.400503
	C212	C	0.591216	0.101766	0.897341
	C213	C	0.399683	0.100694	0.094948
	C214	C	0.592201	0.903176	0.093716
	C215	C	0.400003	0.898235	0.893721
	Zn216	Zn	0.496208	0.001062	0.745544
	Zn217	Zn	0.496626	0.001550	0.244274
	Zn218	Zn	0.746170	0.502292	-0.002565
	Zn219	Zn	0.247862	0.501985	-0.001949
	Zn220	Zn	-0.003500	0.754312	0.498553
	Zn221	Zn	-0.003402	0.251943	0.496645
	Zn222	Zn	-0.003555	0.503141	0.746419
	Zn223	Zn	-0.003531	0.501545	0.248186
	Zn224	Zn	0.496999	0.750977	-0.004971
	Zn225	Zn	0.494627	0.252056	-0.004190
	Zn226	Zn	0.748867	0.002312	0.495429
	Zn227	Zn	0.247084	0.002459	0.495365
	N228	N	0.412256	0.964275	0.671598
	N229	N	0.583508	0.038737	0.674607
	N230	N	0.582860	0.964440	0.316113
	N231	N	0.411917	0.038703	0.316743
	N232	N	0.673953	0.416525	0.959551
	N233	N	0.674852	0.588398	0.034222
	N234	N	0.319159	0.587372	0.960402
	N235	N	0.318854	0.416017	0.034044
	N236	N	0.959293	0.681772	0.412215
	N237	N	0.033217	0.683276	0.585425
	N238	N	0.960750	0.322279	0.584254
	N239	N	0.033211	0.324111	0.410728
	N240	N	0.959677	0.417501	0.673987
	N241	N	0.033836	0.589067	0.675038
	N242	N	0.959154	0.587598	0.319918
	N243	N	0.033531	0.417782	0.320933
	N244	N	0.411422	0.678071	0.958965
	N245	N	0.584417	0.682020	0.032331
	N246	N	0.581542	0.323391	0.959151
	N247	N	0.408534	0.322787	0.032549
	N248	N	0.676827	0.965270	0.408295
	N249	N	0.676754	0.039357	0.581509
	N250	N	0.318389	0.965363	0.581369
	N251	N	0.318811	0.038863	0.408765
	N252	N	0.911450	0.464505	0.175136
	N253	N	0.082783	0.538893	0.176829
	N254	N	0.082351	0.465622	0.818261
	N255	N	0.910967	0.540086	0.818776
	N256	N	0.172795	0.918929	0.458682
	N257	N	0.177250	0.090240	0.533008
	N258	N	0.821144	0.087132	0.459183
	N259	N	0.818527	0.915989	0.533027
	N260	N	0.458660	0.179681	0.909652
	N261	N	0.531698	0.181423	0.083428
	N262	N	0.459746	0.823382	0.079948
	N263	N	0.532653	0.821015	0.906742
	N264	N	0.459375	0.916006	0.171589
	N265	N	0.533075	0.086892	0.172648
	N266	N	0.458721	0.086118	0.817651
	N267	N	0.533066	0.915622	0.817439
	N268	N	0.910771	0.179934	0.460328
	N269	N	0.083563	0.181892	0.533421
	N270	N	0.082498	0.825475	0.461161
	N271	N	0.910750	0.825559	0.534701
	N272	N	0.174526	0.464840	0.912396
	N273	N	0.177016	0.538610	0.085202
	N274	N	0.816288	0.465658	0.085217
	N275	N	0.818524	0.539403	0.911885
	O276	O	-0.022815	0.040200	0.012725
	H277	H	-0.022976	0.048279	0.013338
	H278	H	-0.025531	0.029577	0.005172
	O279	O	0.429633	0.565346	0.448645
	H280	H	0.425465	0.568747	0.444211
	H281	H	0.429812	0.564260	0.441256
	O282	O	0.432696	0.493029	0.528240
	H283	H	0.428469	0.503112	0.525498
	H284	H	0.430091	0.488247	0.521422
	O285	O	0.041626	0.956672	1.106542
	H286	H	0.035754	0.953852	1.112450
	H287	H	0.034350	0.974134	1.102612
	O288	O	0.627649	0.594703	0.618730
	H289	H	0.629332	0.596363	0.623115
	H290	H	0.626325	0.599763	0.611534
	O291	O	1.054352	0.933447	1.001014
	H292	H	1.044991	0.933652	1.014548
	H293	H	1.052134	0.938721	1.000911
	O294	O	0.935734	1.067102	0.989153
	H295	H	0.940818	1.070599	0.989564
	H296	H	0.935452	1.070369	0.984559
	O297	O	1.078569	0.010644	1.004306
	H298	H	1.070211	0.002611	1.002313
	H299	H	1.081746	0.009362	1.008522
	O300	O	0.548535	0.429638	0.464849
	H301	H	0.546598	0.410600	0.455600
	H302	H	0.566088	0.422561	0.455931
	O303	O	0.940989	-0.023446	-0.018809
	H304	H	0.937789	-0.033789	-0.019594
	H305	H	0.948691	-0.039308	-0.023398
	O306	O	-0.086403	0.895361	0.906699
	H307	H	-0.087176	0.903532	0.909614
	H308	H	-0.088340	0.879700	0.907843
	O309	O	0.575031	0.584045	0.521445
	H310	H	0.579364	0.588533	0.523638
	H311	H	0.576683	0.574482	0.511614
	O312	O	0.970789	-0.127457	0.982431
	H313	H	0.981267	-0.118088	0.986109
	H314	H	0.974613	-0.148218	0.977305
	O315	O	0.383233	0.473756	0.498449
	H316	H	0.389213	0.483887	0.510897
	H317	H	0.382215	0.470167	0.490189
	O318	O	0.464110	0.509749	0.481220
	H319	H	0.464098	0.515725	0.480424
	H320	H	0.454710	0.510234	0.477294
	O321	O	1.009834	1.152261	1.014178
	H322	H	1.014657	1.161230	1.018800
	H323	H	1.009645	1.155469	1.011745
	O324	O	0.516881	0.506081	0.546023
	H325	H	0.519553	0.511838	0.550963
	H326	H	0.498382	0.507214	0.543972
	O327	O	0.471914	0.402500	0.585095
	H328	H	0.474427	0.400244	0.589609
	H329	H	0.468143	0.405640	0.599206
	O330	O	1.025789	0.082312	1.019013
	H331	H	1.020070	0.075531	1.017506
	H332	H	1.031090	0.084180	1.003991
	O333	O	0.941108	1.065693	-0.042071
	H334	H	0.936344	1.067577	-0.044144
	H335	H	0.934505	1.057998	-0.044341
	O336	O	0.580239	0.478044	0.385179
	H337	H	0.596924	0.471344	0.376200
	H338	H	0.597838	0.476701	0.391356
	O339	O	0.546192	0.543300	0.458724
	H340	H	0.550608	0.532993	0.450693
	H341	H	0.556060	0.547341	0.462242
	O342	O	-0.080572	1.020154	-0.073781
	H343	H	-0.084934	1.015759	-0.070069
	H344	H	-0.078976	1.026463	-0.080721
	O345	O	0.009641	-0.064980	-0.037309
	H346	H	0.002155	-0.054931	-0.036051
	H347	H	0.001448	-0.071098	-0.034036
	O348	O	0.602849	0.420330	0.418079
	H349	H	0.601774	0.418159	0.423596
	H350	H	0.600327	0.421407	0.440038
	O351	O	0.451349	0.340743	0.481255
	H352	H	0.449729	0.340646	0.481704
	H353	H	0.436224	0.333359	0.483205
	O354	O	0.460135	0.588214	0.515881
	H355	H	0.453042	0.580825	0.511939
	H356	H	0.448072	0.587797	0.528946
	O357	O	0.470074	0.498290	0.380295
	H358	H	0.465832	0.511832	0.381498
	H359	H	0.467871	0.499315	0.375895
	O360	O	0.048598	0.065601	0.069706
	H361	H	0.044117	0.064584	0.068364
	H362	H	0.054592	0.073829	0.072884
	O363	O	0.511212	0.535455	0.629049
	H364	H	0.508065	0.552681	0.640329
	H365	H	0.510400	0.532881	0.636356
	O366	O	0.012206	0.060945	0.974034
	H367	H	0.011716	0.061119	0.976789
	H368	H	0.015533	0.073425	0.971751
	O369	O	0.521359	0.407107	0.544875
	H370	H	0.524062	0.412615	0.543406
	H371	H	0.512838	0.398104	0.536637
