data_Molecule from HDF5

_cell_length_a		16.344869
_cell_length_b		16.329070
_cell_length_c		16.442390
_cell_angle_alpha	90.003542
_cell_angle_beta	89.843670
_cell_angle_gamma	89.978276
_symmetry_space_group_name_H-M	'P 1'
_symmetry_Int_Tables_number		1

loop_
	_symmetry_equiv_pos_as_xyz
	x,y,z

loop_
	_atom_site_label
	_atom_site_type_symbol
	_atom_site_fract_x
	_atom_site_fract_y
	_atom_site_fract_z
	H0	H	0.385432	0.850239	0.711313
	H1	H	0.597540	0.168461	0.715086
	H2	H	0.595337	0.849748	0.272061
	H3	H	0.381605	0.167150	0.268341
	H4	H	0.712780	0.402050	0.833069
	H5	H	0.712135	0.615065	0.149133
	H6	H	0.269946	0.613341	0.833482
	H7	H	0.267068	0.401156	0.150895
	H8	H	0.827963	0.729588	0.387959
	H9	H	0.148549	0.726541	0.593190
	H10	H	0.830195	0.287057	0.599686
	H11	H	0.147611	0.285741	0.384790
	H12	H	0.830798	0.401920	0.715553
	H13	H	0.147413	0.614871	0.712335
	H14	H	0.830905	0.618890	0.266874
	H15	H	0.148136	0.403019	0.270023
	H16	H	0.388547	0.727642	0.832343
	H17	H	0.598039	0.731857	0.149048
	H18	H	0.596438	0.286063	0.833411
	H19	H	0.382420	0.284780	0.150228
	H20	H	0.709322	0.849474	0.387277
	H21	H	0.712619	0.168047	0.599164
	H22	H	0.273076	0.847956	0.592718
	H23	H	0.266603	0.167648	0.385553
	H24	H	0.880919	0.351187	0.216382
	H25	H	0.095444	0.668350	0.211426
	H26	H	0.094226	0.348456	0.772305
	H27	H	0.886128	0.668885	0.774983
	H28	H	0.208835	0.905494	0.333570
	H29	H	0.210004	0.114764	0.651994
	H30	H	0.767581	0.115145	0.333338
	H31	H	0.767469	0.905612	0.651603
	H32	H	0.330013	0.229854	0.887700
	H33	H	0.649543	0.230288	0.098346
	H34	H	0.330742	0.789941	0.094017
	H35	H	0.650984	0.791304	0.888129
	H36	H	0.331078	0.903877	0.212403
	H37	H	0.648388	0.116731	0.214575
	H38	H	0.330189	0.116407	0.771259
	H39	H	0.648877	0.906199	0.770717
	H40	H	0.882954	0.232965	0.334238
	H41	H	0.097272	0.233548	0.649951
	H42	H	0.092454	0.788827	0.333547
	H43	H	0.884009	0.789746	0.652287
	H44	H	0.209778	0.347778	0.888468
	H45	H	0.209225	0.668324	0.094944
	H46	H	0.766705	0.350072	0.099981
	H47	H	0.771434	0.668055	0.889251
	H48	H	0.399522	0.125402	0.586628
	H49	H	0.579186	0.895921	0.581111
	H50	H	0.571465	0.122668	0.397834
	H51	H	0.406066	0.895728	0.399104
	H52	H	0.570067	0.423133	0.100032
	H53	H	0.585521	0.593074	0.877088
	H54	H	0.399840	0.601708	0.107267
	H55	H	0.396960	0.419002	0.877723
	H56	H	0.103147	0.601231	0.401294
	H57	H	0.873297	0.595910	0.588409
	H58	H	0.098924	0.427482	0.575372
	H59	H	0.877180	0.426267	0.404825
	H60	H	0.104752	0.425142	0.590609
	H61	H	0.872136	0.602615	0.584378
	H62	H	0.101444	0.598118	0.404659
	H63	H	0.875830	0.421942	0.403109
	H64	H	0.397793	0.596597	0.105801
	H65	H	0.574168	0.597584	0.880462
	H66	H	0.578569	0.413866	0.106474
	H67	H	0.401805	0.422831	0.880847
	H68	H	0.574940	0.120702	0.410142
	H69	H	0.574446	0.896496	0.583389
	H70	H	0.403487	0.123182	0.580020
	H71	H	0.398632	0.896442	0.408864
	H72	H	0.902605	0.623972	0.086424
	H73	H	0.071207	0.395625	0.085274
	H74	H	0.080450	0.622558	0.905189
	H75	H	0.896453	0.390946	0.901118
	H76	H	0.080384	0.916380	0.607747
	H77	H	0.079989	0.095814	0.379805
	H78	H	0.891918	0.097960	0.607638
	H79	H	0.899272	0.918349	0.379392
	H80	H	0.600662	0.093881	0.906121
	H81	H	0.376541	0.100739	0.077474
	H82	H	0.605607	0.918792	0.081151
	H83	H	0.377817	0.929258	0.901014
	H84	H	0.605048	0.920495	0.081820
	H85	H	0.381064	0.091064	0.076568
	H86	H	0.603423	0.094480	0.900271
	H87	H	0.370773	0.913447	0.893495
	H88	H	0.903069	0.088850	0.600702
	H89	H	0.074851	0.094591	0.382256
	H90	H	0.080655	0.919183	0.606654
	H91	H	0.898590	0.919268	0.378399
	H92	H	0.083522	0.624511	0.898945
	H93	H	0.077718	0.396391	0.073311
	H94	H	0.907192	0.619044	0.076180
	H95	H	0.907606	0.393812	0.899383
	H96	H	0.395463	0.125220	0.579485
	H97	H	0.575297	0.897652	0.578720
	H98	H	0.583353	0.125841	0.401549
	H99	H	0.394493	0.891984	0.398648
	H100	H	0.583237	0.427195	0.103573
	H101	H	0.583112	0.605567	0.874671
	H102	H	0.403226	0.597430	0.104690
	H103	H	0.403350	0.416747	0.879603
	H104	H	0.102208	0.596797	0.399793
	H105	H	0.874673	0.595815	0.580127
	H106	H	0.104503	0.412171	0.579748
	H107	H	0.877475	0.422541	0.407493
	H108	H	0.896089	0.623136	0.076094
	H109	H	0.084121	0.391701	0.084009
	H110	H	0.076771	0.622876	0.899140
	H111	H	0.902602	0.396338	0.909683
	H112	H	0.077737	0.917850	0.606251
	H113	H	0.076088	0.100158	0.379757
	H114	H	0.906829	0.104280	0.604649
	H115	H	0.899697	0.919403	0.378888
	H116	H	0.603512	0.099472	0.904313
	H117	H	0.375357	0.094179	0.085373
	H118	H	0.606200	0.919754	0.083557
	H119	H	0.376647	0.913560	0.911139
	C120	C	0.368026	0.018394	0.613163
	C121	C	0.610059	1.001441	0.613786
	C122	C	0.610113	0.017932	0.370973
	C123	C	0.367001	1.000028	0.369794
	C124	C	0.610859	0.387742	-0.000624
	C125	C	0.612727	0.630823	0.982155
	C126	C	0.368956	0.630197	0.000724
	C127	C	0.367768	0.386418	0.983834
	C128	C	-0.002915	0.631578	0.369668
	C129	C	0.979380	0.629907	0.614391
	C130	C	-0.002219	0.387944	0.614307
	C131	C	0.981311	0.389446	0.371694
	C132	C	0.868173	0.517314	0.113311
	C133	C	0.110162	0.500199	0.112774
	C134	C	0.111792	0.517166	0.870119
	C135	C	0.869835	0.499325	0.871921
	C136	C	0.110174	0.886980	0.501245
	C137	C	0.110497	0.130548	0.484567
	C138	C	0.867907	0.130695	0.500231
	C139	C	0.866451	0.887071	0.483961
	C140	C	0.497822	0.129774	0.870809
	C141	C	0.481843	0.129579	0.113048
	C142	C	0.499657	0.887413	0.113755
	C143	C	0.481173	0.888267	0.870286
	C144	C	0.366758	0.897828	0.671982
	C145	C	0.614492	0.120728	0.674913
	C146	C	0.613325	0.897750	0.311310
	C147	C	0.363866	0.119515	0.308969
	C148	C	0.672362	0.384469	0.880681
	C149	C	0.672367	0.633231	0.101579
	C150	C	0.309808	0.631747	0.881104
	C151	C	0.306998	0.383218	0.103055
	C152	C	0.876464	0.690799	0.368629
	C153	C	0.100232	0.687937	0.613353
	C154	C	0.878147	0.327036	0.617111
	C155	C	0.100159	0.327189	0.367541
	C156	C	0.878342	0.384187	0.675172
	C157	C	0.099579	0.632248	0.672585
	C158	C	0.877669	0.635163	0.308747
	C159	C	0.100527	0.385623	0.310200
	C160	C	0.368639	0.689034	0.880658
	C161	C	0.615403	0.691471	0.101499
	C162	C	0.614200	0.326739	0.880615
	C163	C	0.364977	0.325434	0.102729
	C164	C	0.669827	0.897617	0.369217
	C165	C	0.671906	0.120665	0.616974
	C166	C	0.310946	0.896724	0.612942
	C167	C	0.306328	0.119778	0.367253
	C168	C	0.863442	0.398719	0.175907
	C169	C	0.113041	0.620356	0.171728
	C170	C	0.112643	0.396494	0.811717
	C171	C	0.867749	0.620387	0.813608
	C172	C	0.169271	0.886462	0.381335
	C173	C	0.170661	0.133003	0.603704
	C174	C	0.807505	0.133701	0.381043
	C175	C	0.806907	0.886473	0.603737
	C176	C	0.378002	0.190401	0.869211
	C177	C	0.601343	0.190663	0.115884
	C178	C	0.379136	0.828435	0.114038
	C179	C	0.602688	0.830421	0.869184
	C180	C	0.379289	0.885525	0.172722
	C181	C	0.600875	0.133884	0.174207
	C182	C	0.377768	0.133473	0.811415
	C183	C	0.601635	0.887734	0.810983
	C184	C	0.865359	0.191964	0.381373
	C185	C	0.114262	0.192342	0.602823
	C186	C	0.111071	0.828468	0.381294
	C187	C	0.864896	0.828608	0.604085
	C188	C	0.170193	0.396086	0.869703
	C189	C	0.170152	0.620124	0.114003
	C190	C	0.806774	0.398054	0.117551
	C191	C	0.810974	0.620201	0.870844
	C192	C	0.392332	0.102705	0.589081
	C193	C	0.583910	0.918150	0.588324
	C194	C	0.584194	0.101325	0.396105
	C195	C	0.392576	0.916602	0.394793
	C196	C	0.584630	0.414024	0.081864
	C197	C	0.587943	0.605860	0.899119
	C198	C	0.393292	0.605648	0.084108
	C199	C	0.393290	0.412190	0.900990
	C200	C	0.080342	0.606042	0.394729
	C201	C	0.895119	0.605239	0.590904
	C202	C	0.081091	0.414101	0.588832
	C203	C	0.898474	0.416019	0.397624
	C204	C	0.894528	0.600400	0.087104
	C205	C	0.084785	0.416407	0.088055
	C206	C	0.087601	0.601148	0.894196
	C207	C	0.894888	0.415684	0.896453
	C208	C	0.086411	0.910903	0.584969
	C209	C	0.084488	0.104385	0.402059
	C210	C	0.893314	0.104613	0.582782
	C211	C	0.891633	0.911861	0.400456
	C212	C	0.580761	0.103573	0.895996
	C213	C	0.398997	0.103097	0.087229
	C214	C	0.583814	0.912445	0.089299
	C215	C	0.397086	0.911832	0.894807
	Zn216	Zn	0.488540	0.009826	0.741840
	Zn217	Zn	0.490387	0.009105	0.242232
	Zn218	Zn	0.740677	0.508265	-0.008560
	Zn219	Zn	0.239409	0.508537	-0.007628
	Zn220	Zn	-0.012261	0.758127	0.492959
	Zn221	Zn	-0.011039	0.260464	0.492685
	Zn222	Zn	-0.011373	0.508992	0.742910
	Zn223	Zn	-0.010805	0.509731	0.241330
	Zn224	Zn	0.491323	0.759533	-0.008768
	Zn225	Zn	0.490489	0.258161	-0.007977
	Zn226	Zn	0.737689	0.009354	0.491841
	Zn227	Zn	0.239571	0.009100	0.493228
	N228	N	0.401159	0.974676	0.672381
	N229	N	0.576480	0.045547	0.672845
	N230	N	0.576669	0.973567	0.312326
	N231	N	0.400769	0.043909	0.310325
	N232	N	0.670565	0.421458	0.955866
	N233	N	0.670842	0.596136	0.026565
	N234	N	0.309772	0.596003	0.956840
	N235	N	0.308615	0.420635	0.028173
	N236	N	0.951804	0.688833	0.405621
	N237	N	0.024203	0.686796	0.578021
	N238	N	0.953713	0.329112	0.580131
	N239	N	0.025146	0.329494	0.405058
	N240	N	0.953730	0.421127	0.673616
	N241	N	0.023299	0.596799	0.673235
	N242	N	0.953621	0.599188	0.309097
	N243	N	0.025523	0.423705	0.312741
	N244	N	0.404490	0.688330	0.956119
	N245	N	0.578812	0.690110	0.026312
	N246	N	0.576866	0.328710	0.955417
	N247	N	0.401923	0.327169	0.027592
	N248	N	0.667915	0.973327	0.405525
	N249	N	0.668928	0.045706	0.579380
	N250	N	0.311425	0.972868	0.577470
	N251	N	0.308212	0.044498	0.404446
	N252	N	0.900747	0.474037	0.173578
	N253	N	0.076784	0.544533	0.171297
	N254	N	0.077343	0.472859	0.811664
	N255	N	0.903640	0.544310	0.814070
	N256	N	0.168866	0.922021	0.456935
	N257	N	0.168408	0.095262	0.529006
	N258	N	0.808890	0.096219	0.455815
	N259	N	0.807927	0.922065	0.527847
	N260	N	0.453732	0.188374	0.905544
	N261	N	0.526182	0.188212	0.078740
	N262	N	0.455251	0.829453	0.078312
	N263	N	0.526833	0.830522	0.905420
	N264	N	0.455418	0.921025	0.172732
	N265	N	0.525547	0.096493	0.172528
	N266	N	0.453274	0.096702	0.812092
	N267	N	0.525043	0.922506	0.811359
	N268	N	0.901850	0.190294	0.456589
	N269	N	0.077696	0.191097	0.527737
	N270	N	0.074918	0.828737	0.456799
	N271	N	0.900853	0.828777	0.528448
	N272	N	0.170005	0.472215	0.905186
	N273	N	0.168492	0.544156	0.078127
	N274	N	0.809610	0.472912	0.079479
	N275	N	0.811838	0.543908	0.906176
	O276	O	0.639733	0.673709	0.407560
	H277	H	0.637896	0.668468	0.440721
	H278	H	0.669154	0.681620	0.417327
	O279	O	0.670635	0.574896	0.406275
	H280	H	0.659391	0.588982	0.408481
	H281	H	0.664106	0.568840	0.428149
	O282	O	0.698143	0.608773	0.591549
	H283	H	0.694765	0.607090	0.571019
	H284	H	0.705819	0.610413	0.575182
	O285	O	1.064105	0.965544	0.120433
	H286	H	1.056214	0.955174	0.119235
	H287	H	1.054760	0.963564	0.132328
	O288	O	0.706196	0.294659	0.467071
	H289	H	0.709658	0.293046	0.430413
	H290	H	0.725157	0.279530	0.463677
	O291	O	0.461690	0.717990	0.275934
	H292	H	0.470214	0.722203	0.270845
	H293	H	0.451100	0.732022	0.264441
	O294	O	0.896179	0.994857	0.831514
	H295	H	0.904895	0.992934	0.834510
	H296	H	0.894720	0.999574	0.823431
	O297	O	0.697791	0.495308	0.284613
	H298	H	0.714096	0.502878	0.287619
	H299	H	0.697397	0.510091	0.272340
	O300	O	0.653677	0.430022	0.529152
	H301	H	0.661236	0.438333	0.532202
	H302	H	0.659381	0.432060	0.506220
	O303	O	0.282813	0.616344	0.286882
	H304	H	0.277146	0.613982	0.301256
	H305	H	0.268003	0.620849	0.276056
	O306	O	0.109294	-0.124385	1.115761
	H307	H	0.100687	-0.120435	1.114966
	H308	H	0.097827	-0.123483	1.107740
	O309	O	1.193840	-0.017041	-0.217405
	H310	H	1.190994	-0.027749	-0.206453
	H311	H	1.219334	-0.024221	-0.235096
	O312	O	0.795691	-0.054824	0.037624
	H313	H	0.802302	-0.060559	0.040493
	H314	H	0.795110	-0.041820	0.026430
	O315	O	0.411298	0.293960	0.487015
	H316	H	0.406291	0.292352	0.489618
	H317	H	0.414389	0.299075	0.484472
	O318	O	0.128873	0.058371	0.044964
	H319	H	0.103636	0.069717	0.052352
	H320	H	0.123442	0.064669	0.054983
	O321	O	0.382010	0.525501	0.657904
	H322	H	0.365959	0.509820	0.672749
	H323	H	0.400582	0.515336	0.645542
	O324	O	1.003617	-0.037155	0.898684
	H325	H	1.001579	-0.057077	0.899204
	H326	H	1.014336	-0.040171	0.896449
	O327	O	0.481557	0.511275	0.286417
	H328	H	0.480930	0.513525	0.288291
	H329	H	0.467911	0.529998	0.284997
	O330	O	-0.151895	1.209257	1.001177
	H331	H	-0.152152	1.215491	0.988714
	H332	H	-0.163075	1.211879	0.983820
	O333	O	0.088958	1.019464	0.038326
	H334	H	0.083623	1.005280	0.019527
	H335	H	0.105744	1.017837	0.038179
	O336	O	0.995137	1.158400	0.064462
	H337	H	1.002199	1.165195	0.057965
	H338	H	0.992546	1.155146	0.077776
	O339	O	-0.711754	1.501830	1.375552
	H340	H	-0.725644	1.498019	1.368338
	H341	H	-0.718436	1.515205	1.369899
	O342	O	0.503080	0.700462	0.689179
	H343	H	0.504761	0.696653	0.700427
	H344	H	0.491502	0.692656	0.685885
	O345	O	-0.513347	-0.608371	1.694266
	H346	H	-0.518896	-0.620230	1.676952
	H347	H	-0.493897	-0.612167	1.702917
	O348	O	0.626296	0.433551	0.644942
	H349	H	0.630541	0.449228	0.646297
	H350	H	0.635260	0.431789	0.635829
	O351	O	1.162673	0.838367	0.023430
	H352	H	1.156975	0.851740	0.021751
	H353	H	1.176663	0.833081	0.008208
	O354	O	0.862813	0.992969	0.932683
	H355	H	0.869183	0.990619	0.950935
	H356	H	0.857969	0.995832	0.923139
	O357	O	0.056886	0.208447	0.173330
	H358	H	0.065763	0.204108	0.151909
	H359	H	0.059301	0.212271	0.187507
	O360	O	0.998857	-0.155515	-0.202888
	H361	H	0.998599	-0.160556	-0.215233
	H362	H	1.018739	-0.163361	-0.201100
	O363	O	1.484762	-0.694998	0.327434
	H364	H	1.490439	-0.701970	0.317379
	H365	H	1.464804	-0.699499	0.325759
	O366	O	0.369719	0.455010	1.459777
	H367	H	0.363278	0.486246	1.452361
	H368	H	0.358500	0.449638	1.447870
	O369	O	1.190473	0.121859	1.032538
	H370	H	1.171684	0.113704	1.055779
	H371	H	1.208197	0.136149	1.045934
	O372	O	0.360930	0.690434	0.625171
	H373	H	0.363659	0.689510	0.614674
	H374	H	0.362780	0.673740	0.624946
	O375	O	-0.154611	-0.069804	1.126688
	H376	H	-0.147623	-0.068601	1.106696
	H377	H	-0.161890	-0.039358	1.132050
	O378	O	0.275188	0.388160	0.509824
	H379	H	0.267719	0.380542	0.519658
	H380	H	0.271447	0.376171	0.525039
	O381	O	-0.181936	1.068097	-0.034482
	H382	H	-0.173750	1.077942	-0.026402
	H383	H	-0.175839	1.074048	-0.036207
	O384	O	0.665340	0.334668	0.312852
	H385	H	0.676586	0.387875	0.301377
	H386	H	0.626030	0.325377	0.312436
	O387	O	0.663997	0.687516	0.682498
	H388	H	0.638576	0.689490	0.695411
	H389	H	0.663193	0.681662	0.664721
	O390	O	0.399358	0.454639	0.431486
	H391	H	0.399715	0.460823	0.437089
	H392	H	0.392176	0.474364	0.415765
	O393	O	0.886907	0.171451	0.818533
	H394	H	0.897211	0.172205	0.817966
	H395	H	0.890714	0.170150	0.805522
	O396	O	1.136111	-0.140754	-0.031091
	H397	H	1.142264	-0.128542	-0.031701
	H398	H	1.140955	-0.133626	-0.020439
	O399	O	0.292512	0.417357	0.684651
	H400	H	0.286796	0.429958	0.708633
	H401	H	0.306176	0.399754	0.692813
	O402	O	1.160683	1.150058	0.084856
	H403	H	1.150592	1.147413	0.088497
	H404	H	1.166308	1.120952	0.079751
	O405	O	0.408100	0.494793	0.421826
	H406	H	0.414211	0.471924	0.427977
	H407	H	0.426265	0.487954	0.433695
	O408	O	0.388034	0.331038	0.685937
	H409	H	0.413655	0.317234	0.686471
	H410	H	0.396615	0.331208	0.666978
	O411	O	0.981463	1.136450	0.795972
	H412	H	0.980863	1.147786	0.789293
	H413	H	1.004184	1.128397	0.794726
	O414	O	0.534407	0.706087	0.467315
	H415	H	0.531793	0.714145	0.458689
	H416	H	0.534124	0.695559	0.478304
	O417	O	-0.090723	0.812679	1.175838
	H418	H	-0.101741	0.797052	1.168555
	H419	H	-0.097016	0.835529	1.185207
	O420	O	-0.041238	0.933157	1.158753
	H421	H	-0.052318	0.923665	1.152818
	H422	H	-0.040519	0.924335	1.166367
	O423	O	0.149264	0.814779	-0.206734
	H424	H	0.163960	0.800057	-0.232532
	H425	H	0.149161	0.812496	-0.186109
	O426	O	0.295111	0.707828	0.471617
	H427	H	0.284103	0.707635	0.467967
	H428	H	0.306174	0.707248	0.466509
	O429	O	0.567594	0.487181	0.633250
	H430	H	0.577545	0.485139	0.635711
	H431	H	0.569061	0.475045	0.620220
	O432	O	0.392059	0.586089	0.408535
	H433	H	0.424093	0.599241	0.408785
	H434	H	0.397127	0.543969	0.399972
	O435	O	-0.151284	0.071692	0.055476
	H436	H	-0.153831	0.073450	0.066393
	H437	H	-0.159106	0.078943	0.044464
	O438	O	-0.146801	0.855806	0.936311
	H439	H	-0.141583	0.858380	0.921654
	H440	H	-0.142874	0.839134	0.937756
	O441	O	0.941102	0.091419	1.103065
	H442	H	0.934119	0.098468	1.096196
	H443	H	0.943073	0.112443	1.096498
