data_Molecule from HDF5

_cell_length_a		16.739739
_cell_length_b		16.583865
_cell_length_c		16.556620
_cell_angle_alpha	89.871403
_cell_angle_beta	90.130156
_cell_angle_gamma	90.140525
_symmetry_space_group_name_H-M	'P 1'
_symmetry_Int_Tables_number		1

loop_
	_symmetry_equiv_pos_as_xyz
	x,y,z

loop_
	_atom_site_label
	_atom_site_type_symbol
	_atom_site_fract_x
	_atom_site_fract_y
	_atom_site_fract_z
	H0	H	0.391250	0.838199	0.724985
	H1	H	0.602855	0.147210	0.725903
	H2	H	0.595408	0.835018	0.288044
	H3	H	0.392819	0.150329	0.283737
	H4	H	0.717189	0.387781	0.849615
	H5	H	0.716667	0.599622	0.159988
	H6	H	0.272623	0.598958	0.849827
	H7	H	0.273208	0.384913	0.159480
	H8	H	0.842065	0.717423	0.397501
	H9	H	0.149827	0.716110	0.611601
	H10	H	0.840572	0.272049	0.608281
	H11	H	0.147616	0.270040	0.397034
	H12	H	0.839437	0.390940	0.722952
	H13	H	0.149757	0.598711	0.726602
	H14	H	0.842318	0.601965	0.280886
	H15	H	0.147729	0.387088	0.280742
	H16	H	0.390727	0.712987	0.848639
	H17	H	0.597403	0.711774	0.162145
	H18	H	0.601317	0.271850	0.848982
	H19	H	0.391310	0.271573	0.160306
	H20	H	0.714960	0.836343	0.400289
	H21	H	0.719392	0.147553	0.610549
	H22	H	0.271936	0.840591	0.612022
	H23	H	0.275072	0.149403	0.397632
	H24	H	0.889311	0.338691	0.227318
	H25	H	0.100325	0.648578	0.225476
	H26	H	0.096392	0.336222	0.785800
	H27	H	0.893567	0.650745	0.787077
	H28	H	0.216846	0.888883	0.349171
	H29	H	0.220618	0.102871	0.658996
	H30	H	0.774684	0.099280	0.348152
	H31	H	0.773994	0.886917	0.658952
	H32	H	0.342652	0.215927	0.896622
	H33	H	0.651764	0.213441	0.107347
	H34	H	0.339929	0.773058	0.107728
	H35	H	0.651169	0.772773	0.901867
	H36	H	0.339292	0.892065	0.222521
	H37	H	0.652342	0.095937	0.223093
	H38	H	0.342280	0.097487	0.781752
	H39	H	0.650190	0.886974	0.782759
	H40	H	0.891597	0.215055	0.348145
	H41	H	0.101794	0.215006	0.660124
	H42	H	0.099794	0.773352	0.349080
	H43	H	0.892545	0.773725	0.660827
	H44	H	0.215055	0.336659	0.899105
	H45	H	0.219384	0.646201	0.112664
	H46	H	0.770851	0.339298	0.112756
	H47	H	0.777153	0.650851	0.902384
	H48	H	0.411408	0.104169	0.591509
	H49	H	0.578371	0.885197	0.585808
	H50	H	0.587919	0.106241	0.413643
	H51	H	0.405752	0.878882	0.408053
	H52	H	0.586064	0.400530	0.118120
	H53	H	0.584220	0.582500	0.892339
	H54	H	0.412462	0.580552	0.114616
	H55	H	0.406704	0.412475	0.896332
	H56	H	0.105671	0.579887	0.414825
	H57	H	0.887429	0.576220	0.593134
	H58	H	0.106264	0.404344	0.594740
	H59	H	0.886299	0.408442	0.417398
	H60	H	0.105576	0.404332	0.594600
	H61	H	0.880156	0.586598	0.602876
	H62	H	0.106525	0.585566	0.416059
	H63	H	0.884357	0.404663	0.416201
	H64	H	0.403534	0.587719	0.120467
	H65	H	0.584671	0.584743	0.891975
	H66	H	0.587209	0.411984	0.115303
	H67	H	0.410291	0.399853	0.891549
	H68	H	0.587474	0.105567	0.414127
	H69	H	0.592734	0.879909	0.587663
	H70	H	0.407964	0.104815	0.589243
	H71	H	0.410336	0.885569	0.419158
	H72	H	0.906263	0.603352	0.088217
	H73	H	0.086519	0.378943	0.095452
	H74	H	0.084890	0.603037	0.921931
	H75	H	0.899863	0.380677	0.917101
	H76	H	0.086271	0.912020	0.616011
	H77	H	0.089059	0.080572	0.392062
	H78	H	0.908258	0.078705	0.614814
	H79	H	0.901542	0.903252	0.389615
	H80	H	0.605560	0.087378	0.922782
	H81	H	0.385199	0.084017	0.092592
	H82	H	0.606009	0.904567	0.094753
	H83	H	0.387585	0.901547	0.923152
	H84	H	0.608746	0.901510	0.099560
	H85	H	0.385069	0.081970	0.093289
	H86	H	0.603339	0.073772	0.916612
	H87	H	0.386879	0.911966	0.911290
	H88	H	0.908517	0.083214	0.616837
	H89	H	0.081510	0.077913	0.395618
	H90	H	0.080115	0.904764	0.615249
	H91	H	0.907005	0.909405	0.393574
	H92	H	0.088682	0.606760	0.913694
	H93	H	0.075683	0.382798	0.095115
	H94	H	0.901127	0.608333	0.094293
	H95	H	0.903595	0.379635	0.911630
	H96	H	0.408601	0.106190	0.593039
	H97	H	0.582972	0.879791	0.599505
	H98	H	0.588199	0.105787	0.414439
	H99	H	0.398300	0.880230	0.418946
	H100	H	0.576732	0.406314	0.113748
	H101	H	0.586277	0.582925	0.892206
	H102	H	0.400931	0.575727	0.116560
	H103	H	0.397430	0.404787	0.889908
	H104	H	0.104688	0.582433	0.419900
	H105	H	0.883791	0.591050	0.587899
	H106	H	0.106342	0.404668	0.594849
	H107	H	0.885515	0.405279	0.419961
	H108	H	0.909784	0.604934	0.096951
	H109	H	0.082490	0.383754	0.085862
	H110	H	0.079547	0.603926	0.913641
	H111	H	0.906148	0.382871	0.917249
	H112	H	0.088765	0.903081	0.618641
	H113	H	0.082478	0.085960	0.392574
	H114	H	0.904615	0.081064	0.616618
	H115	H	0.909984	0.900840	0.391409
	H116	H	0.610779	0.084888	0.908734
	H117	H	0.384996	0.083193	0.094632
	H118	H	0.607639	0.898447	0.094389
	H119	H	0.381546	0.897101	0.909312
	C120	C	0.375611	0.002662	0.624847
	C121	C	0.617535	0.984089	0.624497
	C122	C	0.617528	0.001912	0.383020
	C123	C	0.374290	0.985216	0.383117
	C124	C	0.616035	0.373337	0.012754
	C125	C	0.616275	0.614810	0.996004
	C126	C	0.373795	0.613452	0.013769
	C127	C	0.373599	0.371890	0.995784
	C128	C	0.004058	0.615604	0.383734
	C129	C	0.986349	0.615923	0.626956
	C130	C	0.003732	0.372313	0.626162
	C131	C	0.986577	0.372981	0.383892
	C132	C	0.872950	0.502883	0.126398
	C133	C	0.115560	0.484133	0.125598
	C134	C	0.115677	0.501119	0.884258
	C135	C	0.873147	0.484777	0.884030
	C136	C	0.116951	0.873968	0.513304
	C137	C	0.117561	0.115335	0.495955
	C138	C	0.875007	0.113901	0.512674
	C139	C	0.874630	0.872263	0.495084
	C140	C	0.504843	0.114915	0.882452
	C141	C	0.487802	0.114657	0.125520
	C142	C	0.504101	0.870934	0.127024
	C143	C	0.487602	0.871529	0.883082
	C144	C	0.372874	0.885008	0.684958
	C145	C	0.620650	0.100809	0.685444
	C146	C	0.615597	0.882680	0.326324
	C147	C	0.373938	0.103193	0.323668
	C148	C	0.676627	0.370083	0.896024
	C149	C	0.675805	0.616921	0.113725
	C150	C	0.313287	0.616623	0.896390
	C151	C	0.313591	0.367753	0.112882
	C152	C	0.888450	0.676768	0.380177
	C153	C	0.103189	0.675735	0.629448
	C154	C	0.886884	0.312532	0.626939
	C155	C	0.101632	0.311009	0.379348
	C156	C	0.886133	0.371423	0.683898
	C157	C	0.103220	0.616961	0.686451
	C158	C	0.888360	0.619313	0.322100
	C159	C	0.101653	0.369304	0.321797
	C160	C	0.372060	0.673233	0.895840
	C161	C	0.616680	0.672794	0.114637
	C162	C	0.618810	0.312697	0.895456
	C163	C	0.372383	0.311508	0.113126
	C164	C	0.675073	0.883384	0.382055
	C165	C	0.678596	0.100835	0.628186
	C166	C	0.313678	0.886297	0.629125
	C167	C	0.315382	0.102814	0.380290
	C168	C	0.870371	0.385486	0.187497
	C169	C	0.118797	0.601562	0.185846
	C170	C	0.116092	0.383450	0.824889
	C171	C	0.873761	0.603398	0.825970
	C172	C	0.176561	0.871051	0.395937
	C173	C	0.179663	0.120049	0.612273
	C174	C	0.815098	0.117074	0.395025
	C175	C	0.814526	0.869168	0.612470
	C176	C	0.389001	0.175478	0.878650
	C177	C	0.605068	0.173689	0.126475
	C178	C	0.386373	0.813284	0.126814
	C179	C	0.604206	0.812024	0.882329
	C180	C	0.386202	0.872121	0.183854
	C181	C	0.605247	0.115366	0.184079
	C182	C	0.388888	0.116641	0.821662
	C183	C	0.603977	0.868982	0.823289
	C184	C	0.873018	0.174638	0.395037
	C185	C	0.120549	0.175784	0.613025
	C186	C	0.118715	0.813403	0.396034
	C187	C	0.873328	0.813031	0.613465
	C188	C	0.174874	0.383743	0.881570
	C189	C	0.177904	0.600192	0.129851
	C190	C	0.812050	0.385701	0.130228
	C191	C	0.815958	0.603438	0.883241
	C192	C	0.401702	0.083896	0.598643
	C193	C	0.591893	0.902819	0.598443
	C194	C	0.594548	0.084313	0.407045
	C195	C	0.398157	0.903080	0.408052
	C196	C	0.590492	0.398822	0.094294
	C197	C	0.592088	0.590367	0.913575
	C198	C	0.398613	0.588395	0.095768
	C199	C	0.397954	0.398033	0.913854
	C200	C	0.084838	0.589963	0.409622
	C201	C	0.905000	0.591650	0.601773
	C202	C	0.084979	0.397213	0.601777
	C203	C	0.906107	0.398895	0.410353
	C204	C	0.898276	0.584406	0.100403
	C205	C	0.089175	0.403024	0.099624
	C206	C	0.091329	0.583359	0.909361
	C207	C	0.896403	0.402477	0.908356
	C208	C	0.092214	0.899415	0.595228
	C209	C	0.091590	0.089040	0.414575
	C210	C	0.899907	0.088321	0.594641
	C211	C	0.899289	0.897407	0.412973
	C212	C	0.585487	0.089476	0.908700
	C213	C	0.406523	0.090262	0.100699
	C214	C	0.586097	0.894644	0.103187
	C215	C	0.406445	0.896300	0.907436
	Zn216	Zn	0.496554	-0.007000	0.753274
	Zn217	Zn	0.495979	-0.006544	0.254893
	Zn218	Zn	0.744991	0.493980	0.004628
	Zn219	Zn	0.244846	0.492179	0.004746
	Zn220	Zn	-0.003983	0.744988	0.504762
	Zn221	Zn	-0.004269	0.242847	0.505035
	Zn222	Zn	-0.005536	0.493303	0.755734
	Zn223	Zn	-0.005360	0.494340	0.254315
	Zn224	Zn	0.495025	0.742405	0.005154
	Zn225	Zn	0.496052	0.244105	0.004036
	Zn226	Zn	0.746428	-0.007240	0.504057
	Zn227	Zn	0.246112	-0.005176	0.504648
	N228	N	0.410686	0.958519	0.682553
	N229	N	0.583471	0.027040	0.683467
	N230	N	0.580598	0.957335	0.326566
	N231	N	0.409930	0.028923	0.325184
	N232	N	0.674971	0.407199	0.970022
	N233	N	0.675847	0.581610	0.038859
	N234	N	0.314133	0.580283	0.970784
	N235	N	0.314118	0.404571	0.038666
	N236	N	0.961367	0.674573	0.418025
	N237	N	0.029429	0.675497	0.593287
	N238	N	0.960968	0.312708	0.592054
	N239	N	0.029037	0.313209	0.417589
	N240	N	0.959772	0.407900	0.683695
	N241	N	0.029460	0.580585	0.685361
	N242	N	0.961292	0.581794	0.324219
	N243	N	0.028915	0.407212	0.324644
	N244	N	0.409044	0.671644	0.969937
	N245	N	0.580457	0.671754	0.040345
	N246	N	0.581831	0.314537	0.969150
	N247	N	0.409016	0.313789	0.039174
	N248	N	0.676691	0.958600	0.416466
	N249	N	0.677015	0.027004	0.591092
	N250	N	0.315229	0.960412	0.592388
	N251	N	0.315568	0.028376	0.416633
	N252	N	0.907445	0.459450	0.185411
	N253	N	0.080654	0.528286	0.183441
	N254	N	0.080046	0.457818	0.826177
	N255	N	0.908465	0.528556	0.826036
	N256	N	0.175811	0.907735	0.470106
	N257	N	0.178206	0.083288	0.538246
	N258	N	0.815928	0.080007	0.469334
	N259	N	0.815055	0.905120	0.537763
	N260	N	0.462398	0.174807	0.915576
	N261	N	0.531036	0.173731	0.090899
	N262	N	0.460860	0.812360	0.092289
	N263	N	0.530758	0.813398	0.918815
	N264	N	0.460618	0.906931	0.184309
	N265	N	0.531216	0.079690	0.183971
	N266	N	0.462141	0.079883	0.823731
	N267	N	0.530359	0.905215	0.823396
	N268	N	0.909637	0.172593	0.469237
	N269	N	0.082665	0.173299	0.539502
	N270	N	0.082333	0.814961	0.470193
	N271	N	0.909806	0.814535	0.539336
	N272	N	0.174662	0.458198	0.917613
	N273	N	0.176192	0.526120	0.093156
	N274	N	0.813542	0.459744	0.093156
	N275	N	0.814989	0.528467	0.918221
	O276	O	-0.224172	1.037478	-0.093868
	H277	H	-0.212258	1.055275	-0.075069
	H278	H	-0.242272	1.046148	-0.108584
	O279	O	0.276168	0.522825	0.287352
	H280	H	0.257974	0.518731	0.275339
	H281	H	0.271801	0.541526	0.279077
	O282	O	0.917222	0.044655	0.808463
	H283	H	0.919270	0.022616	0.815998
	H284	H	0.902740	0.030661	0.804645
	O285	O	0.573835	0.625546	0.589679
	H286	H	0.583493	0.614825	0.585830
	H287	H	0.582615	0.640012	0.601108
	O288	O	0.687487	0.680974	0.312653
	H289	H	0.666518	0.659679	0.323947
	H290	H	0.679246	0.661950	0.333963
	O291	O	0.637132	0.616581	0.612758
	H292	H	0.624940	0.612616	0.595971
	H293	H	0.648898	0.623815	0.617288
	O294	O	1.190902	0.180792	0.814026
	H295	H	1.179426	0.167477	0.845975
	H296	H	1.168366	0.151093	0.816930
	O297	O	0.670254	0.538322	0.443245
	H298	H	0.675996	0.534183	0.434807
	H299	H	0.658416	0.533132	0.444200
	O300	O	0.038375	0.199297	1.212076
	H301	H	0.013462	0.195783	1.199171
	H302	H	0.021303	0.202019	1.219194
	O303	O	0.468375	0.270799	0.723916
	H304	H	0.456609	0.262664	0.738101
	H305	H	0.460331	0.275161	0.740732
	O306	O	0.555022	0.686342	0.419070
	H307	H	0.544415	0.671310	0.404043
	H308	H	0.566548	0.684467	0.426484
	O309	O	0.502639	0.489160	0.729315
	H310	H	0.513514	0.490008	0.733615
	H311	H	0.512638	0.493348	0.732715
	O312	O	0.790536	0.784009	0.218919
	H313	H	0.782436	0.778181	0.164309
	H314	H	0.759556	0.751039	0.244985
	O315	O	0.785629	0.874787	0.868172
	H316	H	0.781225	0.890253	0.875185
	H317	H	0.802791	0.889192	0.886283
	O318	O	0.731375	1.218991	0.274348
	H319	H	0.752111	1.200881	0.250165
	H320	H	0.717572	1.216613	0.289903
	O321	O	0.192358	0.807671	1.196952
	H322	H	0.176172	0.822934	1.175666
	H323	H	0.175113	0.831114	1.183581
	O324	O	0.834278	1.037040	0.126256
	H325	H	0.818188	1.026311	0.146737
	H326	H	0.850075	1.050763	0.126546
	O327	O	-0.115252	-0.217420	1.142119
	H328	H	-0.129747	-0.210813	1.137575
	H329	H	-0.129081	-0.215054	1.144453
	O330	O	0.556203	0.426362	0.492836
	H331	H	0.546142	0.427341	0.490213
	H332	H	0.565025	0.430127	0.502721
	O333	O	0.499006	0.623024	0.653960
	H334	H	0.497015	0.630741	0.649306
	H335	H	0.493969	0.622666	0.664301
	O336	O	0.718312	0.522213	0.729115
	H337	H	0.746092	0.529562	0.752498
	H338	H	0.715070	0.561111	0.723102
	O339	O	1.211274	-0.047215	0.793419
	H340	H	1.213795	-0.033942	0.790513
	H341	H	1.205177	-0.023530	0.788012
	O342	O	0.049597	-0.072133	0.014712
	H343	H	0.032630	-0.061573	0.015563
	H344	H	0.060349	-0.062044	0.017981
	O345	O	0.218928	1.155024	0.993740
	H346	H	0.206525	1.145201	1.023036
	H347	H	0.234715	1.175866	1.006234
	O348	O	0.215410	0.028169	0.218464
	H349	H	0.214543	0.052123	0.225998
	H350	H	0.231693	0.053238	0.238214
	O351	O	0.926160	0.800385	-0.070269
	H352	H	0.943558	0.788149	-0.099151
	H353	H	0.945837	0.803541	-0.050758
	O354	O	-0.004272	-0.094335	1.226019
	H355	H	-0.008217	-0.102019	1.229688
	H356	H	-0.017667	-0.095366	1.232661
	O357	O	0.712966	0.279664	0.478061
	H358	H	0.722700	0.273728	0.473942
	H359	H	0.712331	0.271628	0.478017
	O360	O	0.306936	0.685836	0.691752
	H361	H	0.324990	0.675087	0.667627
	H362	H	0.321713	0.661524	0.676329
	O363	O	-0.046702	0.212632	-0.219385
	H364	H	-0.060020	0.219582	-0.225944
	H365	H	-0.033935	0.219626	-0.230120
	O366	O	0.621924	0.473884	0.627121
	H367	H	0.621480	0.478618	0.636897
	H368	H	0.628940	0.473944	0.631516
	O369	O	0.796306	-0.044339	0.207887
	H370	H	0.792563	-0.078909	0.217413
	H371	H	0.781396	-0.059226	0.227947
	O372	O	0.790161	0.860853	0.022636
	H373	H	0.788643	0.870194	-0.005708
	H374	H	0.796314	0.873883	0.023800
	O375	O	1.060230	0.121919	0.124089
	H376	H	1.066683	0.117964	0.130216
	H377	H	1.049214	0.121149	0.133842
	O378	O	0.585942	0.474659	0.282832
	H379	H	0.591324	0.482737	0.283997
	H380	H	0.592620	0.470069	0.302071
	O381	O	-0.022937	0.943556	1.032604
	H382	H	-0.015158	0.946904	1.043371
	H383	H	-0.023286	0.930602	1.036922
	O384	O	1.079397	-0.141628	0.873860
	H385	H	1.078482	-0.157462	0.874435
	H386	H	1.089720	-0.158128	0.855426
	O387	O	1.051430	1.114067	-0.182329
	H388	H	1.039179	1.129487	-0.163560
	H389	H	1.040266	1.085749	-0.185378
	O390	O	0.556460	0.262910	0.570040
	H391	H	0.539172	0.264051	0.564178
	H392	H	0.542681	0.267090	0.579074
	O393	O	0.298988	0.303983	0.316390
	H394	H	0.303126	0.315975	0.353461
	H395	H	0.334127	0.325733	0.315428
	O396	O	0.286769	0.287777	0.715779
	H397	H	0.267603	0.272453	0.732013
	H398	H	0.285684	0.275105	0.711624
	O399	O	0.206013	-0.219595	0.795530
	H400	H	0.228513	-0.210401	0.779459
	H401	H	0.227975	-0.204996	0.778190
	O402	O	0.819571	0.173222	0.177351
	H403	H	0.831137	0.178290	0.143623
	H404	H	0.827734	0.142816	0.172344
	O405	O	1.020748	0.219173	0.985009
	H406	H	1.023944	0.221129	0.975842
	H407	H	1.038174	0.215378	0.984688
	O408	O	-0.066459	0.190285	0.042213
	H409	H	-0.037174	0.188715	0.027983
	H410	H	-0.087181	0.191219	0.017208
	O411	O	1.000326	0.945687	1.181493
	H412	H	0.997267	0.946868	1.178470
	H413	H	0.997996	0.947246	1.189648
	O414	O	0.476993	0.670488	0.700302
	H415	H	0.479062	0.666858	0.701925
	H416	H	0.486570	0.689734	0.717913
	O417	O	0.408856	0.673580	0.392264
	H418	H	0.398414	0.672241	0.385169
	H419	H	0.400433	0.688878	0.385094
	O420	O	0.431291	0.447076	0.281057
	H421	H	0.430687	0.452422	0.276875
	H422	H	0.446114	0.451231	0.273505
	O423	O	0.058993	-0.048071	1.000252
	H424	H	0.072002	-0.052552	0.995186
	H425	H	0.072737	-0.061776	1.006883
	O426	O	0.535275	0.270804	0.280228
	H427	H	0.549134	0.280788	0.288460
	H428	H	0.536894	0.239847	0.253004
	O429	O	1.279415	0.703718	1.296146
	H430	H	1.249538	0.737324	1.265095
	H431	H	1.283551	0.687427	1.313260
	O432	O	0.719696	0.470610	0.284365
	H433	H	0.722262	0.458601	0.274562
	H434	H	0.733833	0.456998	0.271507
	O435	O	0.045325	0.764698	0.067356
	H436	H	0.056147	0.765002	0.080992
	H437	H	0.039811	0.758594	0.078457
	O438	O	-0.221538	0.200050	-0.016913
	H439	H	-0.230786	0.201938	-0.032522
	H440	H	-0.229496	0.210519	-0.042580
	O441	O	0.025103	-0.229258	-0.216289
	H442	H	0.047284	-0.242566	-0.229546
	H443	H	0.055427	-0.239600	-0.225401
	O444	O	0.205164	0.199942	0.214618
	H445	H	0.150620	0.206692	0.221307
	H446	H	0.231830	0.235263	0.249556
	O447	O	-0.562554	1.665883	1.343655
	H448	H	-0.584603	1.661480	1.344481
	H449	H	-0.564946	1.691578	1.327229
	O450	O	-0.239113	0.760526	0.765854
	H451	H	-0.240150	0.764110	0.748400
	H452	H	-0.216345	0.784163	0.790782
	O453	O	0.711091	0.438026	0.510641
	H454	H	0.709540	0.441257	0.501135
	H455	H	0.706604	0.443131	0.528444
	O456	O	0.280357	0.282874	0.524505
	H457	H	0.286081	0.271937	0.536649
	H458	H	0.287194	0.266245	0.531705
	O459	O	1.205040	0.990669	-0.055679
	H460	H	1.210495	1.008149	-0.032076
	H461	H	1.205445	0.986024	-0.055709
	O462	O	0.404903	0.327489	0.545229
	H463	H	0.412347	0.326033	0.561997
	H464	H	0.405354	0.345791	0.557682
	O465	O	0.425685	-0.335692	0.511591
	H466	H	0.430984	-0.348354	0.491314
	H467	H	0.424371	-0.328259	0.508640
	O468	O	0.258229	0.440348	0.442143
	H469	H	0.258419	0.437914	0.440200
	H470	H	0.253833	0.426921	0.443720
	O471	O	0.279719	0.464621	0.715821
	H472	H	0.273513	0.439250	0.718832
	H473	H	0.267645	0.465106	0.724365
	O474	O	0.022265	0.994446	-0.071854
	H475	H	0.031036	0.990325	-0.062033
	H476	H	0.021274	0.985603	-0.068591
	O477	O	0.697669	0.666980	1.549323
	H478	H	0.704469	0.654434	1.537097
	H479	H	0.694707	0.677284	1.544910
	O480	O	0.444199	0.481428	0.552193
	H481	H	0.430284	0.481709	0.553368
	H482	H	0.450297	0.487089	0.551446
	O483	O	0.463132	0.316137	0.399881
	H484	H	0.458194	0.320829	0.407403
	H485	H	0.469103	0.333417	0.387078
	O486	O	0.686686	0.300532	0.693214
	H487	H	0.667479	0.312492	0.672437
	H488	H	0.666545	0.320719	0.677754
	O489	O	1.265329	0.559347	0.540878
	H490	H	1.262495	0.570350	0.526277
	H491	H	1.263484	0.542606	0.552506
	O492	O	-0.023458	0.020108	-0.069295
	H493	H	-0.026331	0.019584	-0.070333
	H494	H	-0.042819	0.020123	-0.072155
	O495	O	0.218514	0.852416	1.034892
	H496	H	0.218439	0.868372	1.039659
	H497	H	0.232008	0.825934	1.023682
	O498	O	0.783554	1.202590	0.797011
	H499	H	0.752857	1.234018	0.762720
	H500	H	0.810506	1.186751	0.795751
	O501	O	0.337141	0.700369	0.498992
	H502	H	0.337628	0.711399	0.494563
	H503	H	0.330929	0.692191	0.498000
