data_Molecule from HDF5

_cell_length_a		16.246781
_cell_length_b		16.544604
_cell_length_c		16.326750
_cell_angle_alpha	89.954227
_cell_angle_beta	89.869018
_cell_angle_gamma	89.965710
_symmetry_space_group_name_H-M	'P 1'
_symmetry_Int_Tables_number		1

loop_
	_symmetry_equiv_pos_as_xyz
	x,y,z

loop_
	_atom_site_label
	_atom_site_type_symbol
	_atom_site_fract_x
	_atom_site_fract_y
	_atom_site_fract_z
	H0	H	0.382449	0.845605	0.721048
	H1	H	0.595572	0.161043	0.716379
	H2	H	0.597676	0.845165	0.271629
	H3	H	0.382851	0.159975	0.271660
	H4	H	0.713487	0.398849	0.835795
	H5	H	0.711255	0.608788	0.154624
	H6	H	0.268667	0.607601	0.835611
	H7	H	0.271946	0.400279	0.155806
	H8	H	0.834738	0.724914	0.385253
	H9	H	0.149917	0.726790	0.605466
	H10	H	0.832833	0.277759	0.605390
	H11	H	0.147355	0.275298	0.383144
	H12	H	0.831433	0.397722	0.715380
	H13	H	0.152284	0.607592	0.715926
	H14	H	0.831182	0.605082	0.276397
	H15	H	0.150613	0.395093	0.273510
	H16	H	0.378427	0.728075	0.837232
	H17	H	0.595999	0.725510	0.153567
	H18	H	0.601278	0.279900	0.836651
	H19	H	0.380113	0.278402	0.151609
	H20	H	0.709842	0.842738	0.392165
	H21	H	0.713210	0.159475	0.601438
	H22	H	0.268419	0.843691	0.602120
	H23	H	0.267718	0.159612	0.390218
	H24	H	0.886716	0.344541	0.215281
	H25	H	0.098947	0.659051	0.219302
	H26	H	0.099041	0.344977	0.771828
	H27	H	0.887732	0.659997	0.771830
	H28	H	0.213088	0.897455	0.335023
	H29	H	0.209695	0.105880	0.654886
	H30	H	0.771464	0.103810	0.334136
	H31	H	0.775180	0.901425	0.658049
	H32	H	0.331837	0.227266	0.886045
	H33	H	0.649375	0.225551	0.101220
	H34	H	0.330361	0.782419	0.102610
	H35	H	0.648711	0.780280	0.886407
	H36	H	0.330755	0.897563	0.216534
	H37	H	0.650811	0.106975	0.214391
	H38	H	0.329328	0.107850	0.776358
	H39	H	0.653318	0.904111	0.781012
	H40	H	0.879567	0.225403	0.337835
	H41	H	0.097405	0.224329	0.652659
	H42	H	0.100754	0.778958	0.336389
	H43	H	0.886702	0.781258	0.655136
	H44	H	0.212097	0.344229	0.891275
	H45	H	0.209135	0.662096	0.097339
	H46	H	0.770617	0.345369	0.098312
	H47	H	0.774117	0.662732	0.891922
	H48	H	0.402785	0.113903	0.585501
	H49	H	0.586525	0.886694	0.587793
	H50	H	0.569506	0.110024	0.407544
	H51	H	0.401919	0.889249	0.403133
	H52	H	0.573067	0.417482	0.105363
	H53	H	0.573063	0.595097	0.882816
	H54	H	0.399226	0.598143	0.111269
	H55	H	0.401480	0.407848	0.877709
	H56	H	0.107236	0.596918	0.413134
	H57	H	0.881970	0.586694	0.575226
	H58	H	0.106085	0.407997	0.579618
	H59	H	0.874120	0.407421	0.406682
	H60	H	0.104020	0.413941	0.577468
	H61	H	0.877523	0.586960	0.588373
	H62	H	0.103326	0.583219	0.410357
	H63	H	0.878776	0.415090	0.413369
	H64	H	0.400168	0.589992	0.107870
	H65	H	0.583969	0.598116	0.877867
	H66	H	0.577408	0.407585	0.110615
	H67	H	0.397802	0.421314	0.881154
	H68	H	0.589201	0.115056	0.413527
	H69	H	0.578413	0.888900	0.592472
	H70	H	0.401087	0.113472	0.583111
	H71	H	0.407492	0.892409	0.405276
	H72	H	0.902747	0.615101	0.082275
	H73	H	0.078959	0.390817	0.083876
	H74	H	0.080571	0.614040	0.907338
	H75	H	0.900188	0.389405	0.904480
	H76	H	0.074346	0.911233	0.607593
	H77	H	0.073730	0.087604	0.382596
	H78	H	0.898338	0.095096	0.612012
	H79	H	0.902587	0.906246	0.379763
	H80	H	0.604126	0.095762	0.912565
	H81	H	0.376879	0.091879	0.078325
	H82	H	0.604460	0.913024	0.078393
	H83	H	0.376605	0.918879	0.907141
	H84	H	0.603597	0.916990	0.080660
	H85	H	0.376224	0.089217	0.083070
	H86	H	0.603446	0.087322	0.906622
	H87	H	0.372587	0.911825	0.904413
	H88	H	0.901470	0.084243	0.606899
	H89	H	0.077430	0.092397	0.379991
	H90	H	0.080010	0.909405	0.609552
	H91	H	0.897665	0.913318	0.379731
	H92	H	0.080155	0.615579	0.902537
	H93	H	0.081920	0.389416	0.084357
	H94	H	0.898985	0.617937	0.087481
	H95	H	0.903318	0.389992	0.903687
	H96	H	0.399677	0.114610	0.585622
	H97	H	0.578635	0.891515	0.583515
	H98	H	0.582927	0.119315	0.393858
	H99	H	0.402246	0.891403	0.409780
	H100	H	0.584685	0.417108	0.109743
	H101	H	0.581934	0.587094	0.882087
	H102	H	0.407336	0.594745	0.107527
	H103	H	0.411778	0.416629	0.884443
	H104	H	0.109649	0.590940	0.399837
	H105	H	0.876816	0.597470	0.580724
	H106	H	0.105389	0.413451	0.583768
	H107	H	0.876504	0.417053	0.403497
	H108	H	0.905840	0.615903	0.088204
	H109	H	0.079714	0.389680	0.087047
	H110	H	0.075840	0.613354	0.904534
	H111	H	0.902308	0.390737	0.906979
	H112	H	0.079024	0.915103	0.608211
	H113	H	0.079717	0.087109	0.380925
	H114	H	0.909553	0.093080	0.607202
	H115	H	0.905835	0.913100	0.382915
	H116	H	0.607070	0.096544	0.902349
	H117	H	0.374653	0.094422	0.082390
	H118	H	0.605031	0.913664	0.082661
	H119	H	0.376266	0.912440	0.912046
	C120	C	0.368434	0.010277	0.618030
	C121	C	0.612440	0.994132	0.618263
	C122	C	0.613140	0.010657	0.372755
	C123	C	0.369398	0.994482	0.373034
	C124	C	0.612246	0.382080	0.003348
	C125	C	0.611870	0.625583	0.986036
	C126	C	0.368569	0.625965	0.003620
	C127	C	0.370032	0.382441	0.986044
	C128	C	0.001311	0.623011	0.374152
	C129	C	0.983963	0.622724	0.615172
	C130	C	0.000277	0.379749	0.615078
	C131	C	0.981768	0.379872	0.373700
	C132	C	0.869938	0.511698	0.117143
	C133	C	0.112809	0.493861	0.117195
	C134	C	0.112897	0.510813	0.872461
	C135	C	0.870072	0.494373	0.872465
	C136	C	0.112432	0.879572	0.503521
	C137	C	0.110609	0.122180	0.486004
	C138	C	0.869291	0.123038	0.503723
	C139	C	0.870016	0.879707	0.486757
	C140	C	0.499359	0.125863	0.873473
	C141	C	0.481574	0.124417	0.114940
	C142	C	0.498737	0.882231	0.114593
	C143	C	0.480914	0.882014	0.874447
	C144	C	0.365175	0.892231	0.679491
	C145	C	0.613952	0.113425	0.676805
	C146	C	0.615871	0.892411	0.312097
	C147	C	0.365142	0.112544	0.311866
	C148	C	0.673630	0.380195	0.883634
	C149	C	0.671524	0.627493	0.106575
	C150	C	0.307637	0.627142	0.883862
	C151	C	0.310423	0.380929	0.106999
	C152	C	0.881822	0.684030	0.369360
	C153	C	0.102789	0.685245	0.621240
	C154	C	0.880413	0.318842	0.621159
	C155	C	0.100374	0.317044	0.367636
	C156	C	0.879836	0.378632	0.676205
	C157	C	0.103751	0.625899	0.676499
	C158	C	0.880380	0.624680	0.314444
	C159	C	0.101885	0.376612	0.312534
	C160	C	0.363027	0.686789	0.884507
	C161	C	0.614241	0.685605	0.105806
	C162	C	0.617541	0.320738	0.884370
	C163	C	0.364288	0.320181	0.104882
	C164	C	0.671644	0.891068	0.372526
	C165	C	0.672649	0.112608	0.619389
	C166	C	0.308199	0.891409	0.620212
	C167	C	0.308073	0.112600	0.371097
	C168	C	0.867919	0.392226	0.175600
	C169	C	0.116188	0.612237	0.178313
	C170	C	0.116779	0.392230	0.812160
	C171	C	0.868925	0.612945	0.812080
	C172	C	0.173444	0.878369	0.383433
	C173	C	0.170326	0.124324	0.606435
	C174	C	0.809558	0.123839	0.383112
	C175	C	0.812969	0.881097	0.608759
	C176	C	0.379479	0.186747	0.869344
	C177	C	0.601808	0.184888	0.118468
	C178	C	0.378314	0.822414	0.119188
	C179	C	0.601150	0.821575	0.870275
	C180	C	0.378510	0.879924	0.176091
	C181	C	0.602369	0.126060	0.174817
	C182	C	0.378210	0.126879	0.814763
	C183	C	0.603412	0.882800	0.817198
	C184	C	0.863568	0.184170	0.384677
	C185	C	0.114438	0.183595	0.605234
	C186	C	0.117468	0.819253	0.383869
	C187	C	0.868643	0.821201	0.607295
	C188	C	0.173192	0.392038	0.871569
	C189	C	0.171133	0.613721	0.117582
	C190	C	0.810058	0.392671	0.117457
	C191	C	0.812635	0.614542	0.872210
	C192	C	0.393928	0.092545	0.592312
	C193	C	0.587859	0.910850	0.594657
	C194	C	0.587617	0.093405	0.397696
	C195	C	0.396146	0.912423	0.398658
	C196	C	0.585980	0.406962	0.086786
	C197	C	0.586920	0.600612	0.902489
	C198	C	0.394796	0.601423	0.087050
	C199	C	0.396031	0.408056	0.902821
	C200	C	0.084903	0.597742	0.400081
	C201	C	0.900528	0.597423	0.588957
	C202	C	0.083532	0.404762	0.588167
	C203	C	0.898291	0.405669	0.400279
	C204	C	0.895081	0.594686	0.092919
	C205	C	0.087503	0.411536	0.092439
	C206	C	0.086340	0.592953	0.897384
	C207	C	0.894702	0.411541	0.897730
	C208	C	0.085581	0.904692	0.586724
	C209	C	0.084417	0.096397	0.402863
	C210	C	0.895598	0.098014	0.586843
	C211	C	0.894804	0.903750	0.402688
	C212	C	0.583080	0.100724	0.899580
	C213	C	0.397862	0.099133	0.088854
	C214	C	0.582386	0.907394	0.088188
	C215	C	0.397101	0.906896	0.900172
	Zn216	Zn	0.490351	0.003359	0.747124
	Zn217	Zn	0.490704	0.002696	0.242893
	Zn218	Zn	0.740492	0.504370	-0.004744
	Zn219	Zn	0.241774	0.502860	-0.004504
	Zn220	Zn	-0.007631	0.750932	0.494634
	Zn221	Zn	-0.010316	0.251516	0.493840
	Zn222	Zn	-0.007789	0.501765	0.742844
	Zn223	Zn	-0.008785	0.501892	0.246706
	Zn224	Zn	0.489592	0.754082	-0.005377
	Zn225	Zn	0.490396	0.253473	-0.005481
	Zn226	Zn	0.741474	0.001936	0.495406
	Zn227	Zn	0.239743	0.001912	0.495005
	N228	N	0.401676	0.967194	0.678590
	N229	N	0.577389	0.038597	0.676369
	N230	N	0.580140	0.967823	0.312029
	N231	N	0.402552	0.037931	0.312980
	N232	N	0.670484	0.417710	0.958711
	N233	N	0.670118	0.590828	0.031092
	N234	N	0.311197	0.589838	0.958817
	N235	N	0.313776	0.418909	0.032047
	N236	N	0.958058	0.683275	0.405811
	N237	N	0.027428	0.683190	0.583558
	N238	N	0.956254	0.319323	0.583682
	N239	N	0.024522	0.318981	0.405022
	N240	N	0.955404	0.415814	0.672587
	N241	N	0.029112	0.587222	0.672410
	N242	N	0.955756	0.587297	0.317352
	N243	N	0.027071	0.415054	0.316239
	N244	N	0.400168	0.686254	0.960099
	N245	N	0.578048	0.684830	0.029810
	N246	N	0.579629	0.322152	0.959721
	N247	N	0.400625	0.320949	0.028757
	N248	N	0.670215	0.965763	0.409363
	N249	N	0.671792	0.037375	0.583716
	N250	N	0.309949	0.965871	0.582836
	N251	N	0.310643	0.038267	0.408426
	N252	N	0.904192	0.467221	0.175632
	N253	N	0.080710	0.536766	0.178346
	N254	N	0.080198	0.467089	0.812441
	N255	N	0.903815	0.537133	0.812252
	N256	N	0.170508	0.914999	0.458867
	N257	N	0.168131	0.087089	0.531222
	N258	N	0.812738	0.086714	0.458230
	N259	N	0.813189	0.916346	0.532613
	N260	N	0.455969	0.186271	0.905202
	N261	N	0.525504	0.184063	0.082295
	N262	N	0.454005	0.823842	0.081462
	N263	N	0.523844	0.820633	0.904697
	N264	N	0.454370	0.916605	0.173266
	N265	N	0.526581	0.089249	0.172781
	N266	N	0.453797	0.089783	0.817152
	N267	N	0.527595	0.919744	0.819486
	N268	N	0.899833	0.184039	0.460706
	N269	N	0.078114	0.182544	0.529208
	N270	N	0.080302	0.819960	0.459608
	N271	N	0.903082	0.819840	0.530143
	N272	N	0.170962	0.466671	0.908395
	N273	N	0.169133	0.539328	0.080144
	N274	N	0.811168	0.468068	0.081878
	N275	N	0.812976	0.539763	0.908784
	O276	O	0.298806	0.310644	0.683693
	H277	H	0.346219	0.301259	0.687295
	H278	H	0.296520	0.358845	0.693924
	O279	O	0.466878	0.293385	0.700562
	H280	H	0.483607	0.316637	0.702216
	H281	H	0.476531	0.281340	0.730384
	O282	O	0.696991	0.490843	0.582138
	H283	H	0.707096	0.468626	0.572692
	H284	H	0.692534	0.511274	0.566264
	O285	O	0.889447	1.095571	0.172595
	H286	H	0.863793	1.068965	0.176328
	H287	H	0.890508	1.101600	0.166278
	O288	O	0.695139	0.481178	0.376844
	H289	H	0.680144	0.477516	0.378315
	H290	H	0.713015	0.472899	0.362472
	O291	O	0.453502	0.584464	0.715990
	H292	H	0.449302	0.567556	0.707011
	H293	H	0.439617	0.573543	0.715866
	O294	O	0.996325	0.923727	0.912236
	H295	H	0.987795	0.922457	0.899933
	H296	H	1.001329	0.929352	0.898953
	O297	O	0.278185	0.287823	0.515464
	H298	H	0.285634	0.298261	0.562512
	H299	H	0.254665	0.258995	0.516854
	O300	O	0.475845	0.711514	0.496556
	H301	H	0.470244	0.718021	0.522036
	H302	H	0.465677	0.710853	0.503403
	O303	O	0.491075	0.297388	0.295360
	H304	H	0.476824	0.281542	0.288118
	H305	H	0.482484	0.298704	0.291166
	O306	O	0.185895	-0.032155	1.006800
	H307	H	0.177393	-0.050867	1.010479
	H308	H	0.196822	-0.043482	0.988945
	O309	O	1.117574	-0.144646	0.033128
	H310	H	1.127400	-0.160563	0.030627
	H311	H	1.108425	-0.138696	0.031628
	O312	O	0.812803	0.189287	0.242372
	H313	H	0.802163	0.192726	0.236085
	H314	H	0.813866	0.196141	0.252073
	O315	O	0.662997	0.292091	0.481595
	H316	H	0.636190	0.296732	0.477247
	H317	H	0.685403	0.264661	0.481253
	O318	O	0.004044	0.200232	0.162680
	H319	H	-0.003487	0.208836	0.171599
	H320	H	-0.025464	0.196894	0.151443
	O321	O	0.669971	0.715307	0.526857
	H322	H	0.699697	0.743448	0.528026
	H323	H	0.664029	0.711000	0.562831
	O324	O	0.948783	-0.032055	0.889615
	H325	H	0.939872	-0.054764	0.889302
	H326	H	0.946783	-0.017789	0.887674
	O327	O	0.326266	0.550141	0.295398
	H328	H	0.308361	0.537900	0.311476
	H329	H	0.314400	0.535031	0.294774
	O330	O	-0.046817	0.813906	0.856579
	H331	H	-0.068746	0.811562	0.858246
	H332	H	-0.060458	0.807380	0.878575
	O333	O	-0.108174	1.173175	-0.204762
	H334	H	-0.082198	1.171529	-0.216652
	H335	H	-0.102729	1.188657	-0.211728
	O336	O	0.823613	1.124300	-0.033815
	H337	H	0.812970	1.129171	-0.032570
	H338	H	0.841343	1.128717	-0.021921
	O339	O	-0.045207	0.801574	1.141927
	H340	H	-0.032615	0.816498	1.148905
	H341	H	-0.025398	0.795722	1.157347
	O342	O	0.645698	0.690738	0.396906
	H343	H	0.640732	0.685199	0.405679
	H344	H	0.658412	0.686634	0.432975
	O345	O	-0.713585	-0.437370	1.555892
	H346	H	-0.704717	-0.428301	1.544192
	H347	H	-0.711187	-0.415080	1.539878
	O348	O	0.484236	0.710287	0.682728
	H349	H	0.474955	0.678099	0.692109
	H350	H	0.481372	0.735935	0.706755
	O351	O	0.989995	1.068467	-0.180706
	H352	H	0.985469	1.058605	-0.183426
	H353	H	1.003585	1.062033	-0.182164
	O354	O	0.978909	0.838033	0.881787
	H355	H	0.967964	0.859021	0.882328
	H356	H	0.961728	0.837890	0.894713
	O357	O	0.037172	-0.040674	0.012488
	H358	H	0.040182	-0.040268	0.016712
	H359	H	0.020444	-0.043312	0.014253
	O360	O	0.604425	0.360460	0.390411
	H361	H	0.588875	0.377784	0.380078
	H362	H	0.599333	0.359339	0.401783
	O363	O	1.504470	-0.674011	0.550720
	H364	H	1.500565	-0.672890	0.540825
	H365	H	1.500884	-0.678071	0.562521
	O366	O	0.292553	0.474809	1.692223
	H367	H	0.261270	0.485625	1.706925
	H368	H	0.292723	0.489969	1.659448
	O369	O	0.807222	-0.165415	1.013824
	H370	H	0.802959	-0.174693	1.051375
	H371	H	0.797905	-0.170324	1.021727
	O372	O	0.630568	0.514743	0.635497
	H373	H	0.637489	0.497579	0.615666
	H374	H	0.649875	0.519113	0.652669
	O375	O	0.144914	-0.135394	0.826573
	H376	H	0.114101	-0.136326	0.837803
	H377	H	0.153649	-0.133212	0.831570
	O378	O	0.333729	0.684048	0.315463
	H379	H	0.346545	0.660823	0.308222
	H380	H	0.359581	0.679936	0.299330
	O381	O	-0.193558	0.804898	0.145637
	H382	H	-0.183141	0.789421	0.162419
	H383	H	-0.189660	0.824171	0.164425
	O384	O	0.672273	0.683627	0.679364
	H385	H	0.630053	0.682726	0.684899
	H386	H	0.680586	0.642997	0.690149
	O387	O	0.399629	0.336219	0.387546
	H388	H	0.378878	0.339439	0.397649
	H389	H	0.396965	0.344365	0.388655
	O390	O	1.147760	1.181864	0.174442
	H391	H	1.136602	1.193478	0.154014
	H392	H	1.119850	1.170751	0.183486
	O393	O	0.796699	0.142718	0.811988
	H394	H	0.828916	0.158868	0.806727
	H395	H	0.788867	0.147302	0.833258
	O396	O	0.959841	0.174643	-0.007689
	H397	H	0.953849	0.162156	-0.014092
	H398	H	0.976958	0.173607	-0.014921
	O399	O	0.450478	0.461647	0.281940
	H400	H	0.438414	0.452679	0.277914
	H401	H	0.438852	0.466481	0.274451
	O402	O	0.816525	1.014334	0.083030
	H403	H	0.825436	1.009390	0.074948
	H404	H	0.813964	1.017432	0.068766
	O405	O	0.282963	0.713797	0.479618
	H406	H	0.274414	0.728049	0.465564
	H407	H	0.278522	0.718465	0.444372
	O408	O	0.586000	0.475449	0.541893
	H409	H	0.595842	0.486369	0.531253
	H410	H	0.587133	0.467996	0.539478
	O411	O	1.034181	0.907993	1.169785
	H412	H	1.051089	0.934404	1.180054
	H413	H	1.035071	0.917765	1.151912
	O414	O	0.624896	0.562278	0.406544
	H415	H	0.609455	0.566566	0.407130
	H416	H	0.643994	0.578986	0.424305
	O417	O	-0.191889	0.993885	1.129111
	H418	H	-0.183474	1.005999	1.115132
	H419	H	-0.213005	0.982410	1.143396
	O420	O	0.180689	1.196030	1.003057
	H421	H	0.183034	1.192904	1.010282
	H422	H	0.189940	1.194397	1.005520
	O423	O	0.053409	1.193106	-0.119980
	H424	H	0.076111	1.186954	-0.135595
	H425	H	0.065359	1.193968	-0.113288
	O426	O	0.569271	0.420069	0.700192
	H427	H	0.588341	0.440841	0.704449
	H428	H	0.566378	0.427270	0.676717
	O429	O	0.573976	0.490684	0.421970
	H430	H	0.572920	0.480806	0.397328
	H431	H	0.557285	0.502079	0.429288
	O432	O	0.500155	0.630263	0.287494
	H433	H	0.508954	0.625346	0.279591
	H434	H	0.529063	0.625239	0.287372
	O435	O	0.199993	-0.005847	-0.180615
	H436	H	0.220527	-0.002033	-0.198116
	H437	H	0.196767	-0.030922	-0.167151
	O438	O	0.190275	1.032309	1.188194
	H439	H	0.186194	1.054977	1.184033
	H440	H	0.211679	1.030703	1.186641
	O441	O	0.273732	0.446814	0.433718
	H442	H	0.282310	0.442361	0.455903
	H443	H	0.270016	0.431845	0.449741
