data_Molecule from HDF5

_cell_length_a		16.242483
_cell_length_b		16.234024
_cell_length_c		16.090693
_cell_angle_alpha	90.327775
_cell_angle_beta	89.688941
_cell_angle_gamma	89.958475
_symmetry_space_group_name_H-M	'P 1'
_symmetry_Int_Tables_number		1

loop_
	_symmetry_equiv_pos_as_xyz
	x,y,z

loop_
	_atom_site_label
	_atom_site_type_symbol
	_atom_site_fract_x
	_atom_site_fract_y
	_atom_site_fract_z
	H0	H	0.398109	0.836736	0.710602
	H1	H	0.594596	0.165388	0.713933
	H2	H	0.597091	0.837360	0.282053
	H3	H	0.399793	0.166444	0.285036
	H4	H	0.709963	0.402311	0.832169
	H5	H	0.710305	0.604622	0.161578
	H6	H	0.284817	0.599599	0.831061
	H7	H	0.279520	0.404098	0.161579
	H8	H	0.832365	0.717238	0.399232
	H9	H	0.159608	0.719799	0.597656
	H10	H	0.833099	0.288640	0.597856
	H11	H	0.159457	0.286297	0.393840
	H12	H	0.832808	0.406234	0.711533
	H13	H	0.160775	0.604122	0.712021
	H14	H	0.832079	0.602250	0.285203
	H15	H	0.160156	0.403302	0.280599
	H16	H	0.396754	0.715128	0.832349
	H17	H	0.592243	0.715136	0.163173
	H18	H	0.598268	0.284441	0.833557
	H19	H	0.395273	0.289286	0.162798
	H20	H	0.713136	0.837564	0.396061
	H21	H	0.712087	0.165216	0.599995
	H22	H	0.278540	0.838730	0.598486
	H23	H	0.281352	0.165753	0.397799
	H24	H	0.897283	0.338313	0.211828
	H25	H	0.093752	0.667338	0.210185
	H26	H	0.096337	0.339745	0.780599
	H27	H	0.900182	0.667965	0.786263
	H28	H	0.211498	0.903766	0.332214
	H29	H	0.209034	0.104367	0.662990
	H30	H	0.782284	0.100539	0.331847
	H31	H	0.781663	0.903227	0.662581
	H32	H	0.332925	0.216201	0.899263
	H33	H	0.658911	0.219455	0.100377
	H34	H	0.331365	0.789209	0.098194
	H35	H	0.658931	0.785568	0.896231
	H36	H	0.332823	0.903292	0.214599
	H37	H	0.660945	0.098940	0.210294
	H38	H	0.331567	0.098294	0.787223
	H39	H	0.659354	0.901309	0.782287
	H40	H	0.896630	0.217033	0.331825
	H41	H	0.094758	0.218604	0.662335
	H42	H	0.096677	0.787647	0.332258
	H43	H	0.896388	0.790206	0.662382
	H44	H	0.213257	0.340221	0.892668
	H45	H	0.212226	0.666159	0.097334
	H46	H	0.779282	0.338824	0.097416
	H47	H	0.779961	0.666034	0.897412
	H48	H	0.400112	0.120825	0.595217
	H49	H	0.591883	0.882452	0.593416
	H50	H	0.591686	0.122994	0.392102
	H51	H	0.404548	0.883342	0.400004
	H52	H	0.581317	0.416634	0.112119
	H53	H	0.588767	0.585020	0.882263
	H54	H	0.403127	0.599271	0.116826
	H55	H	0.401238	0.414724	0.879086
	H56	H	0.114385	0.597162	0.401740
	H57	H	0.882442	0.597272	0.581458
	H58	H	0.112393	0.410773	0.582643
	H59	H	0.884190	0.416099	0.414561
	H60	H	0.114077	0.414672	0.590899
	H61	H	0.880927	0.587830	0.596716
	H62	H	0.114121	0.597586	0.406507
	H63	H	0.877760	0.415335	0.394334
	H64	H	0.398605	0.594212	0.116852
	H65	H	0.580122	0.598304	0.879546
	H66	H	0.584385	0.402875	0.117219
	H67	H	0.411807	0.406859	0.880960
	H68	H	0.576848	0.112902	0.409521
	H69	H	0.585798	0.886226	0.588356
	H70	H	0.405625	0.118306	0.592689
	H71	H	0.408484	0.887125	0.409566
	H72	H	0.901567	0.621692	0.097536
	H73	H	0.095480	0.381284	0.092807
	H74	H	0.091042	0.622950	0.899599
	H75	H	0.903601	0.387104	0.910001
	H76	H	0.086288	0.903111	0.618784
	H77	H	0.089252	0.091415	0.380104
	H78	H	0.902448	0.094899	0.615494
	H79	H	0.903151	0.908847	0.378000
	H80	H	0.612612	0.098771	0.914135
	H81	H	0.378215	0.089381	0.099755
	H82	H	0.610865	0.915639	0.088820
	H83	H	0.378124	0.905682	0.909713
	H84	H	0.616681	0.903220	0.097384
	H85	H	0.376933	0.104906	0.092633
	H86	H	0.609882	0.084935	0.907796
	H87	H	0.378247	0.911742	0.903468
	H88	H	0.906234	0.095803	0.614279
	H89	H	0.087804	0.095743	0.379220
	H90	H	0.095123	0.913922	0.617427
	H91	H	0.905530	0.910801	0.379721
	H92	H	0.087022	0.618516	0.906150
	H93	H	0.079375	0.387203	0.090494
	H94	H	0.908466	0.616750	0.087180
	H95	H	0.897277	0.383311	0.901796
	H96	H	0.400639	0.118767	0.589246
	H97	H	0.593172	0.885042	0.585273
	H98	H	0.601646	0.118866	0.415398
	H99	H	0.397850	0.884347	0.408830
	H100	H	0.594167	0.413777	0.118040
	H101	H	0.596658	0.597710	0.875203
	H102	H	0.404525	0.593997	0.114074
	H103	H	0.401361	0.401538	0.876052
	H104	H	0.112698	0.593461	0.404163
	H105	H	0.874392	0.604873	0.596637
	H106	H	0.115553	0.405547	0.589190
	H107	H	0.876194	0.397777	0.406718
	H108	H	0.896388	0.620398	0.086112
	H109	H	0.090479	0.389219	0.077567
	H110	H	0.096159	0.621315	0.907711
	H111	H	0.907196	0.385117	0.899900
	H112	H	0.081673	0.915483	0.612345
	H113	H	0.091494	0.094219	0.378303
	H114	H	0.902611	0.098252	0.615464
	H115	H	0.906749	0.907758	0.378686
	H116	H	0.616825	0.095468	0.899219
	H117	H	0.382675	0.091163	0.082591
	H118	H	0.612440	0.901313	0.082423
	H119	H	0.375926	0.902954	0.901717
	C120	C	0.373635	0.010667	0.620575
	C121	C	0.618485	0.992988	0.619335
	C122	C	0.619392	0.010009	0.375660
	C123	C	0.375367	0.993537	0.377019
	C124	C	0.616820	0.380953	0.006824
	C125	C	0.616903	0.623392	0.988228
	C126	C	0.374444	0.623519	0.006093
	C127	C	0.374900	0.380419	0.988352
	C128	C	0.005142	0.624767	0.375974
	C129	C	0.987797	0.625735	0.619891
	C130	C	0.005762	0.381936	0.618059
	C131	C	0.987521	0.380406	0.374511
	C132	C	0.873132	0.511212	0.119237
	C133	C	0.117479	0.494022	0.117443
	C134	C	0.119480	0.512431	0.874485
	C135	C	0.874434	0.494123	0.875752
	C136	C	0.117592	0.881529	0.506701
	C137	C	0.117506	0.124075	0.488880
	C138	C	0.874733	0.124377	0.505916
	C139	C	0.875717	0.881025	0.488360
	C140	C	0.505008	0.122351	0.877635
	C141	C	0.487417	0.123714	0.120341
	C142	C	0.504595	0.879623	0.119171
	C143	C	0.486290	0.878255	0.875673
	C144	C	0.376950	0.886121	0.673925
	C145	C	0.615132	0.116377	0.675810
	C146	C	0.617290	0.886549	0.319808
	C147	C	0.378673	0.117118	0.322055
	C148	C	0.672475	0.382166	0.881907
	C149	C	0.671941	0.622987	0.112534
	C150	C	0.321136	0.620345	0.881120
	C151	C	0.317881	0.383432	0.112262
	C152	C	0.881609	0.679502	0.379017
	C153	C	0.110963	0.681432	0.617599
	C154	C	0.882245	0.326473	0.617437
	C155	C	0.110514	0.324357	0.374254
	C156	C	0.881923	0.385265	0.674019
	C157	C	0.111680	0.623703	0.674298
	C158	C	0.881420	0.622245	0.322133
	C159	C	0.110705	0.382724	0.318071
	C160	C	0.377159	0.677589	0.881701
	C161	C	0.613541	0.678552	0.113118
	C162	C	0.616933	0.323638	0.882597
	C163	C	0.375595	0.326365	0.113071
	C164	C	0.675363	0.886815	0.376444
	C165	C	0.673854	0.116255	0.619162
	C166	C	0.317806	0.887212	0.617922
	C167	C	0.319622	0.116841	0.378264
	C168	C	0.875945	0.387824	0.174811
	C169	C	0.114843	0.617822	0.173143
	C170	C	0.116788	0.388809	0.818382
	C171	C	0.878717	0.618472	0.822753
	C172	C	0.173819	0.883252	0.381946
	C173	C	0.172080	0.123710	0.613177
	C174	C	0.819985	0.121204	0.381185
	C175	C	0.819669	0.883403	0.613123
	C176	C	0.381884	0.178518	0.879087
	C177	C	0.610440	0.180319	0.119339
	C178	C	0.380844	0.826114	0.118007
	C179	C	0.609987	0.823303	0.876868
	C180	C	0.381385	0.882998	0.175771
	C181	C	0.611602	0.120309	0.173840
	C182	C	0.381178	0.119632	0.823413
	C183	C	0.610274	0.880887	0.820166
	C184	C	0.876580	0.179102	0.381183
	C185	C	0.115246	0.180827	0.612973
	C186	C	0.116686	0.825640	0.381867
	C187	C	0.876456	0.826892	0.612939
	C188	C	0.174918	0.388940	0.874242
	C189	C	0.173783	0.617333	0.116916
	C190	C	0.817649	0.387857	0.117454
	C191	C	0.818768	0.617391	0.877985
	C192	C	0.395691	0.097038	0.598928
	C193	C	0.596684	0.906894	0.595930
	C194	C	0.596683	0.096156	0.398901
	C195	C	0.397381	0.907184	0.399471
	C196	C	0.593551	0.404377	0.093366
	C197	C	0.594992	0.600518	0.901367
	C198	C	0.395662	0.602103	0.093362
	C199	C	0.398038	0.401399	0.901236
	C200	C	0.091571	0.602462	0.397698
	C201	C	0.901522	0.603398	0.598036
	C202	C	0.091726	0.403777	0.594459
	C203	C	0.901596	0.403005	0.398321
	C204	C	0.895478	0.597344	0.096863
	C205	C	0.095044	0.408248	0.093964
	C206	C	0.097759	0.598653	0.897721
	C207	C	0.896280	0.407635	0.897545
	C208	C	0.094567	0.904163	0.593620
	C209	C	0.095725	0.100746	0.401877
	C210	C	0.897246	0.102954	0.592558
	C211	C	0.898403	0.902764	0.401538
	C212	C	0.590761	0.099683	0.900323
	C213	C	0.401498	0.101780	0.098231
	C214	C	0.590986	0.900591	0.096236
	C215	C	0.400176	0.900338	0.898075
	Zn216	Zn	0.495750	0.000941	0.748469
	Zn217	Zn	0.497047	0.001341	0.247590
	Zn218	Zn	0.744803	0.502178	-0.003057
	Zn219	Zn	0.247369	0.502740	-0.004118
	Zn220	Zn	-0.003760	0.753095	0.497479
	Zn221	Zn	-0.003082	0.252393	0.496534
	Zn222	Zn	-0.002648	0.503865	0.747422
	Zn223	Zn	-0.003885	0.503252	0.247359
	Zn224	Zn	0.495054	0.750551	-0.002361
	Zn225	Zn	0.496430	0.251970	-0.001745
	Zn226	Zn	0.748047	0.001540	0.497196
	Zn227	Zn	0.245634	0.002984	0.498528
	N228	N	0.411048	0.963738	0.675621
	N229	N	0.581328	0.038657	0.676171
	N230	N	0.583190	0.964360	0.319126
	N231	N	0.412610	0.039319	0.321072
	N232	N	0.672541	0.417121	0.960010
	N233	N	0.674299	0.589317	0.033768
	N234	N	0.319191	0.587321	0.959675
	N235	N	0.317354	0.416105	0.033658
	N236	N	0.959604	0.681121	0.411854
	N237	N	0.033003	0.682706	0.584527
	N238	N	0.960212	0.324378	0.583342
	N239	N	0.032832	0.322709	0.408684
	N240	N	0.959634	0.418847	0.674650
	N241	N	0.033966	0.589650	0.675835
	N242	N	0.959313	0.588846	0.319994
	N243	N	0.032998	0.416919	0.318140
	N244	N	0.409343	0.680002	0.960626
	N245	N	0.579806	0.678841	0.034808
	N246	N	0.582786	0.322723	0.961123
	N247	N	0.410375	0.324254	0.034828
	N248	N	0.676637	0.964561	0.410589
	N249	N	0.676076	0.038580	0.584672
	N250	N	0.315555	0.965589	0.585814
	N251	N	0.317732	0.039035	0.411864
	N252	N	0.909808	0.465438	0.175876
	N253	N	0.080668	0.540242	0.173738
	N254	N	0.082958	0.466636	0.818354
	N255	N	0.912654	0.540714	0.820968
	N256	N	0.174588	0.917298	0.460532
	N257	N	0.173650	0.089054	0.535030
	N258	N	0.818511	0.087891	0.459616
	N259	N	0.818990	0.916336	0.534610
	N260	N	0.459830	0.180278	0.912228
	N261	N	0.532382	0.182671	0.086717
	N262	N	0.458492	0.823828	0.083320
	N263	N	0.532040	0.821506	0.910683
	N264	N	0.459466	0.915338	0.176783
	N265	N	0.534191	0.085776	0.174743
	N266	N	0.458671	0.085225	0.822497
	N267	N	0.532523	0.914672	0.819261
	N268	N	0.910008	0.181246	0.459659
	N269	N	0.082068	0.181299	0.534338
	N270	N	0.082675	0.824297	0.460370
	N271	N	0.910620	0.825222	0.534472
	N272	N	0.176757	0.466699	0.908436
	N273	N	0.175698	0.539337	0.082871
	N274	N	0.815482	0.465851	0.084119
	N275	N	0.816086	0.538999	0.910060
	O276	O	-0.038661	0.024752	-0.059832
	H277	H	-0.035156	0.037749	-0.062130
	H278	H	-0.038180	0.029342	-0.062562
	O279	O	0.481808	0.606716	0.470187
	H280	H	0.481852	0.610591	0.470486
	H281	H	0.488639	0.605027	0.468980
	O282	O	0.624526	0.421361	0.465019
	H283	H	0.619363	0.412927	0.468969
	H284	H	0.621013	0.416985	0.464743
	O285	O	-0.029342	1.059709	0.942592
	H286	H	-0.025664	1.063325	0.940061
	H287	H	-0.031710	1.065492	0.949072
	O288	O	0.569307	0.497410	0.528981
	H289	H	0.560697	0.487529	0.530835
	H290	H	0.557175	0.496617	0.533051
	O291	O	1.004706	1.036531	1.009305
	H292	H	1.002194	1.038465	1.024745
	H293	H	1.002028	1.046729	1.015949
	O294	O	1.007223	1.066220	1.045389
	H295	H	1.012436	1.067977	1.054872
	H296	H	1.012552	1.062136	1.041091
	O297	O	0.930697	-0.030896	1.012384
	H298	H	0.935771	-0.021431	1.009569
	H299	H	0.932071	-0.026293	1.023481
	O300	O	0.510004	0.461285	0.410515
	H301	H	0.514747	0.469385	0.402358
	H302	H	0.511114	0.448055	0.414439
	O303	O	0.926112	-0.041661	-0.053014
	H304	H	0.935453	-0.044304	-0.063963
	H305	H	0.910791	-0.040616	-0.056745
	O306	O	0.044865	0.899837	0.971314
	H307	H	0.041590	0.900904	0.963008
	H308	H	0.037804	0.895044	0.982706
	O309	O	0.442657	0.572483	0.527281
	H310	H	0.446108	0.567445	0.527602
	H311	H	0.452370	0.578515	0.521142
	O312	O	0.968864	0.048887	0.979224
	H313	H	0.971456	0.040684	0.977771
	H314	H	0.971041	0.042985	0.967788
	O315	O	0.527997	0.489438	0.422571
	H316	H	0.539741	0.483671	0.426230
	H317	H	0.529294	0.506080	0.425513
	O318	O	0.391465	0.399456	0.543455
	H319	H	0.398354	0.409660	0.531924
	H320	H	0.376117	0.399958	0.539179
	O321	O	1.057665	1.003417	0.943502
	H322	H	1.062590	0.999898	0.941962
	H323	H	1.056067	1.006129	0.933131
	O324	O	0.548678	0.611823	0.505027
	H325	H	0.543201	0.612033	0.512186
	H326	H	0.556692	0.619370	0.509738
	O327	O	0.414695	0.509626	0.637455
	H328	H	0.418310	0.514315	0.640452
	H329	H	0.400096	0.502825	0.640571
	O330	O	1.034162	0.065661	1.035819
	H331	H	1.041502	0.078582	1.036645
	H332	H	1.038484	0.056395	1.024767
	O333	O	1.046815	0.998123	0.043325
	H334	H	1.045203	0.985947	0.053602
	H335	H	1.047244	0.992779	0.044505
	O336	O	0.534161	0.530001	0.523300
	H337	H	0.536404	0.536769	0.528936
	H338	H	0.533488	0.518184	0.521940
	O339	O	0.441478	0.411066	0.414428
	H340	H	0.442030	0.416907	0.409492
	H341	H	0.445896	0.419617	0.404177
	O342	O	0.027645	1.065915	0.066379
	H343	H	0.035054	1.069661	0.067297
	H344	H	0.036291	1.072458	0.059048
	O345	O	0.042966	-0.082535	-0.016811
	H346	H	0.033915	-0.081625	-0.022165
	H347	H	0.041696	-0.085936	-0.018002
	O348	O	0.459763	0.432718	0.494626
	H349	H	0.468012	0.426834	0.484245
	H350	H	0.457402	0.442559	0.497054
	O351	O	0.556137	0.368342	0.413207
	H352	H	0.554290	0.369225	0.406263
	H353	H	0.570405	0.364397	0.412526
	O354	O	0.483723	0.510948	0.482988
	H355	H	0.485439	0.502789	0.483897
	H356	H	0.490837	0.525859	0.484771
	O357	O	0.474729	0.504291	0.480554
	H358	H	0.471294	0.495622	0.483784
	H359	H	0.487757	0.509522	0.490549
	O360	O	-0.031326	-0.012901	0.001126
	H361	H	-0.029720	-0.023083	0.002291
	H362	H	-0.034756	-0.013040	0.005227
	O363	O	0.454485	0.540708	0.469596
	H364	H	0.458288	0.534885	0.462650
	H365	H	0.454159	0.540013	0.474663
	O366	O	0.018619	-0.015004	1.029525
	H367	H	0.018777	-0.019578	1.030912
	H368	H	0.008034	-0.013472	1.034089
	O369	O	0.608448	0.531169	0.516152
	H370	H	0.601152	0.525286	0.520584
	H371	H	0.611107	0.533537	0.514172
