data_Molecule from HDF5

_cell_length_a		16.308782
_cell_length_b		15.998089
_cell_length_c		16.452383
_cell_angle_alpha	90.462585
_cell_angle_beta	89.940044
_cell_angle_gamma	89.589080
_symmetry_space_group_name_H-M	'P 1'
_symmetry_Int_Tables_number		1

loop_
	_symmetry_equiv_pos_as_xyz
	x,y,z

loop_
	_atom_site_label
	_atom_site_type_symbol
	_atom_site_fract_x
	_atom_site_fract_y
	_atom_site_fract_z
	H0	H	0.408793	0.819828	0.725911
	H1	H	0.609320	0.149327	0.724984
	H2	H	0.613377	0.820017	0.290006
	H3	H	0.405265	0.148787	0.294708
	H4	H	0.729163	0.376984	0.847268
	H5	H	0.728754	0.590874	0.166993
	H6	H	0.287267	0.588444	0.848353
	H7	H	0.290123	0.382688	0.168907
	H8	H	0.846108	0.697693	0.412433
	H9	H	0.172817	0.697133	0.608559
	H10	H	0.845102	0.270985	0.604188
	H11	H	0.172698	0.267859	0.409756
	H12	H	0.849217	0.377357	0.727900
	H13	H	0.169452	0.589006	0.731072
	H14	H	0.848921	0.590417	0.288507
	H15	H	0.169900	0.374666	0.287411
	H16	H	0.409223	0.698080	0.845176
	H17	H	0.605711	0.700353	0.168922
	H18	H	0.608235	0.265687	0.846068
	H19	H	0.412144	0.272192	0.171227
	H20	H	0.725318	0.817467	0.407560
	H21	H	0.723310	0.149421	0.608633
	H22	H	0.295047	0.817729	0.610792
	H23	H	0.292012	0.148113	0.410732
	H24	H	0.908434	0.317551	0.221959
	H25	H	0.109678	0.646519	0.227207
	H26	H	0.113341	0.319019	0.790785
	H27	H	0.902660	0.645977	0.790497
	H28	H	0.229773	0.876949	0.348522
	H29	H	0.226320	0.086468	0.670271
	H30	H	0.789864	0.086229	0.348099
	H31	H	0.791548	0.882278	0.669094
	H32	H	0.344338	0.196528	0.915301
	H33	H	0.673524	0.197413	0.105536
	H34	H	0.344677	0.773382	0.105485
	H35	H	0.671336	0.766417	0.908765
	H36	H	0.349182	0.881268	0.229357
	H37	H	0.670633	0.089753	0.229885
	H38	H	0.348696	0.091559	0.789593
	H39	H	0.670224	0.877438	0.789983
	H40	H	0.912826	0.196132	0.344805
	H41	H	0.107899	0.200581	0.670051
	H42	H	0.108876	0.764999	0.346397
	H43	H	0.911607	0.770439	0.670980
	H44	H	0.226244	0.318694	0.907048
	H45	H	0.220618	0.649264	0.110012
	H46	H	0.795777	0.317350	0.105088
	H47	H	0.792685	0.647453	0.907862
	H48	H	0.403433	0.104889	0.600794
	H49	H	0.599249	0.868117	0.595762
	H50	H	0.601637	0.102523	0.418022
	H51	H	0.428177	0.869360	0.419846
	H52	H	0.600538	0.397545	0.119971
	H53	H	0.605266	0.576660	0.890416
	H54	H	0.417193	0.577639	0.122125
	H55	H	0.414452	0.395504	0.895029
	H56	H	0.125461	0.573818	0.419360
	H57	H	0.896279	0.569507	0.599836
	H58	H	0.124544	0.399161	0.605487
	H59	H	0.894043	0.396827	0.412547
	H60	H	0.127888	0.386589	0.602636
	H61	H	0.892410	0.574322	0.605700
	H62	H	0.122907	0.565961	0.417935
	H63	H	0.890716	0.389968	0.409542
	H64	H	0.412714	0.579555	0.122493
	H65	H	0.603102	0.565294	0.894554
	H66	H	0.600412	0.390119	0.122528
	H67	H	0.418638	0.393061	0.894561
	H68	H	0.597464	0.101344	0.418385
	H69	H	0.605335	0.864588	0.600719
	H70	H	0.425363	0.103325	0.612976
	H71	H	0.415584	0.865607	0.422291
	H72	H	0.925305	0.598906	0.100961
	H73	H	0.103397	0.361366	0.103827
	H74	H	0.092493	0.600513	0.916313
	H75	H	0.919719	0.367372	0.926030
	H76	H	0.101704	0.893549	0.622138
	H77	H	0.111472	0.072444	0.391542
	H78	H	0.916636	0.075922	0.622270
	H79	H	0.915781	0.887708	0.391856
	H80	H	0.621999	0.067372	0.920159
	H81	H	0.395763	0.075714	0.099790
	H82	H	0.626061	0.890096	0.100393
	H83	H	0.390332	0.893493	0.907376
	H84	H	0.622554	0.895217	0.096677
	H85	H	0.393062	0.073484	0.107605
	H86	H	0.626372	0.071521	0.907783
	H87	H	0.392517	0.888512	0.921000
	H88	H	0.915982	0.077182	0.623086
	H89	H	0.099336	0.063891	0.397222
	H90	H	0.103597	0.888336	0.624957
	H91	H	0.914456	0.894837	0.393879
	H92	H	0.096954	0.599726	0.923378
	H93	H	0.095025	0.366186	0.098270
	H94	H	0.914066	0.600149	0.093838
	H95	H	0.913095	0.361948	0.911908
	H96	H	0.424489	0.095087	0.589572
	H97	H	0.597856	0.865743	0.603789
	H98	H	0.599487	0.100979	0.421628
	H99	H	0.420759	0.863795	0.410212
	H100	H	0.607075	0.394131	0.123241
	H101	H	0.594229	0.573672	0.895471
	H102	H	0.413535	0.575134	0.122233
	H103	H	0.414665	0.390899	0.891728
	H104	H	0.125547	0.569927	0.411800
	H105	H	0.893811	0.577560	0.598696
	H106	H	0.122279	0.393888	0.593773
	H107	H	0.893307	0.390561	0.417512
	H108	H	0.914523	0.604190	0.106582
	H109	H	0.104382	0.365614	0.094167
	H110	H	0.100448	0.602667	0.917155
	H111	H	0.929128	0.365355	0.911605
	H112	H	0.107024	0.892855	0.624522
	H113	H	0.097348	0.079609	0.393810
	H114	H	0.914400	0.076607	0.623206
	H115	H	0.920801	0.891347	0.395007
	H116	H	0.627098	0.081242	0.919025
	H117	H	0.391925	0.081308	0.104863
	H118	H	0.624401	0.897318	0.102646
	H119	H	0.396399	0.903136	0.916900
	C120	C	0.388306	-0.007828	0.630447
	C121	C	0.629846	0.975326	0.629912
	C122	C	0.630746	-0.007449	0.387838
	C123	C	0.389712	0.975208	0.388920
	C124	C	0.632371	0.361307	0.015892
	C125	C	0.630663	0.604684	0.999027
	C126	C	0.384463	0.607376	0.016381
	C127	C	0.387100	0.363513	1.000463
	C128	C	0.017771	0.602585	0.387003
	C129	C	1.000838	0.605004	0.631700
	C130	C	0.017802	0.362265	0.629651
	C131	C	1.000305	0.360710	0.384430
	C132	C	0.888525	0.491878	0.129180
	C133	C	0.129365	0.474071	0.129456
	C134	C	0.128810	0.491997	0.888218
	C135	C	0.888494	0.473430	0.886821
	C136	C	0.133434	0.859966	0.517242
	C137	C	0.131391	0.103745	0.500541
	C138	C	0.886719	0.106105	0.516589
	C139	C	0.887792	0.862087	0.500140
	C140	C	0.517851	0.105249	0.887282
	C141	C	0.501012	0.107180	0.132589
	C142	C	0.517318	0.863744	0.129716
	C143	C	0.500256	0.862503	0.885532
	C144	C	0.389018	0.868570	0.687227
	C145	C	0.629200	0.099661	0.686878
	C146	C	0.631638	0.868833	0.329482
	C147	C	0.387490	0.099312	0.332937
	C148	C	0.689572	0.359123	0.895152
	C149	C	0.688591	0.607641	0.119316
	C150	C	0.326938	0.607330	0.895936
	C151	C	0.329821	0.363797	0.121245
	C152	C	0.895251	0.660109	0.390480
	C153	C	0.123404	0.660603	0.629758
	C154	C	0.894687	0.307471	0.625752
	C155	C	0.123101	0.304122	0.387888
	C156	C	0.896646	0.360560	0.687259
	C157	C	0.121562	0.606714	0.690879
	C158	C	0.896746	0.606495	0.328886
	C159	C	0.121875	0.357933	0.327308
	C160	C	0.387880	0.661665	0.894176
	C161	C	0.627467	0.662415	0.120509
	C162	C	0.629440	0.303683	0.894523
	C163	C	0.390673	0.308989	0.122398
	C164	C	0.687420	0.867674	0.387889
	C165	C	0.685632	0.099939	0.628741
	C166	C	0.332880	0.867590	0.629512
	C167	C	0.331014	0.099009	0.390654
	C168	C	0.889462	0.367134	0.184132
	C169	C	0.128597	0.597716	0.187936
	C170	C	0.131427	0.368355	0.829859
	C171	C	0.885748	0.597172	0.829720
	C172	C	0.190391	0.858535	0.396339
	C173	C	0.187284	0.104762	0.622081
	C174	C	0.829560	0.105424	0.395569
	C175	C	0.830757	0.863039	0.621238
	C176	C	0.394193	0.160438	0.892436
	C177	C	0.623907	0.161874	0.128377
	C178	C	0.394366	0.809365	0.127033
	C179	C	0.622441	0.804385	0.888085
	C180	C	0.396587	0.863385	0.188518
	C181	C	0.622647	0.108138	0.190005
	C182	C	0.396344	0.108239	0.829983
	C183	C	0.621934	0.860002	0.828806
	C184	C	0.890706	0.160000	0.394031
	C185	C	0.128589	0.161818	0.621892
	C186	C	0.130355	0.802553	0.395376
	C187	C	0.890733	0.807487	0.622237
	C188	C	0.187803	0.368225	0.887712
	C189	C	0.183695	0.599232	0.129476
	C190	C	0.832875	0.367144	0.126339
	C191	C	0.830857	0.597812	0.888065
	C192	C	0.410930	0.078712	0.607589
	C193	C	0.607360	0.888564	0.606810
	C194	C	0.606620	0.079161	0.412131
	C195	C	0.414409	0.888659	0.410973
	C196	C	0.609464	0.386500	0.100263
	C197	C	0.607663	0.579224	0.915173
	C198	C	0.407635	0.584440	0.100494
	C199	C	0.409404	0.386302	0.915756
	C200	C	0.102554	0.577410	0.409878
	C201	C	0.916012	0.580902	0.608271
	C202	C	0.102920	0.386182	0.607163
	C203	C	0.914931	0.385398	0.406733
	C204	C	0.911110	0.578449	0.106970
	C205	C	0.107385	0.387014	0.105725
	C206	C	0.103830	0.578436	0.911938
	C207	C	0.913390	0.387299	0.909793
	C208	C	0.110698	0.884346	0.601781
	C209	C	0.109195	0.079136	0.416261
	C210	C	0.909058	0.083217	0.600899
	C211	C	0.910421	0.884737	0.415617
	C212	C	0.602984	0.080490	0.909064
	C213	C	0.415711	0.083651	0.110732
	C214	C	0.602216	0.887321	0.106624
	C215	C	0.415153	0.887844	0.908446
	Zn216	Zn	0.508777	-0.015603	0.758039
	Zn217	Zn	0.510316	-0.015311	0.260341
	Zn218	Zn	0.761303	0.483018	0.007136
	Zn219	Zn	0.256233	0.484597	0.008732
	Zn220	Zn	0.009353	0.732438	0.508957
	Zn221	Zn	0.009308	0.234210	0.507712
	Zn222	Zn	0.008594	0.482628	0.759512
	Zn223	Zn	0.009194	0.481896	0.256621
	Zn224	Zn	0.507781	0.734533	0.007295
	Zn225	Zn	0.509109	0.233950	0.008545
	Zn226	Zn	0.757772	-0.016558	0.508410
	Zn227	Zn	0.261697	-0.017302	0.509466
	N228	N	0.423017	0.946853	0.687859
	N229	N	0.595114	0.021302	0.687407
	N230	N	0.597181	0.947556	0.329453
	N231	N	0.423667	0.021320	0.331992
	N232	N	0.691337	0.394388	0.971727
	N233	N	0.690677	0.572368	0.042887
	N234	N	0.324567	0.574335	0.972808
	N235	N	0.327475	0.397148	0.044400
	N236	N	0.971474	0.657814	0.426127
	N237	N	0.047316	0.659891	0.593875
	N238	N	0.971272	0.308478	0.590376
	N239	N	0.046468	0.305746	0.422843
	N240	N	0.974114	0.393853	0.689583
	N241	N	0.044189	0.572738	0.691999
	N242	N	0.973909	0.571339	0.326686
	N243	N	0.044405	0.392429	0.325122
	N244	N	0.422934	0.662106	0.970207
	N245	N	0.592034	0.660766	0.044860
	N246	N	0.594787	0.304767	0.970705
	N247	N	0.425445	0.308465	0.046250
	N248	N	0.686868	0.945787	0.423454
	N249	N	0.686322	0.021618	0.593926
	N250	N	0.332206	0.945712	0.594989
	N251	N	0.332162	0.020869	0.424628
	N252	N	0.922793	0.445798	0.186322
	N253	N	0.095794	0.518898	0.187962
	N254	N	0.095735	0.446501	0.829654
	N255	N	0.921083	0.518769	0.828828
	N256	N	0.192528	0.893164	0.472993
	N257	N	0.189510	0.069556	0.545606
	N258	N	0.826667	0.072665	0.472640
	N259	N	0.828593	0.896159	0.544270
	N260	N	0.470683	0.158651	0.927424
	N261	N	0.547273	0.161492	0.093540
	N262	N	0.470552	0.809469	0.091025
	N263	N	0.545677	0.805774	0.922406
	N264	N	0.474201	0.896397	0.190396
	N265	N	0.545106	0.074860	0.192803
	N266	N	0.474223	0.074576	0.826780
	N267	N	0.544787	0.895715	0.827325
	N268	N	0.925428	0.160652	0.470143
	N269	N	0.094547	0.161341	0.545553
	N270	N	0.095895	0.803009	0.471733
	N271	N	0.925391	0.806690	0.546062
	N272	N	0.186207	0.446162	0.923200
	N273	N	0.184341	0.521145	0.093707
	N274	N	0.832145	0.445572	0.092675
	N275	N	0.832387	0.519969	0.922761
	O276	O	0.463040	0.560299	0.456460
	H277	H	0.446255	0.560701	0.448261
	H278	H	0.478063	0.563536	0.456146
	O279	O	0.433533	0.414010	0.516182
	H280	H	0.433269	0.414896	0.512204
	H281	H	0.435044	0.406617	0.514409
	O282	O	0.960647	0.104542	-0.110379
	H283	H	0.957595	0.099364	-0.110082
	H284	H	0.951280	0.100336	-0.113230
	O285	O	-0.102158	0.915302	-0.104015
	H286	H	-0.094432	0.921589	-0.107702
	H287	H	-0.105559	0.906508	-0.097558
	O288	O	0.494870	0.403132	0.402204
	H289	H	0.487831	0.414513	0.418933
	H290	H	0.489117	0.406408	0.408278
	O291	O	0.417112	0.526402	0.624348
	H292	H	0.420027	0.534331	0.623378
	H293	H	0.404427	0.509589	0.634070
	O294	O	1.135683	0.971867	1.003555
	H295	H	1.136341	0.957707	1.001462
	H296	H	1.139877	0.973236	1.000484
	O297	O	0.115377	-0.124479	-0.104718
	H298	H	0.124152	-0.130681	-0.116118
	H299	H	0.120988	-0.116443	-0.119127
	O300	O	0.845658	0.012753	0.009000
	H301	H	0.848250	-0.000683	0.004576
	H302	H	0.850282	0.010841	0.007134
	O303	O	-0.035798	0.990203	1.129298
	H304	H	-0.043169	0.989522	1.131262
	H305	H	-0.031929	0.984483	1.116174
	O306	O	0.470938	0.598459	0.399390
	H307	H	0.484519	0.592509	0.403000
	H308	H	0.474458	0.608104	0.398769
	O309	O	1.023874	-0.007970	0.112575
	H310	H	1.024524	-0.007563	0.107060
	H311	H	1.013440	-0.011945	0.114267
	O312	O	-0.031436	-0.096320	1.114287
	H313	H	-0.031171	-0.101152	1.106177
	H314	H	-0.026296	-0.082022	1.108052
	O315	O	-0.047641	0.847502	0.018229
	H316	H	-0.051842	0.846183	0.022842
	H317	H	-0.047082	0.845000	0.025771
	O318	O	0.395530	0.582389	0.458648
	H319	H	0.385730	0.586449	0.452559
	H320	H	0.399610	0.587147	0.450321
	O321	O	1.134059	0.056337	0.108737
	H322	H	1.123704	0.061986	0.103315
	H323	H	1.119462	0.058042	0.115166
	O324	O	-0.052967	1.077926	0.010268
	H325	H	-0.047909	1.082264	-0.000267
	H326	H	-0.055179	1.089828	0.018315
	O327	O	-0.543268	1.450081	0.467122
	H328	H	-0.549362	1.440840	0.472318
	H329	H	-0.545586	1.450533	0.471207
	O330	O	0.449357	0.564364	0.521554
	H331	H	0.448210	0.549857	0.524490
	H332	H	0.445624	0.545420	0.510319
	O333	O	0.163474	0.995992	1.129873
	H334	H	0.153459	1.014262	1.128632
	H335	H	0.174599	0.997698	1.137017
	O336	O	0.917507	0.890324	1.106691
	H337	H	0.913552	0.883407	1.103754
	H338	H	0.930420	0.888018	1.117947
	O339	O	0.614794	0.367208	-0.382903
	H340	H	0.625632	0.364119	-0.400354
	H341	H	0.627425	0.380412	-0.391948
	O342	O	0.908946	0.133889	-0.053807
	H343	H	0.901460	0.121552	-0.066077
	H344	H	0.902311	0.127252	-0.050648
	O345	O	0.405617	0.414400	0.505038
	H346	H	0.420392	0.419534	0.511062
	H347	H	0.400642	0.420581	0.505160
	O348	O	0.971329	1.998667	1.171358
	H349	H	0.967922	2.006563	1.176529
	H350	H	0.970967	1.983258	1.149473
	O351	O	0.074226	0.995239	-0.045861
	H352	H	0.062669	0.988213	-0.039759
	H353	H	0.069251	0.984754	-0.027354
	O354	O	0.024632	1.027901	0.882986
	H355	H	0.031297	1.037952	0.888975
	H356	H	0.033367	1.025228	0.884571
	O357	O	0.343629	0.381978	0.637829
	H358	H	0.349349	0.383839	0.642393
	H359	H	0.345461	0.368847	0.633121
	O360	O	0.128607	0.059247	-0.065490
	H361	H	0.125098	0.069792	-0.062280
	H362	H	0.120487	0.062741	-0.068321
	O363	O	0.521621	0.385755	0.507826
	H364	H	0.533801	0.375168	0.485782
	H365	H	0.522628	0.404523	0.511268
	O366	O	0.554950	0.466357	0.401184
	H367	H	0.554885	0.471599	0.407672
	H368	H	0.543024	0.456842	0.400605
	O369	O	0.638871	0.502717	0.449031
	H370	H	0.648480	0.485454	0.450928
	H371	H	0.635835	0.499955	0.443058
	O372	O	0.681748	0.361847	0.458294
	H373	H	0.677108	0.373004	0.464633
	H374	H	0.696177	0.365264	0.447366
	O375	O	0.434861	0.657529	0.519374
	H376	H	0.435179	0.657368	0.508375
	H377	H	0.422354	0.666788	0.532432
	O378	O	0.631887	0.612181	0.546762
	H379	H	0.620979	0.625281	0.544484
	H380	H	0.629430	0.604568	0.533203
	O381	O	0.619737	0.488938	0.695091
	H382	H	0.625738	0.506583	0.685551
	H383	H	0.638371	0.490045	0.699875
	O384	O	-0.132920	0.923272	0.052163
	H385	H	-0.133101	0.923846	0.057914
	H386	H	-0.122052	0.931487	0.050258
	O387	O	0.556078	0.416312	1.326095
	H388	H	0.546780	0.407911	1.326281
	H389	H	0.549999	0.408836	1.323615
	O390	O	0.117364	0.842302	-0.059271
	H391	H	0.109059	0.850783	-0.057323
	H392	H	0.132223	0.847702	-0.054689
	O393	O	0.423996	0.419819	-0.559777
	H394	H	0.434264	0.427711	-0.557283
	H395	H	0.423297	0.436631	-0.549260
	O396	O	0.513400	0.630126	0.658197
	H397	H	0.509219	0.629655	0.650438
	H398	H	0.514711	0.621858	0.654622
	O399	O	0.650378	1.555283	1.418128
	H400	H	0.642034	1.555293	1.422739
	H401	H	0.654927	1.550601	1.412133
	O402	O	1.092847	0.825722	0.850306
	H403	H	1.110017	0.818276	0.855665
	H404	H	1.101683	0.817523	0.826736
	O405	O	0.478506	0.364027	0.631685
	H406	H	0.491059	0.359710	0.615333
	H407	H	0.478565	0.357505	0.638051
