data_Molecule from HDF5

_cell_length_a		16.547547
_cell_length_b		16.695939
_cell_length_c		16.656779
_cell_angle_alpha	89.966794
_cell_angle_beta	89.991072
_cell_angle_gamma	90.014907
_symmetry_space_group_name_H-M	'P 1'
_symmetry_Int_Tables_number		1

loop_
	_symmetry_equiv_pos_as_xyz
	x,y,z

loop_
	_atom_site_label
	_atom_site_type_symbol
	_atom_site_fract_x
	_atom_site_fract_y
	_atom_site_fract_z
	H0	H	0.392787	0.834017	0.735091
	H1	H	0.604377	0.144246	0.730973
	H2	H	0.604532	0.830631	0.291367
	H3	H	0.392211	0.140346	0.287241
	H4	H	0.721741	0.381545	0.858014
	H5	H	0.723710	0.595042	0.164464
	H6	H	0.279396	0.592104	0.854906
	H7	H	0.279323	0.385443	0.167066
	H8	H	0.843730	0.710558	0.403126
	H9	H	0.152705	0.712221	0.618680
	H10	H	0.845786	0.265322	0.617482
	H11	H	0.156079	0.266360	0.403835
	H12	H	0.847032	0.378546	0.735064
	H13	H	0.151713	0.598047	0.735915
	H14	H	0.843639	0.593749	0.288795
	H15	H	0.157526	0.384477	0.290225
	H16	H	0.392232	0.711081	0.857078
	H17	H	0.609195	0.712698	0.163894
	H18	H	0.602637	0.267900	0.856751
	H19	H	0.392976	0.266237	0.165981
	H20	H	0.719378	0.830738	0.409588
	H21	H	0.718336	0.144849	0.612609
	H22	H	0.277141	0.833325	0.618120
	H23	H	0.277650	0.141629	0.405188
	H24	H	0.894930	0.333900	0.232278
	H25	H	0.104106	0.644489	0.230688
	H26	H	0.107862	0.335272	0.786385
	H27	H	0.885297	0.637626	0.781884
	H28	H	0.225161	0.879544	0.357608
	H29	H	0.218852	0.090441	0.666935
	H30	H	0.779835	0.091932	0.354930
	H31	H	0.783100	0.886333	0.667744
	H32	H	0.343238	0.206543	0.908122
	H33	H	0.654987	0.209530	0.116977
	H34	H	0.343396	0.768030	0.115247
	H35	H	0.656257	0.767388	0.907523
	H36	H	0.344695	0.881133	0.233317
	H37	H	0.656653	0.092513	0.231989
	H38	H	0.344590	0.092172	0.790645
	H39	H	0.658004	0.886269	0.794557
	H40	H	0.895506	0.208414	0.354845
	H41	H	0.106001	0.210426	0.664384
	H42	H	0.109282	0.763237	0.356943
	H43	H	0.893920	0.766074	0.665320
	H44	H	0.219792	0.333218	0.905986
	H45	H	0.220027	0.644665	0.113139
	H46	H	0.778553	0.333438	0.116624
	H47	H	0.773391	0.639247	0.901429
	H48	H	0.407233	0.098843	0.598001
	H49	H	0.596507	0.874837	0.603125
	H50	H	0.590906	0.097893	0.423031
	H51	H	0.410695	0.877386	0.424958
	H52	H	0.590958	0.397305	0.125022
	H53	H	0.583906	0.574952	0.901241
	H54	H	0.418144	0.573348	0.118755
	H55	H	0.406730	0.394353	0.897765
	H56	H	0.110614	0.576568	0.421912
	H57	H	0.885276	0.578194	0.599367
	H58	H	0.109833	0.404320	0.597086
	H59	H	0.887523	0.398160	0.418987
	H60	H	0.113770	0.400753	0.601375
	H61	H	0.890200	0.575690	0.590645
	H62	H	0.111625	0.576301	0.421545
	H63	H	0.888060	0.397158	0.421867
	H64	H	0.411007	0.586518	0.124838
	H65	H	0.585511	0.575380	0.901622
	H66	H	0.587042	0.401218	0.122935
	H67	H	0.409021	0.399881	0.900065
	H68	H	0.592695	0.099796	0.418521
	H69	H	0.588597	0.876381	0.608213
	H70	H	0.411297	0.099631	0.605579
	H71	H	0.413299	0.875718	0.421739
	H72	H	0.907709	0.600589	0.099366
	H73	H	0.092827	0.376147	0.100961
	H74	H	0.088432	0.597942	0.925510
	H75	H	0.918759	0.377279	0.917984
	H76	H	0.090911	0.901673	0.622369
	H77	H	0.090614	0.072973	0.398863
	H78	H	0.908351	0.074677	0.621531
	H79	H	0.912896	0.897586	0.399538
	H80	H	0.613508	0.074520	0.915258
	H81	H	0.387883	0.079837	0.095739
	H82	H	0.614071	0.897366	0.103153
	H83	H	0.386852	0.898296	0.921164
	H84	H	0.611928	0.897117	0.096946
	H85	H	0.390839	0.069812	0.099252
	H86	H	0.616113	0.086663	0.921795
	H87	H	0.388467	0.898539	0.923744
	H88	H	0.915745	0.080669	0.621284
	H89	H	0.084792	0.076710	0.400402
	H90	H	0.082802	0.901535	0.617696
	H91	H	0.910088	0.898774	0.398037
	H92	H	0.088724	0.599913	0.920436
	H93	H	0.090728	0.376052	0.104494
	H94	H	0.913647	0.599615	0.102179
	H95	H	0.916092	0.380856	0.931261
	H96	H	0.415470	0.096123	0.598806
	H97	H	0.588946	0.878151	0.599080
	H98	H	0.587752	0.097636	0.419245
	H99	H	0.414484	0.879071	0.424701
	H100	H	0.585789	0.396034	0.124056
	H101	H	0.585598	0.574273	0.902632
	H102	H	0.402105	0.572920	0.123039
	H103	H	0.412783	0.394532	0.899550
	H104	H	0.111007	0.577120	0.422309
	H105	H	0.889155	0.568897	0.598052
	H106	H	0.111792	0.398062	0.595331
	H107	H	0.888936	0.400088	0.420988
	H108	H	0.912548	0.597818	0.095780
	H109	H	0.089124	0.377548	0.100972
	H110	H	0.084130	0.597938	0.922022
	H111	H	0.905781	0.374819	0.922969
	H112	H	0.085520	0.893863	0.622711
	H113	H	0.090838	0.080509	0.398049
	H114	H	0.907694	0.083244	0.624959
	H115	H	0.911525	0.900198	0.400103
	H116	H	0.610823	0.075966	0.928677
	H117	H	0.385684	0.076758	0.105795
	H118	H	0.611167	0.902407	0.100653
	H119	H	0.388192	0.900906	0.921767
	C120	C	0.378630	-0.004022	0.633578
	C121	C	0.621724	0.979860	0.633152
	C122	C	0.621931	-0.004730	0.389612
	C123	C	0.379299	0.979169	0.390639
	C124	C	0.620245	0.366158	0.021094
	C125	C	0.619925	0.608519	1.002932
	C126	C	0.378524	0.609406	0.019394
	C127	C	0.377425	0.365496	1.002212
	C128	C	0.008045	0.609199	0.389145
	C129	C	0.990069	0.608425	0.630738
	C130	C	0.009125	0.367458	0.630856
	C131	C	0.991817	0.366748	0.388553
	C132	C	0.878669	0.497051	0.131987
	C133	C	0.122253	0.479760	0.133057
	C134	C	0.120442	0.496890	0.889325
	C135	C	0.878198	0.478408	0.889199
	C136	C	0.121008	0.865612	0.519382
	C137	C	0.120890	0.108756	0.502053
	C138	C	0.878813	0.110027	0.519466
	C139	C	0.879555	0.867069	0.502235
	C140	C	0.509140	0.109492	0.890684
	C141	C	0.491344	0.108095	0.132653
	C142	C	0.508941	0.866274	0.132736
	C143	C	0.491424	0.867131	0.890827
	C144	C	0.375404	0.880122	0.694251
	C145	C	0.622582	0.097368	0.691184
	C146	C	0.622901	0.877607	0.331193
	C147	C	0.375186	0.094594	0.328856
	C148	C	0.680484	0.363986	0.904061
	C149	C	0.682745	0.612928	0.118450
	C150	C	0.319026	0.610866	0.902085
	C151	C	0.318865	0.365882	0.120162
	C152	C	0.890749	0.669975	0.385351
	C153	C	0.106341	0.671085	0.635958
	C154	C	0.892602	0.305707	0.635074
	C155	C	0.109556	0.306877	0.386132
	C156	C	0.893010	0.362257	0.693383
	C157	C	0.105770	0.614336	0.694189
	C158	C	0.890651	0.611848	0.328485
	C159	C	0.110008	0.365523	0.329655
	C160	C	0.375427	0.669943	0.903090
	C161	C	0.625573	0.671158	0.118169
	C162	C	0.621798	0.307272	0.903652
	C163	C	0.375182	0.306653	0.119641
	C164	C	0.680013	0.877401	0.389922
	C165	C	0.679262	0.097685	0.632166
	C166	C	0.317650	0.879947	0.636194
	C167	C	0.318126	0.095167	0.387369
	C168	C	0.876673	0.380333	0.192087
	C169	C	0.123255	0.597629	0.191202
	C170	C	0.124839	0.381375	0.827574
	C171	C	0.870428	0.592182	0.824743
	C172	C	0.183865	0.861844	0.403688
	C173	C	0.179662	0.109960	0.619788
	C174	C	0.819228	0.111117	0.402082
	C175	C	0.821515	0.866931	0.620235
	C176	C	0.390535	0.167514	0.889315
	C177	C	0.608423	0.169146	0.135442
	C178	C	0.390894	0.807076	0.134418
	C179	C	0.609395	0.807743	0.889321
	C180	C	0.391510	0.863473	0.193004
	C181	C	0.609211	0.110991	0.192526
	C182	C	0.391365	0.110734	0.831048
	C183	C	0.610285	0.866769	0.833179
	C184	C	0.876698	0.169035	0.401817
	C185	C	0.123551	0.169448	0.618633
	C186	C	0.126252	0.804057	0.403388
	C187	C	0.876883	0.807109	0.619059
	C188	C	0.180561	0.380151	0.887162
	C189	C	0.180833	0.597754	0.132894
	C190	C	0.818836	0.380049	0.134486
	C191	C	0.814156	0.592849	0.883880
	C192	C	0.404327	0.077149	0.608054
	C193	C	0.597988	0.897766	0.610143
	C194	C	0.597482	0.077131	0.413383
	C195	C	0.405697	0.898319	0.416473
	C196	C	0.594979	0.391019	0.102750
	C197	C	0.592732	0.582232	0.922669
	C198	C	0.403417	0.584479	0.101136
	C199	C	0.402411	0.389462	0.920318
	C200	C	0.089730	0.584007	0.414785
	C201	C	0.909190	0.581939	0.603651
	C202	C	0.090534	0.393527	0.605194
	C203	C	0.909574	0.391236	0.413605
	C204	C	0.903891	0.578192	0.106445
	C205	C	0.097932	0.397917	0.109188
	C206	C	0.094295	0.577591	0.915259
	C207	C	0.905802	0.398383	0.916449
	C208	C	0.094181	0.891449	0.599880
	C209	C	0.095979	0.083860	0.420412
	C210	C	0.903522	0.086234	0.601227
	C211	C	0.904587	0.891763	0.420432
	C212	C	0.592121	0.085777	0.915070
	C213	C	0.409449	0.082747	0.107646
	C214	C	0.590945	0.891544	0.107362
	C215	C	0.409321	0.891981	0.915438
	Zn216	Zn	0.500509	-0.011732	0.762713
	Zn217	Zn	0.500392	-0.012800	0.260684
	Zn218	Zn	0.748980	0.487488	0.011473
	Zn219	Zn	0.249650	0.487706	0.010291
	Zn220	Zn	-0.000953	0.737252	0.510101
	Zn221	Zn	0.000498	0.238579	0.510104
	Zn222	Zn	-0.000545	0.487781	0.759815
	Zn223	Zn	0.000240	0.488579	0.260780
	Zn224	Zn	0.499746	0.738232	0.011408
	Zn225	Zn	0.498829	0.237166	0.011869
	Zn226	Zn	0.750864	-0.012117	0.510944
	Zn227	Zn	0.249619	-0.012690	0.511436
	N228	N	0.412511	0.953533	0.692988
	N229	N	0.587604	0.022857	0.692237
	N230	N	0.587704	0.952113	0.330690
	N231	N	0.412632	0.021418	0.330612
	N232	N	0.679570	0.400127	0.978164
	N233	N	0.679315	0.574487	0.045888
	N234	N	0.320749	0.573782	0.975565
	N235	N	0.320016	0.401861	0.046126
	N236	N	0.964967	0.668943	0.422203
	N237	N	0.033406	0.667537	0.597126
	N238	N	0.965853	0.308705	0.596689
	N239	N	0.034891	0.307462	0.422141
	N240	N	0.966595	0.399935	0.690882
	N241	N	0.032380	0.575929	0.691217
	N242	N	0.964716	0.574921	0.330544
	N243	N	0.035672	0.402008	0.330844
	N244	N	0.411576	0.669316	0.977160
	N245	N	0.587413	0.668779	0.045254
	N246	N	0.585023	0.308418	0.977498
	N247	N	0.410806	0.306307	0.045255
	N248	N	0.679870	0.951744	0.425360
	N249	N	0.679285	0.023448	0.597010
	N250	N	0.319504	0.953186	0.599110
	N251	N	0.320626	0.022209	0.425273
	N252	N	0.913087	0.454095	0.190757
	N253	N	0.087848	0.523273	0.191576
	N254	N	0.088037	0.455029	0.828824
	N255	N	0.909768	0.519916	0.827999
	N256	N	0.180770	0.899477	0.476821
	N257	N	0.178482	0.073318	0.546130
	N258	N	0.819967	0.075456	0.476331
	N259	N	0.822834	0.903350	0.546355
	N260	N	0.465166	0.167349	0.925256
	N261	N	0.533987	0.167760	0.099154
	N262	N	0.465103	0.808584	0.097639
	N263	N	0.534394	0.807518	0.924019
	N264	N	0.466158	0.899174	0.192351
	N265	N	0.535270	0.073719	0.191023
	N266	N	0.466334	0.075623	0.831645
	N267	N	0.535644	0.902806	0.833587
	N268	N	0.912852	0.168888	0.475945
	N269	N	0.088059	0.169142	0.544222
	N270	N	0.087943	0.805910	0.476426
	N271	N	0.912250	0.806912	0.544513
	N272	N	0.178135	0.453130	0.924849
	N273	N	0.180799	0.523311	0.097790
	N274	N	0.819841	0.453707	0.097868
	N275	N	0.818802	0.520952	0.923561
	O276	O	0.026589	1.145170	-0.010271
	H277	H	0.017777	1.142191	-0.034833
	H278	H	0.026779	1.140063	-0.008539
	O279	O	0.292144	0.693572	0.309647
	H280	H	0.307496	0.698040	0.347383
	H281	H	0.322682	0.684939	0.312558
	O282	O	0.782120	0.081692	0.988824
	H283	H	0.786435	0.081701	0.993413
	H284	H	0.771665	0.079172	0.997709
	O285	O	0.692063	0.691126	0.508958
	H286	H	0.712839	0.695196	0.508165
	H287	H	0.679324	0.683980	0.494704
	O288	O	0.771624	0.754559	0.241792
	H289	H	0.795343	0.740816	0.252166
	H290	H	0.769025	0.745633	0.220762
	O291	O	0.703656	0.545249	0.509330
	H292	H	0.698863	0.530415	0.504076
	H293	H	0.696162	0.548214	0.492844
	O294	O	1.296779	0.279802	0.718272
	H295	H	1.320439	0.287348	0.711753
	H296	H	1.265913	0.247673	0.751982
	O297	O	0.449408	0.429598	0.404157
	H298	H	0.460772	0.430769	0.400035
	H299	H	0.430360	0.433306	0.410837
	O300	O	0.219070	0.200445	1.041790
	H301	H	0.209459	0.204506	1.031997
	H302	H	0.229558	0.210468	1.034951
	O303	O	0.652958	0.360052	0.560813
	H304	H	0.672977	0.343685	0.554199
	H305	H	0.654993	0.368107	0.549523
	O306	O	0.641470	0.678534	0.349631
	H307	H	0.627651	0.686743	0.383270
	H308	H	0.655346	0.663775	0.345384
	O309	O	0.490475	0.582627	0.510299
	H310	H	0.492243	0.589812	0.510328
	H311	H	0.496572	0.578974	0.505985
	O312	O	0.463682	0.704265	0.283219
	H313	H	0.478531	0.720347	0.280626
	H314	H	0.474845	0.721022	0.289579
	O315	O	0.961281	0.793475	1.172522
	H316	H	0.982516	0.798788	1.181046
	H317	H	0.981495	0.794592	1.182025
	O318	O	0.712863	1.283182	0.300014
	H319	H	0.700036	1.263881	0.290102
	H320	H	0.721501	1.258909	0.293539
	O321	O	0.028999	1.187823	1.216433
	H322	H	0.043638	1.197526	1.236756
	H323	H	0.044321	1.179476	1.221691
	O324	O	1.055009	0.921444	0.240817
	H325	H	1.078656	0.930099	0.239993
	H326	H	1.048296	0.932924	0.225565
	O327	O	-0.224368	-0.046743	1.236485
	H328	H	-0.228555	-0.083129	1.241298
	H329	H	-0.245167	-0.064280	1.253867
	O330	O	0.645419	0.593596	0.605038
	H331	H	0.649579	0.598245	0.614927
	H332	H	0.653021	0.611938	0.620434
	O333	O	0.516025	0.443057	0.724913
	H334	H	0.530457	0.440854	0.717689
	H335	H	0.521006	0.429740	0.725605
	O336	O	0.628302	0.533585	0.658378
	H337	H	0.624154	0.545413	0.649433
	H338	H	0.646872	0.545631	0.667712
	O339	O	1.072413	0.042142	0.798005
	H340	H	1.080130	0.027743	0.806291
	H341	H	1.071816	0.059919	0.794677
	O342	O	0.215609	-0.116764	-0.131709
	H343	H	0.218616	-0.126844	-0.152421
	H344	H	0.223384	-0.138802	-0.138540
	O345	O	0.212477	1.004416	0.894600
	H346	H	0.226209	1.005261	0.886359
	H347	H	0.212694	0.972480	0.895992
	O348	O	0.219285	-0.022103	0.182000
	H349	H	0.231894	-0.013159	0.187662
	H350	H	0.221569	-0.005176	0.183601
	O351	O	0.790299	0.774621	0.044371
	H352	H	0.803384	0.768078	0.032056
	H353	H	0.779364	0.762584	0.044164
	O354	O	-0.017036	0.108852	1.039060
	H355	H	-0.002121	0.111323	1.048796
	H356	H	-0.007338	0.100580	1.028187
	O357	O	0.722488	0.268900	0.486683
	H358	H	0.723638	0.259012	0.475157
	H359	H	0.734503	0.254918	0.467685
	O360	O	0.309629	0.674398	0.697822
	H361	H	0.326676	0.661148	0.673773
	H362	H	0.321375	0.640902	0.691757
	O363	O	-0.154273	-0.023868	-0.092884
	H364	H	-0.159669	-0.034072	-0.094093
	H365	H	-0.160189	-0.017112	-0.097731
	O366	O	0.689826	0.440017	0.651079
	H367	H	0.696280	0.456470	0.663111
	H368	H	0.689562	0.451280	0.633405
	O369	O	0.864437	0.048197	0.164513
	H370	H	0.882836	0.039640	0.173392
	H371	H	0.850649	0.030169	0.167617
	O372	O	0.964579	1.075196	0.186136
	H373	H	0.969471	1.078918	0.183204
	H374	H	0.956144	1.054412	0.197568
	O375	O	1.182322	-0.130752	0.019735
	H376	H	1.191929	-0.127461	0.017250
	H377	H	1.187554	-0.139769	0.019515
	O378	O	0.514370	0.518403	0.486568
	H379	H	0.511358	0.521076	0.481352
	H380	H	0.520380	0.520375	0.482935
	O381	O	-0.170610	1.019782	0.784689
	H382	H	-0.184249	1.031861	0.774501
	H383	H	-0.166329	1.039303	0.777815
	O384	O	0.814702	-0.198362	0.823496
	H385	H	0.839820	-0.185992	0.837062
	H386	H	0.829051	-0.199462	0.824601
	O387	O	1.012329	1.109377	-0.075786
	H388	H	1.001282	1.107833	-0.078085
	H389	H	1.001402	1.114386	-0.081016
	O390	O	0.690176	0.298148	0.705495
	H391	H	0.683328	0.312703	0.692324
	H392	H	0.675310	0.318914	0.688512
	O393	O	0.320422	0.301718	0.323367
	H394	H	0.345792	0.309646	0.322571
	H395	H	0.334685	0.317085	0.344887
	O396	O	0.466252	0.267162	0.726673
	H397	H	0.457795	0.276900	0.715416
	H398	H	0.468811	0.238000	0.751198
	O399	O	0.194541	0.047271	1.088346
	H400	H	0.201922	0.043728	1.084254
	H401	H	0.200818	0.051891	1.101094
	O402	O	0.815741	0.170095	0.018470
	H403	H	0.814268	0.148947	0.030616
	H404	H	0.807180	0.182401	0.032232
	O405	O	1.193294	0.183078	0.817918
	H406	H	1.187793	0.156435	0.842269
	H407	H	1.157852	0.171908	0.825339
	O408	O	-0.005215	0.212992	-0.139276
	H409	H	-0.036407	0.211336	-0.140842
	H410	H	-0.020885	0.223737	-0.155530
	O411	O	0.938184	0.750578	0.946381
	H412	H	0.955600	0.745156	0.947199
	H413	H	0.955198	0.749286	0.962782
	O414	O	0.527683	0.718420	0.738913
	H415	H	0.530593	0.680946	0.741888
	H416	H	0.529742	0.750432	0.778719
	O417	O	0.469747	0.440413	0.306091
	H418	H	0.457555	0.441024	0.296379
	H419	H	0.491206	0.451141	0.298158
	O420	O	0.276816	0.523307	0.288807
	H421	H	0.282765	0.542583	0.280379
	H422	H	0.256717	0.536859	0.265285
	O423	O	-0.030375	-0.233089	1.111065
	H424	H	-0.012879	-0.233628	1.118855
	H425	H	-0.020285	-0.238856	1.125831
	O426	O	0.522646	0.275755	0.296058
	H427	H	0.526553	0.265025	0.304258
	H428	H	0.522884	0.273378	0.290225
	O429	O	0.873583	0.949974	1.062058
	H430	H	0.870562	0.941501	1.060813
	H431	H	0.873883	0.946509	1.051902
	O432	O	0.723880	0.456133	0.286720
	H433	H	0.727353	0.424932	0.282872
	H434	H	0.747978	0.438812	0.265883
	O435	O	0.213335	0.774689	-0.199972
	H436	H	0.195994	0.761274	-0.198719
	H437	H	0.226266	0.756542	-0.226555
	O438	O	-0.189546	0.181777	0.201716
	H439	H	-0.159596	0.168968	0.189999
	H440	H	-0.180790	0.154790	0.181603
	O441	O	0.024782	-0.237035	-0.201586
	H442	H	0.030957	-0.245863	-0.221319
	H443	H	0.024489	-0.232989	-0.198412
	O444	O	0.207858	0.195434	0.220151
	H445	H	0.207317	0.196096	0.184170
	H446	H	0.229295	0.220622	0.243567
	O447	O	-0.893174	1.992994	1.053160
	H448	H	-0.894370	1.991746	1.064592
	H449	H	-0.895271	1.993271	1.052012
	O450	O	-0.287861	0.705106	0.726889
	H451	H	-0.266474	0.728025	0.740758
	H452	H	-0.317542	0.707109	0.713217
	O453	O	0.609909	0.543859	0.321098
	H454	H	0.607646	0.552900	0.322142
	H455	H	0.638873	0.527817	0.312507
	O456	O	0.275316	0.262617	0.544185
	H457	H	0.254352	0.256586	0.549262
	H458	H	0.265310	0.255000	0.569908
	O459	O	1.151759	0.791404	0.205121
	H460	H	1.164486	0.787436	0.228917
	H461	H	1.152294	0.799022	0.217053
	O462	O	0.298392	0.603857	0.530379
	H463	H	0.296513	0.590375	0.525548
	H464	H	0.289571	0.585321	0.546122
	O465	O	0.353514	-0.514150	0.629850
	H466	H	0.355549	-0.533423	0.611736
	H467	H	0.359442	-0.525479	0.631020
	O468	O	0.432924	0.321391	0.446667
	H469	H	0.426301	0.316230	0.444978
	H470	H	0.422462	0.316794	0.455919
	O471	O	0.276280	0.461131	0.729216
	H472	H	0.288914	0.438176	0.721950
	H473	H	0.249263	0.451215	0.753107
	O474	O	0.040832	0.983168	-0.017080
	H475	H	0.039497	0.967151	-0.019221
	H476	H	0.034348	0.994438	-0.009055
	O477	O	0.443178	0.723590	1.568753
	H478	H	0.442418	0.720790	1.583874
	H479	H	0.434135	0.726517	1.580255
	O480	O	0.511630	0.266568	0.529865
	H481	H	0.509761	0.276892	0.528524
	H482	H	0.499523	0.258512	0.541182
	O483	O	0.311476	0.448820	0.411263
	H484	H	0.328043	0.445307	0.405332
	H485	H	0.304314	0.460376	0.385777
	O486	O	0.512354	0.414166	0.488885
	H487	H	0.520682	0.428485	0.486760
	H488	H	0.526371	0.414307	0.487222
	O489	O	1.439589	0.570561	0.700726
	H490	H	1.434712	0.558428	0.695952
	H491	H	1.447598	0.547243	0.701508
	O492	O	-0.094738	-0.051944	-0.203722
	H493	H	-0.095286	-0.035741	-0.208390
	H494	H	-0.102177	-0.045064	-0.199745
	O495	O	0.057018	0.862515	0.930045
	H496	H	0.074014	0.869544	0.935756
	H497	H	0.037479	0.872243	0.931383
	O498	O	0.789322	1.199488	0.804940
	H499	H	0.760750	1.223905	0.780020
	H500	H	0.788070	1.196411	0.844799
	O501	O	0.393866	0.710354	0.461567
	H502	H	0.384369	0.708917	0.481085
	H503	H	0.382662	0.704055	0.472843
