data_Molecule from HDF5

_cell_length_a		16.278872
_cell_length_b		16.212035
_cell_length_c		16.206933
_cell_angle_alpha	90.263355
_cell_angle_beta	90.085079
_cell_angle_gamma	90.096575
_symmetry_space_group_name_H-M	'P 1'
_symmetry_Int_Tables_number		1

loop_
	_symmetry_equiv_pos_as_xyz
	x,y,z

loop_
	_atom_site_label
	_atom_site_type_symbol
	_atom_site_fract_x
	_atom_site_fract_y
	_atom_site_fract_z
	H0	H	0.392885	0.839795	0.710544
	H1	H	0.588824	0.169529	0.714153
	H2	H	0.588505	0.841170	0.283527
	H3	H	0.393082	0.170177	0.287107
	H4	H	0.704079	0.404512	0.835779
	H5	H	0.703965	0.604928	0.163789
	H6	H	0.275427	0.601926	0.835441
	H7	H	0.276231	0.407448	0.164483
	H8	H	0.825476	0.718961	0.401517
	H9	H	0.153537	0.721268	0.599107
	H10	H	0.826400	0.290169	0.598324
	H11	H	0.154548	0.292420	0.401547
	H12	H	0.825857	0.406377	0.713468
	H13	H	0.153523	0.604970	0.714776
	H14	H	0.826040	0.602823	0.285647
	H15	H	0.154628	0.408420	0.285467
	H16	H	0.390462	0.717366	0.835157
	H17	H	0.588157	0.720195	0.163493
	H18	H	0.586634	0.289963	0.835495
	H19	H	0.391063	0.291448	0.164418
	H20	H	0.704733	0.840260	0.398969
	H21	H	0.705132	0.169558	0.599517
	H22	H	0.276019	0.841052	0.596811
	H23	H	0.275659	0.169617	0.400185
	H24	H	0.892364	0.340637	0.210531
	H25	H	0.086395	0.670387	0.212145
	H26	H	0.087353	0.340869	0.784818
	H27	H	0.891240	0.669992	0.786863
	H28	H	0.203170	0.906324	0.334558
	H29	H	0.204437	0.104762	0.663874
	H30	H	0.775174	0.104187	0.335363
	H31	H	0.776657	0.907311	0.663940
	H32	H	0.325526	0.216756	0.902644
	H33	H	0.653515	0.219482	0.098535
	H34	H	0.325292	0.792069	0.095887
	H35	H	0.653992	0.790855	0.901948
	H36	H	0.325550	0.908724	0.211874
	H37	H	0.653865	0.103426	0.213621
	H38	H	0.325369	0.100619	0.786437
	H39	H	0.654344	0.908083	0.786364
	H40	H	0.894365	0.216543	0.333549
	H41	H	0.087912	0.219759	0.664164
	H42	H	0.087858	0.791207	0.334726
	H43	H	0.893591	0.793168	0.664619
	H44	H	0.202948	0.340337	0.900325
	H45	H	0.205213	0.668647	0.099997
	H46	H	0.774850	0.341324	0.097889
	H47	H	0.773204	0.667974	0.899362
	H48	H	0.399501	0.124150	0.601349
	H49	H	0.573109	0.892802	0.585028
	H50	H	0.582022	0.120985	0.408300
	H51	H	0.399049	0.889392	0.407566
	H52	H	0.582807	0.413262	0.117177
	H53	H	0.574298	0.595944	0.884509
	H54	H	0.394546	0.586631	0.114886
	H55	H	0.396543	0.404518	0.880668
	H56	H	0.110109	0.607867	0.401907
	H57	H	0.871402	0.599675	0.598474
	H58	H	0.107929	0.416222	0.600932
	H59	H	0.873534	0.417619	0.400039
	H60	H	0.107796	0.404686	0.589146
	H61	H	0.873480	0.603564	0.589810
	H62	H	0.104547	0.599422	0.415724
	H63	H	0.870512	0.404223	0.402769
	H64	H	0.407804	0.603486	0.115324
	H65	H	0.584938	0.604191	0.879443
	H66	H	0.582022	0.412064	0.117255
	H67	H	0.390237	0.413874	0.881706
	H68	H	0.586198	0.122553	0.408703
	H69	H	0.595889	0.886204	0.584793
	H70	H	0.403140	0.119606	0.586762
	H71	H	0.392239	0.887599	0.406750
	H72	H	0.898373	0.624310	0.098982
	H73	H	0.081050	0.387182	0.095923
	H74	H	0.088160	0.624145	0.909149
	H75	H	0.893767	0.386714	0.907485
	H76	H	0.083776	0.904444	0.619544
	H77	H	0.082976	0.096912	0.383053
	H78	H	0.893147	0.102498	0.619021
	H79	H	0.903755	0.915787	0.384858
	H80	H	0.607205	0.110271	0.912926
	H81	H	0.374681	0.095473	0.087907
	H82	H	0.606525	0.905682	0.086493
	H83	H	0.375784	0.913663	0.912479
	H84	H	0.602873	0.920444	0.088913
	H85	H	0.371873	0.095432	0.100399
	H86	H	0.601162	0.087393	0.913763
	H87	H	0.372465	0.915707	0.897632
	H88	H	0.896589	0.092775	0.614682
	H89	H	0.082805	0.101049	0.381526
	H90	H	0.092776	0.918422	0.618254
	H91	H	0.896732	0.903081	0.379156
	H92	H	0.081062	0.623310	0.902661
	H93	H	0.082013	0.389628	0.088161
	H94	H	0.900780	0.620603	0.089412
	H95	H	0.896803	0.387589	0.902902
	H96	H	0.388173	0.124013	0.590343
	H97	H	0.583233	0.884582	0.605354
	H98	H	0.584090	0.122616	0.404572
	H99	H	0.397166	0.886020	0.401944
	H100	H	0.583938	0.412057	0.117319
	H101	H	0.587482	0.589784	0.883009
	H102	H	0.388146	0.605739	0.121925
	H103	H	0.400262	0.413676	0.884520
	H104	H	0.106523	0.591016	0.400591
	H105	H	0.874865	0.594555	0.590431
	H106	H	0.102053	0.420107	0.586158
	H107	H	0.876466	0.411997	0.412977
	H108	H	0.890432	0.624309	0.090918
	H109	H	0.087471	0.385433	0.092965
	H110	H	0.079551	0.620280	0.911554
	H111	H	0.898570	0.389367	0.908913
	H112	H	0.077075	0.918281	0.612881
	H113	H	0.086340	0.098653	0.380450
	H114	H	0.903942	0.100490	0.615721
	H115	H	0.888068	0.915778	0.381047
	H116	H	0.610647	0.096862	0.893131
	H117	H	0.370843	0.105689	0.093222
	H118	H	0.609961	0.911995	0.100345
	H119	H	0.370080	0.901700	0.904069
	C120	C	0.368776	0.013750	0.620533
	C121	C	0.612037	0.996799	0.620631
	C122	C	0.612068	0.013177	0.378145
	C123	C	0.368376	0.996669	0.377662
	C124	C	0.610982	0.383448	0.008612
	C125	C	0.611093	0.626070	0.990894
	C126	C	0.368234	0.626146	0.008244
	C127	C	0.367619	0.382682	0.991214
	C128	C	-0.001538	0.627481	0.378012
	C129	C	0.981592	0.627707	0.621504
	C130	C	-0.001845	0.384428	0.620853
	C131	C	0.981853	0.383551	0.377298
	C132	C	0.868120	0.513983	0.120740
	C133	C	0.111847	0.496363	0.121135
	C134	C	0.110977	0.513791	0.878519
	C135	C	0.867554	0.496231	0.877832
	C136	C	0.111811	0.884500	0.507601
	C137	C	0.112576	0.127744	0.490602
	C138	C	0.869412	0.126796	0.507562
	C139	C	0.868792	0.883868	0.491021
	C140	C	0.498023	0.125818	0.878184
	C141	C	0.481063	0.127086	0.121994
	C142	C	0.498028	0.884454	0.119919
	C143	C	0.481424	0.882213	0.876862
	C144	C	0.371590	0.889430	0.674276
	C145	C	0.609279	0.120509	0.676348
	C146	C	0.609022	0.889860	0.322014
	C147	C	0.372070	0.120886	0.324157
	C148	C	0.665943	0.384788	0.884700
	C149	C	0.666142	0.624801	0.114583
	C150	C	0.313301	0.622550	0.884395
	C151	C	0.313199	0.386144	0.115174
	C152	C	0.874662	0.681482	0.380938
	C153	C	0.104914	0.682985	0.619140
	C154	C	0.875068	0.328523	0.618272
	C155	C	0.105533	0.329618	0.380531
	C156	C	0.874764	0.386346	0.675659
	C157	C	0.104660	0.625391	0.676956
	C158	C	0.874963	0.624016	0.323098
	C159	C	0.105570	0.386771	0.322623
	C160	C	0.370463	0.679931	0.884376
	C161	C	0.608667	0.681920	0.114634
	C162	C	0.607795	0.327875	0.884528
	C163	C	0.370579	0.328855	0.115312
	C164	C	0.667250	0.889603	0.379187
	C165	C	0.666925	0.120619	0.619231
	C166	C	0.313718	0.889967	0.617383
	C167	C	0.313735	0.120553	0.380481
	C168	C	0.871138	0.389941	0.174108
	C169	C	0.108277	0.620713	0.175520
	C170	C	0.107764	0.389726	0.823061
	C171	C	0.870591	0.620392	0.823715
	C172	C	0.165457	0.886580	0.383623
	C173	C	0.166540	0.125000	0.614929
	C174	C	0.813676	0.124439	0.383946
	C175	C	0.813978	0.886763	0.614904
	C176	C	0.374403	0.179598	0.881507
	C177	C	0.604715	0.181601	0.119039
	C178	C	0.374177	0.829887	0.116907
	C179	C	0.604766	0.828007	0.880542
	C180	C	0.374428	0.887654	0.174545
	C181	C	0.604786	0.124203	0.176447
	C182	C	0.374409	0.121984	0.823628
	C183	C	0.605257	0.886288	0.823472
	C184	C	0.872507	0.180425	0.383253
	C185	C	0.109030	0.182335	0.614955
	C186	C	0.107971	0.829339	0.383851
	C187	C	0.872379	0.830308	0.615324
	C188	C	0.165128	0.389530	0.880569
	C189	C	0.167100	0.619842	0.119518
	C190	C	0.812744	0.390431	0.117971
	C191	C	0.812120	0.619693	0.879751
	C192	C	0.390439	0.100257	0.599179
	C193	C	0.590388	0.910361	0.598332
	C194	C	0.590444	0.099787	0.400757
	C195	C	0.389848	0.910070	0.399147
	C196	C	0.589303	0.405810	0.094913
	C197	C	0.588847	0.603239	0.904449
	C198	C	0.390339	0.604822	0.095141
	C199	C	0.389202	0.404262	0.904607
	C200	C	0.084746	0.605907	0.399642
	C201	C	0.895538	0.605499	0.599318
	C202	C	0.083825	0.407098	0.598763
	C203	C	0.895839	0.404947	0.398846
	C204	C	0.889849	0.600791	0.099251
	C205	C	0.089930	0.409651	0.098971
	C206	C	0.089430	0.600291	0.901089
	C207	C	0.889710	0.410108	0.899879
	C208	C	0.090745	0.907038	0.594544
	C209	C	0.090665	0.105430	0.404144
	C210	C	0.891277	0.105083	0.593906
	C211	C	0.889904	0.905146	0.404165
	C212	C	0.584243	0.104520	0.900143
	C213	C	0.394794	0.105269	0.100290
	C214	C	0.584243	0.906257	0.098232
	C215	C	0.394938	0.903861	0.898227
	Zn216	Zn	0.490091	0.004740	0.748523
	Zn217	Zn	0.489913	0.005432	0.249924
	Zn218	Zn	0.739604	0.504861	-0.000457
	Zn219	Zn	0.240181	0.504418	-0.000245
	Zn220	Zn	-0.009843	0.756105	0.499903
	Zn221	Zn	-0.009698	0.255403	0.499279
	Zn222	Zn	-0.010804	0.505748	0.750135
	Zn223	Zn	-0.009998	0.505340	0.248904
	Zn224	Zn	0.489557	0.754445	-0.000355
	Zn225	Zn	0.489536	0.255215	0.000169
	Zn226	Zn	0.741097	0.005214	0.499232
	Zn227	Zn	0.240318	0.005160	0.499002
	N228	N	0.405658	0.967165	0.675925
	N229	N	0.575728	0.042511	0.677329
	N230	N	0.575376	0.967543	0.321540
	N231	N	0.405152	0.042908	0.322284
	N232	N	0.668069	0.418522	0.962683
	N233	N	0.667719	0.590589	0.036698
	N234	N	0.311915	0.589766	0.962499
	N235	N	0.311617	0.419124	0.037198
	N236	N	0.952381	0.683555	0.414419
	N237	N	0.027266	0.684529	0.585592
	N238	N	0.952679	0.327114	0.584868
	N239	N	0.027842	0.327323	0.413700
	N240	N	0.952139	0.420408	0.677561
	N241	N	0.027016	0.591822	0.678734
	N242	N	0.952976	0.591148	0.320957
	N243	N	0.027675	0.419652	0.320405
	N244	N	0.404096	0.681975	0.962329
	N245	N	0.575268	0.682932	0.036645
	N246	N	0.574345	0.326964	0.962516
	N247	N	0.403639	0.326642	0.037156
	N248	N	0.669016	0.967387	0.413619
	N249	N	0.668946	0.042768	0.585385
	N250	N	0.311722	0.968184	0.584889
	N251	N	0.311478	0.042347	0.413211
	N252	N	0.904875	0.467781	0.176040
	N253	N	0.074380	0.542796	0.176427
	N254	N	0.074643	0.467863	0.821756
	N255	N	0.904421	0.542598	0.822432
	N256	N	0.167907	0.919951	0.461772
	N257	N	0.169015	0.091892	0.536624
	N258	N	0.811596	0.091796	0.462118
	N259	N	0.811878	0.919365	0.536577
	N260	N	0.452123	0.181930	0.914764
	N261	N	0.526896	0.183698	0.085904
	N262	N	0.451873	0.827739	0.083722
	N263	N	0.526583	0.825223	0.912587
	N264	N	0.452444	0.920694	0.176717
	N265	N	0.526979	0.091042	0.178330
	N266	N	0.452430	0.089200	0.821414
	N267	N	0.527436	0.919172	0.820938
	N268	N	0.906425	0.181889	0.461106
	N269	N	0.076309	0.184304	0.536669
	N270	N	0.075442	0.827951	0.462130
	N271	N	0.905386	0.828287	0.537401
	N272	N	0.167074	0.467450	0.914511
	N273	N	0.169293	0.541551	0.086577
	N274	N	0.811079	0.468702	0.085454
	N275	N	0.809996	0.541640	0.912554
	O276	O	0.547187	-0.478821	0.535838
	H277	H	0.552174	-0.488154	0.528113
	H278	H	0.554846	-0.473758	0.538873
	O279	O	0.517291	0.545297	0.598628
	H280	H	0.519666	0.534411	0.598516
	H281	H	0.521151	0.547746	0.609097
	O282	O	0.541980	0.488208	0.497256
	H283	H	0.543638	0.479927	0.489539
	H284	H	0.538407	0.488612	0.495132
	O285	O	0.509984	0.510051	0.574557
	H286	H	0.511327	0.509358	0.583414
	H287	H	0.504053	0.514135	0.573189
	O288	O	0.545675	0.485673	0.580580
	H289	H	0.540386	0.487706	0.581980
	H290	H	0.550310	0.490331	0.588045
	O291	O	0.523731	0.449747	0.526012
	H292	H	0.520923	0.441930	0.542162
	H293	H	0.528233	0.463449	0.527313
	O294	O	0.469344	0.526618	0.530256
	H295	H	0.464584	0.541819	0.534415
	H296	H	0.464164	0.513140	0.527214
	O297	O	1.534643	0.499479	0.535166
	H298	H	1.530370	0.507082	0.537941
	H299	H	1.540226	0.502789	0.528178
