data_Molecule from HDF5

_cell_length_a		16.569077
_cell_length_b		16.498359
_cell_length_c		16.650362
_cell_angle_alpha	90.050073
_cell_angle_beta	90.014800
_cell_angle_gamma	90.041641
_symmetry_space_group_name_H-M	'P 1'
_symmetry_Int_Tables_number		1

loop_
	_symmetry_equiv_pos_as_xyz
	x,y,z

loop_
	_atom_site_label
	_atom_site_type_symbol
	_atom_site_fract_x
	_atom_site_fract_y
	_atom_site_fract_z
	H0	H	0.413501	0.831655	0.725354
	H1	H	0.621428	0.147651	0.727642
	H2	H	0.622864	0.834946	0.282926
	H3	H	0.407996	0.144392	0.283084
	H4	H	0.740466	0.381056	0.852597
	H5	H	0.737316	0.595755	0.162820
	H6	H	0.293475	0.595310	0.852501
	H7	H	0.291690	0.381968	0.161188
	H8	H	0.859500	0.712326	0.399269
	H9	H	0.169981	0.711476	0.612334
	H10	H	0.858465	0.267182	0.612701
	H11	H	0.173277	0.273082	0.406741
	H12	H	0.858686	0.383531	0.729126
	H13	H	0.169071	0.597523	0.730179
	H14	H	0.860643	0.597964	0.281445
	H15	H	0.171726	0.384988	0.286493
	H16	H	0.411684	0.709854	0.851040
	H17	H	0.621688	0.712626	0.161721
	H18	H	0.621674	0.266551	0.851133
	H19	H	0.408234	0.265248	0.160719
	H20	H	0.738100	0.834823	0.399820
	H21	H	0.737098	0.148240	0.611471
	H22	H	0.297511	0.831380	0.609278
	H23	H	0.292659	0.144734	0.400851
	H24	H	0.908916	0.332056	0.229345
	H25	H	0.119750	0.646062	0.228208
	H26	H	0.119278	0.333288	0.786497
	H27	H	0.911183	0.645477	0.787172
	H28	H	0.237315	0.883443	0.350884
	H29	H	0.232623	0.088940	0.663394
	H30	H	0.792473	0.097557	0.349916
	H31	H	0.793700	0.886435	0.661761
	H32	H	0.357774	0.205602	0.906365
	H33	H	0.671641	0.212267	0.112585
	H34	H	0.360157	0.769281	0.110048
	H35	H	0.674528	0.771013	0.903380
	H36	H	0.361536	0.883716	0.228515
	H37	H	0.670588	0.099247	0.231432
	H38	H	0.359440	0.092584	0.786735
	H39	H	0.674368	0.886507	0.786766
	H40	H	0.910863	0.211979	0.349498
	H41	H	0.115632	0.205875	0.664155
	H42	H	0.116367	0.770201	0.349569
	H43	H	0.909184	0.768036	0.661292
	H44	H	0.235362	0.333038	0.903131
	H45	H	0.235425	0.646712	0.111578
	H46	H	0.792570	0.332349	0.113874
	H47	H	0.797087	0.647038	0.905840
	H48	H	0.422682	0.104476	0.600090
	H49	H	0.601277	0.880256	0.593611
	H50	H	0.607325	0.103839	0.418616
	H51	H	0.428603	0.878429	0.419091
	H52	H	0.608891	0.403681	0.118788
	H53	H	0.604601	0.576814	0.896303
	H54	H	0.422816	0.578521	0.119902
	H55	H	0.420260	0.394912	0.891855
	H56	H	0.125245	0.576006	0.421202
	H57	H	0.901657	0.577920	0.596681
	H58	H	0.125844	0.401605	0.597151
	H59	H	0.901942	0.400635	0.416904
	H60	H	0.128156	0.399548	0.599657
	H61	H	0.903643	0.577720	0.593699
	H62	H	0.126894	0.576802	0.414863
	H63	H	0.903324	0.400874	0.418852
	H64	H	0.429121	0.575594	0.116294
	H65	H	0.605537	0.581666	0.894795
	H66	H	0.599403	0.406892	0.113597
	H67	H	0.423332	0.408771	0.897662
	H68	H	0.599241	0.102272	0.413523
	H69	H	0.606944	0.878358	0.592542
	H70	H	0.427712	0.102758	0.598715
	H71	H	0.426135	0.876618	0.417855
	H72	H	0.929710	0.602452	0.102860
	H73	H	0.100848	0.375775	0.104003
	H74	H	0.103316	0.599254	0.926938
	H75	H	0.931558	0.377622	0.918112
	H76	H	0.101716	0.892839	0.620231
	H77	H	0.104540	0.084834	0.392785
	H78	H	0.920319	0.076714	0.618065
	H79	H	0.932732	0.900568	0.396703
	H80	H	0.627692	0.072528	0.915928
	H81	H	0.405464	0.077253	0.092104
	H82	H	0.627765	0.902213	0.092587
	H83	H	0.403083	0.897606	0.911881
	H84	H	0.627403	0.904857	0.095549
	H85	H	0.406258	0.073208	0.095353
	H86	H	0.631174	0.081322	0.911463
	H87	H	0.403981	0.897851	0.916355
	H88	H	0.929833	0.074416	0.614276
	H89	H	0.109872	0.079339	0.391591
	H90	H	0.113866	0.900201	0.620239
	H91	H	0.922303	0.897218	0.392453
	H92	H	0.112015	0.606891	0.915561
	H93	H	0.099867	0.379820	0.090686
	H94	H	0.932841	0.596758	0.090712
	H95	H	0.927073	0.377359	0.922213
	H96	H	0.424044	0.102813	0.594958
	H97	H	0.604397	0.877623	0.598371
	H98	H	0.599392	0.100171	0.423194
	H99	H	0.428509	0.876416	0.415871
	H100	H	0.600148	0.396192	0.117510
	H101	H	0.608829	0.578223	0.894173
	H102	H	0.429767	0.582805	0.119789
	H103	H	0.434386	0.397865	0.896978
	H104	H	0.127184	0.581998	0.419095
	H105	H	0.903594	0.575279	0.595823
	H106	H	0.127388	0.397529	0.596009
	H107	H	0.903600	0.402138	0.417507
	H108	H	0.920375	0.601892	0.092890
	H109	H	0.111977	0.374388	0.095518
	H110	H	0.096565	0.602128	0.913254
	H111	H	0.925860	0.375032	0.916722
	H112	H	0.102070	0.906378	0.614546
	H113	H	0.103275	0.077545	0.395157
	H114	H	0.927827	0.083878	0.617679
	H115	H	0.924061	0.908327	0.396561
	H116	H	0.628598	0.081295	0.921751
	H117	H	0.403671	0.077012	0.096905
	H118	H	0.628914	0.900952	0.096072
	H119	H	0.404307	0.901717	0.914308
	C120	C	0.394933	-0.001774	0.627971
	C121	C	0.636924	0.982403	0.627111
	C122	C	0.635943	-0.000973	0.385345
	C123	C	0.394396	0.980299	0.385154
	C124	C	0.636545	0.368230	0.014718
	C125	C	0.638155	0.611225	0.998122
	C126	C	0.395128	0.611081	0.015681
	C127	C	0.393336	0.367637	0.998085
	C128	C	0.023649	0.611292	0.385112
	C129	C	1.005705	0.610509	0.628059
	C130	C	0.023440	0.367337	0.629347
	C131	C	1.006740	0.369438	0.386193
	C132	C	0.894278	0.497204	0.128637
	C133	C	0.136294	0.480629	0.128712
	C134	C	0.136279	0.498960	0.886115
	C135	C	0.895283	0.480417	0.887202
	C136	C	0.136998	0.867739	0.514949
	C137	C	0.136718	0.110405	0.497280
	C138	C	0.893608	0.111988	0.513954
	C139	C	0.893480	0.869354	0.497859
	C140	C	0.525030	0.109805	0.885350
	C141	C	0.507485	0.110928	0.128237
	C142	C	0.524959	0.869390	0.126813
	C143	C	0.508368	0.867855	0.883742
	C144	C	0.394505	0.879221	0.686029
	C145	C	0.639570	0.100718	0.687590
	C146	C	0.640114	0.881592	0.324021
	C147	C	0.390179	0.097873	0.323799
	C148	C	0.698898	0.363904	0.898673
	C149	C	0.697620	0.613801	0.115635
	C150	C	0.334118	0.613694	0.899007
	C151	C	0.332206	0.364173	0.114574
	C152	C	0.906277	0.672171	0.381600
	C153	C	0.122964	0.671665	0.630815
	C154	C	0.905519	0.307400	0.630896
	C155	C	0.125685	0.311411	0.386597
	C156	C	0.905634	0.365006	0.689059
	C157	C	0.122443	0.614979	0.689410
	C158	C	0.906992	0.615342	0.322947
	C159	C	0.125067	0.367175	0.327101
	C160	C	0.392761	0.670750	0.898200
	C161	C	0.640162	0.672144	0.115127
	C162	C	0.639820	0.306967	0.897946
	C163	C	0.390218	0.306253	0.114486
	C164	C	0.697201	0.881473	0.382180
	C165	C	0.696867	0.100808	0.629693
	C166	C	0.336900	0.878977	0.628177
	C167	C	0.333326	0.098138	0.382350
	C168	C	0.890830	0.379325	0.189286
	C169	C	0.138378	0.599113	0.188260
	C170	C	0.138026	0.380387	0.826487
	C171	C	0.893002	0.599024	0.827822
	C172	C	0.196574	0.865428	0.397409
	C173	C	0.194283	0.109831	0.615970
	C174	C	0.833164	0.115210	0.396657
	C175	C	0.833515	0.867359	0.614960
	C176	C	0.405476	0.167123	0.886253
	C177	C	0.624604	0.172657	0.131274
	C178	C	0.407297	0.809112	0.128881
	C179	C	0.626932	0.809769	0.883726
	C180	C	0.407698	0.865988	0.187479
	C181	C	0.624117	0.116080	0.190022
	C182	C	0.406337	0.110986	0.826864
	C183	C	0.626916	0.867479	0.825840
	C184	C	0.891878	0.172335	0.396578
	C185	C	0.135842	0.167465	0.616371
	C186	C	0.136823	0.809085	0.396663
	C187	C	0.890907	0.808735	0.614864
	C188	C	0.195596	0.380347	0.884460
	C189	C	0.195589	0.599248	0.130132
	C190	C	0.833166	0.379327	0.131580
	C191	C	0.836134	0.599459	0.886329
	C192	C	0.418169	0.081603	0.604511
	C193	C	0.611621	0.900239	0.601906
	C194	C	0.609579	0.080910	0.411144
	C195	C	0.420400	0.898391	0.410556
	C196	C	0.610201	0.394639	0.095576
	C197	C	0.613517	0.585973	0.916402
	C198	C	0.420290	0.585933	0.097382
	C199	C	0.418948	0.393386	0.916583
	C200	C	0.105212	0.585683	0.410985
	C201	C	0.924359	0.584408	0.602512
	C202	C	0.105667	0.392465	0.604758
	C203	C	0.924429	0.394231	0.410469
	C204	C	0.920329	0.579172	0.102802
	C205	C	0.111205	0.398081	0.103764
	C206	C	0.111305	0.581360	0.911313
	C207	C	0.920831	0.398106	0.911932
	C208	C	0.112741	0.892638	0.596869
	C209	C	0.112854	0.087014	0.414845
	C210	C	0.918675	0.085959	0.595415
	C211	C	0.919039	0.894843	0.416351
	C212	C	0.607644	0.085344	0.909408
	C213	C	0.426298	0.083741	0.102385
	C214	C	0.606829	0.895200	0.101973
	C215	C	0.425304	0.891935	0.907443
	Zn216	Zn	0.516877	-0.010309	0.755996
	Zn217	Zn	0.515647	-0.010243	0.256618
	Zn218	Zn	0.766328	0.488657	0.007464
	Zn219	Zn	0.264874	0.490162	0.007202
	Zn220	Zn	0.014414	0.739509	0.506855
	Zn221	Zn	0.015363	0.240096	0.506594
	Zn222	Zn	0.014798	0.489627	0.757480
	Zn223	Zn	0.015437	0.489248	0.257092
	Zn224	Zn	0.516759	0.740315	0.006056
	Zn225	Zn	0.515550	0.238761	0.006649
	Zn226	Zn	0.764437	-0.009061	0.505546
	Zn227	Zn	0.266234	-0.011108	0.506198
	N228	N	0.429669	0.954637	0.686296
	N229	N	0.603006	0.025990	0.686322
	N230	N	0.603019	0.955834	0.325867
	N231	N	0.427480	0.023629	0.325482
	N232	N	0.696906	0.401422	0.972357
	N233	N	0.696520	0.576624	0.041928
	N234	N	0.335263	0.577315	0.973099
	N235	N	0.333965	0.401702	0.041098
	N236	N	0.979653	0.669592	0.419740
	N237	N	0.049273	0.669175	0.593310
	N238	N	0.979949	0.308581	0.594562
	N239	N	0.051168	0.312560	0.422550
	N240	N	0.980039	0.401493	0.688214
	N241	N	0.048609	0.577527	0.687923
	N242	N	0.981027	0.578003	0.325074
	N243	N	0.050028	0.402302	0.326570
	N244	N	0.429837	0.669518	0.971989
	N245	N	0.603914	0.670862	0.040952
	N246	N	0.601929	0.309376	0.971210
	N247	N	0.427475	0.308275	0.040847
	N248	N	0.694754	0.955665	0.419548
	N249	N	0.695310	0.026419	0.592693
	N250	N	0.336743	0.954127	0.592834
	N251	N	0.335691	0.023960	0.419681
	N252	N	0.927810	0.453896	0.187986
	N253	N	0.102592	0.524084	0.187742
	N254	N	0.102185	0.455410	0.827145
	N255	N	0.928604	0.523839	0.827901
	N256	N	0.197118	0.900765	0.472088
	N257	N	0.195255	0.075397	0.540903
	N258	N	0.833945	0.078617	0.470689
	N259	N	0.834891	0.904085	0.541136
	N260	N	0.480381	0.166730	0.921762
	N261	N	0.551010	0.169499	0.093565
	N262	N	0.481193	0.811179	0.091785
	N263	N	0.551949	0.809773	0.918950
	N264	N	0.481928	0.902806	0.186410
	N265	N	0.550210	0.078547	0.188499
	N266	N	0.481708	0.076492	0.826103
	N267	N	0.551877	0.902553	0.825631
	N268	N	0.928498	0.170620	0.470638
	N269	N	0.101077	0.168371	0.541484
	N270	N	0.100734	0.810153	0.470838
	N271	N	0.927375	0.809730	0.540826
	N272	N	0.194889	0.455099	0.920643
	N273	N	0.194723	0.524433	0.093951
	N274	N	0.834977	0.453683	0.094755
	N275	N	0.837419	0.524687	0.922453
	O276	O	0.019272	0.786085	0.157095
	H277	H	0.019209	0.789053	0.142321
	H278	H	0.028523	0.789850	0.154831
	O279	O	0.343036	0.504327	0.319314
	H280	H	0.340554	0.502275	0.318690
	H281	H	0.335535	0.515954	0.304945
	O282	O	0.868644	-0.015133	0.975409
	H283	H	0.875318	-0.006903	0.981680
	H284	H	0.874705	-0.009390	0.970248
	O285	O	0.540613	0.465038	0.546971
	H286	H	0.527901	0.470536	0.543663
	H287	H	0.550364	0.473414	0.555261
	O288	O	0.814193	0.190913	0.803506
	H289	H	0.797709	0.183794	0.808504
	H290	H	0.801512	0.178756	0.816905
	O291	O	0.347011	0.649292	0.671995
	H292	H	0.362212	0.631423	0.669432
	H293	H	0.364245	0.637408	0.647877
	O294	O	0.929467	0.014716	1.170665
	H295	H	0.936630	0.041033	1.182096
	H296	H	0.929162	0.016814	1.172801
	O297	O	0.223987	1.198480	1.037427
	H298	H	0.211566	1.200041	1.024545
	H299	H	0.229398	1.217872	1.035726
	O300	O	-0.174116	0.003319	1.037324
	H301	H	-0.164364	0.012012	1.042855
	H302	H	-0.173261	0.009651	1.035161
	O303	O	0.492304	0.468264	0.276406
	H304	H	0.500488	0.478959	0.279232
	H305	H	0.504281	0.479287	0.280851
	O306	O	0.651427	0.473569	0.525071
	H307	H	0.657782	0.484384	0.533610
	H308	H	0.662263	0.469725	0.508914
	O309	O	0.738407	0.513066	0.349864
	H310	H	0.731799	0.510406	0.364132
	H311	H	0.760768	0.508905	0.333026
	O312	O	0.547668	0.513052	0.387237
	H313	H	0.572032	0.517033	0.382028
	H314	H	0.557923	0.526284	0.401961
	O315	O	1.217334	1.194336	1.216121
	H316	H	1.226140	1.186977	1.175346
	H317	H	1.253264	1.226288	1.244789
	O318	O	0.734681	0.523499	0.727315
	H319	H	0.753607	0.519016	0.745849
	H320	H	0.722721	0.526108	0.734401
	O321	O	0.481686	0.702920	0.492387
	H322	H	0.500249	0.703485	0.494461
	H323	H	0.471436	0.714093	0.474455
	O324	O	1.145804	0.960672	-0.014647
	H325	H	1.159057	0.958684	-0.020765
	H326	H	1.152109	0.964090	-0.033769
	O327	O	0.031687	-0.217222	0.796437
	H328	H	0.058029	-0.219465	0.809954
	H329	H	0.042949	-0.234956	0.781443
	O330	O	0.720088	0.707743	0.542704
	H331	H	0.729741	0.713226	0.561999
	H332	H	0.732100	0.715711	0.556029
	O333	O	0.474748	0.272488	0.727689
	H334	H	0.463166	0.261726	0.740621
	H335	H	0.473097	0.260716	0.721293
	O336	O	0.450204	0.622140	0.658644
	H337	H	0.466310	0.622246	0.663038
	H338	H	0.460969	0.615824	0.664327
	O339	O	1.125309	0.082041	0.983044
	H340	H	1.115717	0.075459	0.968664
	H341	H	1.115920	0.082815	0.976408
	O342	O	0.223846	0.003038	0.220572
	H343	H	0.218461	0.012469	0.226515
	H344	H	0.233933	0.026403	0.228913
	O345	O	-0.704291	1.462728	1.726170
	H346	H	-0.716809	1.468719	1.709416
	H347	H	-0.719707	1.454531	1.739187
	O348	O	-0.012041	0.048114	-0.060577
	H349	H	-0.016839	0.047473	-0.058535
	H350	H	-0.006258	0.069501	-0.062550
	O351	O	0.398060	0.383491	0.399603
	H352	H	0.401191	0.390736	0.411772
	H353	H	0.391522	0.388927	0.410558
	O354	O	0.323284	0.298673	1.311024
	H355	H	0.347490	0.322026	1.316910
	H356	H	0.338303	0.312076	1.339691
	O357	O	0.134714	0.069438	-0.086376
	H358	H	0.136097	0.063408	-0.082510
	H359	H	0.125535	0.081779	-0.105144
	O360	O	0.289334	0.267443	0.730399
	H361	H	0.276126	0.274618	0.728326
	H362	H	0.294574	0.261225	0.740056
	O363	O	0.017712	0.033583	0.149148
	H364	H	0.023451	0.052609	0.161943
	H365	H	0.021856	0.026943	0.140283
	O366	O	0.677100	0.302687	0.669144
	H367	H	0.660935	0.320907	0.662049
	H368	H	0.687295	0.304879	0.648390
	O369	O	0.890875	-0.202994	0.121793
	H370	H	0.892791	-0.207250	0.131452
	H371	H	0.910513	-0.213288	0.094603
	O372	O	1.172398	1.016648	0.028999
	H373	H	1.174652	1.036637	0.029196
	H374	H	1.176412	1.010288	0.021312
	O375	O	0.980842	0.207925	-0.207794
	H376	H	0.961139	0.223901	-0.215600
	H377	H	0.949822	0.215965	-0.218443
	O378	O	0.482661	0.652347	0.324692
	H379	H	0.479427	0.672722	0.334019
	H380	H	0.503696	0.657567	0.325572
	O381	O	-0.203687	0.962526	1.217503
	H382	H	-0.222509	0.950707	1.235244
	H383	H	-0.195371	0.967271	1.221012
	O384	O	0.683367	0.560684	0.493024
	H385	H	0.685019	0.551801	0.499667
	H386	H	0.673773	0.571408	0.482284
	O387	O	0.727391	0.696247	-0.285587
	H388	H	0.720496	0.667621	-0.289529
	H389	H	0.754849	0.727183	-0.253036
	O390	O	0.487791	0.698197	0.305705
	H391	H	0.484388	0.697719	0.310443
	H392	H	0.492773	0.706614	0.298670
	O393	O	0.544104	0.276808	0.289736
	H394	H	0.533210	0.277709	0.287090
	H395	H	0.532155	0.266438	0.282477
	O396	O	0.170087	0.858310	1.186614
	H397	H	0.160489	0.867874	1.186517
	H398	H	0.166854	0.880203	1.168618
	O399	O	-0.197632	0.142146	1.016681
	H400	H	-0.189941	0.125133	1.018280
	H401	H	-0.210979	0.160323	1.022916
	O402	O	0.631520	0.677594	0.441839
	H403	H	0.638830	0.675438	0.461066
	H404	H	0.651948	0.686071	0.426653
	O405	O	1.046316	0.209175	1.227838
	H406	H	1.068617	0.215824	1.245033
	H407	H	1.074518	0.218513	1.239621
	O408	O	-0.164021	-0.197247	-0.179457
	H409	H	-0.156675	-0.165867	-0.163116
	H410	H	-0.133817	-0.191594	-0.165585
	O411	O	0.735022	0.273718	0.474447
	H412	H	0.730293	0.269107	0.452387
	H413	H	0.755044	0.260391	0.473857
	O414	O	0.709469	0.296378	0.313343
	H415	H	0.674293	0.289376	0.324014
	H416	H	0.700150	0.325245	0.310259
	O417	O	0.584457	0.432502	0.740057
	H418	H	0.583576	0.419728	0.740190
	H419	H	0.570640	0.427624	0.742964
	O420	O	0.380006	0.623157	0.393797
	H421	H	0.376608	0.621098	0.415877
	H422	H	0.407429	0.622035	0.396300
	O423	O	0.549727	0.498237	0.536872
	H424	H	0.549907	0.498170	0.541277
	H425	H	0.551134	0.497547	0.550655
	O426	O	0.488567	0.497163	0.597973
	H427	H	0.490079	0.494849	0.600509
	H428	H	0.479418	0.496383	0.597508
	O429	O	1.535443	1.278727	0.595848
	H430	H	1.540562	1.268439	0.609672
	H431	H	1.535717	1.284493	0.595956
	O432	O	0.242453	0.763902	0.778685
	H433	H	0.265943	0.739996	0.756536
	H434	H	0.249943	0.763705	0.785161
	O435	O	0.157759	0.837786	-0.049816
	H436	H	0.160241	0.840888	-0.036094
	H437	H	0.169925	0.827511	-0.050269
	O438	O	-0.124543	-0.233561	0.013274
	H439	H	-0.121096	-0.238293	0.033288
	H440	H	-0.138519	-0.228911	0.014221
	O441	O	-0.187987	0.070127	-0.151507
	H442	H	-0.192747	0.057031	-0.148591
	H443	H	-0.176817	0.052684	-0.152667
	O444	O	0.045750	-0.047617	0.110886
	H445	H	0.031067	-0.051174	0.125883
	H446	H	0.039684	-0.033630	0.102144
	O447	O	0.023210	1.041312	0.948063
	H448	H	0.004867	1.028468	0.950885
	H449	H	0.021801	1.044934	0.926277
	O450	O	-0.091761	0.969096	0.774760
	H451	H	-0.095808	0.959157	0.763763
	H452	H	-0.066160	0.975098	0.779973
	O453	O	0.294552	0.263775	0.546187
	H454	H	0.265154	0.232815	0.543209
	H455	H	0.306818	0.268925	0.570795
	O456	O	0.225994	-0.033159	0.809978
	H457	H	0.238595	-0.038739	0.799353
	H458	H	0.224633	-0.037110	0.807122
	O459	O	0.694266	0.575442	0.303482
	H460	H	0.705079	0.597846	0.308165
	H461	H	0.677592	0.571318	0.303404
	O462	O	0.492940	0.283204	0.443468
	H463	H	0.490811	0.282111	0.457775
	H464	H	0.508151	0.298827	0.442535
	O465	O	1.192009	0.169008	-0.169789
	H466	H	1.201909	0.162841	-0.169642
	H467	H	1.161775	0.167075	-0.150565
	O468	O	-0.071823	1.200768	0.040414
	H469	H	-0.077987	1.212012	0.054072
	H470	H	-0.071598	1.193223	0.048876
	O471	O	0.297098	0.701140	0.466278
	H472	H	0.294402	0.702194	0.446564
	H473	H	0.294189	0.723617	0.466488
	O474	O	-0.453284	1.708976	-0.273749
	H475	H	-0.441882	1.722233	-0.266215
	H476	H	-0.438073	1.717576	-0.268140
	O477	O	0.212274	0.729059	1.206778
	H478	H	0.212587	0.747209	1.201253
	H479	H	0.211444	0.714793	1.204592
	O480	O	0.294359	0.447324	0.444904
	H481	H	0.294599	0.432179	0.446473
	H482	H	0.305338	0.452267	0.437550
	O483	O	0.291640	0.522496	0.571233
	H484	H	0.285399	0.531293	0.546732
	H485	H	0.295270	0.520877	0.566741
	O486	O	1.045109	-0.200641	0.925037
	H487	H	1.047551	-0.209280	0.929527
	H488	H	1.043731	-0.201252	0.940511
	O489	O	0.809769	0.783550	0.212652
	H490	H	0.820666	0.799823	0.213974
	H491	H	0.831062	0.781582	0.187518
