data_Molecule from HDF5

_cell_length_a		16.144102
_cell_length_b		16.291414
_cell_length_c		16.268807
_cell_angle_alpha	89.726561
_cell_angle_beta	89.797567
_cell_angle_gamma	89.963033
_symmetry_space_group_name_H-M	'P 1'
_symmetry_Int_Tables_number		1

loop_
	_symmetry_equiv_pos_as_xyz
	x,y,z

loop_
	_atom_site_label
	_atom_site_type_symbol
	_atom_site_fract_x
	_atom_site_fract_y
	_atom_site_fract_z
	H0	H	0.391536	0.845536	0.718187
	H1	H	0.592062	0.171916	0.715830
	H2	H	0.593962	0.845599	0.286068
	H3	H	0.391425	0.170674	0.283844
	H4	H	0.707890	0.412040	0.837210
	H5	H	0.704629	0.603870	0.166182
	H6	H	0.282075	0.606760	0.836516
	H7	H	0.278790	0.411095	0.165659
	H8	H	0.827886	0.723309	0.403312
	H9	H	0.157263	0.723253	0.598441
	H10	H	0.827771	0.295682	0.600486
	H11	H	0.156785	0.295007	0.401188
	H12	H	0.828435	0.410116	0.717229
	H13	H	0.158379	0.607432	0.713154
	H14	H	0.827514	0.607711	0.289100
	H15	H	0.157865	0.411573	0.288628
	H16	H	0.394515	0.725518	0.838475
	H17	H	0.592235	0.722928	0.165313
	H18	H	0.595015	0.293723	0.838485
	H19	H	0.392046	0.291595	0.164138
	H20	H	0.705803	0.844408	0.405360
	H21	H	0.705958	0.172433	0.597596
	H22	H	0.278346	0.845108	0.599322
	H23	H	0.276900	0.171884	0.401842
	H24	H	0.893457	0.345493	0.218189
	H25	H	0.091048	0.672722	0.215526
	H26	H	0.092700	0.345519	0.786909
	H27	H	0.895437	0.672712	0.786950
	H28	H	0.206067	0.913150	0.337291
	H29	H	0.206360	0.107447	0.664906
	H30	H	0.778369	0.107932	0.336717
	H31	H	0.779587	0.912424	0.665605
	H32	H	0.329167	0.224594	0.902038
	H33	H	0.658182	0.221304	0.098645
	H34	H	0.328963	0.794961	0.102178
	H35	H	0.658278	0.797661	0.904496
	H36	H	0.329436	0.910320	0.215930
	H37	H	0.657552	0.107074	0.214679
	H38	H	0.327994	0.106990	0.788683
	H39	H	0.657518	0.910640	0.788302
	H40	H	0.893004	0.225888	0.337770
	H41	H	0.091617	0.223754	0.664886
	H42	H	0.092285	0.795206	0.338016
	H43	H	0.891631	0.792968	0.664546
	H44	H	0.207299	0.345065	0.904757
	H45	H	0.205758	0.673670	0.098065
	H46	H	0.779264	0.344618	0.100612
	H47	H	0.780634	0.673378	0.904761
	H48	H	0.392835	0.126477	0.592493
	H49	H	0.582265	0.890223	0.602178
	H50	H	0.576612	0.121994	0.407129
	H51	H	0.400436	0.891894	0.407528
	H52	H	0.579364	0.426843	0.113239
	H53	H	0.586822	0.612138	0.882498
	H54	H	0.400524	0.592033	0.115292
	H55	H	0.398202	0.417361	0.884054
	H56	H	0.111526	0.610115	0.414582
	H57	H	0.872183	0.601768	0.603857
	H58	H	0.108724	0.420866	0.592865
	H59	H	0.874377	0.413604	0.413178
	H60	H	0.112594	0.413593	0.598261
	H61	H	0.874227	0.608780	0.590364
	H62	H	0.107845	0.593150	0.410368
	H63	H	0.877142	0.421580	0.410673
	H64	H	0.407691	0.608582	0.118296
	H65	H	0.593008	0.600204	0.883499
	H66	H	0.577277	0.403627	0.119286
	H67	H	0.404618	0.418710	0.886726
	H68	H	0.589100	0.124747	0.414000
	H69	H	0.582194	0.893794	0.591201
	H70	H	0.401270	0.126845	0.601745
	H71	H	0.400308	0.892087	0.408935
	H72	H	0.893458	0.626307	0.092006
	H73	H	0.091041	0.390854	0.097258
	H74	H	0.095598	0.630833	0.898336
	H75	H	0.896004	0.392308	0.913599
	H76	H	0.076090	0.911893	0.617226
	H77	H	0.090700	0.099461	0.383758
	H78	H	0.890233	0.098819	0.619007
	H79	H	0.893745	0.913534	0.381670
	H80	H	0.611387	0.101310	0.905062
	H81	H	0.372862	0.113342	0.090837
	H82	H	0.615185	0.908493	0.098415
	H83	H	0.374802	0.920258	0.905126
	H84	H	0.610312	0.914131	0.086474
	H85	H	0.381125	0.093114	0.083333
	H86	H	0.612037	0.103026	0.908823
	H87	H	0.372583	0.910668	0.908955
	H88	H	0.906217	0.097360	0.614017
	H89	H	0.078756	0.100483	0.387444
	H90	H	0.091101	0.908104	0.622666
	H91	H	0.901496	0.921434	0.386005
	H92	H	0.075465	0.624323	0.902213
	H93	H	0.081839	0.392641	0.099096
	H94	H	0.899661	0.627814	0.101963
	H95	H	0.899920	0.389933	0.902371
	H96	H	0.404915	0.122088	0.590061
	H97	H	0.592300	0.889668	0.595778
	H98	H	0.587994	0.128774	0.400475
	H99	H	0.399013	0.891186	0.408956
	H100	H	0.598789	0.414424	0.122250
	H101	H	0.580652	0.601719	0.886516
	H102	H	0.390375	0.605366	0.122842
	H103	H	0.403326	0.412015	0.884033
	H104	H	0.114015	0.604114	0.397515
	H105	H	0.877776	0.593903	0.591717
	H106	H	0.110257	0.412422	0.588841
	H107	H	0.873530	0.416494	0.405716
	H108	H	0.904518	0.623018	0.092227
	H109	H	0.084692	0.394238	0.090619
	H110	H	0.090379	0.623674	0.917352
	H111	H	0.907474	0.394443	0.910618
	H112	H	0.087427	0.922780	0.616870
	H113	H	0.084316	0.109802	0.383259
	H114	H	0.899932	0.111347	0.619999
	H115	H	0.904474	0.910424	0.383998
	H116	H	0.610336	0.099593	0.908682
	H117	H	0.373171	0.094983	0.105404
	H118	H	0.610714	0.922347	0.097380
	H119	H	0.376165	0.917487	0.915211
	C120	C	0.370425	0.017186	0.623475
	C121	C	0.614133	0.999819	0.623654
	C122	C	0.613815	0.017102	0.379462
	C123	C	0.370812	0.999720	0.379347
	C124	C	0.614791	0.387154	0.009900
	C125	C	0.615115	0.631305	0.992939
	C126	C	0.371697	0.631149	0.010149
	C127	C	0.372016	0.387061	0.992813
	C128	C	0.001537	0.630752	0.379789
	C129	C	0.984082	0.629850	0.622298
	C130	C	0.001547	0.387392	0.622692
	C131	C	0.983800	0.387937	0.380434
	C132	C	0.870903	0.517246	0.124032
	C133	C	0.114013	0.501001	0.123076
	C134	C	0.115460	0.517869	0.878766
	C135	C	0.872188	0.500536	0.879912
	C136	C	0.113699	0.887078	0.510237
	C137	C	0.113561	0.131041	0.492811
	C138	C	0.870308	0.131206	0.509448
	C139	C	0.870675	0.886809	0.492678
	C140	C	0.502141	0.130358	0.879363
	C141	C	0.484408	0.129379	0.122127
	C142	C	0.502983	0.886735	0.123352
	C143	C	0.483991	0.888108	0.881013
	C144	C	0.371907	0.894450	0.679738
	C145	C	0.612086	0.123087	0.678081
	C146	C	0.612698	0.893905	0.324955
	C147	C	0.371787	0.122362	0.322784
	C148	C	0.670515	0.390501	0.886409
	C149	C	0.668202	0.626004	0.116892
	C150	C	0.318755	0.627817	0.885981
	C151	C	0.316501	0.389796	0.116361
	C152	C	0.877015	0.685282	0.383153
	C153	C	0.108336	0.684861	0.618807
	C154	C	0.877162	0.332735	0.621265
	C155	C	0.107752	0.332760	0.381871
	C156	C	0.877549	0.389729	0.678889
	C157	C	0.108917	0.627400	0.675881
	C158	C	0.876835	0.628112	0.326142
	C159	C	0.108219	0.390518	0.325576
	C160	C	0.374728	0.686991	0.887050
	C161	C	0.611959	0.684823	0.116439
	C162	C	0.614587	0.331662	0.887098
	C163	C	0.372773	0.330744	0.115762
	C164	C	0.668944	0.893654	0.383476
	C165	C	0.668568	0.123390	0.619142
	C166	C	0.315836	0.893869	0.620543
	C167	C	0.315254	0.123071	0.381722
	C168	C	0.873414	0.394128	0.179864
	C169	C	0.111318	0.624091	0.177441
	C170	C	0.113110	0.394424	0.824582
	C171	C	0.874869	0.623794	0.824923
	C172	C	0.168499	0.891613	0.386355
	C173	C	0.168426	0.127860	0.616218
	C174	C	0.815731	0.128746	0.385857
	C175	C	0.816086	0.890444	0.616253
	C176	C	0.378286	0.186351	0.881700
	C177	C	0.608844	0.183802	0.119444
	C178	C	0.378511	0.832138	0.122142
	C179	C	0.608798	0.834302	0.883790
	C180	C	0.378616	0.889553	0.178583
	C181	C	0.608380	0.127459	0.177382
	C182	C	0.377515	0.127679	0.825660
	C183	C	0.608286	0.890548	0.825940
	C184	C	0.872285	0.187648	0.386552
	C185	C	0.111663	0.186151	0.615938
	C186	C	0.112033	0.833062	0.386726
	C187	C	0.872314	0.831511	0.615722
	C188	C	0.170228	0.394118	0.882858
	C189	C	0.168283	0.624561	0.118981
	C190	C	0.816519	0.393635	0.121376
	C191	C	0.817988	0.624120	0.883286
	C192	C	0.392942	0.102926	0.601204
	C193	C	0.592030	0.913582	0.602589
	C194	C	0.591171	0.102970	0.400918
	C195	C	0.393171	0.914083	0.401871
	C196	C	0.591848	0.408481	0.096055
	C197	C	0.593537	0.610530	0.906562
	C198	C	0.393238	0.608793	0.096564
	C199	C	0.395248	0.409439	0.907083
	C200	C	0.088632	0.608902	0.401156
	C201	C	0.897204	0.608062	0.601426
	C202	C	0.088030	0.409256	0.600022
	C203	C	0.897298	0.410545	0.403169
	C204	C	0.892667	0.603412	0.101939
	C205	C	0.092292	0.414679	0.101831
	C206	C	0.093595	0.604157	0.899714
	C207	C	0.894684	0.414400	0.902260
	C208	C	0.091389	0.907955	0.596558
	C209	C	0.091246	0.109449	0.406963
	C210	C	0.892262	0.108828	0.595363
	C211	C	0.893350	0.908922	0.405970
	C212	C	0.588856	0.108001	0.901074
	C213	C	0.397981	0.107049	0.099749
	C214	C	0.589711	0.908682	0.100971
	C215	C	0.397021	0.909612	0.903170
	Zn216	Zn	0.492485	0.008368	0.752350
	Zn217	Zn	0.493189	0.007877	0.250652
	Zn218	Zn	0.743133	0.508670	0.001433
	Zn219	Zn	0.243327	0.509300	0.001093
	Zn220	Zn	-0.007609	0.758118	0.501003
	Zn221	Zn	-0.007708	0.259946	0.501172
	Zn222	Zn	-0.006600	0.508950	0.750517
	Zn223	Zn	-0.007240	0.509352	0.252724
	Zn224	Zn	0.493305	0.759852	0.002152
	Zn225	Zn	0.493835	0.258190	0.001314
	Zn226	Zn	0.742342	0.008723	0.500816
	Zn227	Zn	0.241883	0.009169	0.501449
	N228	N	0.405540	0.972012	0.681242
	N229	N	0.578831	0.045286	0.680705
	N230	N	0.579248	0.971584	0.322287
	N231	N	0.405740	0.044846	0.321206
	N232	N	0.670766	0.424255	0.963906
	N233	N	0.670265	0.593456	0.038981
	N234	N	0.316873	0.593605	0.963610
	N235	N	0.316096	0.424362	0.039019
	N236	N	0.955636	0.687119	0.415719
	N237	N	0.029710	0.686609	0.586457
	N238	N	0.955137	0.331130	0.586818
	N239	N	0.029396	0.331002	0.415230
	N240	N	0.955820	0.423019	0.679837
	N241	N	0.030793	0.593858	0.678110
	N242	N	0.955163	0.594752	0.324149
	N243	N	0.030095	0.424267	0.324491
	N244	N	0.407054	0.688920	0.965272
	N245	N	0.579712	0.688213	0.038318
	N246	N	0.580431	0.329744	0.964704
	N247	N	0.406793	0.329081	0.037928
	N248	N	0.669745	0.971177	0.416749
	N249	N	0.669784	0.045870	0.585974
	N250	N	0.314740	0.971153	0.586156
	N251	N	0.314738	0.045981	0.416373
	N252	N	0.906220	0.472082	0.181949
	N253	N	0.078018	0.546394	0.179881
	N254	N	0.080078	0.472391	0.821731
	N255	N	0.907692	0.545774	0.822659
	N256	N	0.169661	0.924454	0.464151
	N257	N	0.170071	0.094773	0.538712
	N258	N	0.814222	0.094521	0.463281
	N259	N	0.815271	0.924306	0.538627
	N260	N	0.456847	0.188186	0.914170
	N261	N	0.530879	0.185210	0.085854
	N262	N	0.456670	0.830400	0.088374
	N263	N	0.530578	0.832776	0.917674
	N264	N	0.456904	0.922814	0.179294
	N265	N	0.529937	0.094290	0.179323
	N266	N	0.455593	0.093892	0.823762
	N267	N	0.529829	0.923270	0.824278
	N268	N	0.905511	0.189219	0.464406
	N269	N	0.078068	0.187995	0.538271
	N270	N	0.078546	0.830275	0.464600
	N271	N	0.905583	0.829456	0.537655
	N272	N	0.171675	0.471720	0.915696
	N273	N	0.169934	0.546997	0.085771
	N274	N	0.815119	0.471044	0.087160
	N275	N	0.816353	0.546402	0.916856
	O276	O	0.463857	-0.542813	0.478458
	H277	H	0.454703	-0.534434	0.482889
	H278	H	0.458749	-0.543023	0.485905
	O279	O	0.509570	0.417707	0.510199
	H280	H	0.509730	0.420180	0.509848
	H281	H	0.515147	0.411109	0.510397
	O282	O	0.452425	0.440137	0.520253
	H283	H	0.453173	0.440865	0.519053
	H284	H	0.457219	0.439082	0.513065
	O285	O	0.454768	0.454763	0.552379
	H286	H	0.441445	0.449719	0.562294
	H287	H	0.447321	0.447288	0.555042
	O288	O	0.463756	0.413702	0.479697
	H289	H	0.473066	0.410482	0.478339
	H290	H	0.465623	0.415160	0.472904
	O291	O	0.457404	0.402897	0.510067
	H292	H	0.446787	0.404264	0.518300
	H293	H	0.464962	0.389558	0.509238
	O294	O	0.463697	0.421485	0.504906
	H295	H	0.463892	0.420243	0.509279
	H296	H	0.469900	0.419349	0.510488
	O297	O	1.481206	0.454013	0.523518
	H298	H	1.483466	0.453637	0.515423
	H299	H	1.482925	0.449583	0.519384
