data_Molecule from HDF5

_cell_length_a		16.193294
_cell_length_b		16.086790
_cell_length_c		16.378331
_cell_angle_alpha	90.291603
_cell_angle_beta	90.326382
_cell_angle_gamma	90.314093
_symmetry_space_group_name_H-M	'P 1'
_symmetry_Int_Tables_number		1

loop_
	_symmetry_equiv_pos_as_xyz
	x,y,z

loop_
	_atom_site_label
	_atom_site_type_symbol
	_atom_site_fract_x
	_atom_site_fract_y
	_atom_site_fract_z
	H0	H	0.404807	0.825480	0.703884
	H1	H	0.610749	0.153351	0.708458
	H2	H	0.607766	0.825582	0.274321
	H3	H	0.403808	0.152309	0.272225
	H4	H	0.721448	0.385173	0.823774
	H5	H	0.728994	0.589833	0.147480
	H6	H	0.293794	0.586738	0.823775
	H7	H	0.289937	0.388590	0.147909
	H8	H	0.842369	0.701217	0.388114
	H9	H	0.172092	0.703934	0.583934
	H10	H	0.843603	0.278259	0.579469
	H11	H	0.172084	0.276260	0.385928
	H12	H	0.847237	0.384431	0.701404
	H13	H	0.170059	0.596084	0.704714
	H14	H	0.845830	0.592362	0.265165
	H15	H	0.172334	0.388974	0.270074
	H16	H	0.408677	0.703467	0.825130
	H17	H	0.609932	0.704752	0.150475
	H18	H	0.604211	0.269688	0.826478
	H19	H	0.409461	0.275710	0.152090
	H20	H	0.718830	0.824418	0.392545
	H21	H	0.724165	0.154783	0.591622
	H22	H	0.292112	0.826201	0.587294
	H23	H	0.296541	0.156023	0.392962
	H24	H	0.906735	0.324972	0.200034
	H25	H	0.114436	0.652548	0.203144
	H26	H	0.109911	0.325952	0.766686
	H27	H	0.907130	0.652701	0.769726
	H28	H	0.223487	0.891114	0.326155
	H29	H	0.224772	0.093938	0.650271
	H30	H	0.786164	0.090773	0.327378
	H31	H	0.792948	0.890356	0.651563
	H32	H	0.343045	0.198001	0.894040
	H33	H	0.671834	0.203731	0.090767
	H34	H	0.343484	0.772617	0.086228
	H35	H	0.672005	0.775703	0.892358
	H36	H	0.343660	0.885767	0.204263
	H37	H	0.670038	0.093189	0.209957
	H38	H	0.345336	0.091069	0.772137
	H39	H	0.669250	0.884626	0.771189
	H40	H	0.908069	0.202676	0.322968
	H41	H	0.108874	0.210227	0.648621
	H42	H	0.104384	0.776297	0.323785
	H43	H	0.907801	0.773145	0.650016
	H44	H	0.220412	0.323933	0.884694
	H45	H	0.224222	0.653307	0.084647
	H46	H	0.797856	0.322880	0.080346
	H47	H	0.791785	0.651558	0.882831
	H48	H	0.417594	0.108317	0.584320
	H49	H	0.591545	0.875613	0.577815
	H50	H	0.605227	0.108179	0.402711
	H51	H	0.419598	0.876880	0.409989
	H52	H	0.614088	0.396954	0.106298
	H53	H	0.605082	0.581134	0.870080
	H54	H	0.419960	0.573914	0.099892
	H55	H	0.420053	0.391074	0.872519
	H56	H	0.127376	0.586568	0.388279
	H57	H	0.892462	0.571555	0.581743
	H58	H	0.129368	0.392000	0.578102
	H59	H	0.891308	0.396100	0.394049
	H60	H	0.121087	0.405905	0.568405
	H61	H	0.886806	0.586515	0.584296
	H62	H	0.124339	0.584905	0.397253
	H63	H	0.892130	0.403177	0.388182
	H64	H	0.419417	0.585142	0.102934
	H65	H	0.597785	0.576340	0.873432
	H66	H	0.601234	0.405846	0.100282
	H67	H	0.410840	0.388257	0.869583
	H68	H	0.594015	0.109196	0.393151
	H69	H	0.606660	0.871087	0.577652
	H70	H	0.416684	0.108633	0.584660
	H71	H	0.400102	0.866881	0.395257
	H72	H	0.915448	0.606663	0.071758
	H73	H	0.099356	0.368023	0.084016
	H74	H	0.097574	0.605139	0.896013
	H75	H	0.920073	0.369852	0.885913
	H76	H	0.105058	0.901435	0.603646
	H77	H	0.098410	0.082396	0.372769
	H78	H	0.922598	0.090854	0.603289
	H79	H	0.918942	0.902379	0.375924
	H80	H	0.623713	0.072890	0.898161
	H81	H	0.393412	0.074739	0.078923
	H82	H	0.628634	0.891069	0.088304
	H83	H	0.393100	0.892085	0.908985
	H84	H	0.622056	0.898085	0.075292
	H85	H	0.387797	0.077129	0.091531
	H86	H	0.627236	0.081973	0.895118
	H87	H	0.393498	0.910491	0.893657
	H88	H	0.910037	0.085687	0.604979
	H89	H	0.104303	0.086292	0.370302
	H90	H	0.094879	0.900740	0.601543
	H91	H	0.913398	0.887772	0.370012
	H92	H	0.104593	0.607688	0.895678
	H93	H	0.093745	0.373382	0.075679
	H94	H	0.918327	0.608786	0.081428
	H95	H	0.918698	0.372270	0.895116
	H96	H	0.417851	0.108735	0.585005
	H97	H	0.597477	0.869659	0.591292
	H98	H	0.591108	0.103511	0.406900
	H99	H	0.424545	0.870925	0.385265
	H100	H	0.598798	0.389043	0.104253
	H101	H	0.597287	0.584993	0.871134
	H102	H	0.409736	0.578857	0.104390
	H103	H	0.413011	0.397937	0.872405
	H104	H	0.124722	0.577814	0.390264
	H105	H	0.891409	0.581987	0.570572
	H106	H	0.127201	0.408653	0.585454
	H107	H	0.888705	0.395195	0.385525
	H108	H	0.926305	0.604711	0.074695
	H109	H	0.103915	0.370185	0.073865
	H110	H	0.099921	0.608368	0.889819
	H111	H	0.912261	0.368824	0.890581
	H112	H	0.100578	0.891889	0.604632
	H113	H	0.104545	0.078850	0.371820
	H114	H	0.920435	0.077287	0.599494
	H115	H	0.903073	0.900589	0.371337
	H116	H	0.624259	0.080250	0.905061
	H117	H	0.388258	0.087387	0.081966
	H118	H	0.623475	0.906576	0.089308
	H119	H	0.384775	0.887878	0.886712
	C120	C	0.386542	-0.000331	0.612332
	C121	C	0.629556	0.980787	0.612696
	C122	C	0.626892	-0.001380	0.370519
	C123	C	0.385953	0.980609	0.368424
	C124	C	0.631069	0.366190	-0.003959
	C125	C	0.630989	0.610695	0.978619
	C126	C	0.387008	0.608966	-0.004654
	C127	C	0.385443	0.364972	0.979089
	C128	C	0.016932	0.612246	0.362772
	C129	C	0.998707	0.611110	0.607886
	C130	C	0.017796	0.370739	0.605555
	C131	C	0.999477	0.368692	0.362006
	C132	C	0.889381	0.497956	0.105009
	C133	C	0.129816	0.479631	0.106973
	C134	C	0.129493	0.498163	0.863820
	C135	C	0.886964	0.479059	0.862232
	C136	C	0.129087	0.868912	0.495941
	C137	C	0.131332	0.113403	0.478970
	C138	C	0.886240	0.113050	0.495787
	C139	C	0.884310	0.867587	0.479936
	C140	C	0.516752	0.107852	0.870144
	C141	C	0.497968	0.110547	0.113884
	C142	C	0.516316	0.867435	0.111735
	C143	C	0.498566	0.867212	0.867469
	C144	C	0.385865	0.875158	0.666605
	C145	C	0.630230	0.104232	0.670270
	C146	C	0.626924	0.874605	0.313185
	C147	C	0.385939	0.103856	0.311866
	C148	C	0.684123	0.366246	0.873272
	C149	C	0.689564	0.609921	0.099696
	C150	C	0.331239	0.607395	0.872819
	C151	C	0.328800	0.367989	0.100313
	C152	C	0.892496	0.665686	0.366092
	C153	C	0.122537	0.667095	0.605201
	C154	C	0.893533	0.314718	0.601296
	C155	C	0.123038	0.313670	0.365636
	C156	C	0.895169	0.367898	0.661939
	C157	C	0.121565	0.613189	0.665231
	C158	C	0.894239	0.611513	0.304952
	C159	C	0.123093	0.369797	0.307788
	C160	C	0.388561	0.665208	0.873483
	C161	C	0.630234	0.666889	0.101312
	C162	C	0.626027	0.308305	0.874533
	C163	C	0.388166	0.311792	0.102268
	C164	C	0.682084	0.874041	0.371971
	C165	C	0.686463	0.104906	0.612051
	C166	C	0.329288	0.875756	0.608923
	C167	C	0.332864	0.105887	0.371906
	C168	C	0.888768	0.374128	0.161268
	C169	C	0.131980	0.603204	0.164056
	C170	C	0.128645	0.374840	0.805825
	C171	C	0.887512	0.603202	0.807228
	C172	C	0.184951	0.870903	0.374177
	C173	C	0.186603	0.113270	0.601365
	C174	C	0.826418	0.110727	0.374946
	C175	C	0.830339	0.869689	0.602598
	C176	C	0.392446	0.161905	0.872763
	C177	C	0.622302	0.166690	0.111825
	C178	C	0.392656	0.810664	0.107579
	C179	C	0.622283	0.811966	0.870526
	C180	C	0.392876	0.867153	0.166269
	C181	C	0.621296	0.111530	0.171047
	C182	C	0.393774	0.108257	0.812340
	C183	C	0.620995	0.866395	0.810473
	C184	C	0.886871	0.166659	0.372679
	C185	C	0.129039	0.171372	0.600389
	C186	C	0.125367	0.813928	0.373008
	C187	C	0.887359	0.811005	0.601647
	C188	C	0.183655	0.373723	0.864766
	C189	C	0.186897	0.603732	0.105125
	C190	C	0.834581	0.372711	0.101802
	C191	C	0.830075	0.602603	0.863514
	C192	C	0.410410	0.086299	0.591025
	C193	C	0.605651	0.894494	0.589179
	C194	C	0.603663	0.084568	0.393988
	C195	C	0.408194	0.893974	0.390346
	C196	C	0.610582	0.390398	0.081515
	C197	C	0.606932	0.587603	0.893739
	C198	C	0.409823	0.585945	0.080377
	C199	C	0.407996	0.386057	0.893615
	C200	C	0.103102	0.589771	0.385260
	C201	C	0.912604	0.587003	0.585594
	C202	C	0.103659	0.395033	0.583568
	C203	C	0.913107	0.391623	0.383087
	C204	C	0.913018	0.584177	0.082383
	C205	C	0.106067	0.392938	0.084339
	C206	C	0.107288	0.584640	0.887249
	C207	C	0.910122	0.392739	0.884205
	C208	C	0.106651	0.891580	0.581166
	C209	C	0.108872	0.089518	0.393629
	C210	C	0.910595	0.091245	0.580559
	C211	C	0.905453	0.890473	0.394643
	C212	C	0.602647	0.084992	0.892885
	C213	C	0.412216	0.086858	0.090975
	C214	C	0.602416	0.891517	0.090498
	C215	C	0.412803	0.890231	0.889832
	Zn216	Zn	0.507877	-0.011207	0.740167
	Zn217	Zn	0.507000	-0.010916	0.241031
	Zn218	Zn	0.761103	0.487972	-0.015205
	Zn219	Zn	0.256804	0.488125	-0.014524
	Zn220	Zn	0.006769	0.738640	0.486886
	Zn221	Zn	0.008536	0.242800	0.484966
	Zn222	Zn	0.008719	0.489776	0.735588
	Zn223	Zn	0.009177	0.489490	0.234145
	Zn224	Zn	0.507717	0.739374	-0.011414
	Zn225	Zn	0.508046	0.236399	-0.009768
	Zn226	Zn	0.756001	-0.009803	0.490366
	Zn227	Zn	0.259950	-0.008968	0.489483
	N228	N	0.420561	0.953415	0.668980
	N229	N	0.595414	0.026170	0.670595
	N230	N	0.593170	0.952978	0.312148
	N231	N	0.418463	0.025111	0.309651
	N232	N	0.687269	0.401476	0.949928
	N233	N	0.690298	0.575906	0.022449
	N234	N	0.330057	0.573097	0.949695
	N235	N	0.326824	0.400071	0.022657
	N236	N	0.969842	0.666424	0.401064
	N237	N	0.045244	0.665823	0.570266
	N238	N	0.970791	0.316568	0.566816
	N239	N	0.045119	0.312799	0.398661
	N240	N	0.973222	0.402185	0.664665
	N241	N	0.043404	0.579023	0.667029
	N242	N	0.972659	0.578835	0.302792
	N243	N	0.045110	0.403248	0.305213
	N244	N	0.422535	0.666379	0.950602
	N245	N	0.594535	0.667688	0.024917
	N246	N	0.593675	0.308017	0.952021
	N247	N	0.422638	0.309677	0.025762
	N248	N	0.682317	0.951931	0.407031
	N249	N	0.686300	0.027021	0.577097
	N250	N	0.329569	0.954063	0.575926
	N251	N	0.332708	0.028159	0.406433
	N252	N	0.922296	0.452977	0.163466
	N253	N	0.097068	0.525141	0.165121
	N254	N	0.095528	0.453139	0.805286
	N255	N	0.922190	0.525452	0.806122
	N256	N	0.187415	0.904414	0.451663
	N257	N	0.188049	0.077863	0.524866
	N258	N	0.825657	0.078381	0.452496
	N259	N	0.828440	0.904141	0.525840
	N260	N	0.469543	0.161645	0.908251
	N261	N	0.544635	0.166583	0.077061
	N262	N	0.470325	0.810761	0.074220
	N263	N	0.545238	0.812515	0.905316
	N264	N	0.470955	0.901694	0.169078
	N265	N	0.543270	0.077523	0.172370
	N266	N	0.472199	0.075459	0.810439
	N267	N	0.543020	0.900022	0.808554
	N268	N	0.923383	0.168179	0.448682
	N269	N	0.095297	0.171559	0.523120
	N270	N	0.091513	0.812409	0.449772
	N271	N	0.920211	0.809613	0.524309
	N272	N	0.184509	0.451495	0.900134
	N273	N	0.185670	0.525746	0.070173
	N274	N	0.834836	0.450567	0.067545
	N275	N	0.829540	0.524406	0.896943
	O276	O	0.999045	-0.172386	0.949027
	H277	H	0.999906	-0.177479	0.962100
	H278	H	0.995510	-0.168669	0.946949
	O279	O	0.478392	0.531553	0.455598
	H280	H	0.471165	0.537963	0.454339
	H281	H	0.466164	0.527517	0.451406
	O282	O	0.556372	0.592074	0.352823
	H283	H	0.546651	0.594778	0.353504
	H284	H	0.547807	0.587825	0.346386
	O285	O	0.434610	0.438717	0.441086
	H286	H	0.438122	0.438131	0.451358
	H287	H	0.436386	0.428370	0.444020
	O288	O	0.574217	0.364639	0.518513
	H289	H	0.566743	0.376942	0.528161
	H290	H	0.587199	0.353831	0.517894
	O291	O	0.044238	0.085021	0.966222
	H292	H	0.044623	0.088293	0.965571
	H293	H	0.057829	0.085082	0.963735
	O294	O	0.853521	1.020949	-0.058272
	H295	H	0.851894	1.016520	-0.061724
	H296	H	0.850537	1.020101	-0.060881
	O297	O	0.886801	0.933466	0.167862
	H298	H	0.886243	0.926192	0.190287
	H299	H	0.883935	0.929344	0.166141
	O300	O	0.509427	0.555963	0.480654
	H301	H	0.505814	0.562057	0.479574
	H302	H	0.508402	0.551525	0.474668
	O303	O	-0.053107	0.861478	1.167174
	H304	H	-0.051055	0.840575	1.187877
	H305	H	-0.051537	0.874702	1.150895
	O306	O	0.433186	0.541510	0.469349
	H307	H	0.436852	0.545081	0.468946
	H308	H	0.427642	0.534136	0.467242
	O309	O	0.561944	0.442651	0.414858
	H310	H	0.560935	0.436229	0.411418
	H311	H	0.558835	0.441965	0.434626
	O312	O	1.602611	1.555331	1.588799
	H313	H	1.609740	1.557665	1.576750
	H314	H	1.600698	1.566326	1.606317
	O315	O	1.545575	1.470195	-0.391118
	H316	H	1.553691	1.462165	-0.383125
	H317	H	1.550937	1.468463	-0.402728
	O318	O	0.106791	1.059421	0.912521
	H319	H	0.099323	1.057021	0.907215
	H320	H	0.102352	1.058621	0.906688
	O321	O	0.590452	0.397944	0.469798
	H322	H	0.582228	0.392029	0.476487
	H323	H	0.603615	0.392984	0.474614
	O324	O	0.032160	1.035116	1.037539
	H325	H	0.038518	1.036988	1.040400
	H326	H	0.037184	1.039370	1.042704
	O327	O	-0.020602	1.020074	0.975329
	H328	H	-0.016942	1.023521	0.987784
	H329	H	-0.014804	1.014299	0.978722
	O330	O	-0.519778	0.501375	0.416054
	H331	H	-0.528844	0.488984	0.415985
	H332	H	-0.513061	0.497965	0.412956
	O333	O	0.214170	0.782303	0.797544
	H334	H	0.226841	0.769892	0.800653
	H335	H	0.207315	0.783354	0.809211
	O336	O	-0.925472	-1.030976	1.110617
	H337	H	-0.930141	-1.026547	1.109312
	H338	H	-0.921686	-1.031921	1.113641
	O339	O	-0.007502	0.023673	0.001166
	H340	H	-0.015353	0.016559	0.000894
	H341	H	-0.004501	0.009737	-0.001526
	O342	O	0.373278	0.607553	0.571111
	H343	H	0.366664	0.607187	0.556277
	H344	H	0.374761	0.610519	0.562973
	O345	O	0.496477	0.438598	1.522090
	H346	H	0.507477	0.447883	1.518961
	H347	H	0.498193	0.431469	1.528198
	O348	O	0.580194	0.461294	0.542992
	H349	H	0.583816	0.469552	0.538257
	H350	H	0.576692	0.465268	0.544260
	O351	O	0.519304	0.385726	-0.502183
	H352	H	0.528494	0.389171	-0.512027
	H353	H	0.515036	0.381568	-0.503326
	O354	O	0.118170	0.956483	-0.151403
	H355	H	0.119708	0.940421	-0.159791
	H356	H	0.116396	0.955340	-0.143342
	O357	O	0.463779	0.588616	0.516529
	H358	H	0.465755	0.585570	0.517021
	H359	H	0.443642	0.593535	0.518270
	O360	O	1.097228	0.003921	0.900459
	H361	H	1.094343	-0.009951	0.892110
	H362	H	1.086544	0.001412	0.896850
	O363	O	0.638849	0.504031	0.541770
	H364	H	0.648219	0.514050	0.554348
	H365	H	0.632978	0.509460	0.543921
	O366	O	0.399595	0.572484	0.373198
	H367	H	0.404922	0.557178	0.370524
	H368	H	0.407044	0.574241	0.356446
	O369	O	0.940804	0.025155	-0.126004
	H370	H	0.929971	0.006921	-0.126109
	H371	H	0.929745	0.026186	-0.136918
	O372	O	0.540925	0.506917	0.510955
	H373	H	0.545189	0.498452	0.510985
	H374	H	0.540608	0.514400	0.503108
	O375	O	0.865849	-0.068723	0.993781
	H376	H	0.859758	-0.079616	1.002754
	H377	H	0.875007	-0.058839	0.984609
	O378	O	-0.153069	1.086196	-0.133647
	H379	H	-0.169292	1.089527	-0.147204
	H380	H	-0.140515	1.092376	-0.121545
	O381	O	-0.015716	1.017957	0.935072
	H382	H	-0.016018	1.012386	0.920847
	H383	H	-0.021159	1.023882	0.932139
	O384	O	1.076833	1.136467	0.053690
	H385	H	1.090984	1.133729	0.042925
	H386	H	1.090201	1.151266	0.043883
	O387	O	1.033850	-0.107757	1.044505
	H388	H	1.033324	-0.089493	1.041578
	H389	H	1.023335	-0.114977	1.044395
	O390	O	1.004813	0.993824	0.074322
	H391	H	1.008994	1.010546	0.073465
	H392	H	1.002332	0.993374	0.068096
	O393	O	0.067222	0.898354	0.018037
	H394	H	0.077736	0.914944	0.024279
	H395	H	0.064259	0.901834	0.013794
