data_Molecule from HDF5

_cell_length_a		16.293614
_cell_length_b		16.110288
_cell_length_c		16.164860
_cell_angle_alpha	89.867010
_cell_angle_beta	89.337359
_cell_angle_gamma	90.789290
_symmetry_space_group_name_H-M	'P 1'
_symmetry_Int_Tables_number		1

loop_
	_symmetry_equiv_pos_as_xyz
	x,y,z

loop_
	_atom_site_label
	_atom_site_type_symbol
	_atom_site_fract_x
	_atom_site_fract_y
	_atom_site_fract_z
	H0	H	0.395109	0.842310	0.722378
	H1	H	0.593491	0.174664	0.719498
	H2	H	0.592663	0.842451	0.295831
	H3	H	0.401059	0.173192	0.294747
	H4	H	0.709077	0.410823	0.846571
	H5	H	0.708294	0.609224	0.175387
	H6	H	0.281730	0.607658	0.845457
	H7	H	0.273616	0.403536	0.173330
	H8	H	0.830769	0.722155	0.413717
	H9	H	0.159297	0.726756	0.605024
	H10	H	0.833002	0.292222	0.612199
	H11	H	0.159918	0.300942	0.410213
	H12	H	0.831922	0.408601	0.727143
	H13	H	0.158542	0.613613	0.724311
	H14	H	0.830199	0.606596	0.298025
	H15	H	0.156893	0.412961	0.291485
	H16	H	0.402641	0.719586	0.843900
	H17	H	0.592499	0.722956	0.175264
	H18	H	0.590417	0.301182	0.843414
	H19	H	0.392209	0.291115	0.174003
	H20	H	0.710127	0.843803	0.408567
	H21	H	0.710236	0.173790	0.607373
	H22	H	0.274558	0.845968	0.611949
	H23	H	0.285450	0.175269	0.410122
	H24	H	0.891139	0.343834	0.225765
	H25	H	0.091689	0.675332	0.220369
	H26	H	0.090303	0.344374	0.795962
	H27	H	0.900805	0.675446	0.799139
	H28	H	0.211436	0.911779	0.346482
	H29	H	0.210962	0.113711	0.674604
	H30	H	0.784327	0.109697	0.345501
	H31	H	0.776916	0.907221	0.673579
	H32	H	0.331232	0.220234	0.911512
	H33	H	0.659599	0.226032	0.104253
	H34	H	0.333008	0.791077	0.112262
	H35	H	0.660095	0.798068	0.910360
	H36	H	0.333449	0.905018	0.228649
	H37	H	0.660218	0.110249	0.222293
	H38	H	0.331600	0.104112	0.797689
	H39	H	0.659198	0.910842	0.791591
	H40	H	0.903953	0.222551	0.345404
	H41	H	0.093131	0.225754	0.675395
	H42	H	0.094038	0.799879	0.344649
	H43	H	0.893460	0.795010	0.674516
	H44	H	0.206707	0.343427	0.909533
	H45	H	0.213975	0.671549	0.112346
	H46	H	0.774739	0.344048	0.111588
	H47	H	0.783669	0.674632	0.912863
	H48	H	0.405209	0.125472	0.598964
	H49	H	0.577376	0.895204	0.595017
	H50	H	0.592079	0.130857	0.402303
	H51	H	0.401525	0.889578	0.416065
	H52	H	0.576115	0.412309	0.126871
	H53	H	0.604896	0.613085	0.884626
	H54	H	0.414956	0.598922	0.123805
	H55	H	0.397979	0.411309	0.889086
	H56	H	0.108548	0.604642	0.420242
	H57	H	0.878275	0.590364	0.614546
	H58	H	0.109047	0.428096	0.601622
	H59	H	0.876219	0.409897	0.418142
	H60	H	0.115456	0.417500	0.611771
	H61	H	0.873666	0.614401	0.609963
	H62	H	0.112081	0.601098	0.407883
	H63	H	0.879127	0.415649	0.423830
	H64	H	0.395484	0.609033	0.132727
	H65	H	0.594809	0.586860	0.896609
	H66	H	0.591810	0.412559	0.132684
	H67	H	0.397407	0.418218	0.891985
	H68	H	0.578971	0.121603	0.421676
	H69	H	0.597658	0.888076	0.595890
	H70	H	0.399492	0.129895	0.603763
	H71	H	0.403146	0.893066	0.423162
	H72	H	0.900554	0.627935	0.108439
	H73	H	0.080160	0.392102	0.098870
	H74	H	0.079844	0.624695	0.918810
	H75	H	0.912301	0.392133	0.912333
	H76	H	0.090719	0.915933	0.630265
	H77	H	0.096309	0.098808	0.393186
	H78	H	0.905827	0.104713	0.628382
	H79	H	0.900938	0.917905	0.390310
	H80	H	0.612001	0.098421	0.908967
	H81	H	0.376129	0.111069	0.104485
	H82	H	0.611901	0.920722	0.103776
	H83	H	0.382852	0.918714	0.924374
	H84	H	0.614965	0.913915	0.104987
	H85	H	0.383889	0.093522	0.093477
	H86	H	0.615867	0.112488	0.908411
	H87	H	0.377550	0.917204	0.908819
	H88	H	0.895015	0.103048	0.630184
	H89	H	0.085560	0.105529	0.394702
	H90	H	0.085207	0.925208	0.626571
	H91	H	0.904080	0.919623	0.392360
	H92	H	0.095705	0.626742	0.926317
	H93	H	0.086000	0.390436	0.100847
	H94	H	0.902991	0.626535	0.101200
	H95	H	0.898726	0.394649	0.933072
	H96	H	0.406613	0.127461	0.607859
	H97	H	0.585195	0.886343	0.613933
	H98	H	0.602491	0.127383	0.425247
	H99	H	0.396073	0.889786	0.421153
	H100	H	0.584867	0.426066	0.126281
	H101	H	0.575753	0.609905	0.895077
	H102	H	0.394557	0.586472	0.125189
	H103	H	0.403930	0.415037	0.892344
	H104	H	0.114257	0.612766	0.412163
	H105	H	0.883075	0.599979	0.591787
	H106	H	0.113389	0.413471	0.597191
	H107	H	0.876916	0.417650	0.417202
	H108	H	0.896879	0.628459	0.102256
	H109	H	0.081316	0.390994	0.105469
	H110	H	0.094070	0.630802	0.909094
	H111	H	0.887541	0.385267	0.912498
	H112	H	0.080221	0.915412	0.627798
	H113	H	0.095067	0.110912	0.389558
	H114	H	0.902608	0.094642	0.626176
	H115	H	0.904683	0.915311	0.391331
	H116	H	0.611122	0.106543	0.921220
	H117	H	0.378873	0.091353	0.115718
	H118	H	0.612586	0.915835	0.097763
	H119	H	0.375979	0.904246	0.918732
	C120	C	0.373192	0.018484	0.632664
	C121	C	0.615884	0.999605	0.629819
	C122	C	0.618567	0.017242	0.387377
	C123	C	0.374459	1.000278	0.389951
	C124	C	0.613837	0.389128	0.019205
	C125	C	0.618066	0.631717	1.001445
	C126	C	0.374347	0.628153	0.018329
	C127	C	0.370399	0.384838	1.000522
	C128	C	0.002991	0.632744	0.387493
	C129	C	0.986383	0.632584	0.632561
	C130	C	0.004654	0.388690	0.632945
	C131	C	0.985964	0.388257	0.389105
	C132	C	0.870049	0.518136	0.133452
	C133	C	0.113297	0.500009	0.130460
	C134	C	0.116653	0.518079	0.888789
	C135	C	0.873453	0.500372	0.890513
	C136	C	0.115524	0.890442	0.519267
	C137	C	0.119321	0.134058	0.501635
	C138	C	0.875001	0.130512	0.518921
	C139	C	0.872833	0.887617	0.500624
	C140	C	0.504330	0.131551	0.886273
	C141	C	0.487835	0.129984	0.131412
	C142	C	0.505172	0.886285	0.132406
	C143	C	0.487216	0.886424	0.887556
	C144	C	0.374207	0.892660	0.686328
	C145	C	0.613832	0.124820	0.683086
	C146	C	0.614354	0.892367	0.332629
	C147	C	0.379718	0.124304	0.333095
	C148	C	0.670576	0.391231	0.895126
	C149	C	0.671262	0.629434	0.125965
	C150	C	0.320011	0.627163	0.894615
	C151	C	0.313194	0.384966	0.124397
	C152	C	0.879805	0.685685	0.392207
	C153	C	0.109878	0.689535	0.627686
	C154	C	0.881644	0.330988	0.632000
	C155	C	0.110039	0.336496	0.389797
	C156	C	0.881076	0.389024	0.689028
	C157	C	0.109633	0.633063	0.686623
	C158	C	0.879322	0.627937	0.334765
	C159	C	0.108655	0.392633	0.330953
	C160	C	0.380058	0.682832	0.893921
	C161	C	0.613677	0.686045	0.125918
	C162	C	0.611559	0.336685	0.893616
	C163	C	0.372288	0.329034	0.124622
	C164	C	0.672541	0.893119	0.388810
	C165	C	0.672090	0.124350	0.627534
	C166	C	0.314590	0.894522	0.631306
	C167	C	0.322360	0.125405	0.390614
	C168	C	0.870987	0.393489	0.188687
	C169	C	0.112255	0.625264	0.184171
	C170	C	0.111920	0.393522	0.833250
	C171	C	0.878865	0.625612	0.836068
	C172	C	0.172705	0.892338	0.395374
	C173	C	0.173188	0.132904	0.625443
	C174	C	0.821954	0.129203	0.394766
	C175	C	0.815844	0.888292	0.624508
	C176	C	0.380468	0.183412	0.890963
	C177	C	0.610781	0.187435	0.126445
	C178	C	0.382214	0.829186	0.132041
	C179	C	0.610913	0.834281	0.889691
	C180	C	0.382066	0.885974	0.189556
	C181	C	0.611038	0.129791	0.185098
	C182	C	0.380721	0.125881	0.833949
	C183	C	0.610310	0.890146	0.830452
	C184	C	0.881188	0.185615	0.394866
	C185	C	0.114801	0.188689	0.626008
	C186	C	0.114186	0.836686	0.394524
	C187	C	0.873667	0.832151	0.624873
	C188	C	0.169420	0.392957	0.889777
	C189	C	0.173000	0.623523	0.130401
	C190	C	0.813179	0.393520	0.131849
	C191	C	0.820746	0.625297	0.892643
	C192	C	0.396799	0.105104	0.610074
	C193	C	0.593230	0.912391	0.608069
	C194	C	0.597344	0.104191	0.409675
	C195	C	0.394450	0.913252	0.413295
	C196	C	0.591028	0.410572	0.106062
	C197	C	0.597850	0.609814	0.914709
	C198	C	0.395466	0.605127	0.105095
	C199	C	0.392835	0.408066	0.913669
	C200	C	0.089218	0.612040	0.407432
	C201	C	0.900610	0.608642	0.611609
	C202	C	0.090501	0.412644	0.610039
	C203	C	0.899836	0.408563	0.412685
	C204	C	0.893346	0.605145	0.110777
	C205	C	0.089363	0.413589	0.108251
	C206	C	0.096129	0.604924	0.911573
	C207	C	0.893499	0.413098	0.912869
	C208	C	0.092222	0.912439	0.605842
	C209	C	0.098476	0.111675	0.414988
	C210	C	0.895274	0.107499	0.605746
	C211	C	0.896275	0.910811	0.413937
	C212	C	0.590702	0.111796	0.906833
	C213	C	0.401849	0.105841	0.110757
	C214	C	0.591130	0.909886	0.108969
	C215	C	0.401154	0.907020	0.910566
	Zn216	Zn	0.495809	0.008528	0.758621
	Zn217	Zn	0.496510	0.007436	0.260975
	Zn218	Zn	0.743624	0.508624	0.010758
	Zn219	Zn	0.243326	0.507516	0.010048
	Zn220	Zn	-0.004956	0.761581	0.509746
	Zn221	Zn	-0.002952	0.260223	0.511272
	Zn222	Zn	-0.004653	0.510328	0.761870
	Zn223	Zn	-0.006988	0.509556	0.259706
	Zn224	Zn	0.496000	0.758533	0.010569
	Zn225	Zn	0.494944	0.259705	0.008902
	Zn226	Zn	0.745187	0.008641	0.509207
	Zn227	Zn	0.245121	0.011302	0.510863
	N228	N	0.409774	0.970756	0.687520
	N229	N	0.579774	0.046002	0.684964
	N230	N	0.581417	0.970648	0.331662
	N231	N	0.411312	0.045540	0.332574
	N232	N	0.672192	0.423024	0.974220
	N233	N	0.674255	0.596446	0.047467
	N234	N	0.316471	0.593796	0.973101
	N235	N	0.311998	0.418880	0.046089
	N236	N	0.957527	0.688665	0.424086
	N237	N	0.032354	0.689326	0.594633
	N238	N	0.959443	0.330661	0.597820
	N239	N	0.032870	0.333598	0.425214
	N240	N	0.958428	0.424430	0.689769
	N241	N	0.032070	0.597941	0.689642
	N242	N	0.957083	0.595746	0.331413
	N243	N	0.030368	0.423918	0.330278
	N244	N	0.413172	0.683397	0.971988
	N245	N	0.581429	0.687615	0.047597
	N246	N	0.576782	0.335489	0.971601
	N247	N	0.407222	0.328907	0.046495
	N248	N	0.675215	0.971695	0.422144
	N249	N	0.673419	0.045620	0.594905
	N250	N	0.313632	0.973501	0.598607
	N251	N	0.319179	0.047241	0.425283
	N252	N	0.905512	0.472048	0.189875
	N253	N	0.075832	0.547617	0.184411
	N254	N	0.079823	0.472203	0.832594
	N255	N	0.910792	0.546960	0.834582
	N256	N	0.173373	0.925346	0.473804
	N257	N	0.176269	0.099857	0.547132
	N258	N	0.817932	0.095723	0.473152
	N259	N	0.815050	0.922034	0.546186
	N260	N	0.458362	0.187062	0.922945
	N261	N	0.533102	0.187637	0.093881
	N262	N	0.459679	0.829542	0.096932
	N263	N	0.533339	0.831762	0.924632
	N264	N	0.459608	0.920589	0.190119
	N265	N	0.533496	0.094653	0.188162
	N266	N	0.458685	0.094210	0.830783
	N267	N	0.532430	0.922076	0.829330
	N268	N	0.913434	0.186430	0.473200
	N269	N	0.082074	0.189540	0.547940
	N270	N	0.079404	0.835401	0.472594
	N271	N	0.908445	0.831607	0.546726
	N272	N	0.172642	0.471337	0.923460
	N273	N	0.173647	0.544820	0.097581
	N274	N	0.812346	0.472135	0.098478
	N275	N	0.817271	0.546435	0.925782
	O276	O	-0.044341	-0.028790	-0.031144
	H277	H	-0.049980	-0.017723	-0.030615
	H278	H	-0.036501	-0.025355	-0.038592
	O279	O	0.483943	0.523896	0.570530
	H280	H	0.485984	0.534826	0.563610
	H281	H	0.474492	0.524670	0.570690
	O282	O	0.467463	0.533199	0.492876
	H283	H	0.477939	0.523995	0.487718
	H284	H	0.477769	0.533891	0.498863
	O285	O	0.949481	-0.052632	1.106233
	H286	H	0.960878	-0.052488	1.104982
	H287	H	0.952317	-0.055196	1.109214
	O288	O	1.041398	-0.031139	0.030569
	H289	H	1.035409	-0.036295	0.029477
	H290	H	1.031274	-0.019077	0.029401
	O291	O	0.551471	0.517404	0.499774
	H292	H	0.554738	0.513279	0.502733
	H293	H	0.560988	0.529562	0.497308
	O294	O	1.066505	0.059465	1.061035
	H295	H	1.063339	0.063694	1.070411
	H296	H	1.063877	0.061897	1.067676
	O297	O	0.030698	0.087452	-0.025970
	H298	H	0.040518	0.083513	-0.031700
	H299	H	0.035380	0.098304	-0.030922
	O300	O	0.429915	0.412586	0.567742
	H301	H	0.442934	0.416094	0.573820
	H302	H	0.431338	0.401914	0.570722
	O303	O	0.570517	0.514961	0.523459
	H304	H	0.565524	0.502328	0.523238
	H305	H	0.583670	0.528506	0.523869
	O306	O	0.945438	-0.036431	0.050339
	H307	H	0.949031	-0.025550	0.042297
	H308	H	0.951050	-0.036505	0.043767
	O309	O	-0.033864	-0.095680	0.968054
	H310	H	-0.031095	-0.104653	0.968244
	H311	H	-0.030474	-0.099226	0.974867
	O312	O	1.435381	0.482791	0.530641
	H313	H	1.419905	0.493201	0.539965
	H314	H	1.431944	0.478485	0.528423
	O315	O	0.937788	0.011917	0.019762
	H316	H	0.942345	0.014268	0.020057
	H317	H	0.936422	0.009102	0.020790
	O318	O	0.530136	0.552893	0.462122
	H319	H	0.528635	0.558223	0.460475
	H320	H	0.528886	0.554374	0.460223
	O321	O	-0.059239	0.983411	1.046954
	H322	H	-0.060084	0.986404	1.047758
	H323	H	-0.070234	0.981125	1.059025
	O324	O	0.998389	0.969426	0.126671
	H325	H	0.995607	0.967605	0.132155
	H326	H	0.986920	0.974235	0.119262
	O327	O	0.441590	0.515509	0.550668
	H328	H	0.440684	0.509512	0.555272
	H329	H	0.437480	0.516903	0.545598
	O330	O	1.027417	1.036077	0.052414
	H331	H	1.024390	1.026582	0.063873
	H332	H	1.023273	1.031640	0.048855
	O333	O	0.561422	0.463334	0.425656
	H334	H	0.558499	0.444839	0.414934
	H335	H	0.563249	0.469352	0.419570
	O336	O	0.514059	0.422822	0.467802
	H337	H	0.514245	0.402929	0.463841
	H338	H	0.508364	0.413672	0.482875
	O339	O	0.480415	0.485571	-0.492017
	H340	H	0.472886	0.496930	-0.481185
	H341	H	0.474331	0.495110	-0.505001
	O342	O	0.529116	0.572680	0.544420
	H343	H	0.531421	0.587638	0.539783
	H344	H	0.524255	0.577069	0.546364
	O345	O	0.556328	0.492662	0.435821
	H346	H	0.558278	0.483765	0.442036
	H347	H	0.560269	0.490364	0.429806
	O348	O	0.120284	-0.020373	0.024027
	H349	H	0.122129	-0.015480	0.026211
	H350	H	0.119950	-0.033124	0.023162
	O351	O	0.037909	0.993399	0.967122
	H352	H	0.040278	0.986717	0.965778
	H353	H	0.040277	0.986308	0.976242
	O354	O	0.429195	0.518138	0.480115
	H355	H	0.434381	0.511313	0.478486
	H356	H	0.429747	0.513778	0.471383
	O357	O	0.110140	1.019249	0.966061
	H358	H	0.116060	1.004548	0.964402
	H359	H	0.122112	1.020909	0.956349
