data_Molecule from HDF5

_cell_length_a		16.649288
_cell_length_b		16.383847
_cell_length_c		16.387464
_cell_angle_alpha	90.006277
_cell_angle_beta	90.029617
_cell_angle_gamma	89.956061
_symmetry_space_group_name_H-M	'P 1'
_symmetry_Int_Tables_number		1

loop_
	_symmetry_equiv_pos_as_xyz
	x,y,z

loop_
	_atom_site_label
	_atom_site_type_symbol
	_atom_site_fract_x
	_atom_site_fract_y
	_atom_site_fract_z
	H0	H	0.391430	0.841169	0.720830
	H1	H	0.601353	0.158971	0.716793
	H2	H	0.601372	0.839868	0.280717
	H3	H	0.396063	0.157650	0.278464
	H4	H	0.723525	0.389503	0.839395
	H5	H	0.722729	0.607490	0.153020
	H6	H	0.275984	0.608347	0.839816
	H7	H	0.277609	0.393757	0.154003
	H8	H	0.844777	0.724206	0.389823
	H9	H	0.155260	0.725513	0.606153
	H10	H	0.843510	0.278549	0.602358
	H11	H	0.155508	0.279441	0.393661
	H12	H	0.843350	0.395866	0.718514
	H13	H	0.155262	0.608547	0.722519
	H14	H	0.844629	0.608347	0.272188
	H15	H	0.155410	0.394958	0.274736
	H16	H	0.396029	0.719524	0.837064
	H17	H	0.603487	0.719154	0.155741
	H18	H	0.603354	0.278023	0.837894
	H19	H	0.398058	0.281896	0.156171
	H20	H	0.722986	0.843275	0.391364
	H21	H	0.721348	0.157642	0.605035
	H22	H	0.272687	0.843471	0.608416
	H23	H	0.276597	0.156074	0.390669
	H24	H	0.898927	0.340132	0.214289
	H25	H	0.102942	0.659155	0.216523
	H26	H	0.101717	0.341274	0.777912
	H27	H	0.895866	0.659736	0.776827
	H28	H	0.222714	0.890410	0.340530
	H29	H	0.222000	0.107098	0.655193
	H30	H	0.777741	0.106869	0.339512
	H31	H	0.776512	0.891690	0.655027
	H32	H	0.341791	0.221379	0.891986
	H33	H	0.656252	0.219073	0.100701
	H34	H	0.343351	0.776942	0.102390
	H35	H	0.657667	0.779262	0.893404
	H36	H	0.342904	0.892916	0.219935
	H37	H	0.655578	0.102217	0.218304
	H38	H	0.342662	0.104586	0.774660
	H39	H	0.656763	0.894825	0.775946
	H40	H	0.897902	0.217638	0.337380
	H41	H	0.102797	0.219665	0.656576
	H42	H	0.104720	0.778368	0.338839
	H43	H	0.892983	0.776763	0.654935
	H44	H	0.223538	0.344427	0.887683
	H45	H	0.223260	0.657186	0.106328
	H46	H	0.779393	0.341137	0.101702
	H47	H	0.775425	0.657284	0.887689
	H48	H	0.409538	0.108546	0.577002
	H49	H	0.590067	0.887575	0.579126
	H50	H	0.588652	0.111950	0.410692
	H51	H	0.412555	0.885964	0.409774
	H52	H	0.585999	0.412422	0.107928
	H53	H	0.587727	0.586990	0.883220
	H54	H	0.406999	0.587992	0.111075
	H55	H	0.412260	0.410655	0.883017
	H56	H	0.109104	0.589246	0.414922
	H57	H	0.888578	0.591479	0.585636
	H58	H	0.113450	0.410988	0.594461
	H59	H	0.887618	0.411031	0.405267
	H60	H	0.112137	0.404296	0.583648
	H61	H	0.892038	0.587111	0.579662
	H62	H	0.109924	0.581726	0.404229
	H63	H	0.885634	0.409955	0.405289
	H64	H	0.411212	0.583998	0.108594
	H65	H	0.588065	0.587094	0.884098
	H66	H	0.590796	0.406217	0.111273
	H67	H	0.408134	0.411156	0.882415
	H68	H	0.591867	0.114710	0.409738
	H69	H	0.594162	0.883510	0.587862
	H70	H	0.404723	0.115467	0.588013
	H71	H	0.409765	0.886009	0.414047
	H72	H	0.909408	0.610786	0.075983
	H73	H	0.091861	0.386026	0.084817
	H74	H	0.089323	0.615895	0.904768
	H75	H	0.916779	0.389981	0.910151
	H76	H	0.087089	0.917266	0.608085
	H77	H	0.085649	0.088902	0.385276
	H78	H	0.909862	0.087949	0.610340
	H79	H	0.910513	0.917773	0.386806
	H80	H	0.611912	0.092559	0.906012
	H81	H	0.387986	0.090226	0.085586
	H82	H	0.612012	0.908696	0.088175
	H83	H	0.388352	0.909812	0.906795
	H84	H	0.610944	0.909038	0.087441
	H85	H	0.387221	0.087070	0.088452
	H86	H	0.608639	0.088158	0.911405
	H87	H	0.388783	0.908417	0.909726
	H88	H	0.910921	0.089734	0.611034
	H89	H	0.091974	0.091410	0.381919
	H90	H	0.082978	0.913697	0.608391
	H91	H	0.915127	0.912062	0.386129
	H92	H	0.082507	0.610913	0.912290
	H93	H	0.087230	0.387625	0.084989
	H94	H	0.903527	0.616312	0.086326
	H95	H	0.904055	0.387329	0.913831
	H96	H	0.417116	0.110218	0.587544
	H97	H	0.584515	0.887076	0.587383
	H98	H	0.588912	0.114432	0.407330
	H99	H	0.407784	0.884384	0.409218
	H100	H	0.594016	0.413461	0.109759
	H101	H	0.587552	0.586734	0.883596
	H102	H	0.412346	0.590094	0.109852
	H103	H	0.410895	0.413909	0.883103
	H104	H	0.114677	0.594033	0.404060
	H105	H	0.890898	0.583568	0.586730
	H106	H	0.108697	0.416259	0.583929
	H107	H	0.887581	0.409904	0.406532
	H108	H	0.915929	0.612847	0.087338
	H109	H	0.089794	0.387573	0.080249
	H110	H	0.092896	0.613463	0.915329
	H111	H	0.909230	0.383225	0.901359
	H112	H	0.087870	0.912901	0.610968
	H113	H	0.091834	0.084034	0.384429
	H114	H	0.908699	0.089518	0.611603
	H115	H	0.908360	0.911748	0.383226
	H116	H	0.610227	0.085381	0.904782
	H117	H	0.385724	0.091253	0.088794
	H118	H	0.610944	0.910204	0.088520
	H119	H	0.389264	0.911500	0.909649
	C120	C	0.377171	0.007535	0.618350
	C121	C	0.621029	0.990876	0.617936
	C122	C	0.621331	0.008798	0.377058
	C123	C	0.377909	0.990073	0.377632
	C124	C	0.621823	0.377496	0.005099
	C125	C	0.620402	0.619825	0.988048
	C126	C	0.378332	0.620657	0.005257
	C127	C	0.378755	0.379375	0.987920
	C128	C	0.008591	0.621933	0.374469
	C129	C	0.992490	0.621641	0.618471
	C130	C	0.008296	0.378196	0.619616
	C131	C	0.990435	0.378358	0.374574
	C132	C	0.878596	0.508332	0.116152
	C133	C	0.121160	0.491561	0.117162
	C134	C	0.120263	0.509057	0.876880
	C135	C	0.877906	0.491550	0.875226
	C136	C	0.119882	0.879797	0.505451
	C137	C	0.121424	0.121138	0.488487
	C138	C	0.878045	0.121290	0.506103
	C139	C	0.878451	0.879240	0.489181
	C140	C	0.506509	0.120812	0.875391
	C141	C	0.490646	0.120892	0.119157
	C142	C	0.507820	0.876855	0.119756
	C143	C	0.491990	0.877493	0.875804
	C144	C	0.373520	0.889098	0.680569
	C145	C	0.621399	0.110708	0.678082
	C146	C	0.621773	0.888493	0.318713
	C147	C	0.376829	0.109602	0.317661
	C148	C	0.681997	0.373296	0.886330
	C149	C	0.681679	0.624172	0.106335
	C150	C	0.317029	0.625317	0.886625
	C151	C	0.318521	0.376223	0.106878
	C152	C	0.891474	0.683637	0.371507
	C153	C	0.108808	0.684306	0.623203
	C154	C	0.890360	0.318754	0.620804
	C155	C	0.108460	0.318726	0.373911
	C156	C	0.890297	0.377047	0.678701
	C157	C	0.108731	0.626112	0.681219
	C158	C	0.891528	0.626027	0.312901
	C159	C	0.108340	0.376327	0.315020
	C160	C	0.376814	0.680601	0.885514
	C161	C	0.622446	0.679969	0.107511
	C162	C	0.622573	0.317281	0.885800
	C163	C	0.378398	0.320587	0.108125
	C164	C	0.681879	0.889839	0.373901
	C165	C	0.681023	0.110053	0.622282
	C166	C	0.314482	0.889895	0.624335
	C167	C	0.317285	0.108745	0.373437
	C168	C	0.878773	0.388191	0.175271
	C169	C	0.122122	0.610993	0.177573
	C170	C	0.121304	0.389552	0.816679
	C171	C	0.876661	0.611542	0.815716
	C172	C	0.182087	0.874070	0.387718
	C173	C	0.181381	0.124568	0.607880
	C174	C	0.818289	0.124197	0.386914
	C175	C	0.816998	0.874449	0.607450
	C176	C	0.389088	0.180996	0.873520
	C177	C	0.609061	0.179540	0.119852
	C178	C	0.389955	0.817000	0.120962
	C179	C	0.610446	0.818756	0.874694
	C180	C	0.390022	0.874756	0.179525
	C181	C	0.608535	0.121713	0.178587
	C182	C	0.389100	0.122833	0.815140
	C183	C	0.609695	0.876120	0.816041
	C184	C	0.878055	0.179547	0.385843
	C185	C	0.122131	0.180726	0.608355
	C186	C	0.122965	0.818362	0.386523
	C187	C	0.875266	0.817172	0.607502
	C188	C	0.181824	0.391036	0.871275
	C189	C	0.181960	0.610066	0.122380
	C190	C	0.819331	0.388840	0.119363
	C191	C	0.816827	0.610344	0.871138
	C192	C	0.403066	0.089763	0.591693
	C193	C	0.596551	0.907788	0.592190
	C194	C	0.596863	0.091968	0.402207
	C195	C	0.402868	0.907041	0.403696
	C196	C	0.597457	0.403350	0.087961
	C197	C	0.595007	0.594023	0.905225
	C198	C	0.403072	0.594865	0.088239
	C199	C	0.403385	0.404713	0.904556
	C200	C	0.089770	0.595966	0.400430
	C201	C	0.911597	0.595100	0.591683
	C202	C	0.089951	0.403311	0.594616
	C203	C	0.908254	0.403226	0.398820
	C204	C	0.902576	0.591691	0.090785
	C205	C	0.096593	0.408708	0.090940
	C206	C	0.095345	0.591949	0.903259
	C207	C	0.902842	0.408568	0.901038
	C208	C	0.093435	0.906824	0.587660
	C209	C	0.097098	0.095386	0.405518
	C210	C	0.902568	0.096076	0.589529
	C211	C	0.904054	0.906271	0.406812
	C212	C	0.588912	0.095728	0.900110
	C213	C	0.408398	0.096701	0.094547
	C214	C	0.589684	0.902058	0.095372
	C215	C	0.410225	0.902486	0.901483
	Zn216	Zn	0.499329	-0.001200	0.745738
	Zn217	Zn	0.499368	-0.001230	0.249016
	Zn218	Zn	0.749563	0.499471	-0.004438
	Zn219	Zn	0.249909	0.500414	-0.003468
	Zn220	Zn	0.000505	0.751011	0.496858
	Zn221	Zn	-0.000617	0.249220	0.496836
	Zn222	Zn	-0.000256	0.500700	0.748092
	Zn223	Zn	-0.000337	0.500317	0.244944
	Zn224	Zn	0.499850	0.748085	-0.002805
	Zn225	Zn	0.499285	0.250504	-0.003308
	Zn226	Zn	0.749679	0.000304	0.497883
	Zn227	Zn	0.249174	-0.001100	0.498088
	N228	N	0.412065	0.963164	0.676897
	N229	N	0.584895	0.035568	0.675547
	N230	N	0.584949	0.963510	0.320466
	N231	N	0.413629	0.034524	0.319922
	N232	N	0.681806	0.409915	0.961655
	N233	N	0.680747	0.587541	0.030903
	N234	N	0.317801	0.588960	0.962113
	N235	N	0.318514	0.411759	0.030893
	N236	N	0.965226	0.681281	0.409082
	N237	N	0.035436	0.681659	0.584713
	N238	N	0.964834	0.319147	0.584815
	N239	N	0.034160	0.319880	0.410115
	N240	N	0.964572	0.413369	0.677975
	N241	N	0.035527	0.587850	0.678236
	N242	N	0.965254	0.588474	0.314408
	N243	N	0.033992	0.412721	0.315331
	N244	N	0.414262	0.677970	0.960382
	N245	N	0.585084	0.677288	0.032987
	N246	N	0.585830	0.319693	0.960689
	N247	N	0.414794	0.322190	0.032991
	N248	N	0.681970	0.965839	0.409138
	N249	N	0.681012	0.034434	0.585865
	N250	N	0.316766	0.964508	0.586378
	N251	N	0.317723	0.033169	0.409629
	N252	N	0.914680	0.463693	0.173562
	N253	N	0.084815	0.536229	0.174382
	N254	N	0.083789	0.464234	0.819803
	N255	N	0.913774	0.536589	0.818150
	N256	N	0.180001	0.911843	0.462645
	N257	N	0.181218	0.088220	0.532298
	N258	N	0.818107	0.088811	0.462976
	N259	N	0.818961	0.912465	0.532823
	N260	N	0.463288	0.179828	0.910206
	N261	N	0.534612	0.179450	0.083840
	N262	N	0.464251	0.818125	0.084527
	N263	N	0.535978	0.819199	0.910931
	N264	N	0.464235	0.911044	0.178953
	N265	N	0.533970	0.086040	0.178257
	N266	N	0.463374	0.086320	0.816314
	N267	N	0.535007	0.911829	0.816467
	N268	N	0.914406	0.177993	0.461089
	N269	N	0.085571	0.178818	0.533192
	N270	N	0.084852	0.821971	0.460767
	N271	N	0.912687	0.819877	0.532825
	N272	N	0.181381	0.466446	0.907717
	N273	N	0.181472	0.534850	0.085428
	N274	N	0.818901	0.464765	0.083602
	N275	N	0.817210	0.534543	0.907027
	O276	O	0.723422	0.471668	0.278082
	H277	H	0.752823	0.470050	0.254246
	H278	H	0.709648	0.456463	0.279382
	O279	O	0.407484	0.533100	0.664173
	H280	H	0.410445	0.519428	0.671952
	H281	H	0.419670	0.553270	0.664461
	O282	O	0.807149	0.801063	0.124788
	H283	H	0.800117	0.795469	0.120835
	H284	H	0.825829	0.811107	0.131419
	O285	O	0.449469	0.438927	0.409741
	H286	H	0.460264	0.438553	0.424554
	H287	H	0.465775	0.444242	0.407712
	O288	O	0.192089	0.013475	-0.047727
	H289	H	0.194175	0.028042	-0.042044
	H290	H	0.193333	0.004714	-0.030098
	O291	O	0.910196	0.805489	0.182250
	H292	H	0.910197	0.788924	0.199537
	H293	H	0.917940	0.803630	0.166393
	O294	O	0.055538	0.932030	0.048190
	H295	H	0.056269	0.923728	0.031246
	H296	H	0.074279	0.933693	0.045518
	O297	O	0.350765	0.361268	0.306077
	H298	H	0.373295	0.373040	0.311204
	H299	H	0.348892	0.350204	0.295145
	O300	O	0.506587	0.506118	0.681226
	H301	H	0.513254	0.493670	0.675325
	H302	H	0.508003	0.493296	0.679510
	O303	O	0.284409	0.475282	0.687470
	H304	H	0.303883	0.479040	0.695124
	H305	H	0.272965	0.468171	0.710293
	O306	O	0.218105	0.784026	0.976801
	H307	H	0.205767	0.797589	0.934318
	H308	H	0.249475	0.749196	0.972567
	O309	O	0.706344	0.706978	0.521032
	H310	H	0.731205	0.720198	0.513510
	H311	H	0.705692	0.683696	0.494104
	O312	O	0.447730	0.714970	0.562132
	H313	H	0.432561	0.715251	0.551831
	H314	H	0.467540	0.712781	0.561965
	O315	O	0.098460	-0.162509	1.085714
	H316	H	0.078497	-0.151256	1.075807
	H317	H	0.113593	-0.168624	1.080477
	O318	O	0.164797	0.951828	0.051262
	H319	H	0.176296	0.941411	0.053534
	H320	H	0.167599	0.956143	0.056977
	O321	O	0.606663	0.697033	0.385607
	H322	H	0.599551	0.685898	0.398396
	H323	H	0.616469	0.700354	0.388193
	O324	O	0.803504	0.193503	0.842034
	H325	H	0.793443	0.210911	0.858684
	H326	H	0.826030	0.195880	0.848435
	O327	O	0.849161	0.154857	1.108763
	H328	H	0.846078	0.159450	1.114061
	H329	H	0.848212	0.151176	1.114685
	O330	O	1.005822	-0.159358	0.164091
	H331	H	0.996753	-0.161911	0.161950
	H332	H	1.000065	-0.161539	0.161764
	O333	O	0.994645	0.982156	0.926866
	H334	H	0.984815	1.001773	0.925388
	H335	H	0.981530	0.978867	0.932473
	O336	O	0.984503	0.204401	0.802452
	H337	H	0.982326	0.201411	0.794593
	H338	H	0.988721	0.204729	0.793513
	O339	O	0.300923	0.306752	0.693156
	H340	H	0.286889	0.306897	0.712763
	H341	H	0.293469	0.303590	0.647343
	O342	O	0.566689	0.325135	0.589987
	H343	H	0.565470	0.329734	0.589230
	H344	H	0.556804	0.332150	0.603497
	O345	O	0.201284	0.197586	0.194774
	H346	H	0.178864	0.192247	0.196404
	H347	H	0.209665	0.176665	0.185267
	O348	O	0.800109	-0.046313	1.052601
	H349	H	0.808076	-0.043878	1.047549
	H350	H	0.802897	-0.042478	1.065393
	O351	O	0.883506	0.987895	0.190351
	H352	H	0.874796	0.987025	0.200850
	H353	H	0.892855	0.966345	0.179835
	O354	O	0.706331	0.300685	0.460330
	H355	H	0.701122	0.288155	0.462568
	H356	H	0.719615	0.306150	0.448928
	O357	O	0.915622	0.903033	0.975270
	H358	H	0.901447	0.916254	0.969538
	H359	H	0.922316	0.908342	0.972557
	O360	O	0.694906	0.492195	0.458455
	H361	H	0.699430	0.478783	0.464156
	H362	H	0.698194	0.480996	0.458814
	O363	O	0.702244	0.469940	0.549873
	H364	H	0.686517	0.472229	0.553832
	H365	H	0.702273	0.453378	0.561064
	O366	O	0.787069	0.046228	0.785118
	H367	H	0.789820	0.069357	0.779032
	H368	H	0.771160	0.062336	0.770044
	O369	O	0.328762	0.510533	0.310188
	H370	H	0.309882	0.498109	0.293140
	H371	H	0.340415	0.505476	0.324769
	O372	O	0.470847	0.286476	0.705829
	H373	H	0.461141	0.279671	0.710390
	H374	H	0.440783	0.278224	0.720677
	O375	O	0.203376	0.979097	0.790025
	H376	H	0.209662	0.974415	0.783311
	H377	H	0.218300	0.988529	0.796996
	O378	O	0.538596	0.292729	0.308594
	H379	H	0.530549	0.282103	0.301035
	H380	H	0.519515	0.298685	0.315703
	O381	O	1.113944	0.178995	-0.024429
	H382	H	1.098895	0.189791	-0.015509
	H383	H	1.119774	0.184716	-0.022737
	O384	O	0.006482	-0.034757	0.788312
	H385	H	-0.004830	-0.037430	0.785601
	H386	H	0.004191	-0.025473	0.801418
	O387	O	0.002065	0.818750	0.800088
	H388	H	-0.016659	0.834600	0.802124
	H389	H	-0.005445	0.805408	0.788176
	O390	O	0.088179	0.155327	0.798885
	H391	H	0.093603	0.145898	0.817195
	H392	H	0.078489	0.133007	0.796691
	O393	O	0.870109	0.813860	-0.020636
	H394	H	0.873924	0.808590	-0.003652
	H395	H	0.855223	0.807837	-0.012504
	O396	O	0.460431	0.504120	0.287703
	H397	H	0.474381	0.505781	0.293160
	H398	H	0.456325	0.534787	0.278098
	O399	O	0.305171	0.701836	0.488973
	H400	H	0.309000	0.696129	0.490258
	H401	H	0.287691	0.692376	0.496039
	O402	O	-0.026987	0.143310	0.979233
	H403	H	-0.039397	0.119813	0.975001
	H404	H	-0.028895	0.145989	0.990148
	O405	O	0.120578	0.196027	0.045558
	H406	H	0.147352	0.214388	0.054153
	H407	H	0.114980	0.189565	0.070291
	O408	O	0.691445	0.689489	0.683802
	H409	H	0.703780	0.696885	0.651053
	H410	H	0.679993	0.691264	0.680940
	O411	O	0.273040	0.561137	0.538663
	H412	H	0.268785	0.548790	0.565914
	H413	H	0.274962	0.538414	0.536775
	O414	O	0.475009	0.712391	0.283017
	H415	H	0.450363	0.729668	0.270722
	H416	H	0.463353	0.721659	0.288089
	O417	O	0.284107	0.342189	0.495290
	H418	H	0.276973	0.328351	0.488450
	H419	H	0.279803	0.348515	0.480873
	O420	O	0.632520	0.623405	0.304430
	H421	H	0.620359	0.615216	0.302606
	H422	H	0.629922	0.631518	0.308884
	O423	O	-0.162423	1.047689	0.065343
	H424	H	-0.161358	1.029010	0.057921
	H425	H	-0.157126	1.047078	0.072956
	O426	O	0.946772	1.023182	0.992687
	H427	H	0.944669	1.004179	0.990813
	H428	H	0.934821	1.022864	0.992033
	O429	O	0.345614	0.678251	0.332698
	H430	H	0.334321	0.659397	0.328020
	H431	H	0.344166	0.680831	0.359993
	O432	O	0.420833	0.438774	0.594645
	H433	H	0.411375	0.433322	0.597296
	H434	H	0.436884	0.439908	0.604122
	O435	O	0.213662	0.030225	0.202968
	H436	H	0.222754	0.027108	0.219874
	H437	H	0.213937	0.024174	0.205966
	O438	O	1.030568	0.205187	0.203071
	H439	H	1.034970	0.218807	0.201403
	H440	H	1.023465	0.206917	0.214481
	O441	O	0.457510	0.305687	0.399255
	H442	H	0.464455	0.309122	0.406767
	H443	H	0.466879	0.323852	0.412501
	O444	O	0.186656	0.811925	0.815917
	H445	H	0.184301	0.837753	0.804411
	H446	H	0.156433	0.806378	0.804548
	O447	O	0.531587	0.698097	0.600357
	H448	H	0.514377	0.699279	0.604582
	H449	H	0.531350	0.720232	0.597979
	O450	O	0.519034	0.604419	0.599582
	H451	H	0.527186	0.605733	0.615772
	H452	H	0.525495	0.613883	0.596616
	O453	O	0.717001	0.526204	0.715704
	H454	H	0.722041	0.536425	0.727641
	H455	H	0.726839	0.540348	0.726305
	O456	O	0.709562	0.290945	0.287010
	H457	H	0.679394	0.306091	0.286395
	H458	H	0.707066	0.283758	0.306560
	O459	O	0.472343	0.469696	0.493026
	H460	H	0.474538	0.465470	0.497894
	H461	H	0.468777	0.481391	0.490433
	O462	O	0.601019	0.379799	0.658612
	H463	H	0.601474	0.396113	0.649229
	H464	H	0.621295	0.376673	0.664716
	O465	O	0.835179	0.144431	0.030146
	H466	H	0.838738	0.126414	0.047724
	H467	H	0.819025	0.162461	0.038332
