data_Molecule from HDF5

_cell_length_a		16.263152
_cell_length_b		16.252170
_cell_length_c		16.241049
_cell_angle_alpha	89.995031
_cell_angle_beta	90.086950
_cell_angle_gamma	89.917931
_symmetry_space_group_name_H-M	'P 1'
_symmetry_Int_Tables_number		1

loop_
	_symmetry_equiv_pos_as_xyz
	x,y,z

loop_
	_atom_site_label
	_atom_site_type_symbol
	_atom_site_fract_x
	_atom_site_fract_y
	_atom_site_fract_z
	H0	H	0.402321	0.836126	0.713899
	H1	H	0.597815	0.163895	0.713806
	H2	H	0.597222	0.836144	0.286567
	H3	H	0.402692	0.164821	0.286913
	H4	H	0.713713	0.400643	0.836010
	H5	H	0.714479	0.598638	0.163344
	H6	H	0.285073	0.598464	0.836348
	H7	H	0.286190	0.401147	0.164190
	H8	H	0.836701	0.714754	0.400786
	H9	H	0.164108	0.713841	0.598686
	H10	H	0.836212	0.285851	0.597247
	H11	H	0.164675	0.286938	0.403588
	H12	H	0.836167	0.402438	0.712454
	H13	H	0.163599	0.598780	0.715351
	H14	H	0.836498	0.598397	0.285587
	H15	H	0.164321	0.402258	0.286616
	H16	H	0.400481	0.714747	0.836636
	H17	H	0.598760	0.713337	0.164161
	H18	H	0.597532	0.285785	0.835834
	H19	H	0.402147	0.286207	0.164286
	H20	H	0.713333	0.836000	0.402253
	H21	H	0.713435	0.163823	0.597869
	H22	H	0.286368	0.836072	0.598926
	H23	H	0.285277	0.163807	0.401027
	H24	H	0.902227	0.336035	0.214716
	H25	H	0.099007	0.663827	0.214290
	H26	H	0.096537	0.335514	0.787146
	H27	H	0.900081	0.663448	0.785174
	H28	H	0.213608	0.901356	0.335645
	H29	H	0.213962	0.097519	0.663840
	H30	H	0.787274	0.098094	0.335556
	H31	H	0.786090	0.901556	0.664016
	H32	H	0.336631	0.215371	0.900476
	H33	H	0.664055	0.213841	0.098273
	H34	H	0.335441	0.787095	0.097089
	H35	H	0.663629	0.785310	0.901700
	H36	H	0.335586	0.902075	0.214589
	H37	H	0.663579	0.097780	0.213926
	H38	H	0.336361	0.098236	0.785402
	H39	H	0.664008	0.901476	0.786028
	H40	H	0.903147	0.213492	0.335902
	H41	H	0.097570	0.212032	0.664911
	H42	H	0.097421	0.786207	0.335721
	H43	H	0.902058	0.785320	0.664427
	H44	H	0.215136	0.336536	0.900613
	H45	H	0.214464	0.663518	0.098333
	H46	H	0.785704	0.336625	0.099092
	H47	H	0.785632	0.663978	0.901834
	H48	H	0.398219	0.118667	0.589235
	H49	H	0.592204	0.883994	0.589911
	H50	H	0.592446	0.118686	0.400691
	H51	H	0.400641	0.881612	0.406991
	H52	H	0.590835	0.399009	0.119101
	H53	H	0.591137	0.583349	0.885670
	H54	H	0.410809	0.601633	0.118348
	H55	H	0.405473	0.405889	0.881546
	H56	H	0.117473	0.599256	0.412549
	H57	H	0.883701	0.594113	0.591703
	H58	H	0.118656	0.406797	0.600005
	H59	H	0.883040	0.406025	0.406291
	H60	H	0.118903	0.400017	0.592641
	H61	H	0.883840	0.591780	0.592735
	H62	H	0.113965	0.585239	0.408796
	H63	H	0.883281	0.406180	0.406995
	H64	H	0.397161	0.592484	0.119446
	H65	H	0.584248	0.599857	0.882469
	H66	H	0.601518	0.409430	0.118568
	H67	H	0.406471	0.409809	0.883060
	H68	H	0.590547	0.116017	0.410326
	H69	H	0.596972	0.881682	0.593019
	H70	H	0.408504	0.119093	0.602054
	H71	H	0.410074	0.881763	0.400622
	H72	H	0.903182	0.617080	0.089662
	H73	H	0.101327	0.380525	0.093599
	H74	H	0.097035	0.618908	0.906626
	H75	H	0.908171	0.384497	0.909185
	H76	H	0.094180	0.913587	0.614975
	H77	H	0.091917	0.102232	0.381522
	H78	H	0.901436	0.086386	0.617258
	H79	H	0.906530	0.913348	0.385046
	H80	H	0.614015	0.090673	0.915015
	H81	H	0.386157	0.089546	0.086263
	H82	H	0.612228	0.914765	0.086862
	H83	H	0.386165	0.912079	0.911218
	H84	H	0.619362	0.908998	0.105183
	H85	H	0.381985	0.089625	0.100045
	H86	H	0.617510	0.086684	0.899864
	H87	H	0.382058	0.909530	0.900212
	H88	H	0.913922	0.092710	0.615237
	H89	H	0.100982	0.090635	0.380789
	H90	H	0.087590	0.904785	0.615534
	H91	H	0.912337	0.902764	0.383925
	H92	H	0.089033	0.616768	0.903836
	H93	H	0.089455	0.381974	0.099923
	H94	H	0.905876	0.618532	0.097142
	H95	H	0.903987	0.382123	0.907506
	H96	H	0.413861	0.113416	0.587448
	H97	H	0.591644	0.882154	0.595722
	H98	H	0.599740	0.119020	0.407432
	H99	H	0.410307	0.886041	0.412085
	H100	H	0.587624	0.413007	0.113753
	H101	H	0.601865	0.596735	0.878414
	H102	H	0.411343	0.585832	0.114222
	H103	H	0.409426	0.407047	0.884433
	H104	H	0.120526	0.594544	0.398617
	H105	H	0.882969	0.593419	0.593818
	H106	H	0.115301	0.409551	0.590957
	H107	H	0.883273	0.407566	0.406185
	H108	H	0.910652	0.614914	0.091373
	H109	H	0.090495	0.385277	0.086673
	H110	H	0.091558	0.615838	0.912065
	H111	H	0.907281	0.382912	0.904715
	H112	H	0.098001	0.903968	0.619413
	H113	H	0.086653	0.088844	0.386070
	H114	H	0.903322	0.099903	0.620510
	H115	H	0.900767	0.903617	0.380503
	H116	H	0.619385	0.101420	0.905282
	H117	H	0.380286	0.101280	0.091712
	H118	H	0.618769	0.895678	0.089779
	H119	H	0.382028	0.901811	0.908156
	C120	C	0.378666	0.008343	0.621449
	C121	C	0.621572	0.991268	0.621508
	C122	C	0.621772	0.009144	0.378085
	C123	C	0.378626	0.991476	0.377991
	C124	C	0.621451	0.378515	0.008271
	C125	C	0.621054	0.621325	0.991106
	C126	C	0.377955	0.621619	0.009032
	C127	C	0.378652	0.378993	0.991835
	C128	C	0.008916	0.621596	0.378196
	C129	C	0.991642	0.621762	0.621606
	C130	C	0.008796	0.377841	0.622374
	C131	C	0.991966	0.378430	0.378455
	C132	C	0.878313	0.508584	0.121404
	C133	C	0.121681	0.491397	0.121201
	C134	C	0.121110	0.508706	0.878973
	C135	C	0.877645	0.491280	0.878363
	C136	C	0.121785	0.878489	0.508591
	C137	C	0.121642	0.121829	0.491508
	C138	C	0.878638	0.121101	0.508745
	C139	C	0.878425	0.878312	0.491606
	C140	C	0.508517	0.121595	0.878166
	C141	C	0.491256	0.121904	0.121469
	C142	C	0.508144	0.878639	0.121860
	C143	C	0.491542	0.878997	0.878400
	C144	C	0.381652	0.885184	0.676697
	C145	C	0.618453	0.115044	0.676076
	C146	C	0.618144	0.885009	0.324041
	C147	C	0.381466	0.115537	0.323840
	C148	C	0.676193	0.380452	0.884847
	C149	C	0.676294	0.618593	0.114646
	C150	C	0.323071	0.618945	0.885221
	C151	C	0.323639	0.381054	0.115200
	C152	C	0.885602	0.676651	0.380852
	C153	C	0.115143	0.676235	0.619179
	C154	C	0.885317	0.323691	0.618346
	C155	C	0.115577	0.324012	0.381912
	C156	C	0.885111	0.381361	0.675745
	C157	C	0.114850	0.618804	0.677011
	C158	C	0.885322	0.618894	0.323604
	C159	C	0.115409	0.381368	0.323930
	C160	C	0.379922	0.677049	0.885547
	C161	C	0.618729	0.675751	0.114998
	C162	C	0.618395	0.323426	0.884894
	C163	C	0.381492	0.324126	0.115313
	C164	C	0.676042	0.885064	0.381275
	C165	C	0.676054	0.114695	0.618728
	C166	C	0.324009	0.885115	0.619247
	C167	C	0.323262	0.115085	0.380640
	C168	C	0.881611	0.385020	0.176550
	C169	C	0.119353	0.614843	0.176348
	C170	C	0.118071	0.384807	0.824200
	C171	C	0.879772	0.614551	0.822785
	C172	C	0.176157	0.881111	0.384637
	C173	C	0.176149	0.117928	0.615109
	C174	C	0.824478	0.118506	0.384831
	C175	C	0.823965	0.881184	0.615213
	C176	C	0.385236	0.176635	0.880694
	C177	C	0.614936	0.175986	0.118588
	C178	C	0.384659	0.823837	0.118991
	C179	C	0.614964	0.823707	0.881132
	C180	C	0.384529	0.881513	0.176651
	C181	C	0.614889	0.118609	0.175945
	C182	C	0.385167	0.119054	0.823009
	C183	C	0.615293	0.881252	0.823737
	C184	C	0.882125	0.175950	0.385031
	C185	C	0.118856	0.175406	0.615442
	C186	C	0.118516	0.823847	0.384798
	C187	C	0.881596	0.823521	0.615449
	C188	C	0.176590	0.385160	0.880805
	C189	C	0.176472	0.614850	0.118665
	C190	C	0.823358	0.385314	0.119445
	C191	C	0.822785	0.614707	0.880750
	C192	C	0.400333	0.094855	0.599372
	C193	C	0.599822	0.904829	0.599566
	C194	C	0.600456	0.095485	0.399679
	C195	C	0.400542	0.905395	0.400107
	C196	C	0.599745	0.400647	0.094922
	C197	C	0.598930	0.599761	0.904560
	C198	C	0.399880	0.599653	0.095154
	C199	C	0.400412	0.401074	0.905339
	C200	C	0.095137	0.599501	0.400235
	C201	C	0.905469	0.599611	0.599372
	C202	C	0.095396	0.399207	0.600977
	C203	C	0.905364	0.400150	0.400060
	C204	C	0.900105	0.594725	0.099325
	C205	C	0.100072	0.404969	0.099745
	C206	C	0.099098	0.594810	0.900998
	C207	C	0.899903	0.405310	0.900587
	C208	C	0.099929	0.900838	0.594494
	C209	C	0.099855	0.100336	0.404986
	C210	C	0.899948	0.099365	0.595452
	C211	C	0.900203	0.900103	0.405540
	C212	C	0.594829	0.099540	0.900395
	C213	C	0.405003	0.100049	0.099373
	C214	C	0.594412	0.900123	0.100322
	C215	C	0.405621	0.901329	0.900140
	Zn216	Zn	0.500327	-0.000064	0.750142
	Zn217	Zn	0.500023	0.000587	0.249985
	Zn218	Zn	0.748957	0.499965	-0.000119
	Zn219	Zn	0.249898	0.499559	0.000267
	Zn220	Zn	0.000487	0.749788	0.499935
	Zn221	Zn	0.000210	0.249895	0.500123
	Zn222	Zn	-0.000248	0.499788	0.750296
	Zn223	Zn	0.000262	0.500053	0.249665
	Zn224	Zn	0.499897	0.750025	-0.000105
	Zn225	Zn	0.500179	0.250386	0.000166
	Zn226	Zn	0.749678	-0.000059	0.499710
	Zn227	Zn	0.250383	-0.000230	0.499679
	N228	N	0.414852	0.963046	0.678144
	N229	N	0.585478	0.037158	0.678019
	N230	N	0.585007	0.962906	0.322094
	N231	N	0.415110	0.037882	0.322218
	N232	N	0.678174	0.413937	0.962762
	N233	N	0.677818	0.585613	0.036712
	N234	N	0.321545	0.585247	0.963030
	N235	N	0.321824	0.414398	0.037332
	N236	N	0.963441	0.678578	0.413910
	N237	N	0.037527	0.677947	0.585337
	N238	N	0.963284	0.321445	0.585909
	N239	N	0.037753	0.322233	0.415094
	N240	N	0.962937	0.414373	0.678146
	N241	N	0.037110	0.585580	0.678531
	N242	N	0.963000	0.585246	0.321942
	N243	N	0.037478	0.414549	0.321965
	N244	N	0.413628	0.678546	0.963303
	N245	N	0.585282	0.677765	0.037144
	N246	N	0.585080	0.322242	0.962646
	N247	N	0.414971	0.322902	0.037544
	N248	N	0.678479	0.963054	0.413956
	N249	N	0.677995	0.036849	0.585367
	N250	N	0.322302	0.962635	0.585559
	N251	N	0.321243	0.037088	0.413667
	N252	N	0.915053	0.462611	0.177741
	N253	N	0.085881	0.537123	0.177941
	N254	N	0.084262	0.462387	0.823031
	N255	N	0.913545	0.536975	0.821506
	N256	N	0.178397	0.914420	0.462529
	N257	N	0.178021	0.085327	0.536982
	N258	N	0.822206	0.085167	0.462672
	N259	N	0.822077	0.914706	0.537515
	N260	N	0.463096	0.178482	0.914086
	N261	N	0.537077	0.178101	0.085301
	N262	N	0.462270	0.821955	0.085510
	N263	N	0.537259	0.822070	0.914381
	N264	N	0.462350	0.914841	0.178589
	N265	N	0.537044	0.085801	0.177856
	N266	N	0.462816	0.085405	0.821534
	N267	N	0.537576	0.914765	0.821835
	N268	N	0.915335	0.177483	0.462979
	N269	N	0.085467	0.177703	0.537682
	N270	N	0.085545	0.822019	0.462627
	N271	N	0.914567	0.821270	0.537564
	N272	N	0.178631	0.463024	0.914189
	N273	N	0.178188	0.537056	0.085283
	N274	N	0.821294	0.462932	0.085756
	N275	N	0.821271	0.537194	0.914526
