data_Molecule from HDF5

_cell_length_a		16.072672
_cell_length_b		16.114090
_cell_length_c		16.372943
_cell_angle_alpha	89.546753
_cell_angle_beta	90.394915
_cell_angle_gamma	89.927839
_symmetry_space_group_name_H-M	'P 1'
_symmetry_Int_Tables_number		1

loop_
	_symmetry_equiv_pos_as_xyz
	x,y,z

loop_
	_atom_site_label
	_atom_site_type_symbol
	_atom_site_fract_x
	_atom_site_fract_y
	_atom_site_fract_z
	H0	H	0.401927	0.841304	0.717666
	H1	H	0.606773	0.168919	0.715089
	H2	H	0.606394	0.840703	0.285440
	H3	H	0.399502	0.167554	0.279775
	H4	H	0.717658	0.409593	0.833258
	H5	H	0.723260	0.601925	0.161211
	H6	H	0.289060	0.605400	0.835766
	H7	H	0.292206	0.404358	0.161998
	H8	H	0.839758	0.718267	0.399543
	H9	H	0.171568	0.713714	0.594930
	H10	H	0.838845	0.291241	0.596386
	H11	H	0.171323	0.292317	0.405706
	H12	H	0.840158	0.402374	0.714776
	H13	H	0.169170	0.605089	0.714826
	H14	H	0.842177	0.608068	0.279600
	H15	H	0.169929	0.400462	0.285038
	H16	H	0.404538	0.722606	0.836288
	H17	H	0.605580	0.717244	0.162561
	H18	H	0.604314	0.290635	0.834356
	H19	H	0.410011	0.289003	0.161872
	H20	H	0.714229	0.838088	0.405945
	H21	H	0.718375	0.169726	0.596673
	H22	H	0.294500	0.838145	0.594459
	H23	H	0.291912	0.170007	0.399264
	H24	H	0.904074	0.340121	0.215733
	H25	H	0.108488	0.668255	0.214326
	H26	H	0.105503	0.341013	0.786123
	H27	H	0.901456	0.669093	0.780602
	H28	H	0.218153	0.907419	0.334842
	H29	H	0.221957	0.101819	0.660684
	H30	H	0.786408	0.104759	0.336323
	H31	H	0.792023	0.904167	0.662430
	H32	H	0.339179	0.218440	0.899472
	H33	H	0.672529	0.214686	0.095451
	H34	H	0.339530	0.790761	0.098163
	H35	H	0.671656	0.795318	0.905841
	H36	H	0.338530	0.905285	0.212643
	H37	H	0.669310	0.104850	0.217137
	H38	H	0.340911	0.108807	0.781329
	H39	H	0.668217	0.901987	0.785022
	H40	H	0.902824	0.222667	0.336332
	H41	H	0.104861	0.216932	0.662308
	H42	H	0.103778	0.790776	0.335520
	H43	H	0.907507	0.786829	0.661580
	H44	H	0.215936	0.339975	0.905708
	H45	H	0.218331	0.670591	0.095933
	H46	H	0.794069	0.338360	0.094751
	H47	H	0.793063	0.670730	0.899893
	H48	H	0.414708	0.122476	0.592218
	H49	H	0.602706	0.884337	0.595106
	H50	H	0.593183	0.122964	0.405257
	H51	H	0.412662	0.885537	0.404763
	H52	H	0.602042	0.410040	0.113491
	H53	H	0.598051	0.596327	0.883099
	H54	H	0.419119	0.594404	0.112540
	H55	H	0.418472	0.422425	0.887285
	H56	H	0.126077	0.605854	0.409101
	H57	H	0.884590	0.590938	0.598302
	H58	H	0.120495	0.413829	0.583967
	H59	H	0.889423	0.414293	0.415195
	H60	H	0.123514	0.420708	0.602773
	H61	H	0.883657	0.604146	0.589030
	H62	H	0.119985	0.588279	0.411698
	H63	H	0.887976	0.424046	0.399481
	H64	H	0.411841	0.604494	0.118305
	H65	H	0.594273	0.604962	0.882416
	H66	H	0.598226	0.411394	0.112572
	H67	H	0.415349	0.400154	0.879512
	H68	H	0.593429	0.122181	0.406615
	H69	H	0.593180	0.885027	0.601472
	H70	H	0.415158	0.122791	0.590214
	H71	H	0.412342	0.885559	0.405612
	H72	H	0.918572	0.623056	0.098246
	H73	H	0.084512	0.390280	0.093552
	H74	H	0.099484	0.622042	0.916090
	H75	H	0.922025	0.383449	0.890170
	H76	H	0.100091	0.915679	0.612917
	H77	H	0.087999	0.092058	0.386990
	H78	H	0.919182	0.110239	0.616666
	H79	H	0.906564	0.917867	0.383274
	H80	H	0.629184	0.105210	0.895219
	H81	H	0.386320	0.092057	0.097342
	H82	H	0.624024	0.911515	0.094196
	H83	H	0.382961	0.913180	0.896682
	H84	H	0.623797	0.913435	0.096659
	H85	H	0.383297	0.104783	0.092462
	H86	H	0.621661	0.102315	0.920501
	H87	H	0.385711	0.907027	0.913457
	H88	H	0.897154	0.095274	0.618264
	H89	H	0.094913	0.113340	0.379205
	H90	H	0.094756	0.904501	0.614913
	H91	H	0.914914	0.910679	0.383435
	H92	H	0.104890	0.629624	0.895693
	H93	H	0.105911	0.387063	0.082379
	H94	H	0.919475	0.619508	0.083997
	H95	H	0.920514	0.393027	0.919226
	H96	H	0.413296	0.122966	0.590422
	H97	H	0.592723	0.889444	0.589764
	H98	H	0.595479	0.123078	0.405956
	H99	H	0.412037	0.885588	0.405203
	H100	H	0.599243	0.408135	0.113901
	H101	H	0.602949	0.603124	0.880283
	H102	H	0.405749	0.593301	0.115392
	H103	H	0.397692	0.415768	0.879165
	H104	H	0.126836	0.593196	0.395374
	H105	H	0.889708	0.590722	0.583384
	H106	H	0.127679	0.400937	0.599001
	H107	H	0.882654	0.406752	0.400597
	H108	H	0.907442	0.624646	0.089926
	H109	H	0.103068	0.380499	0.105450
	H110	H	0.084155	0.622293	0.899906
	H111	H	0.895825	0.381411	0.905084
	H112	H	0.106789	0.906382	0.617705
	H113	H	0.109153	0.095348	0.379234
	H114	H	0.920304	0.085116	0.609459
	H115	H	0.904940	0.906902	0.379802
	H116	H	0.619674	0.082049	0.903952
	H117	H	0.388889	0.095590	0.084186
	H118	H	0.623569	0.910703	0.097288
	H119	H	0.389461	0.923774	0.909361
	C120	C	0.384304	0.013633	0.620220
	C121	C	0.626138	0.995311	0.622811
	C122	C	0.623548	0.013326	0.378989
	C123	C	0.382772	0.995082	0.376014
	C124	C	0.628110	0.382624	0.005493
	C125	C	0.628063	0.628111	0.990187
	C126	C	0.382716	0.627595	0.007672
	C127	C	0.382913	0.382416	0.989901
	C128	C	0.014969	0.626033	0.376189
	C129	C	0.995651	0.624385	0.619105
	C130	C	0.013785	0.383067	0.622140
	C131	C	0.996519	0.384877	0.378491
	C132	C	0.885061	0.513231	0.119851
	C133	C	0.127254	0.495298	0.121339
	C134	C	0.125079	0.514836	0.877551
	C135	C	0.883556	0.495569	0.875835
	C136	C	0.128129	0.881726	0.507036
	C137	C	0.126806	0.126979	0.489812
	C138	C	0.881754	0.127267	0.507372
	C139	C	0.882285	0.882113	0.490255
	C140	C	0.514093	0.126624	0.876872
	C141	C	0.496183	0.125543	0.120269
	C142	C	0.513725	0.883347	0.122481
	C143	C	0.495410	0.885288	0.879342
	C144	C	0.383976	0.889991	0.677633
	C145	C	0.625484	0.119766	0.677042
	C146	C	0.624008	0.889387	0.324037
	C147	C	0.382041	0.118879	0.319317
	C148	C	0.681344	0.387456	0.882431
	C149	C	0.684561	0.623193	0.112831
	C150	C	0.327301	0.625757	0.884638
	C151	C	0.329566	0.384083	0.113106
	C152	C	0.889881	0.681295	0.378613
	C153	C	0.121388	0.678014	0.616194
	C154	C	0.888716	0.327955	0.617926
	C155	C	0.121638	0.329605	0.383764
	C156	C	0.889336	0.383360	0.676808
	C157	C	0.120206	0.623765	0.675759
	C158	C	0.890831	0.626393	0.319055
	C159	C	0.120721	0.383077	0.323548
	C160	C	0.384507	0.684295	0.884985
	C161	C	0.626065	0.680370	0.113574
	C162	C	0.624750	0.328464	0.883038
	C163	C	0.387967	0.326609	0.112870
	C164	C	0.677949	0.888204	0.384051
	C165	C	0.681162	0.120178	0.618176
	C166	C	0.330341	0.888346	0.616432
	C167	C	0.328195	0.120139	0.378625
	C168	C	0.885146	0.389135	0.176585
	C169	C	0.126994	0.619206	0.176178
	C170	C	0.124426	0.390268	0.823856
	C171	C	0.883296	0.619979	0.819312
	C172	C	0.181638	0.886205	0.383995
	C173	C	0.183378	0.122856	0.612360
	C174	C	0.825154	0.125281	0.384767
	C175	C	0.829134	0.883774	0.613475
	C176	C	0.389081	0.181770	0.878792
	C177	C	0.621985	0.179001	0.117336
	C178	C	0.389006	0.828311	0.118807
	C179	C	0.621112	0.830981	0.883942
	C180	C	0.388501	0.885154	0.175801
	C181	C	0.620472	0.123979	0.177347
	C182	C	0.389991	0.127228	0.820122
	C183	C	0.619596	0.884545	0.823994
	C184	C	0.882818	0.183994	0.384839
	C185	C	0.125085	0.180119	0.613138
	C186	C	0.124729	0.827886	0.384425
	C187	C	0.886781	0.825624	0.613070
	C188	C	0.179656	0.389834	0.883042
	C189	C	0.181672	0.620407	0.117104
	C190	C	0.830798	0.388169	0.116263
	C191	C	0.829618	0.621031	0.878887
	C192	C	0.407526	0.100322	0.597638
	C193	C	0.603131	0.908784	0.601695
	C194	C	0.600706	0.100134	0.399781
	C195	C	0.405659	0.908106	0.398617
	C196	C	0.606491	0.403654	0.091166
	C197	C	0.605154	0.607604	0.904242
	C198	C	0.405530	0.604310	0.093364
	C199	C	0.404111	0.405709	0.904213
	C200	C	0.101865	0.602735	0.398712
	C201	C	0.908775	0.602056	0.596697
	C202	C	0.101112	0.405211	0.601431
	C203	C	0.909228	0.408193	0.398997
	C204	C	0.908350	0.599980	0.097333
	C205	C	0.104392	0.408310	0.100152
	C206	C	0.102686	0.602037	0.897964
	C207	C	0.906086	0.408573	0.898301
	C208	C	0.106656	0.902648	0.593053
	C209	C	0.104046	0.106443	0.403967
	C210	C	0.905493	0.103839	0.592691
	C211	C	0.902678	0.904924	0.404619
	C212	C	0.601136	0.103338	0.899864
	C213	C	0.408871	0.103795	0.098038
	C214	C	0.601095	0.905357	0.102029
	C215	C	0.408641	0.908001	0.900291
	Zn216	Zn	0.504582	0.005170	0.750626
	Zn217	Zn	0.503960	0.004697	0.249420
	Zn218	Zn	0.757112	0.504695	-0.002494
	Zn219	Zn	0.253428	0.505267	-0.000844
	Zn220	Zn	0.005549	0.752953	0.498425
	Zn221	Zn	0.004857	0.256642	0.499103
	Zn222	Zn	0.004178	0.505306	0.748657
	Zn223	Zn	0.006159	0.504190	0.248716
	Zn224	Zn	0.505008	0.756827	0.000206
	Zn225	Zn	0.505478	0.253041	-0.002445
	Zn226	Zn	0.752435	0.004079	0.499645
	Zn227	Zn	0.256266	0.004673	0.497482
	N228	N	0.416840	0.968845	0.679961
	N229	N	0.591894	0.041254	0.679930
	N230	N	0.590883	0.968233	0.320769
	N231	N	0.415259	0.040187	0.317595
	N232	N	0.683399	0.420502	0.959685
	N233	N	0.685949	0.591503	0.035156
	N234	N	0.325975	0.591275	0.961897
	N235	N	0.326207	0.418057	0.035689
	N236	N	0.967894	0.681131	0.413402
	N237	N	0.043124	0.678694	0.581674
	N238	N	0.967062	0.327541	0.584647
	N239	N	0.043296	0.330581	0.417292
	N240	N	0.968168	0.416586	0.679704
	N241	N	0.040979	0.591092	0.677665
	N242	N	0.969603	0.592616	0.317640
	N243	N	0.041940	0.416922	0.320348
	N244	N	0.418111	0.685591	0.962741
	N245	N	0.591587	0.683556	0.036289
	N246	N	0.592277	0.325313	0.960564
	N247	N	0.420491	0.325536	0.035249
	N248	N	0.677934	0.966234	0.417500
	N249	N	0.681785	0.041904	0.585147
	N250	N	0.330302	0.966315	0.581331
	N251	N	0.328616	0.042054	0.413300
	N252	N	0.918275	0.467803	0.178736
	N253	N	0.093886	0.540445	0.178920
	N254	N	0.091149	0.469041	0.820360
	N255	N	0.916198	0.541027	0.817307
	N256	N	0.183748	0.919015	0.461259
	N257	N	0.184482	0.090593	0.534756
	N258	N	0.824135	0.090956	0.461981
	N259	N	0.826206	0.918225	0.536333
	N260	N	0.467325	0.181244	0.913698
	N261	N	0.543668	0.180132	0.082469
	N262	N	0.467813	0.826826	0.086552
	N263	N	0.543167	0.831408	0.918030
	N264	N	0.467209	0.918711	0.178278
	N265	N	0.541304	0.091692	0.179230
	N266	N	0.468725	0.093733	0.818862
	N267	N	0.540485	0.917809	0.820932
	N268	N	0.917191	0.185174	0.462119
	N269	N	0.090502	0.182930	0.535959
	N270	N	0.092064	0.825005	0.462001
	N271	N	0.919165	0.824487	0.535475
	N272	N	0.180090	0.468210	0.915624
	N273	N	0.181911	0.542208	0.083746
	N274	N	0.830368	0.466439	0.081936
	N275	N	0.829564	0.542765	0.913324
	O276	O	-0.014227	0.023511	-0.018412
	H277	H	-0.015449	0.011901	-0.022305
	H278	H	-0.012452	0.018829	-0.016007
	O279	O	0.478879	0.521934	0.548794
	H280	H	0.472331	0.521324	0.553042
	H281	H	0.471892	0.530976	0.551970
	O282	O	0.497758	0.537736	0.478298
	H283	H	0.491426	0.535491	0.478409
	H284	H	0.500927	0.532822	0.482438
	O285	O	0.947341	-0.072083	1.059030
	H286	H	0.951950	-0.069897	1.047968
	H287	H	0.946321	-0.080167	1.065694
	O288	O	1.017730	-0.089452	0.005494
	H289	H	1.003889	-0.092013	0.011698
	H290	H	1.012015	-0.088728	-0.002417
	O291	O	0.591472	0.375432	0.365170
	H292	H	0.594134	0.372390	0.363525
	H293	H	0.583852	0.375886	0.357421
	O294	O	0.948779	0.052480	0.925920
	H295	H	0.945421	0.050260	0.931552
	H296	H	0.944205	0.056817	0.918891
	O297	O	-0.018332	0.028094	0.012626
	H298	H	-0.013039	0.027861	0.014891
	H299	H	-0.016799	0.033523	0.012003
	O300	O	0.500684	0.563097	0.503228
	H301	H	0.496116	0.562339	0.500184
	H302	H	0.513643	0.561169	0.505132
	O303	O	0.508437	0.391614	0.468934
	H304	H	0.503674	0.384807	0.475945
	H305	H	0.508746	0.394868	0.473982
	O306	O	1.034933	-0.021053	-0.054317
	H307	H	1.040896	-0.023307	-0.054629
	H308	H	1.024863	-0.015160	-0.067056
	O309	O	-0.011754	0.081619	1.081682
	H310	H	-0.023621	0.076320	1.084720
	H311	H	-0.007349	0.085787	1.077009
	O312	O	1.004012	1.034229	1.010100
	H313	H	1.012716	1.034282	1.020668
	H314	H	1.005105	1.027764	1.010904
	O315	O	0.479166	0.477504	0.505235
	H316	H	0.484353	0.487852	0.507781
	H317	H	0.474760	0.481962	0.502694
	O318	O	0.566535	0.486536	0.434590
	H319	H	0.560803	0.483871	0.422547
	H320	H	0.577154	0.485347	0.441059
	O321	O	-0.077167	0.976118	0.910990
	H322	H	-0.077171	0.989217	0.902665
	H323	H	-0.081764	0.978470	0.915051
	O324	O	0.535861	0.512728	0.432039
	H325	H	0.532898	0.511088	0.433452
	H326	H	0.530985	0.517455	0.434390
	O327	O	0.432361	0.483008	0.502997
	H328	H	0.433798	0.490757	0.504738
	H329	H	0.437236	0.472757	0.501281
	O330	O	0.540356	0.510499	0.503216
	H331	H	0.535673	0.495463	0.505692
	H332	H	0.533672	0.519732	0.500877
	O333	O	0.569356	0.512922	0.463617
	H334	H	0.575197	0.514449	0.462827
	H335	H	0.578596	0.504896	0.466644
	O336	O	0.504830	0.482488	0.492711
	H337	H	0.510814	0.484457	0.486667
	H338	H	0.502083	0.477237	0.486361
	O339	O	1.026244	1.005802	-0.064901
	H340	H	1.027544	1.023421	-0.064591
	H341	H	1.022980	1.004881	-0.079967
	O342	O	0.499951	0.537960	0.556864
	H343	H	0.501869	0.541901	0.553720
	H344	H	0.498607	0.541766	0.558571
	O345	O	0.519367	0.501673	0.520114
	H346	H	0.517398	0.489087	0.514553
	H347	H	0.513473	0.502721	0.529801
	O348	O	0.030017	0.057618	0.018883
	H349	H	0.034340	0.060101	0.020702
	H350	H	0.025560	0.049578	0.015394
	O351	O	0.013485	0.971990	1.112276
	H352	H	0.010054	0.969768	1.118391
	H353	H	0.015446	0.958143	1.115043
	O354	O	0.500268	0.573678	0.450551
	H355	H	0.505398	0.571651	0.440783
	H356	H	0.506912	0.571413	0.447183
	O357	O	-0.021461	1.086200	0.886679
	H358	H	-0.027072	1.082183	0.898205
	H359	H	-0.015255	1.088702	0.896606
