data_Molecule from HDF5

_cell_length_a		16.308651
_cell_length_b		16.495822
_cell_length_c		16.316789
_cell_angle_alpha	89.978775
_cell_angle_beta	89.662164
_cell_angle_gamma	89.746719
_symmetry_space_group_name_H-M	'P 1'
_symmetry_Int_Tables_number		1

loop_
	_symmetry_equiv_pos_as_xyz
	x,y,z

loop_
	_atom_site_label
	_atom_site_type_symbol
	_atom_site_fract_x
	_atom_site_fract_y
	_atom_site_fract_z
	H0	H	0.382082	0.846590	0.719857
	H1	H	0.594068	0.162048	0.721128
	H2	H	0.592126	0.846094	0.279232
	H3	H	0.381622	0.163476	0.275860
	H4	H	0.713740	0.397954	0.839835
	H5	H	0.702684	0.606191	0.160010
	H6	H	0.265929	0.614276	0.839115
	H7	H	0.268628	0.401902	0.157504
	H8	H	0.827207	0.727004	0.395013
	H9	H	0.146213	0.729474	0.607187
	H10	H	0.829135	0.284238	0.609750
	H11	H	0.145582	0.281825	0.389480
	H12	H	0.829679	0.401569	0.723540
	H13	H	0.147068	0.612864	0.720479
	H14	H	0.826484	0.610281	0.279861
	H15	H	0.148064	0.401764	0.277797
	H16	H	0.379942	0.730666	0.839910
	H17	H	0.593047	0.726196	0.156312
	H18	H	0.598450	0.281873	0.838850
	H19	H	0.378296	0.281575	0.154587
	H20	H	0.710144	0.846867	0.394354
	H21	H	0.708872	0.163604	0.604766
	H22	H	0.265210	0.846682	0.602792
	H23	H	0.263318	0.162871	0.389655
	H24	H	0.884677	0.347367	0.219083
	H25	H	0.090106	0.664665	0.217916
	H26	H	0.097684	0.350036	0.774392
	H27	H	0.882743	0.665106	0.778640
	H28	H	0.205403	0.902767	0.336459
	H29	H	0.206433	0.110273	0.657690
	H30	H	0.770481	0.109504	0.338459
	H31	H	0.769044	0.905086	0.660446
	H32	H	0.331043	0.232130	0.885621
	H33	H	0.646521	0.225183	0.101902
	H34	H	0.328992	0.783057	0.105789
	H35	H	0.648182	0.784000	0.890817
	H36	H	0.328075	0.898819	0.220965
	H37	H	0.647164	0.106444	0.214747
	H38	H	0.328984	0.112034	0.774658
	H39	H	0.647533	0.899854	0.775281
	H40	H	0.879753	0.230235	0.342195
	H41	H	0.094394	0.228882	0.656312
	H42	H	0.092702	0.783916	0.339260
	H43	H	0.878317	0.784441	0.658326
	H44	H	0.213265	0.350131	0.889695
	H45	H	0.208988	0.664238	0.103888
	H46	H	0.768237	0.347092	0.103123
	H47	H	0.766967	0.664547	0.896953
	H48	H	0.395071	0.115232	0.577041
	H49	H	0.565245	0.897137	0.584782
	H50	H	0.588651	0.121269	0.409497
	H51	H	0.400282	0.894227	0.410441
	H52	H	0.580917	0.415851	0.113440
	H53	H	0.579876	0.592718	0.883392
	H54	H	0.401245	0.593635	0.110688
	H55	H	0.406442	0.424662	0.887809
	H56	H	0.100605	0.598432	0.413786
	H57	H	0.876708	0.593502	0.581112
	H58	H	0.102553	0.410121	0.581330
	H59	H	0.873452	0.415139	0.413902
	H60	H	0.097165	0.422890	0.579131
	H61	H	0.874310	0.590281	0.592775
	H62	H	0.099876	0.589808	0.407777
	H63	H	0.875446	0.422419	0.411208
	H64	H	0.400796	0.597357	0.111456
	H65	H	0.574200	0.594096	0.884738
	H66	H	0.571830	0.417303	0.109832
	H67	H	0.407201	0.412297	0.883437
	H68	H	0.577438	0.122383	0.396071
	H69	H	0.585671	0.893621	0.574376
	H70	H	0.392800	0.120012	0.591865
	H71	H	0.396526	0.892493	0.410229
	H72	H	0.894065	0.620694	0.090147
	H73	H	0.077837	0.391433	0.092019
	H74	H	0.074765	0.620112	0.904194
	H75	H	0.900507	0.391452	0.904921
	H76	H	0.073739	0.919400	0.611092
	H77	H	0.073534	0.096771	0.383348
	H78	H	0.904034	0.098706	0.613177
	H79	H	0.907849	0.918530	0.387798
	H80	H	0.602038	0.099313	0.912194
	H81	H	0.372183	0.095642	0.084646
	H82	H	0.602013	0.911475	0.084204
	H83	H	0.375148	0.921330	0.910564
	H84	H	0.599957	0.917247	0.085100
	H85	H	0.374064	0.092875	0.083307
	H86	H	0.597732	0.087843	0.913648
	H87	H	0.372748	0.915677	0.907471
	H88	H	0.893397	0.099887	0.616440
	H89	H	0.074996	0.093779	0.384742
	H90	H	0.073194	0.913438	0.612637
	H91	H	0.899497	0.906294	0.381403
	H92	H	0.070516	0.615290	0.914844
	H93	H	0.073739	0.394314	0.085381
	H94	H	0.895085	0.620477	0.090334
	H95	H	0.908191	0.396800	0.913014
	H96	H	0.407071	0.114684	0.587162
	H97	H	0.582135	0.887493	0.596052
	H98	H	0.571660	0.115604	0.411122
	H99	H	0.398587	0.891377	0.407206
	H100	H	0.574869	0.407755	0.112401
	H101	H	0.577869	0.597929	0.880934
	H102	H	0.397621	0.595209	0.111961
	H103	H	0.396224	0.419364	0.881388
	H104	H	0.103993	0.598654	0.403658
	H105	H	0.871811	0.601814	0.588738
	H106	H	0.103469	0.419865	0.591610
	H107	H	0.872418	0.416640	0.406649
	H108	H	0.894737	0.620623	0.089251
	H109	H	0.081684	0.393128	0.084577
	H110	H	0.081858	0.619997	0.914589
	H111	H	0.896335	0.393874	0.916625
	H112	H	0.078720	0.916900	0.613626
	H113	H	0.070994	0.094217	0.385840
	H114	H	0.897299	0.090279	0.612604
	H115	H	0.892429	0.920830	0.383731
	H116	H	0.603119	0.091260	0.902635
	H117	H	0.373040	0.093266	0.087220
	H118	H	0.603179	0.914330	0.089267
	H119	H	0.374514	0.914968	0.914285
	C120	C	0.365513	0.012707	0.618728
	C121	C	0.609276	0.997015	0.618623
	C122	C	0.611189	0.014391	0.374913
	C123	C	0.365713	0.997080	0.375969
	C124	C	0.610201	0.381979	0.006690
	C125	C	0.608336	0.625982	0.989180
	C126	C	0.366649	0.628421	0.006587
	C127	C	0.368479	0.385317	0.988747
	C128	C	-0.004478	0.627554	0.377429
	C129	C	0.979249	0.628097	0.620397
	C130	C	-0.003749	0.385499	0.619234
	C131	C	0.979063	0.385196	0.377630
	C132	C	0.864664	0.515148	0.121333
	C133	C	0.109570	0.497638	0.119688
	C134	C	0.110557	0.515362	0.876617
	C135	C	0.867988	0.498263	0.878760
	C136	C	0.107667	0.884654	0.506660
	C137	C	0.107324	0.127240	0.489299
	C138	C	0.865933	0.128440	0.508606
	C139	C	0.866727	0.884638	0.490362
	C140	C	0.496480	0.126538	0.875555
	C141	C	0.478528	0.125568	0.117465
	C142	C	0.496519	0.882462	0.119559
	C143	C	0.479518	0.884044	0.876680
	C144	C	0.363674	0.893893	0.679229
	C145	C	0.611212	0.115376	0.680146
	C146	C	0.611769	0.894267	0.317391
	C147	C	0.363226	0.115890	0.315529
	C148	C	0.672522	0.380078	0.887272
	C149	C	0.664909	0.625855	0.110767
	C150	C	0.306166	0.631416	0.886824
	C151	C	0.307419	0.382723	0.108756
	C152	C	0.875053	0.687087	0.376351
	C153	C	0.098575	0.689090	0.624069
	C154	C	0.876808	0.324703	0.626011
	C155	C	0.098249	0.323119	0.373124
	C156	C	0.877070	0.383198	0.682801
	C157	C	0.099151	0.630932	0.680726
	C158	C	0.874886	0.628730	0.318934
	C159	C	0.099415	0.382576	0.317047
	C160	C	0.362623	0.689884	0.887247
	C161	C	0.610604	0.685906	0.109019
	C162	C	0.615667	0.321758	0.886798
	C163	C	0.362211	0.322869	0.107377
	C164	C	0.670469	0.894810	0.374886
	C165	C	0.668522	0.116109	0.622132
	C166	C	0.305591	0.893967	0.620868
	C167	C	0.304165	0.115680	0.372299
	C168	C	0.865056	0.395196	0.180103
	C169	C	0.109907	0.617244	0.178711
	C170	C	0.115097	0.397406	0.814700
	C171	C	0.864699	0.617339	0.818541
	C172	C	0.166663	0.883480	0.385182
	C173	C	0.167695	0.128892	0.609383
	C174	C	0.807874	0.129251	0.387545
	C175	C	0.807501	0.885213	0.611802
	C176	C	0.378095	0.190159	0.869732
	C177	C	0.598592	0.184994	0.119533
	C178	C	0.376591	0.822861	0.123479
	C179	C	0.599731	0.823508	0.872803
	C180	C	0.376151	0.880837	0.180616
	C181	C	0.599196	0.125862	0.175793
	C182	C	0.376992	0.130475	0.814307
	C183	C	0.599671	0.881441	0.815435
	C184	C	0.862273	0.189405	0.389219
	C185	C	0.111752	0.188116	0.608919
	C186	C	0.110663	0.824343	0.386547
	C187	C	0.862021	0.825074	0.610744
	C188	C	0.172843	0.397370	0.872328
	C189	C	0.168831	0.616837	0.121653
	C190	C	0.807380	0.394772	0.122368
	C191	C	0.806997	0.617121	0.877275
	C192	C	0.390978	0.095102	0.593038
	C193	C	0.584599	0.914394	0.592680
	C194	C	0.586475	0.097930	0.398677
	C195	C	0.391338	0.914438	0.401778
	C196	C	0.583480	0.406614	0.090052
	C197	C	0.584281	0.601785	0.904860
	C198	C	0.392313	0.602661	0.089746
	C199	C	0.395546	0.411415	0.905883
	C200	C	0.079595	0.602820	0.401596
	C201	C	0.896077	0.602613	0.594727
	C202	C	0.079102	0.410400	0.591910
	C203	C	0.895532	0.410728	0.403437
	C204	C	0.887883	0.598663	0.097078
	C205	C	0.084948	0.414672	0.094695
	C206	C	0.083479	0.597288	0.903505
	C207	C	0.894186	0.415830	0.904168
	C208	C	0.082468	0.909417	0.590477
	C209	C	0.080945	0.102038	0.406501
	C210	C	0.890849	0.103666	0.592205
	C211	C	0.892445	0.908504	0.406478
	C212	C	0.579301	0.100334	0.901826
	C213	C	0.394841	0.101159	0.092274
	C214	C	0.580100	0.907313	0.093563
	C215	C	0.395893	0.909823	0.903205
	Zn216	Zn	0.487842	0.004517	0.747781
	Zn217	Zn	0.487232	0.004876	0.246342
	Zn218	Zn	0.736638	0.504978	-0.000951
	Zn219	Zn	0.239511	0.506592	-0.002054
	Zn220	Zn	-0.013114	0.756199	0.499651
	Zn221	Zn	-0.013082	0.256239	0.499255
	Zn222	Zn	-0.011219	0.506945	0.748041
	Zn223	Zn	-0.012217	0.506356	0.248724
	Zn224	Zn	0.488140	0.755158	-0.002544
	Zn225	Zn	0.487703	0.255059	-0.003622
	Zn226	Zn	0.739507	0.006048	0.498673
	Zn227	Zn	0.235786	0.005736	0.497261
	N228	N	0.400083	0.968852	0.678060
	N229	N	0.574847	0.040217	0.677918
	N230	N	0.575751	0.969764	0.317107
	N231	N	0.400848	0.041080	0.317761
	N232	N	0.669397	0.416760	0.962894
	N233	N	0.663790	0.589057	0.035133
	N234	N	0.308487	0.593920	0.962132
	N235	N	0.310993	0.420881	0.033883
	N236	N	0.951207	0.686387	0.412043
	N237	N	0.022855	0.687563	0.587355
	N238	N	0.951979	0.325630	0.587345
	N239	N	0.022094	0.324415	0.410036
	N240	N	0.952389	0.420118	0.678800
	N241	N	0.024116	0.593470	0.678304
	N242	N	0.950928	0.592549	0.319427
	N243	N	0.024485	0.420494	0.319763
	N244	N	0.399310	0.688202	0.962740
	N245	N	0.576108	0.686066	0.032326
	N246	N	0.577447	0.322932	0.961941
	N247	N	0.399412	0.324327	0.031647
	N248	N	0.670521	0.970579	0.409800
	N249	N	0.667128	0.041917	0.584191
	N250	N	0.306488	0.968910	0.584211
	N251	N	0.305591	0.040928	0.409118
	N252	N	0.899888	0.470939	0.179599
	N253	N	0.073840	0.542109	0.177620
	N254	N	0.077101	0.471919	0.817187
	N255	N	0.901642	0.542285	0.819368
	N256	N	0.165206	0.919716	0.460945
	N257	N	0.165201	0.091901	0.533849
	N258	N	0.809861	0.092148	0.462798
	N259	N	0.810174	0.921452	0.535871
	N260	N	0.453296	0.187792	0.907098
	N261	N	0.522285	0.185093	0.083967
	N262	N	0.452310	0.824003	0.086068
	N263	N	0.523948	0.825312	0.910354
	N264	N	0.451846	0.917215	0.178401
	N265	N	0.523654	0.089635	0.174397
	N266	N	0.451614	0.091621	0.817527
	N267	N	0.523896	0.918224	0.817679
	N268	N	0.897130	0.189504	0.465549
	N269	N	0.075233	0.187548	0.533428
	N270	N	0.074863	0.824717	0.463053
	N271	N	0.897929	0.824406	0.534334
	N272	N	0.170305	0.471763	0.910051
	N273	N	0.168868	0.541427	0.085917
	N274	N	0.806593	0.470349	0.086830
	N275	N	0.808651	0.541945	0.913681
	O276	O	0.305495	0.320311	0.683323
	H277	H	0.307503	0.323656	0.658466
	H278	H	0.313074	0.355561	0.687948
	O279	O	0.637683	0.425774	0.647770
	H280	H	0.618669	0.441185	0.648485
	H281	H	0.641291	0.439022	0.665278
	O282	O	0.515222	0.598962	0.641808
	H283	H	0.501895	0.593826	0.631024
	H284	H	0.505189	0.596057	0.647134
	O285	O	0.969194	1.072596	0.069457
	H286	H	0.977749	1.070107	0.071054
	H287	H	0.951162	1.061494	0.072379
	O288	O	0.535022	0.641661	0.459952
	H289	H	0.520285	0.650375	0.469175
	H290	H	0.522812	0.636420	0.461623
	O291	O	0.639292	0.628351	0.673479
	H292	H	0.620470	0.623531	0.673630
	H293	H	0.641877	0.621009	0.660358
	O294	O	1.041803	1.020026	1.049098
	H295	H	1.053020	1.036679	1.053984
	H296	H	1.051255	1.018603	1.040092
	O297	O	0.274137	0.291758	0.521896
	H298	H	0.243175	0.271782	0.516293
	H299	H	0.292613	0.293956	0.524879
	O300	O	0.508744	0.543452	0.288148
	H301	H	0.498630	0.526019	0.292132
	H302	H	0.510285	0.553714	0.289359
	O303	O	0.496780	0.299544	0.293705
	H304	H	0.508540	0.289327	0.295153
	H305	H	0.504459	0.291535	0.288814
	O306	O	0.188949	-0.198524	0.973685
	H307	H	0.189381	-0.176215	0.997426
	H308	H	0.207681	-0.217920	0.977606
	O309	O	1.186402	-0.068007	0.069850
	H310	H	1.171950	-0.065738	0.085699
	H311	H	1.188968	-0.040705	0.078346
	O312	O	1.153715	0.033277	0.182345
	H313	H	1.151055	0.069298	0.181719
	H314	H	1.172857	0.040576	0.197332
	O315	O	0.670848	0.359372	0.381476
	H316	H	0.662986	0.363541	0.388844
	H317	H	0.656449	0.361503	0.397567
	O318	O	-0.093437	0.069688	0.076179
	H319	H	-0.081404	0.054890	0.082659
	H320	H	-0.110838	0.071867	0.081782
	O321	O	0.642031	0.603041	0.491049
	H322	H	0.644986	0.609432	0.501818
	H323	H	0.637211	0.602184	0.496664
	O324	O	0.940716	0.091829	0.876765
	H325	H	0.938750	0.083802	0.863820
	H326	H	0.961134	0.097426	0.864153
	O327	O	0.315648	0.689960	0.430817
	H328	H	0.296127	0.706006	0.419989
	H329	H	0.320676	0.684818	0.395287
	O330	O	0.032292	0.801041	1.005699
	H331	H	0.018125	0.809669	1.002302
	H332	H	0.025729	0.795858	1.000639
	O333	O	-0.075665	1.131472	-0.016667
	H334	H	-0.068122	1.144010	-0.020667
	H335	H	-0.087155	1.121944	-0.022732
	O336	O	0.830390	0.925101	0.022787
	H337	H	0.841736	0.934698	0.032833
	H338	H	0.820166	0.934611	0.031194
	O339	O	-0.183486	1.044959	1.156643
	H340	H	-0.190348	1.044341	1.148562
	H341	H	-0.177825	1.060169	1.145094
	O342	O	0.615642	0.714571	0.634424
	H343	H	0.631995	0.727334	0.615713
	H344	H	0.618670	0.710229	0.657824
	O345	O	-0.470094	-0.708119	1.533658
	H346	H	-0.461714	-0.714198	1.529896
	H347	H	-0.465750	-0.709333	1.549965
	O348	O	0.399712	0.494717	0.459216
	H349	H	0.390983	0.504823	0.471094
	H350	H	0.396508	0.468785	0.450698
	O351	O	1.109863	1.166152	-0.098865
	H352	H	1.092194	1.168545	-0.111563
	H353	H	1.133844	1.168901	-0.112884
	O354	O	0.932650	1.129772	0.835770
	H355	H	0.931935	1.124033	0.854256
	H356	H	0.943363	1.113274	0.848669
	O357	O	0.158229	0.142657	0.186340
	H358	H	0.167847	0.147303	0.167001
	H359	H	0.120110	0.160972	0.190573
	O360	O	0.781058	0.122277	0.231982
	H361	H	0.780836	0.116310	0.256299
	H362	H	0.779830	0.144211	0.209972
	O363	O	1.449247	-0.357693	0.384752
	H364	H	1.452719	-0.361667	0.418103
	H365	H	1.433193	-0.347637	0.375283
	O366	O	0.369203	0.607240	1.561848
	H367	H	0.378297	0.618316	1.554579
	H368	H	0.366134	0.618636	1.553296
	O369	O	1.050940	-0.032555	0.942151
	H370	H	1.057610	-0.036319	0.954663
	H371	H	1.046126	-0.035911	0.930936
	O372	O	0.455119	0.339559	0.680176
	H373	H	0.450070	0.349762	0.677854
	H374	H	0.454001	0.320906	0.689286
	O375	O	-0.095975	-0.113886	0.941304
	H376	H	-0.078564	-0.125920	0.922264
	H377	H	-0.087329	-0.102965	0.936013
	O378	O	0.387518	0.699727	0.321486
	H379	H	0.393373	0.714054	0.306428
	H380	H	0.381517	0.653539	0.316838
	O381	O	-0.128988	0.855504	0.081425
	H382	H	-0.128968	0.857768	0.097159
	H383	H	-0.163799	0.836158	0.081523
	O384	O	0.479645	0.643364	0.697615
	H385	H	0.499856	0.626610	0.700577
	H386	H	0.486772	0.661276	0.706569
	O387	O	0.305512	0.519075	0.516865
	H388	H	0.317210	0.513748	0.520784
	H389	H	0.297743	0.546858	0.514118
	O390	O	0.981833	1.188731	0.191921
	H391	H	0.957904	1.169438	0.191757
	H392	H	0.973571	1.198728	0.197265
	O393	O	0.913741	-0.078335	0.878031
	H394	H	0.885732	-0.088433	0.896714
	H395	H	0.926907	-0.059829	0.876330
	O396	O	1.201016	-0.009128	-0.201837
	H397	H	1.219440	-0.020761	-0.212208
	H398	H	1.207244	-0.042864	-0.212182
	O399	O	0.314222	0.560496	0.289327
	H400	H	0.314745	0.543077	0.284384
	H401	H	0.310923	0.545825	0.281300
	O402	O	0.782240	1.131319	-0.014892
	H403	H	0.768948	1.142898	-0.008037
	H404	H	0.797169	1.118944	-0.029375
	O405	O	0.300380	0.530239	0.685120
	H406	H	0.288061	0.534830	0.679779
	H407	H	0.292872	0.537936	0.701233
	O408	O	0.599261	0.481368	0.635434
	H409	H	0.590155	0.496605	0.630947
	H410	H	0.590927	0.461976	0.647026
	O411	O	0.897754	0.958486	1.033014
	H412	H	0.907273	0.964887	1.032305
	H413	H	0.918627	0.945797	1.030538
	O414	O	0.693655	0.493321	0.291286
	H415	H	0.691614	0.486853	0.279250
	H416	H	0.700956	0.495623	0.287654
	O417	O	-0.196305	0.904003	1.206495
	H418	H	-0.215357	0.896563	1.232635
	H419	H	-0.192428	0.912443	1.210322
	O420	O	-0.052927	1.060445	0.825635
	H421	H	-0.061035	1.060983	0.827494
	H422	H	-0.058809	1.069934	0.827030
	O423	O	0.000816	0.908728	-0.196302
	H424	H	0.003474	0.911390	-0.203966
	H425	H	-0.008812	0.918128	-0.187984
	O426	O	0.630543	0.586130	0.485093
	H427	H	0.627507	0.582414	0.479547
	H428	H	0.621518	0.580889	0.476762
	O429	O	0.703124	0.288355	0.472895
	H430	H	0.711770	0.303096	0.490591
	H431	H	0.727006	0.265401	0.480742
	O432	O	0.445355	0.411158	0.381986
	H433	H	0.460281	0.412362	0.380721
	H434	H	0.445594	0.393678	0.373758
	O435	O	0.170630	-0.159500	-0.175142
	H436	H	0.138537	-0.166362	-0.181669
	H437	H	0.169659	-0.174724	-0.137282
	O438	O	0.190425	1.200800	1.055004
	H439	H	0.186605	1.203900	1.049842
	H440	H	0.205728	1.202995	1.042412
	O441	O	0.333824	0.381679	0.428437
	H442	H	0.328048	0.399851	0.442048
	H443	H	0.349081	0.376008	0.433026
