data_Molecule from HDF5

_cell_length_a		16.531214
_cell_length_b		16.635899
_cell_length_c		16.548041
_cell_angle_alpha	90.118840
_cell_angle_beta	89.967059
_cell_angle_gamma	90.023157
_symmetry_space_group_name_H-M	'P 1'
_symmetry_Int_Tables_number		1

loop_
	_symmetry_equiv_pos_as_xyz
	x,y,z

loop_
	_atom_site_label
	_atom_site_type_symbol
	_atom_site_fract_x
	_atom_site_fract_y
	_atom_site_fract_z
	H0	H	0.408572	0.839293	0.724362
	H1	H	0.623980	0.150221	0.722913
	H2	H	0.621697	0.839822	0.277492
	H3	H	0.410649	0.149560	0.278218
	H4	H	0.743208	0.384244	0.847185
	H5	H	0.739661	0.601915	0.154974
	H6	H	0.296620	0.599208	0.841763
	H7	H	0.296255	0.392070	0.156875
	H8	H	0.859895	0.715467	0.395747
	H9	H	0.174332	0.717503	0.606601
	H10	H	0.861760	0.272787	0.607059
	H11	H	0.173744	0.274286	0.394808
	H12	H	0.863925	0.386236	0.726131
	H13	H	0.174464	0.600978	0.721546
	H14	H	0.860571	0.598105	0.279746
	H15	H	0.174757	0.391654	0.280346
	H16	H	0.410588	0.717744	0.842498
	H17	H	0.622753	0.716781	0.155127
	H18	H	0.623861	0.270979	0.845740
	H19	H	0.409237	0.272105	0.155346
	H20	H	0.739189	0.840055	0.392900
	H21	H	0.740876	0.149519	0.607335
	H22	H	0.292135	0.839308	0.608955
	H23	H	0.295490	0.149615	0.396859
	H24	H	0.912441	0.340151	0.221649
	H25	H	0.121134	0.652292	0.219399
	H26	H	0.122899	0.339225	0.778108
	H27	H	0.908553	0.649229	0.775565
	H28	H	0.235842	0.891269	0.342232
	H29	H	0.239410	0.100552	0.655298
	H30	H	0.797103	0.098125	0.343564
	H31	H	0.795947	0.891349	0.657692
	H32	H	0.360739	0.214768	0.895425
	H33	H	0.673266	0.215337	0.104306
	H34	H	0.360801	0.773825	0.103325
	H35	H	0.674723	0.773618	0.893606
	H36	H	0.359506	0.891588	0.218186
	H37	H	0.674805	0.097458	0.218515
	H38	H	0.361393	0.098926	0.777999
	H39	H	0.675310	0.890967	0.779825
	H40	H	0.912837	0.215655	0.343342
	H41	H	0.125580	0.219414	0.654603
	H42	H	0.121343	0.774346	0.343108
	H43	H	0.909935	0.772866	0.656562
	H44	H	0.237650	0.338285	0.896111
	H45	H	0.235737	0.653136	0.100856
	H46	H	0.795352	0.339853	0.105324
	H47	H	0.789404	0.647688	0.889198
	H48	H	0.430957	0.100690	0.582431
	H49	H	0.602860	0.885269	0.588361
	H50	H	0.611842	0.107398	0.413842
	H51	H	0.425150	0.881068	0.409479
	H52	H	0.607108	0.404201	0.113642
	H53	H	0.597912	0.580658	0.890681
	H54	H	0.421190	0.584742	0.112957
	H55	H	0.431133	0.403488	0.888693
	H56	H	0.128600	0.583882	0.410652
	H57	H	0.909663	0.581999	0.579454
	H58	H	0.131220	0.405877	0.590764
	H59	H	0.903600	0.407294	0.406195
	H60	H	0.128575	0.404407	0.582901
	H61	H	0.906693	0.575897	0.594177
	H62	H	0.131248	0.586390	0.408360
	H63	H	0.903580	0.401502	0.411527
	H64	H	0.431075	0.580516	0.108535
	H65	H	0.605500	0.586243	0.886112
	H66	H	0.605721	0.410568	0.111109
	H67	H	0.426554	0.404856	0.887526
	H68	H	0.607084	0.108870	0.404260
	H69	H	0.605849	0.885168	0.585268
	H70	H	0.424100	0.106856	0.588943
	H71	H	0.428016	0.881916	0.406388
	H72	H	0.925167	0.606274	0.083277
	H73	H	0.106720	0.384900	0.084903
	H74	H	0.112591	0.609118	0.909640
	H75	H	0.931300	0.384986	0.910665
	H76	H	0.103578	0.905964	0.612185
	H77	H	0.104849	0.088866	0.386117
	H78	H	0.932523	0.084693	0.611070
	H79	H	0.931017	0.903417	0.388643
	H80	H	0.623266	0.077054	0.922885
	H81	H	0.402969	0.087865	0.089831
	H82	H	0.627877	0.907244	0.084378
	H83	H	0.407106	0.909980	0.909301
	H84	H	0.630600	0.907856	0.093208
	H85	H	0.405776	0.083159	0.084318
	H86	H	0.631492	0.076158	0.899444
	H87	H	0.403164	0.902599	0.908828
	H88	H	0.927947	0.086452	0.614230
	H89	H	0.109557	0.080874	0.387153
	H90	H	0.105546	0.904552	0.612568
	H91	H	0.925654	0.903962	0.387119
	H92	H	0.105066	0.608295	0.906133
	H93	H	0.113241	0.380947	0.091519
	H94	H	0.926900	0.607906	0.091788
	H95	H	0.934393	0.387087	0.914406
	H96	H	0.434293	0.103742	0.591833
	H97	H	0.606594	0.883391	0.588706
	H98	H	0.601448	0.104894	0.412220
	H99	H	0.428834	0.883544	0.410634
	H100	H	0.600954	0.406093	0.111507
	H101	H	0.607108	0.576832	0.888400
	H102	H	0.430250	0.591302	0.112289
	H103	H	0.429588	0.407916	0.889477
	H104	H	0.130380	0.587283	0.412127
	H105	H	0.902163	0.591552	0.590622
	H106	H	0.127041	0.411567	0.586624
	H107	H	0.906600	0.408586	0.413333
	H108	H	0.933812	0.604456	0.087150
	H109	H	0.103850	0.382899	0.094780
	H110	H	0.106486	0.604931	0.913894
	H111	H	0.929486	0.385035	0.915367
	H112	H	0.105697	0.906864	0.611590
	H113	H	0.101355	0.081811	0.390006
	H114	H	0.927890	0.081623	0.610547
	H115	H	0.928133	0.908546	0.389875
	H116	H	0.633883	0.097320	0.912591
	H117	H	0.404393	0.080328	0.091465
	H118	H	0.631449	0.899993	0.088637
	H119	H	0.407046	0.905779	0.915659
	C120	C	0.395488	0.002015	0.621639
	C121	C	0.638367	0.986957	0.620738
	C122	C	0.638873	0.003969	0.378077
	C123	C	0.395008	0.985553	0.378154
	C124	C	0.638125	0.373341	0.009564
	C125	C	0.637478	0.614897	0.990759
	C126	C	0.395662	0.617086	0.007170
	C127	C	0.396125	0.373980	0.991779
	C128	C	0.025910	0.616912	0.378748
	C129	C	1.009540	0.616362	0.620962
	C130	C	0.026116	0.374268	0.620480
	C131	C	1.008768	0.374161	0.378634
	C132	C	0.896262	0.503595	0.120680
	C133	C	0.139460	0.486814	0.121383
	C134	C	0.139368	0.503755	0.878201
	C135	C	0.895878	0.486689	0.878326
	C136	C	0.137213	0.873842	0.508300
	C137	C	0.138619	0.116579	0.491009
	C138	C	0.896858	0.116104	0.508421
	C139	C	0.895557	0.873478	0.492064
	C140	C	0.526110	0.115743	0.878893
	C141	C	0.508240	0.115542	0.120666
	C142	C	0.526000	0.873459	0.120398
	C143	C	0.509318	0.873812	0.878273
	C144	C	0.391015	0.886111	0.683728
	C145	C	0.641621	0.103564	0.682236
	C146	C	0.640532	0.886585	0.317847
	C147	C	0.392639	0.102999	0.318645
	C148	C	0.700989	0.368088	0.893000
	C149	C	0.698925	0.619056	0.108033
	C150	C	0.336309	0.618024	0.888942
	C151	C	0.335723	0.372478	0.109628
	C152	C	0.907227	0.675740	0.377101
	C153	C	0.127051	0.677355	0.624317
	C154	C	0.908850	0.312968	0.625086
	C155	C	0.126843	0.314503	0.376577
	C156	C	0.909691	0.369738	0.683791
	C157	C	0.127269	0.619322	0.681595
	C158	C	0.907468	0.617800	0.319343
	C159	C	0.127097	0.372750	0.319492
	C160	C	0.393029	0.676890	0.889287
	C161	C	0.640926	0.676384	0.107979
	C162	C	0.641940	0.311569	0.892596
	C163	C	0.391996	0.313185	0.109047
	C164	C	0.698998	0.886796	0.375311
	C165	C	0.699734	0.103539	0.624513
	C166	C	0.333006	0.885877	0.625903
	C167	C	0.335239	0.102852	0.377274
	C168	C	0.894018	0.386650	0.181131
	C169	C	0.139967	0.605275	0.179680
	C170	C	0.141226	0.386011	0.818311
	C171	C	0.890930	0.602502	0.815873
	C172	C	0.196612	0.872371	0.389905
	C173	C	0.199325	0.119131	0.608365
	C174	C	0.837091	0.117436	0.390420
	C175	C	0.835309	0.872087	0.610167
	C176	C	0.408086	0.175318	0.876347
	C177	C	0.626451	0.175213	0.122704
	C178	C	0.407755	0.813909	0.121852
	C179	C	0.627484	0.813702	0.875800
	C180	C	0.407398	0.872154	0.179186
	C181	C	0.626974	0.116706	0.179448
	C182	C	0.408342	0.117772	0.818205
	C183	C	0.627858	0.871955	0.818923
	C184	C	0.894467	0.175637	0.390302
	C185	C	0.142766	0.178144	0.607927
	C186	C	0.139745	0.813995	0.390277
	C187	C	0.892003	0.813169	0.609692
	C188	C	0.198246	0.385563	0.877043
	C189	C	0.197031	0.605596	0.120840
	C190	C	0.835769	0.386491	0.123535
	C191	C	0.831529	0.601493	0.872430
	C192	C	0.421991	0.082854	0.595167
	C193	C	0.612498	0.905666	0.594663
	C194	C	0.613825	0.085695	0.403000
	C195	C	0.419939	0.903430	0.402165
	C196	C	0.612078	0.399708	0.090821
	C197	C	0.611085	0.588626	0.909491
	C198	C	0.420659	0.592636	0.089860
	C199	C	0.421855	0.398379	0.909880
	C200	C	0.108340	0.592660	0.403380
	C201	C	0.927729	0.590684	0.595227
	C202	C	0.107684	0.399959	0.594189
	C203	C	0.926123	0.398570	0.403327
	C204	C	0.921507	0.585030	0.094868
	C205	C	0.115001	0.404289	0.097556
	C206	C	0.115030	0.585882	0.902760
	C207	C	0.923581	0.406431	0.905684
	C208	C	0.112157	0.898892	0.590746
	C209	C	0.112614	0.090869	0.409124
	C210	C	0.922153	0.091249	0.590528
	C211	C	0.921107	0.898246	0.409982
	C212	C	0.608128	0.090747	0.904346
	C213	C	0.425925	0.090801	0.095644
	C214	C	0.608593	0.898034	0.095798
	C215	C	0.427197	0.898898	0.903855
	Zn216	Zn	0.517730	-0.006280	0.750046
	Zn217	Zn	0.516764	-0.005082	0.249104
	Zn218	Zn	0.766961	0.494778	-0.000024
	Zn219	Zn	0.267978	0.495281	-0.000397
	Zn220	Zn	0.016967	0.745215	0.500396
	Zn221	Zn	0.017159	0.245279	0.499745
	Zn222	Zn	0.017770	0.495494	0.749586
	Zn223	Zn	0.017484	0.495740	0.250229
	Zn224	Zn	0.517499	0.745091	-0.001508
	Zn225	Zn	0.516403	0.244692	0.000509
	Zn226	Zn	0.767708	-0.004868	0.500100
	Zn227	Zn	0.266242	-0.006232	0.500164
	N228	N	0.429215	0.959350	0.681317
	N229	N	0.603982	0.030165	0.679809
	N230	N	0.603840	0.960514	0.319182
	N231	N	0.429229	0.028913	0.319049
	N232	N	0.698584	0.406131	0.966590
	N233	N	0.697089	0.581627	0.033886
	N234	N	0.337825	0.581584	0.963423
	N235	N	0.338230	0.409590	0.035830
	N236	N	0.981989	0.675566	0.413079
	N237	N	0.052599	0.675689	0.587421
	N238	N	0.982267	0.315617	0.586473
	N239	N	0.051859	0.315028	0.412440
	N240	N	0.983637	0.407118	0.681217
	N241	N	0.052991	0.582326	0.680011
	N242	N	0.982267	0.582107	0.320151
	N243	N	0.052513	0.409066	0.320406
	N244	N	0.429224	0.676415	0.964005
	N245	N	0.603625	0.674364	0.033991
	N246	N	0.603614	0.314501	0.966135
	N247	N	0.428851	0.313938	0.034668
	N248	N	0.698172	0.960836	0.411894
	N249	N	0.697668	0.030037	0.586769
	N250	N	0.335571	0.959256	0.587872
	N251	N	0.336781	0.028809	0.413483
	N252	N	0.931014	0.460563	0.179489
	N253	N	0.105056	0.530216	0.180410
	N254	N	0.105473	0.460597	0.818687
	N255	N	0.930327	0.529839	0.819290
	N256	N	0.195596	0.908444	0.464669
	N257	N	0.196888	0.081412	0.534545
	N258	N	0.838160	0.081419	0.464960
	N259	N	0.837194	0.908715	0.535751
	N260	N	0.482401	0.174476	0.913040
	N261	N	0.551301	0.174991	0.087278
	N262	N	0.482749	0.814300	0.086246
	N263	N	0.552509	0.814393	0.911751
	N264	N	0.482242	0.908219	0.178736
	N265	N	0.552288	0.080853	0.178761
	N266	N	0.482988	0.081818	0.819086
	N267	N	0.553326	0.908323	0.820329
	N268	N	0.930441	0.175323	0.464939
	N269	N	0.105891	0.176759	0.533754
	N270	N	0.103693	0.814774	0.465040
	N271	N	0.928405	0.813673	0.535135
	N272	N	0.197453	0.459769	0.913401
	N273	N	0.196938	0.530824	0.085698
	N274	N	0.837090	0.460344	0.086658
	N275	N	0.834541	0.528288	0.910378
	O276	O	0.227730	0.787430	-0.025036
	H277	H	0.234490	0.813330	-0.003101
	H278	H	0.231873	0.771148	-0.013737
	O279	O	0.547060	0.272840	0.278205
	H280	H	0.552351	0.270452	0.270642
	H281	H	0.538960	0.257645	0.271191
	O282	O	1.234404	0.030402	1.212601
	H283	H	1.240982	0.042599	1.227928
	H284	H	1.241929	0.053358	1.227936
	O285	O	0.322137	0.594724	0.621216
	H286	H	0.322536	0.592422	0.623092
	H287	H	0.310186	0.610599	0.603082
	O288	O	0.976880	-0.059720	0.981438
	H289	H	0.989352	-0.064748	0.968507
	H290	H	0.993517	-0.059726	0.982792
	O291	O	0.812252	0.207048	0.971493
	H292	H	0.807728	0.218289	0.967395
	H293	H	0.806721	0.201050	0.971977
	O294	O	0.706128	-0.312814	0.693698
	H295	H	0.686265	-0.299049	0.697322
	H296	H	0.716580	-0.336383	0.696441
	O297	O	-0.137756	0.949172	0.884878
	H298	H	-0.126921	0.944664	0.886179
	H299	H	-0.135383	0.950808	0.889171
	O300	O	0.227627	0.202728	1.033083
	H301	H	0.235663	0.208985	1.031989
	H302	H	0.226307	0.210362	1.036403
	O303	O	0.675685	0.504969	0.609151
	H304	H	0.677730	0.519585	0.609556
	H305	H	0.678926	0.510798	0.614673
	O306	O	0.313525	0.699492	0.298255
	H307	H	0.358530	0.697242	0.290000
	H308	H	0.293119	0.723075	0.295847
	O309	O	0.612383	0.441803	0.472345
	H310	H	0.624428	0.443455	0.477026
	H311	H	0.611762	0.443373	0.469142
	O312	O	0.326005	0.465963	0.719143
	H313	H	0.329600	0.448233	0.715475
	H314	H	0.301362	0.460519	0.741844
	O315	O	1.270225	1.738579	1.750969
	H316	H	1.277883	1.733447	1.776353
	H317	H	1.268326	1.765367	1.749568
	O318	O	0.723863	0.471794	0.290025
	H319	H	0.742908	0.461037	0.271841
	H320	H	0.724844	0.470297	0.311563
	O321	O	0.304885	0.279488	0.534036
	H322	H	0.282122	0.270829	0.522647
	H323	H	0.301436	0.292297	0.538603
	O324	O	0.808304	0.785371	0.206357
	H325	H	0.803451	0.833995	0.213123
	H326	H	0.793748	0.769630	0.201845
	O327	O	-0.008220	0.211692	0.781512
	H328	H	-0.027670	0.220363	0.783293
	H329	H	-0.033292	0.227638	0.765048
	O330	O	0.459724	0.533302	0.518505
	H331	H	0.462050	0.543688	0.503438
	H332	H	0.460441	0.545486	0.522335
	O333	O	0.738527	0.555178	0.438868
	H334	H	0.738122	0.544624	0.443192
	H335	H	0.742363	0.578594	0.443943
	O336	O	0.508203	0.539575	0.470974
	H337	H	0.504875	0.551211	0.472897
	H338	H	0.518759	0.537628	0.470047
	O339	O	1.016431	-0.226638	1.142972
	H340	H	0.983924	-0.234288	1.146600
	H341	H	1.002258	-0.239955	1.153342
	O342	O	0.031627	0.038676	0.180644
	H343	H	0.037383	0.035840	0.171661
	H344	H	0.043590	0.019104	0.186803
	O345	O	-0.431643	1.462952	1.727376
	H346	H	-0.451073	1.461686	1.730551
	H347	H	-0.461512	1.464666	1.725292
	O348	O	0.032461	-0.003200	-0.070503
	H349	H	0.024571	0.002214	-0.072702
	H350	H	0.036806	-0.001004	-0.074382
	O351	O	0.707832	0.368717	0.432146
	H352	H	0.706812	0.378307	0.450487
	H353	H	0.722704	0.351237	0.415712
	O354	O	0.350913	0.441582	1.496693
	H355	H	0.333057	0.450496	1.502241
	H356	H	0.353106	0.438627	1.493000
	O357	O	-0.118515	-0.014968	-0.151710
	H358	H	-0.116949	-0.013524	-0.147266
	H359	H	-0.126571	-0.027062	-0.166593
	O360	O	-0.128292	-0.095038	1.004553
	H361	H	-0.110949	-0.092218	0.996674
	H362	H	-0.130124	-0.089158	0.996998
	O363	O	-0.210176	0.223112	0.230387
	H364	H	-0.206494	0.225934	0.209578
	H365	H	-0.203489	0.221241	0.220020
	O366	O	0.814005	0.201851	0.795265
	H367	H	0.787467	0.226478	0.768944
	H368	H	0.802457	0.186819	0.814561
	O369	O	1.233413	-0.054956	0.060757
	H370	H	1.230200	-0.041763	0.079143
	H371	H	1.234340	-0.032429	0.048065
	O372	O	0.890515	0.971860	0.107956
	H373	H	0.887135	0.984267	0.124690
	H374	H	0.911399	0.976809	0.096203
	O375	O	1.048739	0.211942	0.212290
	H376	H	1.039888	0.204757	0.207059
	H377	H	1.052059	0.230285	0.221713
	O378	O	-0.111079	0.982737	-0.090220
	H379	H	-0.116706	0.993121	-0.104614
	H380	H	-0.105782	0.986373	-0.088042
	O381	O	-0.100188	0.867607	1.205995
	H382	H	-0.131014	0.880155	1.212459
	H383	H	-0.097384	0.860707	1.216258
	O384	O	0.602227	0.405017	0.448244
	H385	H	0.598466	0.421381	0.459568
	H386	H	0.590765	0.398901	0.441028
	O387	O	0.489190	0.376990	-0.512399
	H388	H	0.493967	0.395778	-0.529247
	H389	H	0.494141	0.367271	-0.528905
	O390	O	0.544804	0.718689	0.718970
	H391	H	0.538519	0.724444	0.723342
	H392	H	0.554427	0.731331	0.737918
	O393	O	0.721876	0.719546	0.521994
	H394	H	0.731775	0.734082	0.528285
	H395	H	0.732444	0.714729	0.538996
	O396	O	0.226570	1.052695	0.942066
	H397	H	0.226101	1.062557	0.946180
	H398	H	0.221687	1.069020	0.916532
	O399	O	0.094781	-0.082190	1.203245
	H400	H	0.107725	-0.091670	1.207306
	H401	H	0.086239	-0.089697	1.206140
	O402	O	0.294007	0.532265	0.276175
	H403	H	0.277782	0.558515	0.259132
	H404	H	0.288294	0.546033	0.264761
	O405	O	1.170606	-0.191975	1.161554
	H406	H	1.137710	-0.183333	1.157133
	H407	H	1.167890	-0.179520	1.143470
	O408	O	0.074658	0.216509	-0.054147
	H409	H	0.070317	0.206441	-0.069500
	H410	H	0.075837	0.218932	-0.053176
	O411	O	0.563625	0.554515	0.271918
	H412	H	0.567809	0.537559	0.275829
	H413	H	0.574363	0.551634	0.265491
	O414	O	0.954527	0.143396	0.174495
	H415	H	0.958645	0.152451	0.162085
	H416	H	0.976045	0.139195	0.162436
	O417	O	0.217906	0.899066	0.796897
	H418	H	0.236185	0.903342	0.802801
	H419	H	0.212034	0.925901	0.800202
	O420	O	0.308729	0.285603	0.705738
	H421	H	0.362092	0.285258	0.713698
	H422	H	0.303855	0.300650	0.669087
	O423	O	0.297625	0.715728	0.466900
	H424	H	0.309860	0.722434	0.451782
	H425	H	0.272295	0.733323	0.463699
	O426	O	0.480336	0.274647	0.723601
	H427	H	0.494270	0.247545	0.721673
	H428	H	0.498521	0.259511	0.710872
	O429	O	1.481159	1.714553	0.282897
	H430	H	1.488531	1.713495	0.267610
	H431	H	1.499575	1.724303	0.284326
	O432	O	0.720086	0.504629	0.720158
	H433	H	0.710719	0.506771	0.738374
	H434	H	0.714015	0.510920	0.743441
	O435	O	0.038757	0.925633	-0.146636
	H436	H	0.048825	0.923112	-0.152035
	H437	H	0.054051	0.915127	-0.138088
	O438	O	-0.207587	0.052572	0.035180
	H439	H	-0.200586	0.039830	0.027006
	H440	H	-0.214559	0.051336	0.027589
	O441	O	-0.010396	-0.164417	-0.033819
	H442	H	-0.002451	-0.172741	-0.053743
	H443	H	-0.009570	-0.159588	-0.035730
	O444	O	0.112090	0.032229	-0.224336
	H445	H	0.102692	0.035274	-0.226597
	H446	H	0.107543	0.052541	-0.228118
	O447	O	0.203052	1.176825	0.815163
	H448	H	0.211169	1.189426	0.790772
	H449	H	0.194639	1.187203	0.815423
	O450	O	-0.190136	0.780398	1.025973
	H451	H	-0.202612	0.765590	1.031951
	H452	H	-0.182653	0.784708	1.039229
	O453	O	0.458368	0.723011	0.550760
	H454	H	0.445622	0.713850	0.547332
	H455	H	0.456737	0.724122	0.566615
	O456	O	-0.021680	0.161376	1.015313
	H457	H	-0.005422	0.145176	1.017624
	H458	H	-0.033327	0.173310	1.015893
	O459	O	0.364063	0.306257	0.335420
	H460	H	0.367797	0.308525	0.339333
	H461	H	0.371904	0.331855	0.340644
	O462	O	0.412583	0.412139	0.415583
	H463	H	0.414331	0.425663	0.418427
	H464	H	0.401891	0.408090	0.417923
	O465	O	0.734708	0.269195	0.471673
	H466	H	0.746494	0.277426	0.464219
	H467	H	0.753801	0.254358	0.454626
	O468	O	0.039759	0.773880	-0.218019
	H469	H	0.079465	0.775484	-0.214265
	H470	H	0.054778	0.748075	-0.236851
	O471	O	0.426929	0.442320	0.288807
	H472	H	0.425982	0.448520	0.282302
	H473	H	0.419248	0.453371	0.291818
	O474	O	-0.291019	1.303353	-0.306604
	H475	H	-0.315347	1.325240	-0.315968
	H476	H	-0.301588	1.320555	-0.331338
	O477	O	0.240641	1.223230	1.228293
	H478	H	0.236462	1.238485	1.225470
	H479	H	0.230283	1.227014	1.242923
	O480	O	0.444036	0.507423	0.664112
	H481	H	0.433776	0.500256	0.648512
	H482	H	0.445880	0.519962	0.663211
	O483	O	0.527048	0.674134	0.433072
	H484	H	0.528185	0.679884	0.444515
	H485	H	0.530186	0.675953	0.443339
	O486	O	1.553649	-0.708615	0.569072
	H487	H	1.549229	-0.712864	0.540897
	H488	H	1.562068	-0.694300	0.558669
	O489	O	0.705246	0.684382	0.310525
	H490	H	0.704029	0.691703	0.308117
	H491	H	0.689038	0.666714	0.325194
