data_Molecule from HDF5

_cell_length_a		16.323270
_cell_length_b		16.302707
_cell_length_c		16.527903
_cell_angle_alpha	89.951836
_cell_angle_beta	89.885038
_cell_angle_gamma	89.816704
_symmetry_space_group_name_H-M	'P 1'
_symmetry_Int_Tables_number		1

loop_
	_symmetry_equiv_pos_as_xyz
	x,y,z

loop_
	_atom_site_label
	_atom_site_type_symbol
	_atom_site_fract_x
	_atom_site_fract_y
	_atom_site_fract_z
	H0	H	0.381871	0.844857	0.721697
	H1	H	0.595904	0.161036	0.718832
	H2	H	0.601181	0.844515	0.272720
	H3	H	0.382552	0.162841	0.275684
	H4	H	0.711892	0.397467	0.840596
	H5	H	0.710300	0.607898	0.156579
	H6	H	0.266973	0.610716	0.840774
	H7	H	0.262869	0.392559	0.153433
	H8	H	0.830136	0.725685	0.392601
	H9	H	0.149039	0.722717	0.601652
	H10	H	0.828488	0.283774	0.600668
	H11	H	0.148576	0.281520	0.392760
	H12	H	0.831443	0.394073	0.721548
	H13	H	0.147122	0.610620	0.720097
	H14	H	0.830464	0.613274	0.274896
	H15	H	0.145813	0.393187	0.273221
	H16	H	0.384651	0.725145	0.840942
	H17	H	0.596064	0.725846	0.155363
	H18	H	0.594178	0.282126	0.839557
	H19	H	0.381819	0.279033	0.154145
	H20	H	0.711541	0.843112	0.392373
	H21	H	0.705971	0.163756	0.597711
	H22	H	0.270225	0.842982	0.602364
	H23	H	0.269177	0.163472	0.394707
	H24	H	0.881197	0.344620	0.220671
	H25	H	0.092605	0.663005	0.217440
	H26	H	0.098610	0.343936	0.774047
	H27	H	0.883796	0.662230	0.776849
	H28	H	0.212244	0.897255	0.340466
	H29	H	0.210373	0.107358	0.656283
	H30	H	0.769210	0.108295	0.338900
	H31	H	0.768087	0.898368	0.654918
	H32	H	0.330808	0.225257	0.891502
	H33	H	0.650754	0.219813	0.097774
	H34	H	0.328749	0.785878	0.100799
	H35	H	0.649869	0.782702	0.893793
	H36	H	0.332325	0.895684	0.221373
	H37	H	0.648260	0.109878	0.217868
	H38	H	0.331278	0.112016	0.774130
	H39	H	0.648539	0.895950	0.775486
	H40	H	0.885818	0.223867	0.339264
	H41	H	0.093759	0.223085	0.656846
	H42	H	0.094272	0.781921	0.339932
	H43	H	0.883640	0.781512	0.655221
	H44	H	0.210801	0.342743	0.893412
	H45	H	0.207756	0.663230	0.100903
	H46	H	0.771076	0.341797	0.100263
	H47	H	0.771248	0.664153	0.896676
	H48	H	0.402228	0.116276	0.584741
	H49	H	0.577483	0.888138	0.587281
	H50	H	0.577353	0.119420	0.397773
	H51	H	0.399442	0.889494	0.410679
	H52	H	0.574869	0.414539	0.108185
	H53	H	0.578699	0.596840	0.884677
	H54	H	0.401703	0.595457	0.110700
	H55	H	0.399235	0.414429	0.884410
	H56	H	0.101402	0.591238	0.412866
	H57	H	0.875477	0.593167	0.584308
	H58	H	0.105377	0.411040	0.592822
	H59	H	0.874761	0.411984	0.411083
	H60	H	0.102623	0.409688	0.581011
	H61	H	0.876400	0.587069	0.586894
	H62	H	0.101366	0.585184	0.405084
	H63	H	0.876417	0.418415	0.410415
	H64	H	0.396242	0.592518	0.112575
	H65	H	0.583610	0.590681	0.884946
	H66	H	0.578356	0.408403	0.112236
	H67	H	0.401113	0.417239	0.886787
	H68	H	0.570390	0.113163	0.410623
	H69	H	0.578020	0.888422	0.586167
	H70	H	0.399490	0.117554	0.586713
	H71	H	0.404607	0.888809	0.403988
	H72	H	0.901710	0.619665	0.093904
	H73	H	0.077056	0.389485	0.084743
	H74	H	0.074031	0.614735	0.908223
	H75	H	0.901727	0.387630	0.906069
	H76	H	0.078262	0.916875	0.609682
	H77	H	0.081876	0.089958	0.386028
	H78	H	0.901540	0.097073	0.611440
	H79	H	0.899374	0.912861	0.383312
	H80	H	0.603594	0.090786	0.907080
	H81	H	0.378014	0.090067	0.078632
	H82	H	0.601697	0.917758	0.081884
	H83	H	0.376658	0.916056	0.911043
	H84	H	0.604440	0.917671	0.089861
	H85	H	0.375650	0.083976	0.091784
	H86	H	0.603230	0.090182	0.907938
	H87	H	0.376159	0.917841	0.906881
	H88	H	0.892910	0.092319	0.611610
	H89	H	0.076530	0.090753	0.386656
	H90	H	0.075838	0.910994	0.610772
	H91	H	0.900833	0.916599	0.384889
	H92	H	0.079188	0.616986	0.910211
	H93	H	0.075996	0.388972	0.088286
	H94	H	0.904209	0.614816	0.084329
	H95	H	0.903593	0.389233	0.908258
	H96	H	0.402490	0.116552	0.588454
	H97	H	0.578141	0.887677	0.587096
	H98	H	0.585526	0.117381	0.411200
	H99	H	0.407410	0.892490	0.411473
	H100	H	0.582494	0.415560	0.111344
	H101	H	0.576461	0.589757	0.887326
	H102	H	0.400154	0.589653	0.109007
	H103	H	0.402750	0.413588	0.886102
	H104	H	0.104973	0.594314	0.404667
	H105	H	0.873978	0.592091	0.590284
	H106	H	0.100846	0.421464	0.586247
	H107	H	0.873908	0.414795	0.405581
	H108	H	0.894137	0.619027	0.086303
	H109	H	0.073782	0.389821	0.085137
	H110	H	0.077501	0.617817	0.904935
	H111	H	0.899754	0.388468	0.909807
	H112	H	0.082564	0.911888	0.611419
	H113	H	0.079789	0.094723	0.385042
	H114	H	0.900984	0.087918	0.607941
	H115	H	0.903787	0.913309	0.385195
	H116	H	0.603180	0.089639	0.907243
	H117	H	0.371639	0.098113	0.089479
	H118	H	0.605678	0.910667	0.085425
	H119	H	0.374492	0.913469	0.907646
	C120	C	0.368746	0.011799	0.619387
	C121	C	0.610223	0.993666	0.618443
	C122	C	0.611336	0.011281	0.374615
	C123	C	0.369533	0.994950	0.376027
	C124	C	0.611121	0.381183	0.006325
	C125	C	0.611244	0.624767	0.989993
	C126	C	0.367261	0.624985	0.006586
	C127	C	0.367287	0.381025	0.989248
	C128	C	-0.002748	0.624033	0.375924
	C129	C	0.980422	0.623642	0.618688
	C130	C	-0.002268	0.381689	0.619096
	C131	C	0.979906	0.381755	0.376527
	C132	C	0.867236	0.512185	0.120074
	C133	C	0.108522	0.494583	0.118234
	C134	C	0.110527	0.511287	0.875602
	C135	C	0.868829	0.494176	0.876596
	C136	C	0.111688	0.880568	0.506538
	C137	C	0.111098	0.124219	0.490114
	C138	C	0.867156	0.124567	0.505827
	C139	C	0.868351	0.881594	0.488656
	C140	C	0.498466	0.124154	0.875351
	C141	C	0.480762	0.123546	0.118031
	C142	C	0.498578	0.882583	0.118635
	C143	C	0.480753	0.882151	0.876101
	C144	C	0.365137	0.892022	0.680539
	C145	C	0.613153	0.113704	0.678100
	C146	C	0.616606	0.892129	0.313651
	C147	C	0.365222	0.115019	0.315861
	C148	C	0.671536	0.379244	0.887707
	C149	C	0.670853	0.626648	0.108875
	C150	C	0.307357	0.627837	0.888255
	C151	C	0.304584	0.376011	0.106655
	C152	C	0.877943	0.685535	0.374256
	C153	C	0.100565	0.683653	0.620503
	C154	C	0.877125	0.322259	0.620523
	C155	C	0.100011	0.320916	0.374072
	C156	C	0.878494	0.377285	0.680597
	C157	C	0.099931	0.627471	0.679344
	C158	C	0.878119	0.629175	0.315508
	C159	C	0.098863	0.376867	0.314674
	C160	C	0.366014	0.685168	0.888175
	C161	C	0.613743	0.685573	0.108261
	C162	C	0.612944	0.322041	0.887212
	C163	C	0.363560	0.319077	0.106910
	C164	C	0.672194	0.891301	0.373077
	C165	C	0.668376	0.114792	0.618181
	C166	C	0.309331	0.891189	0.621302
	C167	C	0.308745	0.115210	0.375053
	C168	C	0.864045	0.391996	0.180120
	C169	C	0.111423	0.614665	0.178296
	C170	C	0.115391	0.391533	0.814861
	C171	C	0.866188	0.614758	0.817403
	C172	C	0.172276	0.878539	0.387900
	C173	C	0.170714	0.126074	0.608888
	C174	C	0.808391	0.126459	0.386562
	C175	C	0.807817	0.879494	0.607443
	C176	C	0.378657	0.185282	0.873355
	C177	C	0.601847	0.181945	0.117940
	C178	C	0.377625	0.823877	0.120141
	C179	C	0.601239	0.821582	0.874416
	C180	C	0.379522	0.878329	0.180411
	C181	C	0.600737	0.126865	0.177470
	C182	C	0.378935	0.128755	0.814779
	C183	C	0.600738	0.878214	0.815641
	C184	C	0.866734	0.184006	0.386646
	C185	C	0.112558	0.183898	0.609020
	C186	C	0.113348	0.821492	0.387363
	C187	C	0.865441	0.821421	0.607735
	C188	C	0.171503	0.391061	0.874054
	C189	C	0.168627	0.614913	0.120192
	C190	C	0.809196	0.390616	0.120159
	C191	C	0.809989	0.615579	0.876854
	C192	C	0.394238	0.095021	0.594052
	C193	C	0.585166	0.909807	0.593879
	C194	C	0.585109	0.094869	0.399558
	C195	C	0.396089	0.912035	0.401317
	C196	C	0.585852	0.405892	0.089170
	C197	C	0.586654	0.599592	0.907199
	C198	C	0.392212	0.599770	0.089447
	C199	C	0.393470	0.407622	0.907120
	C200	C	0.080746	0.597637	0.400501
	C201	C	0.896830	0.598099	0.594057
	C202	C	0.081259	0.406870	0.593972
	C203	C	0.896693	0.407721	0.401799
	C204	C	0.892613	0.595779	0.095364
	C205	C	0.083067	0.411156	0.093282
	C206	C	0.084383	0.594620	0.900349
	C207	C	0.894343	0.410364	0.900949
	C208	C	0.086220	0.905927	0.589278
	C209	C	0.086392	0.099167	0.407333
	C210	C	0.891342	0.099510	0.588792
	C211	C	0.894088	0.906781	0.406184
	C212	C	0.581675	0.097768	0.900240
	C213	C	0.397055	0.098420	0.093624
	C214	C	0.581929	0.908077	0.093293
	C215	C	0.397533	0.908203	0.901161
	Zn216	Zn	0.489463	0.003182	0.747602
	Zn217	Zn	0.490101	0.003469	0.246660
	Zn218	Zn	0.740551	0.503043	-0.001627
	Zn219	Zn	0.238144	0.503156	-0.002057
	Zn220	Zn	-0.010762	0.752080	0.498003
	Zn221	Zn	-0.010951	0.253344	0.498385
	Zn222	Zn	-0.010547	0.502562	0.747533
	Zn223	Zn	-0.011918	0.502826	0.247367
	Zn224	Zn	0.489405	0.753907	-0.001731
	Zn225	Zn	0.489636	0.251713	-0.002664
	Zn226	Zn	0.738443	0.002941	0.496705
	Zn227	Zn	0.240634	0.002547	0.498181
	N228	N	0.401303	0.967893	0.679453
	N229	N	0.578109	0.037255	0.678643
	N230	N	0.579524	0.967980	0.314423
	N231	N	0.402199	0.039179	0.316170
	N232	N	0.670621	0.415297	0.962888
	N233	N	0.669272	0.589370	0.034373
	N234	N	0.308021	0.591311	0.963092
	N235	N	0.306790	0.414029	0.032458
	N236	N	0.953128	0.682379	0.411428
	N237	N	0.025310	0.681301	0.583531
	N238	N	0.952299	0.324724	0.583141
	N239	N	0.025128	0.324004	0.412281
	N240	N	0.954585	0.413303	0.679842
	N241	N	0.024262	0.590654	0.678335
	N242	N	0.953371	0.591360	0.316733
	N243	N	0.023331	0.413828	0.315936
	N244	N	0.402480	0.683623	0.962983
	N245	N	0.577267	0.684378	0.033426
	N246	N	0.576162	0.323048	0.961964
	N247	N	0.401999	0.322261	0.032966
	N248	N	0.668759	0.966406	0.410471
	N249	N	0.666733	0.039072	0.581703
	N250	N	0.311677	0.966373	0.583609
	N251	N	0.311041	0.039593	0.411702
	N252	N	0.899042	0.468540	0.180354
	N253	N	0.075306	0.538769	0.177476
	N254	N	0.078473	0.467329	0.815556
	N255	N	0.901831	0.538242	0.817055
	N256	N	0.171624	0.914237	0.463216
	N257	N	0.169893	0.089696	0.533867
	N258	N	0.808484	0.090319	0.461760
	N259	N	0.809151	0.916055	0.532461
	N260	N	0.453853	0.182412	0.910527
	N261	N	0.526118	0.180018	0.081745
	N262	N	0.452878	0.825960	0.082741
	N263	N	0.525632	0.823853	0.911370
	N264	N	0.455687	0.913962	0.179713
	N265	N	0.524421	0.091422	0.177709
	N266	N	0.454516	0.091531	0.815932
	N267	N	0.524909	0.915032	0.816498
	N268	N	0.902372	0.183037	0.461837
	N269	N	0.076214	0.182859	0.534052
	N270	N	0.076833	0.822263	0.462391
	N271	N	0.902099	0.822555	0.532873
	N272	N	0.168814	0.466543	0.911025
	N273	N	0.167192	0.539187	0.083534
	N274	N	0.810894	0.466373	0.083676
	N275	N	0.811447	0.539550	0.912844
	O276	O	0.514135	0.484991	0.673713
	H277	H	0.524543	0.483274	0.685073
	H278	H	0.511061	0.488952	0.673563
	O279	O	0.703200	0.589602	0.678346
	H280	H	0.705943	0.593834	0.706028
	H281	H	0.708925	0.627429	0.678388
	O282	O	0.595158	0.302586	0.604302
	H283	H	0.601027	0.303177	0.597043
	H284	H	0.584184	0.305097	0.590862
	O285	O	0.987982	1.136787	0.074025
	H286	H	0.982255	1.126320	0.065397
	H287	H	0.997783	1.139668	0.081873
	O288	O	0.458725	0.316843	0.527757
	H289	H	0.450993	0.326130	0.520798
	H290	H	0.461378	0.317315	0.506945
	O291	O	0.610047	0.689379	0.688617
	H292	H	0.572601	0.683493	0.691273
	H293	H	0.612262	0.701556	0.663276
	O294	O	0.961393	1.059371	1.163291
	H295	H	0.968745	1.060820	1.177459
	H296	H	0.967016	1.056232	1.159918
	O297	O	0.309131	0.302796	0.578050
	H298	H	0.296277	0.295336	0.574798
	H299	H	0.305052	0.314536	0.554584
	O300	O	0.271071	0.522828	0.280712
	H301	H	0.263543	0.523785	0.257306
	H302	H	0.273271	0.548753	0.273515
	O303	O	0.505515	0.545038	0.372667
	H304	H	0.518233	0.524042	0.364108
	H305	H	0.509223	0.552224	0.392756
	O306	O	0.095470	-0.137686	1.119058
	H307	H	0.080918	-0.145242	1.119901
	H308	H	0.106246	-0.125861	1.122645
	O309	O	0.916688	-0.122601	0.109659
	H310	H	0.919475	-0.110865	0.104204
	H311	H	0.918195	-0.129469	0.107178
	O312	O	1.164948	0.180459	0.061186
	H313	H	1.165467	0.197057	0.062636
	H314	H	1.151127	0.194354	0.042128
	O315	O	0.466457	0.364127	0.590166
	H316	H	0.485137	0.353750	0.592235
	H317	H	0.473799	0.365198	0.573319
	O318	O	0.128992	-0.077582	-0.184844
	H319	H	0.123621	-0.063252	-0.174694
	H320	H	0.146983	-0.082474	-0.198933
	O321	O	0.348128	0.459884	0.664010
	H322	H	0.353634	0.432812	0.660778
	H323	H	0.321662	0.461540	0.683607
	O324	O	0.862883	-0.022372	0.796122
	H325	H	0.851019	-0.020704	0.777830
	H326	H	0.853988	-0.004363	0.808142
	O327	O	0.648561	0.321955	0.331041
	H328	H	0.663538	0.337601	0.332012
	H329	H	0.626241	0.323038	0.328269
	O330	O	0.039113	0.893499	1.060378
	H331	H	0.031602	0.904317	1.059630
	H332	H	0.043755	0.889188	1.056786
	O333	O	0.095251	1.004941	-0.094750
	H334	H	0.088189	1.017457	-0.093371
	H335	H	0.095647	0.999486	-0.086640
	O336	O	1.127640	0.928918	-0.010127
	H337	H	1.123109	0.923230	-0.012549
	H338	H	1.133022	0.930532	-0.000238
	O339	O	-0.300426	1.459722	1.292489
	H340	H	-0.271499	1.468153	1.280465
	H341	H	-0.297636	1.459219	1.300707
	O342	O	0.523187	0.616691	0.683105
	H343	H	0.528221	0.625878	0.708681
	H344	H	0.510568	0.597970	0.668867
	O345	O	-0.595021	-0.336282	1.540474
	H346	H	-0.596182	-0.345932	1.529486
	H347	H	-0.599095	-0.331770	1.560284
	O348	O	0.640308	0.567086	0.417007
	H349	H	0.643209	0.568015	0.418480
	H350	H	0.646371	0.554403	0.422855
	O351	O	0.860549	0.946599	0.085757
	H352	H	0.866131	0.935336	0.094045
	H353	H	0.870663	0.953752	0.092755
	O354	O	0.810976	0.974563	1.108849
	H355	H	0.815418	0.966631	1.119210
	H356	H	0.817731	0.975999	1.104721
	O357	O	0.193770	0.049889	0.203326
	H358	H	0.202750	0.056610	0.208549
	H359	H	0.193892	0.044249	0.205431
	O360	O	1.010733	-0.001126	-0.103956
	H361	H	1.022431	-0.011356	-0.102049
	H362	H	1.013230	0.010380	-0.098149
	O363	O	1.547231	-0.683013	0.326407
	H364	H	1.548549	-0.691992	0.319460
	H365	H	1.535298	-0.680869	0.311196
	O366	O	0.326080	0.657806	1.314337
	H367	H	0.365030	0.672404	1.303392
	H368	H	0.326575	0.637994	1.331374
	O369	O	0.832024	-0.032238	1.074671
	H370	H	0.847713	-0.035344	1.078154
	H371	H	0.828309	-0.037957	1.057111
	O372	O	0.358775	0.373882	0.495537
	H373	H	0.381385	0.380987	0.489534
	H374	H	0.354397	0.372809	0.475614
	O375	O	-0.015249	0.028675	0.920290
	H376	H	-0.016807	0.031889	0.920061
	H377	H	-0.008807	0.020278	0.919965
	O378	O	0.338873	0.422896	0.415671
	H379	H	0.333311	0.442306	0.415332
	H380	H	0.320989	0.442924	0.408516
	O381	O	-0.012359	0.926882	0.045321
	H382	H	-0.008765	0.918535	0.034666
	H383	H	-0.016338	0.938468	0.031754
	O384	O	0.275979	0.507708	0.644227
	H385	H	0.258424	0.496496	0.676944
	H386	H	0.280214	0.497556	0.640014
	O387	O	0.524692	0.641894	0.415707
	H388	H	0.509529	0.621881	0.415762
	H389	H	0.518474	0.641093	0.425095
	O390	O	1.082453	1.162463	0.137166
	H391	H	1.092446	1.134476	0.136377
	H392	H	1.093508	1.168388	0.125958
	O393	O	1.074674	0.165016	0.932120
	H394	H	1.058369	0.155381	0.938640
	H395	H	1.050155	0.165750	0.914974
	O396	O	1.193449	-0.203080	-0.043575
	H397	H	1.192200	-0.196442	-0.084869
	H398	H	1.212244	-0.223799	-0.041810
	O399	O	0.469740	0.463612	0.507374
	H400	H	0.462981	0.475977	0.509453
	H401	H	0.455291	0.459176	0.501216
	O402	O	0.962166	1.191254	-0.197633
	H403	H	0.941542	1.197656	-0.207465
	H404	H	0.947912	1.195642	-0.204093
	O405	O	0.405462	0.617659	0.673484
	H406	H	0.411076	0.602518	0.667867
	H407	H	0.418233	0.611639	0.670923
	O408	O	0.478536	0.717505	0.306327
	H409	H	0.491373	0.716863	0.309188
	H410	H	0.480531	0.732006	0.301248
	O411	O	0.899458	0.892484	0.936218
	H412	H	0.901630	0.891698	0.936444
	H413	H	0.899737	0.905460	0.930540
	O414	O	0.568983	0.510939	0.358882
	H415	H	0.565292	0.499587	0.363165
	H416	H	0.563279	0.517661	0.366161
	O417	O	-0.057420	0.927235	1.113316
	H418	H	-0.067253	0.923429	1.104313
	H419	H	-0.043495	0.922907	1.115796
	O420	O	0.152210	0.819001	0.816193
	H421	H	0.132574	0.812433	0.801761
	H422	H	0.155548	0.854366	0.811191
	O423	O	-0.209805	1.200397	-0.087052
	H424	H	-0.219158	1.203555	-0.064492
	H425	H	-0.190726	1.211562	-0.069299
	O426	O	0.654755	0.694111	0.465521
	H427	H	0.661544	0.698936	0.464470
	H428	H	0.659939	0.689688	0.454038
	O429	O	0.283549	0.710671	0.457401
	H430	H	0.258215	0.734230	0.450081
	H431	H	0.294855	0.703652	0.456501
	O432	O	0.608475	0.429477	0.572421
	H433	H	0.597640	0.422206	0.574825
	H434	H	0.607820	0.445810	0.583841
	O435	O	-0.211823	0.130446	-0.205905
	H436	H	-0.243253	0.130941	-0.229737
	H437	H	-0.214971	0.150435	-0.168563
	O438	O	-0.155128	1.078249	1.007972
	H439	H	-0.143531	1.071244	1.023382
	H440	H	-0.149911	1.079891	1.002385
	O441	O	0.657994	0.440212	0.543586
	H442	H	0.657988	0.447531	0.551042
	H443	H	0.661555	0.434724	0.544687
