data_Molecule from HDF5

_cell_length_a		16.350435
_cell_length_b		16.180352
_cell_length_c		16.476122
_cell_angle_alpha	90.327745
_cell_angle_beta	90.087452
_cell_angle_gamma	90.126524
_symmetry_space_group_name_H-M	'P 1'
_symmetry_Int_Tables_number		1

loop_
	_symmetry_equiv_pos_as_xyz
	x,y,z

loop_
	_atom_site_label
	_atom_site_type_symbol
	_atom_site_fract_x
	_atom_site_fract_y
	_atom_site_fract_z
	H0	H	0.399491	0.826905	0.714737
	H1	H	0.606558	0.151607	0.716705
	H2	H	0.604826	0.826328	0.275252
	H3	H	0.399438	0.150941	0.281021
	H4	H	0.720300	0.382484	0.837656
	H5	H	0.724313	0.596304	0.153317
	H6	H	0.280836	0.591325	0.836979
	H7	H	0.280054	0.385313	0.156125
	H8	H	0.838758	0.702602	0.396143
	H9	H	0.161827	0.704161	0.598119
	H10	H	0.838327	0.270450	0.593475
	H11	H	0.161947	0.268650	0.394672
	H12	H	0.841385	0.376350	0.716756
	H13	H	0.160166	0.589131	0.715338
	H14	H	0.841928	0.593087	0.273597
	H15	H	0.160406	0.380791	0.274950
	H16	H	0.402461	0.703079	0.835094
	H17	H	0.604757	0.708532	0.155297
	H18	H	0.601158	0.270021	0.837463
	H19	H	0.400466	0.273451	0.158374
	H20	H	0.717557	0.824744	0.393937
	H21	H	0.720538	0.150399	0.598679
	H22	H	0.285590	0.824381	0.596186
	H23	H	0.285293	0.150998	0.397963
	H24	H	0.897185	0.325768	0.212611
	H25	H	0.106914	0.648628	0.217361
	H26	H	0.103330	0.323227	0.777073
	H27	H	0.896634	0.647490	0.775186
	H28	H	0.219328	0.881991	0.336485
	H29	H	0.220690	0.092170	0.656224
	H30	H	0.779774	0.090806	0.337975
	H31	H	0.778023	0.882059	0.655265
	H32	H	0.338231	0.202850	0.899750
	H33	H	0.662593	0.205704	0.097977
	H34	H	0.340105	0.771089	0.096333
	H35	H	0.661839	0.770263	0.893131
	H36	H	0.340650	0.883792	0.214146
	H37	H	0.659740	0.096573	0.219697
	H38	H	0.341883	0.095772	0.776400
	H39	H	0.660246	0.884197	0.775518
	H40	H	0.897961	0.204198	0.336582
	H41	H	0.101795	0.206438	0.657080
	H42	H	0.100147	0.767903	0.336252
	H43	H	0.896962	0.768722	0.656444
	H44	H	0.218530	0.323962	0.894623
	H45	H	0.217791	0.650758	0.098009
	H46	H	0.781968	0.326379	0.096507
	H47	H	0.783316	0.650019	0.893240
	H48	H	0.410007	0.104952	0.586861
	H49	H	0.589486	0.873410	0.588732
	H50	H	0.581243	0.099086	0.410639
	H51	H	0.406016	0.870543	0.405376
	H52	H	0.587933	0.395972	0.110395
	H53	H	0.588666	0.580365	0.883305
	H54	H	0.407174	0.582466	0.112146
	H55	H	0.412816	0.390464	0.882800
	H56	H	0.115094	0.575088	0.403228
	H57	H	0.886704	0.576869	0.582452
	H58	H	0.113824	0.404927	0.591637
	H59	H	0.885999	0.398864	0.399617
	H60	H	0.118319	0.390719	0.590805
	H61	H	0.886779	0.570422	0.588000
	H62	H	0.114762	0.578427	0.408533
	H63	H	0.884847	0.392487	0.403333
	H64	H	0.408387	0.575638	0.109947
	H65	H	0.595251	0.579380	0.879928
	H66	H	0.598524	0.399091	0.112417
	H67	H	0.401936	0.396947	0.880815
	H68	H	0.597998	0.103270	0.414285
	H69	H	0.585139	0.874313	0.586664
	H70	H	0.410073	0.104544	0.588398
	H71	H	0.410914	0.869605	0.398737
	H72	H	0.918493	0.603520	0.090371
	H73	H	0.095201	0.369251	0.089075
	H74	H	0.092742	0.601880	0.908378
	H75	H	0.911135	0.372205	0.908789
	H76	H	0.089838	0.896724	0.608626
	H77	H	0.094536	0.083126	0.379788
	H78	H	0.911193	0.084320	0.612584
	H79	H	0.908333	0.893162	0.381716
	H80	H	0.618596	0.083709	0.901171
	H81	H	0.385644	0.075642	0.093450
	H82	H	0.615279	0.903273	0.086911
	H83	H	0.383527	0.895151	0.899606
	H84	H	0.615488	0.899770	0.088010
	H85	H	0.383079	0.084627	0.091736
	H86	H	0.614647	0.080881	0.913397
	H87	H	0.387342	0.894685	0.910591
	H88	H	0.904687	0.072463	0.610361
	H89	H	0.097511	0.072275	0.383118
	H90	H	0.094841	0.893032	0.612762
	H91	H	0.906511	0.897509	0.382944
	H92	H	0.092696	0.603550	0.900146
	H93	H	0.084164	0.373760	0.088146
	H94	H	0.915430	0.601008	0.079593
	H95	H	0.906697	0.370588	0.905355
	H96	H	0.411858	0.103848	0.587763
	H97	H	0.589344	0.874824	0.584081
	H98	H	0.590933	0.106510	0.398295
	H99	H	0.413873	0.873000	0.405829
	H100	H	0.590760	0.406385	0.108751
	H101	H	0.591587	0.573822	0.884121
	H102	H	0.413525	0.580814	0.109290
	H103	H	0.411716	0.402368	0.886304
	H104	H	0.113141	0.572305	0.408197
	H105	H	0.883929	0.578028	0.590141
	H106	H	0.112590	0.397148	0.579086
	H107	H	0.887702	0.398480	0.406839
	H108	H	0.907686	0.605496	0.087043
	H109	H	0.091256	0.373958	0.078664
	H110	H	0.086053	0.600040	0.904254
	H111	H	0.911507	0.371140	0.902596
	H112	H	0.096306	0.899567	0.610446
	H113	H	0.086643	0.075653	0.385238
	H114	H	0.917023	0.073025	0.607012
	H115	H	0.911043	0.896812	0.384274
	H116	H	0.613727	0.071427	0.904233
	H117	H	0.387515	0.079217	0.084881
	H118	H	0.614710	0.900710	0.084798
	H119	H	0.387973	0.904826	0.904798
	C120	C	0.380218	-0.002881	0.617903
	C121	C	0.621224	0.980981	0.618111
	C122	C	0.621372	-0.003974	0.375728
	C123	C	0.380053	0.978923	0.374932
	C124	C	0.622248	0.368013	0.004971
	C125	C	0.623942	0.610725	0.986888
	C126	C	0.379204	0.609882	0.004712
	C127	C	0.378605	0.366717	0.989014
	C128	C	0.008832	0.607308	0.375170
	C129	C	0.991523	0.607208	0.618167
	C130	C	0.008743	0.365049	0.616774
	C131	C	0.992297	0.364865	0.373353
	C132	C	0.881256	0.496732	0.116272
	C133	C	0.122339	0.478877	0.117274
	C134	C	0.121274	0.494228	0.874251
	C135	C	0.878903	0.477967	0.873959
	C136	C	0.122692	0.865137	0.504728
	C137	C	0.122974	0.109033	0.488214
	C138	C	0.879634	0.107506	0.504792
	C139	C	0.877292	0.864415	0.488165
	C140	C	0.509636	0.110362	0.876086
	C141	C	0.491912	0.110950	0.119990
	C142	C	0.509572	0.868345	0.117378
	C143	C	0.492549	0.867441	0.874523
	C144	C	0.380190	0.875058	0.675494
	C145	C	0.624194	0.102762	0.676902
	C146	C	0.622940	0.874511	0.315642
	C147	C	0.380210	0.102021	0.319310
	C148	C	0.680409	0.365037	0.885298
	C149	C	0.683959	0.613906	0.106160
	C150	C	0.321051	0.609588	0.884506
	C151	C	0.320136	0.366946	0.108755
	C152	C	0.887595	0.664855	0.375580
	C153	C	0.112923	0.665826	0.618260
	C154	C	0.887181	0.307643	0.614622
	C155	C	0.113340	0.306861	0.374423
	C156	C	0.888821	0.360906	0.675661
	C157	C	0.112374	0.608035	0.675961
	C158	C	0.889148	0.610409	0.314607
	C159	C	0.112734	0.362632	0.314638
	C160	C	0.381475	0.665200	0.883468
	C161	C	0.624348	0.669880	0.106995
	C162	C	0.621219	0.308740	0.885249
	C163	C	0.379468	0.310690	0.109802
	C164	C	0.678873	0.873425	0.374975
	C165	C	0.681126	0.102259	0.618370
	C166	C	0.323995	0.873668	0.616358
	C167	C	0.323254	0.101936	0.377328
	C168	C	0.878949	0.374346	0.173718
	C169	C	0.124743	0.600438	0.177189
	C170	C	0.122345	0.372134	0.816145
	C171	C	0.878064	0.599481	0.814962
	C172	C	0.180160	0.863527	0.384282
	C173	C	0.181578	0.110949	0.608296
	C174	C	0.819679	0.109197	0.385468
	C175	C	0.818288	0.863722	0.607791
	C176	C	0.387502	0.166429	0.878295
	C177	C	0.613643	0.168537	0.119034
	C178	C	0.388663	0.809447	0.116490
	C179	C	0.613567	0.809149	0.874017
	C180	C	0.388872	0.865917	0.175098
	C181	C	0.612352	0.113692	0.179242
	C182	C	0.389240	0.112885	0.817152
	C183	C	0.612750	0.866068	0.815670
	C184	C	0.878579	0.165570	0.384597
	C185	C	0.122232	0.167649	0.608887
	C186	C	0.120587	0.806868	0.384181
	C187	C	0.877288	0.806895	0.608423
	C188	C	0.179695	0.372471	0.874707
	C189	C	0.179906	0.601561	0.117835
	C190	C	0.821583	0.374689	0.116235
	C191	C	0.821547	0.600785	0.873411
	C192	C	0.403757	0.082337	0.594490
	C193	C	0.595400	0.896086	0.593493
	C194	C	0.597122	0.080690	0.400473
	C195	C	0.403386	0.893365	0.397000
	C196	C	0.598998	0.393249	0.088800
	C197	C	0.598996	0.585330	0.903844
	C198	C	0.402732	0.586547	0.088677
	C199	C	0.402117	0.389984	0.904989
	C200	C	0.092557	0.582338	0.399488
	C201	C	0.907377	0.582268	0.593878
	C202	C	0.093123	0.390346	0.593704
	C203	C	0.908096	0.389384	0.396510
	C204	C	0.906622	0.581205	0.092552
	C205	C	0.097368	0.394092	0.092517
	C206	C	0.097252	0.579622	0.897598
	C207	C	0.902793	0.393318	0.898404
	C208	C	0.100314	0.889493	0.588651
	C209	C	0.099657	0.084274	0.404690
	C210	C	0.903918	0.083619	0.588282
	C211	C	0.901624	0.888728	0.404697
	C212	C	0.593719	0.086019	0.899599
	C213	C	0.407474	0.086684	0.096840
	C214	C	0.593430	0.893795	0.093676
	C215	C	0.408341	0.891362	0.898222
	Zn216	Zn	0.500907	-0.010061	0.747041
	Zn217	Zn	0.500980	-0.011330	0.246670
	Zn218	Zn	0.752446	0.488650	-0.003930
	Zn219	Zn	0.249518	0.488006	-0.003646
	Zn220	Zn	-0.000035	0.735913	0.496841
	Zn221	Zn	0.000254	0.237136	0.495931
	Zn222	Zn	-0.000172	0.485099	0.745926
	Zn223	Zn	0.001405	0.487555	0.244807
	Zn224	Zn	0.501249	0.739260	-0.004231
	Zn225	Zn	0.500773	0.238218	-0.001861
	Zn226	Zn	0.749407	-0.012599	0.496625
	Zn227	Zn	0.252359	-0.012992	0.496462
	N228	N	0.414037	0.952909	0.676757
	N229	N	0.587829	0.026139	0.676705
	N230	N	0.587964	0.951698	0.315868
	N231	N	0.414647	0.024481	0.317419
	N232	N	0.681095	0.401356	0.960839
	N233	N	0.683850	0.577923	0.030561
	N234	N	0.319414	0.576022	0.961056
	N235	N	0.319502	0.400902	0.032547
	N236	N	0.962867	0.662960	0.412451
	N237	N	0.036636	0.665539	0.583156
	N238	N	0.962796	0.310409	0.578411
	N239	N	0.037406	0.308072	0.410030
	N240	N	0.965401	0.395955	0.677011
	N241	N	0.035927	0.572583	0.676131
	N242	N	0.965495	0.575011	0.314456
	N243	N	0.036443	0.397867	0.313641
	N244	N	0.416667	0.665592	0.959188
	N245	N	0.587793	0.668194	0.031751
	N246	N	0.585723	0.310585	0.960761
	N247	N	0.415220	0.310462	0.034339
	N248	N	0.677920	0.949884	0.411523
	N249	N	0.679258	0.025345	0.582490
	N250	N	0.323695	0.950653	0.581565
	N251	N	0.322844	0.024297	0.410944
	N252	N	0.915163	0.451240	0.174064
	N253	N	0.089856	0.522949	0.177263
	N254	N	0.086826	0.448935	0.815997
	N255	N	0.912793	0.522129	0.814995
	N256	N	0.181569	0.899089	0.460321
	N257	N	0.182340	0.075166	0.532351
	N258	N	0.820326	0.073591	0.461062
	N259	N	0.818107	0.898590	0.531945
	N260	N	0.463418	0.165178	0.914212
	N261	N	0.537751	0.167100	0.083002
	N262	N	0.464745	0.810823	0.081356
	N263	N	0.537803	0.809744	0.909897
	N264	N	0.465228	0.901696	0.175884
	N265	N	0.535742	0.078702	0.180042
	N266	N	0.466129	0.078778	0.815516
	N267	N	0.536530	0.901581	0.815868
	N268	N	0.915357	0.164481	0.459610
	N269	N	0.086719	0.166700	0.533283
	N270	N	0.085652	0.807617	0.459959
	N271	N	0.913380	0.807379	0.533101
	N272	N	0.179239	0.449613	0.909962
	N273	N	0.178262	0.525170	0.081172
	N274	N	0.822794	0.451725	0.081334
	N275	N	0.821833	0.524302	0.909263
	O276	O	0.443984	0.312814	0.416539
	H277	H	0.447054	0.304147	0.415563
	H278	H	0.449874	0.335114	0.414184
	O279	O	0.542901	0.525728	0.663688
	H280	H	0.542988	0.522565	0.667078
	H281	H	0.545192	0.528945	0.652883
	O282	O	0.670915	0.666208	0.627214
	H283	H	0.664963	0.668850	0.630131
	H284	H	0.664678	0.654265	0.622738
	O285	O	0.860528	-0.084861	0.199749
	H286	H	0.876285	-0.084070	0.209834
	H287	H	0.856770	-0.092312	0.212125
	O288	O	0.115539	0.107306	1.119305
	H289	H	0.133386	0.103748	1.118171
	H290	H	0.112311	0.129654	1.119904
	O291	O	0.505542	0.323447	0.409219
	H292	H	0.505955	0.312551	0.421954
	H293	H	0.501125	0.320497	0.409543
	O294	O	0.528132	0.542781	0.506892
	H295	H	0.512190	0.541094	0.493345
	H296	H	0.544417	0.541998	0.492581
	O297	O	1.182234	0.892079	0.938660
	H298	H	1.180373	0.898503	0.955752
	H299	H	1.179735	0.891036	0.954904
	O300	O	-0.185927	0.014833	-0.199886
	H301	H	-0.181480	0.012852	-0.195668
	H302	H	-0.192386	0.019720	-0.208608
	O303	O	0.692813	0.519007	0.528795
	H304	H	0.675020	0.521928	0.535253
	H305	H	0.706911	0.520204	0.533491
	O306	O	1.006647	0.061664	-0.168656
	H307	H	1.000067	0.060354	-0.174860
	H308	H	0.987907	0.063771	-0.163191
	O309	O	-0.128956	0.091024	1.135854
	H310	H	-0.124234	0.085491	1.116039
	H311	H	-0.109875	0.103272	1.145215
	O312	O	0.948443	0.981358	-0.039612
	H313	H	0.957315	0.978975	-0.048807
	H314	H	0.947781	0.989714	-0.041997
	O315	O	-0.046800	0.153030	0.027575
	H316	H	-0.028591	0.165344	0.026206
	H317	H	-0.042223	0.136897	0.044101
	O318	O	0.487217	0.381238	0.629256
	H319	H	0.487569	0.381928	0.639716
	H320	H	0.499993	0.376990	0.636626
	O321	O	0.943696	-0.149110	0.875955
	H322	H	0.936321	-0.144103	0.864973
	H323	H	0.932238	-0.151332	0.886840
	O324	O	-0.071198	0.081166	0.952624
	H325	H	-0.066597	0.084405	0.942275
	H326	H	-0.063857	0.077872	0.953001
	O327	O	0.295253	0.304514	0.378960
	H328	H	0.295174	0.307862	0.379306
	H329	H	0.306338	0.304892	0.378391
	O330	O	0.619555	0.578296	0.681121
	H331	H	0.608512	0.608354	0.672105
	H332	H	0.639235	0.585854	0.705256
	O333	O	0.598727	1.396844	0.609148
	H334	H	0.583992	1.402809	0.612277
	H335	H	0.601148	1.390789	0.609331
	O336	O	0.349748	0.649702	0.486733
	H337	H	0.354729	0.632225	0.461882
	H338	H	0.329774	0.669230	0.481561
	O339	O	1.163530	0.057521	0.953577
	H340	H	1.171808	0.047706	0.968570
	H341	H	1.146549	0.062088	0.939520
	O342	O	0.171429	1.215313	0.973626
	H343	H	0.167691	1.194234	0.964406
	H344	H	0.165639	1.213244	0.974046
	O345	O	0.047379	1.177112	1.065828
	H346	H	0.056642	1.173850	1.054356
	H347	H	0.039060	1.194928	1.075115
	O348	O	0.485733	0.509976	0.626376
	H349	H	0.488669	0.503452	0.637758
	H350	H	0.485613	0.517852	0.617284
	O351	O	-0.059704	-0.064827	0.057378
	H352	H	-0.071236	-0.070758	0.064376
	H353	H	-0.045743	-0.057580	0.059427
	O354	O	0.931099	0.862679	0.176552
	H355	H	0.931092	0.859415	0.163170
	H356	H	0.956170	0.857776	0.168355
	O357	O	0.590650	1.501607	0.384849
	H358	H	0.582093	1.502300	0.385324
	H359	H	0.610896	1.497775	0.382903
	O360	O	0.566471	0.410927	0.417177
	H361	H	0.574443	0.405168	0.409745
	H362	H	0.567859	0.410919	0.427546
	O363	O	0.325561	0.619711	0.644089
	H364	H	0.333284	0.629723	0.637687
	H365	H	0.326382	0.612506	0.640796
	O366	O	1.404290	1.426299	0.334708
	H367	H	1.402580	1.426355	0.353321
	H368	H	1.420248	1.424089	0.330754
	O369	O	0.517582	0.678976	0.414862
	H370	H	0.520344	0.691331	0.409767
	H371	H	0.520615	0.670355	0.411440
	O372	O	0.541859	0.642451	0.333611
	H373	H	0.551569	0.643063	0.338304
	H374	H	0.546080	0.633697	0.335112
	O375	O	0.472214	0.335156	0.582308
	H376	H	0.459353	0.332311	0.583497
	H377	H	0.480135	0.331563	0.584706
	O378	O	0.525837	0.333265	0.237682
	H379	H	0.514962	0.325488	0.249104
	H380	H	0.524697	0.313162	0.248744
	O381	O	0.362931	0.475026	0.632816
	H382	H	0.367788	0.456201	0.631551
	H383	H	0.346555	0.471761	0.629295
	O384	O	0.097277	0.874499	1.050226
	H385	H	0.097946	0.883334	1.038334
	H386	H	0.103977	0.878878	1.056836
	O387	O	0.947644	0.801369	-0.070221
	H388	H	0.932822	0.814074	-0.081533
	H389	H	0.936842	0.802101	-0.077089
	O390	O	0.530692	0.484825	0.325375
	H391	H	0.524339	0.475535	0.336301
	H392	H	0.541961	0.475847	0.325145
	O393	O	1.416116	0.471045	1.473648
	H394	H	1.427498	0.470348	1.466335
	H395	H	1.398497	0.472013	1.468583
	O396	O	0.178870	0.941434	0.794374
	H397	H	0.190472	0.936661	0.786971
	H398	H	0.184486	0.938812	0.787036
	O399	O	0.693349	0.530680	0.461827
	H400	H	0.696724	0.534509	0.480702
	H401	H	0.708982	0.536297	0.462866
	O402	O	0.992136	-0.136078	0.834779
	H403	H	1.005540	-0.144557	0.833701
	H404	H	1.002180	-0.147901	0.827922
	O405	O	0.181036	-0.198293	-0.108103
	H406	H	0.188488	-0.204196	-0.135814
	H407	H	0.197151	-0.210127	-0.080285
	O408	O	0.327078	1.653741	1.352694
	H409	H	0.336500	1.646256	1.335347
	H410	H	0.340732	1.635694	1.353538
	O411	O	0.938216	0.889936	0.061053
	H412	H	0.939263	0.888285	0.067193
	H413	H	0.930074	0.880387	0.054588
	O414	O	-0.176957	0.029389	0.931463
	H415	H	-0.177943	0.030849	0.947891
	H416	H	-0.185070	0.010023	0.947906
	O417	O	0.560626	0.351137	0.434374
	H418	H	0.568883	0.356912	0.440320
	H419	H	0.568986	0.352209	0.427550
	O420	O	0.115232	1.072157	0.148219
	H421	H	0.112265	1.077034	0.159967
	H422	H	0.110353	1.064085	0.153469
	O423	O	0.897735	-0.034712	-0.011693
	H424	H	0.918181	-0.034799	-0.014039
	H425	H	0.901326	-0.041199	-0.008208
	O426	O	0.105593	-0.096491	1.150804
	H427	H	0.095304	-0.099057	1.147273
	H428	H	0.097304	-0.102285	1.148814
	O429	O	0.021292	1.108151	-0.134541
	H430	H	0.020289	1.100701	-0.146887
	H431	H	0.009363	1.105293	-0.121786
