data_Molecule from HDF5

_cell_length_a		16.378223
_cell_length_b		16.107109
_cell_length_c		16.186923
_cell_angle_alpha	90.193172
_cell_angle_beta	90.069056
_cell_angle_gamma	89.755576
_symmetry_space_group_name_H-M	'P 1'
_symmetry_Int_Tables_number		1

loop_
	_symmetry_equiv_pos_as_xyz
	x,y,z

loop_
	_atom_site_label
	_atom_site_type_symbol
	_atom_site_fract_x
	_atom_site_fract_y
	_atom_site_fract_z
	H0	H	0.406898	0.832048	0.709607
	H1	H	0.598175	0.163889	0.712372
	H2	H	0.600775	0.832004	0.287184
	H3	H	0.404186	0.163534	0.288597
	H4	H	0.718096	0.395764	0.835019
	H5	H	0.718067	0.598140	0.162126
	H6	H	0.284835	0.600405	0.836712
	H7	H	0.286618	0.397449	0.163179
	H8	H	0.837523	0.711789	0.402707
	H9	H	0.165500	0.710436	0.597298
	H10	H	0.837296	0.285909	0.596049
	H11	H	0.164838	0.282021	0.402626
	H12	H	0.838201	0.402061	0.713853
	H13	H	0.164533	0.596375	0.715054
	H14	H	0.838365	0.597267	0.283000
	H15	H	0.164130	0.395663	0.283392
	H16	H	0.405163	0.709465	0.833708
	H17	H	0.599365	0.710359	0.164012
	H18	H	0.599718	0.282793	0.833922
	H19	H	0.407426	0.286623	0.164881
	H20	H	0.717896	0.834156	0.398261
	H21	H	0.715779	0.162978	0.599854
	H22	H	0.288154	0.832930	0.600843
	H23	H	0.285075	0.161259	0.399707
	H24	H	0.905769	0.331470	0.210515
	H25	H	0.099171	0.663382	0.213508
	H26	H	0.099853	0.333045	0.786896
	H27	H	0.905410	0.663558	0.789963
	H28	H	0.219798	0.893178	0.336689
	H29	H	0.215963	0.097070	0.664003
	H30	H	0.784339	0.099453	0.336294
	H31	H	0.786453	0.899423	0.663399
	H32	H	0.338822	0.211512	0.901914
	H33	H	0.666117	0.210039	0.096999
	H34	H	0.339180	0.784846	0.095725
	H35	H	0.665398	0.782820	0.900757
	H36	H	0.339964	0.898207	0.214180
	H37	H	0.664371	0.098245	0.217434
	H38	H	0.339091	0.097598	0.784168
	H39	H	0.664504	0.898225	0.783012
	H40	H	0.903906	0.209196	0.333688
	H41	H	0.095999	0.208559	0.665531
	H42	H	0.097983	0.784139	0.334737
	H43	H	0.906676	0.788476	0.666320
	H44	H	0.218184	0.334982	0.898353
	H45	H	0.216378	0.663051	0.101096
	H46	H	0.787329	0.332549	0.099476
	H47	H	0.785774	0.661619	0.898147
	H48	H	0.410837	0.117038	0.597961
	H49	H	0.595103	0.882220	0.584243
	H50	H	0.591672	0.115989	0.405495
	H51	H	0.411098	0.878547	0.403812
	H52	H	0.594925	0.412090	0.114015
	H53	H	0.592624	0.596361	0.879841
	H54	H	0.407105	0.588289	0.117497
	H55	H	0.402140	0.405844	0.879995
	H56	H	0.116659	0.593120	0.411051
	H57	H	0.884270	0.591488	0.599012
	H58	H	0.118113	0.404886	0.595632
	H59	H	0.887073	0.406221	0.409397
	H60	H	0.118160	0.401707	0.593525
	H61	H	0.884804	0.596898	0.594961
	H62	H	0.114757	0.584267	0.406613
	H63	H	0.885187	0.406984	0.400953
	H64	H	0.411682	0.590602	0.116030
	H65	H	0.603950	0.587212	0.880050
	H66	H	0.591653	0.400863	0.116734
	H67	H	0.412343	0.412118	0.884800
	H68	H	0.592092	0.114434	0.411085
	H69	H	0.601404	0.877316	0.591420
	H70	H	0.412410	0.112395	0.585787
	H71	H	0.411614	0.880443	0.410456
	H72	H	0.908396	0.618100	0.100496
	H73	H	0.090592	0.381839	0.089010
	H74	H	0.101403	0.621004	0.902875
	H75	H	0.916759	0.380521	0.905674
	H76	H	0.088483	0.910742	0.613334
	H77	H	0.094509	0.089084	0.382315
	H78	H	0.897554	0.089938	0.619418
	H79	H	0.907650	0.907319	0.382725
	H80	H	0.618528	0.088632	0.904560
	H81	H	0.383351	0.100015	0.094935
	H82	H	0.617317	0.906416	0.091195
	H83	H	0.385078	0.902436	0.903286
	H84	H	0.619051	0.905220	0.096334
	H85	H	0.388347	0.089683	0.087586
	H86	H	0.618444	0.090249	0.905375
	H87	H	0.386340	0.904094	0.907169
	H88	H	0.912421	0.083522	0.613522
	H89	H	0.096229	0.087358	0.381436
	H90	H	0.095691	0.894471	0.620943
	H91	H	0.910147	0.906235	0.383282
	H92	H	0.088107	0.616045	0.904161
	H93	H	0.100158	0.380720	0.086077
	H94	H	0.917937	0.611852	0.086712
	H95	H	0.905303	0.379791	0.913417
	H96	H	0.400851	0.117901	0.589847
	H97	H	0.592075	0.880328	0.595344
	H98	H	0.597010	0.116631	0.407938
	H99	H	0.406044	0.878249	0.408163
	H100	H	0.603187	0.404642	0.118271
	H101	H	0.590690	0.582580	0.884708
	H102	H	0.408001	0.593258	0.118148
	H103	H	0.413165	0.399270	0.881555
	H104	H	0.118771	0.591765	0.401674
	H105	H	0.886455	0.590736	0.592880
	H106	H	0.116531	0.404891	0.592358
	H107	H	0.884020	0.399245	0.404834
	H108	H	0.900262	0.615660	0.084512
	H109	H	0.097824	0.378157	0.095495
	H110	H	0.096010	0.614801	0.915534
	H111	H	0.904844	0.375824	0.899463
	H112	H	0.106117	0.910180	0.619089
	H113	H	0.094084	0.086923	0.383195
	H114	H	0.911179	0.100642	0.619353
	H115	H	0.907986	0.904696	0.380895
	H116	H	0.617655	0.089029	0.906348
	H117	H	0.385231	0.087035	0.100505
	H118	H	0.619755	0.900877	0.092513
	H119	H	0.386169	0.906809	0.903447
	C120	C	0.380638	0.006574	0.619933
	C121	C	0.623685	0.989389	0.620063
	C122	C	0.622935	0.006787	0.378766
	C123	C	0.380316	0.988168	0.378378
	C124	C	0.624464	0.375885	0.007813
	C125	C	0.624019	0.618189	0.990142
	C126	C	0.380504	0.619668	0.008062
	C127	C	0.381004	0.377023	0.990804
	C128	C	0.008994	0.619260	0.377690
	C129	C	0.993137	0.620755	0.623088
	C130	C	0.009629	0.376317	0.621641
	C131	C	0.992989	0.374968	0.377274
	C132	C	0.881128	0.505930	0.119238
	C133	C	0.124127	0.489575	0.120641
	C134	C	0.123459	0.507802	0.878794
	C135	C	0.880312	0.488132	0.878204
	C136	C	0.124601	0.875453	0.508801
	C137	C	0.122581	0.117090	0.491459
	C138	C	0.878999	0.119686	0.508353
	C139	C	0.880402	0.877605	0.491260
	C140	C	0.510203	0.118844	0.877214
	C141	C	0.493681	0.119873	0.122220
	C142	C	0.511194	0.875656	0.121390
	C143	C	0.493651	0.875331	0.876184
	C144	C	0.385031	0.881684	0.673571
	C145	C	0.619482	0.114154	0.675107
	C146	C	0.621399	0.881878	0.323964
	C147	C	0.382787	0.113295	0.324535
	C148	C	0.679557	0.376357	0.883748
	C149	C	0.679654	0.617457	0.113544
	C150	C	0.323867	0.619153	0.885238
	C151	C	0.325283	0.378307	0.114284
	C152	C	0.886322	0.674192	0.381141
	C153	C	0.116394	0.673596	0.618743
	C154	C	0.886316	0.323053	0.617423
	C155	C	0.115955	0.319554	0.381097
	C156	C	0.886852	0.380503	0.676175
	C157	C	0.115980	0.616803	0.677212
	C158	C	0.886795	0.617195	0.321798
	C159	C	0.115647	0.376347	0.322012
	C160	C	0.383853	0.673471	0.883790
	C161	C	0.620786	0.673367	0.114464
	C162	C	0.620858	0.320218	0.883275
	C163	C	0.385093	0.322936	0.115101
	C164	C	0.679808	0.883080	0.379053
	C165	C	0.677818	0.113874	0.619026
	C166	C	0.326320	0.882086	0.619084
	C167	C	0.323784	0.112235	0.380012
	C168	C	0.884436	0.381094	0.173895
	C169	C	0.120360	0.613748	0.176286
	C170	C	0.120459	0.382592	0.824416
	C171	C	0.883657	0.613572	0.825600
	C172	C	0.180365	0.875184	0.385332
	C173	C	0.177426	0.116082	0.615263
	C174	C	0.823274	0.118366	0.384808
	C175	C	0.825032	0.879611	0.614724
	C176	C	0.387757	0.174064	0.880890
	C177	C	0.616822	0.173764	0.118698
	C178	C	0.388083	0.821822	0.117264
	C179	C	0.616376	0.820347	0.879468
	C180	C	0.388523	0.878305	0.176014
	C181	C	0.616174	0.117469	0.178188
	C182	C	0.387647	0.117525	0.822156
	C183	C	0.615936	0.877695	0.821034
	C184	C	0.882511	0.173160	0.383543
	C185	C	0.118085	0.171782	0.615863
	C186	C	0.120160	0.820609	0.384201
	C187	C	0.884646	0.824368	0.616269
	C188	C	0.179621	0.383833	0.879347
	C189	C	0.178632	0.613763	0.120049
	C190	C	0.825757	0.381651	0.118370
	C191	C	0.824511	0.612555	0.879728
	C192	C	0.401916	0.093468	0.597717
	C193	C	0.602500	0.902319	0.597387
	C194	C	0.600178	0.093309	0.401514
	C195	C	0.402970	0.901586	0.400656
	C196	C	0.602890	0.398923	0.093916
	C197	C	0.602104	0.595416	0.903756
	C198	C	0.402352	0.597321	0.094732
	C199	C	0.402648	0.399357	0.904318
	C200	C	0.094648	0.596361	0.399950
	C201	C	0.907236	0.599541	0.601807
	C202	C	0.095427	0.397600	0.600237
	C203	C	0.907494	0.397576	0.398638
	C204	C	0.902688	0.592668	0.097094
	C205	C	0.102508	0.402640	0.097136
	C206	C	0.101577	0.594903	0.901049
	C207	C	0.902499	0.401188	0.899765
	C208	C	0.103068	0.898266	0.595388
	C209	C	0.101475	0.094331	0.404781
	C210	C	0.900618	0.097761	0.595107
	C211	C	0.902220	0.899516	0.404644
	C212	C	0.596157	0.095952	0.898867
	C213	C	0.407846	0.098530	0.100718
	C214	C	0.596542	0.897501	0.099670
	C215	C	0.407923	0.897840	0.898101
	Zn216	Zn	0.501427	-0.002166	0.747179
	Zn217	Zn	0.502359	-0.002829	0.250993
	Zn218	Zn	0.753091	0.496869	-0.001436
	Zn219	Zn	0.252041	0.498636	-0.000503
	Zn220	Zn	0.001345	0.748996	0.500309
	Zn221	Zn	0.000742	0.245828	0.499595
	Zn222	Zn	0.002139	0.498604	0.751827
	Zn223	Zn	0.002270	0.497563	0.247752
	Zn224	Zn	0.502196	0.746718	-0.000781
	Zn225	Zn	0.502418	0.248152	-0.000751
	Zn226	Zn	0.751234	-0.001603	0.498907
	Zn227	Zn	0.252452	-0.003221	0.500112
	N228	N	0.418418	0.959895	0.674068
	N229	N	0.586433	0.035778	0.675784
	N230	N	0.586714	0.959800	0.323525
	N231	N	0.417056	0.035108	0.323205
	N232	N	0.682065	0.410286	0.961830
	N233	N	0.681540	0.583697	0.035347
	N234	N	0.321865	0.586247	0.963546
	N235	N	0.322849	0.411397	0.036000
	N236	N	0.963383	0.675476	0.415045
	N237	N	0.039042	0.676295	0.585750
	N238	N	0.963632	0.320470	0.584155
	N239	N	0.038697	0.318373	0.414499
	N240	N	0.964443	0.412942	0.678928
	N241	N	0.038327	0.584522	0.679888
	N242	N	0.964243	0.583765	0.319633
	N243	N	0.038374	0.410106	0.319469
	N244	N	0.418348	0.673916	0.961440
	N245	N	0.586812	0.673975	0.036701
	N246	N	0.587367	0.319707	0.961248
	N247	N	0.418837	0.321904	0.037431
	N248	N	0.680688	0.961681	0.412407
	N249	N	0.680617	0.035188	0.585794
	N250	N	0.323493	0.960800	0.586417
	N251	N	0.322003	0.033471	0.412655
	N252	N	0.918128	0.459290	0.174733
	N253	N	0.087460	0.535289	0.176827
	N254	N	0.086286	0.460803	0.823763
	N255	N	0.917871	0.535469	0.824582
	N256	N	0.183369	0.908298	0.463831
	N257	N	0.180259	0.082894	0.536837
	N258	N	0.821085	0.085694	0.463326
	N259	N	0.822432	0.911943	0.536201
	N260	N	0.465025	0.174827	0.914475
	N261	N	0.539869	0.175084	0.084476
	N262	N	0.465343	0.819992	0.083978
	N263	N	0.539314	0.818772	0.913200
	N264	N	0.465875	0.911262	0.178686
	N265	N	0.538563	0.084883	0.180647
	N266	N	0.464934	0.083756	0.819814
	N267	N	0.538559	0.911281	0.819045
	N268	N	0.916676	0.173827	0.461208
	N269	N	0.084490	0.172434	0.537888
	N270	N	0.086223	0.820499	0.461949
	N271	N	0.918209	0.822735	0.538234
	N272	N	0.181447	0.462454	0.912448
	N273	N	0.180999	0.535321	0.086308
	N274	N	0.823325	0.460291	0.085330
	N275	N	0.822306	0.533484	0.911786
	O276	O	1.006621	0.988448	-0.015452
	H277	H	1.011338	0.982252	-0.017571
	H278	H	1.009619	0.987043	-0.015552
	O279	O	-0.014004	-0.028147	0.043728
	H280	H	-0.007390	-0.028501	0.046585
	H281	H	-0.000892	-0.021979	0.039265
	O282	O	0.021884	-0.032087	0.994193
	H283	H	0.021495	-0.023688	1.005777
	H284	H	0.020527	-0.026078	0.994139
	O285	O	0.470772	0.506423	0.454258
	H286	H	0.470197	0.506508	0.461263
	H287	H	0.468299	0.499907	0.452480
	O288	O	0.431867	0.499035	0.514276
	H289	H	0.431944	0.494917	0.516209
	H290	H	0.434318	0.480443	0.517649
	O291	O	0.448681	0.480820	0.445864
	H292	H	0.447160	0.480789	0.440386
	H293	H	0.450189	0.486729	0.439862
	O294	O	-0.031472	0.018962	0.005982
	H295	H	-0.045258	0.022821	-0.007320
	H296	H	-0.028826	0.031885	0.010786
	O297	O	0.475740	0.478572	0.471212
	H298	H	0.477399	0.481999	0.469660
	H299	H	0.476140	0.480631	0.472281
	O300	O	0.047100	1.039182	1.069179
	H301	H	0.048277	1.030399	1.073143
	H302	H	0.041685	1.030119	1.072551
	O303	O	0.468951	0.489547	0.419436
	H304	H	0.461671	0.508687	0.420266
	H305	H	0.461131	0.492815	0.412581
	O306	O	0.052576	0.040994	1.095114
	H307	H	0.055371	0.057517	1.090917
	H308	H	0.058117	0.039499	1.108883
	O309	O	1.031846	1.064003	1.026497
	H310	H	1.034459	1.064180	1.021662
	H311	H	1.032888	1.073007	1.034375
	O312	O	0.505318	0.457218	0.482790
	H313	H	0.502101	0.446299	0.475904
	H314	H	0.512391	0.454932	0.481570
	O315	O	0.449006	0.533696	0.416686
	H316	H	0.453329	0.540129	0.418627
	H317	H	0.447484	0.542955	0.421015
	O318	O	0.003643	0.976391	0.085570
	H319	H	-0.000613	0.976007	0.088589
	H320	H	-0.003717	0.970845	0.085937
	O321	O	0.996959	0.987691	0.022558
	H322	H	0.992981	0.983289	0.023274
	H323	H	1.003824	0.979211	0.017685
