data_Molecule from HDF5

_cell_length_a		16.287676
_cell_length_b		16.118519
_cell_length_c		16.302277
_cell_angle_alpha	90.241748
_cell_angle_beta	90.165104
_cell_angle_gamma	90.067329
_symmetry_space_group_name_H-M	'P 1'
_symmetry_Int_Tables_number		1

loop_
	_symmetry_equiv_pos_as_xyz
	x,y,z

loop_
	_atom_site_label
	_atom_site_type_symbol
	_atom_site_fract_x
	_atom_site_fract_y
	_atom_site_fract_z
	H0	H	0.396983	0.835450	0.710631
	H1	H	0.597129	0.164576	0.712531
	H2	H	0.596328	0.835128	0.283760
	H3	H	0.399681	0.165539	0.283899
	H4	H	0.713742	0.398044	0.834721
	H5	H	0.714647	0.599922	0.161034
	H6	H	0.282431	0.597644	0.835196
	H7	H	0.283148	0.399656	0.161448
	H8	H	0.834532	0.712368	0.400149
	H9	H	0.162638	0.714438	0.597135
	H10	H	0.833868	0.287531	0.593236
	H11	H	0.163361	0.287606	0.403023
	H12	H	0.836057	0.399094	0.713351
	H13	H	0.161614	0.601681	0.715693
	H14	H	0.835543	0.599136	0.281483
	H15	H	0.162049	0.399242	0.282731
	H16	H	0.400542	0.711970	0.833705
	H17	H	0.596287	0.714302	0.161743
	H18	H	0.594841	0.285193	0.834534
	H19	H	0.402531	0.286596	0.162804
	H20	H	0.712218	0.835803	0.396721
	H21	H	0.711789	0.165647	0.597632
	H22	H	0.284301	0.835136	0.593586
	H23	H	0.284097	0.165454	0.399493
	H24	H	0.900533	0.335032	0.209145
	H25	H	0.097886	0.665005	0.212072
	H26	H	0.097097	0.335320	0.783503
	H27	H	0.900727	0.664547	0.784984
	H28	H	0.212665	0.899327	0.334650
	H29	H	0.214737	0.101186	0.660861
	H30	H	0.782213	0.099690	0.334834
	H31	H	0.781888	0.901169	0.660805
	H32	H	0.333904	0.211653	0.901778
	H33	H	0.662662	0.212847	0.095623
	H34	H	0.334289	0.787147	0.093368
	H35	H	0.663096	0.786254	0.900377
	H36	H	0.335278	0.899953	0.212221
	H37	H	0.660910	0.101579	0.215383
	H38	H	0.334754	0.099087	0.782777
	H39	H	0.661428	0.898547	0.780140
	H40	H	0.902397	0.211159	0.333126
	H41	H	0.095018	0.212580	0.662524
	H42	H	0.095679	0.784891	0.334009
	H43	H	0.900928	0.786729	0.662616
	H44	H	0.211553	0.334370	0.899491
	H45	H	0.212691	0.664770	0.097374
	H46	H	0.784808	0.335299	0.096127
	H47	H	0.784831	0.664557	0.899476
	H48	H	0.393979	0.121183	0.589643
	H49	H	0.583314	0.884583	0.589617
	H50	H	0.601234	0.120133	0.413374
	H51	H	0.404981	0.882736	0.404250
	H52	H	0.597534	0.400510	0.118271
	H53	H	0.591712	0.587175	0.882516
	H54	H	0.407340	0.587756	0.112466
	H55	H	0.405364	0.405441	0.881740
	H56	H	0.113994	0.593200	0.411030
	H57	H	0.882768	0.592138	0.591987
	H58	H	0.117573	0.401941	0.594511
	H59	H	0.877511	0.401484	0.392774
	H60	H	0.113516	0.406909	0.585604
	H61	H	0.882148	0.591606	0.591927
	H62	H	0.114649	0.585655	0.402176
	H63	H	0.883373	0.400529	0.413041
	H64	H	0.409406	0.597233	0.113999
	H65	H	0.588719	0.594465	0.882018
	H66	H	0.597252	0.415104	0.113580
	H67	H	0.402266	0.405404	0.881178
	H68	H	0.589214	0.122353	0.393387
	H69	H	0.591519	0.883425	0.581353
	H70	H	0.411924	0.119330	0.601601
	H71	H	0.404745	0.882319	0.403347
	H72	H	0.910105	0.614677	0.082334
	H73	H	0.096855	0.379034	0.092765
	H74	H	0.104837	0.621818	0.908355
	H75	H	0.905014	0.380911	0.902861
	H76	H	0.096062	0.919333	0.611812
	H77	H	0.089471	0.098969	0.379947
	H78	H	0.904918	0.091362	0.613605
	H79	H	0.899826	0.913525	0.381992
	H80	H	0.616236	0.098979	0.909173
	H81	H	0.376787	0.098904	0.100712
	H82	H	0.610719	0.916794	0.085841
	H83	H	0.382375	0.905712	0.904581
	H84	H	0.618083	0.909233	0.103101
	H85	H	0.383824	0.097103	0.080175
	H86	H	0.611401	0.083636	0.908346
	H87	H	0.382224	0.908188	0.901645
	H88	H	0.905371	0.095980	0.615090
	H89	H	0.098476	0.091127	0.379411
	H90	H	0.080598	0.905952	0.611384
	H91	H	0.911514	0.907109	0.384244
	H92	H	0.083593	0.619479	0.894932
	H93	H	0.087386	0.382101	0.094431
	H94	H	0.897532	0.621275	0.091184
	H95	H	0.906202	0.381371	0.905064
	H96	H	0.412099	0.113579	0.580674
	H97	H	0.594038	0.880260	0.592923
	H98	H	0.578863	0.112446	0.412149
	H99	H	0.404878	0.883013	0.403732
	H100	H	0.584415	0.406350	0.112431
	H101	H	0.596129	0.592595	0.880018
	H102	H	0.400580	0.594134	0.116494
	H103	H	0.404105	0.407888	0.882533
	H104	H	0.117673	0.596922	0.400976
	H105	H	0.882474	0.591514	0.591866
	H106	H	0.114450	0.412664	0.595217
	H107	H	0.885867	0.418683	0.402712
	H108	H	0.912337	0.618381	0.097814
	H109	H	0.091214	0.383159	0.085291
	H110	H	0.083875	0.611610	0.919110
	H111	H	0.904382	0.381311	0.905144
	H112	H	0.099003	0.899977	0.618459
	H113	H	0.087592	0.087285	0.383703
	H114	H	0.901490	0.093319	0.615633
	H115	H	0.901183	0.900315	0.379145
	H116	H	0.617401	0.091533	0.895097
	H117	H	0.384141	0.079704	0.093230
	H118	H	0.617332	0.896561	0.086952
	H119	H	0.381461	0.904643	0.901146
	C120	C	0.376956	0.008687	0.618159
	C121	C	0.618842	0.991862	0.618007
	C122	C	0.618679	0.009019	0.377000
	C123	C	0.376618	0.991843	0.375998
	C124	C	0.620414	0.378297	0.006636
	C125	C	0.620934	0.621193	0.989512
	C126	C	0.376784	0.621192	0.006446
	C127	C	0.376463	0.377650	0.989902
	C128	C	0.007217	0.620899	0.375998
	C129	C	0.990303	0.621591	0.620671
	C130	C	0.007278	0.378195	0.619761
	C131	C	0.990512	0.377485	0.375047
	C132	C	0.878056	0.508742	0.118169
	C133	C	0.120617	0.490732	0.119916
	C134	C	0.119447	0.508530	0.877749
	C135	C	0.876952	0.490643	0.876280
	C136	C	0.119708	0.878687	0.506046
	C137	C	0.120332	0.121411	0.489463
	C138	C	0.876012	0.121406	0.506322
	C139	C	0.875776	0.877932	0.489801
	C140	C	0.506524	0.120659	0.875903
	C141	C	0.489791	0.121343	0.119861
	C142	C	0.507105	0.878741	0.119183
	C143	C	0.490134	0.876945	0.874127
	C144	C	0.377938	0.884509	0.672492
	C145	C	0.617133	0.115576	0.674578
	C146	C	0.616741	0.884632	0.321303
	C147	C	0.379076	0.116029	0.321363
	C148	C	0.675656	0.378683	0.883674
	C149	C	0.676211	0.619971	0.112426
	C150	C	0.320695	0.618148	0.883750
	C151	C	0.321366	0.379401	0.112934
	C152	C	0.883824	0.675195	0.379445
	C153	C	0.113561	0.676907	0.618258
	C154	C	0.883164	0.324289	0.615281
	C155	C	0.113806	0.323493	0.380269
	C156	C	0.884344	0.379939	0.674737
	C157	C	0.112970	0.620735	0.677010
	C158	C	0.884306	0.619407	0.320090
	C159	C	0.113364	0.379387	0.320717
	C160	C	0.379254	0.674944	0.883003
	C161	C	0.617169	0.676595	0.112740
	C162	C	0.616231	0.323058	0.883176
	C163	C	0.380705	0.323254	0.113526
	C164	C	0.674477	0.885088	0.377575
	C165	C	0.674216	0.115994	0.617313
	C166	C	0.321664	0.884406	0.614613
	C167	C	0.321845	0.116164	0.378762
	C168	C	0.879986	0.384254	0.172200
	C169	C	0.118694	0.615338	0.175358
	C170	C	0.117489	0.384400	0.821748
	C171	C	0.880005	0.615239	0.822449
	C172	C	0.174532	0.879866	0.383171
	C173	C	0.175808	0.120050	0.612627
	C174	C	0.820559	0.119581	0.383387
	C175	C	0.820238	0.880546	0.612374
	C176	C	0.383158	0.174746	0.880075
	C177	C	0.613485	0.175976	0.116758
	C178	C	0.383333	0.824279	0.114773
	C179	C	0.613691	0.822865	0.878454
	C180	C	0.383844	0.880206	0.173880
	C181	C	0.612427	0.120865	0.176538
	C182	C	0.383574	0.118706	0.820940
	C183	C	0.612763	0.878779	0.818743
	C184	C	0.880150	0.175204	0.382643
	C185	C	0.116787	0.175956	0.613167
	C186	C	0.116337	0.823002	0.382922
	C187	C	0.879316	0.823554	0.613130
	C188	C	0.174507	0.384076	0.879045
	C189	C	0.175779	0.615218	0.118316
	C190	C	0.822551	0.384612	0.116212
	C191	C	0.822278	0.615083	0.879191
	C192	C	0.399376	0.095712	0.596796
	C193	C	0.596093	0.905275	0.594781
	C194	C	0.596286	0.095909	0.399524
	C195	C	0.398271	0.905020	0.397487
	C196	C	0.599324	0.400705	0.092450
	C197	C	0.598770	0.598272	0.903699
	C198	C	0.399180	0.599485	0.092099
	C199	C	0.397672	0.399889	0.904114
	C200	C	0.093298	0.598489	0.398092
	C201	C	0.904739	0.598580	0.598271
	C202	C	0.093055	0.400579	0.598191
	C203	C	0.904366	0.400286	0.396379
	C204	C	0.900181	0.595525	0.096677
	C205	C	0.098444	0.403943	0.097476
	C206	C	0.097245	0.595270	0.900716
	C207	C	0.898901	0.403703	0.897968
	C208	C	0.098200	0.901671	0.591782
	C209	C	0.098454	0.099097	0.403298
	C210	C	0.897555	0.099903	0.592625
	C211	C	0.897704	0.900144	0.404151
	C212	C	0.592739	0.098086	0.897847
	C213	C	0.403843	0.098727	0.097806
	C214	C	0.592994	0.900979	0.098276
	C215	C	0.404237	0.899582	0.895918
	Zn216	Zn	0.498034	-0.000328	0.745917
	Zn217	Zn	0.498258	0.000080	0.248481
	Zn218	Zn	0.749859	0.499455	-0.002297
	Zn219	Zn	0.247750	0.499265	-0.001286
	Zn220	Zn	-0.001243	0.749121	0.498351
	Zn221	Zn	-0.001936	0.249839	0.498096
	Zn222	Zn	-0.000928	0.499723	0.749136
	Zn223	Zn	-0.001514	0.499592	0.246173
	Zn224	Zn	0.498809	0.749938	-0.002698
	Zn225	Zn	0.498557	0.249277	-0.001599
	Zn226	Zn	0.746827	0.000607	0.497411
	Zn227	Zn	0.248693	0.000667	0.497410
	N228	N	0.411471	0.962823	0.674828
	N229	N	0.583492	0.037356	0.675113
	N230	N	0.582580	0.962642	0.320794
	N231	N	0.412208	0.037542	0.319325
	N232	N	0.678021	0.412796	0.961176
	N233	N	0.678561	0.586426	0.034858
	N234	N	0.319230	0.585368	0.961496
	N235	N	0.318959	0.412704	0.035429
	N236	N	0.961203	0.676084	0.413513
	N237	N	0.036279	0.677680	0.583920
	N238	N	0.960435	0.323194	0.581632
	N239	N	0.036408	0.322302	0.413397
	N240	N	0.962303	0.412779	0.677555
	N241	N	0.035439	0.586657	0.678334
	N242	N	0.962116	0.586032	0.317888
	N243	N	0.035468	0.412315	0.317467
	N244	N	0.413674	0.676954	0.960136
	N245	N	0.583456	0.677574	0.035117
	N246	N	0.582630	0.322479	0.960549
	N247	N	0.414260	0.322046	0.036111
	N248	N	0.675568	0.963367	0.411452
	N249	N	0.675213	0.038027	0.582682
	N250	N	0.321092	0.962706	0.581404
	N251	N	0.320090	0.037925	0.411983
	N252	N	0.913777	0.462472	0.173830
	N253	N	0.084907	0.537005	0.176275
	N254	N	0.084294	0.462790	0.820694
	N255	N	0.912990	0.536805	0.820309
	N256	N	0.176944	0.913723	0.460776
	N257	N	0.178182	0.087032	0.534597
	N258	N	0.817952	0.087176	0.461291
	N259	N	0.817866	0.913444	0.534690
	N260	N	0.460706	0.175971	0.913560
	N261	N	0.536296	0.176257	0.082067
	N262	N	0.460826	0.823191	0.081480
	N263	N	0.536210	0.821491	0.911970
	N264	N	0.461633	0.913572	0.176556
	N265	N	0.534730	0.087517	0.178397
	N266	N	0.461495	0.085588	0.818397
	N267	N	0.534837	0.911614	0.816085
	N268	N	0.914154	0.176344	0.460120
	N269	N	0.082773	0.176810	0.535701
	N270	N	0.082898	0.822226	0.460249
	N271	N	0.912995	0.821647	0.535725
	N272	N	0.175609	0.462222	0.913398
	N273	N	0.176833	0.537002	0.084379
	N274	N	0.821248	0.463008	0.083160
	N275	N	0.820078	0.536456	0.911679
	O276	O	0.570656	0.587182	0.560731
	H277	H	0.574296	0.584529	0.562076
	H278	H	0.569701	0.583002	0.556989
	O279	O	0.045018	-0.022368	-0.047814
	H280	H	0.035171	-0.030192	-0.047043
	H281	H	0.049534	-0.031742	-0.046422
	O282	O	0.518681	0.584438	0.557338
	H283	H	0.522577	0.578840	0.558695
	H284	H	0.522099	0.595431	0.560270
	O285	O	0.584700	0.512263	0.543057
	H286	H	0.582025	0.505425	0.541341
	H287	H	0.586998	0.522606	0.538620
	O288	O	1.031702	0.001651	-0.021519
	H289	H	1.039344	0.006145	-0.026040
	H290	H	1.031691	-0.011460	-0.021112
	O291	O	-0.444702	0.552630	-0.454712
	H292	H	-0.439227	0.554192	-0.450926
	H293	H	-0.441831	0.556840	-0.455945
	O294	O	0.554798	0.518220	0.553766
	H295	H	0.555890	0.517336	0.552662
	H296	H	0.549535	0.511822	0.556957
	O297	O	0.538298	1.576065	0.550400
	H298	H	0.530631	1.579657	0.549316
	H299	H	0.541386	1.572791	0.554673
	O300	O	1.056715	-0.037101	0.997720
	H301	H	1.056188	-0.031978	1.001857
	H302	H	1.060025	-0.033536	1.007285
	O303	O	0.529442	0.566577	0.529071
	H304	H	0.526225	0.568139	0.533119
	H305	H	0.530926	0.575930	0.532092
	O306	O	0.036794	1.011303	1.000581
	H307	H	0.041183	1.018215	0.995282
	H308	H	0.033836	1.018922	0.999414
	O309	O	0.583768	0.558355	0.522830
	H310	H	0.579392	0.558431	0.534295
	H311	H	0.590047	0.557564	0.524737
