data_Molecule from HDF5

_cell_length_a		16.157809
_cell_length_b		16.183081
_cell_length_c		16.237621
_cell_angle_alpha	89.744896
_cell_angle_beta	90.434231
_cell_angle_gamma	89.941691
_symmetry_space_group_name_H-M	'P 1'
_symmetry_Int_Tables_number		1

loop_
	_symmetry_equiv_pos_as_xyz
	x,y,z

loop_
	_atom_site_label
	_atom_site_type_symbol
	_atom_site_fract_x
	_atom_site_fract_y
	_atom_site_fract_z
	H0	H	0.396168	0.839060	0.723237
	H1	H	0.594334	0.168070	0.723983
	H2	H	0.592033	0.838714	0.296630
	H3	H	0.390865	0.167419	0.289884
	H4	H	0.704846	0.404463	0.844413
	H5	H	0.707422	0.600146	0.172057
	H6	H	0.275516	0.603610	0.844102
	H7	H	0.279643	0.403306	0.172577
	H8	H	0.828884	0.718528	0.407153
	H9	H	0.158800	0.716671	0.606177
	H10	H	0.829321	0.288574	0.606123
	H11	H	0.158865	0.289578	0.411000
	H12	H	0.828098	0.402998	0.720913
	H13	H	0.157375	0.603030	0.725038
	H14	H	0.828566	0.603421	0.293112
	H15	H	0.159388	0.406296	0.295716
	H16	H	0.393438	0.718486	0.843221
	H17	H	0.592423	0.714605	0.172827
	H18	H	0.590906	0.290400	0.844303
	H19	H	0.394456	0.286588	0.171583
	H20	H	0.705385	0.839036	0.412884
	H21	H	0.707866	0.168757	0.606870
	H22	H	0.280404	0.838707	0.606748
	H23	H	0.277361	0.168321	0.407752
	H24	H	0.893556	0.339747	0.224761
	H25	H	0.091335	0.669164	0.220892
	H26	H	0.090829	0.338468	0.795492
	H27	H	0.890365	0.666673	0.789884
	H28	H	0.206434	0.905463	0.344461
	H29	H	0.210442	0.104032	0.671174
	H30	H	0.776818	0.104083	0.344251
	H31	H	0.783211	0.905266	0.672656
	H32	H	0.329091	0.219252	0.906075
	H33	H	0.657816	0.215840	0.107059
	H34	H	0.328164	0.788130	0.106975
	H35	H	0.658142	0.789640	0.912407
	H36	H	0.327854	0.903386	0.222057
	H37	H	0.656798	0.103059	0.224919
	H38	H	0.329881	0.103603	0.790786
	H39	H	0.659140	0.905892	0.797926
	H40	H	0.892143	0.220233	0.344544
	H41	H	0.094792	0.217547	0.672344
	H42	H	0.090676	0.792248	0.343236
	H43	H	0.896596	0.788635	0.671007
	H44	H	0.205245	0.338561	0.910904
	H45	H	0.207039	0.668197	0.106541
	H46	H	0.780938	0.337482	0.105347
	H47	H	0.776496	0.667474	0.907272
	H48	H	0.412321	0.116282	0.595154
	H49	H	0.585995	0.888847	0.596521
	H50	H	0.576824	0.116162	0.425296
	H51	H	0.401002	0.889852	0.425711
	H52	H	0.592346	0.405756	0.128523
	H53	H	0.593161	0.610469	0.883986
	H54	H	0.404568	0.586536	0.120870
	H55	H	0.396324	0.408982	0.889608
	H56	H	0.112208	0.595687	0.411950
	H57	H	0.874946	0.601066	0.598888
	H58	H	0.112088	0.411371	0.604897
	H59	H	0.879473	0.418949	0.419223
	H60	H	0.111324	0.409078	0.599778
	H61	H	0.877253	0.594307	0.594983
	H62	H	0.113705	0.602427	0.413346
	H63	H	0.873258	0.412351	0.406226
	H64	H	0.406433	0.604714	0.125366
	H65	H	0.591671	0.581898	0.893035
	H66	H	0.587692	0.414339	0.125316
	H67	H	0.396926	0.415807	0.892150
	H68	H	0.597743	0.124770	0.417865
	H69	H	0.595864	0.883629	0.606154
	H70	H	0.391765	0.121794	0.593321
	H71	H	0.391305	0.883066	0.412232
	H72	H	0.904943	0.619638	0.101875
	H73	H	0.085427	0.385851	0.104536
	H74	H	0.089608	0.621321	0.921631
	H75	H	0.897553	0.385074	0.915632
	H76	H	0.078281	0.911314	0.622806
	H77	H	0.085338	0.096177	0.391187
	H78	H	0.901293	0.094747	0.625036
	H79	H	0.900870	0.905094	0.388821
	H80	H	0.609760	0.091542	0.919336
	H81	H	0.372879	0.096122	0.106087
	H82	H	0.613296	0.907859	0.111130
	H83	H	0.372621	0.902466	0.912663
	H84	H	0.611565	0.903124	0.099883
	H85	H	0.374868	0.100063	0.094033
	H86	H	0.613852	0.095999	0.910281
	H87	H	0.378558	0.914130	0.923528
	H88	H	0.902569	0.098411	0.626096
	H89	H	0.082750	0.097445	0.391017
	H90	H	0.089116	0.902495	0.628551
	H91	H	0.890324	0.913404	0.388083
	H92	H	0.084445	0.623394	0.907150
	H93	H	0.085486	0.385471	0.102753
	H94	H	0.896678	0.619953	0.094365
	H95	H	0.898594	0.384379	0.912394
	H96	H	0.401262	0.124616	0.611839
	H97	H	0.582028	0.885700	0.609546
	H98	H	0.580158	0.124406	0.401905
	H99	H	0.408448	0.886352	0.409461
	H100	H	0.582601	0.405320	0.126297
	H101	H	0.567446	0.599581	0.894403
	H102	H	0.389884	0.595633	0.128539
	H103	H	0.402324	0.411614	0.891779
	H104	H	0.111667	0.598129	0.418288
	H105	H	0.874344	0.593926	0.602980
	H106	H	0.109350	0.413657	0.601924
	H107	H	0.875580	0.403617	0.419300
	H108	H	0.895002	0.624163	0.104389
	H109	H	0.087001	0.385592	0.103512
	H110	H	0.074447	0.617366	0.917577
	H111	H	0.900838	0.385701	0.914881
	H112	H	0.092146	0.916065	0.625333
	H113	H	0.085049	0.099813	0.390133
	H114	H	0.899325	0.096810	0.625971
	H115	H	0.901679	0.917404	0.392604
	H116	H	0.611636	0.103128	0.919725
	H117	H	0.378398	0.087716	0.096593
	H118	H	0.608778	0.915368	0.101915
	H119	H	0.375435	0.918407	0.907511
	C120	C	0.372962	0.012318	0.629375
	C121	C	0.616323	0.995038	0.631585
	C122	C	0.613707	0.012761	0.387688
	C123	C	0.370418	0.995116	0.385884
	C124	C	0.614519	0.381346	0.017356
	C125	C	0.614069	0.624788	0.999302
	C126	C	0.370275	0.625442	0.016687
	C127	C	0.370924	0.382077	0.999448
	C128	C	0.002828	0.626717	0.385617
	C129	C	0.984792	0.625062	0.628891
	C130	C	0.002002	0.381962	0.629789
	C131	C	0.985300	0.382961	0.387035
	C132	C	0.870992	0.512014	0.128907
	C133	C	0.114602	0.495006	0.130626
	C134	C	0.112251	0.511881	0.887108
	C135	C	0.869348	0.493815	0.884853
	C136	C	0.114397	0.882588	0.516829
	C137	C	0.114491	0.125718	0.499293
	C138	C	0.871126	0.126130	0.517070
	C139	C	0.871092	0.882535	0.498332
	C140	C	0.502763	0.126077	0.886119
	C141	C	0.484213	0.123697	0.128672
	C142	C	0.501801	0.880501	0.131382
	C143	C	0.485007	0.882741	0.887413
	C144	C	0.375805	0.888197	0.685083
	C145	C	0.614120	0.119168	0.685723
	C146	C	0.611604	0.888412	0.333900
	C147	C	0.371357	0.118478	0.328791
	C148	C	0.667860	0.384415	0.893402
	C149	C	0.669716	0.620878	0.122928
	C150	C	0.314068	0.623847	0.892774
	C151	C	0.316657	0.383027	0.123194
	C152	C	0.878180	0.681099	0.387271
	C153	C	0.108831	0.679820	0.627218
	C154	C	0.878323	0.326134	0.626815
	C155	C	0.109830	0.327716	0.390697
	C156	C	0.877600	0.383364	0.683727
	C157	C	0.108204	0.622962	0.686099
	C158	C	0.878265	0.624070	0.330207
	C159	C	0.109813	0.385579	0.332927
	C160	C	0.372288	0.681167	0.892612
	C161	C	0.612285	0.677973	0.123342
	C162	C	0.611176	0.327534	0.893404
	C163	C	0.373786	0.325145	0.122919
	C164	C	0.668097	0.888316	0.391892
	C165	C	0.671037	0.119162	0.627954
	C166	C	0.317952	0.888225	0.627307
	C167	C	0.314778	0.118905	0.387432
	C168	C	0.873597	0.388473	0.185397
	C169	C	0.112176	0.619524	0.184154
	C170	C	0.110886	0.387858	0.832615
	C171	C	0.870812	0.617630	0.828606
	C172	C	0.168822	0.885389	0.393291
	C173	C	0.171561	0.123734	0.622613
	C174	C	0.814668	0.124225	0.393440
	C175	C	0.819111	0.884800	0.623072
	C176	C	0.378557	0.181212	0.886748
	C177	C	0.608344	0.178844	0.127281
	C178	C	0.377528	0.825644	0.127716
	C179	C	0.609232	0.827739	0.891417
	C180	C	0.377387	0.882978	0.185045
	C181	C	0.608021	0.122445	0.185756
	C182	C	0.379034	0.124018	0.829186
	C183	C	0.609573	0.885460	0.834626
	C184	C	0.872522	0.181827	0.393513
	C185	C	0.113981	0.180077	0.623097
	C186	C	0.111481	0.828825	0.392726
	C187	C	0.875459	0.826698	0.622271
	C188	C	0.167600	0.387858	0.890586
	C189	C	0.169542	0.618999	0.127167
	C190	C	0.817556	0.387462	0.126059
	C191	C	0.814190	0.617946	0.887041
	C192	C	0.395196	0.098721	0.606623
	C193	C	0.594409	0.908443	0.610356
	C194	C	0.591534	0.099473	0.408935
	C195	C	0.393481	0.908772	0.409172
	C196	C	0.593828	0.402214	0.104187
	C197	C	0.591016	0.603621	0.912909
	C198	C	0.393364	0.602468	0.102591
	C199	C	0.392324	0.405103	0.913560
	C200	C	0.089992	0.605198	0.407957
	C201	C	0.897831	0.602899	0.605608
	C202	C	0.088665	0.404693	0.608362
	C203	C	0.898694	0.405200	0.408608
	C204	C	0.892598	0.598680	0.106743
	C205	C	0.092429	0.408115	0.109713
	C206	C	0.089503	0.598279	0.909150
	C207	C	0.892284	0.407445	0.907612
	C208	C	0.092938	0.903986	0.603111
	C209	C	0.091374	0.104189	0.413242
	C210	C	0.894133	0.103340	0.603297
	C211	C	0.891548	0.905181	0.412147
	C212	C	0.589430	0.103466	0.909625
	C213	C	0.397872	0.101274	0.105688
	C214	C	0.588591	0.902407	0.110458
	C215	C	0.398047	0.905006	0.908521
	Zn216	Zn	0.494618	0.003935	0.759255
	Zn217	Zn	0.492965	0.003166	0.258264
	Zn218	Zn	0.741815	0.502647	0.007599
	Zn219	Zn	0.241576	0.503137	0.008560
	Zn220	Zn	-0.006281	0.754366	0.506640
	Zn221	Zn	-0.005993	0.254063	0.508750
	Zn222	Zn	-0.008015	0.502680	0.757791
	Zn223	Zn	-0.006498	0.504839	0.258399
	Zn224	Zn	0.493047	0.753872	0.008110
	Zn225	Zn	0.492950	0.253426	0.008238
	Zn226	Zn	0.742447	0.003691	0.508691
	Zn227	Zn	0.242311	0.003555	0.508446
	N228	N	0.409184	0.966410	0.686513
	N229	N	0.580922	0.041041	0.688211
	N230	N	0.578398	0.966765	0.331261
	N231	N	0.405111	0.040461	0.327832
	N232	N	0.669975	0.417074	0.971485
	N233	N	0.670902	0.588481	0.044670
	N234	N	0.312794	0.589980	0.970600
	N235	N	0.314726	0.417621	0.045671
	N236	N	0.956690	0.682918	0.420902
	N237	N	0.030814	0.681370	0.592554
	N238	N	0.956565	0.325375	0.593818
	N239	N	0.031315	0.325625	0.423228
	N240	N	0.955601	0.417257	0.685864
	N241	N	0.029785	0.589717	0.687171
	N242	N	0.956712	0.590956	0.329115
	N243	N	0.031516	0.419162	0.330590
	N244	N	0.406487	0.682486	0.970565
	N245	N	0.578154	0.680330	0.045446
	N246	N	0.578553	0.325583	0.971446
	N247	N	0.406843	0.324219	0.044978
	N248	N	0.669442	0.966561	0.424726
	N249	N	0.672380	0.040973	0.594945
	N250	N	0.316162	0.966315	0.593263
	N251	N	0.314070	0.041165	0.422272
	N252	N	0.906166	0.466920	0.187243
	N253	N	0.078635	0.541401	0.186373
	N254	N	0.076948	0.465937	0.830621
	N255	N	0.904177	0.539504	0.826964
	N256	N	0.170815	0.918038	0.471257
	N257	N	0.171775	0.090328	0.544973
	N258	N	0.813661	0.090143	0.471343
	N259	N	0.816103	0.918806	0.545187
	N260	N	0.456592	0.182682	0.921262
	N261	N	0.530465	0.179745	0.092344
	N262	N	0.455837	0.823781	0.094975
	N263	N	0.530771	0.826162	0.923572
	N264	N	0.455674	0.916237	0.187576
	N265	N	0.529874	0.088773	0.186597
	N266	N	0.457356	0.090448	0.829004
	N267	N	0.531176	0.918918	0.831961
	N268	N	0.906867	0.182994	0.471248
	N269	N	0.079382	0.181623	0.545462
	N270	N	0.078251	0.826990	0.470542
	N271	N	0.907032	0.825030	0.543874
	N272	N	0.168759	0.466023	0.923594
	N273	N	0.171251	0.540466	0.094772
	N274	N	0.815811	0.465305	0.091622
	N275	N	0.813249	0.539913	0.921331
	O276	O	-0.026281	-0.034858	-0.042521
	H277	H	-0.025183	-0.037644	-0.029472
	H278	H	-0.031498	-0.028834	-0.034210
	O279	O	0.552320	0.543821	0.620549
	H280	H	0.559325	0.553987	0.630776
	H281	H	0.560600	0.553350	0.614585
	O282	O	0.592655	0.515620	0.463631
	H283	H	0.588301	0.527195	0.465164
	H284	H	0.581432	0.514931	0.459633
	O285	O	0.900873	0.037265	1.065397
	H286	H	0.900193	0.036316	1.069178
	H287	H	0.897895	0.044699	1.062570
	O288	O	1.016429	0.051983	0.051181
	H289	H	1.017376	0.058923	0.049834
	H290	H	1.021846	0.043310	0.047065
	O291	O	0.549813	0.470923	0.506243
	H292	H	0.553796	0.477198	0.499296
	H293	H	0.546428	0.469133	0.501428
	O294	O	0.938632	0.008394	1.046748
	H295	H	0.926513	-0.003537	1.051943
	H296	H	0.935285	0.006482	1.044637
	O297	O	0.008236	0.002509	-0.011090
	H298	H	0.014038	-0.005401	-0.020225
	H299	H	0.013134	0.001944	-0.012060
	O300	O	0.776884	0.842120	0.851579
	H301	H	0.777642	0.844745	0.849008
	H302	H	0.789108	0.846295	0.848376
	O303	O	0.462601	0.538624	0.578239
	H304	H	0.454079	0.543784	0.584867
	H305	H	0.471284	0.545364	0.568222
	O306	O	1.066530	0.011322	-0.081516
	H307	H	1.061873	0.014554	-0.089232
	H308	H	1.076880	0.007463	-0.079377
	O309	O	0.018171	-0.083268	1.039690
	H310	H	0.016882	-0.076672	1.034620
	H311	H	0.022327	-0.087453	1.049556
	O312	O	1.495473	0.448832	0.502491
	H313	H	1.502532	0.451215	0.509924
	H314	H	1.493397	0.440572	0.501256
	O315	O	1.066941	-0.062849	0.056719
	H316	H	1.057961	-0.055411	0.045349
	H317	H	1.079641	-0.071277	0.060844
	O318	O	0.501650	0.608361	0.493746
	H319	H	0.507103	0.590720	0.489912
	H320	H	0.500112	0.604814	0.495796
	O321	O	-0.018084	1.039352	1.041460
	H322	H	-0.023360	1.039254	1.026784
	H323	H	-0.025875	1.034935	1.043020
	O324	O	1.053201	1.007580	-0.044564
	H325	H	1.042740	1.011882	-0.033867
	H326	H	1.055373	1.017102	-0.042217
	O327	O	0.526033	0.557792	0.460575
	H328	H	0.530815	0.556064	0.462917
	H329	H	0.520810	0.565246	0.458717
	O330	O	0.986187	0.991717	-0.087394
	H331	H	0.989816	0.999154	-0.087388
	H332	H	0.986508	0.987574	-0.085331
	O333	O	0.436536	0.540352	0.501423
	H334	H	0.439037	0.547468	0.500708
	H335	H	0.435632	0.545106	0.507698
	O336	O	0.516251	0.459689	0.482116
	H337	H	0.531152	0.449800	0.472649
	H338	H	0.504802	0.460299	0.482788
	O339	O	0.513390	0.500956	-0.437064
	H340	H	0.521394	0.503512	-0.423959
	H341	H	0.508847	0.490836	-0.440462
	O342	O	0.439018	0.500347	0.517135
	H343	H	0.435238	0.501730	0.513233
	H344	H	0.441641	0.491986	0.519376
	O345	O	0.503054	0.547531	0.629081
	H346	H	0.495191	0.546866	0.629029
	H347	H	0.513331	0.539114	0.623060
	O348	O	0.058797	0.088667	0.018765
	H349	H	0.053206	0.092891	0.016611
	H350	H	0.062303	0.090582	0.009879
	O351	O	-0.071367	1.008533	0.997201
	H352	H	-0.062768	1.020365	1.004293
	H353	H	-0.078968	1.002560	0.989743
	O354	O	0.531100	0.550896	0.449823
	H355	H	0.529056	0.547747	0.451887
	H356	H	0.521596	0.545736	0.448602
	O357	O	0.031616	1.077518	1.044892
	H358	H	0.029519	1.079810	1.032544
	H359	H	0.037276	1.069040	1.055673
