data_Molecule from HDF5

_cell_length_a		16.488093
_cell_length_b		16.826091
_cell_length_c		16.530006
_cell_angle_alpha	89.957529
_cell_angle_beta	90.033761
_cell_angle_gamma	90.074141
_symmetry_space_group_name_H-M	'P 1'
_symmetry_Int_Tables_number		1

loop_
	_symmetry_equiv_pos_as_xyz
	x,y,z

loop_
	_atom_site_label
	_atom_site_type_symbol
	_atom_site_fract_x
	_atom_site_fract_y
	_atom_site_fract_z
	H0	H	0.398520	0.829867	0.742087
	H1	H	0.610088	0.138075	0.741589
	H2	H	0.610022	0.830260	0.295467
	H3	H	0.390347	0.132596	0.289887
	H4	H	0.722892	0.382101	0.862163
	H5	H	0.724195	0.585571	0.177024
	H6	H	0.285569	0.586866	0.862119
	H7	H	0.283143	0.377871	0.175480
	H8	H	0.848648	0.706073	0.411157
	H9	H	0.158933	0.707081	0.628076
	H10	H	0.846988	0.264498	0.622954
	H11	H	0.159744	0.260519	0.411391
	H12	H	0.846467	0.383394	0.736100
	H13	H	0.161284	0.586817	0.739116
	H14	H	0.846915	0.585731	0.299714
	H15	H	0.161539	0.379419	0.299418
	H16	H	0.399334	0.705188	0.863454
	H17	H	0.614571	0.707150	0.173494
	H18	H	0.611483	0.261101	0.864556
	H19	H	0.395535	0.258822	0.173509
	H20	H	0.726271	0.830399	0.413273
	H21	H	0.723539	0.139487	0.621910
	H22	H	0.280693	0.830030	0.626565
	H23	H	0.278109	0.135843	0.411008
	H24	H	0.897397	0.329798	0.243274
	H25	H	0.110294	0.637103	0.242414
	H26	H	0.112799	0.329915	0.795709
	H27	H	0.898502	0.635052	0.796061
	H28	H	0.223416	0.880923	0.364100
	H29	H	0.219383	0.082924	0.678169
	H30	H	0.786584	0.082414	0.361175
	H31	H	0.787922	0.883753	0.678666
	H32	H	0.349020	0.205391	0.913317
	H33	H	0.659102	0.206163	0.129181
	H34	H	0.351642	0.756155	0.129494
	H35	H	0.662964	0.764640	0.915087
	H36	H	0.349944	0.872589	0.244219
	H37	H	0.660742	0.086424	0.240925
	H38	H	0.347283	0.086197	0.800920
	H39	H	0.664229	0.884052	0.803082
	H40	H	0.899402	0.202613	0.362605
	H41	H	0.108492	0.203700	0.675358
	H42	H	0.109022	0.761659	0.364619
	H43	H	0.898626	0.762767	0.675923
	H44	H	0.230868	0.331588	0.912698
	H45	H	0.227674	0.637918	0.124993
	H46	H	0.781166	0.329160	0.125700
	H47	H	0.781894	0.635634	0.913847
	H48	H	0.420612	0.093445	0.614848
	H49	H	0.593895	0.872906	0.612567
	H50	H	0.594692	0.093296	0.431434
	H51	H	0.413313	0.874358	0.433167
	H52	H	0.591266	0.390491	0.133005
	H53	H	0.592141	0.573286	0.907250
	H54	H	0.419920	0.570500	0.130371
	H55	H	0.426760	0.393905	0.910641
	H56	H	0.113748	0.571979	0.437297
	H57	H	0.892638	0.572082	0.603450
	H58	H	0.118885	0.385029	0.603781
	H59	H	0.893786	0.393419	0.435203
	H60	H	0.115074	0.397754	0.603621
	H61	H	0.890942	0.570117	0.609319
	H62	H	0.116568	0.570200	0.429423
	H63	H	0.891933	0.395696	0.428585
	H64	H	0.420379	0.572737	0.131117
	H65	H	0.592972	0.575642	0.906030
	H66	H	0.595012	0.394305	0.132887
	H67	H	0.415261	0.389118	0.904523
	H68	H	0.590042	0.093195	0.428570
	H69	H	0.596587	0.872834	0.611264
	H70	H	0.414292	0.090464	0.602790
	H71	H	0.418566	0.874765	0.431132
	H72	H	0.921200	0.590825	0.110376
	H73	H	0.097899	0.372671	0.107499
	H74	H	0.095126	0.593595	0.927989
	H75	H	0.907651	0.369637	0.928535
	H76	H	0.090214	0.890481	0.633095
	H77	H	0.088063	0.070743	0.409338
	H78	H	0.911779	0.074179	0.633573
	H79	H	0.905056	0.898947	0.405524
	H80	H	0.616342	0.074770	0.934765
	H81	H	0.392756	0.069684	0.105970
	H82	H	0.616693	0.894035	0.106239
	H83	H	0.392150	0.890227	0.933558
	H84	H	0.615386	0.895625	0.104243
	H85	H	0.392493	0.072606	0.103151
	H86	H	0.618490	0.071790	0.928988
	H87	H	0.392859	0.894789	0.932034
	H88	H	0.916780	0.073758	0.631587
	H89	H	0.089634	0.075793	0.406293
	H90	H	0.093220	0.895235	0.632565
	H91	H	0.924395	0.898660	0.412796
	H92	H	0.090822	0.592121	0.928959
	H93	H	0.090995	0.374155	0.112069
	H94	H	0.911680	0.592152	0.103550
	H95	H	0.920995	0.372531	0.924027
	H96	H	0.407859	0.096965	0.613114
	H97	H	0.596149	0.871768	0.614003
	H98	H	0.590418	0.091477	0.433882
	H99	H	0.417364	0.876476	0.436813
	H100	H	0.589989	0.395189	0.130752
	H101	H	0.595134	0.573573	0.906308
	H102	H	0.418034	0.572065	0.131143
	H103	H	0.415260	0.401168	0.909072
	H104	H	0.117795	0.578167	0.432580
	H105	H	0.890259	0.575838	0.607909
	H106	H	0.120255	0.392395	0.615083
	H107	H	0.890516	0.389242	0.430755
	H108	H	0.911544	0.595819	0.114312
	H109	H	0.091041	0.376550	0.104278
	H110	H	0.094215	0.592424	0.932714
	H111	H	0.916932	0.374415	0.938028
	H112	H	0.087620	0.894734	0.630834
	H113	H	0.093355	0.070797	0.406396
	H114	H	0.915286	0.078630	0.633516
	H115	H	0.916196	0.881677	0.403540
	H116	H	0.619664	0.078001	0.929950
	H117	H	0.395189	0.069163	0.102154
	H118	H	0.615829	0.897196	0.106392
	H119	H	0.391144	0.891336	0.928840
	C120	C	0.381757	-0.007969	0.642758
	C121	C	0.626449	0.975523	0.642362
	C122	C	0.624764	-0.008635	0.398470
	C123	C	0.380879	0.974713	0.397619
	C124	C	0.624747	0.361995	0.028490
	C125	C	0.626658	0.605000	1.010322
	C126	C	0.385917	0.604409	0.027841
	C127	C	0.384781	0.362619	1.011064
	C128	C	0.012461	0.604425	0.399614
	C129	C	0.995015	0.604483	0.640134
	C130	C	0.013792	0.361601	0.639691
	C131	C	0.995658	0.361584	0.398511
	C132	C	0.882239	0.491302	0.141984
	C133	C	0.126660	0.475792	0.141182
	C134	C	0.126937	0.491426	0.897365
	C135	C	0.883180	0.474047	0.898042
	C136	C	0.123508	0.861815	0.528819
	C137	C	0.123298	0.103790	0.511059
	C138	C	0.882847	0.105090	0.528279
	C139	C	0.883095	0.862205	0.511265
	C140	C	0.513915	0.105719	0.898953
	C141	C	0.495854	0.103325	0.139172
	C142	C	0.513446	0.861392	0.140176
	C143	C	0.496791	0.862673	0.899715
	C144	C	0.380068	0.876072	0.702132
	C145	C	0.627786	0.092051	0.700924
	C146	C	0.628015	0.876334	0.336768
	C147	C	0.374277	0.087641	0.332304
	C148	C	0.684045	0.361753	0.909723
	C149	C	0.685746	0.605390	0.129112
	C150	C	0.325499	0.605783	0.909480
	C151	C	0.323389	0.359852	0.128390
	C152	C	0.894966	0.664815	0.394655
	C153	C	0.112570	0.665586	0.644431
	C154	C	0.894335	0.304161	0.641096
	C155	C	0.113065	0.301298	0.394571
	C156	C	0.894178	0.362753	0.697610
	C157	C	0.113767	0.605999	0.699861
	C158	C	0.894295	0.605239	0.339227
	C159	C	0.113697	0.360375	0.338534
	C160	C	0.381947	0.664574	0.910065
	C161	C	0.630979	0.665601	0.127521
	C162	C	0.628784	0.301960	0.910940
	C163	C	0.379274	0.300569	0.127485
	C164	C	0.685738	0.876114	0.395313
	C165	C	0.684623	0.092461	0.641814
	C166	C	0.321348	0.876311	0.644750
	C167	C	0.318041	0.089168	0.392358
	C168	C	0.879306	0.375817	0.202672
	C169	C	0.128880	0.591287	0.201881
	C170	C	0.131162	0.376150	0.836293
	C171	C	0.880546	0.589359	0.837246
	C172	C	0.183248	0.861468	0.410825
	C173	C	0.181363	0.103355	0.630378
	C174	C	0.825051	0.103367	0.408794
	C175	C	0.825823	0.863154	0.630596
	C176	C	0.395681	0.165189	0.895669
	C177	C	0.612823	0.164615	0.145145
	C178	C	0.397609	0.797742	0.146049
	C179	C	0.616018	0.804743	0.897366
	C180	C	0.396830	0.855929	0.202902
	C181	C	0.613469	0.105063	0.200637
	C182	C	0.394771	0.105787	0.840230
	C183	C	0.616372	0.864064	0.841694
	C184	C	0.881071	0.162709	0.409470
	C185	C	0.126104	0.163091	0.629095
	C186	C	0.126738	0.802446	0.410923
	C187	C	0.880972	0.803372	0.629370
	C188	C	0.189413	0.376794	0.894466
	C189	C	0.187230	0.591576	0.143634
	C190	C	0.821504	0.375426	0.144394
	C191	C	0.822601	0.589799	0.895478
	C192	C	0.406895	0.072665	0.617516
	C193	C	0.602363	0.893835	0.619205
	C194	C	0.599058	0.071735	0.424049
	C195	C	0.408599	0.895665	0.425846
	C196	C	0.599353	0.386294	0.110783
	C197	C	0.600955	0.580826	0.927897
	C198	C	0.412010	0.579082	0.109638
	C199	C	0.411303	0.387783	0.929279
	C200	C	0.094537	0.580309	0.425706
	C201	C	0.912733	0.579557	0.614360
	C202	C	0.096447	0.384952	0.614796
	C203	C	0.913250	0.386004	0.424135
	C204	C	0.907548	0.571855	0.116551
	C205	C	0.100773	0.395286	0.115194
	C206	C	0.100822	0.571668	0.922541
	C207	C	0.908040	0.393374	0.923077
	C208	C	0.097647	0.886238	0.610766
	C209	C	0.097756	0.079480	0.428785
	C210	C	0.907378	0.082050	0.611289
	C211	C	0.908107	0.886142	0.428747
	C212	C	0.596502	0.081674	0.924037
	C213	C	0.414501	0.077607	0.111534
	C214	C	0.594875	0.888048	0.113295
	C215	C	0.413705	0.885529	0.924489
	Zn216	Zn	0.504557	-0.016185	0.771626
	Zn217	Zn	0.503085	-0.016820	0.268394
	Zn218	Zn	0.753264	0.482614	0.019613
	Zn219	Zn	0.256637	0.484003	0.019620
	Zn220	Zn	0.003154	0.732785	0.519794
	Zn221	Zn	0.004425	0.233316	0.518927
	Zn222	Zn	0.005072	0.482607	0.767758
	Zn223	Zn	0.004614	0.483786	0.270936
	Zn224	Zn	0.505919	0.733392	0.019458
	Zn225	Zn	0.504627	0.233139	0.019785
	Zn226	Zn	0.754987	-0.016581	0.519631
	Zn227	Zn	0.252380	-0.016378	0.520332
	N228	N	0.416853	0.949144	0.701242
	N229	N	0.592431	0.018235	0.701627
	N230	N	0.590907	0.949000	0.338455
	N231	N	0.412672	0.015439	0.335395
	N232	N	0.682050	0.398272	0.983959
	N233	N	0.683341	0.568472	0.055078
	N234	N	0.327549	0.569203	0.983736
	N235	N	0.326666	0.397867	0.054979
	N236	N	0.969623	0.664725	0.431337
	N237	N	0.037659	0.664822	0.608125
	N238	N	0.969819	0.302936	0.606120
	N239	N	0.038298	0.301689	0.430870
	N240	N	0.969548	0.397434	0.697219
	N241	N	0.039666	0.568664	0.697486
	N242	N	0.968365	0.568607	0.341906
	N243	N	0.039616	0.397163	0.340822
	N244	N	0.418563	0.664042	0.984760
	N245	N	0.595226	0.665724	0.052529
	N246	N	0.592821	0.302025	0.985800
	N247	N	0.416796	0.302267	0.053427
	N248	N	0.683829	0.948677	0.432978
	N249	N	0.683950	0.018893	0.605973
	N250	N	0.322194	0.949539	0.608347
	N251	N	0.322017	0.017851	0.432495
	N252	N	0.916287	0.448954	0.201507
	N253	N	0.092114	0.518102	0.200604
	N254	N	0.092988	0.448466	0.837927
	N255	N	0.917500	0.516491	0.838519
	N256	N	0.181548	0.897572	0.485112
	N257	N	0.179914	0.067278	0.555882
	N258	N	0.825888	0.068519	0.483814
	N259	N	0.826836	0.899019	0.555958
	N260	N	0.470907	0.165382	0.931274
	N261	N	0.538651	0.163666	0.107510
	N262	N	0.471335	0.801049	0.107659
	N263	N	0.540558	0.803474	0.932505
	N264	N	0.469701	0.895187	0.199158
	N265	N	0.539466	0.067640	0.197287
	N266	N	0.469374	0.069765	0.841759
	N267	N	0.541158	0.899085	0.842661
	N268	N	0.915946	0.164346	0.484937
	N269	N	0.091192	0.163731	0.553808
	N270	N	0.090653	0.802264	0.485622
	N271	N	0.915648	0.802413	0.554000
	N272	N	0.187123	0.449484	0.931455
	N273	N	0.185988	0.518605	0.106724
	N274	N	0.822877	0.448431	0.107551
	N275	N	0.824285	0.517134	0.932987
	O276	O	-0.047392	1.215911	0.080878
	H277	H	-0.059182	1.213717	0.099722
	H278	H	-0.033552	1.218282	0.094883
	O279	O	0.711971	0.553219	0.487232
	H280	H	0.711816	0.540859	0.499385
	H281	H	0.704659	0.568735	0.498378
	O282	O	1.064203	0.220452	0.959841
	H283	H	1.071521	0.218039	0.965590
	H284	H	1.049611	0.219278	0.977684
	O285	O	0.487392	0.697633	0.310599
	H286	H	0.484448	0.713601	0.311926
	H287	H	0.470373	0.704642	0.312595
	O288	O	1.088568	0.873053	0.226917
	H289	H	1.091943	0.863343	0.230038
	H290	H	1.079984	0.864816	0.223673
	O291	O	0.368530	0.427492	0.378572
	H292	H	0.371036	0.438432	0.376403
	H293	H	0.374916	0.445585	0.384537
	O294	O	1.295380	0.271308	0.726806
	H295	H	1.295729	0.287564	0.698160
	H296	H	1.285549	0.251976	0.724812
	O297	O	0.721369	0.254547	0.479775
	H298	H	0.727680	0.252610	0.449148
	H299	H	0.745801	0.240844	0.475577
	O300	O	0.220168	-0.231451	1.232790
	H301	H	0.238574	-0.250493	1.264302
	H302	H	0.212337	-0.195486	1.222608
	O303	O	0.540414	0.411219	0.349415
	H304	H	0.550549	0.401643	0.357946
	H305	H	0.544726	0.404086	0.355240
	O306	O	0.990168	0.998299	0.113454
	H307	H	0.994421	1.016768	0.113105
	H308	H	0.972376	1.003005	0.109768
	O309	O	0.542674	0.680839	0.705999
	H310	H	0.555575	0.692454	0.715418
	H311	H	0.574778	0.691765	0.709296
	O312	O	0.707951	0.274663	0.312388
	H313	H	0.720003	0.288333	0.297598
	H314	H	0.689276	0.295052	0.317043
	O315	O	1.023811	0.827278	0.801827
	H316	H	1.020879	0.820294	0.795701
	H317	H	1.017173	0.840975	0.799877
	O318	O	0.317433	1.291108	0.329260
	H319	H	0.334863	1.299683	0.352485
	H320	H	0.330120	1.307675	0.339346
	O321	O	-0.311362	1.294923	0.704236
	H322	H	-0.284917	1.267735	0.737358
	H323	H	-0.339006	1.313458	0.715092
	O324	O	1.162608	1.047859	-0.024202
	H325	H	1.168504	1.034887	-0.009395
	H326	H	1.173946	1.051123	-0.040240
	O327	O	0.214148	0.200421	1.046058
	H328	H	0.216050	0.199835	1.040717
	H329	H	0.225591	0.197465	1.049555
	O330	O	0.616159	0.440032	0.552641
	H331	H	0.615264	0.433953	0.546696
	H332	H	0.621686	0.432207	0.552062
	O333	O	0.470388	0.516999	0.699177
	H334	H	0.479993	0.526431	0.700307
	H335	H	0.468222	0.517559	0.697136
	O336	O	0.565234	0.416934	0.743025
	H337	H	0.547772	0.402858	0.747166
	H338	H	0.566452	0.430191	0.733750
	O339	O	1.221063	-0.002814	1.230050
	H340	H	1.241572	0.013569	1.246357
	H341	H	1.220188	0.007284	1.220733
	O342	O	-0.206833	0.201409	-0.189274
	H343	H	-0.168534	0.195817	-0.186927
	H344	H	-0.198695	0.163672	-0.188918
	O345	O	-0.207387	1.042288	0.814932
	H346	H	-0.191430	1.021350	0.824932
	H347	H	-0.225568	1.027798	0.796636
	O348	O	0.068867	-0.248280	0.070324
	H349	H	0.066492	-0.244220	0.091533
	H350	H	0.082964	-0.246253	0.077051
	O351	O	0.910425	0.867638	-0.176659
	H352	H	0.910175	0.869076	-0.157882
	H353	H	0.931967	0.873682	-0.170121
	O354	O	0.156752	0.052331	1.057539
	H355	H	0.166957	0.027066	1.060392
	H356	H	0.145878	0.045251	1.055398
	O357	O	0.440845	0.553623	0.549970
	H358	H	0.444115	0.552640	0.554696
	H359	H	0.433963	0.544700	0.559718
	O360	O	0.683994	0.667051	0.327901
	H361	H	0.662609	0.650524	0.341331
	H362	H	0.669815	0.655012	0.342557
	O363	O	-0.212876	0.208939	-0.010161
	H364	H	-0.219056	0.226165	-0.026476
	H365	H	-0.219136	0.222612	-0.024322
	O366	O	0.477519	0.257564	0.740287
	H367	H	0.468958	0.239089	0.763731
	H368	H	0.447910	0.262841	0.744245
	O369	O	1.179204	-0.054414	-0.181523
	H370	H	1.189286	-0.069153	-0.194848
	H371	H	1.172672	-0.057199	-0.194362
	O372	O	0.972607	0.759078	0.236478
	H373	H	0.961248	0.741323	0.256859
	H374	H	0.945650	0.757574	0.238392
	O375	O	0.943266	0.037404	0.247776
	H376	H	0.942409	0.033050	0.256407
	H377	H	0.945191	0.031077	0.240478
	O378	O	0.283392	0.573081	0.497710
	H379	H	0.289940	0.577118	0.513449
	H380	H	0.289466	0.564689	0.492614
	O381	O	-0.210818	0.756818	1.047302
	H382	H	-0.242581	0.736510	1.055941
	H383	H	-0.204393	0.760282	1.078114
	O384	O	0.799944	-0.226680	1.222134
	H385	H	0.799590	-0.184344	1.229333
	H386	H	0.774915	-0.247492	1.240879
	O387	O	1.238577	0.916323	0.069461
	H388	H	1.237381	0.899790	0.071951
	H389	H	1.240260	0.905354	0.063305
	O390	O	0.666006	0.482148	0.504237
	H391	H	0.668145	0.476857	0.508090
	H392	H	0.667124	0.471182	0.489929
	O393	O	0.212126	0.197305	0.224677
	H394	H	0.207274	0.184084	0.201082
	H395	H	0.239087	0.224450	0.243648
	O396	O	0.190550	0.174372	0.831142
	H397	H	0.196943	0.160822	0.842499
	H398	H	0.184072	0.184367	0.843370
	O399	O	-0.205398	0.009791	1.086461
	H400	H	-0.200408	0.008124	1.087227
	H401	H	-0.204923	0.026193	1.067818
	O402	O	0.789626	-0.062608	0.235592
	H403	H	0.778928	-0.053132	0.248673
	H404	H	0.783171	-0.044426	0.224620
	O405	O	1.288538	0.258937	0.555613
	H406	H	1.294282	0.278935	0.539056
	H407	H	1.270584	0.235769	0.548283
	O408	O	0.004732	0.033930	-0.011440
	H409	H	0.009476	0.038494	-0.007829
	H410	H	-0.001448	0.030019	0.001838
	O411	O	1.055341	0.943229	0.956235
	H412	H	1.046662	0.931537	0.973173
	H413	H	1.067975	0.954287	0.974586
	O414	O	0.506126	0.366300	0.516368
	H415	H	0.519258	0.359855	0.519161
	H416	H	0.508260	0.357287	0.526607
	O417	O	0.526170	0.258313	0.305666
	H418	H	0.529223	0.268628	0.304896
	H419	H	0.531169	0.240817	0.294686
	O420	O	0.722449	0.462828	0.313325
	H421	H	0.729745	0.478925	0.300737
	H422	H	0.726995	0.479799	0.302167
	O423	O	-0.055679	-0.256047	0.967190
	H424	H	-0.046984	-0.262535	0.993339
	H425	H	-0.061612	-0.261029	0.970257
	O426	O	0.394932	0.646312	0.677544
	H427	H	0.395195	0.629333	0.661705
	H428	H	0.386557	0.649267	0.660299
	O429	O	0.815532	1.174686	1.210624
	H430	H	0.822984	1.167316	1.195318
	H431	H	0.816755	1.181826	1.214677
	O432	O	0.537498	0.707591	0.459826
	H433	H	0.543121	0.710926	0.467604
	H434	H	0.547068	0.705036	0.463022
	O435	O	0.214517	0.811574	-0.181308
	H436	H	0.185949	0.808005	-0.186534
	H437	H	0.224970	0.812558	-0.175624
	O438	O	0.022337	-0.041284	-0.119420
	H439	H	0.022532	-0.012737	-0.130720
	H440	H	0.024729	-0.046177	-0.082367
	O441	O	-0.192367	-0.228341	-0.180787
	H442	H	-0.167813	-0.235880	-0.155540
	H443	H	-0.174390	-0.193953	-0.171325
	O444	O	0.230962	-0.240107	-0.011712
	H445	H	0.261443	-0.268190	-0.015769
	H446	H	0.211368	-0.242831	-0.031491
	O447	O	-1.060332	1.913932	1.090315
	H448	H	-1.058551	1.913842	1.078152
	H449	H	-1.056522	1.914427	1.104697
	O450	O	-0.300006	0.694013	0.713902
	H451	H	-0.309849	0.653625	0.717456
	H452	H	-0.264141	0.717658	0.749670
	O453	O	0.376152	0.611466	0.331373
	H454	H	0.373072	0.609158	0.345576
	H455	H	0.392060	0.612017	0.346268
	O456	O	0.438961	0.241209	0.460763
	H457	H	0.448671	0.237403	0.478088
	H458	H	0.460099	0.236503	0.467068
	O459	O	0.958886	1.072920	-0.106532
	H460	H	0.968857	1.084730	-0.084056
	H461	H	0.965909	1.101031	-0.118141
	O462	O	0.284230	0.708596	0.429982
	H463	H	0.286693	0.691302	0.451065
	H464	H	0.264457	0.719424	0.433987
	O465	O	0.293730	-0.557072	0.729331
	H466	H	0.308417	-0.569082	0.724877
	H467	H	0.273817	-0.569070	0.756003
	O468	O	0.582264	0.532099	0.304134
	H469	H	0.563641	0.523610	0.302436
	H470	H	0.567343	0.543790	0.318100
	O471	O	0.390729	0.470927	0.630064
	H472	H	0.398038	0.468031	0.630393
	H473	H	0.403894	0.487077	0.631121
	O474	O	-0.032815	1.214934	-0.199210
	H475	H	-0.015334	1.226009	-0.200567
	H476	H	-0.021298	1.219076	-0.208936
	O477	O	0.438912	0.715789	1.582186
	H478	H	0.443804	0.716657	1.581225
	H479	H	0.448096	0.724334	1.586902
	O480	O	0.383528	0.534581	0.570697
	H481	H	0.386001	0.529914	0.583854
	H482	H	0.391681	0.543481	0.581745
	O483	O	0.283009	0.511637	0.300674
	H484	H	0.272792	0.526557	0.281660
	H485	H	0.288099	0.513256	0.292892
	O486	O	0.726201	0.712301	0.542186
	H487	H	0.730133	0.714677	0.573250
	H488	H	0.745910	0.726605	0.563598
	O489	O	1.305665	0.630221	0.677021
	H490	H	1.319198	0.610272	0.672248
	H491	H	1.300467	0.634461	0.688676
	O492	O	0.033052	0.210372	0.237113
	H493	H	0.052247	0.229544	0.264674
	H494	H	0.055538	0.199688	0.245508
	O495	O	-0.193568	0.923094	0.959645
	H496	H	-0.187035	0.900476	0.952581
	H497	H	-0.191042	0.917810	0.986550
	O498	O	0.703725	1.528855	0.720056
	H499	H	0.692868	1.521688	0.707752
	H500	H	0.723208	1.515646	0.720794
	O501	O	0.594992	0.284463	0.573186
	H502	H	0.601774	0.277719	0.606907
	H503	H	0.622963	0.283132	0.572457
