data_Molecule from HDF5

_cell_length_a		16.143068
_cell_length_b		16.359114
_cell_length_c		16.156394
_cell_angle_alpha	90.204334
_cell_angle_beta	89.894916
_cell_angle_gamma	90.112311
_symmetry_space_group_name_H-M	'P 1'
_symmetry_Int_Tables_number		1

loop_
	_symmetry_equiv_pos_as_xyz
	x,y,z

loop_
	_atom_site_label
	_atom_site_type_symbol
	_atom_site_fract_x
	_atom_site_fract_y
	_atom_site_fract_z
	H0	H	0.402022	0.832056	0.715056
	H1	H	0.599270	0.158229	0.717187
	H2	H	0.598427	0.832519	0.285992
	H3	H	0.400970	0.158448	0.286630
	H4	H	0.714007	0.398292	0.835761
	H5	H	0.711843	0.593527	0.166052
	H6	H	0.290394	0.590856	0.835451
	H7	H	0.286516	0.398777	0.165454
	H8	H	0.837550	0.710850	0.399713
	H9	H	0.164359	0.711694	0.601450
	H10	H	0.837150	0.280730	0.602507
	H11	H	0.164662	0.279483	0.398515
	H12	H	0.835830	0.399950	0.712460
	H13	H	0.166029	0.593461	0.712146
	H14	H	0.835962	0.591772	0.290194
	H15	H	0.166452	0.398722	0.287465
	H16	H	0.401937	0.709435	0.837278
	H17	H	0.602285	0.711963	0.163812
	H18	H	0.601740	0.280010	0.836864
	H19	H	0.399109	0.281431	0.165253
	H20	H	0.714823	0.831884	0.401906
	H21	H	0.715234	0.158372	0.601354
	H22	H	0.285657	0.832034	0.599032
	H23	H	0.286638	0.159120	0.404485
	H24	H	0.899850	0.334548	0.216312
	H25	H	0.100176	0.659683	0.215487
	H26	H	0.101530	0.334376	0.782532
	H27	H	0.903377	0.660172	0.787065
	H28	H	0.213512	0.898979	0.336547
	H29	H	0.211693	0.093732	0.666923
	H30	H	0.788774	0.090843	0.335613
	H31	H	0.787922	0.898961	0.666952
	H32	H	0.336692	0.209941	0.900836
	H33	H	0.664498	0.213293	0.104004
	H34	H	0.337004	0.779987	0.102714
	H35	H	0.665148	0.781211	0.900048
	H36	H	0.335179	0.898835	0.213384
	H37	H	0.665804	0.093625	0.214180
	H38	H	0.334602	0.089681	0.791181
	H39	H	0.665749	0.897797	0.787635
	H40	H	0.900454	0.209414	0.337101
	H41	H	0.102354	0.212851	0.664159
	H42	H	0.100217	0.781714	0.336813
	H43	H	0.899419	0.780356	0.664498
	H44	H	0.215345	0.333536	0.899825
	H45	H	0.215430	0.659516	0.098934
	H46	H	0.785449	0.333972	0.098923
	H47	H	0.787068	0.660348	0.903794
	H48	H	0.403801	0.113188	0.597618
	H49	H	0.599258	0.877792	0.592628
	H50	H	0.590653	0.108760	0.416889
	H51	H	0.411236	0.879913	0.405981
	H52	H	0.583818	0.402902	0.115413
	H53	H	0.604300	0.583947	0.880965
	H54	H	0.416485	0.590153	0.117350
	H55	H	0.410413	0.399524	0.882529
	H56	H	0.116604	0.587705	0.418293
	H57	H	0.882588	0.593079	0.591371
	H58	H	0.116970	0.404646	0.589021
	H59	H	0.880666	0.396930	0.405950
	H60	H	0.119968	0.404766	0.593491
	H61	H	0.883050	0.587125	0.591390
	H62	H	0.120521	0.582680	0.401950
	H63	H	0.884649	0.401228	0.414363
	H64	H	0.403900	0.595988	0.122679
	H65	H	0.584510	0.584620	0.886695
	H66	H	0.596233	0.397603	0.122035
	H67	H	0.407187	0.400883	0.882431
	H68	H	0.604045	0.115020	0.407909
	H69	H	0.592251	0.877411	0.601240
	H70	H	0.409678	0.112009	0.598962
	H71	H	0.405721	0.880351	0.411702
	H72	H	0.910125	0.611432	0.091071
	H73	H	0.094988	0.379939	0.092074
	H74	H	0.090816	0.612624	0.903652
	H75	H	0.909830	0.379696	0.902520
	H76	H	0.087657	0.899008	0.619006
	H77	H	0.091189	0.082472	0.385469
	H78	H	0.912938	0.091425	0.619040
	H79	H	0.917132	0.891646	0.382755
	H80	H	0.619132	0.084303	0.902427
	H81	H	0.384735	0.083734	0.093121
	H82	H	0.624063	0.896051	0.103080
	H83	H	0.377323	0.898623	0.893636
	H84	H	0.617504	0.896295	0.081192
	H85	H	0.380189	0.091237	0.097877
	H86	H	0.621291	0.097047	0.909422
	H87	H	0.382058	0.888491	0.919926
	H88	H	0.905058	0.091573	0.620710
	H89	H	0.089457	0.093093	0.382607
	H90	H	0.096723	0.899456	0.621286
	H91	H	0.894742	0.900663	0.379119
	H92	H	0.097237	0.612474	0.910929
	H93	H	0.092047	0.380025	0.094657
	H94	H	0.900722	0.615135	0.095113
	H95	H	0.911518	0.382103	0.910216
	H96	H	0.407156	0.110534	0.592969
	H97	H	0.590037	0.881077	0.590401
	H98	H	0.589528	0.111722	0.400069
	H99	H	0.403758	0.877665	0.404536
	H100	H	0.595502	0.410914	0.117325
	H101	H	0.593089	0.601170	0.878490
	H102	H	0.404428	0.582319	0.117764
	H103	H	0.409664	0.403155	0.884203
	H104	H	0.122825	0.599647	0.406461
	H105	H	0.880506	0.590051	0.597166
	H106	H	0.119398	0.401096	0.590525
	H107	H	0.883539	0.406268	0.405943
	H108	H	0.910092	0.614207	0.101744
	H109	H	0.091344	0.381478	0.091230
	H110	H	0.100077	0.615894	0.901918
	H111	H	0.903184	0.380612	0.907921
	H112	H	0.092560	0.907502	0.618131
	H113	H	0.099244	0.089284	0.380847
	H114	H	0.908629	0.085480	0.617383
	H115	H	0.913143	0.913901	0.388586
	H116	H	0.615720	0.085659	0.916710
	H117	H	0.383706	0.092622	0.088304
	H118	H	0.615416	0.915849	0.093832
	H119	H	0.388747	0.915360	0.914352
	C120	C	0.378108	0.003915	0.624283
	C121	C	0.622715	0.986787	0.623757
	C122	C	0.622882	0.003829	0.379827
	C123	C	0.378218	0.987076	0.379223
	C124	C	0.621865	0.374672	0.009709
	C125	C	0.622629	0.618196	0.991056
	C126	C	0.380158	0.616929	0.010033
	C127	C	0.379404	0.373589	0.991981
	C128	C	0.010358	0.617568	0.380278
	C129	C	0.991632	0.617968	0.621606
	C130	C	0.009928	0.374944	0.621205
	C131	C	0.991968	0.373657	0.379039
	C132	C	0.878250	0.505653	0.123730
	C133	C	0.122525	0.487998	0.122190
	C134	C	0.123694	0.505500	0.876931
	C135	C	0.879256	0.488421	0.878868
	C136	C	0.121529	0.874296	0.510443
	C137	C	0.122051	0.117128	0.491985
	C138	C	0.879707	0.117114	0.510127
	C139	C	0.879144	0.873636	0.492507
	C140	C	0.509665	0.116503	0.880974
	C141	C	0.491669	0.118020	0.122511
	C142	C	0.509592	0.874405	0.121974
	C143	C	0.491856	0.873596	0.880161
	C144	C	0.381373	0.880725	0.677772
	C145	C	0.619849	0.109384	0.679428
	C146	C	0.619443	0.881156	0.324286
	C147	C	0.380843	0.109815	0.324401
	C148	C	0.677190	0.377146	0.885379
	C149	C	0.675911	0.614587	0.116082
	C150	C	0.326795	0.612682	0.885186
	C151	C	0.323892	0.377611	0.116196
	C152	C	0.886414	0.672640	0.381012
	C153	C	0.115410	0.673261	0.620326
	C154	C	0.886254	0.319188	0.621073
	C155	C	0.115883	0.318446	0.379572
	C156	C	0.885621	0.378350	0.676004
	C157	C	0.116307	0.614468	0.675396
	C158	C	0.885737	0.613598	0.326427
	C159	C	0.116509	0.377426	0.324034
	C160	C	0.381927	0.671616	0.886224
	C161	C	0.621097	0.673364	0.115231
	C162	C	0.621207	0.318387	0.885822
	C163	C	0.380089	0.319161	0.116040
	C164	C	0.677279	0.880857	0.381801
	C165	C	0.677465	0.109545	0.621699
	C166	C	0.323100	0.881030	0.620398
	C167	C	0.324073	0.110130	0.383292
	C168	C	0.880053	0.383213	0.178546
	C169	C	0.120301	0.610824	0.177664
	C170	C	0.121345	0.382915	0.821031
	C171	C	0.882464	0.611478	0.824629
	C172	C	0.176241	0.877730	0.385834
	C173	C	0.175560	0.114635	0.616884
	C174	C	0.825230	0.112871	0.385466
	C175	C	0.824695	0.877520	0.617185
	C176	C	0.385680	0.171672	0.881679
	C177	C	0.615737	0.174114	0.122063
	C178	C	0.385778	0.818827	0.121103
	C179	C	0.615949	0.818925	0.880979
	C180	C	0.385040	0.877756	0.176531
	C181	C	0.616460	0.114873	0.177120
	C182	C	0.384533	0.111863	0.827270
	C183	C	0.616388	0.876971	0.825040
	C184	C	0.880785	0.171755	0.386100
	C185	C	0.121333	0.174206	0.615225
	C186	C	0.120105	0.819396	0.386029
	C187	C	0.879999	0.818603	0.616105
	C188	C	0.177957	0.382584	0.879623
	C189	C	0.177702	0.610804	0.119728
	C190	C	0.822976	0.382873	0.120149
	C191	C	0.824673	0.611382	0.882591
	C192	C	0.400247	0.089850	0.602715
	C193	C	0.600525	0.900895	0.601195
	C194	C	0.601201	0.089594	0.401980
	C195	C	0.400389	0.901388	0.400837
	C196	C	0.598678	0.397203	0.095938
	C197	C	0.600431	0.596337	0.904440
	C198	C	0.401930	0.595852	0.096780
	C199	C	0.402335	0.395005	0.905512
	C200	C	0.097472	0.596190	0.402484
	C201	C	0.904326	0.596299	0.599669
	C202	C	0.096537	0.396902	0.597977
	C203	C	0.905401	0.395059	0.401962
	C204	C	0.900562	0.591491	0.102253
	C205	C	0.099474	0.402692	0.099470
	C206	C	0.102351	0.591410	0.899055
	C207	C	0.901487	0.402985	0.900489
	C208	C	0.099017	0.895779	0.596996
	C209	C	0.099811	0.094799	0.405514
	C210	C	0.902242	0.095920	0.596611
	C211	C	0.901767	0.895537	0.405871
	C212	C	0.596223	0.095353	0.903081
	C213	C	0.405166	0.095842	0.099922
	C214	C	0.596593	0.896336	0.099403
	C215	C	0.404961	0.894665	0.902664
	Zn216	Zn	0.500602	-0.004846	0.752743
	Zn217	Zn	0.500804	-0.003981	0.250112
	Zn218	Zn	0.749846	0.496717	0.000634
	Zn219	Zn	0.251909	0.496226	0.000420
	Zn220	Zn	0.000389	0.745568	0.500746
	Zn221	Zn	0.001020	0.245713	0.500487
	Zn222	Zn	0.000798	0.496591	0.748844
	Zn223	Zn	0.001194	0.496499	0.252375
	Zn224	Zn	0.501172	0.745492	0.001222
	Zn225	Zn	0.501293	0.245551	0.001217
	Zn226	Zn	0.751670	-0.004845	0.501675
	Zn227	Zn	0.249312	-0.004071	0.502166
	N228	N	0.414814	0.958254	0.680318
	N229	N	0.586277	0.032041	0.680637
	N230	N	0.586469	0.958597	0.322639
	N231	N	0.413926	0.032288	0.321807
	N232	N	0.677457	0.411565	0.963105
	N233	N	0.676953	0.580840	0.037960
	N234	N	0.325512	0.579251	0.963112
	N235	N	0.323140	0.410696	0.038010
	N236	N	0.965140	0.675048	0.413838
	N237	N	0.036731	0.675409	0.587521
	N238	N	0.964834	0.316909	0.587545
	N239	N	0.037493	0.315700	0.412807
	N240	N	0.963334	0.412476	0.675981
	N241	N	0.038227	0.580578	0.676036
	N242	N	0.963694	0.580047	0.325895
	N243	N	0.038268	0.410839	0.323326
	N244	N	0.414594	0.674281	0.964762
	N245	N	0.588532	0.675704	0.036578
	N246	N	0.587331	0.316617	0.964114
	N247	N	0.413810	0.316482	0.037862
	N248	N	0.679471	0.958195	0.415673
	N249	N	0.679351	0.032361	0.587794
	N250	N	0.321037	0.958726	0.587942
	N251	N	0.322200	0.032840	0.416395
	N252	N	0.913588	0.460532	0.180929
	N253	N	0.086956	0.533348	0.179571
	N254	N	0.088286	0.460362	0.819236
	N255	N	0.915795	0.534116	0.822255
	N256	N	0.177090	0.911249	0.464000
	N257	N	0.176218	0.079875	0.539333
	N258	N	0.824051	0.079825	0.463625
	N259	N	0.824043	0.911031	0.539296
	N260	N	0.464371	0.174635	0.914412
	N261	N	0.537170	0.176169	0.088918
	N262	N	0.464257	0.816669	0.087993
	N263	N	0.537532	0.816973	0.914700
	N264	N	0.463124	0.911775	0.177015
	N265	N	0.538586	0.080635	0.177688
	N266	N	0.462558	0.078253	0.826537
	N267	N	0.538249	0.910284	0.824274
	N268	N	0.913849	0.174676	0.464520
	N269	N	0.088686	0.175961	0.536627
	N270	N	0.086715	0.817126	0.464401
	N271	N	0.913139	0.816152	0.537554
	N272	N	0.179687	0.459844	0.913626
	N273	N	0.179075	0.533539	0.085706
	N274	N	0.821774	0.460058	0.086727
	N275	N	0.822661	0.533928	0.915616
	O276	O	0.979202	1.071530	0.038734
	H277	H	0.981567	1.074488	0.040106
	H278	H	0.980895	1.074334	0.036659
	O279	O	-0.057176	0.074420	-0.070122
	H280	H	-0.061278	0.074692	-0.072777
	H281	H	-0.055563	0.073851	-0.068175
	O282	O	-0.037735	0.059981	0.972024
	H283	H	-0.041418	0.064641	0.970829
	H284	H	-0.035089	0.058499	0.974627
	O285	O	0.505906	0.437737	0.476672
	H286	H	0.513264	0.447144	0.478430
	H287	H	0.502220	0.423694	0.468413
	O288	O	0.535921	0.445050	0.460809
	H289	H	0.546908	0.440944	0.460334
	H290	H	0.546506	0.439648	0.450346
	O291	O	0.523823	0.505837	0.436044
	H292	H	0.534851	0.507745	0.433847
	H293	H	0.525726	0.500651	0.436586
	O294	O	-0.021556	0.039463	-0.015597
	H295	H	-0.022769	0.034379	-0.012179
	H296	H	-0.014758	0.035705	-0.018810
	O297	O	0.525375	0.454447	0.449116
	H298	H	0.522213	0.450901	0.451039
	H299	H	0.522823	0.455305	0.444396
	O300	O	0.051155	1.089063	1.020308
	H301	H	0.047006	1.087746	1.018265
	H302	H	0.052919	1.092593	1.021089
	O303	O	0.502507	0.458925	0.452259
	H304	H	0.507559	0.460442	0.451910
	H305	H	0.489193	0.457940	0.453133
	O306	O	0.012145	0.074815	0.970157
	H307	H	0.017410	0.079786	0.971433
	H308	H	0.003370	0.070572	0.957093
	O309	O	1.003980	1.062618	0.972536
	H310	H	1.004357	1.062616	0.981450
	H311	H	1.003272	1.068038	0.967402
	O312	O	0.547044	0.454570	0.497028
	H313	H	0.542660	0.466114	0.495875
	H314	H	0.554260	0.447807	0.490838
	O315	O	0.484131	0.432455	0.505968
	H316	H	0.477292	0.429533	0.513015
	H317	H	0.484889	0.430896	0.508926
	O318	O	-0.022759	1.060335	0.066943
	H319	H	-0.016446	1.067542	0.075489
	H320	H	-0.018694	1.061724	0.067773
	O321	O	1.008876	1.045608	0.067585
	H322	H	1.004920	1.039845	0.058010
	H323	H	1.009156	1.047057	0.069585
