data_Molecule from HDF5

_cell_length_a		15.949540
_cell_length_b		16.344442
_cell_length_c		16.445146
_cell_angle_alpha	90.154237
_cell_angle_beta	89.776444
_cell_angle_gamma	89.596549
_symmetry_space_group_name_H-M	'P 1'
_symmetry_Int_Tables_number		1

loop_
	_symmetry_equiv_pos_as_xyz
	x,y,z

loop_
	_atom_site_label
	_atom_site_type_symbol
	_atom_site_fract_x
	_atom_site_fract_y
	_atom_site_fract_z
	H0	H	0.399981	0.825656	0.731241
	H1	H	0.616255	0.142931	0.731658
	H2	H	0.619768	0.823613	0.287167
	H3	H	0.405699	0.144172	0.290815
	H4	H	0.726282	0.381828	0.846238
	H5	H	0.722887	0.578353	0.171212
	H6	H	0.292161	0.582172	0.847090
	H7	H	0.296019	0.386959	0.170994
	H8	H	0.843938	0.699936	0.406534
	H9	H	0.175200	0.695736	0.608374
	H10	H	0.844310	0.270316	0.607759
	H11	H	0.175096	0.267141	0.406583
	H12	H	0.845691	0.379408	0.726338
	H13	H	0.173536	0.584741	0.726199
	H14	H	0.843721	0.586364	0.292600
	H15	H	0.172779	0.377111	0.289043
	H16	H	0.401956	0.705417	0.849844
	H17	H	0.616813	0.704565	0.167583
	H18	H	0.616676	0.258746	0.848894
	H19	H	0.405901	0.263988	0.168782
	H20	H	0.726281	0.820667	0.411271
	H21	H	0.721292	0.147630	0.605693
	H22	H	0.297576	0.819800	0.605656
	H23	H	0.294966	0.146134	0.411598
	H24	H	0.902262	0.321890	0.229427
	H25	H	0.111811	0.642272	0.228692
	H26	H	0.116352	0.321037	0.788992
	H27	H	0.901213	0.641894	0.789021
	H28	H	0.226853	0.883756	0.345952
	H29	H	0.221687	0.078104	0.672132
	H30	H	0.795016	0.081861	0.346328
	H31	H	0.795445	0.887289	0.671967
	H32	H	0.343821	0.195958	0.911654
	H33	H	0.675054	0.195065	0.107302
	H34	H	0.344624	0.769827	0.110144
	H35	H	0.674932	0.764750	0.905576
	H36	H	0.346067	0.883203	0.226090
	H37	H	0.675124	0.085265	0.223611
	H38	H	0.345037	0.087176	0.793898
	H39	H	0.673507	0.878473	0.789073
	H40	H	0.906968	0.202889	0.348052
	H41	H	0.115135	0.203766	0.668334
	H42	H	0.115680	0.760542	0.348028
	H43	H	0.904552	0.762344	0.668341
	H44	H	0.224492	0.318653	0.912401
	H45	H	0.221515	0.644898	0.107133
	H46	H	0.796155	0.317349	0.105080
	H47	H	0.792118	0.643868	0.909767
	H48	H	0.429337	0.094831	0.601129
	H49	H	0.599211	0.869446	0.598743
	H50	H	0.598155	0.098116	0.416613
	H51	H	0.411361	0.862772	0.411058
	H52	H	0.601330	0.380976	0.125433
	H53	H	0.598388	0.577815	0.893387
	H54	H	0.417849	0.581697	0.125011
	H55	H	0.418601	0.388667	0.892423
	H56	H	0.124687	0.564909	0.416593
	H57	H	0.889652	0.570203	0.608510
	H58	H	0.128851	0.390260	0.597330
	H59	H	0.888515	0.385340	0.420171
	H60	H	0.128255	0.394909	0.597263
	H61	H	0.889248	0.581955	0.596424
	H62	H	0.128344	0.571923	0.415140
	H63	H	0.893899	0.398240	0.422587
	H64	H	0.413186	0.575045	0.123757
	H65	H	0.601529	0.569632	0.894376
	H66	H	0.604911	0.390917	0.123025
	H67	H	0.420864	0.387809	0.893695
	H68	H	0.603237	0.100277	0.414338
	H69	H	0.599940	0.868690	0.600084
	H70	H	0.410767	0.099478	0.593848
	H71	H	0.432635	0.868994	0.407763
	H72	H	0.929957	0.593545	0.102746
	H73	H	0.104567	0.364418	0.102598
	H74	H	0.091214	0.593912	0.917419
	H75	H	0.912158	0.364277	0.917230
	H76	H	0.109853	0.884344	0.626063
	H77	H	0.096837	0.067811	0.398036
	H78	H	0.926769	0.080075	0.620897
	H79	H	0.920354	0.886592	0.393996
	H80	H	0.635414	0.087270	0.913931
	H81	H	0.390373	0.071684	0.103685
	H82	H	0.629612	0.894355	0.101832
	H83	H	0.391052	0.887653	0.921762
	H84	H	0.629318	0.888241	0.096581
	H85	H	0.389920	0.076500	0.103797
	H86	H	0.620443	0.065560	0.935671
	H87	H	0.396441	0.899804	0.925981
	H88	H	0.913162	0.084716	0.626857
	H89	H	0.096196	0.083152	0.393753
	H90	H	0.100349	0.896432	0.619875
	H91	H	0.917523	0.892982	0.394910
	H92	H	0.105978	0.598605	0.920173
	H93	H	0.095957	0.366771	0.105157
	H94	H	0.912111	0.595154	0.091217
	H95	H	0.925192	0.364843	0.906222
	H96	H	0.414861	0.103474	0.612910
	H97	H	0.597441	0.869211	0.599928
	H98	H	0.597846	0.099924	0.410868
	H99	H	0.423806	0.870919	0.427717
	H100	H	0.594579	0.389078	0.121110
	H101	H	0.592894	0.571926	0.897267
	H102	H	0.420881	0.574447	0.120992
	H103	H	0.419052	0.385550	0.893811
	H104	H	0.125788	0.571812	0.421809
	H105	H	0.895997	0.566101	0.594133
	H106	H	0.128698	0.393187	0.601821
	H107	H	0.889497	0.394918	0.410105
	H108	H	0.912039	0.601133	0.111226
	H109	H	0.098783	0.367453	0.096417
	H110	H	0.099232	0.600349	0.906405
	H111	H	0.927280	0.370509	0.922339
	H112	H	0.093645	0.881561	0.622513
	H113	H	0.109815	0.075016	0.390534
	H114	H	0.914352	0.070400	0.622177
	H115	H	0.924957	0.892138	0.396354
	H116	H	0.627800	0.056014	0.904715
	H117	H	0.391269	0.074679	0.099756
	H118	H	0.626315	0.895771	0.095044
	H119	H	0.390270	0.898076	0.912829
	C120	C	0.387635	-0.007444	0.631678
	C121	C	0.629716	0.975784	0.629814
	C122	C	0.632371	-0.007355	0.385061
	C123	C	0.390399	0.974670	0.387178
	C124	C	0.632146	0.357326	0.016935
	C125	C	0.629995	0.603453	1.000736
	C126	C	0.386391	0.606382	0.017024
	C127	C	0.388630	0.359620	0.999943
	C128	C	0.017080	0.601951	0.387639
	C129	C	1.000590	0.602599	0.629532
	C130	C	0.019173	0.362756	0.628918
	C131	C	0.999973	0.361732	0.387040
	C132	C	0.887086	0.489854	0.131081
	C133	C	0.129371	0.473191	0.130795
	C134	C	0.131275	0.490956	0.885597
	C135	C	0.888795	0.473169	0.886348
	C136	C	0.132945	0.858128	0.516490
	C137	C	0.131653	0.105036	0.500323
	C138	C	0.887812	0.106984	0.517026
	C139	C	0.888671	0.861055	0.500778
	C140	C	0.518719	0.101695	0.888846
	C141	C	0.500467	0.103691	0.130621
	C142	C	0.519379	0.863320	0.128964
	C143	C	0.500812	0.862405	0.887729
	C144	C	0.384367	0.872499	0.690289
	C145	C	0.632588	0.095817	0.690043
	C146	C	0.636297	0.871393	0.327156
	C147	C	0.387937	0.096125	0.330322
	C148	C	0.689364	0.359947	0.895157
	C149	C	0.686469	0.600476	0.122155
	C150	C	0.329844	0.603466	0.895886
	C151	C	0.332932	0.364518	0.122173
	C152	C	0.893379	0.660986	0.387690
	C153	C	0.125351	0.658519	0.628411
	C154	C	0.894074	0.307370	0.627875
	C155	C	0.125051	0.304752	0.387052
	C156	C	0.894918	0.361828	0.686787
	C157	C	0.124448	0.602905	0.686889
	C158	C	0.893206	0.604201	0.330873
	C159	C	0.123947	0.359528	0.328671
	C160	C	0.384856	0.664751	0.897128
	C161	C	0.633145	0.663100	0.120557
	C162	C	0.634353	0.298852	0.896398
	C163	C	0.387552	0.303523	0.121015
	C164	C	0.689329	0.869850	0.388962
	C165	C	0.685031	0.098273	0.627425
	C166	C	0.332761	0.869805	0.628071
	C167	C	0.332639	0.097110	0.390293
	C168	C	0.885178	0.369116	0.188965
	C169	C	0.129902	0.594379	0.188719
	C170	C	0.134136	0.369324	0.828244
	C171	C	0.884598	0.594030	0.828735
	C172	C	0.189364	0.861818	0.394614
	C173	C	0.185879	0.100602	0.622916
	C174	C	0.832289	0.103394	0.395030
	C175	C	0.832469	0.864846	0.622805
	C176	C	0.393648	0.158368	0.891289
	C177	C	0.625369	0.158231	0.127905
	C178	C	0.394482	0.807484	0.129541
	C179	C	0.625267	0.803566	0.886674
	C180	C	0.395202	0.863990	0.186950
	C181	C	0.625303	0.103196	0.185684
	C182	C	0.394113	0.103965	0.832869
	C183	C	0.624405	0.859958	0.828561
	C184	C	0.887872	0.163769	0.395890
	C185	C	0.132595	0.162979	0.620947
	C186	C	0.134331	0.800282	0.395765
	C187	C	0.887079	0.802873	0.621080
	C188	C	0.187592	0.367889	0.889796
	C189	C	0.184390	0.595923	0.128192
	C190	C	0.832095	0.367078	0.127192
	C191	C	0.830021	0.595019	0.888886
	C192	C	0.411537	0.077404	0.609358
	C193	C	0.605828	0.891053	0.606409
	C194	C	0.607131	0.077387	0.407423
	C195	C	0.415222	0.889816	0.409255
	C196	C	0.607487	0.380187	0.101209
	C197	C	0.604834	0.579986	0.916823
	C198	C	0.410314	0.583691	0.101497
	C199	C	0.412617	0.381102	0.915356
	C200	C	0.103930	0.576764	0.410997
	C201	C	0.913949	0.579405	0.606438
	C202	C	0.105870	0.385826	0.605644
	C203	C	0.913163	0.386027	0.410702
	C204	C	0.911111	0.574655	0.108481
	C205	C	0.106366	0.388280	0.107904
	C206	C	0.106258	0.575625	0.908157
	C207	C	0.914242	0.388567	0.908803
	C208	C	0.108514	0.880733	0.600928
	C209	C	0.107957	0.082052	0.416092
	C210	C	0.911314	0.084895	0.601473
	C211	C	0.913660	0.883806	0.416818
	C212	C	0.605443	0.076958	0.911562
	C213	C	0.412971	0.081088	0.108610
	C214	C	0.606036	0.886208	0.104888
	C215	C	0.414936	0.887702	0.912718
	Zn216	Zn	0.508997	-0.016188	0.760076
	Zn217	Zn	0.510952	-0.016888	0.256885
	Zn218	Zn	0.759859	0.481213	0.008306
	Zn219	Zn	0.258840	0.482087	0.008764
	Zn220	Zn	0.009607	0.729579	0.508098
	Zn221	Zn	0.010393	0.235916	0.508676
	Zn222	Zn	0.009486	0.481795	0.756741
	Zn223	Zn	0.008177	0.481729	0.260316
	Zn224	Zn	0.509631	0.735077	0.008994
	Zn225	Zn	0.509830	0.228580	0.008104
	Zn226	Zn	0.759154	-0.015780	0.509112
	Zn227	Zn	0.260951	-0.017212	0.509072
	N228	N	0.417950	0.949770	0.692568
	N229	N	0.598923	0.018578	0.691702
	N230	N	0.601766	0.948726	0.324590
	N231	N	0.423020	0.018965	0.328125
	N232	N	0.687977	0.395712	0.970844
	N233	N	0.684685	0.564039	0.046632
	N234	N	0.330677	0.567812	0.971478
	N235	N	0.333292	0.398905	0.045854
	N236	N	0.971713	0.659581	0.422413
	N237	N	0.047287	0.658370	0.593368
	N238	N	0.972306	0.307815	0.592599
	N239	N	0.046988	0.305947	0.422726
	N240	N	0.973715	0.395525	0.687464
	N241	N	0.045794	0.568972	0.687655
	N242	N	0.971461	0.568266	0.330759
	N243	N	0.045160	0.394273	0.328556
	N244	N	0.419348	0.666552	0.973663
	N245	N	0.598749	0.664991	0.043903
	N246	N	0.599596	0.296927	0.973174
	N247	N	0.421519	0.300330	0.044099
	N248	N	0.687510	0.946265	0.424017
	N249	N	0.683273	0.022582	0.590760
	N250	N	0.334653	0.945475	0.592124
	N251	N	0.334002	0.020711	0.425235
	N252	N	0.918299	0.446630	0.191749
	N253	N	0.096697	0.517041	0.190710
	N254	N	0.099876	0.446929	0.825345
	N255	N	0.920319	0.517215	0.826877
	N256	N	0.188844	0.896914	0.470731
	N257	N	0.185132	0.064999	0.547045
	N258	N	0.832231	0.068869	0.471213
	N259	N	0.833357	0.900277	0.547053
	N260	N	0.472125	0.156961	0.925499
	N261	N	0.546514	0.158980	0.094479
	N262	N	0.472750	0.806616	0.094189
	N263	N	0.547351	0.804751	0.922596
	N264	N	0.474025	0.897560	0.186805
	N265	N	0.546359	0.070038	0.187416
	N266	N	0.472890	0.069313	0.831229
	N267	N	0.546127	0.895733	0.829074
	N268	N	0.921944	0.166144	0.472623
	N269	N	0.099549	0.165899	0.543846
	N270	N	0.099997	0.797994	0.472544
	N271	N	0.921160	0.800404	0.544160
	N272	N	0.186117	0.444381	0.924749
	N273	N	0.184274	0.519639	0.092812
	N274	N	0.833272	0.443246	0.091778
	N275	N	0.832410	0.518804	0.924111
	O276	O	0.437500	0.355594	0.536881
	H277	H	0.431899	0.369522	0.541196
	H278	H	0.443687	0.350694	0.536801
	O279	O	0.408860	0.325909	0.607462
	H280	H	0.402374	0.326208	0.604510
	H281	H	0.395000	0.337321	0.590394
	O282	O	1.036374	-0.203154	-0.104249
	H283	H	1.046594	-0.215713	-0.105842
	H284	H	1.023161	-0.211146	-0.094093
	O285	O	0.046870	0.827958	-0.028253
	H286	H	0.050496	0.834892	-0.035199
	H287	H	0.057522	0.825667	-0.023233
	O288	O	0.597215	0.427741	0.564808
	H289	H	0.582262	0.409430	0.560721
	H290	H	0.592980	0.419056	0.549471
	O291	O	0.653837	0.494404	0.538768
	H292	H	0.655223	0.482629	0.541373
	H293	H	0.655750	0.477588	0.540500
	O294	O	1.091759	0.872100	1.033180
	H295	H	1.078595	0.856979	1.024835
	H296	H	1.093544	0.850871	1.027745
	O297	O	-0.046367	0.086318	-0.025122
	H298	H	-0.056124	0.087165	-0.017246
	H299	H	-0.044733	0.093085	-0.029750
	O300	O	1.085271	0.075960	0.082045
	H301	H	1.098590	0.077139	0.080437
	H302	H	1.083483	0.067115	0.073342
	O303	O	-0.040299	1.032279	0.983526
	H304	H	-0.051825	1.035170	0.981740
	H305	H	-0.053820	1.034069	0.986477
	O306	O	0.600338	0.358012	0.384412
	H307	H	0.596889	0.366383	0.383631
	H308	H	0.597768	0.344335	0.380896
	O309	O	1.113155	-0.032572	0.056488
	H310	H	1.117777	-0.022067	0.055184
	H311	H	1.111016	-0.039298	0.056545
	O312	O	0.105206	-0.081883	1.081999
	H313	H	0.111822	-0.078992	1.089792
	H314	H	0.102491	-0.081726	1.076389
	O315	O	-0.007127	1.118794	0.037824
	H316	H	-0.002571	1.129549	0.043253
	H317	H	-0.009812	1.127244	0.044017
	O318	O	0.361323	0.648715	0.417973
	H319	H	0.373793	0.658285	0.411216
	H320	H	0.354998	0.646202	0.435055
	O321	O	0.902450	0.066335	-0.100999
	H322	H	0.896310	0.059195	-0.102187
	H323	H	0.895056	0.073288	-0.092994
	O324	O	-0.045835	1.011975	-0.082773
	H325	H	-0.050760	1.018577	-0.096176
	H326	H	-0.038148	0.989427	-0.075895
	O327	O	-0.527327	1.448431	0.428845
	H328	H	-0.520638	1.458245	0.429592
	H329	H	-0.523188	1.449716	0.428342
	O330	O	0.594235	0.417549	0.516637
	H331	H	0.603664	0.409696	0.494602
	H332	H	0.605509	0.419908	0.522219
	O333	O	-0.103815	0.951461	0.988569
	H334	H	-0.102511	0.950922	0.983451
	H335	H	-0.100119	0.959053	1.000893
	O336	O	0.926119	0.850003	1.044789
	H337	H	0.935483	0.852481	1.051912
	H338	H	0.935090	0.836583	1.046953
	O339	O	0.359394	0.409494	-0.365196
	H340	H	0.366233	0.402672	-0.371412
	H341	H	0.352020	0.416356	-0.344466
	O342	O	1.029788	-0.044096	0.115014
	H343	H	1.032428	-0.048127	0.103508
	H344	H	1.030912	-0.048445	0.109272
	O345	O	0.392349	0.437987	0.608576
	H346	H	0.386919	0.432793	0.607652
	H347	H	0.406461	0.441566	0.588309
	O348	O	1.074392	1.935872	0.836588
	H349	H	1.064830	1.947184	0.828726
	H350	H	1.056787	1.924121	0.829595
	O351	O	-0.119171	1.025916	0.138518
	H352	H	-0.120748	1.023076	0.151308
	H353	H	-0.119583	1.015872	0.134783
	O354	O	0.030282	0.975339	1.076186
	H355	H	0.023512	0.974515	1.074624
	H356	H	0.037876	1.000359	1.068529
	O357	O	0.487074	0.631915	0.491074
	H358	H	0.468596	0.622931	0.476872
	H359	H	0.494274	0.631856	0.487520
	O360	O	-0.031669	-0.041685	0.019931
	H361	H	-0.023514	-0.031186	0.026302
	H362	H	-0.036575	-0.037847	0.020618
	O363	O	0.324907	0.556558	0.472328
	H364	H	0.322462	0.559092	0.480691
	H365	H	0.322199	0.564085	0.473078
	O366	O	0.487314	0.586576	0.336231
	H367	H	0.496074	0.585960	0.356901
	H368	H	0.500388	0.597507	0.328861
	O369	O	0.649395	0.529761	0.597109
	H370	H	0.655847	0.516307	0.599174
	H371	H	0.636617	0.535461	0.609121
	O372	O	0.473919	0.449979	0.349878
	H373	H	0.469742	0.478942	0.345269
	H374	H	0.485482	0.456320	0.347500
	O375	O	0.594916	0.681659	0.661484
	H376	H	0.587214	0.687142	0.661064
	H377	H	0.591287	0.692799	0.673224
	O378	O	0.615323	0.384890	0.508879
	H379	H	0.604363	0.388412	0.505283
	H380	H	0.607701	0.371826	0.518359
	O381	O	0.378383	0.547129	0.398156
	H382	H	0.389656	0.552137	0.391079
	H383	H	0.372507	0.545562	0.392808
	O384	O	0.017213	0.952735	0.142822
	H385	H	0.025733	0.960952	0.142880
	H386	H	0.014353	0.943357	0.142596
	O387	O	0.506508	0.477590	1.685947
	H388	H	0.505667	0.471631	1.671855
	H389	H	0.508719	0.475867	1.699440
	O390	O	0.059464	1.033263	-0.087574
	H391	H	0.053118	1.031851	-0.083050
	H392	H	0.068152	1.046052	-0.088277
	O393	O	0.451140	0.588756	-0.443834
	H394	H	0.452014	0.595467	-0.428088
	H395	H	0.451448	0.581039	-0.428302
	O396	O	0.624252	0.604309	0.462784
	H397	H	0.624359	0.594309	0.479922
	H398	H	0.625920	0.626586	0.458440
	O399	O	0.582859	1.398619	1.446652
	H400	H	0.575421	1.403409	1.450896
	H401	H	0.592792	1.394243	1.427601
	O402	O	1.058029	1.117770	0.913007
	H403	H	1.039797	1.122773	0.909417
	H404	H	1.065518	1.115656	0.921740
	O405	O	0.558014	0.426794	0.463026
	H406	H	0.571559	0.417284	0.466517
	H407	H	0.564965	0.422880	0.461584
