data_Molecule from HDF5

_cell_length_a		16.140540
_cell_length_b		16.297500
_cell_length_c		16.261933
_cell_angle_alpha	90.006929
_cell_angle_beta	90.227098
_cell_angle_gamma	90.083021
_symmetry_space_group_name_H-M	'P 1'
_symmetry_Int_Tables_number		1

loop_
	_symmetry_equiv_pos_as_xyz
	x,y,z

loop_
	_atom_site_label
	_atom_site_type_symbol
	_atom_site_fract_x
	_atom_site_fract_y
	_atom_site_fract_z
	H0	H	0.398094	0.837168	0.715618
	H1	H	0.597095	0.163998	0.717057
	H2	H	0.595328	0.837457	0.286410
	H3	H	0.395534	0.163175	0.284267
	H4	H	0.709278	0.402755	0.836055
	H5	H	0.709990	0.595948	0.164807
	H6	H	0.283586	0.596903	0.836436
	H7	H	0.283798	0.402125	0.165282
	H8	H	0.832164	0.714148	0.401650
	H9	H	0.161096	0.715481	0.602252
	H10	H	0.832417	0.286337	0.598410
	H11	H	0.161303	0.287028	0.401391
	H12	H	0.832471	0.400853	0.713895
	H13	H	0.161267	0.597944	0.714617
	H14	H	0.832323	0.599391	0.286367
	H15	H	0.161671	0.403718	0.288457
	H16	H	0.396502	0.715060	0.837120
	H17	H	0.598215	0.716660	0.163323
	H18	H	0.594482	0.285153	0.837216
	H19	H	0.396120	0.283850	0.163794
	H20	H	0.709718	0.837329	0.403971
	H21	H	0.711003	0.164937	0.598786
	H22	H	0.283495	0.836364	0.598534
	H23	H	0.283246	0.164492	0.403186
	H24	H	0.900670	0.336881	0.214636
	H25	H	0.097949	0.664360	0.216017
	H26	H	0.094897	0.337546	0.785817
	H27	H	0.897316	0.663935	0.785953
	H28	H	0.209190	0.902811	0.336251
	H29	H	0.210266	0.096964	0.664966
	H30	H	0.781469	0.098635	0.337260
	H31	H	0.783486	0.903474	0.665433
	H32	H	0.332448	0.214226	0.900552
	H33	H	0.660790	0.214963	0.101585
	H34	H	0.331798	0.785483	0.098701
	H35	H	0.661466	0.786737	0.902160
	H36	H	0.331441	0.901226	0.213650
	H37	H	0.660927	0.098976	0.215374
	H38	H	0.331978	0.098914	0.786928
	H39	H	0.662223	0.904011	0.789212
	H40	H	0.897892	0.213314	0.336671
	H41	H	0.097078	0.215341	0.664163
	H42	H	0.096187	0.784890	0.338090
	H43	H	0.896424	0.784910	0.664401
	H44	H	0.209395	0.336388	0.903344
	H45	H	0.212294	0.664115	0.098787
	H46	H	0.785587	0.336193	0.096551
	H47	H	0.783510	0.664144	0.902400
	H48	H	0.406131	0.118399	0.602840
	H49	H	0.585382	0.886360	0.591655
	H50	H	0.591339	0.119681	0.402048
	H51	H	0.399244	0.882976	0.408580
	H52	H	0.582861	0.411378	0.114304
	H53	H	0.578800	0.592830	0.886936
	H54	H	0.398248	0.588737	0.119080
	H55	H	0.397927	0.396047	0.879462
	H56	H	0.111960	0.584129	0.409272
	H57	H	0.881541	0.586452	0.589686
	H58	H	0.112205	0.408656	0.585229
	H59	H	0.873102	0.396526	0.401588
	H60	H	0.114483	0.415003	0.598362
	H61	H	0.876547	0.594004	0.600828
	H62	H	0.119262	0.598932	0.400557
	H63	H	0.882568	0.406875	0.420957
	H64	H	0.412851	0.589560	0.114203
	H65	H	0.592947	0.604051	0.879426
	H66	H	0.590761	0.396762	0.120343
	H67	H	0.397228	0.416494	0.884980
	H68	H	0.582550	0.115918	0.407632
	H69	H	0.595738	0.883271	0.593724
	H70	H	0.409719	0.114690	0.589877
	H71	H	0.405249	0.882585	0.402251
	H72	H	0.904772	0.619923	0.101797
	H73	H	0.085196	0.382830	0.102136
	H74	H	0.082609	0.615478	0.905902
	H75	H	0.911443	0.383760	0.899341
	H76	H	0.089980	0.913001	0.615706
	H77	H	0.092747	0.087651	0.385156
	H78	H	0.906457	0.100726	0.619129
	H79	H	0.909570	0.904535	0.385654
	H80	H	0.614607	0.087694	0.907591
	H81	H	0.378886	0.092782	0.091852
	H82	H	0.613639	0.912809	0.096048
	H83	H	0.379842	0.909090	0.912169
	H84	H	0.616311	0.903045	0.096455
	H85	H	0.378794	0.092316	0.093252
	H86	H	0.617704	0.098205	0.904798
	H87	H	0.377373	0.909511	0.903031
	H88	H	0.898557	0.092926	0.619795
	H89	H	0.081981	0.096270	0.385227
	H90	H	0.085149	0.903442	0.617759
	H91	H	0.898137	0.902544	0.382029
	H92	H	0.094401	0.616496	0.914612
	H93	H	0.087331	0.386623	0.088984
	H94	H	0.910393	0.614893	0.090576
	H95	H	0.905432	0.386497	0.915347
	H96	H	0.396559	0.118879	0.592908
	H97	H	0.588829	0.882478	0.601640
	H98	H	0.591780	0.117038	0.412650
	H99	H	0.407461	0.885775	0.409886
	H100	H	0.600108	0.411578	0.119023
	H101	H	0.595707	0.585276	0.883390
	H102	H	0.406205	0.602124	0.119535
	H103	H	0.414958	0.405768	0.887233
	H104	H	0.114075	0.599590	0.418624
	H105	H	0.877985	0.599955	0.587869
	H106	H	0.118145	0.400724	0.596289
	H107	H	0.879838	0.419413	0.400827
	H108	H	0.897259	0.618685	0.090524
	H109	H	0.097463	0.381240	0.096486
	H110	H	0.095215	0.620214	0.900834
	H111	H	0.894332	0.379572	0.903361
	H112	H	0.095596	0.905174	0.621004
	H113	H	0.094803	0.101158	0.379862
	H114	H	0.908932	0.090582	0.615778
	H115	H	0.901904	0.913533	0.385937
	H116	H	0.613944	0.096332	0.914786
	H117	H	0.378176	0.093357	0.093314
	H118	H	0.612858	0.906904	0.088049
	H119	H	0.377165	0.901321	0.907633
	C120	C	0.375880	0.008940	0.622656
	C121	C	0.618913	0.992110	0.623653
	C122	C	0.617544	0.009359	0.379340
	C123	C	0.375134	0.991964	0.378854
	C124	C	0.618771	0.377962	0.009415
	C125	C	0.618703	0.622236	0.991635
	C126	C	0.376227	0.621376	0.009014
	C127	C	0.374852	0.377810	0.992252
	C128	C	0.005676	0.622376	0.380107
	C129	C	0.987612	0.621749	0.622008
	C130	C	0.005701	0.379396	0.621738
	C131	C	0.987921	0.379670	0.379726
	C132	C	0.876079	0.509575	0.122445
	C133	C	0.119396	0.491959	0.123831
	C134	C	0.118256	0.508988	0.879319
	C135	C	0.874918	0.491708	0.878189
	C136	C	0.118601	0.878708	0.509731
	C137	C	0.118714	0.122657	0.492124
	C138	C	0.875338	0.122712	0.509565
	C139	C	0.874753	0.878920	0.492792
	C140	C	0.505795	0.121877	0.880259
	C141	C	0.487748	0.121603	0.122354
	C142	C	0.505210	0.878676	0.122065
	C143	C	0.487860	0.879127	0.879588
	C144	C	0.378007	0.885614	0.677408
	C145	C	0.616833	0.115529	0.678706
	C146	C	0.615502	0.886410	0.324432
	C147	C	0.376561	0.114805	0.323159
	C148	C	0.672398	0.381321	0.885389
	C149	C	0.673271	0.618213	0.115583
	C150	C	0.320769	0.618075	0.885690
	C151	C	0.320822	0.381091	0.115934
	C152	C	0.881407	0.676481	0.381735
	C153	C	0.111874	0.677350	0.620994
	C154	C	0.881569	0.324235	0.618750
	C155	C	0.112130	0.324913	0.381854
	C156	C	0.881515	0.381462	0.676028
	C157	C	0.112204	0.619012	0.676805
	C158	C	0.881487	0.619549	0.324296
	C159	C	0.112445	0.382901	0.325646
	C160	C	0.377283	0.676555	0.885764
	C161	C	0.617369	0.677465	0.114865
	C162	C	0.615309	0.322914	0.886128
	C163	C	0.376805	0.322349	0.115292
	C164	C	0.672269	0.886187	0.383099
	C165	C	0.673715	0.115898	0.620448
	C166	C	0.320884	0.885366	0.619279
	C167	C	0.320576	0.115425	0.382291
	C168	C	0.879458	0.385794	0.176915
	C169	C	0.117773	0.615309	0.178296
	C170	C	0.115666	0.385956	0.824101
	C171	C	0.877162	0.614933	0.823486
	C172	C	0.172569	0.881842	0.385705
	C173	C	0.173214	0.118590	0.615826
	C174	C	0.819562	0.119272	0.386136
	C175	C	0.820670	0.882287	0.616511
	C176	C	0.381648	0.176212	0.881619
	C177	C	0.611620	0.176889	0.120983
	C178	C	0.380908	0.823423	0.119055
	C179	C	0.612426	0.824620	0.882316
	C180	C	0.380801	0.880733	0.176297
	C181	C	0.611771	0.119347	0.177732
	C182	C	0.381513	0.118994	0.825026
	C183	C	0.612848	0.882806	0.826219
	C184	C	0.877007	0.176773	0.385992
	C185	C	0.116960	0.177614	0.615216
	C186	C	0.115924	0.823521	0.386543
	C187	C	0.876861	0.823403	0.615912
	C188	C	0.171880	0.385256	0.883089
	C189	C	0.174615	0.615153	0.120038
	C190	C	0.822435	0.385400	0.118357
	C191	C	0.820545	0.615123	0.881602
	C192	C	0.397584	0.095067	0.601464
	C193	C	0.596640	0.906484	0.602121
	C194	C	0.595079	0.095386	0.401032
	C195	C	0.397369	0.906068	0.400518
	C196	C	0.597557	0.400098	0.095761
	C197	C	0.596001	0.600386	0.905538
	C198	C	0.399067	0.599815	0.095320
	C199	C	0.396708	0.399559	0.906012
	C200	C	0.092429	0.600569	0.402781
	C201	C	0.901001	0.599846	0.599499
	C202	C	0.092561	0.401769	0.599877
	C203	C	0.900961	0.401274	0.401416
	C204	C	0.897799	0.595588	0.100722
	C205	C	0.096781	0.405887	0.102403
	C206	C	0.096975	0.595238	0.900620
	C207	C	0.897119	0.405448	0.899746
	C208	C	0.096861	0.900849	0.595856
	C209	C	0.096587	0.101271	0.405725
	C210	C	0.897867	0.101014	0.595968
	C211	C	0.896654	0.900677	0.406749
	C212	C	0.592957	0.100401	0.902359
	C213	C	0.400791	0.099245	0.099373
	C214	C	0.591779	0.901065	0.100143
	C215	C	0.400775	0.900394	0.901201
	Zn216	Zn	0.496900	0.000635	0.752272
	Zn217	Zn	0.496151	0.000432	0.249882
	Zn218	Zn	0.747240	0.500563	0.000157
	Zn219	Zn	0.247325	0.499922	0.000963
	Zn220	Zn	-0.003732	0.750528	0.501379
	Zn221	Zn	-0.002878	0.251385	0.500158
	Zn222	Zn	-0.003290	0.500667	0.749915
	Zn223	Zn	-0.002699	0.501469	0.252012
	Zn224	Zn	0.496715	0.750828	0.000229
	Zn225	Zn	0.496546	0.249606	0.001388
	Zn226	Zn	0.746574	0.001178	0.501455
	Zn227	Zn	0.247080	0.000078	0.500817
	N228	N	0.411239	0.963369	0.679817
	N229	N	0.583335	0.037749	0.681129
	N230	N	0.582150	0.964025	0.322160
	N231	N	0.409622	0.037045	0.320831
	N232	N	0.674649	0.414963	0.963020
	N233	N	0.674137	0.584482	0.038037
	N234	N	0.319888	0.584658	0.963442
	N235	N	0.319779	0.415143	0.038611
	N236	N	0.959478	0.678388	0.415655
	N237	N	0.033446	0.679213	0.587448
	N238	N	0.959860	0.322927	0.585702
	N239	N	0.033750	0.322920	0.414707
	N240	N	0.959801	0.415095	0.677855
	N241	N	0.034135	0.585194	0.677559
	N242	N	0.959899	0.586612	0.323160
	N243	N	0.034205	0.416390	0.324233
	N244	N	0.411031	0.678646	0.963640
	N245	N	0.584057	0.679936	0.036924
	N246	N	0.582766	0.320944	0.964233
	N247	N	0.409795	0.320284	0.037410
	N248	N	0.673610	0.963718	0.416505
	N249	N	0.674935	0.038453	0.586889
	N250	N	0.319657	0.962925	0.585895
	N251	N	0.319524	0.038097	0.416225
	N252	N	0.911870	0.463971	0.179763
	N253	N	0.084094	0.537796	0.180717
	N254	N	0.082997	0.463774	0.821758
	N255	N	0.910500	0.537171	0.821450
	N256	N	0.174436	0.915295	0.463375
	N257	N	0.174295	0.085011	0.538251
	N258	N	0.818543	0.086231	0.464058
	N259	N	0.819432	0.916171	0.539250
	N260	N	0.459858	0.177966	0.915485
	N261	N	0.533170	0.178305	0.087330
	N262	N	0.459293	0.821767	0.086084
	N263	N	0.533577	0.822091	0.914650
	N264	N	0.459005	0.914216	0.178290
	N265	N	0.533538	0.085740	0.178602
	N266	N	0.459819	0.085849	0.824092
	N267	N	0.534420	0.915513	0.824031
	N268	N	0.911125	0.178854	0.463651
	N269	N	0.084019	0.180280	0.537153
	N270	N	0.083124	0.821434	0.464503
	N271	N	0.909697	0.820985	0.537934
	N272	N	0.173700	0.462938	0.916673
	N273	N	0.175672	0.537436	0.086783
	N274	N	0.820157	0.463148	0.085224
	N275	N	0.819178	0.537501	0.914852
	O276	O	0.426430	0.603892	0.470951
	H277	H	0.436709	0.597229	0.476072
	H278	H	0.418535	0.604233	0.459520
	O279	O	0.032713	-0.027586	0.046039
	H280	H	0.031543	-0.029610	0.048436
	H281	H	0.032932	-0.033248	0.049819
	O282	O	0.500851	0.496505	0.484374
	H283	H	0.499663	0.502165	0.486064
	H284	H	0.502725	0.501848	0.479297
	O285	O	0.486201	0.515545	0.462299
	H286	H	0.494395	0.519710	0.460963
	H287	H	0.480167	0.500026	0.455591
	O288	O	1.001905	-0.025491	0.020055
	H289	H	1.005100	-0.027201	0.018590
	H290	H	1.002619	-0.028592	0.023758
	O291	O	-0.480979	0.502495	-0.522592
	H292	H	-0.478090	0.511053	-0.519731
	H293	H	-0.479562	0.503491	-0.524808
	O294	O	0.495788	0.519267	0.475222
	H295	H	0.496620	0.508971	0.482168
	H296	H	0.495613	0.527379	0.482183
	O297	O	0.469664	1.563479	0.477738
	H298	H	0.466609	1.561023	0.475796
	H299	H	0.461023	1.563206	0.478987
	O300	O	1.518534	0.565803	0.480773
	H301	H	1.525829	0.564555	0.477370
	H302	H	1.516527	0.575401	0.484002
	O303	O	0.440039	0.460288	0.463519
	H304	H	0.429254	0.447861	0.459402
	H305	H	0.449344	0.464812	0.468890
	O306	O	0.500312	0.574304	1.539175
	H307	H	0.501861	0.583552	1.541676
	H308	H	0.499828	0.567639	1.532132
	O309	O	0.445540	0.549942	0.420633
	H310	H	0.436499	0.549628	0.422891
	H311	H	0.438906	0.556010	0.421687
