data_Molecule from HDF5

_cell_length_a		16.491261
_cell_length_b		16.607280
_cell_length_c		16.605590
_cell_angle_alpha	90.045804
_cell_angle_beta	89.961510
_cell_angle_gamma	89.984602
_symmetry_space_group_name_H-M	'P 1'
_symmetry_Int_Tables_number		1

loop_
	_symmetry_equiv_pos_as_xyz
	x,y,z

loop_
	_atom_site_label
	_atom_site_type_symbol
	_atom_site_fract_x
	_atom_site_fract_y
	_atom_site_fract_z
	H0	H	0.392710	0.840720	0.718699
	H1	H	0.600476	0.152838	0.716686
	H2	H	0.608623	0.842930	0.271939
	H3	H	0.391414	0.151045	0.272244
	H4	H	0.719349	0.391668	0.839693
	H5	H	0.719649	0.599016	0.153285
	H6	H	0.280899	0.596700	0.840142
	H7	H	0.276911	0.389633	0.153005
	H8	H	0.840526	0.712743	0.396356
	H9	H	0.157385	0.715476	0.600227
	H10	H	0.841100	0.277736	0.600530
	H11	H	0.157568	0.275563	0.392875
	H12	H	0.841487	0.393580	0.716476
	H13	H	0.158021	0.598587	0.715623
	H14	H	0.840894	0.597809	0.278956
	H15	H	0.156973	0.391007	0.276214
	H16	H	0.395072	0.715616	0.841257
	H17	H	0.605511	0.717973	0.151802
	H18	H	0.602631	0.274315	0.840774
	H19	H	0.393413	0.272859	0.153491
	H20	H	0.721811	0.840999	0.391166
	H21	H	0.716478	0.153685	0.600203
	H22	H	0.277362	0.840213	0.600505
	H23	H	0.274169	0.150804	0.388755
	H24	H	0.895234	0.338361	0.217135
	H25	H	0.104709	0.650264	0.218560
	H26	H	0.104837	0.338595	0.775583
	H27	H	0.898226	0.653281	0.778829
	H28	H	0.221131	0.889841	0.340194
	H29	H	0.220996	0.100465	0.653655
	H30	H	0.780195	0.097867	0.341014
	H31	H	0.782860	0.897008	0.655464
	H32	H	0.342412	0.218575	0.890526
	H33	H	0.656375	0.215952	0.100155
	H34	H	0.343082	0.773307	0.104474
	H35	H	0.655878	0.774009	0.891394
	H36	H	0.344192	0.888407	0.221191
	H37	H	0.656744	0.098868	0.216052
	H38	H	0.340522	0.101217	0.776851
	H39	H	0.655768	0.890849	0.776145
	H40	H	0.894589	0.217418	0.342057
	H41	H	0.105128	0.217117	0.653929
	H42	H	0.105163	0.772815	0.341264
	H43	H	0.897548	0.777494	0.654789
	H44	H	0.219918	0.337707	0.892978
	H45	H	0.220366	0.651043	0.101038
	H46	H	0.780587	0.337552	0.098037
	H47	H	0.781329	0.653042	0.895403
	H48	H	0.414441	0.106186	0.585647
	H49	H	0.590949	0.883086	0.585955
	H50	H	0.585784	0.108689	0.405102
	H51	H	0.414711	0.886170	0.407406
	H52	H	0.590184	0.404556	0.109853
	H53	H	0.590713	0.586338	0.883895
	H54	H	0.413423	0.576168	0.106289
	H55	H	0.416011	0.402993	0.887106
	H56	H	0.115434	0.595301	0.408241
	H57	H	0.885551	0.589089	0.587024
	H58	H	0.113701	0.405523	0.588757
	H59	H	0.885533	0.400957	0.409624
	H60	H	0.112879	0.404221	0.584119
	H61	H	0.888084	0.584403	0.586932
	H62	H	0.107716	0.579510	0.416500
	H63	H	0.889699	0.409866	0.411302
	H64	H	0.416571	0.591537	0.109463
	H65	H	0.589491	0.582313	0.886291
	H66	H	0.589511	0.406715	0.108020
	H67	H	0.407012	0.401900	0.883058
	H68	H	0.587541	0.107312	0.410554
	H69	H	0.590596	0.882647	0.590793
	H70	H	0.408568	0.107511	0.583255
	H71	H	0.414872	0.887559	0.412266
	H72	H	0.904543	0.609034	0.087815
	H73	H	0.087358	0.383046	0.085747
	H74	H	0.082102	0.604875	0.907706
	H75	H	0.909929	0.381983	0.903671
	H76	H	0.086867	0.906388	0.607700
	H77	H	0.084400	0.085979	0.387151
	H78	H	0.904635	0.086641	0.613069
	H79	H	0.908916	0.905643	0.384791
	H80	H	0.607859	0.083294	0.915574
	H81	H	0.385437	0.083562	0.085851
	H82	H	0.611192	0.912178	0.088873
	H83	H	0.386276	0.909516	0.905870
	H84	H	0.612900	0.902121	0.084449
	H85	H	0.386763	0.084180	0.085029
	H86	H	0.610532	0.078256	0.901614
	H87	H	0.384696	0.902367	0.907764
	H88	H	0.910850	0.082890	0.608957
	H89	H	0.087846	0.086117	0.385332
	H90	H	0.088254	0.905128	0.609278
	H91	H	0.910033	0.902289	0.383852
	H92	H	0.095691	0.607202	0.913320
	H93	H	0.086714	0.383543	0.085984
	H94	H	0.911235	0.608462	0.092244
	H95	H	0.911152	0.383480	0.906564
	H96	H	0.409547	0.108986	0.589315
	H97	H	0.586937	0.884109	0.588143
	H98	H	0.591693	0.109204	0.406788
	H99	H	0.410694	0.885461	0.410525
	H100	H	0.588169	0.404800	0.108399
	H101	H	0.586157	0.585285	0.885090
	H102	H	0.401770	0.585341	0.113033
	H103	H	0.409595	0.410513	0.887398
	H104	H	0.114201	0.578907	0.398257
	H105	H	0.884397	0.585840	0.591506
	H106	H	0.111207	0.408774	0.586126
	H107	H	0.886217	0.407741	0.402750
	H108	H	0.911019	0.605631	0.084554
	H109	H	0.087142	0.383409	0.084820
	H110	H	0.092838	0.610112	0.899103
	H111	H	0.907927	0.382834	0.906168
	H112	H	0.089123	0.907607	0.608679
	H113	H	0.086593	0.082241	0.386436
	H114	H	0.911594	0.091155	0.610989
	H115	H	0.906685	0.903185	0.383348
	H116	H	0.614196	0.092542	0.905058
	H117	H	0.387136	0.083355	0.085006
	H118	H	0.608187	0.909951	0.078176
	H119	H	0.387925	0.907012	0.912882
	C120	C	0.377703	0.004652	0.618121
	C121	C	0.619850	0.987518	0.619166
	C122	C	0.621200	0.005254	0.375169
	C123	C	0.378606	0.988395	0.375694
	C124	C	0.620450	0.374125	0.004983
	C125	C	0.621252	0.617049	0.988017
	C126	C	0.378759	0.615808	0.006213
	C127	C	0.377908	0.372805	0.988752
	C128	C	0.007688	0.615713	0.376681
	C129	C	0.991035	0.617266	0.618965
	C130	C	0.008090	0.375281	0.618090
	C131	C	0.991207	0.374072	0.376072
	C132	C	0.877549	0.503752	0.118876
	C133	C	0.120084	0.486139	0.117935
	C134	C	0.121497	0.503691	0.874970
	C135	C	0.878851	0.487210	0.875427
	C136	C	0.120335	0.874154	0.505217
	C137	C	0.119901	0.117046	0.489256
	C138	C	0.877718	0.118008	0.507003
	C139	C	0.877800	0.874119	0.488476
	C140	C	0.506573	0.116540	0.875937
	C141	C	0.490577	0.116253	0.117502
	C142	C	0.508004	0.874574	0.117869
	C143	C	0.490231	0.874201	0.876043
	C144	C	0.374306	0.887218	0.678278
	C145	C	0.619989	0.105728	0.677575
	C146	C	0.625284	0.888811	0.313694
	C147	C	0.373599	0.104658	0.313347
	C148	C	0.679505	0.372792	0.886886
	C149	C	0.680340	0.618125	0.106107
	C150	C	0.320278	0.616150	0.887400
	C151	C	0.317350	0.370969	0.106461
	C152	C	0.888120	0.673660	0.376704
	C153	C	0.109923	0.675932	0.619439
	C154	C	0.888894	0.316797	0.619578
	C155	C	0.110136	0.315112	0.374433
	C156	C	0.888978	0.374576	0.677075
	C157	C	0.110454	0.617884	0.676774
	C158	C	0.888387	0.616527	0.318383
	C159	C	0.109826	0.372408	0.316346
	C160	C	0.376780	0.675393	0.888222
	C161	C	0.623764	0.677285	0.105423
	C162	C	0.621635	0.314577	0.887342
	C163	C	0.375215	0.312992	0.106582
	C164	C	0.681863	0.888049	0.372624
	C165	C	0.677433	0.106180	0.619396
	C166	C	0.317160	0.887218	0.619682
	C167	C	0.315517	0.104607	0.371170
	C168	C	0.876749	0.385169	0.177001
	C169	C	0.122784	0.603748	0.178162
	C170	C	0.123004	0.385565	0.815605
	C171	C	0.878695	0.606030	0.818061
	C172	C	0.180692	0.871773	0.387481
	C173	C	0.180650	0.119094	0.606632
	C174	C	0.819258	0.118025	0.388318
	C175	C	0.821067	0.875983	0.607932
	C176	C	0.388791	0.177467	0.873362
	C177	C	0.609396	0.175657	0.118768
	C178	C	0.390416	0.813434	0.121978
	C179	C	0.608692	0.814381	0.873631
	C180	C	0.390842	0.870715	0.180026
	C181	C	0.609557	0.117882	0.176420
	C182	C	0.388086	0.119075	0.816571
	C183	C	0.608437	0.872145	0.815832
	C184	C	0.876320	0.176944	0.388804
	C185	C	0.123178	0.177194	0.606916
	C186	C	0.123183	0.813476	0.387662
	C187	C	0.878015	0.816930	0.607569
	C188	C	0.180171	0.385069	0.874013
	C189	C	0.180195	0.603887	0.119698
	C190	C	0.819561	0.384902	0.118229
	C191	C	0.820481	0.605804	0.875754
	C192	C	0.403469	0.086351	0.593231
	C193	C	0.596185	0.904879	0.595056
	C194	C	0.595588	0.087043	0.400410
	C195	C	0.405690	0.907634	0.402345
	C196	C	0.596010	0.398451	0.087435
	C197	C	0.595901	0.591810	0.906412
	C198	C	0.403201	0.591153	0.088210
	C199	C	0.403480	0.397966	0.907056
	C200	C	0.090706	0.591727	0.400633
	C201	C	0.907696	0.593384	0.595288
	C202	C	0.091093	0.399425	0.593409
	C203	C	0.908644	0.398987	0.400785
	C204	C	0.901927	0.586259	0.095172
	C205	C	0.094495	0.404564	0.092663
	C206	C	0.097150	0.585879	0.899558
	C207	C	0.902886	0.404371	0.898766
	C208	C	0.095007	0.899016	0.587108
	C209	C	0.093738	0.091967	0.407528
	C210	C	0.901984	0.093974	0.589445
	C211	C	0.901679	0.896989	0.405557
	C212	C	0.589290	0.091561	0.900435
	C213	C	0.408009	0.091057	0.092473
	C214	C	0.589590	0.900632	0.091386
	C215	C	0.407684	0.899124	0.901597
	Zn216	Zn	0.497873	-0.004269	0.747659
	Zn217	Zn	0.499400	-0.004155	0.246472
	Zn218	Zn	0.749894	0.495091	-0.003562
	Zn219	Zn	0.249460	0.494374	-0.003165
	Zn220	Zn	-0.000797	0.745053	0.497364
	Zn221	Zn	-0.000410	0.246381	0.498021
	Zn222	Zn	0.000044	0.495893	0.746702
	Zn223	Zn	-0.000829	0.494983	0.247586
	Zn224	Zn	0.499347	0.745550	-0.002648
	Zn225	Zn	0.498965	0.244801	-0.003114
	Zn226	Zn	0.748920	-0.003703	0.498024
	Zn227	Zn	0.249110	-0.003548	0.496258
	N228	N	0.410887	0.961430	0.677709
	N229	N	0.585004	0.030686	0.677720
	N230	N	0.588457	0.962788	0.315050
	N231	N	0.412026	0.031328	0.315992
	N232	N	0.678853	0.408975	0.961172
	N233	N	0.679388	0.581763	0.031826
	N234	N	0.321078	0.579924	0.961786
	N235	N	0.318747	0.407165	0.032182
	N236	N	0.963407	0.673694	0.412108
	N237	N	0.034565	0.675779	0.584368
	N238	N	0.964049	0.316914	0.583788
	N239	N	0.035304	0.315885	0.410806
	N240	N	0.964228	0.410151	0.676314
	N241	N	0.035315	0.582321	0.676721
	N242	N	0.963911	0.581621	0.317958
	N243	N	0.034755	0.408098	0.316989
	N244	N	0.412258	0.675496	0.963009
	N245	N	0.587817	0.676844	0.031012
	N246	N	0.585815	0.315175	0.962007
	N247	N	0.411893	0.313937	0.032428
	N248	N	0.679619	0.961607	0.410194
	N249	N	0.677603	0.031561	0.583707
	N250	N	0.319176	0.961214	0.583002
	N251	N	0.318585	0.031290	0.409210
	N252	N	0.911730	0.460131	0.177719
	N253	N	0.086218	0.529548	0.177384
	N254	N	0.087508	0.460342	0.815858
	N255	N	0.914114	0.531122	0.817639
	N256	N	0.179073	0.908925	0.461465
	N257	N	0.178801	0.082410	0.532349
	N258	N	0.819766	0.082435	0.463017
	N259	N	0.820311	0.910326	0.532699
	N260	N	0.463492	0.176081	0.909764
	N261	N	0.534225	0.175091	0.083360
	N262	N	0.464428	0.815386	0.084202
	N263	N	0.533999	0.815401	0.910197
	N264	N	0.464918	0.908028	0.177811
	N265	N	0.534527	0.081932	0.176016
	N266	N	0.462252	0.081634	0.818262
	N267	N	0.533651	0.908647	0.817146
	N268	N	0.911547	0.177260	0.463708
	N269	N	0.086174	0.176069	0.532891
	N270	N	0.086447	0.814602	0.461960
	N271	N	0.912288	0.815491	0.532171
	N272	N	0.179514	0.459429	0.910315
	N273	N	0.178677	0.529832	0.083021
	N274	N	0.819929	0.459652	0.082807
	N275	N	0.820502	0.530836	0.910552
	O276	O	0.214630	0.779488	-0.041614
	H277	H	0.238149	0.758547	-0.034180
	H278	H	0.213449	0.798044	-0.034333
	O279	O	0.282550	0.504492	0.327880
	H280	H	0.290552	0.491282	0.331854
	H281	H	0.270699	0.493105	0.318421
	O282	O	0.978109	0.194271	1.066300
	H283	H	0.958626	0.197633	1.057865
	H284	H	0.992435	0.207699	1.073001
	O285	O	0.539786	0.390319	0.713386
	H286	H	0.555715	0.413775	0.718711
	H287	H	0.539636	0.404125	0.724229
	O288	O	0.535204	0.706041	0.447186
	H289	H	0.527874	0.702086	0.450210
	H290	H	0.527313	0.703038	0.422317
	O291	O	0.284994	0.276591	0.527382
	H292	H	0.281546	0.274821	0.537765
	H293	H	0.272976	0.268891	0.528274
	O294	O	0.911113	0.104967	1.021163
	H295	H	0.900853	0.088845	1.024023
	H296	H	0.901715	0.119768	1.002068
	O297	O	0.477939	0.719346	0.281912
	H298	H	0.476723	0.723220	0.264436
	H299	H	0.463471	0.711989	0.273323
	O300	O	-0.030013	0.216095	0.779348
	H301	H	-0.052750	0.232302	0.758509
	H302	H	-0.043923	0.219811	0.781197
	O303	O	0.715965	0.721852	0.530419
	H304	H	0.706368	0.737737	0.528864
	H305	H	0.732919	0.741847	0.546625
	O306	O	0.719418	0.274204	0.459712
	H307	H	0.729811	0.268904	0.431986
	H308	H	0.736477	0.264574	0.463844
	O309	O	0.449178	0.557138	0.716485
	H310	H	0.435487	0.552959	0.709065
	H311	H	0.456100	0.578175	0.718902
	O312	O	0.540709	0.712688	0.715410
	H313	H	0.544580	0.721354	0.716874
	H314	H	0.534818	0.726698	0.723004
	O315	O	0.949666	0.991542	0.796071
	H316	H	0.946828	0.993390	0.806030
	H317	H	0.965196	0.982136	0.789468
	O318	O	0.538186	0.442515	0.330056
	H319	H	0.537125	0.443485	0.320784
	H320	H	0.551075	0.455952	0.343707
	O321	O	0.207318	0.791166	0.791119
	H322	H	0.201500	0.791430	0.827181
	H323	H	0.229950	0.781681	0.767823
	O324	O	0.971924	0.777063	0.218138
	H325	H	0.940442	0.763790	0.221839
	H326	H	0.954875	0.760420	0.224521
	O327	O	0.027508	0.216046	1.220940
	H328	H	0.038428	0.248056	1.251290
	H329	H	0.056108	0.213535	1.206453
	O330	O	0.690484	0.498791	0.521625
	H331	H	0.701320	0.488872	0.520876
	H332	H	0.688208	0.507412	0.524044
	O333	O	0.507543	0.384411	0.647085
	H334	H	0.523982	0.395024	0.638783
	H335	H	0.521104	0.393237	0.640777
	O336	O	0.709829	0.286001	0.289109
	H337	H	0.672469	0.280960	0.297520
	H338	H	0.738431	0.254167	0.261968
	O339	O	0.841195	0.043684	0.850677
	H340	H	0.831596	0.032170	0.851108
	H341	H	0.846165	0.031436	0.848301
	O342	O	0.054643	-0.066772	0.222753
	H343	H	0.060083	-0.044799	0.229148
	H344	H	0.039139	-0.111774	0.228165
	O345	O	0.028215	1.087598	1.012332
	H346	H	0.042221	1.089757	1.019684
	H347	H	0.032923	1.096022	1.007277
	O348	O	0.275793	0.276383	0.204520
	H349	H	0.275987	0.287695	0.190257
	H350	H	0.300849	0.291953	0.230177
	O351	O	0.688175	0.691105	0.304086
	H352	H	0.669097	0.673081	0.327431
	H353	H	0.665429	0.669536	0.312185
	O354	O	0.203068	0.056089	0.918581
	H355	H	0.200596	0.055802	0.914018
	H356	H	0.205108	0.046187	0.901347
	O357	O	0.609446	0.518809	0.590613
	H358	H	0.624935	0.525705	0.592414
	H359	H	0.613146	0.534104	0.599380
	O360	O	0.304850	0.367354	0.701570
	H361	H	0.338905	0.362316	0.706894
	H362	H	0.288624	0.351545	0.697227
	O363	O	-0.062035	0.050647	0.226019
	H364	H	-0.051786	0.069828	0.232993
	H365	H	-0.049077	0.048654	0.214294
	O366	O	0.569149	0.437866	0.521925
	H367	H	0.576803	0.438106	0.522959
	H368	H	0.544545	0.451069	0.522620
	O369	O	0.809660	0.183877	0.188967
	H370	H	0.826078	0.164590	0.167013
	H371	H	0.826381	0.173305	0.171824
	O372	O	0.780087	0.781698	0.024602
	H373	H	0.791979	0.775593	0.035227
	H374	H	0.764008	0.759354	0.044295
	O375	O	0.790876	-0.043043	0.207395
	H376	H	0.786876	-0.032160	0.220785
	H377	H	0.793466	-0.033109	0.210035
	O378	O	0.499070	0.519417	0.281763
	H379	H	0.520676	0.498390	0.291274
	H380	H	0.478051	0.529809	0.291320
	O381	O	0.030085	0.778842	0.778782
	H382	H	0.056696	0.768061	0.766005
	H383	H	0.043046	0.779445	0.775082
	O384	O	0.799462	0.199715	0.948620
	H385	H	0.782594	0.225693	0.943711
	H386	H	0.805447	0.194872	0.910321
	O387	O	1.046714	0.789607	0.050361
	H388	H	1.033510	0.791385	0.047196
	H389	H	1.047090	0.783815	0.055150
	O390	O	0.537444	0.274873	0.274863
	H391	H	0.540619	0.261368	0.259532
	H392	H	0.526642	0.278076	0.277982
	O393	O	0.538389	0.494844	0.468648
	H394	H	0.537263	0.486724	0.477537
	H395	H	0.547608	0.508602	0.459870
	O396	O	-0.018261	0.978192	0.791656
	H397	H	-0.016385	0.973785	0.792265
	H398	H	-0.013020	0.981779	0.805034
	O399	O	-0.036059	-0.083026	0.954117
	H400	H	-0.025178	-0.091031	0.960796
	H401	H	-0.031417	-0.083798	0.950532
	O402	O	0.285730	0.704708	0.481696
	H403	H	0.274538	0.712136	0.456749
	H404	H	0.279154	0.713340	0.459940
	O405	O	0.792926	0.057642	1.053242
	H406	H	0.792616	0.062027	1.054142
	H407	H	0.788249	0.048428	1.033083
	O408	O	0.151991	0.151390	-0.097631
	H409	H	0.152221	0.142026	-0.100441
	H410	H	0.140914	0.161020	-0.103661
	O411	O	0.707838	0.703789	0.698613
	H412	H	0.738910	0.735042	0.728728
	H413	H	0.680996	0.711998	0.682091
	O414	O	0.677461	0.304585	0.677407
	H415	H	0.657982	0.309647	0.655004
	H416	H	0.669594	0.335930	0.670041
	O417	O	0.377409	0.395867	0.443708
	H418	H	0.382726	0.397105	0.452951
	H419	H	0.382802	0.403774	0.462113
	O420	O	0.315730	0.685985	0.683897
	H421	H	0.323212	0.681990	0.647461
	H422	H	0.322938	0.670283	0.688757
	O423	O	0.197033	0.238334	0.800675
	H424	H	0.196475	0.236060	0.808416
	H425	H	0.197688	0.231768	0.805983
	O426	O	0.367599	0.572920	0.433363
	H427	H	0.369215	0.566827	0.441326
	H428	H	0.359696	0.587220	0.431443
	O429	O	0.812679	0.811129	0.809381
	H430	H	0.833702	0.838131	0.817091
	H431	H	0.831459	0.816695	0.837217
	O432	O	0.451945	0.720484	0.555973
	H433	H	0.456225	0.711901	0.548157
	H434	H	0.435709	0.719566	0.545230
	O435	O	0.210120	0.905310	0.082125
	H436	H	0.201874	0.905476	0.082357
	H437	H	0.205541	0.931104	0.084215
	O438	O	0.214940	0.014565	0.211377
	H439	H	0.216389	0.013680	0.228875
	H440	H	0.218431	0.039046	0.223452
	O441	O	0.185401	0.178424	0.189482
	H442	H	0.193033	0.175989	0.203451
	H443	H	0.195152	0.187679	0.147990
	O444	O	0.438741	0.270756	0.426370
	H445	H	0.429855	0.261973	0.435628
	H446	H	0.455520	0.276896	0.427822
	O447	O	0.216863	0.961732	0.780877
	H448	H	0.227840	0.962690	0.757615
	H449	H	0.216510	0.941170	0.780372
	O450	O	0.208751	1.070610	1.005625
	H451	H	0.203134	1.066054	0.996133
	H452	H	0.213870	1.083793	1.002177
	O453	O	0.287617	0.508062	0.642089
	H454	H	0.273743	0.486474	0.656539
	H455	H	0.293274	0.501870	0.632731
	O456	O	-0.023018	-0.100353	0.935176
	H457	H	-0.013676	-0.099490	0.949552
	H458	H	-0.015749	-0.097476	0.943679
	O459	O	0.794047	0.786331	0.199568
	H460	H	0.782961	0.818905	0.204364
	H461	H	0.763891	0.763854	0.220430
	O462	O	0.719317	0.461458	0.274664
	H463	H	0.727291	0.436933	0.265983
	H464	H	0.736117	0.435326	0.260962
	O465	O	0.913738	-0.054348	-0.041206
	H466	H	0.911155	-0.054150	-0.027082
	H467	H	0.925952	-0.055437	-0.029617
	O468	O	0.299908	0.646018	0.294381
	H469	H	0.289439	0.670661	0.280126
	H470	H	0.288427	0.618817	0.280399
	O471	O	0.290656	0.494045	0.534258
	H472	H	0.296201	0.510292	0.531765
	H473	H	0.281435	0.484675	0.555345
	O474	O	0.206339	0.773156	0.199452
	H475	H	0.209062	0.777822	0.182070
	H476	H	0.193491	0.802388	0.187264
	O477	O	0.645882	0.553999	1.357396
	H478	H	0.648359	0.542749	1.351269
	H479	H	0.663954	0.545225	1.368560
	O480	O	0.539467	0.274342	0.534990
	H481	H	0.544463	0.269482	0.529421
	H482	H	0.541854	0.279051	0.532595
	O483	O	0.697314	0.527996	0.718788
	H484	H	0.702813	0.557470	0.725800
	H485	H	0.713147	0.545389	0.728146
	O486	O	0.792144	0.202521	0.786353
	H487	H	0.793933	0.158819	0.779512
	H488	H	0.762695	0.224723	0.758130
	O489	O	0.877178	0.910705	-0.047506
	H490	H	0.877255	0.913399	-0.040558
	H491	H	0.875927	0.907265	-0.046818
