data_Molecule from HDF5

_cell_length_a		16.055138
_cell_length_b		16.272399
_cell_length_c		16.352104
_cell_angle_alpha	90.134302
_cell_angle_beta	90.027705
_cell_angle_gamma	90.115704
_symmetry_space_group_name_H-M	'P 1'
_symmetry_Int_Tables_number		1

loop_
	_symmetry_equiv_pos_as_xyz
	x,y,z

loop_
	_atom_site_label
	_atom_site_type_symbol
	_atom_site_fract_x
	_atom_site_fract_y
	_atom_site_fract_z
	H0	H	0.397882	0.835299	0.719341
	H1	H	0.600043	0.161229	0.718915
	H2	H	0.602308	0.835425	0.285911
	H3	H	0.399399	0.161440	0.286539
	H4	H	0.713956	0.402201	0.838480
	H5	H	0.714049	0.596639	0.166728
	H6	H	0.288958	0.593950	0.838479
	H7	H	0.288789	0.401733	0.166071
	H8	H	0.834748	0.709707	0.405850
	H9	H	0.165099	0.712826	0.602090
	H10	H	0.835556	0.285024	0.601773
	H11	H	0.165194	0.285834	0.405696
	H12	H	0.835297	0.399634	0.716064
	H13	H	0.166192	0.599153	0.717363
	H14	H	0.835725	0.597840	0.289071
	H15	H	0.165297	0.398149	0.289242
	H16	H	0.401874	0.714097	0.840474
	H17	H	0.602125	0.715448	0.165191
	H18	H	0.602496	0.280764	0.840749
	H19	H	0.401040	0.284199	0.164947
	H20	H	0.712162	0.832974	0.407396
	H21	H	0.714071	0.162591	0.599903
	H22	H	0.287510	0.832884	0.598485
	H23	H	0.288458	0.163327	0.406730
	H24	H	0.899006	0.335370	0.217878
	H25	H	0.101268	0.660850	0.219526
	H26	H	0.101961	0.334995	0.786292
	H27	H	0.900183	0.661134	0.786381
	H28	H	0.212667	0.900792	0.338778
	H29	H	0.213150	0.094963	0.666925
	H30	H	0.787270	0.094541	0.338931
	H31	H	0.787288	0.901837	0.666645
	H32	H	0.334991	0.211127	0.904053
	H33	H	0.666327	0.213314	0.101928
	H34	H	0.335530	0.785659	0.100312
	H35	H	0.666657	0.786086	0.904105
	H36	H	0.335689	0.897632	0.217110
	H37	H	0.665817	0.098227	0.217760
	H38	H	0.336081	0.099520	0.787809
	H39	H	0.665165	0.897416	0.787064
	H40	H	0.898901	0.214821	0.340749
	H41	H	0.100379	0.214550	0.665297
	H42	H	0.100289	0.781445	0.340995
	H43	H	0.898909	0.781866	0.665364
	H44	H	0.213498	0.333337	0.906127
	H45	H	0.213162	0.662839	0.099165
	H46	H	0.787579	0.334257	0.097369
	H47	H	0.789599	0.663496	0.907458
	H48	H	0.412743	0.112868	0.594401
	H49	H	0.596515	0.879425	0.598912
	H50	H	0.588423	0.116907	0.399996
	H51	H	0.411450	0.881692	0.406322
	H52	H	0.591265	0.406765	0.118116
	H53	H	0.593486	0.580808	0.890471
	H54	H	0.406456	0.592129	0.119253
	H55	H	0.397440	0.398721	0.880434
	H56	H	0.121817	0.588938	0.402927
	H57	H	0.879435	0.593392	0.599521
	H58	H	0.118890	0.408951	0.597736
	H59	H	0.883083	0.409547	0.413250
	H60	H	0.121237	0.403153	0.598023
	H61	H	0.883358	0.590250	0.590962
	H62	H	0.120797	0.597372	0.414134
	H63	H	0.880000	0.407320	0.405697
	H64	H	0.410213	0.592102	0.118768
	H65	H	0.582762	0.601305	0.886848
	H66	H	0.593674	0.404446	0.119065
	H67	H	0.408442	0.417222	0.889564
	H68	H	0.585637	0.110404	0.417169
	H69	H	0.587956	0.881190	0.599615
	H70	H	0.402857	0.115739	0.595468
	H71	H	0.407023	0.882648	0.411451
	H72	H	0.912620	0.614149	0.096389
	H73	H	0.094730	0.380132	0.099009
	H74	H	0.085349	0.613192	0.906740
	H75	H	0.904343	0.379783	0.907704
	H76	H	0.096775	0.897686	0.622138
	H77	H	0.096468	0.085332	0.388140
	H78	H	0.898577	0.089708	0.621044
	H79	H	0.910292	0.898436	0.385765
	H80	H	0.616004	0.082929	0.914334
	H81	H	0.379618	0.096285	0.098148
	H82	H	0.619789	0.909441	0.099011
	H83	H	0.383449	0.906607	0.914523
	H84	H	0.620506	0.903687	0.096702
	H85	H	0.384391	0.091206	0.090186
	H86	H	0.621488	0.091016	0.904546
	H87	H	0.382705	0.908835	0.909359
	H88	H	0.914804	0.086057	0.615080
	H89	H	0.084419	0.093554	0.387738
	H90	H	0.097137	0.911399	0.618756
	H91	H	0.902807	0.903575	0.384882
	H92	H	0.095080	0.612922	0.917750
	H93	H	0.091232	0.381263	0.098775
	H94	H	0.906146	0.616434	0.097112
	H95	H	0.912503	0.381648	0.904753
	H96	H	0.409531	0.115803	0.603631
	H97	H	0.592209	0.882964	0.592509
	H98	H	0.603149	0.116676	0.412363
	H99	H	0.404316	0.879939	0.406147
	H100	H	0.594624	0.407347	0.117978
	H101	H	0.605622	0.598647	0.881193
	H102	H	0.408553	0.596479	0.119527
	H103	H	0.419983	0.396536	0.886464
	H104	H	0.115961	0.584178	0.414857
	H105	H	0.883274	0.584567	0.598311
	H106	H	0.119290	0.405482	0.593179
	H107	H	0.880792	0.401116	0.411456
	H108	H	0.910360	0.616590	0.102070
	H109	H	0.093698	0.381079	0.095672
	H110	H	0.099561	0.618191	0.904248
	H111	H	0.909893	0.382864	0.913348
	H112	H	0.085456	0.904319	0.616925
	H113	H	0.097515	0.098691	0.383378
	H114	H	0.911762	0.101763	0.620693
	H115	H	0.910377	0.906781	0.389115
	H116	H	0.618999	0.096275	0.916536
	H117	H	0.382130	0.086970	0.099350
	H118	H	0.618523	0.908346	0.092898
	H119	H	0.381514	0.902865	0.909689
	C120	C	0.378399	0.006371	0.625563
	C121	C	0.621835	0.989426	0.625275
	C122	C	0.621656	0.006676	0.381235
	C123	C	0.378607	0.989945	0.380314
	C124	C	0.622393	0.377110	0.010772
	C125	C	0.623097	0.621816	0.994186
	C126	C	0.379894	0.620890	0.011144
	C127	C	0.379451	0.376450	0.993610
	C128	C	0.009682	0.618698	0.382264
	C129	C	0.991681	0.618906	0.624619
	C130	C	0.010039	0.377244	0.624474
	C131	C	0.990645	0.377289	0.381756
	C132	C	0.879555	0.507186	0.125345
	C133	C	0.122513	0.489153	0.125346
	C134	C	0.122287	0.506605	0.880921
	C135	C	0.879938	0.490072	0.881230
	C136	C	0.121769	0.876062	0.511548
	C137	C	0.122036	0.120603	0.494248
	C138	C	0.878650	0.120405	0.511266
	C139	C	0.878512	0.875335	0.494438
	C140	C	0.509443	0.118946	0.882746
	C141	C	0.491427	0.120331	0.124557
	C142	C	0.509791	0.878014	0.123967
	C143	C	0.492213	0.877434	0.881945
	C144	C	0.378850	0.883802	0.680825
	C145	C	0.620134	0.112567	0.680613
	C146	C	0.621310	0.883826	0.324890
	C147	C	0.380026	0.112846	0.325092
	C148	C	0.677091	0.380405	0.887675
	C149	C	0.677455	0.617923	0.117486
	C150	C	0.325074	0.616531	0.888099
	C151	C	0.325277	0.380535	0.116735
	C152	C	0.884373	0.672735	0.385242
	C153	C	0.116049	0.674884	0.622477
	C154	C	0.885053	0.322388	0.622063
	C155	C	0.115841	0.323162	0.384987
	C156	C	0.885050	0.379225	0.678974
	C157	C	0.116481	0.618165	0.679579
	C158	C	0.884938	0.617287	0.326959
	C159	C	0.115675	0.378819	0.327066
	C160	C	0.381559	0.675805	0.888842
	C161	C	0.621679	0.677276	0.116745
	C162	C	0.621798	0.319983	0.888890
	C163	C	0.381149	0.321821	0.116040
	C164	C	0.675890	0.882529	0.385181
	C165	C	0.676815	0.113290	0.621733
	C166	C	0.323842	0.882607	0.620589
	C167	C	0.324599	0.113644	0.384782
	C168	C	0.879816	0.384020	0.179678
	C169	C	0.121512	0.612204	0.181113
	C170	C	0.121409	0.383499	0.825089
	C171	C	0.881205	0.612853	0.825563
	C172	C	0.176159	0.879306	0.388151
	C173	C	0.176441	0.116805	0.617574
	C174	C	0.823915	0.116438	0.388163
	C175	C	0.824122	0.880018	0.617554
	C176	C	0.384582	0.174026	0.884183
	C177	C	0.616668	0.175742	0.122369
	C178	C	0.385084	0.822874	0.121007
	C179	C	0.616897	0.822916	0.883752
	C180	C	0.385014	0.879106	0.178674
	C181	C	0.616580	0.118530	0.179643
	C182	C	0.385126	0.118015	0.826581
	C183	C	0.616164	0.878566	0.825748
	C184	C	0.879550	0.176117	0.389098
	C185	C	0.120259	0.176259	0.616776
	C186	C	0.120105	0.820075	0.389055
	C187	C	0.879769	0.820371	0.616938
	C188	C	0.176765	0.382639	0.884725
	C189	C	0.176832	0.613288	0.121172
	C190	C	0.824168	0.383637	0.120197
	C191	C	0.825912	0.614081	0.885419
	C192	C	0.401504	0.092628	0.603932
	C193	C	0.599044	0.903318	0.603560
	C194	C	0.599090	0.092393	0.403358
	C195	C	0.400980	0.903591	0.401697
	C196	C	0.599868	0.399525	0.096283
	C197	C	0.600538	0.600063	0.908372
	C198	C	0.401937	0.599757	0.097039
	C199	C	0.401900	0.397950	0.907627
	C200	C	0.096842	0.596713	0.404269
	C201	C	0.904490	0.596175	0.602691
	C202	C	0.097339	0.399501	0.602574
	C203	C	0.903715	0.399530	0.403666
	C204	C	0.902566	0.593377	0.104582
	C205	C	0.100072	0.403125	0.103965
	C206	C	0.099847	0.592658	0.902958
	C207	C	0.902206	0.403754	0.902544
	C208	C	0.099665	0.897869	0.597051
	C209	C	0.099517	0.098821	0.408716
	C210	C	0.901533	0.098860	0.596857
	C211	C	0.901142	0.896624	0.408671
	C212	C	0.596182	0.096392	0.905243
	C213	C	0.404754	0.098001	0.102271
	C214	C	0.597087	0.900564	0.102417
	C215	C	0.404918	0.899658	0.904606
	Zn216	Zn	0.500340	-0.002169	0.754847
	Zn217	Zn	0.500404	-0.001585	0.251841
	Zn218	Zn	0.751500	0.499240	0.002667
	Zn219	Zn	0.250950	0.497782	0.002738
	Zn220	Zn	0.000497	0.746094	0.503257
	Zn221	Zn	0.000275	0.250256	0.502946
	Zn222	Zn	0.001248	0.498110	0.752049
	Zn223	Zn	0.000516	0.497822	0.254425
	Zn224	Zn	0.501525	0.750394	0.003068
	Zn225	Zn	0.500530	0.247435	0.002437
	Zn226	Zn	0.750247	-0.002107	0.502734
	Zn227	Zn	0.250771	-0.001747	0.502488
	N228	N	0.411830	0.961949	0.684092
	N229	N	0.586940	0.034609	0.683205
	N230	N	0.588218	0.961887	0.322203
	N231	N	0.412899	0.034704	0.322351
	N232	N	0.677527	0.415182	0.964463
	N233	N	0.678509	0.584197	0.040305
	N234	N	0.323908	0.583003	0.965203
	N235	N	0.324337	0.414024	0.039562
	N236	N	0.962811	0.673552	0.419161
	N237	N	0.037423	0.675534	0.589067
	N238	N	0.963843	0.320964	0.588955
	N239	N	0.037159	0.322017	0.418278
	N240	N	0.963830	0.412490	0.680577
	N241	N	0.038026	0.583916	0.680943
	N242	N	0.963722	0.584285	0.325086
	N243	N	0.036971	0.411802	0.325022
	N244	N	0.414757	0.678724	0.966376
	N245	N	0.588606	0.679752	0.039073
	N246	N	0.588499	0.317788	0.966482
	N247	N	0.414199	0.319314	0.038408
	N248	N	0.676238	0.959762	0.419607
	N249	N	0.678149	0.035722	0.588200
	N250	N	0.323315	0.960258	0.587174
	N251	N	0.323472	0.036075	0.418218
	N252	N	0.913442	0.461817	0.183107
	N253	N	0.088492	0.534140	0.183980
	N254	N	0.088207	0.461388	0.822765
	N255	N	0.913742	0.534565	0.822623
	N256	N	0.177328	0.913380	0.465165
	N257	N	0.177360	0.082726	0.540571
	N258	N	0.823291	0.082429	0.465083
	N259	N	0.823086	0.913242	0.540420
	N260	N	0.462746	0.174809	0.918591
	N261	N	0.538057	0.177061	0.088940
	N262	N	0.463683	0.822052	0.087793
	N263	N	0.538667	0.822127	0.918006
	N264	N	0.463728	0.912440	0.180657
	N265	N	0.538060	0.084694	0.181150
	N266	N	0.463775	0.084380	0.825616
	N267	N	0.537567	0.911764	0.824795
	N268	N	0.912767	0.178839	0.466738
	N269	N	0.087153	0.178833	0.539146
	N270	N	0.086927	0.817770	0.466713
	N271	N	0.913171	0.817492	0.539377
	N272	N	0.177250	0.460125	0.918959
	N273	N	0.177744	0.535805	0.087163
	N274	N	0.823891	0.461306	0.087092
	N275	N	0.825118	0.536837	0.919378
	O276	O	1.047313	1.025472	-0.035212
	H277	H	1.062321	1.016099	-0.027066
	H278	H	1.031756	1.027093	-0.034592
	O279	O	0.040235	-0.016869	-0.066839
	H280	H	0.049239	-0.013631	-0.073772
	H281	H	0.031753	-0.019575	-0.066534
	O282	O	-0.062567	0.025219	1.017740
	H283	H	-0.058333	0.032742	1.010615
	H284	H	-0.070086	0.030083	1.026114
	O285	O	0.481471	0.511661	0.457783
	H286	H	0.493039	0.510208	0.458212
	H287	H	0.479521	0.517296	0.468916
	O288	O	0.460211	0.470183	0.396931
	H289	H	0.452450	0.472419	0.393955
	H290	H	0.450121	0.479999	0.399273
	O291	O	0.471012	0.476319	0.415159
	H292	H	0.468646	0.470128	0.414528
	H293	H	0.470439	0.473036	0.409943
	O294	O	0.051116	0.019910	0.072610
	H295	H	0.039411	0.017755	0.066141
	H296	H	0.058500	0.009017	0.072688
	O297	O	0.592199	0.481848	0.478274
	H298	H	0.597454	0.474042	0.471580
	H299	H	0.589763	0.482708	0.474001
	O300	O	-0.071531	1.032213	0.936212
	H301	H	-0.066673	1.041854	0.926197
	H302	H	-0.068446	1.031411	0.950557
	O303	O	0.543731	0.478407	0.456328
	H304	H	0.542333	0.475443	0.451769
	H305	H	0.547842	0.480310	0.449390
	O306	O	0.052549	-0.024614	0.941758
	H307	H	0.047982	-0.014306	0.935439
	H308	H	0.053128	-0.025417	0.939027
	O309	O	0.991176	1.003473	0.953295
	H310	H	0.995099	1.013437	0.946524
	H311	H	0.987953	1.012123	0.950952
	O312	O	0.456688	0.466355	0.485049
	H313	H	0.459966	0.468378	0.488113
	H314	H	0.455940	0.463630	0.481813
	O315	O	0.488082	0.492735	0.487926
	H316	H	0.481594	0.492066	0.487397
	H317	H	0.499033	0.492395	0.490715
	O318	O	0.018185	1.006991	-0.026892
	H319	H	0.016005	0.999617	-0.028887
	H320	H	0.017156	1.000824	-0.019053
	O321	O	1.000701	0.944732	0.027770
	H322	H	1.000865	0.935510	0.028519
	H323	H	0.994099	0.939720	0.022675
