data_Molecule from HDF5

_cell_length_a		16.239241
_cell_length_b		16.207338
_cell_length_c		16.408712
_cell_angle_alpha	89.667648
_cell_angle_beta	89.731658
_cell_angle_gamma	90.837464
_symmetry_space_group_name_H-M	'P 1'
_symmetry_Int_Tables_number		1

loop_
	_symmetry_equiv_pos_as_xyz
	x,y,z

loop_
	_atom_site_label
	_atom_site_type_symbol
	_atom_site_fract_x
	_atom_site_fract_y
	_atom_site_fract_z
	H0	H	0.390071	0.822619	0.709379
	H1	H	0.603253	0.146639	0.703438
	H2	H	0.601335	0.823612	0.268287
	H3	H	0.397174	0.146134	0.268458
	H4	H	0.717173	0.385028	0.825045
	H5	H	0.717232	0.586437	0.146931
	H6	H	0.280292	0.588424	0.825904
	H7	H	0.275968	0.377534	0.145836
	H8	H	0.834141	0.695520	0.385044
	H9	H	0.156732	0.704464	0.589568
	H10	H	0.834397	0.263812	0.585734
	H11	H	0.160158	0.271037	0.385017
	H12	H	0.835753	0.373998	0.706202
	H13	H	0.158900	0.588320	0.703586
	H14	H	0.835947	0.583059	0.268355
	H15	H	0.157206	0.377514	0.265673
	H16	H	0.399989	0.704126	0.826167
	H17	H	0.601992	0.701997	0.148242
	H18	H	0.601720	0.265929	0.825868
	H19	H	0.393080	0.263057	0.147178
	H20	H	0.709776	0.821142	0.388093
	H21	H	0.716964	0.146387	0.586323
	H22	H	0.274684	0.821552	0.592555
	H23	H	0.284526	0.146261	0.385932
	H24	H	0.892225	0.318792	0.203870
	H25	H	0.103090	0.644163	0.204533
	H26	H	0.098071	0.319972	0.770001
	H27	H	0.897358	0.643622	0.766774
	H28	H	0.216219	0.882647	0.326746
	H29	H	0.215298	0.086920	0.647678
	H30	H	0.782690	0.083496	0.325012
	H31	H	0.776899	0.879263	0.647721
	H32	H	0.334430	0.197741	0.886772
	H33	H	0.660516	0.202710	0.083986
	H34	H	0.337161	0.764041	0.088931
	H35	H	0.663317	0.775760	0.888159
	H36	H	0.336485	0.879450	0.205286
	H37	H	0.660482	0.091069	0.203546
	H38	H	0.336708	0.088939	0.767307
	H39	H	0.658281	0.882843	0.766372
	H40	H	0.900124	0.198040	0.324541
	H41	H	0.098652	0.201115	0.647427
	H42	H	0.097604	0.766828	0.325418
	H43	H	0.891638	0.761092	0.647583
	H44	H	0.212642	0.320303	0.885140
	H45	H	0.216729	0.645442	0.085619
	H46	H	0.776973	0.320697	0.086411
	H47	H	0.791226	0.649150	0.888701
	H48	H	0.405412	0.099629	0.576184
	H49	H	0.590592	0.865783	0.580546
	H50	H	0.584481	0.099357	0.398309
	H51	H	0.412099	0.868829	0.394938
	H52	H	0.597961	0.397251	0.101734
	H53	H	0.596841	0.579112	0.870520
	H54	H	0.409316	0.577329	0.101831
	H55	H	0.408498	0.392817	0.872186
	H56	H	0.112636	0.570051	0.393675
	H57	H	0.878587	0.572688	0.582249
	H58	H	0.112406	0.393662	0.576255
	H59	H	0.879309	0.389256	0.394104
	H60	H	0.113737	0.395906	0.580431
	H61	H	0.881752	0.569985	0.571348
	H62	H	0.114365	0.576599	0.392822
	H63	H	0.880418	0.388040	0.397473
	H64	H	0.403490	0.570655	0.100624
	H65	H	0.591760	0.581356	0.871285
	H66	H	0.580126	0.403950	0.094814
	H67	H	0.406894	0.391831	0.871732
	H68	H	0.597153	0.101102	0.398463
	H69	H	0.578810	0.868120	0.584714
	H70	H	0.408458	0.100293	0.581064
	H71	H	0.405993	0.869035	0.402860
	H72	H	0.916481	0.598726	0.082196
	H73	H	0.089549	0.365370	0.078827
	H74	H	0.091999	0.601390	0.887060
	H75	H	0.896242	0.361116	0.890698
	H76	H	0.086840	0.893878	0.601012
	H77	H	0.093914	0.074030	0.371489
	H78	H	0.911555	0.079529	0.601869
	H79	H	0.898574	0.889159	0.370493
	H80	H	0.614201	0.075531	0.893310
	H81	H	0.385004	0.063837	0.078731
	H82	H	0.607449	0.910423	0.069116
	H83	H	0.383381	0.893528	0.902192
	H84	H	0.620834	0.899433	0.098688
	H85	H	0.378489	0.074010	0.087961
	H86	H	0.612877	0.077555	0.895877
	H87	H	0.384242	0.896936	0.899355
	H88	H	0.897955	0.072430	0.604041
	H89	H	0.088971	0.077158	0.371966
	H90	H	0.082436	0.895529	0.598943
	H91	H	0.905936	0.894347	0.373271
	H92	H	0.082955	0.596275	0.895636
	H93	H	0.081273	0.367474	0.081109
	H94	H	0.908923	0.597239	0.073354
	H95	H	0.915212	0.368152	0.892656
	H96	H	0.411800	0.097182	0.576583
	H97	H	0.582205	0.871256	0.573288
	H98	H	0.590461	0.103263	0.388478
	H99	H	0.401899	0.865860	0.394321
	H100	H	0.581827	0.384796	0.101425
	H101	H	0.596847	0.584581	0.869083
	H102	H	0.412013	0.569407	0.097460
	H103	H	0.406700	0.393658	0.872358
	H104	H	0.111996	0.574808	0.399396
	H105	H	0.883143	0.561948	0.580286
	H106	H	0.114302	0.391792	0.579654
	H107	H	0.881399	0.391560	0.396589
	H108	H	0.904881	0.601884	0.084172
	H109	H	0.083762	0.368764	0.073052
	H110	H	0.095324	0.599358	0.899729
	H111	H	0.902668	0.368710	0.908221
	H112	H	0.082716	0.890812	0.600521
	H113	H	0.093465	0.079822	0.370330
	H114	H	0.909575	0.065473	0.597935
	H115	H	0.906957	0.885004	0.371471
	H116	H	0.612313	0.073899	0.895632
	H117	H	0.380867	0.078056	0.073502
	H118	H	0.618568	0.878537	0.072302
	H119	H	0.382085	0.892719	0.897866
	C120	C	0.375163	-0.007545	0.609928
	C121	C	0.617394	0.975633	0.608566
	C122	C	0.619362	-0.006418	0.365609
	C123	C	0.377070	0.975032	0.366342
	C124	C	0.618424	0.364407	-0.006269
	C125	C	0.623873	0.609416	0.977336
	C126	C	0.378203	0.604599	-0.005751
	C127	C	0.375024	0.360525	0.977677
	C128	C	0.005449	0.602920	0.365183
	C129	C	0.987978	0.602094	0.608007
	C130	C	0.006239	0.360671	0.609113
	C131	C	0.987976	0.360891	0.365546
	C132	C	0.876863	0.491387	0.109023
	C133	C	0.118284	0.474102	0.107817
	C134	C	0.119334	0.491518	0.864667
	C135	C	0.876961	0.473665	0.866321
	C136	C	0.116169	0.862726	0.494610
	C137	C	0.121008	0.107082	0.477797
	C138	C	0.876951	0.103063	0.495017
	C139	C	0.872472	0.858323	0.478000
	C140	C	0.506025	0.105790	0.865300
	C141	C	0.489195	0.104955	0.108626
	C142	C	0.508350	0.862606	0.110337
	C143	C	0.490070	0.864920	0.867476
	C144	C	0.372039	0.870923	0.669593
	C145	C	0.620709	0.097901	0.664826
	C146	C	0.619236	0.871762	0.307781
	C147	C	0.377545	0.097139	0.307758
	C148	C	0.677368	0.365388	0.873024
	C149	C	0.679569	0.607032	0.098918
	C150	C	0.320109	0.606998	0.873796
	C151	C	0.315489	0.358750	0.098133
	C152	C	0.883197	0.657849	0.365671
	C153	C	0.108958	0.663947	0.608148
	C154	C	0.883586	0.301738	0.607076
	C155	C	0.110728	0.306701	0.365500
	C156	C	0.884180	0.356661	0.667093
	C157	C	0.109787	0.605961	0.664994
	C158	C	0.884071	0.601844	0.307513
	C159	C	0.109279	0.360149	0.306251
	C160	C	0.379592	0.664634	0.873841
	C161	C	0.622052	0.664186	0.099473
	C162	C	0.619981	0.306034	0.873553
	C163	C	0.373781	0.301791	0.098746
	C164	C	0.673668	0.870479	0.367284
	C165	C	0.677652	0.097555	0.606658
	C166	C	0.314951	0.870165	0.611328
	C167	C	0.321710	0.097490	0.366640
	C168	C	0.873991	0.368136	0.165302
	C169	C	0.120907	0.595824	0.165113
	C170	C	0.118162	0.369098	0.807857
	C171	C	0.878768	0.595995	0.807243
	C172	C	0.176079	0.862957	0.374256
	C173	C	0.176957	0.106245	0.599298
	C174	C	0.821327	0.102680	0.373208
	C175	C	0.815281	0.858868	0.599307
	C176	C	0.383624	0.161176	0.866424
	C177	C	0.611908	0.163933	0.105057
	C178	C	0.385962	0.803245	0.109134
	C179	C	0.613432	0.811762	0.868005
	C180	C	0.385518	0.860619	0.167084
	C181	C	0.611907	0.108185	0.164550
	C182	C	0.384560	0.106533	0.807341
	C183	C	0.610901	0.865059	0.807342
	C184	C	0.879410	0.160106	0.373107
	C185	C	0.118853	0.163233	0.599142
	C186	C	0.116917	0.805624	0.373712
	C187	C	0.872293	0.800181	0.599199
	C188	C	0.175180	0.369138	0.865296
	C189	C	0.177544	0.596492	0.105875
	C190	C	0.816515	0.369062	0.107369
	C191	C	0.825941	0.598701	0.868035
	C192	C	0.400971	0.076897	0.584984
	C193	C	0.591221	0.890388	0.586050
	C194	C	0.597122	0.079085	0.388534
	C195	C	0.400011	0.890169	0.390470
	C196	C	0.593709	0.388444	0.077688
	C197	C	0.601683	0.588055	0.892478
	C198	C	0.401539	0.579657	0.078135
	C199	C	0.400042	0.385577	0.893954
	C200	C	0.090788	0.580303	0.388508
	C201	C	0.903122	0.575783	0.584816
	C202	C	0.091333	0.386349	0.585780
	C203	C	0.902645	0.383152	0.389168
	C204	C	0.902637	0.576880	0.086337
	C205	C	0.092428	0.388943	0.084537
	C206	C	0.096653	0.576851	0.887443
	C207	C	0.898351	0.388364	0.890152
	C208	C	0.091354	0.886733	0.578515
	C209	C	0.098578	0.083765	0.393264
	C210	C	0.899625	0.079227	0.579336
	C211	C	0.896770	0.882433	0.393792
	C212	C	0.591090	0.082460	0.888164
	C213	C	0.403804	0.079367	0.086583
	C214	C	0.593453	0.888520	0.086892
	C215	C	0.405361	0.887758	0.892347
	Zn216	Zn	0.497241	-0.014892	0.738080
	Zn217	Zn	0.498934	-0.015117	0.238137
	Zn218	Zn	0.749596	0.485801	-0.013679
	Zn219	Zn	0.247047	0.482550	-0.014592
	Zn220	Zn	-0.004762	0.730483	0.486239
	Zn221	Zn	-0.002053	0.234129	0.485773
	Zn222	Zn	-0.002758	0.481553	0.737787
	Zn223	Zn	-0.002426	0.481120	0.238032
	Zn224	Zn	0.500609	0.735578	-0.012628
	Zn225	Zn	0.496649	0.232979	-0.013666
	Zn226	Zn	0.746117	-0.016926	0.487088
	Zn227	Zn	0.247755	-0.016325	0.487217
	N228	N	0.408670	0.947901	0.669129
	N229	N	0.583527	0.021200	0.665822
	N230	N	0.586364	0.949436	0.306511
	N231	N	0.411374	0.020029	0.307552
	N232	N	0.676624	0.401105	0.948801
	N233	N	0.681013	0.573685	0.022017
	N234	N	0.319327	0.570262	0.949441
	N235	N	0.315937	0.394406	0.021826
	N236	N	0.959833	0.658725	0.400800
	N237	N	0.032167	0.661608	0.573428
	N238	N	0.960675	0.303900	0.571930
	N239	N	0.034296	0.306996	0.401838
	N240	N	0.961437	0.392534	0.668464
	N241	N	0.033433	0.568194	0.665155
	N242	N	0.961395	0.568324	0.306952
	N243	N	0.031933	0.393184	0.305993
	N244	N	0.414904	0.663361	0.949841
	N245	N	0.588383	0.666134	0.022957
	N246	N	0.583838	0.305573	0.949469
	N247	N	0.409952	0.302708	0.022854
	N248	N	0.673895	0.947211	0.402467
	N249	N	0.675618	0.020322	0.572347
	N250	N	0.316655	0.946654	0.575025
	N251	N	0.321235	0.020506	0.402588
	N252	N	0.910544	0.445283	0.166524
	N253	N	0.085023	0.518482	0.166473
	N254	N	0.084322	0.446269	0.807208
	N255	N	0.909608	0.517451	0.805770
	N256	N	0.175631	0.897758	0.450483
	N257	N	0.178699	0.072062	0.522761
	N258	N	0.819740	0.067832	0.449746
	N259	N	0.815093	0.894169	0.523031
	N260	N	0.460155	0.160763	0.901796
	N261	N	0.534563	0.162213	0.071515
	N262	N	0.463349	0.804241	0.074790
	N263	N	0.537149	0.811288	0.904851
	N264	N	0.462776	0.896571	0.168128
	N265	N	0.534492	0.072551	0.166960
	N266	N	0.461877	0.072953	0.806266
	N267	N	0.533094	0.897459	0.806906
	N268	N	0.913466	0.160519	0.449752
	N269	N	0.084861	0.163866	0.522677
	N270	N	0.080674	0.805165	0.449686
	N271	N	0.906926	0.799585	0.522608
	N272	N	0.175962	0.446244	0.899948
	N273	N	0.175859	0.519610	0.071010
	N274	N	0.817960	0.446771	0.073270
	N275	N	0.824729	0.521831	0.904306
	O276	O	0.326122	0.472233	0.418985
	H277	H	0.315394	0.478931	0.415155
	H278	H	0.323987	0.478085	0.409380
	O279	O	0.501231	0.539007	0.302154
	H280	H	0.497902	0.524158	0.314045
	H281	H	0.502000	0.521635	0.312331
	O282	O	0.967480	-0.112802	1.006040
	H283	H	0.976314	-0.104574	0.997986
	H284	H	0.961742	-0.104713	1.012242
	O285	O	0.566308	0.402844	0.385969
	H286	H	0.565634	0.395359	0.385362
	H287	H	0.564784	0.399004	0.367125
	O288	O	1.099214	0.884330	1.104994
	H289	H	1.099047	0.879786	1.099262
	H290	H	1.083251	0.880654	1.109591
	O291	O	0.023440	0.999312	-0.040447
	H292	H	0.030879	0.983772	-0.041710
	H293	H	0.022195	0.993411	-0.049035
	O294	O	0.648325	0.669315	0.495998
	H295	H	0.653365	0.685466	0.495663
	H296	H	0.640168	0.664904	0.494595
	O297	O	0.521288	0.428527	0.503112
	H298	H	0.506314	0.436974	0.514861
	H299	H	0.518081	0.404809	0.497695
	O300	O	0.398947	0.503433	0.552570
	H301	H	0.406059	0.505822	0.548691
	H302	H	0.412371	0.504168	0.559065
	O303	O	0.483048	0.445354	0.450435
	H304	H	0.482549	0.438656	0.448519
	H305	H	0.497780	0.448018	0.451110
	O306	O	0.359795	0.402322	0.642295
	H307	H	0.358494	0.411482	0.645331
	H308	H	0.365643	0.424924	0.640401
	O309	O	0.473513	0.310650	0.463591
	H310	H	0.468881	0.305180	0.464806
	H311	H	0.480980	0.326040	0.454740
	O312	O	0.015622	-0.046292	0.030984
	H313	H	0.020400	-0.036415	0.024791
	H314	H	-0.006217	-0.048084	0.029965
	O315	O	0.432573	0.689144	0.334832
	H316	H	0.450445	0.679035	0.346756
	H317	H	0.442653	0.701763	0.325386
	O318	O	-0.144498	0.875161	1.065912
	H319	H	-0.143979	0.862071	1.074004
	H320	H	-0.155594	0.876997	1.071697
	O321	O	0.518630	0.517658	0.667882
	H322	H	0.514606	0.514867	0.660824
	H323	H	0.531270	0.511061	0.678661
	O324	O	0.092806	0.957305	-0.067011
	H325	H	0.084874	0.960855	-0.068524
	H326	H	0.094562	0.957354	-0.064412
	O327	O	0.458013	0.529897	0.649087
	H328	H	0.454168	0.516212	0.660929
	H329	H	0.444789	0.515769	0.660916
	O330	O	-0.000280	0.060335	1.158744
	H331	H	0.010371	0.066535	1.160314
	H332	H	-0.000744	0.062281	1.172308
	O333	O	-0.014908	0.168997	1.007396
	H334	H	-0.018795	0.167742	1.012763
	H335	H	-0.015643	0.174569	1.015489
	O336	O	0.672497	0.420225	0.358321
	H337	H	0.689271	0.420995	0.351318
	H338	H	0.659947	0.422121	0.371102
	O339	O	0.564685	0.676160	0.586722
	H340	H	0.560263	0.670888	0.580198
	H341	H	0.555722	0.683765	0.593567
	O342	O	0.420171	-0.516306	0.620655
	H343	H	0.406176	-0.518555	0.604643
	H344	H	0.424759	-0.519371	0.633759
	O345	O	1.591510	0.446017	1.336548
	H346	H	1.587807	0.444091	1.340151
	H347	H	1.581254	0.455961	1.339200
	O348	O	0.982712	1.001002	-0.012729
	H349	H	0.986837	1.008225	-0.016124
	H350	H	0.975304	1.012182	-0.017103
	O351	O	0.615040	0.566506	0.475938
	H352	H	0.598156	0.570082	0.473844
	H353	H	0.611979	0.565989	0.473756
	O354	O	0.943112	0.091557	0.959599
	H355	H	0.937089	0.101545	0.977935
	H356	H	0.939737	0.080268	0.951936
	O357	O	0.325863	0.551298	0.503398
	H358	H	0.332129	0.574410	0.498706
	H359	H	0.330731	0.547043	0.498055
	O360	O	0.872064	0.914254	0.981408
	H361	H	0.875514	0.923014	0.976469
	H362	H	0.865593	0.894442	0.984910
	O363	O	0.002057	0.934968	0.842463
	H364	H	0.005810	0.927282	0.836692
	H365	H	0.012012	0.942475	0.850598
	O366	O	0.611495	0.387957	0.638860
	H367	H	0.619273	0.392530	0.653023
	H368	H	0.619464	0.388622	0.639905
	O369	O	-0.020439	0.964123	-0.140420
	H370	H	-0.037366	0.955900	-0.128427
	H371	H	-0.010914	0.959742	-0.148127
	O372	O	0.630584	0.416848	0.429032
	H373	H	0.632519	0.426218	0.423457
	H374	H	0.611068	0.401899	0.431143
	O375	O	0.557447	0.409761	0.391359
	H376	H	0.546040	0.407242	0.387448
	H377	H	0.547782	0.405489	0.401483
	O378	O	0.911657	0.804410	-0.050922
	H379	H	0.901345	0.808653	-0.047633
	H380	H	0.915338	0.793059	-0.059936
	O381	O	0.897343	0.100522	-0.112471
	H382	H	0.915424	0.105132	-0.117601
	H383	H	0.903475	0.109638	-0.105938
	O384	O	1.067580	1.089989	-0.123994
	H385	H	1.071870	1.100956	-0.122681
	H386	H	1.062203	1.079789	-0.120888
	O387	O	-0.583806	0.343897	0.678618
	H388	H	-0.586536	0.351428	0.684247
	H389	H	-0.573695	0.347848	0.675397
	O390	O	-0.020598	1.077477	0.034455
	H391	H	-0.018624	1.073327	0.042232
	H392	H	-0.013017	1.085893	0.017237
	O393	O	1.053001	0.880963	1.030701
	H394	H	1.044097	0.889707	1.021174
	H395	H	1.046413	0.882686	1.041873
	O396	O	0.557913	0.557739	0.484429
	H397	H	0.556094	0.568294	0.465918
	H398	H	0.556796	0.540461	0.488060
	O399	O	0.139631	1.029292	1.111173
	H400	H	0.154653	1.032231	1.094958
	H401	H	0.125812	1.015778	1.118026
	O402	O	0.404338	0.485404	0.420884
	H403	H	0.408543	0.483467	0.410184
	H404	H	0.402170	0.487154	0.410547
	O405	O	1.152528	0.897058	-0.103208
	H406	H	1.151851	0.879659	-0.097422
	H407	H	1.173302	0.893856	-0.113058
	O408	O	0.857908	0.906098	0.182572
	H409	H	0.854160	0.900127	0.189955
	H410	H	0.857587	0.905346	0.184530
	O411	O	1.230766	0.206066	1.300018
	H412	H	1.223248	0.183026	1.309228
	H413	H	1.242583	0.204352	1.314492
	O414	O	0.308979	0.647892	0.351407
	H415	H	0.311020	0.654494	0.361807
	H416	H	0.317777	0.635678	0.340104
	O417	O	0.041072	0.073231	0.808074
	H418	H	0.053160	0.069865	0.798723
	H419	H	0.054594	0.067080	0.802282
