data_Molecule from HDF5

_cell_length_a		16.591695
_cell_length_b		16.616853
_cell_length_c		16.520787
_cell_angle_alpha	90.060906
_cell_angle_beta	90.096089
_cell_angle_gamma	90.029096
_symmetry_space_group_name_H-M	'P 1'
_symmetry_Int_Tables_number		1

loop_
	_symmetry_equiv_pos_as_xyz
	x,y,z

loop_
	_atom_site_label
	_atom_site_type_symbol
	_atom_site_fract_x
	_atom_site_fract_y
	_atom_site_fract_z
	H0	H	0.405837	0.838754	0.738528
	H1	H	0.619347	0.148129	0.737886
	H2	H	0.617739	0.836442	0.294454
	H3	H	0.405447	0.146163	0.290166
	H4	H	0.736408	0.383314	0.859426
	H5	H	0.733999	0.594650	0.170789
	H6	H	0.293403	0.593867	0.857874
	H7	H	0.294072	0.387679	0.171756
	H8	H	0.857670	0.711916	0.409722
	H9	H	0.167493	0.716456	0.623164
	H10	H	0.857385	0.271312	0.619148
	H11	H	0.168936	0.268888	0.408445
	H12	H	0.857337	0.386889	0.734929
	H13	H	0.167749	0.598800	0.738416
	H14	H	0.857900	0.595255	0.293186
	H15	H	0.169349	0.386063	0.292064
	H16	H	0.410418	0.709959	0.857437
	H17	H	0.619142	0.711996	0.170362
	H18	H	0.619690	0.267279	0.858605
	H19	H	0.408194	0.269899	0.170943
	H20	H	0.734769	0.837413	0.411362
	H21	H	0.735443	0.148576	0.621276
	H22	H	0.287573	0.839069	0.624062
	H23	H	0.287169	0.145622	0.405060
	H24	H	0.910434	0.335683	0.234866
	H25	H	0.119404	0.648305	0.235433
	H26	H	0.120198	0.334817	0.791037
	H27	H	0.909068	0.646821	0.793171
	H28	H	0.235787	0.885862	0.359312
	H29	H	0.239007	0.101375	0.670295
	H30	H	0.791615	0.097834	0.359255
	H31	H	0.795061	0.889978	0.671344
	H32	H	0.356917	0.215390	0.905426
	H33	H	0.667240	0.215214	0.121196
	H34	H	0.358017	0.769298	0.119544
	H35	H	0.669049	0.770102	0.908111
	H36	H	0.357629	0.886146	0.235596
	H37	H	0.669127	0.096467	0.234699
	H38	H	0.357271	0.099237	0.789905
	H39	H	0.670447	0.888529	0.795094
	H40	H	0.909271	0.213024	0.358205
	H41	H	0.122347	0.216270	0.671425
	H42	H	0.120515	0.769305	0.359321
	H43	H	0.909711	0.772388	0.671018
	H44	H	0.236956	0.334669	0.906566
	H45	H	0.235430	0.647695	0.119391
	H46	H	0.791609	0.336710	0.120528
	H47	H	0.789546	0.644963	0.906661
	H48	H	0.426296	0.101701	0.599008
	H49	H	0.607766	0.879940	0.604536
	H50	H	0.606285	0.105502	0.425352
	H51	H	0.428555	0.883154	0.426413
	H52	H	0.598328	0.401728	0.125385
	H53	H	0.597669	0.578273	0.903745
	H54	H	0.422827	0.580662	0.127839
	H55	H	0.422929	0.402461	0.901619
	H56	H	0.126167	0.584048	0.428165
	H57	H	0.902618	0.582817	0.597979
	H58	H	0.122456	0.407219	0.596924
	H59	H	0.903994	0.405507	0.427332
	H60	H	0.125908	0.407298	0.607686
	H61	H	0.902757	0.576277	0.603806
	H62	H	0.124092	0.578284	0.429119
	H63	H	0.901277	0.403606	0.422508
	H64	H	0.425260	0.582234	0.127743
	H65	H	0.601491	0.584945	0.900152
	H66	H	0.603030	0.401417	0.127518
	H67	H	0.426276	0.406053	0.903547
	H68	H	0.600189	0.104748	0.421994
	H69	H	0.603271	0.880008	0.607320
	H70	H	0.427267	0.102321	0.601492
	H71	H	0.423651	0.881739	0.430423
	H72	H	0.926777	0.602756	0.104246
	H73	H	0.098861	0.379800	0.105899
	H74	H	0.108792	0.602585	0.925733
	H75	H	0.920586	0.380050	0.931781
	H76	H	0.094909	0.906606	0.623401
	H77	H	0.096194	0.079980	0.405459
	H78	H	0.928036	0.082761	0.627025
	H79	H	0.926605	0.895815	0.400098
	H80	H	0.621486	0.077039	0.931503
	H81	H	0.400198	0.081706	0.102936
	H82	H	0.629016	0.897450	0.110924
	H83	H	0.402476	0.899408	0.928566
	H84	H	0.624993	0.897138	0.097109
	H85	H	0.402090	0.079422	0.098936
	H86	H	0.623556	0.077500	0.922696
	H87	H	0.402832	0.904839	0.926171
	H88	H	0.923377	0.084852	0.629297
	H89	H	0.101761	0.083326	0.402569
	H90	H	0.101125	0.899064	0.628578
	H91	H	0.917636	0.903954	0.399945
	H92	H	0.098830	0.601384	0.922379
	H93	H	0.103292	0.381871	0.097763
	H94	H	0.922842	0.602409	0.100269
	H95	H	0.922112	0.376031	0.918821
	H96	H	0.429195	0.101465	0.599482
	H97	H	0.603360	0.882179	0.602240
	H98	H	0.600995	0.103542	0.428792
	H99	H	0.423524	0.879889	0.424507
	H100	H	0.601574	0.405229	0.124461
	H101	H	0.605895	0.577807	0.901169
	H102	H	0.423204	0.582798	0.129066
	H103	H	0.427661	0.400945	0.902661
	H104	H	0.126607	0.579523	0.424092
	H105	H	0.900131	0.583921	0.606821
	H106	H	0.126942	0.398376	0.601599
	H107	H	0.902420	0.399901	0.427353
	H108	H	0.922243	0.605130	0.104863
	H109	H	0.107860	0.377987	0.104909
	H110	H	0.101098	0.598533	0.931963
	H111	H	0.932399	0.381262	0.926098
	H112	H	0.105550	0.909027	0.627041
	H113	H	0.102146	0.077451	0.405237
	H114	H	0.923914	0.079916	0.627905
	H115	H	0.928109	0.907554	0.403344
	H116	H	0.625031	0.084526	0.927974
	H117	H	0.401185	0.077022	0.102739
	H118	H	0.623531	0.909337	0.104769
	H119	H	0.400929	0.900174	0.923134
	C120	C	0.392961	0.000423	0.635302
	C121	C	0.636003	0.984019	0.637161
	C122	C	0.634947	0.001433	0.393301
	C123	C	0.391319	0.983540	0.393086
	C124	C	0.634232	0.369207	0.023091
	C125	C	0.634252	0.611925	1.005580
	C126	C	0.392387	0.612827	0.023692
	C127	C	0.392910	0.370758	1.006160
	C128	C	0.022401	0.612785	0.393815
	C129	C	1.004436	0.613839	0.636483
	C130	C	0.022156	0.371497	0.634706
	C131	C	1.005298	0.370198	0.392783
	C132	C	0.892658	0.500303	0.135139
	C133	C	0.135453	0.483162	0.135361
	C134	C	0.135875	0.498507	0.892755
	C135	C	0.892472	0.482264	0.892964
	C136	C	0.134173	0.871576	0.523636
	C137	C	0.134945	0.114075	0.506871
	C138	C	0.892544	0.114330	0.524275
	C139	C	0.892333	0.870946	0.505029
	C140	C	0.520613	0.112929	0.893306
	C141	C	0.504042	0.112669	0.134993
	C142	C	0.522586	0.869319	0.136066
	C143	C	0.505228	0.870199	0.893519
	C144	C	0.388332	0.884535	0.697551
	C145	C	0.637626	0.101393	0.697300
	C146	C	0.636526	0.883415	0.334425
	C147	C	0.387600	0.099687	0.330841
	C148	C	0.695720	0.365361	0.905874
	C149	C	0.694029	0.613277	0.123679
	C150	C	0.333338	0.613273	0.904996
	C151	C	0.333486	0.368779	0.124506
	C152	C	0.904600	0.671941	0.391367
	C153	C	0.121152	0.675141	0.640314
	C154	C	0.904379	0.311395	0.637190
	C155	C	0.122592	0.309843	0.390322
	C156	C	0.904303	0.369000	0.694726
	C157	C	0.121421	0.616867	0.697721
	C158	C	0.904703	0.613847	0.333744
	C159	C	0.122970	0.367791	0.332452
	C160	C	0.391163	0.670839	0.904740
	C161	C	0.636883	0.671543	0.123605
	C162	C	0.637784	0.307754	0.905646
	C163	C	0.389955	0.310196	0.124025
	C164	C	0.694700	0.883910	0.392214
	C165	C	0.695392	0.101667	0.639290
	C166	C	0.329447	0.885089	0.640957
	C167	C	0.328835	0.099471	0.387940
	C168	C	0.891180	0.382881	0.195260
	C169	C	0.137438	0.601213	0.195148
	C170	C	0.138260	0.381580	0.831483
	C171	C	0.890134	0.599763	0.832941
	C172	C	0.195559	0.867877	0.406267
	C173	C	0.197844	0.118567	0.623701
	C174	C	0.832307	0.116210	0.405990
	C175	C	0.834056	0.870519	0.624005
	C176	C	0.403755	0.174624	0.888275
	C177	C	0.620844	0.174189	0.138604
	C178	C	0.404962	0.809218	0.138083
	C179	C	0.622513	0.810582	0.890728
	C180	C	0.404808	0.867202	0.195941
	C181	C	0.621537	0.115356	0.195376
	C182	C	0.403907	0.116687	0.830793
	C183	C	0.622815	0.869263	0.834072
	C184	C	0.890707	0.173286	0.405542
	C185	C	0.140016	0.176011	0.624173
	C186	C	0.138106	0.810030	0.406226
	C187	C	0.890975	0.812147	0.623799
	C188	C	0.196511	0.381669	0.889135
	C189	C	0.195339	0.600899	0.137549
	C190	C	0.832315	0.383142	0.138228
	C191	C	0.830752	0.598854	0.889161
	C192	C	0.420102	0.080930	0.607850
	C193	C	0.611694	0.901952	0.612051
	C194	C	0.609772	0.083317	0.418076
	C195	C	0.417623	0.902675	0.419650
	C196	C	0.608414	0.395223	0.104594
	C197	C	0.608978	0.587458	0.922960
	C198	C	0.416734	0.588883	0.106622
	C199	C	0.418194	0.395882	0.924197
	C200	C	0.104345	0.587714	0.419649
	C201	C	0.922953	0.588082	0.610295
	C202	C	0.103747	0.396927	0.609363
	C203	C	0.923689	0.395829	0.418354
	C204	C	0.917107	0.582120	0.110122
	C205	C	0.110376	0.401315	0.110122
	C206	C	0.109960	0.579880	0.919069
	C207	C	0.917823	0.400544	0.918296
	C208	C	0.108039	0.897497	0.605076
	C209	C	0.107976	0.087626	0.425713
	C210	C	0.917843	0.089453	0.606655
	C211	C	0.917097	0.895416	0.422556
	C212	C	0.602134	0.087321	0.919903
	C213	C	0.422403	0.086930	0.109000
	C214	C	0.604441	0.894279	0.111418
	C215	C	0.423288	0.894594	0.918804
	Zn216	Zn	0.513324	-0.008076	0.764854
	Zn217	Zn	0.513036	-0.008328	0.264394
	Zn218	Zn	0.762892	0.491056	0.013831
	Zn219	Zn	0.264694	0.490728	0.014803
	Zn220	Zn	0.013446	0.742312	0.514493
	Zn221	Zn	0.014130	0.242111	0.515029
	Zn222	Zn	0.013785	0.491042	0.764128
	Zn223	Zn	0.014763	0.491904	0.264203
	Zn224	Zn	0.514293	0.741005	0.013782
	Zn225	Zn	0.512041	0.241826	0.013766
	Zn226	Zn	0.764315	-0.006866	0.515263
	Zn227	Zn	0.262978	-0.007608	0.515120
	N228	N	0.427360	0.957336	0.694028
	N229	N	0.601675	0.027061	0.696332
	N230	N	0.600297	0.957613	0.334822
	N231	N	0.425797	0.026524	0.333793
	N232	N	0.693872	0.402887	0.979945
	N233	N	0.692509	0.577019	0.049255
	N234	N	0.333778	0.578097	0.980068
	N235	N	0.335027	0.405507	0.050154
	N236	N	0.978983	0.671649	0.427785
	N237	N	0.047358	0.673494	0.602994
	N238	N	0.978609	0.312581	0.600874
	N239	N	0.048435	0.311154	0.426978
	N240	N	0.978592	0.405843	0.693314
	N241	N	0.047821	0.579265	0.695327
	N242	N	0.979239	0.578023	0.334904
	N243	N	0.048896	0.404512	0.333730
	N244	N	0.427063	0.670845	0.979749
	N245	N	0.600384	0.670634	0.048915
	N246	N	0.600327	0.310032	0.979486
	N247	N	0.426131	0.311268	0.049509
	N248	N	0.694265	0.958579	0.427795
	N249	N	0.694567	0.027590	0.602554
	N250	N	0.332205	0.958289	0.603061
	N251	N	0.331083	0.026146	0.425955
	N252	N	0.928046	0.456640	0.193543
	N253	N	0.100911	0.527086	0.193947
	N254	N	0.101061	0.455411	0.833680
	N255	N	0.927599	0.526213	0.834986
	N256	N	0.193270	0.905506	0.480293
	N257	N	0.194939	0.080751	0.549724
	N258	N	0.833211	0.080385	0.480853
	N259	N	0.834698	0.906477	0.549111
	N260	N	0.477313	0.172463	0.926325
	N261	N	0.546713	0.172518	0.101663
	N262	N	0.479422	0.810083	0.101746
	N263	N	0.548241	0.810950	0.926881
	N264	N	0.478944	0.903782	0.194930
	N265	N	0.547796	0.077843	0.193354
	N266	N	0.477768	0.079030	0.833723
	N267	N	0.548721	0.905634	0.835444
	N268	N	0.927230	0.172361	0.480170
	N269	N	0.101590	0.173404	0.550535
	N270	N	0.100669	0.811959	0.480205
	N271	N	0.926380	0.812171	0.548821
	N272	N	0.195195	0.455427	0.926493
	N273	N	0.194397	0.526514	0.101080
	N274	N	0.832742	0.457317	0.101863
	N275	N	0.832027	0.524644	0.925678
	O276	O	-0.004099	0.931523	0.004278
	H277	H	0.002797	0.938293	0.010405
	H278	H	-0.004620	0.919622	0.007987
	O279	O	0.329190	0.299374	0.327130
	H280	H	0.344873	0.312020	0.346782
	H281	H	0.349214	0.320279	0.339134
	O282	O	1.189944	0.125493	0.918405
	H283	H	1.193340	0.124707	0.943580
	H284	H	1.192366	0.136163	0.912655
	O285	O	0.736286	0.465559	0.300226
	H286	H	0.746857	0.448712	0.293951
	H287	H	0.751143	0.441443	0.289177
	O288	O	0.668677	0.414011	0.647243
	H289	H	0.679749	0.397272	0.665014
	H290	H	0.655374	0.444873	0.655079
	O291	O	0.614409	0.270461	0.552247
	H292	H	0.621992	0.263354	0.579858
	H293	H	0.608958	0.299154	0.551855
	O294	O	0.797171	-0.041226	1.227128
	H295	H	0.808895	-0.030239	1.241128
	H296	H	0.784360	-0.052437	1.239376
	O297	O	0.262947	0.773365	0.766120
	H298	H	0.254854	0.789139	0.785881
	H299	H	0.275227	0.750331	0.740839
	O300	O	0.153551	0.009758	1.182167
	H301	H	0.151705	0.005202	1.193706
	H302	H	0.161916	0.020094	1.182955
	O303	O	0.577937	0.493592	0.445365
	H304	H	0.580723	0.494090	0.451460
	H305	H	0.586226	0.487224	0.432377
	O306	O	0.515518	0.653544	0.475312
	H307	H	0.508056	0.642394	0.478535
	H308	H	0.509423	0.656786	0.491192
	O309	O	0.694778	0.325106	0.461680
	H310	H	0.703382	0.304160	0.471626
	H311	H	0.686290	0.330898	0.467634
	O312	O	0.484335	0.258918	0.475219
	H313	H	0.503541	0.260316	0.486159
	H314	H	0.493244	0.258407	0.472055
	O315	O	1.233956	0.791531	1.004577
	H316	H	1.219410	0.791033	1.013951
	H317	H	1.258456	0.768516	1.003134
	O318	O	0.569579	0.485314	0.729459
	H319	H	0.581996	0.486741	0.724311
	H320	H	0.572796	0.476538	0.735675
	O321	O	0.297083	0.710116	0.487695
	H322	H	0.286755	0.713742	0.489041
	H323	H	0.283310	0.706778	0.483709
	O324	O	1.190527	0.851840	0.169230
	H325	H	1.190979	0.853127	0.175480
	H326	H	1.188159	0.862428	0.149644
	O327	O	-0.031962	-0.074556	0.805930
	H328	H	-0.022233	-0.060008	0.797867
	H329	H	-0.030089	-0.074717	0.811188
	O330	O	0.733422	0.708930	0.551399
	H331	H	0.732026	0.722126	0.548847
	H332	H	0.746763	0.706884	0.538981
	O333	O	0.740456	0.455318	0.562462
	H334	H	0.737474	0.438810	0.573936
	H335	H	0.741544	0.449474	0.576898
	O336	O	0.721185	0.284933	0.305636
	H337	H	0.753147	0.252810	0.283312
	H338	H	0.719327	0.282892	0.337529
	O339	O	0.804548	0.203341	0.982444
	H340	H	0.795193	0.193348	0.997077
	H341	H	0.796589	0.213927	0.988096
	O342	O	0.078273	-0.038690	0.200706
	H343	H	0.089793	-0.039123	0.201380
	H344	H	0.077850	-0.054824	0.203543
	O345	O	-0.206475	1.018519	0.928341
	H346	H	-0.219988	1.006155	0.917059
	H347	H	-0.198487	1.030639	0.921649
	O348	O	0.142851	0.089757	-0.034408
	H349	H	0.156642	0.083601	-0.026578
	H350	H	0.129466	0.076248	-0.028463
	O351	O	0.560514	0.655515	0.689902
	H352	H	0.574106	0.663717	0.702679
	H353	H	0.574217	0.645605	0.691087
	O354	O	-0.056183	0.044586	1.240887
	H355	H	-0.036636	0.041773	1.242450
	H356	H	-0.055489	0.052075	1.235164
	O357	O	0.228428	0.205449	0.142774
	H358	H	0.251038	0.234508	0.165110
	H359	H	0.218391	0.209874	0.140603
	O360	O	0.289278	0.468082	0.727912
	H361	H	0.276195	0.451374	0.751045
	H362	H	0.298578	0.454938	0.735742
	O363	O	0.139215	0.004878	-0.084471
	H364	H	0.141827	0.000211	-0.085825
	H365	H	0.141070	0.003551	-0.072972
	O366	O	0.374104	0.680641	0.706491
	H367	H	0.373949	0.658933	0.694713
	H368	H	0.389635	0.672573	0.700741
	O369	O	0.824800	-0.189284	0.060781
	H370	H	0.804287	-0.214263	0.081518
	H371	H	0.827337	-0.188403	0.076283
	O372	O	0.991126	1.203469	0.142462
	H373	H	0.987648	1.219723	0.133794
	H374	H	1.003038	1.197134	0.140551
	O375	O	1.088503	-0.019193	0.066261
	H376	H	1.077096	-0.023557	0.068208
	H377	H	1.087750	-0.027782	0.090919
	O378	O	0.292375	0.405556	0.463840
	H379	H	0.294610	0.412025	0.468666
	H380	H	0.306308	0.404187	0.451281
	O381	O	0.049324	0.777565	0.816247
	H382	H	0.046959	0.773466	0.798832
	H383	H	0.061333	0.775732	0.809357
	O384	O	0.459437	0.492092	0.721481
	H385	H	0.452694	0.511184	0.720974
	H386	H	0.476807	0.476060	0.708668
	O387	O	0.725559	0.701813	-0.276687
	H388	H	0.716027	0.706350	-0.312398
	H389	H	0.746884	0.728568	-0.253964
	O390	O	0.547015	0.272188	0.306890
	H391	H	0.572227	0.265925	0.304528
	H392	H	0.559231	0.255195	0.299972
	O393	O	0.733494	0.511540	0.730391
	H394	H	0.748259	0.531183	0.752597
	H395	H	0.733358	0.541128	0.729168
	O396	O	-0.171107	0.801421	0.825246
	H397	H	-0.147488	0.804057	0.847418
	H398	H	-0.165873	0.821818	0.830071
	O399	O	-0.195184	0.008875	0.847853
	H400	H	-0.207202	0.016844	0.827839
	H401	H	-0.188429	0.002584	0.855758
	O402	O	0.428136	0.573488	0.498913
	H403	H	0.428694	0.568386	0.482157
	H404	H	0.435509	0.582137	0.510463
	O405	O	0.983283	0.207396	0.799931
	H406	H	0.978013	0.212514	0.782302
	H407	H	0.994126	0.195420	0.795371
	O408	O	-0.175331	0.180135	0.202915
	H409	H	-0.161127	0.169950	0.173627
	H410	H	-0.155730	0.154436	0.191955
	O411	O	0.420102	0.434232	0.488356
	H412	H	0.420371	0.433000	0.482319
	H413	H	0.409837	0.450758	0.482201
	O414	O	0.337086	0.266299	0.525764
	H415	H	0.323316	0.259587	0.526918
	H416	H	0.350770	0.252516	0.510519
	O417	O	0.468792	0.423456	0.299597
	H418	H	0.480032	0.425863	0.296442
	H419	H	0.489935	0.411339	0.292457
	O420	O	0.306368	0.567611	0.585334
	H421	H	0.315552	0.564126	0.578255
	H422	H	0.298933	0.555732	0.604107
	O423	O	0.489321	0.286180	0.728722
	H424	H	0.472152	0.294116	0.723195
	H425	H	0.494086	0.266239	0.745007
	O426	O	0.546620	0.553798	0.288600
	H427	H	0.556466	0.565634	0.294229
	H428	H	0.562518	0.550692	0.281671
	O429	O	1.323568	1.300134	0.701874
	H430	H	1.340016	1.309207	0.713473
	H431	H	1.314910	1.289872	0.654181
	O432	O	-0.040625	0.834862	0.900438
	H433	H	-0.030191	0.832861	0.893132
	H434	H	-0.045777	0.826730	0.918137
	O435	O	-0.019263	0.774761	0.227182
	H436	H	-0.029347	0.773351	0.217958
	H437	H	-0.024986	0.756032	0.248198
	O438	O	-0.070836	-0.116001	-0.006862
	H439	H	-0.078508	-0.130001	0.001897
	H440	H	-0.053388	-0.118282	0.004345
	O441	O	0.001567	0.217299	0.008340
	H442	H	0.009559	0.218325	-0.007602
	H443	H	0.005022	0.213549	0.004608
	O444	O	0.119582	0.197707	0.222765
	H445	H	0.122789	0.218139	0.227841
	H446	H	0.128163	0.192224	0.228363
	O447	O	0.030907	1.037290	0.829403
	H448	H	0.026658	1.030185	0.833511
	H449	H	0.043261	1.029359	0.841817
	O450	O	-0.188208	1.203026	0.808374
	H451	H	-0.172344	1.200760	0.836238
	H452	H	-0.179589	1.194962	0.820867
	O453	O	0.295789	0.535480	0.313952
	H454	H	0.291391	0.539227	0.308538
	H455	H	0.293254	0.542321	0.303327
	O456	O	0.098263	-0.167566	1.014164
	H457	H	0.118781	-0.164129	1.007868
	H458	H	0.094626	-0.161771	0.996414
	O459	O	0.806592	0.782528	0.225759
	H460	H	0.810400	0.806839	0.228854
	H461	H	0.782662	0.754939	0.255706
	O462	O	0.567858	0.478960	0.511317
	H463	H	0.583342	0.478711	0.498986
	H464	H	0.556571	0.483970	0.525795
	O465	O	0.861635	0.041414	0.069039
	H466	H	0.864237	0.036864	0.079512
	H467	H	0.859680	0.015542	0.068226
	O468	O	0.172471	1.085359	0.056186
	H469	H	0.174007	1.097415	0.035545
	H470	H	0.182015	1.083598	0.062630
	O471	O	0.471517	0.709475	0.561766
	H472	H	0.467219	0.703038	0.572479
	H473	H	0.449978	0.714339	0.561731
	O474	O	-0.279691	1.490431	-0.477870
	H475	H	-0.276741	1.480810	-0.492361
	H476	H	-0.278896	1.462646	-0.454017
	O477	O	0.490660	0.714720	1.318693
	H478	H	0.495087	0.721605	1.312614
	H479	H	0.485196	0.724631	1.311958
	O480	O	0.702851	0.684246	0.325753
	H481	H	0.689674	0.656924	0.343299
	H482	H	0.679868	0.678256	0.350492
	O483	O	0.308911	0.697364	0.311405
	H484	H	0.309750	0.680529	0.330401
	H485	H	0.321440	0.712554	0.309501
	O486	O	1.227528	-0.067800	0.838826
	H487	H	1.242430	-0.084325	0.823937
	H488	H	1.223952	-0.070871	0.834186
	O489	O	1.119954	0.786768	0.058294
	H490	H	1.120751	0.788764	0.062180
	H491	H	1.106509	0.797348	0.064327
