data_Molecule from HDF5

_cell_length_a		16.546731
_cell_length_b		16.359011
_cell_length_c		16.379463
_cell_angle_alpha	90.145886
_cell_angle_beta	90.254479
_cell_angle_gamma	90.147089
_symmetry_space_group_name_H-M	'P 1'
_symmetry_Int_Tables_number		1

loop_
	_symmetry_equiv_pos_as_xyz
	x,y,z

loop_
	_atom_site_label
	_atom_site_type_symbol
	_atom_site_fract_x
	_atom_site_fract_y
	_atom_site_fract_z
	H0	H	0.398076	0.843571	0.723098
	H1	H	0.607981	0.161836	0.722733
	H2	H	0.603935	0.843110	0.283639
	H3	H	0.398111	0.161788	0.281086
	H4	H	0.722073	0.399732	0.844226
	H5	H	0.724991	0.608870	0.161723
	H6	H	0.279379	0.612113	0.844116
	H7	H	0.280558	0.396108	0.159684
	H8	H	0.848204	0.725904	0.395445
	H9	H	0.161209	0.728413	0.612323
	H10	H	0.846222	0.283700	0.603836
	H11	H	0.162669	0.281426	0.399099
	H12	H	0.845081	0.401460	0.719265
	H13	H	0.161707	0.610272	0.727432
	H14	H	0.847822	0.607069	0.279945
	H15	H	0.160909	0.393882	0.279050
	H16	H	0.399658	0.721979	0.841647
	H17	H	0.604985	0.722071	0.162573
	H18	H	0.604500	0.285468	0.843673
	H19	H	0.399621	0.283493	0.161901
	H20	H	0.724784	0.845766	0.394300
	H21	H	0.723843	0.162392	0.606772
	H22	H	0.279073	0.845435	0.610767
	H23	H	0.281371	0.161967	0.395913
	H24	H	0.901551	0.342779	0.220820
	H25	H	0.112374	0.660474	0.227580
	H26	H	0.103671	0.341147	0.785216
	H27	H	0.901581	0.663194	0.783646
	H28	H	0.222680	0.898027	0.344040
	H29	H	0.227934	0.112767	0.660553
	H30	H	0.782865	0.108914	0.342804
	H31	H	0.781777	0.897879	0.659577
	H32	H	0.345425	0.225297	0.895489
	H33	H	0.660544	0.224667	0.108124
	H34	H	0.345282	0.780161	0.106608
	H35	H	0.661205	0.783402	0.899302
	H36	H	0.344917	0.896609	0.224257
	H37	H	0.660518	0.107266	0.223642
	H38	H	0.346116	0.110423	0.777397
	H39	H	0.661645	0.899542	0.782486
	H40	H	0.902765	0.220664	0.342132
	H41	H	0.107982	0.222797	0.662732
	H42	H	0.108681	0.781659	0.344832
	H43	H	0.900311	0.783515	0.661317
	H44	H	0.226573	0.344843	0.893201
	H45	H	0.228863	0.661029	0.111843
	H46	H	0.781247	0.345556	0.109257
	H47	H	0.784734	0.663108	0.899344
	H48	H	0.417739	0.116034	0.594431
	H49	H	0.594400	0.887342	0.593705
	H50	H	0.589713	0.118355	0.406153
	H51	H	0.411764	0.889144	0.413101
	H52	H	0.593719	0.415605	0.117642
	H53	H	0.597817	0.593624	0.887752
	H54	H	0.417966	0.586997	0.112627
	H55	H	0.414791	0.422479	0.891678
	H56	H	0.116866	0.588524	0.412042
	H57	H	0.894950	0.590055	0.587721
	H58	H	0.114888	0.413575	0.585600
	H59	H	0.892440	0.409008	0.414212
	H60	H	0.117464	0.420406	0.598368
	H61	H	0.892325	0.590858	0.596970
	H62	H	0.117395	0.595493	0.418236
	H63	H	0.893335	0.415827	0.412397
	H64	H	0.417754	0.594123	0.115912
	H65	H	0.594435	0.590828	0.888689
	H66	H	0.594507	0.414127	0.118424
	H67	H	0.420161	0.410661	0.889255
	H68	H	0.589263	0.114341	0.419705
	H69	H	0.590078	0.889688	0.590047
	H70	H	0.420458	0.112091	0.585044
	H71	H	0.413510	0.889826	0.414517
	H72	H	0.908899	0.618032	0.087588
	H73	H	0.093258	0.391333	0.088680
	H74	H	0.097949	0.619194	0.912909
	H75	H	0.911034	0.387152	0.909367
	H76	H	0.094180	0.925046	0.614668
	H77	H	0.098698	0.091024	0.387607
	H78	H	0.911135	0.085496	0.614600
	H79	H	0.911320	0.919720	0.389381
	H80	H	0.616552	0.096641	0.913473
	H81	H	0.387751	0.097653	0.093001
	H82	H	0.612947	0.911169	0.085164
	H83	H	0.391108	0.916254	0.909917
	H84	H	0.612691	0.922235	0.095513
	H85	H	0.392058	0.091382	0.086529
	H86	H	0.613668	0.091647	0.915958
	H87	H	0.389522	0.911540	0.912010
	H88	H	0.919804	0.095255	0.614938
	H89	H	0.089947	0.086816	0.391713
	H90	H	0.085556	0.914515	0.613835
	H91	H	0.919215	0.913733	0.390361
	H92	H	0.087629	0.615196	0.911313
	H93	H	0.091609	0.390502	0.089160
	H94	H	0.916884	0.618758	0.098758
	H95	H	0.912799	0.389479	0.913711
	H96	H	0.410708	0.116838	0.586592
	H97	H	0.595756	0.889234	0.587488
	H98	H	0.601786	0.119963	0.414328
	H99	H	0.411823	0.889378	0.415130
	H100	H	0.595457	0.415829	0.118044
	H101	H	0.593298	0.594999	0.888759
	H102	H	0.411084	0.589727	0.115337
	H103	H	0.407985	0.412782	0.885981
	H104	H	0.113281	0.587215	0.420525
	H105	H	0.891268	0.597947	0.590971
	H106	H	0.120307	0.405784	0.596596
	H107	H	0.890862	0.411122	0.407998
	H108	H	0.921732	0.612756	0.087219
	H109	H	0.091672	0.391588	0.087211
	H110	H	0.092857	0.613539	0.921545
	H111	H	0.908321	0.387912	0.913323
	H112	H	0.097540	0.913040	0.619911
	H113	H	0.090462	0.097744	0.388954
	H114	H	0.907263	0.097143	0.619516
	H115	H	0.911233	0.910085	0.385587
	H116	H	0.615007	0.092195	0.910123
	H117	H	0.389740	0.088317	0.095503
	H118	H	0.618321	0.908257	0.098627
	H119	H	0.392437	0.914863	0.915361
	C120	C	0.382654	0.010933	0.622646
	C121	C	0.625020	0.994300	0.622870
	C122	C	0.624272	0.012053	0.380945
	C123	C	0.380945	0.994518	0.381127
	C124	C	0.624492	0.383336	0.012379
	C125	C	0.625922	0.625301	0.993838
	C126	C	0.382802	0.623592	0.009705
	C127	C	0.381950	0.382429	0.993827
	C128	C	0.012650	0.623240	0.382811
	C129	C	0.996264	0.625930	0.625474
	C130	C	0.012334	0.381954	0.623601
	C131	C	0.996006	0.379834	0.380061
	C132	C	0.883752	0.511484	0.123545
	C133	C	0.126259	0.495037	0.123556
	C134	C	0.124790	0.511122	0.881521
	C135	C	0.880971	0.494066	0.880962
	C136	C	0.124750	0.883274	0.511480
	C137	C	0.125671	0.124807	0.494345
	C138	C	0.882451	0.124076	0.510643
	C139	C	0.882121	0.882278	0.493290
	C140	C	0.511157	0.125487	0.880212
	C141	C	0.494261	0.124596	0.123898
	C142	C	0.510494	0.881184	0.124293
	C143	C	0.494954	0.882190	0.881027
	C144	C	0.379644	0.891566	0.683341
	C145	C	0.626459	0.114004	0.682830
	C146	C	0.624024	0.891656	0.322042
	C147	C	0.379457	0.114202	0.320821
	C148	C	0.682469	0.381486	0.891991
	C149	C	0.684881	0.627462	0.114052
	C150	C	0.321041	0.628066	0.891039
	C151	C	0.321262	0.378976	0.112581
	C152	C	0.894864	0.684392	0.378479
	C153	C	0.114257	0.687321	0.629358
	C154	C	0.893200	0.323283	0.623246
	C155	C	0.115087	0.320825	0.379617
	C156	C	0.892728	0.382048	0.680458
	C157	C	0.114338	0.628523	0.686805
	C158	C	0.894839	0.625768	0.320706
	C159	C	0.114458	0.377047	0.320113
	C160	C	0.380941	0.683088	0.889796
	C161	C	0.625506	0.683803	0.114407
	C162	C	0.624163	0.324536	0.891666
	C163	C	0.380498	0.322830	0.113531
	C164	C	0.684202	0.892823	0.377000
	C165	C	0.684078	0.114385	0.625094
	C166	C	0.320603	0.892440	0.627125
	C167	C	0.321203	0.114137	0.377894
	C168	C	0.882425	0.391294	0.182068
	C169	C	0.130318	0.613087	0.186767
	C170	C	0.124669	0.390416	0.822425
	C171	C	0.881579	0.615065	0.822532
	C172	C	0.183745	0.880030	0.392132
	C173	C	0.187106	0.129596	0.613320
	C174	C	0.823127	0.126421	0.390558
	C175	C	0.821919	0.879373	0.612299
	C176	C	0.392694	0.185335	0.877423
	C177	C	0.612980	0.184870	0.126787
	C178	C	0.392417	0.820120	0.125910
	C179	C	0.613957	0.822885	0.880293
	C180	C	0.392094	0.878268	0.184191
	C181	C	0.613006	0.126467	0.184259
	C182	C	0.393183	0.128059	0.818360
	C183	C	0.613889	0.880594	0.822108
	C184	C	0.882723	0.182276	0.390246
	C185	C	0.127225	0.184353	0.614495
	C186	C	0.126807	0.821981	0.392381
	C187	C	0.881189	0.823078	0.613364
	C188	C	0.185214	0.391771	0.877166
	C189	C	0.187955	0.613608	0.128712
	C190	C	0.822609	0.392522	0.126331
	C191	C	0.823640	0.615031	0.880193
	C192	C	0.408829	0.093534	0.596326
	C193	C	0.600520	0.910538	0.597563
	C194	C	0.600362	0.095811	0.406135
	C195	C	0.405320	0.911270	0.406666
	C196	C	0.601209	0.408102	0.096047
	C197	C	0.602031	0.600491	0.910212
	C198	C	0.408297	0.597559	0.092967
	C199	C	0.406982	0.408036	0.910574
	C200	C	0.094519	0.597574	0.409388
	C201	C	0.913941	0.600413	0.599201
	C202	C	0.095835	0.406133	0.600247
	C203	C	0.913667	0.404764	0.404346
	C204	C	0.908674	0.594746	0.098283
	C205	C	0.099775	0.412459	0.096030
	C206	C	0.100264	0.594279	0.907663
	C207	C	0.904007	0.410231	0.905244
	C208	C	0.099625	0.909885	0.594597
	C209	C	0.100357	0.099117	0.411046
	C210	C	0.905978	0.099513	0.594459
	C211	C	0.906698	0.907317	0.410162
	C212	C	0.593495	0.100528	0.905849
	C213	C	0.411517	0.099718	0.098832
	C214	C	0.593114	0.906666	0.100014
	C215	C	0.412565	0.906817	0.905523
	Zn216	Zn	0.503376	0.002922	0.751097
	Zn217	Zn	0.502296	0.003042	0.252971
	Zn218	Zn	0.753937	0.503833	0.003331
	Zn219	Zn	0.253835	0.503530	0.001583
	Zn220	Zn	0.004711	0.754631	0.503130
	Zn221	Zn	0.004440	0.251866	0.502876
	Zn222	Zn	0.003876	0.503055	0.753675
	Zn223	Zn	0.005126	0.502475	0.252310
	Zn224	Zn	0.502626	0.752240	0.002135
	Zn225	Zn	0.503450	0.254513	0.003054
	Zn226	Zn	0.753221	0.003640	0.501192
	Zn227	Zn	0.252965	0.004163	0.503157
	N228	N	0.417751	0.966156	0.680493
	N229	N	0.590564	0.038281	0.681736
	N230	N	0.587482	0.966860	0.324215
	N231	N	0.415708	0.038816	0.322609
	N232	N	0.683128	0.417307	0.968004
	N233	N	0.685269	0.592039	0.037997
	N234	N	0.321995	0.592130	0.966758
	N235	N	0.321941	0.415151	0.036882
	N236	N	0.969073	0.682961	0.416446
	N237	N	0.039633	0.685842	0.592112
	N238	N	0.968743	0.323244	0.588677
	N239	N	0.040490	0.322214	0.416148
	N240	N	0.967831	0.417633	0.680861
	N241	N	0.039876	0.591183	0.684671
	N242	N	0.968975	0.588188	0.323572
	N243	N	0.039451	0.412784	0.319939
	N244	N	0.418791	0.680164	0.964665
	N245	N	0.589794	0.682735	0.038601
	N246	N	0.589139	0.325487	0.967537
	N247	N	0.417364	0.324922	0.038474
	N248	N	0.684451	0.968725	0.412897
	N249	N	0.683363	0.038610	0.588593
	N250	N	0.322366	0.967752	0.590111
	N251	N	0.322102	0.038802	0.414904
	N252	N	0.919708	0.466395	0.180495
	N253	N	0.092710	0.538152	0.183577
	N254	N	0.087839	0.465611	0.825069
	N255	N	0.916636	0.539004	0.822792
	N256	N	0.182656	0.917042	0.467364
	N257	N	0.186080	0.093279	0.537634
	N258	N	0.822740	0.091324	0.466510
	N259	N	0.822291	0.915256	0.536601
	N260	N	0.466947	0.183916	0.915204
	N261	N	0.538145	0.183706	0.090039
	N262	N	0.467027	0.821799	0.089640
	N263	N	0.539018	0.823551	0.916136
	N264	N	0.466647	0.915275	0.183391
	N265	N	0.538224	0.089769	0.182792
	N266	N	0.467964	0.091474	0.819874
	N267	N	0.539011	0.916475	0.822134
	N268	N	0.918893	0.180973	0.465907
	N269	N	0.089699	0.181535	0.539449
	N270	N	0.090958	0.823780	0.467920
	N271	N	0.917718	0.824408	0.538160
	N272	N	0.185649	0.467969	0.912923
	N273	N	0.185519	0.538959	0.090135
	N274	N	0.823180	0.468511	0.090630
	N275	N	0.822836	0.538923	0.915353
	O276	O	0.512814	0.666909	0.394429
	H277	H	0.513379	0.672320	0.402175
	H278	H	0.525413	0.673227	0.401140
	O279	O	1.707215	0.428143	1.483850
	H280	H	1.697434	0.434057	1.471243
	H281	H	1.707761	0.421282	1.467845
	O282	O	0.718373	0.716625	0.521799
	H283	H	0.714560	0.720294	0.559659
	H284	H	0.735348	0.729699	0.530685
	O285	O	0.617186	0.361013	0.351475
	H286	H	0.609800	0.355482	0.347919
	H287	H	0.603321	0.374781	0.332598
	O288	O	0.885971	1.163052	-0.155223
	H289	H	0.875491	1.153028	-0.153891
	H290	H	0.890459	1.177958	-0.166031
	O291	O	0.665323	0.460150	0.673109
	H292	H	0.658730	0.442926	0.668379
	H293	H	0.670778	0.443585	0.679634
	O294	O	0.017366	-0.182868	0.807250
	H295	H	0.006536	-0.198261	0.799236
	H296	H	0.013529	-0.178262	0.802000
	O297	O	0.321560	0.420875	0.581120
	H298	H	0.322583	0.415864	0.594431
	H299	H	0.321164	0.417220	0.573559
	O300	O	0.441742	0.430602	0.512749
	H301	H	0.452162	0.432766	0.508193
	H302	H	0.447016	0.440519	0.506603
	O303	O	0.492090	0.646380	0.553448
	H304	H	0.503426	0.652233	0.558029
	H305	H	0.490716	0.639849	0.573574
	O306	O	0.370281	0.335821	0.584485
	H307	H	0.378433	0.343589	0.572153
	H308	H	0.364577	0.324187	0.584293
	O309	O	0.473826	0.395950	0.333932
	H310	H	0.463934	0.398845	0.334314
	H311	H	0.461710	0.389898	0.329461
	O312	O	-0.165993	0.794890	1.023179
	H313	H	-0.176873	0.798878	1.041600
	H314	H	-0.181450	0.775903	1.023901
	O315	O	0.108113	0.960019	1.124526
	H316	H	0.104585	0.953056	1.117677
	H317	H	0.104223	0.965186	1.105436
	O318	O	0.808701	-0.032263	-0.065497
	H319	H	0.803342	-0.041429	-0.058906
	H320	H	0.812575	-0.039245	-0.072409
	O321	O	0.564664	-0.375335	-0.488723
	H322	H	0.556016	-0.377994	-0.484252
	H323	H	0.569240	-0.384232	-0.499542
	O324	O	0.629392	0.680049	0.710726
	H325	H	0.638480	0.656882	0.721274
	H326	H	0.639246	0.685363	0.714841
	O327	O	0.044469	0.159314	0.823877
	H328	H	0.040234	0.135405	0.819911
	H329	H	0.056840	0.172214	0.823928
	O330	O	0.143020	0.971899	-0.014762
	H331	H	0.132622	0.975647	-0.024335
	H332	H	0.149930	0.968774	-0.016549
	O333	O	0.433043	0.335402	0.665837
	H334	H	0.427453	0.340704	0.658237
	H335	H	0.405343	0.326273	0.653124
	O336	O	-0.335569	-0.633769	-0.645130
	H337	H	-0.361425	-0.632123	-0.655076
	H338	H	-0.336992	-0.626442	-0.643885
	O339	O	0.068143	1.179415	0.960903
	H340	H	0.056281	1.174285	0.962161
	H341	H	0.072450	1.178310	0.963048
	O342	O	0.189831	0.824115	0.821736
	H343	H	0.159584	0.823337	0.830387
	H344	H	0.197642	0.822922	0.856760
	O345	O	1.089863	0.839142	0.089501
	H346	H	1.075286	0.848749	0.087781
	H347	H	1.067753	0.830742	0.096907
	O348	O	0.329200	0.467924	0.578651
	H349	H	0.335070	0.480076	0.599957
	H350	H	0.322548	0.451688	0.561042
	O351	O	0.044664	1.087256	0.938731
	H352	H	0.045175	1.097877	0.944763
	H353	H	0.045042	1.092127	0.925187
	O354	O	0.162541	0.987803	-0.145204
	H355	H	0.180040	0.974306	-0.166359
	H356	H	0.155905	0.971434	-0.142875
	O357	O	-0.189962	-0.192078	1.146180
	H358	H	-0.199392	-0.167750	1.149879
	H359	H	-0.187774	-0.201009	1.171487
	O360	O	0.678406	0.331608	0.631995
	H361	H	0.652462	0.335176	0.639035
	H362	H	0.675597	0.328692	0.617358
	O363	O	-0.092947	0.166479	1.091497
	H364	H	-0.094077	0.170455	1.089676
	H365	H	-0.093584	0.161923	1.089110
	O366	O	0.357403	0.697720	0.312069
	H367	H	0.377585	0.707683	0.292996
	H368	H	0.337689	0.703096	0.327663
	O369	O	0.801354	0.155017	0.803362
	H370	H	0.799348	0.143247	0.813695
	H371	H	0.787637	0.154928	0.793096
	O372	O	1.049024	0.176309	1.131492
	H373	H	1.059137	0.183806	1.133639
	H374	H	1.037986	0.183333	1.131084
	O375	O	0.389873	0.586128	0.526704
	H376	H	0.389256	0.573064	0.522073
	H377	H	0.384632	0.604036	0.519015
	O378	O	-0.231464	0.786969	-0.216172
	H379	H	-0.227892	0.780382	-0.205914
	H380	H	-0.235860	0.789835	-0.191432
	O381	O	0.385567	0.587345	0.596550
	H382	H	0.391940	0.586372	0.603566
	H383	H	0.389889	0.580890	0.599557
	O384	O	0.331598	0.410403	0.376034
	H385	H	0.316169	0.399601	0.362339
	H386	H	0.330662	0.424731	0.379487
	O387	O	0.217796	0.214847	1.022837
	H388	H	0.234537	0.239934	1.029088
	H389	H	0.210891	0.208169	1.050490
	O390	O	-0.093685	0.104354	-0.003943
	H391	H	-0.090106	0.089891	-0.011597
	H392	H	-0.103678	0.119095	-0.010410
	O393	O	1.205189	1.150563	1.163978
	H394	H	1.188963	1.145520	1.155967
	H395	H	1.206994	1.114919	1.173178
	O396	O	-0.055352	0.049290	0.180448
	H397	H	-0.044848	0.049879	0.185335
	H398	H	-0.049434	0.061510	0.169388
	O399	O	0.932908	-0.063520	1.198411
	H400	H	0.917027	-0.038601	1.193381
	H401	H	0.932251	-0.069535	1.212022
	O402	O	0.995332	1.005465	0.803868
	H403	H	0.992795	1.022366	0.807799
	H404	H	1.009672	1.015061	0.813199
	O405	O	0.953925	0.875204	0.191754
	H406	H	0.933983	0.880160	0.197126
	H407	H	0.943105	0.900460	0.189274
	O408	O	1.213358	-0.202347	-0.017188
	H409	H	1.212161	-0.222047	-0.001412
	H410	H	1.194730	-0.221350	-0.005038
	O411	O	1.296987	1.567511	0.298432
	H412	H	1.295503	1.577273	0.317260
	H413	H	1.288247	1.569553	0.290510
	O414	O	0.508003	0.312919	0.497358
	H415	H	0.503345	0.308319	0.522455
	H416	H	0.499612	0.331770	0.491273
	O417	O	1.198040	1.057877	1.205012
	H418	H	1.209902	1.033897	1.203593
	H419	H	1.198483	1.040793	1.209764
	O420	O	-0.480268	-0.432897	-0.662874
	H421	H	-0.485157	-0.436500	-0.659859
	H422	H	-0.474929	-0.441979	-0.632129
	O423	O	0.489361	0.384298	0.635034
	H424	H	0.477573	0.395787	0.634436
	H425	H	0.478884	0.367554	0.649145
	O426	O	0.607599	0.635675	0.362701
	H427	H	0.584959	0.638523	0.371153
	H428	H	0.595382	0.632293	0.376368
	O429	O	0.724565	0.198573	0.191851
	H430	H	0.733213	0.205313	0.167757
	H431	H	0.721867	0.223278	0.201302
	O432	O	0.652014	0.499992	0.326114
	H433	H	0.649997	0.514095	0.314881
	H434	H	0.649944	0.506501	0.337043
	O435	O	1.023349	0.806071	0.130114
	H436	H	1.011289	0.798535	0.152467
	H437	H	1.013428	0.814585	0.123557
	O438	O	-0.114152	-0.038916	-0.208626
	H439	H	-0.105083	-0.020118	-0.215315
	H440	H	-0.108222	-0.060136	-0.218137
	O441	O	0.927450	0.160560	0.009413
	H442	H	0.933993	0.162094	0.008757
	H443	H	0.915987	0.179770	-0.001611
	O444	O	-0.083760	0.892640	1.027054
	H445	H	-0.090199	0.888476	1.031031
	H446	H	-0.089838	0.916204	1.029542
	O447	O	0.494696	0.703980	0.668169
	H448	H	0.493251	0.711578	0.663508
	H449	H	0.510802	0.716788	0.673752
	O450	O	0.360513	0.557091	0.594277
	H451	H	0.355999	0.574295	0.596558
	H452	H	0.352723	0.554045	0.605060
	O453	O	0.705991	0.537112	0.521071
	H454	H	0.698732	0.538784	0.519019
	H455	H	0.722728	0.557465	0.514583
