data_Molecule from HDF5

_cell_length_a		16.217718
_cell_length_b		16.228014
_cell_length_c		16.313404
_cell_angle_alpha	89.892844
_cell_angle_beta	89.937406
_cell_angle_gamma	90.029920
_symmetry_space_group_name_H-M	'P 1'
_symmetry_Int_Tables_number		1

loop_
	_symmetry_equiv_pos_as_xyz
	x,y,z

loop_
	_atom_site_label
	_atom_site_type_symbol
	_atom_site_fract_x
	_atom_site_fract_y
	_atom_site_fract_z
	H0	H	0.396700	0.835352	0.716797
	H1	H	0.594834	0.164061	0.713958
	H2	H	0.595098	0.836466	0.285992
	H3	H	0.396647	0.163151	0.285992
	H4	H	0.710380	0.403369	0.837313
	H5	H	0.711148	0.597667	0.163998
	H6	H	0.282326	0.598252	0.837213
	H7	H	0.283059	0.401573	0.165154
	H8	H	0.831810	0.711164	0.403500
	H9	H	0.160807	0.715103	0.598774
	H10	H	0.832542	0.284991	0.599542
	H11	H	0.161641	0.287225	0.404010
	H12	H	0.833395	0.400273	0.716082
	H13	H	0.161949	0.597746	0.713682
	H14	H	0.832921	0.597339	0.286446
	H15	H	0.160766	0.401511	0.287064
	H16	H	0.398896	0.714004	0.837954
	H17	H	0.594544	0.712810	0.164687
	H18	H	0.596538	0.284959	0.837876
	H19	H	0.399311	0.286058	0.165056
	H20	H	0.708282	0.834712	0.403849
	H21	H	0.709042	0.164140	0.596427
	H22	H	0.282879	0.834538	0.598186
	H23	H	0.284588	0.164360	0.405087
	H24	H	0.898739	0.335687	0.214981
	H25	H	0.095662	0.663158	0.214903
	H26	H	0.096760	0.335197	0.786507
	H27	H	0.898319	0.663546	0.786149
	H28	H	0.210113	0.902573	0.337313
	H29	H	0.210926	0.097850	0.663796
	H30	H	0.782883	0.097655	0.337442
	H31	H	0.782520	0.902141	0.664318
	H32	H	0.332448	0.213529	0.904485
	H33	H	0.660997	0.212448	0.098282
	H34	H	0.332203	0.786200	0.097679
	H35	H	0.661254	0.786113	0.903117
	H36	H	0.332714	0.899995	0.215406
	H37	H	0.660453	0.097132	0.214083
	H38	H	0.332164	0.099582	0.787285
	H39	H	0.660721	0.900417	0.785932
	H40	H	0.898901	0.213842	0.338477
	H41	H	0.095001	0.213180	0.663905
	H42	H	0.094349	0.786666	0.336334
	H43	H	0.897102	0.784392	0.663721
	H44	H	0.210685	0.334492	0.904365
	H45	H	0.210069	0.663671	0.098523
	H46	H	0.784111	0.335349	0.098457
	H47	H	0.784370	0.664124	0.903812
	H48	H	0.409366	0.112060	0.586061
	H49	H	0.588142	0.880611	0.601363
	H50	H	0.579126	0.112160	0.414259
	H51	H	0.398334	0.880865	0.409437
	H52	H	0.593701	0.398329	0.120287
	H53	H	0.587371	0.594128	0.884846
	H54	H	0.396459	0.582305	0.116434
	H55	H	0.404297	0.408635	0.885191
	H56	H	0.113594	0.590099	0.405548
	H57	H	0.881082	0.592008	0.590362
	H58	H	0.116386	0.406769	0.601780
	H59	H	0.878585	0.410364	0.400731
	H60	H	0.116159	0.399228	0.591958
	H61	H	0.881910	0.587796	0.594061
	H62	H	0.116073	0.595331	0.405678
	H63	H	0.876147	0.398092	0.407603
	H64	H	0.414786	0.592943	0.114172
	H65	H	0.592974	0.595492	0.882369
	H66	H	0.595965	0.412036	0.118043
	H67	H	0.405443	0.406490	0.885038
	H68	H	0.600699	0.118641	0.412278
	H69	H	0.583946	0.884953	0.592200
	H70	H	0.392859	0.119061	0.593749
	H71	H	0.404651	0.881235	0.401580
	H72	H	0.901544	0.616250	0.087614
	H73	H	0.086402	0.384634	0.089384
	H74	H	0.079847	0.612845	0.907283
	H75	H	0.893371	0.380141	0.911477
	H76	H	0.081108	0.901327	0.616617
	H77	H	0.088439	0.103824	0.381374
	H78	H	0.909488	0.089079	0.615075
	H79	H	0.906276	0.904455	0.385357
	H80	H	0.613749	0.088522	0.901748
	H81	H	0.374860	0.091387	0.109090
	H82	H	0.613009	0.901670	0.085048
	H83	H	0.379886	0.905825	0.909065
	H84	H	0.611500	0.916103	0.095187
	H85	H	0.377542	0.106068	0.086814
	H86	H	0.616498	0.098808	0.906567
	H87	H	0.379354	0.907594	0.907249
	H88	H	0.901934	0.099934	0.620368
	H89	H	0.100521	0.090418	0.382058
	H90	H	0.097037	0.902053	0.619911
	H91	H	0.898912	0.901317	0.381633
	H92	H	0.096977	0.615429	0.915571
	H93	H	0.096182	0.379702	0.093857
	H94	H	0.900162	0.619823	0.099724
	H95	H	0.906064	0.379745	0.897047
	H96	H	0.408846	0.117013	0.604576
	H97	H	0.594010	0.881551	0.592590
	H98	H	0.586847	0.120067	0.394397
	H99	H	0.407931	0.884051	0.410202
	H100	H	0.583247	0.406652	0.115855
	H101	H	0.591458	0.590051	0.884591
	H102	H	0.397935	0.602844	0.122519
	H103	H	0.403164	0.406984	0.884951
	H104	H	0.113981	0.593120	0.410349
	H105	H	0.879347	0.592869	0.596472
	H106	H	0.111105	0.411289	0.591124
	H107	H	0.882224	0.409968	0.414607
	H108	H	0.911036	0.615908	0.095671
	H109	H	0.087132	0.381130	0.101100
	H110	H	0.094592	0.620677	0.896778
	H111	H	0.911694	0.386733	0.914045
	H112	H	0.089181	0.915109	0.614165
	H113	H	0.083281	0.087686	0.387833
	H114	H	0.895716	0.087375	0.618215
	H115	H	0.899355	0.909425	0.383488
	H116	H	0.611684	0.089875	0.912451
	H117	H	0.384157	0.080191	0.087092
	H118	H	0.617964	0.901555	0.102684
	H119	H	0.378876	0.905800	0.906967
	C120	C	0.374394	0.007798	0.623266
	C121	C	0.617376	0.991056	0.622762
	C122	C	0.617196	0.008330	0.379209
	C123	C	0.375195	0.990722	0.379157
	C124	C	0.619140	0.377551	0.009732
	C125	C	0.618585	0.621288	0.992186
	C126	C	0.374856	0.621105	0.009399
	C127	C	0.375644	0.378327	0.993247
	C128	C	0.005572	0.620655	0.378992
	C129	C	0.989015	0.620318	0.621722
	C130	C	0.005653	0.377397	0.622925
	C131	C	0.988054	0.378112	0.379616
	C132	C	0.875714	0.508734	0.122236
	C133	C	0.118278	0.490298	0.122782
	C134	C	0.119134	0.507524	0.878909
	C135	C	0.875698	0.490964	0.879298
	C136	C	0.117616	0.877926	0.508805
	C137	C	0.118573	0.121614	0.492078
	C138	C	0.874876	0.120480	0.509821
	C139	C	0.873608	0.877124	0.491824
	C140	C	0.505268	0.121466	0.879244
	C141	C	0.487764	0.120797	0.122407
	C142	C	0.505577	0.877829	0.122477
	C143	C	0.488135	0.878089	0.879488
	C144	C	0.376247	0.884331	0.678926
	C145	C	0.615052	0.114896	0.676707
	C146	C	0.614995	0.885079	0.324189
	C147	C	0.377313	0.114528	0.324503
	C148	C	0.673831	0.381360	0.886596
	C149	C	0.673153	0.618144	0.115422
	C150	C	0.320108	0.618387	0.886263
	C151	C	0.320696	0.381000	0.116109
	C152	C	0.881302	0.674449	0.382351
	C153	C	0.112203	0.676085	0.618657
	C154	C	0.881695	0.322770	0.620231
	C155	C	0.111891	0.323826	0.382902
	C156	C	0.882166	0.379913	0.678074
	C157	C	0.112609	0.618407	0.676398
	C158	C	0.881809	0.617914	0.324247
	C159	C	0.111718	0.380554	0.324750
	C160	C	0.377885	0.676105	0.886555
	C161	C	0.615713	0.675641	0.115604
	C162	C	0.616729	0.322998	0.886615
	C163	C	0.378626	0.323688	0.116235
	C164	C	0.671517	0.884270	0.382554
	C165	C	0.672041	0.114946	0.618496
	C166	C	0.319692	0.883892	0.619936
	C167	C	0.321425	0.115066	0.383430
	C168	C	0.878138	0.384752	0.177132
	C169	C	0.115964	0.614326	0.177133
	C170	C	0.116738	0.383944	0.824642
	C171	C	0.878542	0.614721	0.824409
	C172	C	0.172854	0.881239	0.385998
	C173	C	0.173043	0.118022	0.615306
	C174	C	0.820484	0.118081	0.386341
	C175	C	0.819506	0.880539	0.615286
	C176	C	0.381442	0.176176	0.883074
	C177	C	0.611970	0.174589	0.118724
	C178	C	0.381294	0.823556	0.119077
	C179	C	0.612267	0.823769	0.882467
	C180	C	0.381631	0.880182	0.177322
	C181	C	0.611546	0.117759	0.176654
	C182	C	0.381456	0.119368	0.825029
	C183	C	0.612009	0.880759	0.824352
	C184	C	0.878144	0.175623	0.386877
	C185	C	0.115566	0.175655	0.615421
	C186	C	0.115129	0.823951	0.385444
	C187	C	0.876605	0.822383	0.614883
	C188	C	0.173499	0.383826	0.883037
	C189	C	0.172697	0.614485	0.119219
	C190	C	0.821002	0.384668	0.119556
	C191	C	0.821615	0.614981	0.882509
	C192	C	0.396962	0.093840	0.601327
	C193	C	0.595380	0.904679	0.601727
	C194	C	0.595512	0.094794	0.400819
	C195	C	0.397021	0.904269	0.400751
	C196	C	0.597373	0.399287	0.095908
	C197	C	0.596964	0.599742	0.906319
	C198	C	0.396656	0.599197	0.095519
	C199	C	0.397939	0.400693	0.907048
	C200	C	0.092127	0.599062	0.400724
	C201	C	0.902889	0.597589	0.600007
	C202	C	0.092141	0.399172	0.601196
	C203	C	0.901395	0.399764	0.401285
	C204	C	0.897685	0.594957	0.100538
	C205	C	0.096301	0.404074	0.101242
	C206	C	0.097103	0.594134	0.900316
	C207	C	0.897420	0.404540	0.901116
	C208	C	0.095606	0.899738	0.594736
	C209	C	0.097182	0.100356	0.405929
	C210	C	0.896209	0.098628	0.595699
	C211	C	0.895137	0.898749	0.405683
	C212	C	0.591722	0.099121	0.900688
	C213	C	0.401273	0.099123	0.100832
	C214	C	0.591885	0.899895	0.100708
	C215	C	0.401773	0.899720	0.901397
	Zn216	Zn	0.496304	-0.000244	0.751545
	Zn217	Zn	0.496079	-0.000268	0.250693
	Zn218	Zn	0.747625	0.499848	0.001251
	Zn219	Zn	0.246179	0.499488	0.001334
	Zn220	Zn	-0.003524	0.749311	0.499718
	Zn221	Zn	-0.003448	0.249629	0.500869
	Zn222	Zn	-0.002783	0.499031	0.751064
	Zn223	Zn	-0.003186	0.499677	0.250837
	Zn224	Zn	0.497004	0.749915	0.000863
	Zn225	Zn	0.496988	0.249257	0.001156
	Zn226	Zn	0.745397	-0.000584	0.500647
	Zn227	Zn	0.246745	-0.000629	0.500588
	N228	N	0.409562	0.962278	0.681097
	N229	N	0.581731	0.036836	0.679517
	N230	N	0.582081	0.963147	0.322045
	N231	N	0.409835	0.036383	0.321617
	N232	N	0.675425	0.414577	0.964160
	N233	N	0.675240	0.585190	0.037815
	N234	N	0.318244	0.584959	0.963851
	N235	N	0.319054	0.414542	0.038560
	N236	N	0.959192	0.676228	0.415746
	N237	N	0.034262	0.677481	0.585532
	N238	N	0.959529	0.321149	0.586688
	N239	N	0.033944	0.322267	0.416249
	N240	N	0.960104	0.413327	0.679714
	N241	N	0.034798	0.584322	0.678328
	N242	N	0.960003	0.585142	0.322110
	N243	N	0.033584	0.413774	0.322428
	N244	N	0.411384	0.677719	0.963884
	N245	N	0.582145	0.677562	0.038127
	N246	N	0.583514	0.320667	0.964181
	N247	N	0.412112	0.322004	0.038618
	N248	N	0.673007	0.962026	0.416143
	N249	N	0.673727	0.036955	0.585708
	N250	N	0.318363	0.961608	0.586148
	N251	N	0.319946	0.037132	0.416822
	N252	N	0.911371	0.462769	0.179045
	N253	N	0.082832	0.536214	0.179680
	N254	N	0.083591	0.462047	0.822073
	N255	N	0.911483	0.536484	0.822314
	N256	N	0.174582	0.914027	0.463616
	N257	N	0.174989	0.085146	0.537657
	N258	N	0.818290	0.084237	0.463819
	N259	N	0.817612	0.913933	0.537708
	N260	N	0.459542	0.177673	0.916029
	N261	N	0.533933	0.176669	0.085800
	N262	N	0.459212	0.821799	0.085740
	N263	N	0.534351	0.822210	0.916182
	N264	N	0.459818	0.913301	0.179506
	N265	N	0.533444	0.084775	0.178776
	N266	N	0.459485	0.086141	0.822587
	N267	N	0.533955	0.913683	0.822386
	N268	N	0.910998	0.177396	0.464517
	N269	N	0.082328	0.177870	0.537906
	N270	N	0.081514	0.821788	0.462899
	N271	N	0.909556	0.820167	0.537131
	N272	N	0.175064	0.461797	0.915892
	N273	N	0.174042	0.536641	0.085910
	N274	N	0.819477	0.462575	0.086081
	N275	N	0.819749	0.537217	0.915962
	O276	O	0.989555	0.010004	0.909393
	H277	H	0.991237	0.010625	0.904782
	H278	H	0.985929	0.008393	0.908052
	O279	O	0.503364	0.498622	0.576152
	H280	H	0.510618	0.504173	0.582814
	H281	H	0.497826	0.503632	0.575266
	O282	O	1.009017	1.017115	-0.079323
	H283	H	1.009179	1.015867	-0.086139
	H284	H	1.005249	1.017367	-0.082973
	O285	O	0.511211	0.503512	0.602584
	H286	H	0.505738	0.504138	0.605598
	H287	H	0.512008	0.504944	0.602425
