data_Molecule from HDF5

_cell_length_a		16.260442
_cell_length_b		16.133713
_cell_length_c		16.303209
_cell_angle_alpha	89.954705
_cell_angle_beta	89.937600
_cell_angle_gamma	89.899933
_symmetry_space_group_name_H-M	'P 1'
_symmetry_Int_Tables_number		1

loop_
	_symmetry_equiv_pos_as_xyz
	x,y,z

loop_
	_atom_site_label
	_atom_site_type_symbol
	_atom_site_fract_x
	_atom_site_fract_y
	_atom_site_fract_z
	H0	H	0.395515	0.840487	0.717711
	H1	H	0.592930	0.169623	0.718354
	H2	H	0.594095	0.840942	0.289082
	H3	H	0.394257	0.169611	0.290561
	H4	H	0.708081	0.405555	0.841009
	H5	H	0.707234	0.603599	0.166707
	H6	H	0.278199	0.604210	0.839959
	H7	H	0.277112	0.405072	0.167368
	H8	H	0.828800	0.717886	0.408118
	H9	H	0.157951	0.715734	0.600982
	H10	H	0.828116	0.291904	0.600881
	H11	H	0.157501	0.292880	0.409314
	H12	H	0.829035	0.404468	0.719788
	H13	H	0.155910	0.602923	0.719481
	H14	H	0.829563	0.605522	0.289124
	H15	H	0.156035	0.403141	0.288292
	H16	H	0.395188	0.718407	0.839509
	H17	H	0.588493	0.716267	0.168261
	H18	H	0.590011	0.291668	0.839888
	H19	H	0.395650	0.290926	0.168682
	H20	H	0.707647	0.840034	0.405004
	H21	H	0.706237	0.169081	0.601047
	H22	H	0.280618	0.840251	0.603448
	H23	H	0.280298	0.170626	0.406478
	H24	H	0.894581	0.339923	0.217752
	H25	H	0.091331	0.669192	0.217825
	H26	H	0.091495	0.338809	0.790471
	H27	H	0.893168	0.668809	0.790461
	H28	H	0.209791	0.905426	0.341183
	H29	H	0.205648	0.101849	0.668172
	H30	H	0.778189	0.104222	0.340529
	H31	H	0.778911	0.905835	0.667550
	H32	H	0.327847	0.216993	0.908636
	H33	H	0.657870	0.216662	0.099665
	H34	H	0.327792	0.792773	0.100357
	H35	H	0.657538	0.793159	0.908851
	H36	H	0.329246	0.906306	0.220417
	H37	H	0.656877	0.105167	0.220289
	H38	H	0.329679	0.105943	0.788289
	H39	H	0.656162	0.905654	0.789601
	H40	H	0.895889	0.219230	0.339969
	H41	H	0.089273	0.217076	0.668271
	H42	H	0.090792	0.791425	0.340159
	H43	H	0.896943	0.791675	0.668491
	H44	H	0.206929	0.339406	0.906124
	H45	H	0.204173	0.670165	0.100250
	H46	H	0.779805	0.339588	0.102195
	H47	H	0.779537	0.669080	0.905882
	H48	H	0.399549	0.121512	0.589657
	H49	H	0.583798	0.886526	0.599906
	H50	H	0.580287	0.122216	0.409797
	H51	H	0.410909	0.889534	0.410528
	H52	H	0.585531	0.410282	0.120649
	H53	H	0.593420	0.606922	0.882486
	H54	H	0.398181	0.596817	0.119994
	H55	H	0.399429	0.417871	0.889394
	H56	H	0.107796	0.589979	0.409870
	H57	H	0.872665	0.603848	0.603275
	H58	H	0.114529	0.403657	0.605149
	H59	H	0.874744	0.415358	0.404932
	H60	H	0.107702	0.409185	0.588301
	H61	H	0.877812	0.598000	0.591618
	H62	H	0.112122	0.599777	0.404702
	H63	H	0.873933	0.406204	0.411353
	H64	H	0.398774	0.598615	0.120670
	H65	H	0.592336	0.588424	0.888173
	H66	H	0.587885	0.409612	0.121071
	H67	H	0.404361	0.408459	0.887965
	H68	H	0.586411	0.121464	0.418154
	H69	H	0.585448	0.887544	0.594870
	H70	H	0.392128	0.127610	0.601704
	H71	H	0.398401	0.888709	0.420992
	H72	H	0.900116	0.620065	0.086584
	H73	H	0.080770	0.384396	0.108199
	H74	H	0.086893	0.622748	0.911683
	H75	H	0.895472	0.385557	0.914105
	H76	H	0.093337	0.903441	0.625016
	H77	H	0.084955	0.095961	0.388506
	H78	H	0.894057	0.109226	0.626105
	H79	H	0.893151	0.912484	0.385162
	H80	H	0.610655	0.105584	0.914304
	H81	H	0.376946	0.094868	0.098157
	H82	H	0.607558	0.912290	0.092386
	H83	H	0.373203	0.909755	0.904891
	H84	H	0.610007	0.916151	0.103019
	H85	H	0.375529	0.098092	0.100978
	H86	H	0.606549	0.089624	0.915012
	H87	H	0.375626	0.908911	0.913494
	H88	H	0.891438	0.086630	0.619772
	H89	H	0.087599	0.101844	0.386441
	H90	H	0.091421	0.917356	0.619946
	H91	H	0.904336	0.918433	0.391095
	H92	H	0.085183	0.622898	0.907605
	H93	H	0.078744	0.390865	0.087792
	H94	H	0.890962	0.627014	0.102001
	H95	H	0.900896	0.384756	0.906179
	H96	H	0.406415	0.122778	0.602238
	H97	H	0.588295	0.885360	0.598508
	H98	H	0.589793	0.124612	0.408251
	H99	H	0.395817	0.883987	0.406215
	H100	H	0.587494	0.412062	0.120807
	H101	H	0.577185	0.600159	0.888742
	H102	H	0.397019	0.597798	0.120063
	H103	H	0.394225	0.409265	0.886099
	H104	H	0.109709	0.599793	0.416013
	H105	H	0.876430	0.590605	0.602426
	H106	H	0.107817	0.421475	0.602973
	H107	H	0.878438	0.415756	0.415938
	H108	H	0.909132	0.621774	0.103155
	H109	H	0.098170	0.383519	0.094901
	H110	H	0.082765	0.621839	0.911019
	H111	H	0.904753	0.388011	0.914239
	H112	H	0.080049	0.909022	0.619244
	H113	H	0.091364	0.096589	0.386791
	H114	H	0.911340	0.098057	0.615773
	H115	H	0.904657	0.904898	0.386472
	H116	H	0.612563	0.095839	0.901292
	H117	H	0.376426	0.099475	0.096741
	H118	H	0.612578	0.904452	0.100780
	H119	H	0.375890	0.917262	0.909659
	C120	C	0.371593	0.014320	0.626212
	C121	C	0.614286	0.995734	0.625362
	C122	C	0.614332	0.013544	0.383545
	C123	C	0.372967	0.996649	0.384017
	C124	C	0.615193	0.382555	0.012643
	C125	C	0.614520	0.626318	0.995231
	C126	C	0.370404	0.626578	0.011814
	C127	C	0.371122	0.383460	0.995973
	C128	C	0.001699	0.625752	0.382318
	C129	C	0.984189	0.625421	0.626406
	C130	C	0.001392	0.382718	0.626500
	C131	C	0.984258	0.383688	0.382815
	C132	C	0.871519	0.513755	0.125417
	C133	C	0.114146	0.495742	0.125206
	C134	C	0.113931	0.512887	0.882233
	C135	C	0.871822	0.495458	0.883120
	C136	C	0.116456	0.881868	0.513006
	C137	C	0.115245	0.126392	0.495668
	C138	C	0.870887	0.126672	0.512348
	C139	C	0.872322	0.883412	0.495819
	C140	C	0.501434	0.126289	0.882151
	C141	C	0.484806	0.126113	0.126518
	C142	C	0.501202	0.882944	0.126655
	C143	C	0.483941	0.883581	0.882065
	C144	C	0.374732	0.889869	0.680519
	C145	C	0.612380	0.120158	0.680325
	C146	C	0.613167	0.889665	0.327819
	C147	C	0.374193	0.120613	0.328453
	C148	C	0.670125	0.385288	0.889572
	C149	C	0.669246	0.623852	0.118090
	C150	C	0.315541	0.624493	0.888826
	C151	C	0.315510	0.385034	0.118883
	C152	C	0.878011	0.680936	0.386187
	C153	C	0.108512	0.678857	0.622161
	C154	C	0.877466	0.328528	0.622538
	C155	C	0.108091	0.329195	0.387020
	C156	C	0.877897	0.384720	0.681448
	C157	C	0.107608	0.622640	0.680931
	C158	C	0.878401	0.624933	0.327264
	C159	C	0.107394	0.384122	0.327174
	C160	C	0.373642	0.681663	0.888714
	C161	C	0.610176	0.679908	0.118804
	C162	C	0.611602	0.328600	0.889040
	C163	C	0.374554	0.328498	0.119606
	C164	C	0.669646	0.889187	0.385317
	C165	C	0.669079	0.119923	0.622242
	C166	C	0.317744	0.889721	0.623703
	C167	C	0.317683	0.121079	0.386353
	C168	C	0.874196	0.389076	0.180087
	C169	C	0.111259	0.620139	0.179774
	C170	C	0.111695	0.388247	0.828290
	C171	C	0.873531	0.619679	0.828137
	C172	C	0.171581	0.884943	0.389869
	C173	C	0.168645	0.122917	0.619187
	C174	C	0.815853	0.124542	0.389341
	C175	C	0.816477	0.885508	0.618800
	C176	C	0.377439	0.180690	0.886619
	C177	C	0.608722	0.179995	0.121869
	C178	C	0.377118	0.829292	0.122791
	C179	C	0.608235	0.830049	0.887158
	C180	C	0.377885	0.885827	0.181875
	C181	C	0.608089	0.124537	0.181771
	C182	C	0.377998	0.124863	0.827458
	C183	C	0.607562	0.886241	0.828136
	C184	C	0.874527	0.181543	0.388889
	C185	C	0.110850	0.180249	0.619198
	C186	C	0.112764	0.828015	0.389521
	C187	C	0.875081	0.828716	0.619386
	C188	C	0.168986	0.388572	0.885624
	C189	C	0.167529	0.620608	0.121702
	C190	C	0.817521	0.388854	0.122335
	C191	C	0.817101	0.619890	0.885615
	C192	C	0.392987	0.101417	0.604251
	C193	C	0.592186	0.908860	0.604123
	C194	C	0.592034	0.100251	0.405496
	C195	C	0.395120	0.909697	0.406211
	C196	C	0.593457	0.404249	0.098637
	C197	C	0.593684	0.604908	0.908785
	C198	C	0.391841	0.604346	0.098005
	C199	C	0.392787	0.405389	0.910059
	C200	C	0.087690	0.603149	0.403815
	C201	C	0.897972	0.603942	0.605252
	C202	C	0.087619	0.404848	0.605065
	C203	C	0.898039	0.406135	0.404172
	C204	C	0.893515	0.600627	0.103682
	C205	C	0.092161	0.408646	0.103439
	C206	C	0.091603	0.599933	0.903793
	C207	C	0.893809	0.408639	0.905103
	C208	C	0.094640	0.903506	0.599218
	C209	C	0.094214	0.104636	0.409291
	C210	C	0.892587	0.104563	0.598384
	C211	C	0.894350	0.905493	0.409807
	C212	C	0.587694	0.103690	0.903837
	C213	C	0.398405	0.103902	0.105080
	C214	C	0.587470	0.904377	0.105090
	C215	C	0.397240	0.905302	0.903200
	Zn216	Zn	0.492523	0.005282	0.753338
	Zn217	Zn	0.493283	0.004773	0.255644
	Zn218	Zn	0.743810	0.504567	0.004044
	Zn219	Zn	0.241559	0.505090	0.003864
	Zn220	Zn	-0.006813	0.753604	0.504350
	Zn221	Zn	-0.007220	0.254949	0.504166
	Zn222	Zn	-0.007975	0.504223	0.755207
	Zn223	Zn	-0.006920	0.504711	0.253332
	Zn224	Zn	0.492318	0.754884	0.003689
	Zn225	Zn	0.493091	0.254430	0.003854
	Zn226	Zn	0.742693	0.004297	0.503810
	Zn227	Zn	0.244404	0.004882	0.504820
	N228	N	0.407392	0.968314	0.682082
	N229	N	0.578847	0.041753	0.682165
	N230	N	0.579426	0.967849	0.326590
	N231	N	0.407879	0.042361	0.327094
	N232	N	0.672295	0.418367	0.967351
	N233	N	0.671926	0.591106	0.040206
	N234	N	0.313349	0.590871	0.966458
	N235	N	0.313358	0.418517	0.041287
	N236	N	0.955499	0.681467	0.419815
	N237	N	0.030850	0.680858	0.589062
	N238	N	0.955197	0.327056	0.589140
	N239	N	0.030614	0.328846	0.420901
	N240	N	0.955747	0.417756	0.683973
	N241	N	0.029325	0.590305	0.683730
	N242	N	0.956140	0.591231	0.324795
	N243	N	0.029394	0.417584	0.324459
	N244	N	0.407229	0.682649	0.966037
	N245	N	0.576765	0.681486	0.041313
	N246	N	0.578163	0.326701	0.966447
	N247	N	0.408398	0.327281	0.042122
	N248	N	0.670354	0.967119	0.419413
	N249	N	0.670377	0.041803	0.588854
	N250	N	0.315829	0.968067	0.590314
	N251	N	0.316502	0.042836	0.420057
	N252	N	0.907148	0.467549	0.182064
	N253	N	0.078806	0.541520	0.182050
	N254	N	0.078144	0.466620	0.826031
	N255	N	0.906858	0.541233	0.826637
	N256	N	0.173895	0.917592	0.467836
	N257	N	0.171155	0.089800	0.541476
	N258	N	0.813720	0.091097	0.467005
	N259	N	0.814717	0.918571	0.540948
	N260	N	0.455140	0.181477	0.920072
	N261	N	0.531090	0.181315	0.088348
	N262	N	0.454716	0.827276	0.089218
	N263	N	0.530127	0.828271	0.919986
	N264	N	0.456054	0.918226	0.184433
	N265	N	0.530026	0.091738	0.184469
	N266	N	0.456108	0.092031	0.824437
	N267	N	0.529421	0.918593	0.824806
	N268	N	0.907855	0.183109	0.466443
	N269	N	0.078400	0.182447	0.541341
	N270	N	0.079400	0.825987	0.467058
	N271	N	0.908980	0.827239	0.542069
	N272	N	0.170387	0.467080	0.918312
	N273	N	0.169472	0.542215	0.088592
	N274	N	0.815388	0.467462	0.089418
	N275	N	0.815932	0.541739	0.919191
	O276	O	0.473145	-0.481615	0.470690
	H277	H	0.470390	-0.479523	0.468927
	H278	H	0.471466	-0.484071	0.466637
	O279	O	0.466681	0.511352	0.442059
	H280	H	0.457964	0.510633	0.441954
	H281	H	0.455213	0.516798	0.433162
	O282	O	0.458214	0.494086	0.488752
	H283	H	0.460695	0.504512	0.493824
	H284	H	0.451462	0.495461	0.490091
	O285	O	0.409257	0.488497	0.431395
	H286	H	0.398022	0.494641	0.425436
	H287	H	0.405998	0.486373	0.435397
	O288	O	0.502085	0.533870	0.414083
	H289	H	0.506707	0.528228	0.410479
	H290	H	0.517936	0.524429	0.419940
	O291	O	0.460271	0.501927	0.467401
	H292	H	0.460295	0.502223	0.467003
	H293	H	0.462420	0.502603	0.466919
	O294	O	0.517002	0.510982	0.471657
	H295	H	0.498461	0.510703	0.476645
	H296	H	0.524667	0.502726	0.468235
	O297	O	1.442798	0.548516	0.465695
	H298	H	1.452179	0.554276	0.461529
	H299	H	1.448134	0.544682	0.465931
