data_Molecule from HDF5

_cell_length_a		16.332477
_cell_length_b		16.415192
_cell_length_c		16.364381
_cell_angle_alpha	90.093947
_cell_angle_beta	90.087060
_cell_angle_gamma	89.904805
_symmetry_space_group_name_H-M	'P 1'
_symmetry_Int_Tables_number		1

loop_
	_symmetry_equiv_pos_as_xyz
	x,y,z

loop_
	_atom_site_label
	_atom_site_type_symbol
	_atom_site_fract_x
	_atom_site_fract_y
	_atom_site_fract_z
	H0	H	0.389374	0.835903	0.720131
	H1	H	0.601903	0.152698	0.720971
	H2	H	0.603978	0.835884	0.275931
	H3	H	0.389667	0.152882	0.275299
	H4	H	0.714203	0.387912	0.838096
	H5	H	0.714750	0.597955	0.156562
	H6	H	0.273155	0.598719	0.838099
	H7	H	0.272973	0.389835	0.155667
	H8	H	0.836454	0.719070	0.390688
	H9	H	0.153865	0.715488	0.603665
	H10	H	0.835403	0.272443	0.603749
	H11	H	0.153973	0.272958	0.390683
	H12	H	0.832289	0.391583	0.715124
	H13	H	0.150851	0.600512	0.721355
	H14	H	0.833855	0.600002	0.277901
	H15	H	0.153466	0.388135	0.275306
	H16	H	0.388992	0.714601	0.837766
	H17	H	0.603713	0.716545	0.155038
	H18	H	0.599097	0.272861	0.838082
	H19	H	0.387532	0.272542	0.155494
	H20	H	0.716142	0.834968	0.394810
	H21	H	0.715953	0.153325	0.603846
	H22	H	0.272334	0.838061	0.605297
	H23	H	0.274588	0.153644	0.391982
	H24	H	0.888918	0.335275	0.218821
	H25	H	0.099504	0.653241	0.218977
	H26	H	0.096345	0.335006	0.776818
	H27	H	0.884153	0.653078	0.775480
	H28	H	0.216147	0.891778	0.338077
	H29	H	0.216684	0.101654	0.656968
	H30	H	0.774087	0.100102	0.338609
	H31	H	0.776741	0.890750	0.656924
	H32	H	0.335475	0.213813	0.891360
	H33	H	0.654932	0.213971	0.100515
	H34	H	0.335335	0.774324	0.101964
	H35	H	0.654296	0.770874	0.891509
	H36	H	0.336274	0.891073	0.217259
	H37	H	0.655777	0.097720	0.216163
	H38	H	0.334948	0.096850	0.778222
	H39	H	0.655245	0.888327	0.777782
	H40	H	0.889923	0.214944	0.338462
	H41	H	0.101906	0.217522	0.656144
	H42	H	0.104962	0.772106	0.339384
	H43	H	0.891565	0.774790	0.656185
	H44	H	0.214133	0.335473	0.891462
	H45	H	0.215907	0.653076	0.103103
	H46	H	0.774787	0.334157	0.101207
	H47	H	0.772253	0.652903	0.894347
	H48	H	0.408942	0.109450	0.593751
	H49	H	0.586617	0.879945	0.587030
	H50	H	0.585052	0.107153	0.411549
	H51	H	0.408143	0.880993	0.403988
	H52	H	0.586914	0.404814	0.111831
	H53	H	0.584126	0.582669	0.882467
	H54	H	0.405869	0.585925	0.110907
	H55	H	0.407211	0.402285	0.883508
	H56	H	0.108593	0.582905	0.409753
	H57	H	0.878035	0.591491	0.585660
	H58	H	0.106487	0.406457	0.585593
	H59	H	0.879098	0.398705	0.411468
	H60	H	0.106043	0.408789	0.586166
	H61	H	0.881297	0.584574	0.579915
	H62	H	0.108368	0.582115	0.407066
	H63	H	0.884453	0.410610	0.414117
	H64	H	0.402825	0.584153	0.112099
	H65	H	0.582207	0.578134	0.884648
	H66	H	0.580717	0.407363	0.109380
	H67	H	0.402640	0.400871	0.881419
	H68	H	0.587648	0.109648	0.406540
	H69	H	0.586172	0.880457	0.588333
	H70	H	0.412925	0.104843	0.584965
	H71	H	0.412844	0.884363	0.411706
	H72	H	0.900713	0.606792	0.082349
	H73	H	0.080991	0.382632	0.084249
	H74	H	0.077719	0.603738	0.918142
	H75	H	0.902909	0.378082	0.900791
	H76	H	0.083643	0.913113	0.609106
	H77	H	0.088580	0.086614	0.381836
	H78	H	0.908126	0.087593	0.611865
	H79	H	0.913195	0.901459	0.383705
	H80	H	0.608284	0.083669	0.915163
	H81	H	0.386278	0.074911	0.078357
	H82	H	0.613163	0.900829	0.092917
	H83	H	0.379841	0.900625	0.907948
	H84	H	0.609889	0.899158	0.079439
	H85	H	0.377888	0.079530	0.099108
	H86	H	0.608948	0.078785	0.907733
	H87	H	0.383584	0.906343	0.912045
	H88	H	0.904535	0.083141	0.612413
	H89	H	0.085652	0.078728	0.385473
	H90	H	0.079482	0.901796	0.610438
	H91	H	0.900219	0.904654	0.380732
	H92	H	0.090092	0.610705	0.908478
	H93	H	0.084370	0.380816	0.085097
	H94	H	0.901527	0.610328	0.091449
	H95	H	0.909804	0.383212	0.908751
	H96	H	0.403069	0.108536	0.585265
	H97	H	0.586330	0.881058	0.588188
	H98	H	0.581810	0.107587	0.405978
	H99	H	0.403544	0.881762	0.412481
	H100	H	0.581218	0.400071	0.111725
	H101	H	0.579368	0.582772	0.883936
	H102	H	0.405755	0.582396	0.110654
	H103	H	0.403298	0.406113	0.882257
	H104	H	0.108335	0.585070	0.407393
	H105	H	0.878298	0.583281	0.589203
	H106	H	0.108437	0.407085	0.587553
	H107	H	0.879212	0.407864	0.401895
	H108	H	0.909217	0.605819	0.087232
	H109	H	0.081716	0.381674	0.087783
	H110	H	0.074029	0.608091	0.902029
	H111	H	0.898554	0.380561	0.911570
	H112	H	0.091159	0.904436	0.614626
	H113	H	0.079582	0.086200	0.384684
	H114	H	0.909091	0.082458	0.610417
	H115	H	0.908485	0.914487	0.385938
	H116	H	0.611534	0.087253	0.907317
	H117	H	0.378353	0.095550	0.083320
	H118	H	0.607428	0.911551	0.085879
	H119	H	0.381252	0.907561	0.904081
	C120	C	0.374856	0.003116	0.619911
	C121	C	0.618122	0.985672	0.620464
	C122	C	0.617765	0.003013	0.376278
	C123	C	0.375493	0.986895	0.376967
	C124	C	0.615257	0.372093	0.005978
	C125	C	0.615436	0.614074	0.988722
	C126	C	0.372789	0.615790	0.005662
	C127	C	0.372214	0.372052	0.987927
	C128	C	0.003302	0.616531	0.375851
	C129	C	0.984645	0.617671	0.618640
	C130	C	0.001950	0.374394	0.618345
	C131	C	0.985896	0.373261	0.376111
	C132	C	0.872341	0.502444	0.119005
	C133	C	0.114861	0.486661	0.118319
	C134	C	0.113557	0.502818	0.876201
	C135	C	0.870971	0.485663	0.875762
	C136	C	0.117666	0.873878	0.506400
	C137	C	0.117393	0.117076	0.488829
	C138	C	0.874264	0.116382	0.506247
	C139	C	0.875349	0.874665	0.488532
	C140	C	0.503835	0.114704	0.877220
	C141	C	0.486647	0.115378	0.118502
	C142	C	0.504613	0.872356	0.118529
	C143	C	0.486650	0.872050	0.875649
	C144	C	0.371936	0.883621	0.679808
	C145	C	0.620205	0.104934	0.680843
	C146	C	0.621054	0.883455	0.316252
	C147	C	0.372206	0.105471	0.315843
	C148	C	0.675041	0.369644	0.886080
	C149	C	0.675394	0.616342	0.108581
	C150	C	0.312889	0.617527	0.885663
	C151	C	0.312602	0.371111	0.107706
	C152	C	0.883752	0.677967	0.373085
	C153	C	0.105280	0.676556	0.622092
	C154	C	0.882706	0.313156	0.621137
	C155	C	0.105911	0.313013	0.373067
	C156	C	0.881120	0.372655	0.676701
	C157	C	0.103829	0.619327	0.680537
	C158	C	0.882287	0.618387	0.317004
	C159	C	0.105465	0.370291	0.315228
	C160	C	0.370896	0.674963	0.885605
	C161	C	0.619911	0.675557	0.107834
	C162	C	0.617662	0.312296	0.885959
	C163	C	0.369769	0.312675	0.107849
	C164	C	0.677112	0.883141	0.375480
	C165	C	0.677124	0.105420	0.622435
	C166	C	0.313648	0.884508	0.622407
	C167	C	0.315059	0.106034	0.374328
	C168	C	0.870463	0.382863	0.178813
	C169	C	0.117466	0.605886	0.178559
	C170	C	0.115274	0.382971	0.816283
	C171	C	0.867536	0.605376	0.816110
	C172	C	0.177436	0.872172	0.386381
	C173	C	0.177340	0.119810	0.608887
	C174	C	0.813844	0.118316	0.386451
	C175	C	0.816031	0.872517	0.608930
	C176	C	0.383403	0.174106	0.873618
	C177	C	0.606891	0.174759	0.119679
	C178	C	0.383613	0.813794	0.120302
	C179	C	0.606523	0.811073	0.873336
	C180	C	0.384091	0.871605	0.177914
	C181	C	0.607620	0.116571	0.176990
	C182	C	0.383430	0.115748	0.817200
	C183	C	0.607293	0.869703	0.816820
	C184	C	0.871743	0.175328	0.386188
	C185	C	0.119842	0.177423	0.608584
	C186	C	0.122002	0.812445	0.387221
	C187	C	0.873490	0.814936	0.608682
	C188	C	0.173746	0.383180	0.873636
	C189	C	0.175501	0.605656	0.120947
	C190	C	0.813732	0.382206	0.120094
	C191	C	0.811724	0.605636	0.875236
	C192	C	0.400787	0.086086	0.595045
	C193	C	0.593488	0.902301	0.595235
	C194	C	0.592141	0.086483	0.400911
	C195	C	0.400980	0.903954	0.402331
	C196	C	0.590092	0.396797	0.089474
	C197	C	0.589311	0.588568	0.905466
	C198	C	0.397592	0.591321	0.089364
	C199	C	0.397132	0.395983	0.904242
	C200	C	0.086627	0.590824	0.400974
	C201	C	0.901097	0.593322	0.592451
	C202	C	0.085328	0.399945	0.593436
	C203	C	0.902508	0.398362	0.401800
	C204	C	0.896685	0.585836	0.094226
	C205	C	0.089655	0.403320	0.093020
	C206	C	0.087955	0.585718	0.901890
	C207	C	0.896486	0.402343	0.899951
	C208	C	0.092224	0.899131	0.589567
	C209	C	0.091922	0.091321	0.405701
	C210	C	0.899826	0.091417	0.589768
	C211	C	0.900185	0.899535	0.405308
	C212	C	0.587763	0.090294	0.902572
	C213	C	0.402653	0.090544	0.094033
	C214	C	0.588158	0.896655	0.093414
	C215	C	0.403295	0.897466	0.900826
	Zn216	Zn	0.496343	-0.006127	0.748736
	Zn217	Zn	0.496597	-0.006054	0.247163
	Zn218	Zn	0.743196	0.493297	-0.002913
	Zn219	Zn	0.243884	0.494724	-0.003228
	Zn220	Zn	-0.004282	0.745771	0.496833
	Zn221	Zn	-0.004951	0.244925	0.497836
	Zn222	Zn	-0.007976	0.495108	0.746712
	Zn223	Zn	-0.006023	0.494566	0.247483
	Zn224	Zn	0.495243	0.743572	-0.002952
	Zn225	Zn	0.494402	0.243779	-0.002966
	Zn226	Zn	0.745954	-0.004899	0.497872
	Zn227	Zn	0.245928	-0.004287	0.498116
	N228	N	0.409564	0.958193	0.678083
	N229	N	0.584441	0.029285	0.679880
	N230	N	0.584842	0.959170	0.316652
	N231	N	0.409606	0.030539	0.317695
	N232	N	0.673649	0.406218	0.961600
	N233	N	0.672770	0.579065	0.033407
	N234	N	0.313953	0.581474	0.961348
	N235	N	0.313977	0.407184	0.032186
	N236	N	0.960053	0.677071	0.408657
	N237	N	0.030180	0.675398	0.584189
	N238	N	0.958905	0.314130	0.585556
	N239	N	0.030582	0.314696	0.410354
	N240	N	0.956369	0.409888	0.675171
	N241	N	0.027857	0.583774	0.678764
	N242	N	0.957755	0.580972	0.318472
	N243	N	0.029810	0.407046	0.316920
	N244	N	0.407283	0.674070	0.961240
	N245	N	0.583044	0.674282	0.032441
	N246	N	0.581008	0.313699	0.961460
	N247	N	0.406018	0.312912	0.032115
	N248	N	0.675220	0.958505	0.412063
	N249	N	0.675946	0.030219	0.585649
	N250	N	0.315351	0.959857	0.585926
	N251	N	0.317139	0.031247	0.411863
	N252	N	0.906214	0.458511	0.178199
	N253	N	0.080545	0.530811	0.176948
	N254	N	0.078552	0.458393	0.817729
	N255	N	0.903974	0.529877	0.816481
	N256	N	0.175060	0.909560	0.461535
	N257	N	0.176179	0.083260	0.533255
	N258	N	0.815228	0.082500	0.462268
	N259	N	0.817083	0.909101	0.533418
	N260	N	0.459167	0.173719	0.910384
	N261	N	0.530565	0.174308	0.084245
	N262	N	0.459608	0.813734	0.084386
	N263	N	0.530427	0.812139	0.908999
	N264	N	0.460345	0.907000	0.177155
	N265	N	0.531839	0.080473	0.176440
	N266	N	0.459447	0.079758	0.819291
	N267	N	0.531806	0.906573	0.818050
	N268	N	0.908383	0.174433	0.461767
	N269	N	0.083566	0.176152	0.532916
	N270	N	0.085663	0.813095	0.462851
	N271	N	0.909742	0.816156	0.532988
	N272	N	0.172758	0.458639	0.910201
	N273	N	0.173956	0.530406	0.084086
	N274	N	0.814482	0.457757	0.083768
	N275	N	0.813877	0.530288	0.911634
	O276	O	0.504895	0.606862	0.525617
	H277	H	0.518056	0.592712	0.509010
	H278	H	0.512715	0.605016	0.523151
	O279	O	0.461584	0.553186	0.314028
	H280	H	0.451460	0.567427	0.290106
	H281	H	0.436967	0.553940	0.320882
	O282	O	0.463748	0.315550	0.595053
	H283	H	0.456615	0.326938	0.588300
	H284	H	0.457703	0.301536	0.605926
	O285	O	0.810000	1.073664	0.123542
	H286	H	0.822617	1.081184	0.135591
	H287	H	0.813462	1.079657	0.118551
	O288	O	0.680360	0.543010	0.696894
	H289	H	0.683943	0.547068	0.711125
	H290	H	0.688480	0.576699	0.701261
	O291	O	0.294249	0.400535	0.573047
	H292	H	0.287081	0.402090	0.583074
	H293	H	0.287851	0.376428	0.559799
	O294	O	0.894171	0.799385	1.184909
	H295	H	0.892702	0.781628	1.186705
	H296	H	0.870620	0.823755	1.178978
	O297	O	0.317627	0.432995	0.681798
	H298	H	0.322245	0.423377	0.673336
	H299	H	0.324404	0.434709	0.676404
	O300	O	0.405488	0.351295	0.408502
	H301	H	0.418004	0.348288	0.401235
	H302	H	0.395309	0.353348	0.405572
	O303	O	0.582977	0.286918	0.494726
	H304	H	0.568938	0.280849	0.498296
	H305	H	0.594234	0.268840	0.499590
	O306	O	-0.035467	-0.006773	1.084655
	H307	H	-0.028792	0.002523	1.096516
	H308	H	-0.016733	-0.005322	1.096068
	O309	O	1.128177	-0.211444	0.008335
	H310	H	1.133682	-0.223817	0.010617
	H311	H	1.122947	-0.210648	-0.005129
	O312	O	0.678279	0.666974	0.599029
	H313	H	0.672983	0.677887	0.569854
	H314	H	0.650790	0.672549	0.612018
	O315	O	0.680895	0.404402	0.389629
	H316	H	0.692650	0.399661	0.372871
	H317	H	0.677572	0.403574	0.373840
	O318	O	-0.149322	0.050518	-0.168809
	H319	H	-0.148813	0.054313	-0.173855
	H320	H	-0.141571	0.071457	-0.179064
	O321	O	0.392599	0.403070	0.408745
	H322	H	0.394158	0.419518	0.403382
	H323	H	0.390232	0.400885	0.407304
	O324	O	0.818910	0.007734	0.854763
	H325	H	0.808945	0.014769	0.845183
	H326	H	0.816639	0.009974	0.858114
	O327	O	0.683794	0.556001	0.503576
	H328	H	0.688873	0.533737	0.512898
	H329	H	0.674434	0.549686	0.483515
	O330	O	-0.081302	0.940617	0.878394
	H331	H	-0.074717	0.938423	0.884205
	H332	H	-0.110848	0.953009	0.877611
	O333	O	-0.168630	0.790916	-0.022032
	H334	H	-0.183250	0.794300	-0.026244
	H335	H	-0.175893	0.787014	-0.020660
	O336	O	0.993553	1.160809	0.174879
	H337	H	1.006194	1.181244	0.183371
	H338	H	1.015338	1.150597	0.174106
	O339	O	-0.032904	1.149833	1.048869
	H340	H	-0.015470	1.154300	1.040655
	H341	H	-0.020878	1.158626	1.061838
	O342	O	0.297757	0.696519	0.407008
	H343	H	0.274143	0.694824	0.410114
	H344	H	0.291930	0.677336	0.420008
	O345	O	-0.036555	0.199033	0.826353
	H346	H	-0.047096	0.204259	0.821950
	H347	H	-0.033827	0.198341	0.807316
	O348	O	0.373280	0.411335	0.667534
	H349	H	0.379681	0.420390	0.657361
	H350	H	0.379392	0.420227	0.659703
	O351	O	0.806229	1.083359	-0.049756
	H352	H	0.815954	1.083921	-0.034163
	H353	H	0.810773	1.094397	-0.043294
	O354	O	1.118962	0.909349	1.034897
	H355	H	1.111837	0.891359	1.030779
	H356	H	1.130656	0.901361	1.039914
	O357	O	0.128012	-0.080267	0.117335
	H358	H	0.122351	-0.088646	0.125664
	H359	H	0.115299	-0.085516	0.128419
	O360	O	0.480117	0.468208	0.577719
	H361	H	0.467877	0.460535	0.576310
	H362	H	0.483744	0.456720	0.555695
	O363	O	1.171742	0.021898	0.157361
	H364	H	1.164829	0.028641	0.143734
	H365	H	1.182420	0.015201	0.167234
	O366	O	0.294704	0.505848	1.358678
	H367	H	0.274971	0.517767	1.347700
	H368	H	0.305035	0.508432	1.369486
	O369	O	1.062811	-0.185515	0.882387
	H370	H	1.058475	-0.193072	0.894684
	H371	H	1.053547	-0.195239	0.882411
	O372	O	0.544474	0.360087	0.618563
	H373	H	0.542919	0.373283	0.619932
	H374	H	0.536808	0.358862	0.617161
	O375	O	-0.090800	-0.019081	1.096480
	H376	H	-0.072054	-0.004997	1.086011
	H377	H	-0.092420	-0.015843	1.104060
	O378	O	0.581931	0.356413	0.365334
	H379	H	0.583375	0.341524	0.360915
	H380	H	0.590531	0.354607	0.365768
	O381	O	0.179040	1.181963	0.190314
	H382	H	0.174961	1.156545	0.196404
	H383	H	0.188096	1.192041	0.140091
	O384	O	0.577055	0.618711	0.322448
	H385	H	0.577029	0.631961	0.331113
	H386	H	0.563697	0.622235	0.324689
	O387	O	0.546647	0.691927	0.671233
	H388	H	0.542991	0.706675	0.658245
	H389	H	0.536821	0.706075	0.680129
	O390	O	0.862702	0.889530	0.192591
	H391	H	0.858270	0.902274	0.174305
	H392	H	0.861485	0.913973	0.194549
	O393	O	0.806137	0.147139	0.900303
	H394	H	0.811788	0.139557	0.909408
	H395	H	0.796438	0.164079	0.905514
	O396	O	0.692957	0.465982	0.463458
	H397	H	0.699944	0.461578	0.473772
	H398	H	0.696550	0.470565	0.487728
	O399	O	0.686864	0.328236	0.314656
	H400	H	0.689039	0.352972	0.307662
	H401	H	0.681849	0.325533	0.336449
	O402	O	1.012511	0.878768	0.170751
	H403	H	1.001285	0.864845	0.174929
	H404	H	0.996120	0.876411	0.173137
	O405	O	0.455287	0.461225	0.303562
	H406	H	0.458255	0.455156	0.309497
	H407	H	0.471354	0.449143	0.310699
	O408	O	0.516936	0.328736	0.544605
	H409	H	0.524070	0.325323	0.519939
	H410	H	0.519368	0.347488	0.560222
	O411	O	1.111663	1.052518	0.893324
	H412	H	1.094485	1.051148	0.892395
	H413	H	1.113435	1.036240	0.878384
	O414	O	0.405597	0.609139	0.291349
	H415	H	0.417414	0.575833	0.301943
	H416	H	0.412629	0.613951	0.258867
	O417	O	0.089053	1.121925	0.846191
	H418	H	0.071779	1.088858	0.839357
	H419	H	0.092125	1.115627	0.832457
	O420	O	0.184570	0.844609	0.856332
	H421	H	0.162968	0.846582	0.865738
	H422	H	0.166205	0.842572	0.858626
	O423	O	0.006329	0.820518	-0.115541
	H424	H	-0.004258	0.811601	-0.118070
	H425	H	0.013593	0.813826	-0.102526
	O426	O	0.509513	0.653183	0.474009
	H427	H	0.500363	0.656123	0.475764
	H428	H	0.501979	0.650160	0.460624
	O429	O	0.334804	0.617128	0.631614
	H430	H	0.343054	0.605958	0.633817
	H431	H	0.333516	0.606500	0.631701
	O432	O	0.504292	0.575427	0.643960
	H433	H	0.489646	0.583791	0.639051
	H434	H	0.499408	0.591400	0.638315
	O435	O	0.194620	0.202919	0.026834
	H436	H	0.206622	0.196717	0.001430
	H437	H	0.198470	0.218048	0.007679
	O438	O	0.131570	0.952795	0.802372
	H439	H	0.117572	0.933033	0.806224
	H440	H	0.144105	0.942800	0.782044
	O441	O	0.302612	0.653231	0.429015
	H442	H	0.288969	0.672343	0.438581
	H443	H	0.325029	0.642248	0.442224
