data_Molecule from HDF5

_cell_length_a		16.392486
_cell_length_b		16.138089
_cell_length_c		16.182344
_cell_angle_alpha	89.906040
_cell_angle_beta	89.879835
_cell_angle_gamma	90.057979
_symmetry_space_group_name_H-M	'P 1'
_symmetry_Int_Tables_number		1

loop_
	_symmetry_equiv_pos_as_xyz
	x,y,z

loop_
	_atom_site_label
	_atom_site_type_symbol
	_atom_site_fract_x
	_atom_site_fract_y
	_atom_site_fract_z
	H0	H	0.394829	0.841003	0.716754
	H1	H	0.588395	0.172683	0.716332
	H2	H	0.589043	0.841787	0.291361
	H3	H	0.394882	0.172394	0.291689
	H4	H	0.707895	0.406884	0.839785
	H5	H	0.708362	0.609971	0.166701
	H6	H	0.275960	0.609540	0.840406
	H7	H	0.274822	0.405770	0.166949
	H8	H	0.828551	0.721846	0.405010
	H9	H	0.154955	0.721421	0.599667
	H10	H	0.827604	0.293549	0.602042
	H11	H	0.154192	0.294190	0.406375
	H12	H	0.829015	0.408387	0.720562
	H13	H	0.155168	0.605889	0.717428
	H14	H	0.829216	0.606615	0.288240
	H15	H	0.154186	0.408538	0.288519
	H16	H	0.397302	0.719422	0.838581
	H17	H	0.587718	0.718699	0.169147
	H18	H	0.588610	0.294724	0.838952
	H19	H	0.392367	0.294018	0.168253
	H20	H	0.706226	0.843290	0.404532
	H21	H	0.706076	0.171754	0.604366
	H22	H	0.274678	0.842946	0.606048
	H23	H	0.276071	0.171444	0.403500
	H24	H	0.894898	0.341884	0.216100
	H25	H	0.087680	0.673137	0.214566
	H26	H	0.088224	0.341917	0.791870
	H27	H	0.895835	0.673355	0.791218
	H28	H	0.207007	0.908512	0.340701
	H29	H	0.205897	0.107652	0.668054
	H30	H	0.776486	0.107675	0.339925
	H31	H	0.775873	0.906753	0.667929
	H32	H	0.327351	0.220747	0.908276
	H33	H	0.655028	0.222022	0.101227
	H34	H	0.328103	0.792861	0.102431
	H35	H	0.655058	0.794705	0.907686
	H36	H	0.328029	0.908992	0.219377
	H37	H	0.654811	0.104486	0.218121
	H38	H	0.328009	0.106069	0.789056
	H39	H	0.654397	0.910356	0.790441
	H40	H	0.896203	0.219511	0.338365
	H41	H	0.086263	0.218673	0.669403
	H42	H	0.087888	0.796941	0.338020
	H43	H	0.894752	0.794489	0.668463
	H44	H	0.206128	0.342576	0.904216
	H45	H	0.207000	0.671803	0.103650
	H46	H	0.775663	0.343779	0.104380
	H47	H	0.777194	0.671714	0.902796
	H48	H	0.406268	0.121920	0.595686
	H49	H	0.588201	0.889623	0.593201
	H50	H	0.589645	0.125088	0.416676
	H51	H	0.397695	0.891432	0.418144
	H52	H	0.578391	0.412115	0.120165
	H53	H	0.587170	0.599088	0.885525
	H54	H	0.390783	0.593519	0.122297
	H55	H	0.396226	0.418125	0.886351
	H56	H	0.108262	0.593786	0.400606
	H57	H	0.874411	0.612976	0.589443
	H58	H	0.109272	0.409559	0.599754
	H59	H	0.876745	0.411624	0.415895
	H60	H	0.105531	0.413345	0.592909
	H61	H	0.881322	0.588986	0.591361
	H62	H	0.110950	0.612448	0.406295
	H63	H	0.876001	0.419867	0.408559
	H64	H	0.404406	0.595190	0.118320
	H65	H	0.584454	0.598367	0.886340
	H66	H	0.590466	0.413622	0.123343
	H67	H	0.400406	0.416234	0.886454
	H68	H	0.586217	0.127262	0.405706
	H69	H	0.586641	0.887683	0.600408
	H70	H	0.392450	0.124358	0.589465
	H71	H	0.394042	0.887082	0.411322
	H72	H	0.899327	0.626450	0.100111
	H73	H	0.088871	0.387292	0.099491
	H74	H	0.087702	0.625126	0.913936
	H75	H	0.901092	0.390202	0.910172
	H76	H	0.079538	0.915159	0.619759
	H77	H	0.081454	0.099092	0.387892
	H78	H	0.892477	0.099516	0.623383
	H79	H	0.896933	0.924207	0.387851
	H80	H	0.608733	0.100055	0.901359
	H81	H	0.373313	0.100084	0.105711
	H82	H	0.608324	0.913605	0.102414
	H83	H	0.378979	0.924080	0.914267
	H84	H	0.608286	0.910194	0.095309
	H85	H	0.374946	0.108350	0.095945
	H86	H	0.609101	0.109707	0.912664
	H87	H	0.372382	0.912529	0.899425
	H88	H	0.898931	0.096614	0.620580
	H89	H	0.086612	0.104643	0.384014
	H90	H	0.086855	0.909484	0.624311
	H91	H	0.905132	0.911619	0.387152
	H92	H	0.089660	0.627178	0.907870
	H93	H	0.080383	0.390348	0.097846
	H94	H	0.902071	0.623931	0.092309
	H95	H	0.899560	0.391018	0.916887
	H96	H	0.394917	0.128524	0.603771
	H97	H	0.580885	0.889536	0.596782
	H98	H	0.578516	0.122770	0.413624
	H99	H	0.401887	0.890005	0.411169
	H100	H	0.584055	0.423706	0.118307
	H101	H	0.586119	0.601715	0.885811
	H102	H	0.397265	0.606422	0.124006
	H103	H	0.397241	0.413369	0.885028
	H104	H	0.104103	0.598916	0.419382
	H105	H	0.871709	0.600856	0.611907
	H106	H	0.107016	0.418159	0.599650
	H107	H	0.873065	0.409659	0.405614
	H108	H	0.893868	0.626688	0.093341
	H109	H	0.086625	0.389975	0.091243
	H110	H	0.083633	0.625798	0.909100
	H111	H	0.894753	0.388726	0.912517
	H112	H	0.088989	0.919321	0.622046
	H113	H	0.089261	0.097777	0.385854
	H114	H	0.899212	0.103618	0.622239
	H115	H	0.890574	0.911751	0.382750
	H116	H	0.603784	0.095711	0.914742
	H117	H	0.377857	0.095927	0.095306
	H118	H	0.605410	0.917741	0.096121
	H119	H	0.374357	0.904426	0.917867
	C120	C	0.369756	0.015291	0.625488
	C121	C	0.612921	0.998388	0.625353
	C122	C	0.612800	0.015950	0.383239
	C123	C	0.370123	0.998373	0.383957
	C124	C	0.612829	0.387043	0.012039
	C125	C	0.613774	0.629065	0.994774
	C126	C	0.369873	0.628046	0.012722
	C127	C	0.369654	0.386457	0.994734
	C128	C	0.000184	0.630084	0.380805
	C129	C	0.983590	0.629473	0.625389
	C130	C	-0.000551	0.385230	0.626046
	C131	C	0.982962	0.385526	0.381519
	C132	C	0.869852	0.516408	0.124696
	C133	C	0.113187	0.498816	0.124490
	C134	C	0.113813	0.516195	0.882486
	C135	C	0.870497	0.499084	0.883451
	C136	C	0.113044	0.886495	0.512918
	C137	C	0.112980	0.128698	0.495107
	C138	C	0.869363	0.128732	0.512883
	C139	C	0.869604	0.886275	0.494742
	C140	C	0.499264	0.129518	0.881691
	C141	C	0.483209	0.129835	0.126642
	C142	C	0.499547	0.884942	0.126886
	C143	C	0.482997	0.885486	0.882399
	C144	C	0.373372	0.890643	0.679792
	C145	C	0.608712	0.123307	0.678854
	C146	C	0.609758	0.891362	0.328686
	C147	C	0.373307	0.122949	0.328690
	C148	C	0.668849	0.387862	0.888561
	C149	C	0.669651	0.628355	0.118066
	C150	C	0.314818	0.628164	0.888973
	C151	C	0.313374	0.386663	0.118156
	C152	C	0.877450	0.684732	0.384246
	C153	C	0.106232	0.683770	0.621340
	C154	C	0.876602	0.331152	0.622694
	C155	C	0.105509	0.330942	0.384845
	C156	C	0.877303	0.388096	0.681680
	C157	C	0.106198	0.626392	0.679793
	C158	C	0.877858	0.627548	0.326024
	C159	C	0.105533	0.388255	0.326622
	C160	C	0.374917	0.682835	0.888047
	C161	C	0.609402	0.682665	0.119332
	C162	C	0.609841	0.332051	0.888006
	C163	C	0.372134	0.331248	0.118957
	C164	C	0.668473	0.892121	0.384536
	C165	C	0.667818	0.122658	0.623566
	C166	C	0.314104	0.891631	0.624423
	C167	C	0.314637	0.122552	0.384426
	C168	C	0.873528	0.391655	0.179062
	C169	C	0.109294	0.623512	0.178046
	C170	C	0.109375	0.391309	0.828924
	C171	C	0.874217	0.623664	0.828126
	C172	C	0.168656	0.888022	0.389230
	C173	C	0.167598	0.126994	0.619099
	C174	C	0.814459	0.127440	0.388906
	C175	C	0.814465	0.887489	0.618858
	C176	C	0.376151	0.183715	0.886106
	C177	C	0.606128	0.184395	0.122574
	C178	C	0.376693	0.830540	0.123392
	C179	C	0.606159	0.831811	0.886488
	C180	C	0.376891	0.888353	0.181515
	C181	C	0.606170	0.126037	0.180667
	C182	C	0.376419	0.126650	0.827201
	C183	C	0.605828	0.889257	0.827980
	C184	C	0.873993	0.182823	0.387987
	C185	C	0.108371	0.182389	0.619772
	C186	C	0.108903	0.833321	0.387871
	C187	C	0.873413	0.831745	0.619142
	C188	C	0.167962	0.391597	0.884767
	C189	C	0.168251	0.622853	0.122592
	C190	C	0.814446	0.392585	0.123603
	C191	C	0.815440	0.622867	0.883495
	C192	C	0.391571	0.102417	0.602812
	C193	C	0.591609	0.911384	0.603383
	C194	C	0.591148	0.102533	0.405348
	C195	C	0.391581	0.911871	0.406766
	C196	C	0.590853	0.409785	0.098259
	C197	C	0.592066	0.606662	0.908204
	C198	C	0.391017	0.605178	0.099065
	C199	C	0.391662	0.409097	0.908317
	C200	C	0.085693	0.608178	0.402422
	C201	C	0.897764	0.607554	0.603711
	C202	C	0.085231	0.407171	0.604072
	C203	C	0.897424	0.407237	0.403438
	C204	C	0.891941	0.603179	0.101978
	C205	C	0.091600	0.411629	0.102698
	C206	C	0.093242	0.603454	0.903983
	C207	C	0.892196	0.412391	0.906420
	C208	C	0.091574	0.908299	0.599728
	C209	C	0.092107	0.106872	0.408275
	C210	C	0.890534	0.106428	0.599607
	C211	C	0.891053	0.909170	0.408163
	C212	C	0.584876	0.107997	0.903019
	C213	C	0.397518	0.107978	0.105316
	C214	C	0.585264	0.907337	0.104754
	C215	C	0.397375	0.907237	0.904230
	Zn216	Zn	0.491078	0.007007	0.753134
	Zn217	Zn	0.491352	0.007002	0.256111
	Zn218	Zn	0.741692	0.507927	0.003362
	Zn219	Zn	0.241780	0.507204	0.003475
	Zn220	Zn	-0.008347	0.759007	0.503192
	Zn221	Zn	-0.008776	0.256232	0.503395
	Zn222	Zn	-0.008422	0.507534	0.755575
	Zn223	Zn	-0.008241	0.507723	0.252324
	Zn224	Zn	0.491218	0.755902	0.004381
	Zn225	Zn	0.491057	0.259159	0.003382
	Zn226	Zn	0.740931	0.007360	0.504284
	Zn227	Zn	0.241712	0.007317	0.504436
	N228	N	0.407253	0.968606	0.680423
	N229	N	0.575365	0.044945	0.680114
	N230	N	0.575798	0.969243	0.327844
	N231	N	0.407248	0.045060	0.328297
	N232	N	0.670936	0.421119	0.966884
	N233	N	0.672409	0.595808	0.039508
	N234	N	0.311729	0.594824	0.967246
	N235	N	0.311818	0.420450	0.040049
	N236	N	0.954499	0.686263	0.417820
	N237	N	0.028967	0.686012	0.588483
	N238	N	0.953663	0.329404	0.588741
	N239	N	0.028392	0.329198	0.418407
	N240	N	0.954639	0.421210	0.683624
	N241	N	0.028804	0.593064	0.682257
	N242	N	0.954976	0.594155	0.323797
	N243	N	0.028354	0.421704	0.324494
	N244	N	0.408264	0.683025	0.965980
	N245	N	0.575444	0.683173	0.041750
	N246	N	0.575417	0.331595	0.965633
	N247	N	0.406451	0.330974	0.041236
	N248	N	0.670324	0.970485	0.417723
	N249	N	0.670409	0.043994	0.590901
	N250	N	0.311604	0.970341	0.591546
	N251	N	0.312777	0.044252	0.418384
	N252	N	0.907168	0.469870	0.179974
	N253	N	0.076078	0.545308	0.179407
	N254	N	0.076468	0.469699	0.827482
	N255	N	0.907796	0.545526	0.827993
	N256	N	0.171166	0.920444	0.467747
	N257	N	0.170666	0.094589	0.540572
	N258	N	0.811438	0.094609	0.467568
	N259	N	0.811924	0.920683	0.540505
	N260	N	0.453479	0.185895	0.919016
	N261	N	0.528667	0.186817	0.089586
	N262	N	0.453962	0.828192	0.090037
	N263	N	0.528685	0.829351	0.919624
	N264	N	0.454253	0.921469	0.183384
	N265	N	0.528768	0.093312	0.183512
	N266	N	0.453831	0.093796	0.824399
	N267	N	0.528442	0.921835	0.825691
	N268	N	0.907130	0.183702	0.465915
	N269	N	0.074945	0.183559	0.541707
	N270	N	0.075088	0.832160	0.465894
	N271	N	0.907017	0.831094	0.541160
	N272	N	0.170989	0.470409	0.917267
	N273	N	0.170737	0.544139	0.089878
	N274	N	0.812004	0.471125	0.090505
	N275	N	0.813077	0.544486	0.917084
	O276	O	0.460525	-0.485950	0.469014
	H277	H	0.466098	-0.481329	0.468019
	H278	H	0.465318	-0.491820	0.467151
	O279	O	0.483276	0.491425	0.476335
	H280	H	0.479058	0.487562	0.471730
	H281	H	0.479125	0.487483	0.472314
	O282	O	0.533882	0.407964	0.429146
	H283	H	0.535241	0.405021	0.425389
	H284	H	0.539258	0.406127	0.432912
	O285	O	0.456242	0.487824	0.458317
	H286	H	0.454244	0.487098	0.471531
	H287	H	0.454989	0.496461	0.452079
	O288	O	0.533962	0.427269	0.459746
	H289	H	0.531058	0.431750	0.467030
	H290	H	0.522583	0.437104	0.454053
	O291	O	0.540775	0.466296	0.423103
	H292	H	0.544487	0.461639	0.434658
	H293	H	0.550127	0.458238	0.415670
	O294	O	0.463770	0.459926	0.515123
	H295	H	0.467406	0.451660	0.511404
	H296	H	0.463829	0.454045	0.515510
	O297	O	1.487877	0.422880	0.475154
	H298	H	1.484363	0.421332	0.468186
	H299	H	1.484583	0.421622	0.473169
