data_Molecule from HDF5

_cell_length_a		16.221016
_cell_length_b		16.205121
_cell_length_c		16.236920
_cell_angle_alpha	90.525148
_cell_angle_beta	89.305590
_cell_angle_gamma	89.206865
_symmetry_space_group_name_H-M	'P 1'
_symmetry_Int_Tables_number		1

loop_
	_symmetry_equiv_pos_as_xyz
	x,y,z

loop_
	_atom_site_label
	_atom_site_type_symbol
	_atom_site_fract_x
	_atom_site_fract_y
	_atom_site_fract_z
	H0	H	0.387027	0.833395	0.708475
	H1	H	0.586555	0.158827	0.711676
	H2	H	0.591817	0.833070	0.274782
	H3	H	0.385366	0.159840	0.280009
	H4	H	0.704381	0.393199	0.831781
	H5	H	0.696407	0.597944	0.159191
	H6	H	0.270559	0.596873	0.831380
	H7	H	0.266676	0.399891	0.158099
	H8	H	0.822789	0.717214	0.397178
	H9	H	0.149595	0.711411	0.592658
	H10	H	0.822112	0.285317	0.596122
	H11	H	0.148257	0.278425	0.387973
	H12	H	0.821100	0.402731	0.709855
	H13	H	0.148179	0.599145	0.710972
	H14	H	0.820877	0.601303	0.282238
	H15	H	0.147118	0.392786	0.273157
	H16	H	0.383243	0.713570	0.833082
	H17	H	0.578234	0.711967	0.159177
	H18	H	0.590893	0.277940	0.832285
	H19	H	0.382954	0.284621	0.158796
	H20	H	0.706922	0.834201	0.389670
	H21	H	0.695284	0.162121	0.590844
	H22	H	0.271177	0.833636	0.594946
	H23	H	0.267500	0.158759	0.392516
	H24	H	0.883015	0.334060	0.211872
	H25	H	0.079999	0.661623	0.210445
	H26	H	0.089727	0.335146	0.774404
	H27	H	0.883351	0.662612	0.784931
	H28	H	0.206158	0.893972	0.330238
	H29	H	0.198558	0.097614	0.657326
	H30	H	0.772320	0.097159	0.329045
	H31	H	0.771046	0.902505	0.656050
	H32	H	0.322010	0.214268	0.897780
	H33	H	0.649318	0.212797	0.094311
	H34	H	0.320546	0.789709	0.095381
	H35	H	0.647466	0.776282	0.892780
	H36	H	0.324327	0.899737	0.212353
	H37	H	0.649881	0.095945	0.206802
	H38	H	0.321972	0.097911	0.780703
	H39	H	0.649775	0.892060	0.776969
	H40	H	0.886917	0.213397	0.329141
	H41	H	0.082340	0.214180	0.656727
	H42	H	0.090565	0.778319	0.331450
	H43	H	0.888104	0.790205	0.658161
	H44	H	0.205058	0.334890	0.890581
	H45	H	0.195481	0.661676	0.095762
	H46	H	0.770686	0.332505	0.093765
	H47	H	0.767632	0.661015	0.899354
	H48	H	0.387951	0.116036	0.588839
	H49	H	0.576352	0.882789	0.576916
	H50	H	0.589683	0.117923	0.399056
	H51	H	0.384747	0.877806	0.408401
	H52	H	0.571580	0.394931	0.113758
	H53	H	0.579669	0.587253	0.877526
	H54	H	0.386297	0.594763	0.114223
	H55	H	0.403063	0.407837	0.881564
	H56	H	0.098148	0.576776	0.403238
	H57	H	0.866313	0.597949	0.589124
	H58	H	0.097512	0.410977	0.577373
	H59	H	0.866265	0.406532	0.398858
	H60	H	0.102780	0.411070	0.591320
	H61	H	0.870028	0.593341	0.589717
	H62	H	0.105326	0.588296	0.391052
	H63	H	0.868996	0.402648	0.408180
	H64	H	0.386871	0.591648	0.112462
	H65	H	0.576894	0.582663	0.879686
	H66	H	0.587259	0.407238	0.114415
	H67	H	0.395446	0.398284	0.876392
	H68	H	0.573324	0.115317	0.389990
	H69	H	0.590749	0.877030	0.581334
	H70	H	0.398341	0.113157	0.590751
	H71	H	0.402013	0.876159	0.386624
	H72	H	0.886704	0.615159	0.091077
	H73	H	0.069010	0.384671	0.078819
	H74	H	0.078808	0.613892	0.910021
	H75	H	0.897125	0.380917	0.900966
	H76	H	0.081681	0.899022	0.613942
	H77	H	0.079793	0.089142	0.376344
	H78	H	0.887478	0.104308	0.613831
	H79	H	0.906788	0.905124	0.378493
	H80	H	0.598318	0.076051	0.904308
	H81	H	0.370814	0.086204	0.089520
	H82	H	0.604683	0.904049	0.089525
	H83	H	0.371434	0.912266	0.906703
	H84	H	0.604543	0.895858	0.080682
	H85	H	0.366903	0.094464	0.090147
	H86	H	0.605725	0.087174	0.892600
	H87	H	0.365938	0.908224	0.891975
	H88	H	0.881744	0.084867	0.610030
	H89	H	0.080413	0.084638	0.376942
	H90	H	0.083896	0.911552	0.609802
	H91	H	0.894377	0.898802	0.372833
	H92	H	0.080675	0.618621	0.897299
	H93	H	0.082633	0.380206	0.078612
	H94	H	0.889943	0.613669	0.089835
	H95	H	0.895652	0.380763	0.902418
	H96	H	0.393890	0.111332	0.580157
	H97	H	0.578526	0.876578	0.592465
	H98	H	0.574090	0.110276	0.408933
	H99	H	0.410906	0.886315	0.410726
	H100	H	0.569681	0.413607	0.106475
	H101	H	0.574066	0.588473	0.878773
	H102	H	0.389562	0.594108	0.112141
	H103	H	0.390617	0.411760	0.878906
	H104	H	0.101983	0.592972	0.409225
	H105	H	0.866936	0.594378	0.593366
	H106	H	0.103831	0.398252	0.582429
	H107	H	0.870616	0.412811	0.405969
	H108	H	0.887199	0.613797	0.087908
	H109	H	0.075564	0.378935	0.090147
	H110	H	0.068788	0.613998	0.900978
	H111	H	0.895066	0.379752	0.900170
	H112	H	0.072026	0.906948	0.608611
	H113	H	0.076748	0.087062	0.377428
	H114	H	0.901813	0.090524	0.606044
	H115	H	0.894242	0.913582	0.377355
	H116	H	0.601372	0.093321	0.908750
	H117	H	0.370471	0.092118	0.082891
	H118	H	0.601051	0.907166	0.078490
	H119	H	0.366230	0.897386	0.903707
	C120	C	0.364849	0.005467	0.615522
	C121	C	0.608260	0.987661	0.613728
	C122	C	0.610409	0.006308	0.368884
	C123	C	0.367389	0.987682	0.372826
	C124	C	0.607872	0.374136	0.003988
	C125	C	0.604205	0.617008	0.986890
	C126	C	0.359984	0.621289	0.004554
	C127	C	0.364478	0.377029	0.986484
	C128	C	-0.006280	0.618176	0.373468
	C129	C	0.976566	0.622220	0.618115
	C130	C	-0.006310	0.378215	0.614697
	C131	C	0.975789	0.375371	0.371320
	C132	C	0.860448	0.505567	0.117835
	C133	C	0.103482	0.489506	0.113910
	C134	C	0.107603	0.507390	0.871621
	C135	C	0.864665	0.489191	0.874407
	C136	C	0.110285	0.874570	0.502833
	C137	C	0.106944	0.117683	0.484869
	C138	C	0.862722	0.121436	0.501809
	C139	C	0.867597	0.878340	0.484454
	C140	C	0.494009	0.117332	0.873005
	C141	C	0.477510	0.119349	0.115973
	C142	C	0.494946	0.876274	0.114175
	C143	C	0.476256	0.874133	0.871095
	C144	C	0.367172	0.882312	0.670709
	C145	C	0.605509	0.110445	0.671927
	C146	C	0.610796	0.882550	0.312908
	C147	C	0.366378	0.110822	0.317638
	C148	C	0.666369	0.373440	0.881088
	C149	C	0.658684	0.617021	0.110113
	C150	C	0.306819	0.617899	0.880937
	C151	C	0.305594	0.379240	0.109232
	C152	C	0.871217	0.677757	0.376698
	C153	C	0.100228	0.674886	0.614016
	C154	C	0.870674	0.323774	0.614798
	C155	C	0.099020	0.317153	0.369556
	C156	C	0.870111	0.382112	0.671440
	C157	C	0.099484	0.618942	0.672575
	C158	C	0.870251	0.619854	0.319662
	C159	C	0.098447	0.374082	0.312225
	C160	C	0.363042	0.675776	0.881575
	C161	C	0.600072	0.673998	0.110305
	C162	C	0.609230	0.316399	0.881208
	C163	C	0.363839	0.322282	0.109679
	C164	C	0.668398	0.883120	0.369898
	C165	C	0.659605	0.112191	0.611696
	C166	C	0.309447	0.882381	0.614160
	C167	C	0.307545	0.110250	0.373621
	C168	C	0.863576	0.382597	0.173249
	C169	C	0.100259	0.612647	0.171428
	C170	C	0.108824	0.384205	0.813366
	C171	C	0.864290	0.613117	0.821588
	C172	C	0.167784	0.874452	0.379516
	C173	C	0.161280	0.117597	0.608036
	C174	C	0.809066	0.118282	0.378252
	C175	C	0.810227	0.882264	0.607639
	C176	C	0.371053	0.175670	0.876429
	C177	C	0.600341	0.174759	0.113936
	C178	C	0.370367	0.824869	0.114556
	C179	C	0.598921	0.815594	0.872835
	C180	C	0.372176	0.879901	0.172673
	C181	C	0.600764	0.116487	0.169994
	C182	C	0.370989	0.117404	0.818484
	C183	C	0.600116	0.873085	0.815087
	C184	C	0.866108	0.176122	0.378319
	C185	C	0.103393	0.175474	0.607920
	C186	C	0.110180	0.817003	0.380084
	C187	C	0.868259	0.826226	0.608672
	C188	C	0.166267	0.383960	0.871164
	C189	C	0.157818	0.612708	0.114424
	C190	C	0.806955	0.381995	0.114991
	C191	C	0.806446	0.612326	0.878600
	C192	C	0.386774	0.091256	0.593141
	C193	C	0.587813	0.901219	0.590501
	C194	C	0.586068	0.092356	0.392306
	C195	C	0.392123	0.902276	0.395385
	C196	C	0.583493	0.398272	0.089483
	C197	C	0.582959	0.593189	0.901091
	C198	C	0.381315	0.599893	0.090535
	C199	C	0.389192	0.399387	0.901166
	C200	C	0.079592	0.593253	0.394865
	C201	C	0.890044	0.601458	0.596881
	C202	C	0.079345	0.400064	0.590575
	C203	C	0.890521	0.400114	0.396753
	C204	C	0.881702	0.591828	0.096030
	C205	C	0.081933	0.403573	0.089485
	C206	C	0.083212	0.593053	0.895815
	C207	C	0.888794	0.402912	0.895109
	C208	C	0.086330	0.898848	0.588609
	C209	C	0.085299	0.093948	0.399196
	C210	C	0.884011	0.099792	0.587633
	C211	C	0.891598	0.899579	0.398460
	C212	C	0.579845	0.092566	0.895317
	C213	C	0.391559	0.097349	0.093987
	C214	C	0.581141	0.896477	0.090055
	C215	C	0.390044	0.898802	0.894153
	Zn216	Zn	0.486740	-0.003975	0.742920
	Zn217	Zn	0.487490	-0.003363	0.242804
	Zn218	Zn	0.734142	0.496050	-0.004970
	Zn219	Zn	0.234302	0.498037	-0.004948
	Zn220	Zn	-0.013595	0.748244	0.494626
	Zn221	Zn	-0.014512	0.248582	0.492975
	Zn222	Zn	-0.014760	0.499299	0.744587
	Zn223	Zn	-0.016109	0.497210	0.244294
	Zn224	Zn	0.482516	0.747631	-0.004913
	Zn225	Zn	0.485885	0.247775	-0.004910
	Zn226	Zn	0.736394	-0.002377	0.492494
	Zn227	Zn	0.237814	-0.003579	0.493781
	N228	N	0.400946	0.959775	0.671817
	N229	N	0.574366	0.031864	0.673155
	N230	N	0.575563	0.960216	0.312149
	N231	N	0.403048	0.033771	0.317052
	N232	N	0.665606	0.408792	0.958324
	N233	N	0.661398	0.582279	0.032400
	N234	N	0.304632	0.584818	0.958395
	N235	N	0.305993	0.412722	0.031715
	N236	N	0.948947	0.676710	0.409554
	N237	N	0.022654	0.676871	0.580891
	N238	N	0.948410	0.321278	0.580097
	N239	N	0.021923	0.317909	0.405654
	N240	N	0.947809	0.415259	0.671649
	N241	N	0.021277	0.587121	0.675435
	N242	N	0.947332	0.583381	0.317590
	N243	N	0.020762	0.409709	0.313235
	N244	N	0.395426	0.678042	0.959478
	N245	N	0.566859	0.674231	0.032729
	N246	N	0.573690	0.316589	0.958540
	N247	N	0.399811	0.320738	0.032495
	N248	N	0.668546	0.961234	0.403860
	N249	N	0.661481	0.034783	0.576163
	N250	N	0.307826	0.959994	0.580510
	N251	N	0.308100	0.032723	0.407244
	N252	N	0.895962	0.460583	0.175236
	N253	N	0.067191	0.534916	0.171059
	N254	N	0.073169	0.461743	0.813550
	N255	N	0.899639	0.535500	0.818734
	N256	N	0.168021	0.909456	0.457119
	N257	N	0.163660	0.082415	0.530526
	N258	N	0.806564	0.085106	0.455904
	N259	N	0.809855	0.914189	0.529393
	N260	N	0.448897	0.175788	0.909409
	N261	N	0.522569	0.176630	0.081171
	N262	N	0.447639	0.822715	0.078427
	N263	N	0.520733	0.815978	0.906879
	N264	N	0.450461	0.911321	0.172328
	N265	N	0.523326	0.082859	0.171678
	N266	N	0.448715	0.082308	0.816174
	N267	N	0.522816	0.908539	0.813889
	N268	N	0.898595	0.178379	0.456100
	N269	N	0.070307	0.175732	0.530268
	N270	N	0.075195	0.816956	0.457603
	N271	N	0.903198	0.823631	0.531019
	N272	N	0.165695	0.461413	0.906750
	N273	N	0.159726	0.535220	0.079018
	N274	N	0.804821	0.459566	0.081446
	N275	N	0.806733	0.534160	0.910796
	O276	O	0.312886	0.602002	0.447798
	H277	H	0.301402	0.611582	0.449816
	H278	H	0.326174	0.605825	0.446401
	O279	O	0.410826	0.511043	0.392133
	H280	H	0.403940	0.501986	0.409815
	H281	H	0.412935	0.511899	0.387895
	O282	O	0.996350	1.009416	-0.050299
	H283	H	1.005023	1.007735	-0.053015
	H284	H	1.005567	1.009530	-0.044344
	O285	O	0.871305	-0.069128	0.968905
	H286	H	0.872017	-0.074344	0.975870
	H287	H	0.868794	-0.070680	0.962218
	O288	O	0.619517	0.472485	0.431067
	H289	H	0.622207	0.460630	0.413157
	H290	H	0.620892	0.464238	0.421454
	O291	O	0.542010	0.429691	0.522628
	H292	H	0.527909	0.429466	0.523626
	H293	H	0.531192	0.418179	0.525484
	O294	O	0.416369	0.355289	0.454901
	H295	H	0.413707	0.357750	0.461472
	H296	H	0.401173	0.354563	0.445472
	O297	O	0.003945	0.084937	1.060302
	H298	H	0.002333	0.086003	1.070273
	H299	H	0.003671	0.087660	1.066704
	O300	O	0.520572	0.485236	0.537732
	H301	H	0.524737	0.476506	0.529246
	H302	H	0.513620	0.494095	0.543641
	O303	O	1.112316	0.972266	-0.036578
	H304	H	1.110695	0.970395	-0.038037
	H305	H	1.112357	0.961987	-0.042936
	O306	O	-0.057581	0.976289	1.035699
	H307	H	-0.060427	0.981776	1.029436
	H308	H	-0.066130	0.976038	1.034840
	O309	O	0.528364	0.444189	0.311547
	H310	H	0.534866	0.436925	0.307743
	H311	H	0.527051	0.438988	0.307762
	O312	O	-0.033066	0.002937	0.012058
	H313	H	-0.034305	0.001242	0.015445
	H314	H	-0.022511	0.012346	0.019864
	O315	O	0.999017	0.056696	-0.069281
	H316	H	0.991728	0.059250	-0.071749
	H317	H	1.005500	0.055146	-0.065125
	O318	O	0.965221	0.954783	1.018537
	H319	H	0.948946	0.964022	1.018179
	H320	H	0.967198	0.951554	1.016438
	O321	O	-0.111650	0.052256	1.026636
	H322	H	-0.113349	0.050329	1.015064
	H323	H	-0.116702	0.065474	1.020817
	O324	O	0.446927	0.527762	0.630034
	H325	H	0.461015	0.524830	0.629902
	H326	H	0.442404	0.537321	0.629356
	O327	O	0.009776	-0.070379	0.015432
	H328	H	0.008980	-0.079454	0.002857
	H329	H	0.010724	-0.073374	0.023238
	O330	O	0.437718	0.403611	0.466589
	H331	H	0.434529	0.399145	0.485242
	H332	H	0.425315	0.393791	0.470398
	O333	O	0.444074	0.410853	1.497341
	H334	H	0.443511	0.401133	1.496551
	H335	H	0.439479	0.428154	1.501132
	O336	O	0.419882	-0.449690	0.440311
	H337	H	0.416498	-0.451155	0.449539
	H338	H	0.425292	-0.444456	0.433051
	O339	O	0.589611	0.636573	0.528451
	H340	H	0.593920	0.633755	0.523998
	H341	H	0.596699	0.619812	0.530488
	O342	O	1.043918	0.951126	0.912979
	H343	H	1.043357	0.956884	0.919910
	H344	H	1.032893	0.964228	0.914973
	O345	O	1.648643	1.391336	-0.570952
	H346	H	1.657289	1.392488	-0.584988
	H347	H	1.652746	1.375690	-0.577649
	O348	O	0.630276	0.553904	0.548562
	H349	H	0.634729	0.547286	0.537756
	H350	H	0.630862	0.548719	0.547292
	O351	O	0.919420	1.030875	0.899264
	H352	H	0.914603	1.033063	0.898602
	H353	H	0.926968	1.024948	0.900018
	O354	O	0.470177	0.346896	0.561881
	H355	H	0.461264	0.342502	0.564410
	H356	H	0.455583	0.334655	0.577495
	O357	O	0.994310	-0.063146	0.928096
	H358	H	0.992011	-0.075839	0.926526
	H359	H	0.990777	-0.063484	0.930037
	O360	O	0.917364	-0.015642	0.052079
	H361	H	0.921376	-0.023683	0.050268
	H362	H	0.905777	-0.015092	0.050570
	O363	O	0.604005	0.390223	0.459725
	H364	H	0.603381	0.393313	0.456381
	H365	H	0.601369	0.391011	0.459477
	O366	O	0.967871	0.912197	1.020939
	H367	H	0.967506	0.903384	1.031168
	H368	H	0.963449	0.911165	1.021650
	O369	O	0.414172	0.497071	1.657244
	H370	H	0.407202	0.492471	1.663845
	H371	H	0.425121	0.504956	1.660397
	O372	O	0.366349	0.356897	-0.424879
	H373	H	0.371998	0.365271	-0.422416
	H374	H	0.374054	0.366378	-0.431939
	O375	O	1.496835	0.645407	0.575111
	H376	H	1.512664	0.648391	0.571092
	H377	H	1.507387	0.657357	0.579553
	O378	O	0.391286	0.519003	0.499819
	H379	H	0.396714	0.530762	0.507440
	H380	H	0.378671	0.534591	0.505508
	O381	O	0.489951	0.679106	0.552668
	H382	H	0.482851	0.676981	0.559675
	H383	H	0.490423	0.688474	0.551896
