data_Molecule from HDF5

_cell_length_a		16.687076
_cell_length_b		16.405510
_cell_length_c		16.626191
_cell_angle_alpha	89.905821
_cell_angle_beta	90.093887
_cell_angle_gamma	90.166391
_symmetry_space_group_name_H-M	'P 1'
_symmetry_Int_Tables_number		1

loop_
	_symmetry_equiv_pos_as_xyz
	x,y,z

loop_
	_atom_site_label
	_atom_site_type_symbol
	_atom_site_fract_x
	_atom_site_fract_y
	_atom_site_fract_z
	H0	H	0.407824	0.839345	0.732272
	H1	H	0.619132	0.154731	0.733280
	H2	H	0.613300	0.837110	0.295808
	H3	H	0.412822	0.156681	0.294671
	H4	H	0.732633	0.392434	0.855483
	H5	H	0.730144	0.598667	0.169319
	H6	H	0.289900	0.602290	0.855622
	H7	H	0.289867	0.390268	0.166768
	H8	H	0.856004	0.715346	0.411832
	H9	H	0.170096	0.715644	0.614633
	H10	H	0.855020	0.276046	0.615935
	H11	H	0.168730	0.279979	0.412704
	H12	H	0.856073	0.389810	0.734650
	H13	H	0.168738	0.600358	0.733734
	H14	H	0.858065	0.602238	0.291141
	H15	H	0.167319	0.393251	0.292304
	H16	H	0.410880	0.714273	0.853773
	H17	H	0.609529	0.710874	0.171624
	H18	H	0.614117	0.278108	0.854613
	H19	H	0.410752	0.278003	0.170122
	H20	H	0.730499	0.837307	0.409550
	H21	H	0.734740	0.154045	0.618200
	H22	H	0.290422	0.841017	0.617798
	H23	H	0.295918	0.156779	0.409704
	H24	H	0.905797	0.340080	0.234766
	H25	H	0.118124	0.653819	0.232658
	H26	H	0.116840	0.338770	0.791816
	H27	H	0.909992	0.655757	0.794014
	H28	H	0.235043	0.890858	0.358003
	H29	H	0.238311	0.108174	0.666195
	H30	H	0.791031	0.101782	0.357427
	H31	H	0.787445	0.886214	0.666768
	H32	H	0.355740	0.214855	0.910742
	H33	H	0.670306	0.215030	0.113685
	H34	H	0.355248	0.775623	0.116091
	H35	H	0.668426	0.776482	0.909610
	H36	H	0.357217	0.889510	0.235337
	H37	H	0.669085	0.099807	0.232587
	H38	H	0.358285	0.102979	0.790167
	H39	H	0.666076	0.889206	0.788557
	H40	H	0.909681	0.216621	0.356025
	H41	H	0.115508	0.217069	0.669500
	H42	H	0.117491	0.775802	0.357914
	H43	H	0.909540	0.775458	0.669365
	H44	H	0.235300	0.341252	0.904051
	H45	H	0.235728	0.652514	0.119464
	H46	H	0.789926	0.340091	0.118790
	H47	H	0.793803	0.656111	0.909309
	H48	H	0.419720	0.113780	0.605501
	H49	H	0.601332	0.883322	0.601430
	H50	H	0.603325	0.110126	0.421915
	H51	H	0.422899	0.883307	0.424019
	H52	H	0.607463	0.409495	0.124146
	H53	H	0.603806	0.592287	0.897597
	H54	H	0.420385	0.582734	0.122835
	H55	H	0.424359	0.407965	0.900975
	H56	H	0.126887	0.591281	0.421848
	H57	H	0.901909	0.579630	0.607529
	H58	H	0.123968	0.406391	0.607618
	H59	H	0.898890	0.405835	0.420015
	H60	H	0.122646	0.405655	0.600545
	H61	H	0.897617	0.591831	0.606793
	H62	H	0.122547	0.585003	0.427300
	H63	H	0.900049	0.407125	0.424615
	H64	H	0.423808	0.583715	0.122737
	H65	H	0.608193	0.583858	0.898663
	H66	H	0.599898	0.409264	0.122305
	H67	H	0.420840	0.407347	0.900106
	H68	H	0.603370	0.109354	0.422843
	H69	H	0.596871	0.884661	0.601375
	H70	H	0.431787	0.110095	0.603539
	H71	H	0.422955	0.884194	0.424770
	H72	H	0.920615	0.611239	0.103671
	H73	H	0.102715	0.381653	0.105218
	H74	H	0.102744	0.609955	0.924105
	H75	H	0.923436	0.384148	0.923461
	H76	H	0.098528	0.904547	0.623982
	H77	H	0.100258	0.084509	0.402803
	H78	H	0.921819	0.085595	0.625083
	H79	H	0.921352	0.900995	0.398779
	H80	H	0.625936	0.086850	0.919581
	H81	H	0.402200	0.081153	0.103142
	H82	H	0.623558	0.907156	0.107430
	H83	H	0.401870	0.904845	0.925187
	H84	H	0.624496	0.902933	0.104467
	H85	H	0.399186	0.087673	0.109643
	H86	H	0.623444	0.088129	0.926341
	H87	H	0.402990	0.911661	0.922471
	H88	H	0.921382	0.083840	0.624734
	H89	H	0.103308	0.092486	0.398714
	H90	H	0.108643	0.910599	0.626762
	H91	H	0.915386	0.912059	0.400792
	H92	H	0.098682	0.609235	0.922267
	H93	H	0.095473	0.384836	0.101990
	H94	H	0.924318	0.610379	0.102536
	H95	H	0.919802	0.383767	0.925703
	H96	H	0.423472	0.109149	0.594035
	H97	H	0.599445	0.885882	0.597546
	H98	H	0.604152	0.111493	0.422944
	H99	H	0.422045	0.883718	0.424397
	H100	H	0.603390	0.402845	0.125321
	H101	H	0.599261	0.584995	0.901173
	H102	H	0.421535	0.586351	0.124399
	H103	H	0.421697	0.410126	0.901107
	H104	H	0.124470	0.583049	0.418162
	H105	H	0.903426	0.586325	0.596582
	H106	H	0.121521	0.411900	0.603785
	H107	H	0.900055	0.410992	0.420856
	H108	H	0.921476	0.610446	0.100101
	H109	H	0.102571	0.384330	0.097264
	H110	H	0.099302	0.607531	0.926749
	H111	H	0.920284	0.382202	0.921895
	H112	H	0.099583	0.916380	0.621640
	H113	H	0.109172	0.085030	0.399924
	H114	H	0.923117	0.084422	0.624020
	H115	H	0.927696	0.910879	0.404252
	H116	H	0.623043	0.081005	0.923279
	H117	H	0.400191	0.090453	0.100883
	H118	H	0.622767	0.907213	0.102267
	H119	H	0.399129	0.906953	0.918558
	C120	C	0.392008	0.006578	0.633335
	C121	C	0.633090	0.988344	0.632931
	C122	C	0.633635	0.005130	0.391970
	C123	C	0.392281	0.988773	0.392343
	C124	C	0.634207	0.375625	0.020293
	C125	C	0.633395	0.617773	1.003716
	C126	C	0.390049	0.617262	0.020278
	C127	C	0.390802	0.375729	1.003854
	C128	C	0.021345	0.618767	0.391159
	C129	C	1.004656	0.617537	0.634530
	C130	C	0.019751	0.375049	0.635237
	C131	C	1.002981	0.376352	0.391187
	C132	C	0.890668	0.506202	0.134087
	C133	C	0.132907	0.487881	0.133183
	C134	C	0.132575	0.505161	0.891687
	C135	C	0.890613	0.488323	0.891775
	C136	C	0.133970	0.877286	0.521567
	C137	C	0.135185	0.119718	0.503768
	C138	C	0.891155	0.117038	0.521255
	C139	C	0.890039	0.874626	0.504360
	C140	C	0.521269	0.117851	0.891154
	C141	C	0.504463	0.117473	0.134505
	C142	C	0.520306	0.874014	0.135385
	C143	C	0.503894	0.875417	0.890773
	C144	C	0.389326	0.887248	0.692754
	C145	C	0.636624	0.107193	0.692975
	C146	C	0.632971	0.884963	0.334451
	C147	C	0.392745	0.108866	0.333716
	C148	C	0.692986	0.373774	0.902616
	C149	C	0.690445	0.617464	0.122539
	C150	C	0.330088	0.620236	0.902653
	C151	C	0.330716	0.372380	0.120767
	C152	C	0.903444	0.676872	0.391509
	C153	C	0.122670	0.676306	0.634470
	C154	C	0.902125	0.315366	0.635445
	C155	C	0.121494	0.318613	0.392325
	C156	C	0.902868	0.372042	0.694581
	C157	C	0.122074	0.619109	0.693594
	C158	C	0.904309	0.620776	0.331610
	C159	C	0.120607	0.374860	0.332572
	C160	C	0.390521	0.675758	0.901341
	C161	C	0.631165	0.673903	0.123284
	C162	C	0.634044	0.316838	0.902077
	C163	C	0.390813	0.316743	0.122216
	C164	C	0.690962	0.885166	0.391472
	C165	C	0.694471	0.106653	0.635946
	C166	C	0.331114	0.888005	0.635704
	C167	C	0.334865	0.108847	0.390906
	C168	C	0.887731	0.387426	0.194599
	C169	C	0.136053	0.606386	0.192891
	C170	C	0.135372	0.386572	0.831200
	C171	C	0.890462	0.607838	0.832919
	C172	C	0.194441	0.873218	0.404761
	C173	C	0.196424	0.124215	0.620190
	C174	C	0.831385	0.119827	0.403878
	C175	C	0.828954	0.869510	0.620706
	C176	C	0.403242	0.176253	0.890810
	C177	C	0.622729	0.175866	0.133687
	C178	C	0.402549	0.814838	0.135793
	C179	C	0.621260	0.815869	0.890208
	C180	C	0.403515	0.871514	0.194996
	C181	C	0.622471	0.118424	0.192600
	C182	C	0.404426	0.120632	0.830950
	C183	C	0.620484	0.872094	0.830299
	C184	C	0.890287	0.176910	0.403346
	C185	C	0.135587	0.178777	0.621717
	C186	C	0.135631	0.816297	0.404431
	C187	C	0.889406	0.814255	0.621983
	C188	C	0.194159	0.387699	0.887304
	C189	C	0.194663	0.605487	0.136567
	C190	C	0.830150	0.387496	0.136973
	C191	C	0.832698	0.608012	0.890239
	C192	C	0.417720	0.089428	0.608207
	C193	C	0.606843	0.906098	0.607376
	C194	C	0.610212	0.088576	0.415710
	C195	C	0.415914	0.905445	0.417061
	C196	C	0.610364	0.400137	0.102537
	C197	C	0.610540	0.593943	0.920744
	C198	C	0.414842	0.591783	0.102018
	C199	C	0.415118	0.401222	0.922057
	C200	C	0.103266	0.593564	0.415305
	C201	C	0.922398	0.593044	0.610753
	C202	C	0.101525	0.400383	0.610861
	C203	C	0.920965	0.400806	0.414926
	C204	C	0.915278	0.589023	0.109312
	C205	C	0.107279	0.405023	0.108392
	C206	C	0.107340	0.587407	0.917232
	C207	C	0.914349	0.404933	0.916650
	C208	C	0.109255	0.903122	0.602951
	C209	C	0.111111	0.094516	0.421693
	C210	C	0.915391	0.091939	0.603289
	C211	C	0.914692	0.900727	0.422557
	C212	C	0.602807	0.092507	0.915811
	C213	C	0.422158	0.093344	0.111314
	C214	C	0.602294	0.898623	0.111642
	C215	C	0.422613	0.900786	0.915118
	Zn216	Zn	0.512951	-0.002643	0.761409
	Zn217	Zn	0.512382	-0.004025	0.264299
	Zn218	Zn	0.763318	0.496883	0.012327
	Zn219	Zn	0.260917	0.495935	0.012253
	Zn220	Zn	0.013388	0.747239	0.513016
	Zn221	Zn	0.011986	0.246927	0.512880
	Zn222	Zn	0.011720	0.496301	0.764105
	Zn223	Zn	0.012479	0.497339	0.261497
	Zn224	Zn	0.511294	0.746154	0.012248
	Zn225	Zn	0.512489	0.246729	0.012362
	Zn226	Zn	0.761507	-0.004168	0.512998
	Zn227	Zn	0.263613	-0.001551	0.512418
	N228	N	0.426319	0.962224	0.691612
	N229	N	0.599363	0.032485	0.691571
	N230	N	0.598113	0.960704	0.334487
	N231	N	0.427574	0.033050	0.334235
	N232	N	0.693483	0.409387	0.977254
	N233	N	0.692361	0.583859	0.046951
	N234	N	0.329483	0.584831	0.977644
	N235	N	0.330450	0.408080	0.046089
	N236	N	0.977411	0.675791	0.427629
	N237	N	0.048593	0.675522	0.598588
	N238	N	0.976049	0.316918	0.599344
	N239	N	0.047260	0.319199	0.428032
	N240	N	0.977193	0.408215	0.694715
	N241	N	0.047440	0.583458	0.693805
	N242	N	0.978813	0.585564	0.331166
	N243	N	0.045863	0.409566	0.331553
	N244	N	0.426872	0.674268	0.975520
	N245	N	0.596789	0.674769	0.048008
	N246	N	0.598288	0.317736	0.976412
	N247	N	0.427379	0.318350	0.048363
	N248	N	0.691865	0.961075	0.426218
	N249	N	0.692453	0.031603	0.599362
	N250	N	0.332525	0.963314	0.599720
	N251	N	0.334401	0.033238	0.426395
	N252	N	0.924853	0.462261	0.192871
	N253	N	0.098156	0.532115	0.190874
	N254	N	0.097720	0.460661	0.833772
	N255	N	0.925606	0.532154	0.833706
	N256	N	0.193762	0.910392	0.478644
	N257	N	0.196284	0.088156	0.545732
	N258	N	0.831466	0.083550	0.478399
	N259	N	0.829149	0.906128	0.546353
	N260	N	0.476907	0.174851	0.927447
	N261	N	0.548304	0.175465	0.098346
	N262	N	0.476262	0.816130	0.099315
	N263	N	0.547895	0.817829	0.927194
	N264	N	0.477762	0.907472	0.195003
	N265	N	0.547736	0.083177	0.193543
	N266	N	0.479035	0.085233	0.830790
	N267	N	0.546389	0.908337	0.830345
	N268	N	0.926600	0.175401	0.477395
	N269	N	0.098172	0.176249	0.548232
	N270	N	0.098706	0.818567	0.478115
	N271	N	0.926612	0.817084	0.548474
	N272	N	0.192458	0.462399	0.924374
	N273	N	0.192685	0.530668	0.099878
	N274	N	0.831728	0.462408	0.099973
	N275	N	0.832558	0.532537	0.926089
	O276	O	-0.044430	0.811556	-0.084357
	H277	H	-0.045336	0.823121	-0.088674
	H278	H	-0.041501	0.797105	-0.085260
	O279	O	0.518407	0.340923	0.493755
	H280	H	0.521143	0.334888	0.487191
	H281	H	0.514243	0.344810	0.506434
	O282	O	1.081813	0.048964	0.783711
	H283	H	1.071865	0.062846	0.797155
	H284	H	1.085310	0.044407	0.784067
	O285	O	0.555196	0.278342	0.285628
	H286	H	0.581042	0.261182	0.270475
	H287	H	0.581326	0.264944	0.273486
	O288	O	0.981034	0.216744	0.792791
	H289	H	0.973100	0.229468	0.794531
	H290	H	0.971443	0.230910	0.777424
	O291	O	0.593244	0.333946	0.635566
	H292	H	0.565281	0.330375	0.635969
	H293	H	0.590619	0.334395	0.631988
	O294	O	0.819788	-0.190033	0.824537
	H295	H	0.821614	-0.172416	0.830413
	H296	H	0.831743	-0.174094	0.827324
	O297	O	-0.040150	0.964587	1.085949
	H298	H	-0.032338	0.964278	1.078390
	H299	H	-0.039487	0.963454	1.090421
	O300	O	0.227172	0.222257	1.039098
	H301	H	0.240969	0.228075	1.047634
	H302	H	0.240626	0.227165	1.068055
	O303	O	0.730096	0.528174	0.729929
	H304	H	0.729683	0.522123	0.738376
	H305	H	0.740308	0.549725	0.744157
	O306	O	0.257155	0.770166	0.243019
	H307	H	0.246446	0.771008	0.249138
	H308	H	0.246830	0.750534	0.253068
	O309	O	0.718836	0.706381	0.718454
	H310	H	0.727876	0.711236	0.724230
	H311	H	0.711875	0.703386	0.713828
	O312	O	0.719428	0.290416	0.302098
	H313	H	0.753870	0.264602	0.276479
	H314	H	0.728967	0.284758	0.355979
	O315	O	1.217766	1.208405	1.226389
	H316	H	1.247553	1.238733	1.255942
	H317	H	1.225097	1.171276	1.217835
	O318	O	0.521490	0.373807	0.479251
	H319	H	0.518161	0.365958	0.480810
	H320	H	0.524869	0.373963	0.472711
	O321	O	0.307741	0.290861	0.720536
	H322	H	0.315484	0.322898	0.723618
	H323	H	0.277089	0.259356	0.747233
	O324	O	0.980662	0.777956	0.234069
	H325	H	0.976545	0.755363	0.254360
	H326	H	0.956192	0.781705	0.229663
	O327	O	0.224880	0.045537	0.988851
	H328	H	0.213202	0.041697	0.996160
	H329	H	0.225515	0.029733	1.001247
	O330	O	0.489581	0.478568	0.721703
	H331	H	0.486215	0.482135	0.715635
	H332	H	0.475976	0.479693	0.725792
	O333	O	0.377228	0.507976	0.721946
	H334	H	0.374573	0.505571	0.718606
	H335	H	0.362402	0.509494	0.725188
	O336	O	0.515546	0.492516	0.461141
	H337	H	0.509318	0.494565	0.465432
	H338	H	0.514638	0.476188	0.453067
	O339	O	0.878505	-0.116517	1.014909
	H340	H	0.882238	-0.095729	1.030092
	H341	H	0.870306	-0.102119	0.996655
	O342	O	0.079248	0.077527	0.044171
	H343	H	0.079632	0.075568	0.057188
	H344	H	0.073333	0.080598	0.045774
	O345	O	-0.680617	1.315223	1.333603
	H346	H	-0.658271	1.339862	1.339293
	H347	H	-0.672598	1.333924	1.360407
	O348	O	0.058644	-0.216168	-0.209780
	H349	H	0.065410	-0.206259	-0.215336
	H350	H	0.056248	-0.231477	-0.227435
	O351	O	0.302221	0.375552	0.485422
	H352	H	0.299162	0.352750	0.508164
	H353	H	0.302346	0.383941	0.496308
	O354	O	0.408175	0.345706	1.541113
	H355	H	0.411215	0.338424	1.555495
	H356	H	0.395805	0.325628	1.551719
	O357	O	-0.076439	-0.124395	-0.002737
	H358	H	-0.083325	-0.118081	-0.009677
	H359	H	-0.081589	-0.132282	-0.004198
	O360	O	0.226540	-0.213654	0.801545
	H361	H	0.205479	-0.186380	0.799895
	H362	H	0.226522	-0.208756	0.842481
	O363	O	-0.023579	0.218350	0.129246
	H364	H	-0.014661	0.226992	0.141684
	H365	H	0.001285	0.209111	0.132772
	O366	O	0.815077	0.183165	0.810609
	H367	H	0.821278	0.193650	0.810834
	H368	H	0.803113	0.177761	0.835742
	O369	O	1.120848	-0.111207	0.224944
	H370	H	1.099901	-0.104836	0.223122
	H371	H	1.113388	-0.107612	0.219258
	O372	O	0.785628	1.031160	0.075022
	H373	H	0.794424	1.018371	0.089887
	H374	H	0.785170	1.020103	0.075926
	O375	O	0.956122	-0.040451	-0.213073
	H376	H	0.955849	-0.029745	-0.208843
	H377	H	0.950344	-0.031986	-0.215413
	O378	O	-0.201760	1.011290	-0.210283
	H379	H	-0.215687	1.020235	-0.216940
	H380	H	-0.203460	1.034753	-0.211741
	O381	O	-0.200493	1.210267	0.975934
	H382	H	-0.212852	1.219226	0.979496
	H383	H	-0.191837	1.214286	0.987934
	O384	O	0.728209	0.285359	0.469533
	H385	H	0.731808	0.286850	0.489100
	H386	H	0.733117	0.280839	0.489771
	O387	O	0.510428	0.517881	-0.626974
	H388	H	0.513825	0.512843	-0.617385
	H389	H	0.514057	0.514949	-0.622269
	O390	O	0.346720	0.682345	0.672306
	H391	H	0.357051	0.687510	0.663666
	H392	H	0.346246	0.705025	0.693364
	O393	O	0.327895	0.636870	0.518815
	H394	H	0.328327	0.648845	0.533025
	H395	H	0.336390	0.633438	0.529267
	O396	O	0.204396	0.878583	1.024147
	H397	H	0.198735	0.881780	1.041295
	H398	H	0.210253	0.843901	1.025254
	O399	O	-0.078112	0.066411	0.976821
	H400	H	-0.069270	0.075690	0.970974
	H401	H	-0.074871	0.080585	0.981184
	O402	O	0.483375	0.701215	0.312979
	H403	H	0.479332	0.717018	0.305103
	H404	H	0.467588	0.695894	0.309434
	O405	O	1.182971	-0.201129	0.966208
	H406	H	1.153413	-0.203428	0.979165
	H407	H	1.191171	-0.227705	0.966069
	O408	O	-0.186045	-0.049199	0.226924
	H409	H	-0.193727	-0.063357	0.226106
	H410	H	-0.205017	-0.066581	0.231667
	O411	O	0.702431	0.678888	0.324116
	H412	H	0.686894	0.656947	0.341602
	H413	H	0.686120	0.658856	0.343054
	O414	O	0.974511	0.054474	0.238030
	H415	H	0.977241	0.046318	0.248069
	H416	H	0.971957	0.072543	0.243151
	O417	O	0.726978	0.712254	0.542503
	H418	H	0.741277	0.719506	0.545331
	H419	H	0.727645	0.719511	0.549864
	O420	O	0.323508	0.544112	0.326549
	H421	H	0.326209	0.532200	0.320823
	H422	H	0.331851	0.540751	0.324056
	O423	O	0.350076	0.698778	0.408911
	H424	H	0.347792	0.685032	0.421219
	H425	H	0.358253	0.694781	0.421547
	O426	O	0.708867	0.486088	0.306069
	H427	H	0.717059	0.455715	0.302400
	H428	H	0.708618	0.471595	0.295450
	O429	O	1.729039	1.491312	0.514644
	H430	H	1.734317	1.489242	0.528523
	H431	H	1.722431	1.504852	0.509365
	O432	O	0.482337	0.282850	0.729039
	H433	H	0.461845	0.271756	0.735846
	H434	H	0.477250	0.276278	0.738823
	O435	O	0.234379	0.969131	-0.209614
	H436	H	0.255070	0.967507	-0.238934
	H437	H	0.220455	0.972826	-0.196109
	O438	O	0.079678	-0.039896	-0.001754
	H439	H	0.077506	-0.058225	0.004535
	H440	H	0.090490	-0.055465	-0.017051
	O441	O	0.035675	-0.084082	0.060038
	H442	H	0.039585	-0.086727	0.083786
	H443	H	0.016147	-0.083790	0.068689
	O444	O	0.059337	0.217684	-0.055395
	H445	H	0.069729	0.227935	-0.038202
	H446	H	0.049842	0.217362	-0.059655
	O447	O	0.204587	1.183095	0.820941
	H448	H	0.204446	1.159838	0.845623
	H449	H	0.175807	1.170494	0.835546
	O450	O	-0.214709	0.775888	1.054872
	H451	H	-0.234820	0.761878	1.067159
	H452	H	-0.227140	0.783620	1.042136
	O453	O	0.371471	0.502340	0.679268
	H454	H	0.358601	0.508848	0.667000
	H455	H	0.365852	0.511800	0.680410
	O456	O	0.045566	0.139846	1.236663
	H457	H	0.055152	0.153048	1.246893
	H458	H	0.065863	0.134714	1.241403
	O459	O	0.562562	0.640490	0.503404
	H460	H	0.542298	0.639659	0.503833
	H461	H	0.564661	0.639110	0.505724
	O462	O	0.553343	0.554825	0.478073
	H463	H	0.555797	0.554529	0.471459
	H464	H	0.548505	0.549137	0.485033
	O465	O	0.829103	0.170078	0.200908
	H466	H	0.855365	0.162910	0.177216
	H467	H	0.835318	0.137660	0.193033
	O468	O	0.110590	0.993021	0.042596
	H469	H	0.118127	0.987671	0.038543
	H470	H	0.116069	0.999018	0.043300
	O471	O	0.475125	0.388775	0.355734
	H472	H	0.486456	0.366656	0.354435
	H473	H	0.492925	0.398997	0.358580
	O474	O	-0.310906	1.368462	-0.377144
	H475	H	-0.327348	1.377873	-0.381343
	H476	H	-0.318452	1.386061	-0.378429
	O477	O	0.236294	1.033268	1.237061
	H478	H	0.240235	1.030481	1.244872
	H479	H	0.251207	1.022123	1.244892
	O480	O	0.310779	0.571685	0.448929
	H481	H	0.300978	0.582060	0.429910
	H482	H	0.316159	0.581671	0.448895
	O483	O	0.553057	0.662080	0.542126
	H484	H	0.557058	0.656473	0.557254
	H485	H	0.568399	0.666677	0.540668
	O486	O	1.546681	-0.292966	0.723244
	H487	H	1.557744	-0.285246	0.734114
	H488	H	1.544709	-0.297287	0.735525
	O489	O	0.797088	0.785751	0.223052
	H490	H	0.805136	0.789521	0.197580
	H491	H	0.765542	0.751414	0.255098
