data_Molecule from HDF5

_cell_length_a		16.413460
_cell_length_b		16.441185
_cell_length_c		16.531055
_cell_angle_alpha	90.057784
_cell_angle_beta	90.024845
_cell_angle_gamma	90.058148
_symmetry_space_group_name_H-M	'P 1'
_symmetry_Int_Tables_number		1

loop_
	_symmetry_equiv_pos_as_xyz
	x,y,z

loop_
	_atom_site_label
	_atom_site_type_symbol
	_atom_site_fract_x
	_atom_site_fract_y
	_atom_site_fract_z
	H0	H	0.372370	0.847857	0.717535
	H1	H	0.593933	0.159434	0.719867
	H2	H	0.588827	0.847181	0.269718
	H3	H	0.374891	0.161754	0.271133
	H4	H	0.706614	0.395178	0.837012
	H5	H	0.706886	0.610704	0.148270
	H6	H	0.257935	0.609696	0.837053
	H7	H	0.260601	0.397752	0.151287
	H8	H	0.824226	0.723890	0.388442
	H9	H	0.139435	0.725538	0.602108
	H10	H	0.823528	0.279655	0.598905
	H11	H	0.140159	0.280842	0.387695
	H12	H	0.824903	0.391131	0.718686
	H13	H	0.140078	0.608344	0.716440
	H14	H	0.824806	0.608656	0.271492
	H15	H	0.138265	0.392788	0.268563
	H16	H	0.374262	0.725919	0.835576
	H17	H	0.589582	0.727479	0.148264
	H18	H	0.592393	0.277234	0.837823
	H19	H	0.374378	0.279165	0.150191
	H20	H	0.704119	0.846701	0.387922
	H21	H	0.706195	0.160926	0.600722
	H22	H	0.259315	0.846238	0.599379
	H23	H	0.260825	0.162203	0.388133
	H24	H	0.873352	0.345758	0.216757
	H25	H	0.089460	0.660258	0.217533
	H26	H	0.088630	0.344871	0.772550
	H27	H	0.875074	0.659271	0.770278
	H28	H	0.202777	0.897180	0.334389
	H29	H	0.204467	0.108401	0.650323
	H30	H	0.758586	0.110712	0.336336
	H31	H	0.760191	0.898483	0.651261
	H32	H	0.325494	0.227436	0.885194
	H33	H	0.641599	0.224231	0.097336
	H34	H	0.322077	0.785517	0.095324
	H35	H	0.640359	0.783711	0.887738
	H36	H	0.323947	0.897737	0.214119
	H37	H	0.641399	0.108315	0.213077
	H38	H	0.325364	0.111890	0.769241
	H39	H	0.639423	0.897630	0.770147
	H40	H	0.874000	0.227835	0.337143
	H41	H	0.088422	0.225918	0.650463
	H42	H	0.086543	0.780371	0.336296
	H43	H	0.876462	0.782175	0.651560
	H44	H	0.202318	0.344173	0.890438
	H45	H	0.203222	0.661910	0.099198
	H46	H	0.757130	0.346066	0.100601
	H47	H	0.762252	0.661144	0.887761
	H48	H	0.400617	0.112651	0.577349
	H49	H	0.574931	0.890335	0.582164
	H50	H	0.565345	0.116485	0.399731
	H51	H	0.390453	0.888425	0.400265
	H52	H	0.563137	0.415318	0.102429
	H53	H	0.567539	0.592549	0.882146
	H54	H	0.390338	0.596799	0.107401
	H55	H	0.396423	0.422176	0.885474
	H56	H	0.096099	0.594610	0.407470
	H57	H	0.868333	0.592387	0.585892
	H58	H	0.094665	0.411894	0.579659
	H59	H	0.868941	0.417559	0.401985
	H60	H	0.092139	0.418547	0.581692
	H61	H	0.870592	0.592659	0.578520
	H62	H	0.092919	0.587498	0.408369
	H63	H	0.869192	0.411983	0.406636
	H64	H	0.392275	0.589473	0.104119
	H65	H	0.572444	0.597073	0.878128
	H66	H	0.572326	0.411636	0.106706
	H67	H	0.398242	0.409285	0.881874
	H68	H	0.571822	0.115305	0.409480
	H69	H	0.564682	0.893111	0.584646
	H70	H	0.389384	0.116675	0.577288
	H71	H	0.397996	0.891979	0.401327
	H72	H	0.890637	0.617424	0.082351
	H73	H	0.067025	0.390540	0.085685
	H74	H	0.066340	0.613757	0.907373
	H75	H	0.895513	0.390755	0.907649
	H76	H	0.071293	0.913061	0.605672
	H77	H	0.063071	0.093436	0.383172
	H78	H	0.887908	0.086624	0.605511
	H79	H	0.887932	0.913242	0.379461
	H80	H	0.595584	0.087206	0.899999
	H81	H	0.369462	0.086018	0.087296
	H82	H	0.593715	0.917532	0.079502
	H83	H	0.368418	0.910492	0.908694
	H84	H	0.596770	0.916222	0.086332
	H85	H	0.366091	0.098824	0.083761
	H86	H	0.595414	0.096000	0.908253
	H87	H	0.372168	0.922516	0.905463
	H88	H	0.901673	0.086043	0.600330
	H89	H	0.075012	0.098316	0.377821
	H90	H	0.073150	0.915100	0.606308
	H91	H	0.895489	0.918582	0.384281
	H92	H	0.074711	0.616227	0.907178
	H93	H	0.067574	0.393363	0.077576
	H94	H	0.899441	0.614941	0.086370
	H95	H	0.891506	0.389522	0.906324
	H96	H	0.395621	0.117294	0.586928
	H97	H	0.568351	0.894574	0.574749
	H98	H	0.576743	0.120241	0.400064
	H99	H	0.392082	0.891872	0.407863
	H100	H	0.571416	0.421854	0.103113
	H101	H	0.574293	0.589807	0.879868
	H102	H	0.397955	0.595538	0.104661
	H103	H	0.386440	0.415198	0.878926
	H104	H	0.095866	0.589729	0.401466
	H105	H	0.871287	0.586563	0.582919
	H106	H	0.095618	0.414700	0.586828
	H107	H	0.871779	0.418718	0.408622
	H108	H	0.897700	0.612277	0.076826
	H109	H	0.074502	0.389935	0.080990
	H110	H	0.069505	0.617315	0.900322
	H111	H	0.895015	0.388994	0.903688
	H112	H	0.070824	0.914898	0.604636
	H113	H	0.073961	0.085619	0.382336
	H114	H	0.896388	0.098925	0.606254
	H115	H	0.896948	0.908553	0.381170
	H116	H	0.590619	0.085127	0.911285
	H117	H	0.372170	0.090561	0.074505
	H118	H	0.596475	0.910590	0.080922
	H119	H	0.365741	0.914805	0.897025
	C120	C	0.361221	0.012195	0.613906
	C121	C	0.603784	0.995896	0.614694
	C122	C	0.603595	0.012813	0.371268
	C123	C	0.360819	0.995348	0.371318
	C124	C	0.603296	0.382512	0.001149
	C125	C	0.604324	0.625905	0.983467
	C126	C	0.360098	0.626074	0.001825
	C127	C	0.360843	0.381928	0.985533
	C128	C	-0.009285	0.623668	0.372990
	C129	C	0.973739	0.623612	0.615969
	C130	C	-0.010033	0.381092	0.615504
	C131	C	0.973584	0.381828	0.372198
	C132	C	0.861100	0.511289	0.114916
	C133	C	0.103566	0.494832	0.115322
	C134	C	0.103259	0.511302	0.872792
	C135	C	0.861109	0.493907	0.872366
	C136	C	0.103798	0.881381	0.501445
	C137	C	0.103452	0.124853	0.484832
	C138	C	0.861197	0.124418	0.501027
	C139	C	0.860716	0.881739	0.485658
	C140	C	0.490603	0.124347	0.872145
	C141	C	0.473986	0.124894	0.114298
	C142	C	0.490456	0.882815	0.114059
	C143	C	0.473244	0.882956	0.870750
	C144	C	0.355829	0.894805	0.676483
	C145	C	0.609924	0.112784	0.678100
	C146	C	0.606530	0.894107	0.310583
	C147	C	0.357356	0.114144	0.311082
	C148	C	0.665729	0.378006	0.883815
	C149	C	0.666157	0.629354	0.101201
	C150	C	0.298651	0.628093	0.883865
	C151	C	0.300516	0.379244	0.103872
	C152	C	0.871766	0.683982	0.370160
	C153	C	0.092130	0.685141	0.619592
	C154	C	0.871320	0.319681	0.617712
	C155	C	0.092265	0.320557	0.369062
	C156	C	0.871788	0.375633	0.677262
	C157	C	0.092411	0.626389	0.676447
	C158	C	0.871955	0.626794	0.311869
	C159	C	0.091319	0.376224	0.309480
	C160	C	0.356821	0.685877	0.883144
	C161	C	0.607695	0.687156	0.101387
	C162	C	0.608939	0.319115	0.884402
	C163	C	0.357317	0.320264	0.103240
	C164	C	0.663977	0.894004	0.369208
	C165	C	0.665981	0.113682	0.618721
	C166	C	0.299358	0.893972	0.617492
	C167	C	0.300177	0.114262	0.369301
	C168	C	0.856239	0.392910	0.176144
	C169	C	0.107126	0.613266	0.176724
	C170	C	0.106292	0.392292	0.812822
	C171	C	0.857558	0.612171	0.810818
	C172	C	0.163157	0.878848	0.382448
	C173	C	0.164561	0.127354	0.603011
	C174	C	0.799219	0.128372	0.383372
	C175	C	0.800132	0.879766	0.603937
	C176	C	0.372703	0.186956	0.867800
	C177	C	0.593746	0.184545	0.115769
	C178	C	0.370281	0.824388	0.114401
	C179	C	0.592626	0.823325	0.868828
	C180	C	0.371437	0.880124	0.173953
	C181	C	0.593627	0.126939	0.173667
	C182	C	0.372583	0.129431	0.809992
	C183	C	0.591910	0.879913	0.810234
	C184	C	0.856836	0.186657	0.383712
	C185	C	0.106385	0.185284	0.603363
	C186	C	0.105348	0.820552	0.383222
	C187	C	0.858292	0.821916	0.604112
	C188	C	0.162976	0.391888	0.871565
	C189	C	0.163785	0.614027	0.117913
	C190	C	0.798148	0.393315	0.118328
	C191	C	0.801310	0.613122	0.869511
	C192	C	0.387800	0.094165	0.587926
	C193	C	0.576837	0.913970	0.588050
	C194	C	0.578358	0.095664	0.396081
	C195	C	0.386304	0.912463	0.396146
	C196	C	0.576758	0.409021	0.082794
	C197	C	0.578768	0.600352	0.901453
	C198	C	0.386207	0.601127	0.083908
	C199	C	0.386347	0.407988	0.903384
	C200	C	0.073424	0.597943	0.398490
	C201	C	0.891239	0.597851	0.589983
	C202	C	0.072598	0.407582	0.590014
	C203	C	0.891501	0.408491	0.398191
	C204	C	0.888190	0.593511	0.089242
	C205	C	0.077328	0.412697	0.089028
	C206	C	0.077567	0.594126	0.897706
	C207	C	0.886778	0.411343	0.898411
	C208	C	0.078990	0.906800	0.583875
	C209	C	0.077879	0.099674	0.402560
	C210	C	0.887825	0.098090	0.582663
	C211	C	0.886017	0.906550	0.403042
	C212	C	0.572680	0.097184	0.898790
	C213	C	0.391056	0.099394	0.089040
	C214	C	0.573971	0.907699	0.089578
	C215	C	0.390337	0.908555	0.896418
	Zn216	Zn	0.481924	0.004482	0.742683
	Zn217	Zn	0.481848	0.004110	0.242619
	Zn218	Zn	0.732727	0.503457	-0.007183
	Zn219	Zn	0.231919	0.503492	-0.005704
	Zn220	Zn	-0.017744	0.752040	0.494190
	Zn221	Zn	-0.018021	0.253843	0.493381
	Zn222	Zn	-0.018203	0.501741	0.744376
	Zn223	Zn	-0.017847	0.502565	0.243597
	Zn224	Zn	0.482021	0.754959	-0.007194
	Zn225	Zn	0.482465	0.253227	-0.006859
	Zn226	Zn	0.732038	0.003735	0.493782
	Zn227	Zn	0.232526	0.003206	0.492336
	N228	N	0.393962	0.969159	0.674134
	N229	N	0.571881	0.038449	0.675656
	N230	N	0.569966	0.969118	0.311675
	N231	N	0.394497	0.039215	0.312227
	N232	N	0.662448	0.416740	0.957607
	N233	N	0.664104	0.591951	0.027119
	N234	N	0.300447	0.591673	0.958614
	N235	N	0.302423	0.416734	0.029626
	N236	N	0.946698	0.682225	0.407274
	N237	N	0.017297	0.683523	0.582424
	N238	N	0.945845	0.322986	0.580153
	N239	N	0.018094	0.323792	0.407192
	N240	N	0.946763	0.412954	0.676183
	N241	N	0.017648	0.588898	0.674335
	N242	N	0.946995	0.590010	0.313258
	N243	N	0.016497	0.413731	0.311300
	N244	N	0.394483	0.684731	0.957452
	N245	N	0.569897	0.685152	0.027294
	N246	N	0.570779	0.321903	0.958208
	N247	N	0.394080	0.321782	0.028493
	N248	N	0.662343	0.968807	0.406099
	N249	N	0.662177	0.039977	0.579899
	N250	N	0.302471	0.968018	0.579259
	N251	N	0.302216	0.039245	0.405988
	N252	N	0.894551	0.467297	0.174227
	N253	N	0.070423	0.538106	0.175416
	N254	N	0.069818	0.467534	0.813464
	N255	N	0.893731	0.536784	0.812238
	N256	N	0.162547	0.915701	0.457079
	N257	N	0.162802	0.090587	0.528366
	N258	N	0.801874	0.090358	0.457292
	N259	N	0.801651	0.916284	0.529223
	N260	N	0.447348	0.184096	0.905534
	N261	N	0.518121	0.183691	0.080004
	N262	N	0.445630	0.825796	0.077933
	N263	N	0.517513	0.824655	0.905525
	N264	N	0.447223	0.915751	0.173873
	N265	N	0.518124	0.090775	0.173005
	N266	N	0.447023	0.091340	0.812448
	N267	N	0.516394	0.915897	0.811034
	N268	N	0.894692	0.184136	0.457795
	N269	N	0.069315	0.184156	0.528692
	N270	N	0.069330	0.821897	0.458264
	N271	N	0.895299	0.822980	0.529540
	N272	N	0.161212	0.466882	0.908058
	N273	N	0.161681	0.539413	0.080434
	N274	N	0.801076	0.467952	0.080907
	N275	N	0.803209	0.538526	0.906654
	O276	O	0.475121	0.545211	0.328762
	H277	H	0.460683	0.539892	0.329157
	H278	H	0.463156	0.538952	0.333954
	O279	O	0.847498	-0.018372	1.099522
	H280	H	0.852120	-0.034224	1.114904
	H281	H	0.859705	-0.028092	1.083239
	O282	O	0.153509	0.175108	0.718769
	H283	H	0.147152	0.188506	0.725854
	H284	H	0.130595	0.163649	0.718589
	O285	O	1.055321	1.089835	0.927287
	H286	H	1.058742	1.081094	0.931471
	H287	H	1.062702	1.094003	0.916584
	O288	O	1.125042	0.989106	-0.032911
	H289	H	1.123475	0.974031	-0.021724
	H290	H	1.123512	0.996031	-0.035471
	O291	O	1.060206	-0.071452	-0.095845
	H292	H	1.054783	-0.059150	-0.083743
	H293	H	1.057727	-0.083635	-0.104476
	O294	O	0.393765	-0.644519	1.388590
	H295	H	0.403417	-0.651276	1.367692
	H296	H	0.392321	-0.651322	1.391104
	O297	O	0.701310	0.444399	0.560745
	H298	H	0.698670	0.427106	0.544690
	H299	H	0.691980	0.453957	0.551894
	O300	O	0.445247	0.469924	0.307469
	H301	H	0.435484	0.448972	0.296294
	H302	H	0.439081	0.448644	0.315892
	O303	O	0.433797	0.703040	0.288973
	H304	H	0.444299	0.720797	0.296508
	H305	H	0.414523	0.719206	0.302938
	O306	O	0.249389	1.449752	1.260273
	H307	H	0.226785	1.442221	1.273063
	H308	H	0.238396	1.445639	1.260586
	O309	O	0.664019	0.319717	0.309032
	H310	H	0.675341	0.329223	0.339778
	H311	H	0.676738	0.353888	0.315477
	O312	O	0.187020	1.207315	1.009850
	H313	H	0.200498	1.184038	1.005080
	H314	H	0.203989	1.225382	1.034916
	O315	O	0.689938	0.638941	0.360983
	H316	H	0.681139	0.630182	0.369443
	H317	H	0.672280	0.623369	0.366263
	O318	O	1.532257	0.422342	0.554178
	H319	H	1.529846	0.408953	0.542612
	H320	H	1.532405	0.418877	0.547726
	O321	O	-0.210148	0.001043	0.199940
	H322	H	-0.213411	-0.015335	0.207095
	H323	H	-0.220157	0.004172	0.206834
	O324	O	0.537540	0.279919	0.552144
	H325	H	0.526281	0.269835	0.565215
	H326	H	0.519347	0.284114	0.542824
	O327	O	0.496590	0.542153	0.522355
	H328	H	0.485765	0.535621	0.526879
	H329	H	0.489920	0.542502	0.513132
	O330	O	-0.034646	0.985735	-0.001231
	H331	H	-0.032678	0.967418	-0.001281
	H332	H	-0.012020	0.979952	-0.000245
	O333	O	0.801244	1.173694	1.005129
	H334	H	0.790708	1.183724	1.016345
	H335	H	0.808959	1.166450	1.020337
	O336	O	-0.039778	-0.173082	0.023884
	H337	H	-0.030511	-0.173259	0.006613
	H338	H	-0.035252	-0.188318	0.028183
	O339	O	0.266988	0.375115	0.479208
	H340	H	0.239657	0.355698	0.491033
	H341	H	0.291153	0.381726	0.506813
	O342	O	0.181359	0.880761	0.999496
	H343	H	0.187560	0.883505	0.999905
	H344	H	0.165443	0.869285	1.002360
	O345	O	0.967434	1.202694	-0.215009
	H346	H	0.950134	1.198997	-0.219903
	H347	H	0.943072	1.219393	-0.229551
	O348	O	0.984334	0.956030	0.834408
	H349	H	0.975421	0.962268	0.840982
	H350	H	0.982293	0.971694	0.843794
	O351	O	-0.085314	1.192019	1.065394
	H352	H	-0.052998	1.187490	1.048525
	H353	H	-0.096518	1.187840	1.078775
	O354	O	-0.690145	0.646004	-0.688276
	H355	H	-0.700592	0.652401	-0.677499
	H356	H	-0.681899	0.633030	-0.696427
	O357	O	0.060999	-0.214856	1.267726
	H358	H	0.056439	-0.218606	1.242067
	H359	H	0.043845	-0.211575	1.275515
	O360	O	0.281055	0.666227	0.507833
	H361	H	0.290230	0.642169	0.499816
	H362	H	0.250546	0.695627	0.503319
	O363	O	0.000975	0.195595	1.206660
	H364	H	-0.020857	0.195612	1.197877
	H365	H	-0.001752	0.203304	1.226592
	O366	O	0.367813	0.525148	0.557003
	H367	H	0.371756	0.527871	0.548724
	H368	H	0.359076	0.537132	0.559525
	O369	O	0.697073	0.571250	0.707585
	H370	H	0.732804	0.577637	0.735833
	H371	H	0.690099	0.536841	0.691093
	O372	O	1.117807	-0.138045	0.804146
	H373	H	1.105863	-0.132942	0.800293
	H374	H	1.120368	-0.117830	0.786903
	O375	O	0.387120	0.309075	0.567238
	H376	H	0.390388	0.329010	0.579841
	H377	H	0.405983	0.292908	0.581413
	O378	O	0.360132	0.516765	0.657972
	H379	H	0.354197	0.510050	0.647544
	H380	H	0.358364	0.508268	0.663372
	O381	O	1.047763	0.089449	0.990906
	H382	H	1.068551	0.100763	0.986992
	H383	H	1.049608	0.080356	0.961460
	O384	O	1.044623	0.932946	0.060692
	H385	H	1.034789	0.923871	0.060933
	H386	H	1.031238	0.944169	0.064664
	O387	O	0.009252	-0.152113	1.073301
	H388	H	0.021716	-0.140641	1.074069
	H389	H	0.010624	-0.156638	1.060342
	O390	O	0.170416	-0.040850	-0.170571
	H391	H	0.157358	-0.030949	-0.178012
	H392	H	0.171256	-0.045743	-0.177881
	O393	O	0.435028	0.470613	0.541569
	H394	H	0.435345	0.464384	0.558189
	H395	H	0.441864	0.476157	0.540327
	O396	O	1.043657	0.089794	0.185787
	H397	H	1.051041	0.106292	0.163088
	H398	H	1.026213	0.093886	0.185439
	O399	O	0.920937	-0.058871	0.978979
	H400	H	0.941607	-0.063961	0.981727
	H401	H	0.927331	-0.074432	1.002197
	O402	O	1.666239	0.603026	1.474663
	H403	H	1.669703	0.603295	1.469087
	H404	H	1.673829	0.619086	1.480254
	O405	O	1.511288	0.720759	-0.522621
	H406	H	1.497547	0.711912	-0.520253
	H407	H	1.542832	0.730865	-0.511387
	O408	O	0.807187	0.181414	-0.188626
	H409	H	0.803384	0.138361	-0.197098
	H410	H	0.795974	0.192917	-0.136228
	O411	O	0.781432	1.016228	-0.207717
	H412	H	0.777489	1.001493	-0.180046
	H413	H	0.765468	1.018480	-0.219476
	O414	O	0.452889	0.675615	0.702240
	H415	H	0.449647	0.686652	0.706944
	H416	H	0.433992	0.681773	0.697085
	O417	O	0.787382	0.820132	0.180255
	H418	H	0.785360	0.827336	0.194157
	H419	H	0.792658	0.802667	0.187917
	O420	O	0.173146	0.062996	0.154651
	H421	H	0.193410	0.057566	0.172854
	H422	H	0.152257	0.079231	0.147418
	O423	O	0.430819	0.639041	0.553122
	H424	H	0.418201	0.640126	0.554951
	H425	H	0.431135	0.631848	0.553530
	O426	O	0.686317	0.483121	0.288865
	H427	H	0.700880	0.488419	0.272325
	H428	H	0.651353	0.505962	0.285956
	O429	O	0.637243	0.707286	0.458034
	H430	H	0.664769	0.722202	0.465260
	H431	H	0.637297	0.693438	0.485533
	O432	O	0.677610	0.300078	0.474963
	H433	H	0.690505	0.270369	0.476853
	H434	H	0.649225	0.306027	0.490978
	O435	O	0.506288	0.281354	0.270951
	H436	H	0.544840	0.282149	0.269129
	H437	H	0.525504	0.258306	0.247888
	O438	O	-0.139218	-0.172426	-0.002004
	H439	H	-0.151056	-0.183217	-0.019077
	H440	H	-0.135999	-0.175495	0.030423
	O441	O	0.781595	-0.104401	-0.115395
	H442	H	0.783054	-0.096857	-0.094941
	H443	H	0.785680	-0.118143	-0.108693
	O444	O	-0.592934	1.565009	1.693926
	H445	H	-0.579959	1.588278	1.699349
	H446	H	-0.605265	1.558460	1.685699
	O447	O	0.520278	0.351810	0.708497
	H448	H	0.516588	0.356410	0.710189
	H449	H	0.525426	0.362056	0.710777
	O450	O	0.628759	0.697028	0.684311
	H451	H	0.639783	0.665746	0.702869
	H452	H	0.600794	0.700448	0.690601
	O453	O	0.286481	0.395929	0.628774
	H454	H	0.300529	0.394428	0.634845
	H455	H	0.302722	0.392709	0.628817
