data_Molecule from HDF5

_cell_length_a		16.321901
_cell_length_b		16.263741
_cell_length_c		16.306126
_cell_angle_alpha	89.945981
_cell_angle_beta	90.188427
_cell_angle_gamma	90.129780
_symmetry_space_group_name_H-M	'P 1'
_symmetry_Int_Tables_number		1

loop_
	_symmetry_equiv_pos_as_xyz
	x,y,z

loop_
	_atom_site_label
	_atom_site_type_symbol
	_atom_site_fract_x
	_atom_site_fract_y
	_atom_site_fract_z
	H0	H	0.402356	0.845017	0.714182
	H1	H	0.600518	0.172218	0.713328
	H2	H	0.598504	0.844622	0.286039
	H3	H	0.403070	0.171944	0.284875
	H4	H	0.714962	0.409552	0.835739
	H5	H	0.716895	0.607542	0.161798
	H6	H	0.286294	0.606919	0.834840
	H7	H	0.285549	0.409580	0.163176
	H8	H	0.836832	0.721442	0.401675
	H9	H	0.164360	0.723899	0.596895
	H10	H	0.837050	0.293947	0.595724
	H11	H	0.164206	0.295109	0.401825
	H12	H	0.837570	0.407958	0.713865
	H13	H	0.164574	0.607479	0.713025
	H14	H	0.837539	0.605914	0.284331
	H15	H	0.164383	0.410813	0.284978
	H16	H	0.402821	0.723963	0.835961
	H17	H	0.599157	0.721091	0.163374
	H18	H	0.598133	0.293250	0.835886
	H19	H	0.402862	0.293487	0.164275
	H20	H	0.713850	0.844928	0.401974
	H21	H	0.716236	0.172054	0.598230
	H22	H	0.286562	0.844206	0.598052
	H23	H	0.288369	0.172441	0.401447
	H24	H	0.901627	0.344855	0.212734
	H25	H	0.099984	0.672457	0.211535
	H26	H	0.097902	0.344780	0.785089
	H27	H	0.902117	0.672658	0.783274
	H28	H	0.214346	0.911248	0.335398
	H29	H	0.217284	0.108004	0.661855
	H30	H	0.785747	0.107169	0.335662
	H31	H	0.787058	0.910160	0.662921
	H32	H	0.337236	0.222024	0.900924
	H33	H	0.664872	0.222417	0.096716
	H34	H	0.337944	0.793618	0.097120
	H35	H	0.664464	0.794195	0.902081
	H36	H	0.337733	0.910284	0.212656
	H37	H	0.664159	0.108066	0.214429
	H38	H	0.337769	0.107767	0.782628
	H39	H	0.664353	0.909760	0.784950
	H40	H	0.902299	0.221779	0.335229
	H41	H	0.098310	0.222682	0.662656
	H42	H	0.096599	0.797041	0.334018
	H43	H	0.903242	0.793965	0.662583
	H44	H	0.214258	0.344458	0.900441
	H45	H	0.215856	0.672019	0.096977
	H46	H	0.786700	0.344812	0.096346
	H47	H	0.786221	0.672892	0.899179
	H48	H	0.403358	0.126591	0.591198
	H49	H	0.590743	0.892220	0.594258
	H50	H	0.597815	0.126493	0.406918
	H51	H	0.404817	0.890687	0.405160
	H52	H	0.590971	0.410291	0.115900
	H53	H	0.590668	0.604077	0.882911
	H54	H	0.410360	0.593519	0.111923
	H55	H	0.404902	0.416612	0.883561
	H56	H	0.119491	0.602630	0.394989
	H57	H	0.885573	0.601322	0.589823
	H58	H	0.119312	0.406910	0.592664
	H59	H	0.882480	0.411354	0.401360
	H60	H	0.112481	0.419818	0.583516
	H61	H	0.885967	0.600064	0.591096
	H62	H	0.119602	0.611907	0.408418
	H63	H	0.884729	0.413618	0.408333
	H64	H	0.413405	0.607520	0.115301
	H65	H	0.597274	0.602424	0.881794
	H66	H	0.601162	0.414843	0.117296
	H67	H	0.408510	0.415198	0.884744
	H68	H	0.592306	0.125866	0.403399
	H69	H	0.594921	0.893113	0.589277
	H70	H	0.411884	0.124784	0.595345
	H71	H	0.408652	0.891320	0.404406
	H72	H	0.899702	0.627040	0.089561
	H73	H	0.088345	0.391980	0.097734
	H74	H	0.097233	0.626379	0.904808
	H75	H	0.907825	0.391243	0.901772
	H76	H	0.087792	0.912349	0.614370
	H77	H	0.084594	0.101953	0.385346
	H78	H	0.911907	0.100040	0.613580
	H79	H	0.906690	0.914517	0.382761
	H80	H	0.615299	0.092734	0.903216
	H81	H	0.385390	0.102705	0.091140
	H82	H	0.617407	0.918325	0.095376
	H83	H	0.387343	0.924584	0.903548
	H84	H	0.618688	0.912825	0.094585
	H85	H	0.385822	0.099219	0.092643
	H86	H	0.620541	0.108368	0.900917
	H87	H	0.381685	0.910158	0.900220
	H88	H	0.907728	0.104523	0.616448
	H89	H	0.099328	0.110078	0.379537
	H90	H	0.099139	0.913468	0.617265
	H91	H	0.904909	0.914303	0.382267
	H92	H	0.091491	0.624706	0.903028
	H93	H	0.090561	0.394489	0.085149
	H94	H	0.910984	0.627089	0.098977
	H95	H	0.910352	0.394335	0.908407
	H96	H	0.410799	0.122684	0.586130
	H97	H	0.596659	0.890090	0.594423
	H98	H	0.592429	0.123495	0.409594
	H99	H	0.407652	0.891919	0.407669
	H100	H	0.592731	0.420869	0.113321
	H101	H	0.592941	0.597516	0.884196
	H102	H	0.399280	0.602233	0.117751
	H103	H	0.406176	0.413076	0.882902
	H104	H	0.114841	0.595849	0.409121
	H105	H	0.884852	0.601369	0.591820
	H106	H	0.117211	0.422404	0.599852
	H107	H	0.885334	0.418660	0.402104
	H108	H	0.912928	0.621943	0.085144
	H109	H	0.100796	0.389657	0.092459
	H110	H	0.093040	0.623633	0.909101
	H111	H	0.903254	0.392542	0.907851
	H112	H	0.093715	0.922803	0.612426
	H113	H	0.099676	0.092984	0.383183
	H114	H	0.905615	0.098036	0.614435
	H115	H	0.905506	0.916184	0.381975
	H116	H	0.614957	0.103014	0.915539
	H117	H	0.384218	0.101879	0.094522
	H118	H	0.616554	0.915701	0.090705
	H119	H	0.386980	0.913276	0.914530
	C120	C	0.379875	0.016416	0.620022
	C121	C	0.623039	0.999968	0.621109
	C122	C	0.621902	0.017049	0.378296
	C123	C	0.379142	0.999695	0.377110
	C124	C	0.622254	0.387112	0.007458
	C125	C	0.622173	0.629695	0.990909
	C126	C	0.379439	0.629912	0.006918
	C127	C	0.378456	0.386395	0.991767
	C128	C	0.009224	0.630289	0.376861
	C129	C	0.992951	0.630213	0.620021
	C130	C	0.008807	0.386935	0.620384
	C131	C	0.992178	0.386663	0.376383
	C132	C	0.879290	0.517162	0.119888
	C133	C	0.122202	0.500258	0.120148
	C134	C	0.122172	0.517001	0.877292
	C135	C	0.878866	0.500912	0.876857
	C136	C	0.121852	0.887731	0.506786
	C137	C	0.122978	0.130367	0.490571
	C138	C	0.879317	0.129661	0.507003
	C139	C	0.878406	0.886644	0.490728
	C140	C	0.509067	0.130242	0.877233
	C141	C	0.492762	0.130249	0.121566
	C142	C	0.509662	0.886959	0.121256
	C143	C	0.493128	0.887320	0.877879
	C144	C	0.382204	0.893519	0.675733
	C145	C	0.620672	0.123519	0.675563
	C146	C	0.618649	0.893533	0.323970
	C147	C	0.382422	0.123122	0.322543
	C148	C	0.676913	0.389200	0.884381
	C149	C	0.678330	0.627745	0.113604
	C150	C	0.323992	0.627862	0.883949
	C151	C	0.323894	0.388990	0.114784
	C152	C	0.885786	0.684003	0.380407
	C153	C	0.115742	0.685925	0.617612
	C154	C	0.885739	0.331652	0.616887
	C155	C	0.115298	0.332118	0.380090
	C156	C	0.886020	0.388639	0.675379
	C157	C	0.115787	0.627964	0.675304
	C158	C	0.886183	0.626671	0.322242
	C159	C	0.115522	0.390179	0.322618
	C160	C	0.381736	0.685932	0.884406
	C161	C	0.620187	0.684559	0.113944
	C162	C	0.618921	0.331416	0.884461
	C163	C	0.381959	0.331329	0.115109
	C164	C	0.676054	0.893598	0.381550
	C165	C	0.678778	0.123053	0.618959
	C166	C	0.324687	0.893137	0.618268
	C167	C	0.325500	0.123425	0.380527
	C168	C	0.881676	0.393798	0.174721
	C169	C	0.120200	0.623487	0.174472
	C170	C	0.119110	0.393751	0.822390
	C171	C	0.881605	0.623959	0.821264
	C172	C	0.176067	0.890788	0.383657
	C173	C	0.179083	0.128414	0.613259
	C174	C	0.823765	0.127716	0.384374
	C175	C	0.824466	0.889392	0.613772
	C176	C	0.386139	0.184512	0.880027
	C177	C	0.616155	0.184976	0.118028
	C178	C	0.386609	0.831633	0.117976
	C179	C	0.615885	0.832326	0.881301
	C180	C	0.386533	0.889661	0.175250
	C181	C	0.615608	0.128052	0.176560
	C182	C	0.386610	0.127905	0.821192
	C183	C	0.615599	0.889413	0.822876
	C184	C	0.881775	0.184485	0.384111
	C185	C	0.120069	0.185316	0.613627
	C186	C	0.117918	0.833835	0.383347
	C187	C	0.882190	0.831551	0.613680
	C188	C	0.176740	0.393472	0.879980
	C189	C	0.177672	0.623345	0.117226
	C190	C	0.824538	0.393795	0.116852
	C191	C	0.824174	0.624028	0.879003
	C192	C	0.402139	0.102452	0.597370
	C193	C	0.600659	0.914076	0.599174
	C194	C	0.600411	0.103072	0.400126
	C195	C	0.400614	0.913514	0.399204
	C196	C	0.601293	0.408893	0.093175
	C197	C	0.600076	0.607757	0.905071
	C198	C	0.401301	0.607604	0.092816
	C199	C	0.400073	0.408466	0.906014
	C200	C	0.095645	0.609522	0.398038
	C201	C	0.907426	0.607447	0.597587
	C202	C	0.094338	0.409618	0.598308
	C203	C	0.906395	0.408356	0.397624
	C204	C	0.901395	0.603201	0.097654
	C205	C	0.099803	0.414177	0.098188
	C206	C	0.100481	0.602767	0.899445
	C207	C	0.900837	0.414933	0.899374
	C208	C	0.100032	0.909781	0.592562
	C209	C	0.100981	0.108168	0.404825
	C210	C	0.902021	0.107546	0.592794
	C211	C	0.899473	0.908483	0.404571
	C212	C	0.594822	0.108015	0.899849
	C213	C	0.407201	0.107991	0.099280
	C214	C	0.595411	0.909143	0.099894
	C215	C	0.407313	0.909552	0.899784
	Zn216	Zn	0.501305	0.008825	0.748432
	Zn217	Zn	0.500963	0.008372	0.249850
	Zn218	Zn	0.750792	0.508988	-0.001300
	Zn219	Zn	0.250347	0.508366	-0.000861
	Zn220	Zn	0.000951	0.758798	0.498163
	Zn221	Zn	0.000551	0.258410	0.498528
	Zn222	Zn	0.000679	0.508521	0.748820
	Zn223	Zn	0.000852	0.508926	0.248248
	Zn224	Zn	0.501222	0.758589	-0.000491
	Zn225	Zn	0.500902	0.258245	-0.000028
	Zn226	Zn	0.750491	0.008994	0.499106
	Zn227	Zn	0.251433	0.007676	0.498754
	N228	N	0.415697	0.971130	0.676918
	N229	N	0.586927	0.046070	0.677172
	N230	N	0.585767	0.971362	0.321762
	N231	N	0.414876	0.045275	0.320407
	N232	N	0.679118	0.423169	0.961549
	N233	N	0.679834	0.594494	0.036150
	N234	N	0.322626	0.593542	0.961225
	N235	N	0.321556	0.422296	0.037230
	N236	N	0.963445	0.686460	0.413690
	N237	N	0.038494	0.687372	0.583888
	N238	N	0.962962	0.330528	0.583251
	N239	N	0.037835	0.330016	0.412908
	N240	N	0.963462	0.422210	0.677539
	N241	N	0.038405	0.594113	0.676866
	N242	N	0.963766	0.594110	0.320126
	N243	N	0.037926	0.423169	0.320014
	N244	N	0.415456	0.687079	0.961721
	N245	N	0.585858	0.685796	0.036626
	N246	N	0.585657	0.329999	0.961927
	N247	N	0.415258	0.329638	0.037539
	N248	N	0.678243	0.971406	0.414509
	N249	N	0.680273	0.045392	0.585589
	N250	N	0.322990	0.970836	0.584488
	N251	N	0.323234	0.045506	0.413752
	N252	N	0.914904	0.471580	0.176868
	N253	N	0.086177	0.545941	0.176235
	N254	N	0.086022	0.471492	0.820372
	N255	N	0.914777	0.546376	0.819802
	N256	N	0.178807	0.923382	0.461425
	N257	N	0.180791	0.094852	0.535832
	N258	N	0.822200	0.094269	0.461849
	N259	N	0.822178	0.922965	0.536366
	N260	N	0.463339	0.186006	0.914310
	N261	N	0.538783	0.186433	0.084530
	N262	N	0.464010	0.829945	0.084999
	N263	N	0.538601	0.830676	0.914415
	N264	N	0.464085	0.923200	0.177449
	N265	N	0.538041	0.094599	0.178602
	N266	N	0.464148	0.094915	0.819384
	N267	N	0.538222	0.923169	0.820886
	N268	N	0.915628	0.185799	0.461459
	N269	N	0.085912	0.186666	0.536438
	N270	N	0.084678	0.832090	0.460872
	N271	N	0.915146	0.829694	0.536052
	N272	N	0.178788	0.471136	0.913304
	N273	N	0.179035	0.545712	0.084200
	N274	N	0.823033	0.471446	0.083324
	N275	N	0.822187	0.546414	0.912695
	O276	O	0.489935	0.502256	0.569297
	H277	H	0.492257	0.508831	0.572935
	H278	H	0.492429	0.511042	0.569927
	O279	O	0.039116	0.045932	-0.042732
	H280	H	0.034355	0.041071	-0.047569
	H281	H	0.036643	0.056036	-0.043456
	O282	O	1.059392	-0.002956	0.958290
	H283	H	1.060915	-0.005894	0.958483
	H284	H	1.065773	-0.002506	0.961354
	O285	O	0.472951	0.482305	0.568383
	H286	H	0.461023	0.480845	0.561894
	H287	H	0.475617	0.491392	0.565372
	O288	O	1.009200	0.050394	-0.054513
	H289	H	1.016132	0.052256	-0.056421
	H290	H	1.010407	0.042785	-0.050956
	O291	O	-0.535729	0.477856	-0.450317
	H292	H	-0.535739	0.478202	-0.441528
	H293	H	-0.537022	0.470819	-0.444648
	O294	O	0.521296	0.504937	0.533361
	H295	H	0.525057	0.503341	0.530361
	H296	H	0.521844	0.497253	0.539559
	O297	O	0.057826	1.078642	-0.013959
	H298	H	0.068167	1.080670	-0.012896
	H299	H	0.056995	1.077775	-0.012976
	O300	O	1.063586	-0.012848	0.964760
	H301	H	1.060645	-0.008464	0.975578
	H302	H	1.061058	-0.012603	0.964343
	O303	O	0.493551	0.470905	0.547548
	H304	H	0.493357	0.466593	0.550409
	H305	H	0.495458	0.470776	0.541351
	O306	O	0.049717	1.011871	0.969177
	H307	H	0.049749	1.009236	0.968353
	H308	H	0.048105	1.015815	0.958712
	O309	O	0.512515	0.467584	0.567126
	H310	H	0.512041	0.461587	0.582056
	H311	H	0.501180	0.474135	0.562621
