data_Molecule from HDF5

_cell_length_a		16.501497
_cell_length_b		16.493466
_cell_length_c		16.359458
_cell_angle_alpha	90.032604
_cell_angle_beta	89.957461
_cell_angle_gamma	90.070005
_symmetry_space_group_name_H-M	'P 1'
_symmetry_Int_Tables_number		1

loop_
	_symmetry_equiv_pos_as_xyz
	x,y,z

loop_
	_atom_site_label
	_atom_site_type_symbol
	_atom_site_fract_x
	_atom_site_fract_y
	_atom_site_fract_z
	H0	H	0.398808	0.846916	0.716426
	H1	H	0.603443	0.165268	0.717936
	H2	H	0.603994	0.847778	0.277010
	H3	H	0.394869	0.164571	0.276643
	H4	H	0.720600	0.401600	0.841147
	H5	H	0.720771	0.612148	0.159338
	H6	H	0.280355	0.610695	0.839202
	H7	H	0.276143	0.400502	0.157240
	H8	H	0.842383	0.731192	0.389648
	H9	H	0.156076	0.729866	0.605316
	H10	H	0.841801	0.282662	0.604909
	H11	H	0.157273	0.287096	0.392344
	H12	H	0.840873	0.400436	0.719821
	H13	H	0.156875	0.610860	0.717843
	H14	H	0.840308	0.612082	0.276809
	H15	H	0.157709	0.404816	0.278002
	H16	H	0.396361	0.726259	0.839622
	H17	H	0.605540	0.728457	0.157893
	H18	H	0.603679	0.286817	0.840408
	H19	H	0.392456	0.284557	0.157694
	H20	H	0.723201	0.849254	0.389693
	H21	H	0.720905	0.165189	0.601325
	H22	H	0.278184	0.849303	0.604490
	H23	H	0.277170	0.164067	0.391074
	H24	H	0.895079	0.348155	0.218353
	H25	H	0.103957	0.665306	0.219564
	H26	H	0.101654	0.349902	0.777468
	H27	H	0.892449	0.664457	0.777120
	H28	H	0.223122	0.899723	0.340185
	H29	H	0.218059	0.111255	0.656805
	H30	H	0.776253	0.115696	0.338635
	H31	H	0.777342	0.900957	0.654643
	H32	H	0.343296	0.228401	0.892897
	H33	H	0.655853	0.231538	0.107683
	H34	H	0.341781	0.783366	0.106726
	H35	H	0.657329	0.784596	0.894413
	H36	H	0.341675	0.900692	0.221417
	H37	H	0.657684	0.112139	0.221124
	H38	H	0.342924	0.110158	0.778347
	H39	H	0.659095	0.903043	0.779977
	H40	H	0.894170	0.228710	0.338114
	H41	H	0.103182	0.227405	0.656123
	H42	H	0.107515	0.784209	0.339797
	H43	H	0.891223	0.784288	0.654857
	H44	H	0.220632	0.350605	0.891829
	H45	H	0.222560	0.664099	0.106189
	H46	H	0.776761	0.349245	0.106121
	H47	H	0.776786	0.663814	0.893824
	H48	H	0.414819	0.118814	0.589928
	H49	H	0.590855	0.892058	0.589812
	H50	H	0.590416	0.117646	0.413852
	H51	H	0.410657	0.893157	0.407872
	H52	H	0.584526	0.412606	0.114305
	H53	H	0.588966	0.596246	0.886090
	H54	H	0.407993	0.594595	0.114063
	H55	H	0.419279	0.415928	0.888168
	H56	H	0.113747	0.602334	0.407155
	H57	H	0.884961	0.598962	0.587784
	H58	H	0.110995	0.417575	0.587974
	H59	H	0.889190	0.420597	0.413823
	H60	H	0.110511	0.415765	0.586278
	H61	H	0.887599	0.597141	0.581539
	H62	H	0.107577	0.595146	0.416764
	H63	H	0.885489	0.419191	0.402775
	H64	H	0.410419	0.592730	0.111317
	H65	H	0.588797	0.593330	0.887607
	H66	H	0.593726	0.420199	0.114828
	H67	H	0.405148	0.411121	0.881299
	H68	H	0.590596	0.119710	0.407189
	H69	H	0.587572	0.894633	0.587159
	H70	H	0.407880	0.117873	0.583560
	H71	H	0.413704	0.896613	0.412233
	H72	H	0.913105	0.616287	0.080830
	H73	H	0.086979	0.395207	0.086500
	H74	H	0.088289	0.620673	0.908237
	H75	H	0.909922	0.393961	0.909556
	H76	H	0.087487	0.915454	0.611966
	H77	H	0.087402	0.099252	0.382921
	H78	H	0.908726	0.091659	0.609456
	H79	H	0.911805	0.922541	0.384656
	H80	H	0.613220	0.102187	0.915989
	H81	H	0.386568	0.100082	0.085947
	H82	H	0.613606	0.916683	0.091151
	H83	H	0.386135	0.914977	0.909628
	H84	H	0.611417	0.913093	0.081852
	H85	H	0.390686	0.092664	0.082328
	H86	H	0.611244	0.090653	0.911130
	H87	H	0.387707	0.916651	0.909628
	H88	H	0.914686	0.094228	0.608168
	H89	H	0.092810	0.096501	0.382333
	H90	H	0.090926	0.920616	0.610965
	H91	H	0.916084	0.919032	0.384858
	H92	H	0.089136	0.620688	0.910270
	H93	H	0.088380	0.394801	0.085169
	H94	H	0.901596	0.621459	0.086032
	H95	H	0.910770	0.394751	0.909688
	H96	H	0.406171	0.121671	0.592153
	H97	H	0.592072	0.893907	0.585489
	H98	H	0.584913	0.116620	0.410178
	H99	H	0.408021	0.894379	0.413488
	H100	H	0.583496	0.423347	0.109574
	H101	H	0.586376	0.594824	0.886962
	H102	H	0.411168	0.596239	0.112900
	H103	H	0.406585	0.426591	0.887193
	H104	H	0.110713	0.589842	0.404999
	H105	H	0.887041	0.592520	0.586873
	H106	H	0.110838	0.418275	0.585712
	H107	H	0.883965	0.410313	0.410261
	H108	H	0.912985	0.620854	0.093925
	H109	H	0.089113	0.394843	0.087285
	H110	H	0.090319	0.621666	0.908630
	H111	H	0.910169	0.394245	0.910515
	H112	H	0.085139	0.920552	0.609686
	H113	H	0.087438	0.093198	0.384025
	H114	H	0.909941	0.097839	0.610781
	H115	H	0.911162	0.917446	0.382637
	H116	H	0.616514	0.099692	0.904091
	H117	H	0.387308	0.092193	0.090347
	H118	H	0.608583	0.922887	0.084164
	H119	H	0.386705	0.915966	0.907271
	C120	C	0.378476	0.015089	0.620482
	C121	C	0.621949	0.998310	0.618946
	C122	C	0.621625	0.014473	0.376352
	C123	C	0.377889	0.998586	0.377167
	C124	C	0.620041	0.385927	0.008371
	C125	C	0.620309	0.627205	0.991733
	C126	C	0.378425	0.626937	0.007259
	C127	C	0.377019	0.385193	0.990332
	C128	C	0.006889	0.628923	0.376235
	C129	C	0.990304	0.628614	0.618620
	C130	C	0.006674	0.384764	0.619598
	C131	C	0.990602	0.385106	0.375956
	C132	C	0.877321	0.515093	0.120029
	C133	C	0.120773	0.498859	0.119521
	C134	C	0.120405	0.516456	0.876799
	C135	C	0.877349	0.498196	0.877354
	C136	C	0.121249	0.885607	0.506734
	C137	C	0.120319	0.128048	0.488341
	C138	C	0.878802	0.127875	0.504906
	C139	C	0.879029	0.886359	0.488289
	C140	C	0.509283	0.128618	0.877665
	C141	C	0.491755	0.127740	0.119909
	C142	C	0.507500	0.884817	0.119895
	C143	C	0.491440	0.884233	0.877127
	C144	C	0.378607	0.895106	0.678434
	C145	C	0.622653	0.117806	0.678182
	C146	C	0.623349	0.895542	0.316102
	C147	C	0.376065	0.116822	0.316124
	C148	C	0.680240	0.383380	0.888603
	C149	C	0.680554	0.629898	0.111303
	C150	C	0.319742	0.629257	0.887089
	C151	C	0.316357	0.382331	0.109536
	C152	C	0.889218	0.690478	0.372395
	C153	C	0.108750	0.689364	0.622570
	C154	C	0.888898	0.323462	0.622502
	C155	C	0.109725	0.326362	0.373917
	C156	C	0.888403	0.381977	0.680089
	C157	C	0.109234	0.630047	0.678679
	C158	C	0.888184	0.630898	0.316157
	C159	C	0.110004	0.384945	0.317077
	C160	C	0.377532	0.686703	0.887458
	C161	C	0.623433	0.688142	0.110717
	C162	C	0.622156	0.326337	0.888276
	C163	C	0.374351	0.324629	0.109918
	C164	C	0.682524	0.896351	0.372493
	C165	C	0.681214	0.117595	0.620535
	C166	C	0.318631	0.896322	0.622647
	C167	C	0.317381	0.116682	0.373279
	C168	C	0.876278	0.396023	0.179552
	C169	C	0.122773	0.617598	0.180007
	C170	C	0.121134	0.397331	0.816870
	C171	C	0.874545	0.617004	0.817226
	C172	C	0.182502	0.882274	0.387612
	C173	C	0.178851	0.129736	0.608769
	C174	C	0.817315	0.132177	0.385993
	C175	C	0.817317	0.882969	0.607162
	C176	C	0.390543	0.188257	0.874793
	C177	C	0.609210	0.189919	0.124527
	C178	C	0.389033	0.823799	0.123949
	C179	C	0.610234	0.824822	0.875861
	C180	C	0.388853	0.882260	0.181128
	C181	C	0.610230	0.130206	0.180734
	C182	C	0.390503	0.129282	0.817823
	C183	C	0.611097	0.883640	0.818839
	C184	C	0.875942	0.188803	0.385672
	C185	C	0.121709	0.187646	0.608237
	C186	C	0.125093	0.824471	0.387613
	C187	C	0.874295	0.824883	0.607187
	C188	C	0.179945	0.397724	0.874023
	C189	C	0.181827	0.616937	0.123379
	C190	C	0.817318	0.396340	0.123528
	C191	C	0.816691	0.616469	0.875134
	C192	C	0.402596	0.097870	0.595519
	C193	C	0.597370	0.915209	0.594485
	C194	C	0.595748	0.096676	0.402669
	C195	C	0.403400	0.916124	0.403636
	C196	C	0.594566	0.411376	0.091297
	C197	C	0.595239	0.601812	0.908565
	C198	C	0.402804	0.601877	0.090930
	C199	C	0.402841	0.410472	0.907169
	C200	C	0.089167	0.603144	0.402168
	C201	C	0.908011	0.603541	0.592735
	C202	C	0.089439	0.410191	0.594138
	C203	C	0.907782	0.409678	0.401483
	C204	C	0.902164	0.597968	0.094412
	C205	C	0.095436	0.416509	0.093641
	C206	C	0.096313	0.599252	0.901726
	C207	C	0.902917	0.415826	0.902536
	C208	C	0.095260	0.911489	0.589430
	C209	C	0.096216	0.103341	0.404901
	C210	C	0.903960	0.101908	0.587978
	C211	C	0.905458	0.912191	0.405705
	C212	C	0.592220	0.104386	0.903129
	C213	C	0.409549	0.102152	0.093959
	C214	C	0.589678	0.910428	0.093523
	C215	C	0.408570	0.908734	0.901688
	Zn216	Zn	0.500928	0.006015	0.748594
	Zn217	Zn	0.499616	0.005806	0.248432
	Zn218	Zn	0.748939	0.506189	-0.000506
	Zn219	Zn	0.249353	0.507595	-0.001594
	Zn220	Zn	-0.000788	0.757607	0.497666
	Zn221	Zn	-0.001077	0.256171	0.496676
	Zn222	Zn	-0.002062	0.507650	0.747751
	Zn223	Zn	-0.001250	0.507087	0.248095
	Zn224	Zn	0.499259	0.755942	-0.000312
	Zn225	Zn	0.499273	0.257723	-0.000491
	Zn226	Zn	0.750574	0.007128	0.496454
	Zn227	Zn	0.249246	0.006841	0.498402
	N228	N	0.415037	0.970035	0.677504
	N229	N	0.586684	0.042576	0.677513
	N230	N	0.586134	0.970028	0.318389
	N231	N	0.413040	0.042180	0.318519
	N232	N	0.679093	0.419588	0.964166
	N233	N	0.678704	0.592694	0.036112
	N234	N	0.320228	0.592988	0.962602
	N235	N	0.317685	0.418996	0.034162
	N236	N	0.964210	0.689389	0.408948
	N237	N	0.033756	0.688695	0.585969
	N238	N	0.963659	0.325050	0.585687
	N239	N	0.034383	0.326440	0.409932
	N240	N	0.962870	0.419407	0.678333
	N241	N	0.034538	0.593103	0.676730
	N242	N	0.962490	0.593478	0.318423
	N243	N	0.034834	0.420385	0.318064
	N244	N	0.412855	0.685749	0.963489
	N245	N	0.586418	0.686564	0.035540
	N246	N	0.585524	0.327682	0.963770
	N247	N	0.411479	0.326340	0.034605
	N248	N	0.681696	0.971318	0.408914
	N249	N	0.680876	0.042205	0.584759
	N250	N	0.318437	0.971916	0.587301
	N251	N	0.318324	0.041978	0.410225
	N252	N	0.912735	0.471046	0.177548
	N253	N	0.085326	0.543224	0.177779
	N254	N	0.084647	0.472165	0.818391
	N255	N	0.911501	0.542431	0.818254
	N256	N	0.180159	0.919818	0.462589
	N257	N	0.178463	0.093486	0.533192
	N258	N	0.819203	0.094827	0.461110
	N259	N	0.820055	0.920393	0.532192
	N260	N	0.465568	0.188027	0.911198
	N261	N	0.534501	0.188580	0.087477
	N262	N	0.463767	0.825372	0.086694
	N263	N	0.534751	0.824893	0.911111
	N264	N	0.463342	0.919433	0.178714
	N265	N	0.536109	0.092240	0.177995
	N266	N	0.465330	0.092854	0.819454
	N267	N	0.536214	0.920015	0.819516
	N268	N	0.913585	0.186210	0.460527
	N269	N	0.086001	0.186848	0.532491
	N270	N	0.087697	0.826280	0.462719
	N271	N	0.911905	0.826781	0.532271
	N272	N	0.179590	0.472748	0.910302
	N273	N	0.180745	0.542087	0.086611
	N274	N	0.817732	0.471437	0.087449
	N275	N	0.818153	0.541611	0.911648
	O276	O	0.358902	0.547177	0.521013
	H277	H	0.342844	0.569141	0.513950
	H278	H	0.366121	0.531144	0.509210
	O279	O	1.207365	-0.112874	0.880624
	H280	H	1.199418	-0.092925	0.875668
	H281	H	1.228707	-0.117821	0.873811
	O282	O	0.433268	0.629826	0.653417
	H283	H	0.433140	0.635937	0.645637
	H284	H	0.435004	0.629259	0.644639
	O285	O	0.451976	0.566222	0.368116
	H286	H	0.460572	0.559069	0.376100
	H287	H	0.440098	0.542675	0.359406
	O288	O	0.895274	0.898312	0.115753
	H289	H	0.897463	0.893448	0.115561
	H290	H	0.900432	0.906563	0.113248
	O291	O	0.728034	0.178297	0.176138
	H292	H	0.724353	0.168060	0.200170
	H293	H	0.731841	0.208794	0.173773
	O294	O	-0.049102	0.113003	1.033962
	H295	H	-0.059118	0.100330	1.042517
	H296	H	-0.040570	0.116689	1.021521
	O297	O	0.705640	0.528773	0.663216
	H298	H	0.712312	0.535473	0.669844
	H299	H	0.715613	0.557575	0.679978
	O300	O	0.524615	0.611867	0.419898
	H301	H	0.525757	0.599394	0.436525
	H302	H	0.531053	0.596154	0.428276
	O303	O	0.504555	0.418913	0.632562
	H304	H	0.512699	0.423873	0.634107
	H305	H	0.512268	0.410056	0.654108
	O306	O	0.224032	0.783107	0.804608
	H307	H	0.230338	0.787526	0.791282
	H308	H	0.212144	0.774937	0.794565
	O309	O	0.683702	0.491496	0.285581
	H310	H	0.696501	0.498697	0.282694
	H311	H	0.686214	0.509189	0.280196
	O312	O	0.109853	1.005908	0.793671
	H313	H	0.112401	1.001467	0.799237
	H314	H	0.117497	1.020680	0.791506
	O315	O	0.525642	0.710954	0.700920
	H316	H	0.536694	0.722120	0.688205
	H317	H	0.527626	0.712364	0.716654
	O318	O	1.182246	0.193236	-0.182724
	H319	H	1.173148	0.192546	-0.182260
	H320	H	1.189343	0.178789	-0.164814
	O321	O	-0.023478	-0.197172	-0.117187
	H322	H	-0.016653	-0.198115	-0.120646
	H323	H	-0.019450	-0.193398	-0.117416
	O324	O	0.432329	0.438002	0.481484
	H325	H	0.433737	0.424558	0.476098
	H326	H	0.426662	0.429568	0.468295
	O327	O	0.298717	0.527130	0.424107
	H328	H	0.295058	0.524274	0.412985
	H329	H	0.304904	0.521512	0.426448
	O330	O	-0.085222	0.809550	0.196515
	H331	H	-0.104572	0.799130	0.180499
	H332	H	-0.080824	0.795191	0.207485
	O333	O	0.704287	0.695186	0.625540
	H334	H	0.697600	0.694413	0.584147
	H335	H	0.724075	0.723785	0.639356
	O336	O	0.168881	0.049691	-0.027979
	H337	H	0.181095	0.052535	-0.032373
	H338	H	0.164383	0.024418	-0.012404
	O339	O	0.020299	0.907492	0.792035
	H340	H	0.041125	0.902182	0.782577
	H341	H	0.031886	0.901234	0.789910
	O342	O	0.126237	1.011111	1.070452
	H343	H	0.126933	1.026792	1.076216
	H344	H	0.137167	1.014880	1.092170
	O345	O	0.879566	1.028904	0.091530
	H346	H	0.882563	1.025923	0.095330
	H347	H	0.868515	1.020401	0.096293
	O348	O	0.484860	0.339866	0.622630
	H349	H	0.495049	0.347576	0.640172
	H350	H	0.454724	0.342293	0.619670
	O351	O	-0.199146	0.871209	0.982044
	H352	H	-0.200294	0.880911	0.956334
	H353	H	-0.191455	0.873122	0.977859
	O354	O	0.115060	1.195948	0.181765
	H355	H	0.108164	1.169383	0.176669
	H356	H	0.104385	1.206127	0.173822
	O357	O	-0.104156	-0.020288	0.890724
	H358	H	-0.098066	-0.025561	0.880958
	H359	H	-0.107911	-0.005963	0.880030
	O360	O	0.610867	0.380552	0.551078
	H361	H	0.612076	0.391743	0.574133
	H362	H	0.609604	0.367974	0.572721
	O363	O	0.088173	-0.185393	0.997753
	H364	H	0.081569	-0.174720	1.008237
	H365	H	0.115517	-0.177747	0.979171
	O366	O	0.521290	0.663004	0.545744
	H367	H	0.518242	0.658000	0.539646
	H368	H	0.523321	0.654927	0.534040
	O369	O	0.298405	0.489436	0.375349
	H370	H	0.293378	0.467842	0.359674
	H371	H	0.304234	0.470972	0.379554
	O372	O	1.216523	0.031985	1.212413
	H373	H	1.209259	0.032227	1.228818
	H374	H	1.231841	0.048682	1.227843
	O375	O	0.690361	0.309176	0.398238
	H376	H	0.698037	0.327929	0.394206
	H377	H	0.679366	0.307266	0.421293
	O378	O	0.630930	0.576514	0.693297
	H379	H	0.608916	0.597174	0.691979
	H380	H	0.642969	0.588992	0.675005
	O381	O	0.833363	0.199232	0.809758
	H382	H	0.846672	0.180397	0.800871
	H383	H	0.825808	0.210827	0.856457
	O384	O	0.488702	0.378060	0.297244
	H385	H	0.490330	0.370923	0.309685
	H386	H	0.511399	0.365781	0.298604
	O387	O	-0.210434	0.050252	0.792934
	H388	H	-0.187034	0.057866	0.791498
	H389	H	-0.238544	0.046517	0.769502
	O390	O	0.195564	0.205837	0.090757
	H391	H	0.214731	0.227393	0.063632
	H392	H	0.157538	0.206971	0.096595
	O393	O	0.854698	0.863893	0.799506
	H394	H	0.870429	0.878830	0.804775
	H395	H	0.870099	0.856353	0.812606
	O396	O	1.009346	-0.025634	0.184884
	H397	H	1.000802	-0.031256	0.183439
	H398	H	1.000638	-0.027975	0.194009
	O399	O	1.129214	0.196443	0.969153
	H400	H	1.130162	0.200597	0.959017
	H401	H	1.120317	0.196217	0.977915
	O402	O	1.212438	0.799219	1.256217
	H403	H	1.204882	0.811851	1.256237
	H404	H	1.213814	0.784559	1.239682
	O405	O	0.882486	0.804927	0.090372
	H406	H	0.878995	0.812264	0.086130
	H407	H	0.885322	0.816819	0.081690
	O408	O	0.919505	0.003312	0.022805
	H409	H	0.927096	-0.012583	0.020580
	H410	H	0.924326	0.005141	0.028539
	O411	O	1.013815	1.204781	0.105427
	H412	H	1.023243	1.197134	0.106165
	H413	H	1.015749	1.216160	0.102877
	O414	O	0.423583	0.710559	0.298113
	H415	H	0.406100	0.688530	0.294520
	H416	H	0.442018	0.723597	0.277262
	O417	O	0.528545	0.662019	0.368873
	H418	H	0.514865	0.672181	0.356642
	H419	H	0.517426	0.656397	0.386157
	O420	O	-0.119528	0.092862	0.173043
	H421	H	-0.101944	0.082449	0.187302
	H422	H	-0.146963	0.075275	0.189679
	O423	O	0.690348	0.542040	0.419859
	H424	H	0.673565	0.539037	0.427005
	H425	H	0.688109	0.533124	0.435873
	O426	O	0.604109	0.438129	0.643203
	H427	H	0.612965	0.436758	0.651863
	H428	H	0.602629	0.431786	0.637944
	O429	O	0.472926	0.489744	0.487504
	H430	H	0.445074	0.485642	0.495956
	H431	H	0.474759	0.483129	0.485046
	O432	O	0.298803	0.302286	0.702442
	H433	H	0.300675	0.320723	0.680931
	H434	H	0.301926	0.293628	0.717352
	O435	O	0.392544	0.299178	0.417094
	H436	H	0.395763	0.288740	0.424234
	H437	H	0.402792	0.295489	0.434068
	O438	O	0.146283	-0.150143	0.025309
	H439	H	0.151070	-0.152129	0.033662
	H440	H	0.159830	-0.148248	0.006985
	O441	O	0.787562	0.218367	-0.026185
	H442	H	0.769824	0.214932	-0.010400
	H443	H	0.786091	0.220175	-0.010583
	O444	O	-0.011002	1.199763	0.794378
	H445	H	-0.007069	1.195792	0.809216
	H446	H	-0.020136	1.227730	0.772083
	O447	O	0.404668	0.364656	0.352021
	H448	H	0.420881	0.362751	0.341540
	H449	H	0.422180	0.352126	0.351462
	O450	O	0.520120	0.442127	0.559782
	H451	H	0.503850	0.445147	0.576797
	H452	H	0.522137	0.444428	0.563388
	O453	O	0.286591	0.471480	0.706952
	H454	H	0.272380	0.466023	0.711346
	H455	H	0.282379	0.481469	0.716939
