data_Molecule from HDF5

_cell_length_a		16.286480
_cell_length_b		16.254394
_cell_length_c		16.295417
_cell_angle_alpha	89.971673
_cell_angle_beta	90.060668
_cell_angle_gamma	90.178986
_symmetry_space_group_name_H-M	'P 1'
_symmetry_Int_Tables_number		1

loop_
	_symmetry_equiv_pos_as_xyz
	x,y,z

loop_
	_atom_site_label
	_atom_site_type_symbol
	_atom_site_fract_x
	_atom_site_fract_y
	_atom_site_fract_z
	H0	H	0.393566	0.835202	0.708742
	H1	H	0.592411	0.162379	0.707728
	H2	H	0.590559	0.835224	0.279317
	H3	H	0.395361	0.163207	0.279508
	H4	H	0.708628	0.400215	0.831062
	H5	H	0.708720	0.597661	0.158527
	H6	H	0.277815	0.598227	0.831588
	H7	H	0.279747	0.398236	0.157845
	H8	H	0.830002	0.713027	0.395464
	H9	H	0.156326	0.715323	0.594697
	H10	H	0.830001	0.283798	0.593549
	H11	H	0.158251	0.285641	0.397636
	H12	H	0.830272	0.397513	0.709738
	H13	H	0.156040	0.599522	0.710817
	H14	H	0.830449	0.597620	0.279334
	H15	H	0.157855	0.400674	0.280320
	H16	H	0.395077	0.713169	0.830943
	H17	H	0.592009	0.712799	0.158434
	H18	H	0.592529	0.284630	0.830822
	H19	H	0.394992	0.282759	0.157082
	H20	H	0.707392	0.835360	0.394450
	H21	H	0.708313	0.162215	0.592337
	H22	H	0.278246	0.835072	0.592045
	H23	H	0.280171	0.163713	0.396675
	H24	H	0.895781	0.334274	0.208218
	H25	H	0.093614	0.662890	0.208691
	H26	H	0.092177	0.335711	0.779916
	H27	H	0.894444	0.662446	0.779539
	H28	H	0.206172	0.901154	0.330945
	H29	H	0.208515	0.099306	0.658551
	H30	H	0.780511	0.096706	0.330282
	H31	H	0.778554	0.899325	0.657565
	H32	H	0.330662	0.213465	0.894957
	H33	H	0.658289	0.212220	0.091449
	H34	H	0.330963	0.783281	0.092528
	H35	H	0.657769	0.784855	0.894739
	H36	H	0.330486	0.898992	0.208408
	H37	H	0.656745	0.098404	0.209765
	H38	H	0.330440	0.098309	0.778487
	H39	H	0.657715	0.901919	0.779332
	H40	H	0.895508	0.213353	0.331391
	H41	H	0.090814	0.213668	0.658567
	H42	H	0.091229	0.784598	0.331295
	H43	H	0.895404	0.784652	0.657763
	H44	H	0.208369	0.335215	0.895079
	H45	H	0.209049	0.662722	0.093210
	H46	H	0.779237	0.335049	0.092433
	H47	H	0.780061	0.662765	0.896157
	H48	H	0.398128	0.116583	0.585326
	H49	H	0.581124	0.879509	0.598423
	H50	H	0.575410	0.111613	0.402079
	H51	H	0.405854	0.884660	0.400937
	H52	H	0.583212	0.404280	0.109978
	H53	H	0.579745	0.591351	0.880965
	H54	H	0.404072	0.592854	0.110403
	H55	H	0.406966	0.406784	0.879594
	H56	H	0.108527	0.589323	0.403971
	H57	H	0.875915	0.594603	0.587677
	H58	H	0.113339	0.411923	0.603884
	H59	H	0.875196	0.403439	0.395616
	H60	H	0.112896	0.391104	0.581361
	H61	H	0.878045	0.590716	0.584946
	H62	H	0.110340	0.591897	0.399058
	H63	H	0.878057	0.402749	0.405954
	H64	H	0.398977	0.592392	0.111514
	H65	H	0.590359	0.599984	0.875110
	H66	H	0.590744	0.403024	0.112764
	H67	H	0.398529	0.400034	0.875808
	H68	H	0.593460	0.115628	0.410571
	H69	H	0.577820	0.886655	0.578394
	H70	H	0.400953	0.116134	0.589525
	H71	H	0.395052	0.882759	0.406634
	H72	H	0.901898	0.614704	0.084116
	H73	H	0.084034	0.382962	0.086602
	H74	H	0.082214	0.615483	0.897008
	H75	H	0.899476	0.380875	0.897854
	H76	H	0.081265	0.908288	0.608804
	H77	H	0.085771	0.094272	0.377668
	H78	H	0.902384	0.088268	0.609319
	H79	H	0.900196	0.902487	0.377040
	H80	H	0.611939	0.094450	0.898030
	H81	H	0.378654	0.091263	0.084254
	H82	H	0.610348	0.909894	0.091686
	H83	H	0.376741	0.907052	0.897297
	H84	H	0.612264	0.902692	0.089982
	H85	H	0.378960	0.088477	0.086689
	H86	H	0.610168	0.093726	0.902943
	H87	H	0.377434	0.901603	0.901528
	H88	H	0.901600	0.095527	0.612132
	H89	H	0.088804	0.091918	0.378379
	H90	H	0.086249	0.902497	0.612740
	H91	H	0.896927	0.907506	0.377365
	H92	H	0.083831	0.612602	0.908298
	H93	H	0.089591	0.382375	0.085983
	H94	H	0.897988	0.616726	0.088843
	H95	H	0.904588	0.384118	0.903111
	H96	H	0.402905	0.114264	0.584969
	H97	H	0.597524	0.878717	0.584756
	H98	H	0.590302	0.120056	0.390632
	H99	H	0.395661	0.880387	0.394729
	H100	H	0.588416	0.410407	0.110371
	H101	H	0.593349	0.585548	0.878496
	H102	H	0.401792	0.588305	0.109732
	H103	H	0.395790	0.411711	0.878585
	H104	H	0.110188	0.594442	0.403988
	H105	H	0.876763	0.589537	0.590347
	H106	H	0.102324	0.419053	0.576256
	H107	H	0.878503	0.411137	0.400457
	H108	H	0.904429	0.615342	0.090622
	H109	H	0.087466	0.381220	0.091583
	H110	H	0.092614	0.617404	0.902493
	H111	H	0.897766	0.382327	0.905563
	H112	H	0.089606	0.910083	0.610770
	H113	H	0.085398	0.091382	0.378950
	H114	H	0.895274	0.090580	0.611843
	H115	H	0.902493	0.907268	0.378905
	H116	H	0.609773	0.089698	0.899522
	H117	H	0.375949	0.091919	0.088059
	H118	H	0.609449	0.906968	0.084354
	H119	H	0.379167	0.907895	0.904188
	C120	C	0.371216	0.007538	0.615578
	C121	C	0.614473	0.990094	0.615369
	C122	C	0.614690	0.007676	0.372423
	C123	C	0.370783	0.990854	0.372136
	C124	C	0.615524	0.377704	0.002823
	C125	C	0.616247	0.620865	0.986284
	C126	C	0.372534	0.619997	0.002754
	C127	C	0.371912	0.376849	0.986157
	C128	C	0.001843	0.620267	0.373319
	C129	C	0.984877	0.620934	0.616751
	C130	C	0.001668	0.377695	0.616035
	C131	C	0.985635	0.377234	0.372654
	C132	C	0.872897	0.507028	0.116034
	C133	C	0.116045	0.490379	0.116644
	C134	C	0.115153	0.507177	0.873588
	C135	C	0.872268	0.490557	0.873270
	C136	C	0.114389	0.878059	0.502832
	C137	C	0.115011	0.121202	0.486478
	C138	C	0.871695	0.120215	0.503041
	C139	C	0.871188	0.876934	0.485781
	C140	C	0.502355	0.121030	0.871787
	C141	C	0.485471	0.120265	0.115606
	C142	C	0.502664	0.877006	0.116344
	C143	C	0.485875	0.877447	0.872451
	C144	C	0.373359	0.884215	0.670753
	C145	C	0.612519	0.113536	0.669772
	C146	C	0.611292	0.884076	0.317369
	C147	C	0.374417	0.114337	0.317403
	C148	C	0.670315	0.380458	0.879684
	C149	C	0.671358	0.618471	0.109559
	C150	C	0.316103	0.618372	0.880372
	C151	C	0.317032	0.378444	0.108745
	C152	C	0.878924	0.675347	0.375136
	C153	C	0.107570	0.676696	0.614473
	C154	C	0.878914	0.321687	0.613711
	C155	C	0.109019	0.322633	0.376194
	C156	C	0.878995	0.378410	0.671643
	C157	C	0.107527	0.619091	0.672283
	C158	C	0.879155	0.618027	0.317396
	C159	C	0.109058	0.380148	0.318272
	C160	C	0.374739	0.675162	0.879823
	C161	C	0.613378	0.675600	0.109483
	C162	C	0.612673	0.322776	0.879664
	C163	C	0.374390	0.320845	0.108554
	C164	C	0.669351	0.884192	0.374424
	C165	C	0.669840	0.113397	0.612283
	C166	C	0.315986	0.883967	0.612843
	C167	C	0.317134	0.114603	0.375525
	C168	C	0.875333	0.383395	0.170541
	C169	C	0.113853	0.613857	0.171429
	C170	C	0.112699	0.384330	0.817956
	C171	C	0.874187	0.613770	0.817628
	C172	C	0.168977	0.880219	0.379824
	C173	C	0.170451	0.119227	0.609605
	C174	C	0.817589	0.117471	0.379419
	C175	C	0.816212	0.879175	0.608630
	C176	C	0.379396	0.175741	0.874548
	C177	C	0.608986	0.175114	0.112798
	C178	C	0.379609	0.821481	0.113035
	C179	C	0.608822	0.822816	0.874678
	C180	C	0.379464	0.878604	0.171004
	C181	C	0.608423	0.118410	0.171251
	C182	C	0.379411	0.118568	0.816399
	C183	C	0.608813	0.880716	0.817071
	C184	C	0.874815	0.175464	0.379998
	C185	C	0.112010	0.175938	0.609878
	C186	C	0.111731	0.822368	0.380002
	C187	C	0.874091	0.821945	0.608801
	C188	C	0.170488	0.384205	0.875262
	C189	C	0.171262	0.613788	0.114073
	C190	C	0.817580	0.383680	0.112855
	C191	C	0.817337	0.613934	0.875706
	C192	C	0.393811	0.093419	0.593302
	C193	C	0.592121	0.903900	0.593455
	C194	C	0.592793	0.093353	0.394598
	C195	C	0.392473	0.905045	0.394167
	C196	C	0.593760	0.399313	0.088875
	C197	C	0.594325	0.598857	0.900426
	C198	C	0.395230	0.597825	0.088594
	C199	C	0.393915	0.399554	0.900231
	C200	C	0.087560	0.598250	0.395711
	C201	C	0.899002	0.598287	0.594231
	C202	C	0.087457	0.400613	0.593645
	C203	C	0.899631	0.399343	0.394232
	C204	C	0.895065	0.593364	0.094374
	C205	C	0.093540	0.404503	0.094617
	C206	C	0.092831	0.593051	0.896186
	C207	C	0.894090	0.404600	0.895530
	C208	C	0.092292	0.900307	0.588672
	C209	C	0.092982	0.098927	0.400539
	C210	C	0.893419	0.098087	0.588902
	C211	C	0.893445	0.899124	0.399710
	C212	C	0.588493	0.099122	0.893673
	C213	C	0.400046	0.097425	0.092979
	C214	C	0.588648	0.899759	0.094948
	C215	C	0.399958	0.899026	0.894561
	Zn216	Zn	0.493552	-0.000981	0.743470
	Zn217	Zn	0.493127	-0.000987	0.244012
	Zn218	Zn	0.744075	0.499162	-0.005501
	Zn219	Zn	0.243783	0.498627	-0.005069
	Zn220	Zn	-0.007068	0.748993	0.494412
	Zn221	Zn	-0.006629	0.249138	0.495109
	Zn222	Zn	-0.006949	0.498748	0.744853
	Zn223	Zn	-0.005551	0.499034	0.244496
	Zn224	Zn	0.494860	0.748800	-0.005695
	Zn225	Zn	0.494003	0.248836	-0.005452
	Zn226	Zn	0.742821	-0.001319	0.493899
	Zn227	Zn	0.242755	-0.000689	0.494479
	N228	N	0.407048	0.962033	0.672522
	N229	N	0.578756	0.035895	0.671645
	N230	N	0.577914	0.961684	0.316020
	N231	N	0.406967	0.036465	0.315063
	N232	N	0.672082	0.413877	0.957270
	N233	N	0.673175	0.585022	0.031982
	N234	N	0.314844	0.584843	0.957830
	N235	N	0.315603	0.412754	0.031510
	N236	N	0.956113	0.676730	0.409419
	N237	N	0.030130	0.677837	0.580659
	N238	N	0.956061	0.321362	0.579757
	N239	N	0.031229	0.320655	0.409359
	N240	N	0.956591	0.412529	0.673313
	N241	N	0.030147	0.585172	0.673752
	N242	N	0.956631	0.584553	0.316148
	N243	N	0.031428	0.413126	0.315827
	N244	N	0.409208	0.676208	0.957008
	N245	N	0.580061	0.677249	0.031912
	N246	N	0.579151	0.321042	0.957191
	N247	N	0.407846	0.319622	0.031181
	N248	N	0.671600	0.961929	0.407772
	N249	N	0.671255	0.035514	0.579280
	N250	N	0.314569	0.961690	0.579378
	N251	N	0.314556	0.036810	0.408718
	N252	N	0.909081	0.461096	0.172479
	N253	N	0.080339	0.535989	0.173164
	N254	N	0.078988	0.461801	0.816763
	N255	N	0.907570	0.536147	0.815988
	N256	N	0.170796	0.913949	0.457219
	N257	N	0.172340	0.085764	0.531858
	N258	N	0.815664	0.083623	0.456805
	N259	N	0.814527	0.912819	0.531109
	N260	N	0.456943	0.177320	0.908336
	N261	N	0.531703	0.176015	0.078763
	N262	N	0.457187	0.820442	0.079900
	N263	N	0.531412	0.820607	0.908415
	N264	N	0.456960	0.912683	0.173052
	N265	N	0.530630	0.085103	0.173249
	N266	N	0.456791	0.085142	0.814735
	N267	N	0.531244	0.914096	0.815704
	N268	N	0.907533	0.177526	0.457821
	N269	N	0.078531	0.177407	0.532402
	N270	N	0.078623	0.820887	0.457608
	N271	N	0.907365	0.820260	0.531285
	N272	N	0.172128	0.461672	0.909187
	N273	N	0.172922	0.536099	0.080886
	N274	N	0.816096	0.461531	0.079669
	N275	N	0.816124	0.536519	0.909669
	O276	O	0.502594	0.508060	0.475396
	H277	H	0.497223	0.509204	0.473723
	H278	H	0.500668	0.509070	0.474994
	O279	O	0.530532	0.495821	0.550953
	H280	H	0.528987	0.490761	0.553539
	H281	H	0.530338	0.507032	0.557840
	O282	O	0.525631	0.555183	0.456158
	H283	H	0.520912	0.556593	0.444904
	H284	H	0.526295	0.560774	0.457149
	O285	O	0.053634	0.953895	1.037735
	H286	H	0.049444	0.952680	1.055494
	H287	H	0.050645	0.953162	1.034726
	O288	O	0.447158	0.508405	0.525747
	H289	H	0.441542	0.506808	0.528761
	H290	H	0.436245	0.505268	0.522724
	O291	O	0.012420	0.002186	1.024265
	H292	H	0.019242	-0.005965	1.034302
	H293	H	0.007805	0.010619	1.028107
	O294	O	0.447190	0.498523	0.480116
	H295	H	0.450126	0.501716	0.484557
	H296	H	0.448405	0.498686	0.477591
	O297	O	0.465011	0.558039	0.426320
	H298	H	0.462879	0.560489	0.423765
	H299	H	0.463513	0.562802	0.430612
	O300	O	1.022690	1.009207	1.028825
	H301	H	1.022131	1.011647	1.032679
	H302	H	1.017437	1.009671	1.031609
	O303	O	0.421305	0.491749	0.489861
	H304	H	0.426520	0.490025	0.485997
	H305	H	0.424797	0.492086	0.496623
	O306	O	1.021833	-0.000891	0.995602
	H307	H	1.026728	-0.010517	0.986243
	H308	H	1.024147	-0.005949	0.997451
	O309	O	0.438359	0.528471	0.436734
	H310	H	0.443055	0.531269	0.442645
	H311	H	0.439406	0.524666	0.443239
	O312	O	0.530657	0.520814	0.522394
	H313	H	0.531760	0.511607	0.522841
	H314	H	0.534422	0.518150	0.518863
	O315	O	1.045099	-0.027594	0.934435
	H316	H	1.055884	-0.027374	0.924702
	H317	H	1.048316	-0.028015	0.941669
	O318	O	0.055932	-0.044122	0.055265
	H319	H	0.049978	-0.049231	0.060284
	H320	H	0.059552	-0.037438	0.058267
	O321	O	0.510172	0.476961	0.504904
	H322	H	0.519274	0.472555	0.496864
	H323	H	0.511516	0.477690	0.513862
	O324	O	1.037831	0.007243	0.015930
	H325	H	1.040839	0.003313	0.017328
	H326	H	1.045815	0.008849	0.014605
	O327	O	0.992433	0.991192	0.039192
	H328	H	0.989255	0.991055	0.038690
	H329	H	0.990215	0.987622	0.034312
	O330	O	0.488109	0.511500	0.551787
	H331	H	0.486977	0.510038	0.551156
	H332	H	0.485869	0.496112	0.549435
	O333	O	0.480788	0.490224	0.549570
	H334	H	0.481899	0.488525	0.564585
	H335	H	0.475949	0.498659	0.546115
