data_Molecule from HDF5

_cell_length_a		16.306700
_cell_length_b		16.169627
_cell_length_c		16.324283
_cell_angle_alpha	90.174519
_cell_angle_beta	89.619217
_cell_angle_gamma	89.824019
_symmetry_space_group_name_H-M	'P 1'
_symmetry_Int_Tables_number		1

loop_
	_symmetry_equiv_pos_as_xyz
	x,y,z

loop_
	_atom_site_label
	_atom_site_type_symbol
	_atom_site_fract_x
	_atom_site_fract_y
	_atom_site_fract_z
	H0	H	0.411219	0.821255	0.720994
	H1	H	0.607521	0.150831	0.721744
	H2	H	0.610081	0.823055	0.290968
	H3	H	0.412201	0.152086	0.295793
	H4	H	0.725220	0.385542	0.844253
	H5	H	0.722710	0.587275	0.170145
	H6	H	0.293828	0.586825	0.843490
	H7	H	0.291457	0.389238	0.169558
	H8	H	0.844492	0.699996	0.411894
	H9	H	0.172691	0.700635	0.604074
	H10	H	0.844644	0.273658	0.604360
	H11	H	0.172975	0.272349	0.407832
	H12	H	0.844870	0.388635	0.721608
	H13	H	0.172186	0.586001	0.721888
	H14	H	0.845516	0.587405	0.291530
	H15	H	0.171616	0.384870	0.288532
	H16	H	0.411359	0.700585	0.842471
	H17	H	0.604136	0.700670	0.169998
	H18	H	0.607331	0.271966	0.843515
	H19	H	0.411210	0.276231	0.171458
	H20	H	0.724161	0.822095	0.406774
	H21	H	0.721350	0.151772	0.604315
	H22	H	0.294480	0.821695	0.606242
	H23	H	0.295584	0.151108	0.409415
	H24	H	0.909314	0.322460	0.221566
	H25	H	0.108053	0.650007	0.222641
	H26	H	0.109147	0.322386	0.791107
	H27	H	0.909535	0.650509	0.793478
	H28	H	0.227065	0.886197	0.343468
	H29	H	0.224220	0.087189	0.669644
	H30	H	0.794258	0.087303	0.343806
	H31	H	0.790779	0.886359	0.668479
	H32	H	0.344620	0.200117	0.912129
	H33	H	0.672331	0.200669	0.104244
	H34	H	0.344392	0.774593	0.105480
	H35	H	0.672477	0.771752	0.907331
	H36	H	0.346746	0.888578	0.224677
	H37	H	0.672552	0.086702	0.220832
	H38	H	0.346391	0.088926	0.791222
	H39	H	0.671676	0.885273	0.790320
	H40	H	0.913067	0.199596	0.342601
	H41	H	0.105573	0.201616	0.670480
	H42	H	0.108255	0.771642	0.342470
	H43	H	0.910436	0.774805	0.670419
	H44	H	0.225013	0.322861	0.905923
	H45	H	0.219329	0.652343	0.103693
	H46	H	0.794424	0.322484	0.105757
	H47	H	0.794377	0.650649	0.908603
	H48	H	0.412404	0.103717	0.596871
	H49	H	0.606054	0.868167	0.598582
	H50	H	0.603606	0.108190	0.402980
	H51	H	0.417818	0.870036	0.415471
	H52	H	0.596942	0.382542	0.125774
	H53	H	0.603152	0.575613	0.891134
	H54	H	0.415405	0.587355	0.124590
	H55	H	0.416024	0.396476	0.891847
	H56	H	0.125991	0.578508	0.407685
	H57	H	0.890502	0.577623	0.611748
	H58	H	0.125677	0.385397	0.594043
	H59	H	0.894634	0.397390	0.416160
	H60	H	0.121778	0.402795	0.595995
	H61	H	0.890398	0.589994	0.598434
	H62	H	0.125242	0.582571	0.416273
	H63	H	0.891145	0.394696	0.408316
	H64	H	0.406217	0.579398	0.124396
	H65	H	0.600567	0.578556	0.891384
	H66	H	0.615187	0.396196	0.126511
	H67	H	0.418236	0.391934	0.890866
	H68	H	0.593782	0.100355	0.418523
	H69	H	0.599177	0.869132	0.601838
	H70	H	0.415292	0.104806	0.605394
	H71	H	0.418383	0.868724	0.414338
	H72	H	0.909559	0.603843	0.092664
	H73	H	0.107759	0.367139	0.099945
	H74	H	0.103036	0.600933	0.928360
	H75	H	0.911435	0.365389	0.907649
	H76	H	0.103606	0.893669	0.622596
	H77	H	0.109252	0.081575	0.388063
	H78	H	0.908648	0.072844	0.622052
	H79	H	0.920931	0.892146	0.390788
	H80	H	0.619705	0.077994	0.928476
	H81	H	0.391429	0.084907	0.101443
	H82	H	0.626242	0.894079	0.103330
	H83	H	0.389190	0.887985	0.911292
	H84	H	0.625042	0.890047	0.095965
	H85	H	0.393884	0.076772	0.100742
	H86	H	0.623370	0.065138	0.904416
	H87	H	0.395359	0.895372	0.921299
	H88	H	0.922891	0.077545	0.619491
	H89	H	0.104738	0.072022	0.393091
	H90	H	0.102608	0.895324	0.621747
	H91	H	0.913618	0.890221	0.388515
	H92	H	0.112616	0.610336	0.905860
	H93	H	0.092919	0.370655	0.102266
	H94	H	0.911788	0.607615	0.108126
	H95	H	0.926356	0.370787	0.910934
	H96	H	0.421095	0.101365	0.599063
	H97	H	0.599659	0.871247	0.595002
	H98	H	0.612268	0.105840	0.420397
	H99	H	0.419271	0.870276	0.415018
	H100	H	0.596164	0.404315	0.118289
	H101	H	0.604993	0.578812	0.890154
	H102	H	0.416740	0.576544	0.120342
	H103	H	0.414540	0.392761	0.889572
	H104	H	0.122531	0.572566	0.415306
	H105	H	0.897056	0.573259	0.595522
	H106	H	0.127839	0.392862	0.609070
	H107	H	0.892071	0.388482	0.415188
	H108	H	0.923837	0.601094	0.098958
	H109	H	0.099299	0.371796	0.088180
	H110	H	0.087370	0.602361	0.906773
	H111	H	0.914780	0.370706	0.922772
	H112	H	0.101488	0.893674	0.622329
	H113	H	0.098111	0.080962	0.391795
	H114	H	0.912609	0.087868	0.625391
	H115	H	0.915868	0.897803	0.391644
	H116	H	0.630964	0.092380	0.906893
	H117	H	0.391063	0.080202	0.107650
	H118	H	0.623348	0.898762	0.096550
	H119	H	0.393646	0.900282	0.908262
	C120	C	0.387454	-0.005371	0.629134
	C121	C	0.629822	0.978333	0.627296
	C122	C	0.632105	-0.004106	0.384683
	C123	C	0.389682	0.978551	0.386830
	C124	C	0.631572	0.364372	0.015577
	C125	C	0.630306	0.607473	0.998549
	C126	C	0.385789	0.609300	0.015057
	C127	C	0.386748	0.365859	0.998773
	C128	C	0.016802	0.607595	0.385201
	C129	C	1.000574	0.609102	0.629767
	C130	C	0.016826	0.365356	0.628118
	C131	C	1.000510	0.364536	0.383855
	C132	C	0.886713	0.495452	0.128546
	C133	C	0.128983	0.478080	0.126704
	C134	C	0.130507	0.495633	0.884474
	C135	C	0.887964	0.477859	0.885816
	C136	C	0.131783	0.864421	0.514683
	C137	C	0.131467	0.107936	0.498939
	C138	C	0.887253	0.108309	0.514470
	C139	C	0.887476	0.865233	0.498140
	C140	C	0.516915	0.107923	0.885542
	C141	C	0.500349	0.108993	0.130197
	C142	C	0.517266	0.865431	0.128515
	C143	C	0.500750	0.865079	0.884911
	C144	C	0.390135	0.870622	0.683621
	C145	C	0.627441	0.101955	0.683175
	C146	C	0.630436	0.872174	0.328693
	C147	C	0.391835	0.102672	0.332757
	C148	C	0.687059	0.365729	0.892880
	C149	C	0.684713	0.606393	0.121260
	C150	C	0.331696	0.607069	0.892004
	C151	C	0.330357	0.368876	0.121222
	C152	C	0.893311	0.662331	0.390154
	C153	C	0.123604	0.663687	0.625855
	C154	C	0.893622	0.311064	0.625114
	C155	C	0.123813	0.309620	0.386997
	C156	C	0.893853	0.367666	0.683666
	C157	C	0.123432	0.606523	0.684135
	C158	C	0.893954	0.606657	0.330161
	C159	C	0.123174	0.365663	0.327570
	C160	C	0.389669	0.663951	0.891649
	C161	C	0.625668	0.663067	0.121355
	C162	C	0.628473	0.309022	0.892666
	C163	C	0.389876	0.312702	0.122128
	C164	C	0.687048	0.871710	0.386273
	C165	C	0.684012	0.102409	0.624739
	C166	C	0.332372	0.870800	0.626610
	C167	C	0.334071	0.102216	0.389255
	C168	C	0.889382	0.371592	0.183350
	C169	C	0.127598	0.601475	0.183836
	C170	C	0.129515	0.371644	0.828698
	C171	C	0.889343	0.601547	0.831144
	C172	C	0.188054	0.866180	0.391834
	C173	C	0.185893	0.106580	0.621213
	C174	C	0.832657	0.106610	0.391977
	C175	C	0.830445	0.867250	0.620468
	C176	C	0.393835	0.163315	0.889863
	C177	C	0.623466	0.163394	0.125748
	C178	C	0.393678	0.811662	0.126173
	C179	C	0.623448	0.809148	0.886910
	C180	C	0.394844	0.868294	0.185415
	C181	C	0.623500	0.106826	0.183637
	C182	C	0.394838	0.107982	0.829736
	C183	C	0.623131	0.866011	0.828824
	C184	C	0.891368	0.162963	0.391668
	C185	C	0.127226	0.163822	0.621515
	C186	C	0.129207	0.809240	0.391519
	C187	C	0.889767	0.811583	0.621228
	C188	C	0.187037	0.371959	0.885817
	C189	C	0.182936	0.602540	0.124703
	C190	C	0.832009	0.371405	0.126154
	C191	C	0.832121	0.601464	0.888396
	C192	C	0.409615	0.080923	0.607015
	C193	C	0.607966	0.891953	0.605026
	C194	C	0.609864	0.082515	0.407305
	C195	C	0.412079	0.891877	0.408600
	C196	C	0.609187	0.387468	0.101255
	C197	C	0.609411	0.584305	0.913062
	C198	C	0.406636	0.587478	0.100664
	C199	C	0.409545	0.387417	0.913045
	C200	C	0.102336	0.584766	0.406643
	C201	C	0.914814	0.586829	0.608292
	C202	C	0.102858	0.387363	0.606169
	C203	C	0.914755	0.387051	0.406399
	C204	C	0.908613	0.581851	0.106448
	C205	C	0.106702	0.392183	0.103503
	C206	C	0.107586	0.581911	0.906872
	C207	C	0.910832	0.391345	0.907328
	C208	C	0.109165	0.887496	0.600055
	C209	C	0.110259	0.084908	0.413060
	C210	C	0.908456	0.086032	0.600069
	C211	C	0.909988	0.887041	0.412501
	C212	C	0.602567	0.085063	0.906974
	C213	C	0.414362	0.087202	0.109390
	C214	C	0.602757	0.887647	0.105520
	C215	C	0.414894	0.887817	0.907153
	Zn216	Zn	0.508768	-0.013786	0.756513
	Zn217	Zn	0.510117	-0.012525	0.258179
	Zn218	Zn	0.759760	0.486420	0.006782
	Zn219	Zn	0.257556	0.487564	0.006443
	Zn220	Zn	0.009054	0.736613	0.506779
	Zn221	Zn	0.009011	0.236883	0.506602
	Zn222	Zn	0.008910	0.486708	0.757831
	Zn223	Zn	0.008622	0.486437	0.255619
	Zn224	Zn	0.508207	0.736897	0.006233
	Zn225	Zn	0.508481	0.236514	0.007844
	Zn226	Zn	0.758612	-0.013337	0.505918
	Zn227	Zn	0.260908	-0.013916	0.506723
	N228	N	0.423435	0.948739	0.685405
	N229	N	0.594589	0.023828	0.684868
	N230	N	0.596945	0.950420	0.327576
	N231	N	0.425794	0.024587	0.331165
	N232	N	0.689188	0.399289	0.970356
	N233	N	0.687489	0.572444	0.043861
	N234	N	0.328763	0.574131	0.969474
	N235	N	0.328338	0.401243	0.043479
	N236	N	0.970635	0.663220	0.423409
	N237	N	0.046311	0.665358	0.592851
	N238	N	0.971200	0.309512	0.591364
	N239	N	0.046583	0.308982	0.421472
	N240	N	0.971485	0.400827	0.685667
	N241	N	0.045844	0.573304	0.686771
	N242	N	0.971699	0.573156	0.327135
	N243	N	0.045536	0.399046	0.325525
	N244	N	0.422691	0.665584	0.969141
	N245	N	0.592611	0.663921	0.044106
	N246	N	0.594671	0.307900	0.970041
	N247	N	0.424232	0.310675	0.045019
	N248	N	0.688358	0.949680	0.420084
	N249	N	0.685582	0.024563	0.590545
	N250	N	0.330406	0.948947	0.593595
	N251	N	0.332672	0.024018	0.422226
	N252	N	0.922503	0.449585	0.185085
	N253	N	0.094506	0.523297	0.184929
	N254	N	0.095053	0.449499	0.827816
	N255	N	0.923451	0.523609	0.829269
	N256	N	0.189984	0.899749	0.469448
	N257	N	0.188464	0.072560	0.543947
	N258	N	0.829933	0.073173	0.469274
	N259	N	0.829001	0.900230	0.542856
	N260	N	0.470706	0.163470	0.923944
	N261	N	0.545859	0.164973	0.093147
	N262	N	0.470804	0.809699	0.091460
	N263	N	0.546116	0.808497	0.921218
	N264	N	0.472617	0.901026	0.187005
	N265	N	0.545935	0.073597	0.186546
	N266	N	0.472333	0.074256	0.826945
	N267	N	0.545862	0.900075	0.827506
	N268	N	0.924827	0.163881	0.468760
	N269	N	0.093959	0.164598	0.544250
	N270	N	0.094962	0.808168	0.468743
	N271	N	0.924579	0.810317	0.544297
	N272	N	0.187708	0.450025	0.919792
	N273	N	0.183813	0.525107	0.089751
	N274	N	0.830269	0.449423	0.092689
	N275	N	0.831254	0.523454	0.921614
	O276	O	0.118999	-0.027812	0.033121
	H277	H	0.115658	-0.016151	0.027808
	H278	H	0.126981	-0.012297	0.027212
	O279	O	0.469651	0.478203	0.486699
	H280	H	0.470623	0.469779	0.487132
	H281	H	0.469946	0.471175	0.494376
	O282	O	0.551480	0.501020	0.486045
	H283	H	0.549861	0.500868	0.480847
	H284	H	0.550063	0.501836	0.491088
	O285	O	1.017908	-0.016927	1.083391
	H286	H	1.013540	-0.016925	1.087781
	H287	H	1.025457	-0.018340	1.085173
	O288	O	1.004829	-0.060472	0.139489
	H289	H	0.998140	-0.062400	0.134956
	H290	H	1.008110	-0.062976	0.136216
	O291	O	0.073737	0.848992	0.008771
	H292	H	0.076845	0.848302	-0.004591
	H293	H	0.084684	0.842688	0.014624
	O294	O	1.449210	0.471341	1.533580
	H295	H	1.448283	0.469808	1.535607
	H296	H	1.445216	0.471833	1.530167
	O297	O	-0.034234	-0.019181	-0.026625
	H298	H	-0.041316	-0.020271	-0.035840
	H299	H	-0.015340	-0.013436	-0.018301
	O300	O	0.074979	1.019589	0.050990
	H301	H	0.071223	1.021515	0.054124
	H302	H	0.076205	1.018878	0.046672
	O303	O	0.457219	0.486118	0.522696
	H304	H	0.454219	0.492009	0.517733
	H305	H	0.459127	0.487162	0.527993
	O306	O	0.992332	-0.028893	0.016959
	H307	H	0.998427	-0.023669	0.033300
	H308	H	1.005398	-0.033361	0.013742
	O309	O	-0.017609	0.116002	0.945350
	H310	H	-0.027810	0.109538	0.949372
	H311	H	-0.031480	0.121060	0.945576
	O312	O	0.940028	0.927378	0.973994
	H313	H	0.947109	0.929678	0.978077
	H314	H	0.947000	0.923194	0.972503
	O315	O	0.451459	0.415262	0.549144
	H316	H	0.454747	0.413940	0.547496
	H317	H	0.439442	0.415818	0.544256
	O318	O	0.509678	0.520207	0.472112
	H319	H	0.512189	0.516141	0.472119
	H320	H	0.510442	0.526535	0.464735
	O321	O	0.078110	1.005121	0.944038
	H322	H	0.077577	0.997850	0.944512
	H323	H	0.075260	1.006916	0.946632
	O324	O	0.522087	0.450634	0.459169
	H325	H	0.531377	0.462669	0.460100
	H326	H	0.520945	0.445685	0.449742
	O327	O	1.041373	0.998236	-0.043405
	H328	H	1.032978	1.005078	-0.043085
	H329	H	1.046997	0.995859	-0.044236
	O330	O	0.098574	0.974123	0.000056
	H331	H	0.088005	0.981558	-0.003807
	H332	H	0.087946	0.959633	-0.001239
	O333	O	-0.045178	1.007248	0.916667
	H334	H	-0.055943	1.015540	0.912327
	H335	H	-0.040451	1.012753	0.911128
	O336	O	0.505693	0.446646	0.475493
	H337	H	0.513173	0.449692	0.476829
	H338	H	0.502872	0.452100	0.477338
	O339	O	0.936264	0.916991	0.036779
	H340	H	0.952314	0.918554	0.029676
	H341	H	0.940574	0.913819	0.049899
	O342	O	0.966288	1.106685	-0.029326
	H343	H	0.975185	1.098417	-0.036406
	H344	H	0.956787	1.120922	-0.027383
	O345	O	0.478085	0.500107	0.480405
	H346	H	0.481391	0.495384	0.482920
	H347	H	0.480730	0.504358	0.472794
	O348	O	-0.090427	-0.056324	0.001290
	H349	H	-0.109806	-0.060308	-0.010692
	H350	H	-0.084548	-0.076551	0.007585
	O351	O	0.082714	0.891852	0.869348
	H352	H	0.080991	0.899236	0.872161
	H353	H	0.086156	0.897590	0.866806
	O354	O	0.465101	0.472163	0.558932
	H355	H	0.464081	0.467511	0.563340
	H356	H	0.455641	0.475714	0.564608
	O357	O	-0.100678	0.982568	0.981699
	H358	H	-0.115319	0.985137	0.984785
	H359	H	-0.102836	0.974284	0.995689
