data_Molecule from HDF5

_cell_length_a		16.288850
_cell_length_b		16.400839
_cell_length_c		16.514970
_cell_angle_alpha	89.928139
_cell_angle_beta	90.265502
_cell_angle_gamma	90.030921
_symmetry_space_group_name_H-M	'P 1'
_symmetry_Int_Tables_number		1

loop_
	_symmetry_equiv_pos_as_xyz
	x,y,z

loop_
	_atom_site_label
	_atom_site_type_symbol
	_atom_site_fract_x
	_atom_site_fract_y
	_atom_site_fract_z
	H0	H	0.393777	0.834952	0.726564
	H1	H	0.609351	0.150634	0.726998
	H2	H	0.612514	0.837324	0.280024
	H3	H	0.393341	0.150004	0.279718
	H4	H	0.721744	0.386414	0.845360
	H5	H	0.722847	0.594269	0.162361
	H6	H	0.278003	0.597303	0.847465
	H7	H	0.281527	0.384873	0.163085
	H8	H	0.842289	0.712969	0.399323
	H9	H	0.161456	0.712696	0.610897
	H10	H	0.843017	0.270264	0.608390
	H11	H	0.162396	0.271205	0.400032
	H12	H	0.842223	0.384958	0.724276
	H13	H	0.158941	0.601990	0.730550
	H14	H	0.842409	0.596892	0.283079
	H15	H	0.161313	0.385384	0.283509
	H16	H	0.392644	0.715778	0.847692
	H17	H	0.612263	0.715988	0.160201
	H18	H	0.605613	0.270312	0.845570
	H19	H	0.394767	0.267200	0.161388
	H20	H	0.722150	0.834309	0.401149
	H21	H	0.722262	0.152956	0.608066
	H22	H	0.282682	0.832721	0.607343
	H23	H	0.280391	0.151211	0.398743
	H24	H	0.895976	0.332787	0.226262
	H25	H	0.110366	0.649261	0.228053
	H26	H	0.109221	0.334873	0.781128
	H27	H	0.890594	0.648260	0.779429
	H28	H	0.222998	0.886766	0.346257
	H29	H	0.222539	0.094453	0.662776
	H30	H	0.780261	0.098418	0.345973
	H31	H	0.780313	0.887014	0.662080
	H32	H	0.341380	0.212277	0.898670
	H33	H	0.662517	0.211668	0.107650
	H34	H	0.343839	0.769333	0.109835
	H35	H	0.662063	0.771655	0.898900
	H36	H	0.344838	0.883630	0.227335
	H37	H	0.660675	0.101053	0.227359
	H38	H	0.342383	0.099393	0.780290
	H39	H	0.661154	0.886047	0.781802
	H40	H	0.896069	0.214194	0.346402
	H41	H	0.108915	0.213122	0.662324
	H42	H	0.108468	0.769542	0.347341
	H43	H	0.894690	0.768770	0.661347
	H44	H	0.219965	0.331206	0.902593
	H45	H	0.225829	0.648271	0.112273
	H46	H	0.784274	0.330808	0.106052
	H47	H	0.779789	0.649688	0.899614
	H48	H	0.410599	0.105858	0.589671
	H49	H	0.591545	0.879081	0.593053
	H50	H	0.593573	0.106020	0.420819
	H51	H	0.418315	0.879483	0.411153
	H52	H	0.596526	0.401182	0.118315
	H53	H	0.585918	0.581623	0.891735
	H54	H	0.415747	0.583019	0.117564
	H55	H	0.419129	0.401378	0.894335
	H56	H	0.113604	0.580247	0.422335
	H57	H	0.893507	0.575819	0.581345
	H58	H	0.117044	0.403993	0.596610
	H59	H	0.886811	0.406565	0.408199
	H60	H	0.115849	0.402943	0.591390
	H61	H	0.886677	0.572442	0.601713
	H62	H	0.115371	0.575323	0.413850
	H63	H	0.886651	0.396331	0.416232
	H64	H	0.413137	0.578558	0.116265
	H65	H	0.592405	0.584895	0.890033
	H66	H	0.589798	0.404649	0.114669
	H67	H	0.407748	0.397000	0.889419
	H68	H	0.592110	0.109792	0.409426
	H69	H	0.589902	0.879234	0.595109
	H70	H	0.413911	0.107392	0.597315
	H71	H	0.415787	0.881720	0.418703
	H72	H	0.910078	0.605079	0.091951
	H73	H	0.095804	0.373656	0.100680
	H74	H	0.090737	0.604641	0.917058
	H75	H	0.909079	0.373732	0.906582
	H76	H	0.088585	0.902849	0.616363
	H77	H	0.089617	0.084682	0.390067
	H78	H	0.913685	0.080645	0.616903
	H79	H	0.917285	0.905408	0.394851
	H80	H	0.617009	0.077803	0.908664
	H81	H	0.387837	0.078834	0.092508
	H82	H	0.616198	0.902852	0.090307
	H83	H	0.388012	0.902440	0.915484
	H84	H	0.614678	0.908779	0.091626
	H85	H	0.387468	0.080143	0.092381
	H86	H	0.616808	0.086884	0.917330
	H87	H	0.388785	0.905358	0.915216
	H88	H	0.914819	0.081393	0.616516
	H89	H	0.093418	0.082087	0.390612
	H90	H	0.092994	0.899933	0.618562
	H91	H	0.913964	0.899682	0.390504
	H92	H	0.086645	0.603618	0.914720
	H93	H	0.082431	0.379478	0.097751
	H94	H	0.914001	0.606486	0.098099
	H95	H	0.922561	0.380211	0.913950
	H96	H	0.418972	0.104211	0.591261
	H97	H	0.589655	0.881476	0.592883
	H98	H	0.583233	0.104665	0.414927
	H99	H	0.410350	0.877672	0.413680
	H100	H	0.589409	0.396994	0.117499
	H101	H	0.592150	0.577325	0.891929
	H102	H	0.417871	0.579034	0.115750
	H103	H	0.409353	0.409652	0.892807
	H104	H	0.118098	0.585867	0.415264
	H105	H	0.883449	0.591867	0.592206
	H106	H	0.114795	0.407361	0.594181
	H107	H	0.891423	0.407756	0.420467
	H108	H	0.916920	0.603100	0.092069
	H109	H	0.092967	0.379227	0.087521
	H110	H	0.087043	0.603484	0.919752
	H111	H	0.908916	0.378719	0.922182
	H112	H	0.094111	0.905378	0.616528
	H113	H	0.089513	0.080337	0.392221
	H114	H	0.914369	0.082313	0.616480
	H115	H	0.910150	0.906539	0.392479
	H116	H	0.612135	0.075539	0.919776
	H117	H	0.389062	0.079463	0.091605
	H118	H	0.617652	0.905090	0.095716
	H119	H	0.387460	0.903845	0.912362
	C120	C	0.381503	0.000859	0.624771
	C121	C	0.623452	0.984509	0.626213
	C122	C	0.623187	0.002335	0.382938
	C123	C	0.380781	0.983980	0.381720
	C124	C	0.623381	0.368832	0.012327
	C125	C	0.623940	0.613357	0.995143
	C126	C	0.380722	0.613208	0.012912
	C127	C	0.380005	0.369626	0.996396
	C128	C	0.010303	0.613447	0.383432
	C129	C	0.992606	0.613633	0.626258
	C130	C	0.010372	0.371493	0.625439
	C131	C	0.993615	0.370771	0.383338
	C132	C	0.881474	0.499583	0.125450
	C133	C	0.123814	0.482235	0.127764
	C134	C	0.121604	0.499491	0.884529
	C135	C	0.879989	0.482329	0.881933
	C136	C	0.124257	0.870095	0.512952
	C137	C	0.124095	0.114269	0.495439
	C138	C	0.880900	0.113989	0.512561
	C139	C	0.880763	0.871077	0.496382
	C140	C	0.509737	0.113179	0.882380
	C141	C	0.493196	0.113197	0.125213
	C142	C	0.511471	0.871560	0.125401
	C143	C	0.493443	0.871172	0.882397
	C144	C	0.377231	0.881855	0.685658
	C145	C	0.626827	0.103459	0.686565
	C146	C	0.628524	0.884063	0.321511
	C147	C	0.376506	0.102861	0.320670
	C148	C	0.682244	0.367452	0.893009
	C149	C	0.684000	0.614236	0.114452
	C150	C	0.318487	0.615936	0.894747
	C151	C	0.320879	0.367103	0.115504
	C152	C	0.890073	0.673096	0.381127
	C153	C	0.112915	0.673525	0.629300
	C154	C	0.890617	0.310404	0.626974
	C155	C	0.114158	0.310833	0.381598
	C156	C	0.890402	0.367593	0.684906
	C157	C	0.111642	0.618336	0.689114
	C158	C	0.890234	0.615522	0.323263
	C159	C	0.113749	0.367885	0.323611
	C160	C	0.375804	0.674940	0.894842
	C161	C	0.628827	0.674782	0.113248
	C162	C	0.624216	0.309647	0.893254
	C163	C	0.377351	0.308327	0.114603
	C164	C	0.683386	0.882647	0.381528
	C165	C	0.683782	0.104241	0.627807
	C166	C	0.321813	0.880914	0.626215
	C167	C	0.319913	0.103228	0.379763
	C168	C	0.878479	0.380082	0.185702
	C169	C	0.127825	0.601327	0.188147
	C170	C	0.126015	0.381398	0.822673
	C171	C	0.874337	0.600926	0.820544
	C172	C	0.183756	0.868132	0.394057
	C173	C	0.184062	0.114751	0.614648
	C174	C	0.820246	0.116465	0.393611
	C175	C	0.820166	0.868417	0.614818
	C176	C	0.389672	0.173242	0.879746
	C177	C	0.613887	0.172984	0.127053
	C178	C	0.391793	0.809828	0.128060
	C179	C	0.614012	0.811183	0.880462
	C180	C	0.392233	0.866858	0.186568
	C181	C	0.612972	0.117749	0.186580
	C182	C	0.390278	0.117090	0.820818
	C183	C	0.613398	0.868388	0.822198
	C184	C	0.878170	0.174097	0.393671
	C185	C	0.127280	0.173669	0.614476
	C186	C	0.126644	0.809612	0.394525
	C187	C	0.877816	0.809856	0.614557
	C188	C	0.181238	0.379637	0.883056
	C189	C	0.185380	0.601014	0.130388
	C190	C	0.822722	0.379133	0.125956
	C191	C	0.818854	0.601683	0.880118
	C192	C	0.407290	0.084070	0.600038
	C193	C	0.597669	0.901490	0.600941
	C194	C	0.597216	0.085272	0.407844
	C195	C	0.407063	0.901253	0.407234
	C196	C	0.598939	0.393770	0.095125
	C197	C	0.597771	0.588374	0.912795
	C198	C	0.407697	0.587761	0.095056
	C199	C	0.404925	0.395190	0.913940
	C200	C	0.093742	0.587966	0.409556
	C201	C	0.909676	0.587562	0.599690
	C202	C	0.094140	0.397478	0.601075
	C203	C	0.910219	0.396201	0.407997
	C204	C	0.906475	0.583086	0.101091
	C205	C	0.097838	0.399074	0.102674
	C206	C	0.095580	0.582369	0.909882
	C207	C	0.906056	0.399326	0.907051
	C208	C	0.099177	0.895415	0.595321
	C209	C	0.098188	0.089586	0.412571
	C210	C	0.906886	0.088940	0.595192
	C211	C	0.906388	0.896679	0.414190
	C212	C	0.593495	0.087365	0.908023
	C213	C	0.409753	0.086923	0.099454
	C214	C	0.594507	0.897960	0.099757
	C215	C	0.409858	0.896543	0.907315
	Zn216	Zn	0.501200	-0.007680	0.754383
	Zn217	Zn	0.502590	-0.006837	0.253797
	Zn218	Zn	0.752528	0.490439	0.004018
	Zn219	Zn	0.251402	0.490952	0.005562
	Zn220	Zn	0.002228	0.741567	0.504628
	Zn221	Zn	0.002370	0.242818	0.504407
	Zn222	Zn	0.001032	0.491987	0.754034
	Zn223	Zn	0.001773	0.491799	0.255094
	Zn224	Zn	0.502652	0.742777	0.003873
	Zn225	Zn	0.500830	0.240533	0.003987
	Zn226	Zn	0.751584	-0.006659	0.504370
	Zn227	Zn	0.252781	-0.008177	0.504276
	N228	N	0.413542	0.957528	0.685156
	N229	N	0.590178	0.027958	0.685816
	N230	N	0.591679	0.959587	0.322314
	N231	N	0.413364	0.027502	0.321581
	N232	N	0.681969	0.403494	0.967916
	N233	N	0.681189	0.576732	0.040037
	N234	N	0.321395	0.578332	0.969086
	N235	N	0.322531	0.404557	0.040964
	N236	N	0.965995	0.671928	0.417869
	N237	N	0.037990	0.670897	0.591017
	N238	N	0.966520	0.312334	0.591039
	N239	N	0.038669	0.312569	0.418186
	N240	N	0.966071	0.404897	0.683945
	N241	N	0.035552	0.581857	0.687487
	N242	N	0.966065	0.579310	0.324673
	N243	N	0.038023	0.404865	0.324778
	N244	N	0.413805	0.673435	0.969375
	N245	N	0.592353	0.674611	0.038085
	N246	N	0.588633	0.310213	0.968649
	N247	N	0.413411	0.309683	0.039590
	N248	N	0.680332	0.957236	0.418989
	N249	N	0.681724	0.029157	0.590890
	N250	N	0.324501	0.955914	0.588946
	N251	N	0.322417	0.028292	0.417051
	N252	N	0.914451	0.455974	0.185552
	N253	N	0.090257	0.526312	0.186550
	N254	N	0.090051	0.457281	0.823015
	N255	N	0.911530	0.525808	0.821625
	N256	N	0.182530	0.905040	0.468675
	N257	N	0.182448	0.078762	0.539569
	N258	N	0.821813	0.079924	0.468553
	N259	N	0.821827	0.905864	0.540353
	N260	N	0.465164	0.170793	0.917307
	N261	N	0.538480	0.170181	0.089446
	N262	N	0.467000	0.812579	0.090746
	N263	N	0.538470	0.812889	0.917196
	N264	N	0.467756	0.904195	0.185159
	N265	N	0.536808	0.081318	0.185520
	N266	N	0.466148	0.080664	0.822283
	N267	N	0.537309	0.904774	0.823244
	N268	N	0.915221	0.172729	0.468695
	N269	N	0.091026	0.173615	0.539211
	N270	N	0.090528	0.810554	0.469489
	N271	N	0.914524	0.811299	0.539818
	N272	N	0.178679	0.454214	0.920841
	N273	N	0.182758	0.526064	0.093472
	N274	N	0.824437	0.454240	0.089106
	N275	N	0.822076	0.526850	0.917613
	O276	O	0.416427	0.346980	0.685242
	H277	H	0.417848	0.346536	0.682241
	H278	H	0.421881	0.319302	0.696218
	O279	O	0.295214	0.556793	0.490906
	H280	H	0.281569	0.539889	0.502932
	H281	H	0.284619	0.575948	0.482299
	O282	O	0.488067	0.448991	0.504332
	H283	H	0.491712	0.444454	0.513543
	H284	H	0.489487	0.455158	0.502064
	O285	O	0.805961	0.950820	-0.053877
	H286	H	0.804427	0.974431	-0.049831
	H287	H	0.814273	0.964102	-0.064019
	O288	O	0.510301	0.382272	0.698365
	H289	H	0.499097	0.375106	0.702823
	H290	H	0.504125	0.393527	0.699774
	O291	O	0.309513	0.566058	0.308466
	H292	H	0.298114	0.559076	0.311442
	H293	H	0.306207	0.536431	0.312110
	O294	O	0.810869	1.194361	0.976884
	H295	H	0.807604	1.173924	0.981866
	H296	H	0.802821	1.200656	0.979880
	O297	O	0.491099	0.385184	0.312999
	H298	H	0.506659	0.371273	0.314471
	H299	H	0.488481	0.376599	0.318683
	O300	O	0.684904	0.668466	0.683860
	H301	H	0.685220	0.637573	0.695823
	H302	H	0.692929	0.676688	0.647704
	O303	O	0.690463	0.586430	0.509295
	H304	H	0.691699	0.603580	0.513445
	H305	H	0.682376	0.601811	0.498804
	O306	O	-0.185662	0.167809	0.823400
	H307	H	-0.195392	0.166302	0.850781
	H308	H	-0.177377	0.164453	0.815990
	O309	O	1.027867	0.097816	-0.014723
	H310	H	1.015090	0.100333	-0.010011
	H311	H	1.035404	0.088244	-0.020273
	O312	O	0.651183	0.392100	0.318643
	H313	H	0.649586	0.403601	0.317447
	H314	H	0.632686	0.394078	0.329380
	O315	O	0.527022	0.672415	0.511567
	H316	H	0.511365	0.674430	0.479018
	H317	H	0.505026	0.677493	0.527930
	O318	O	0.014010	0.062874	-0.007700
	H319	H	0.008802	0.056898	-0.018721
	H320	H	0.005035	0.046156	-0.025733
	O321	O	0.568863	0.330515	0.540329
	H322	H	0.569376	0.357614	0.544023
	H323	H	0.589832	0.329102	0.529187
	O324	O	0.628247	0.547526	0.486030
	H325	H	0.624345	0.562092	0.490513
	H326	H	0.612421	0.551661	0.475611
	O327	O	0.331596	0.536701	0.566991
	H328	H	0.329263	0.526597	0.573963
	H329	H	0.338920	0.531904	0.571410
	O330	O	-0.089644	1.023916	1.097813
	H331	H	-0.098745	1.016197	1.117525
	H332	H	-0.089519	1.000156	1.088808
	O333	O	0.142499	1.061600	0.065657
	H334	H	0.136848	1.068894	0.060987
	H335	H	0.143029	1.063001	0.068940
	O336	O	1.146115	1.164522	0.178439
	H337	H	1.137367	1.171391	0.145836
	H338	H	1.109523	1.173643	0.179842
	O339	O	-0.004884	0.785285	0.842642
	H340	H	-0.007274	0.768352	0.851473
	H341	H	-0.028838	0.777293	0.858523
	O342	O	0.195579	0.981425	-0.136509
	H343	H	0.202549	0.988851	-0.140715
	H344	H	0.191406	0.967913	-0.126859
	O345	O	-0.002857	-0.086356	0.795234
	H346	H	-0.005772	-0.100572	0.814345
	H347	H	-0.017266	-0.087626	0.783817
	O348	O	0.692018	0.504242	0.701530
	H349	H	0.692948	0.497723	0.693210
	H350	H	0.696243	0.502203	0.716328
	O351	O	0.853622	1.023741	0.145800
	H352	H	0.868738	1.002667	0.158782
	H353	H	0.856220	1.016343	0.155494
	O354	O	0.799375	1.014105	0.798916
	H355	H	0.793149	1.029006	0.783695
	H356	H	0.798465	1.013695	0.796808
	O357	O	0.070788	-0.156946	0.108794
	H358	H	0.077349	-0.163934	0.101600
	H359	H	0.084760	-0.142803	0.122507
	O360	O	0.299928	0.285944	0.576214
	H361	H	0.306776	0.287973	0.600503
	H362	H	0.276988	0.257803	0.575815
	O363	O	0.903010	-0.029918	0.097752
	H364	H	0.906626	-0.024268	0.092370
	H365	H	0.922282	-0.059689	0.095115
	O366	O	-0.144759	-0.197853	1.161739
	H367	H	-0.145676	-0.200787	1.155807
	H368	H	-0.128973	-0.207369	1.177853
	O369	O	0.993311	0.178125	0.802093
	H370	H	0.984894	0.182099	0.797258
	H371	H	0.985284	0.174709	0.790134
	O372	O	0.698768	0.316011	0.459477
	H373	H	0.715918	0.306091	0.455277
	H374	H	0.690588	0.328283	0.440395
	O375	O	0.181508	-0.179409	0.822318
	H376	H	0.141747	-0.192236	0.822477
	H377	H	0.179056	-0.168594	0.832597
	O378	O	0.539743	0.539775	0.469352
	H379	H	0.531243	0.531328	0.459823
	H380	H	0.541819	0.553424	0.479454
	O381	O	-0.192565	0.835689	0.060845
	H382	H	-0.199785	0.848057	0.053603
	H383	H	-0.216716	0.819553	0.067491
	O384	O	0.515048	0.293714	0.458613
	H385	H	0.509610	0.285557	0.478668
	H386	H	0.516263	0.297483	0.465822
	O387	O	0.415861	0.513152	0.717094
	H388	H	0.405441	0.503789	0.719927
	H389	H	0.404448	0.523045	0.710440
	O390	O	1.206637	0.804110	-0.039098
	H391	H	1.204091	0.827130	-0.040100
	H392	H	1.238453	0.781486	-0.039213
	O393	O	1.130313	0.059290	0.878949
	H394	H	1.120790	0.040327	0.876021
	H395	H	1.141750	0.052090	0.889582
	O396	O	0.663872	0.410257	0.547922
	H397	H	0.654847	0.402776	0.538616
	H398	H	0.674960	0.418313	0.527639
	O399	O	0.451371	0.498538	0.434609
	H400	H	0.453230	0.505947	0.424729
	H401	H	0.449313	0.488527	0.434639
	O402	O	0.970513	0.957854	0.220130
	H403	H	0.955298	0.952607	0.232363
	H404	H	0.983164	0.959019	0.193777
	O405	O	0.528340	0.702088	0.714679
	H406	H	0.550622	0.690114	0.707774
	H407	H	0.537229	0.725241	0.741983
	O408	O	0.319039	0.404983	0.580241
	H409	H	0.318320	0.431288	0.580726
	H410	H	0.347803	0.397235	0.590634
	O411	O	1.016029	0.789549	1.037923
	H412	H	1.025541	0.791455	1.040195
	H413	H	1.018214	0.784295	1.059765
	O414	O	0.383965	0.686758	0.307232
	H415	H	0.375523	0.700902	0.323233
	H416	H	0.362314	0.655720	0.301341
	O417	O	0.138284	1.165213	0.989801
	H418	H	0.149216	1.176807	0.970881
	H419	H	0.119761	1.148815	0.976761
	O420	O	-0.001555	1.181084	1.180347
	H421	H	-0.010568	1.191204	1.197835
	H422	H	-0.024919	1.162494	1.175081
	O423	O	0.213636	1.020529	0.218528
	H424	H	0.201264	1.068127	0.205915
	H425	H	0.245364	1.025083	0.250747
	O426	O	0.640729	0.539829	0.392889
	H427	H	0.640481	0.553703	0.396705
	H428	H	0.624656	0.551643	0.403498
	O429	O	0.346552	0.450087	0.394892
	H430	H	0.354596	0.441983	0.408374
	H431	H	0.343929	0.431388	0.388911
	O432	O	0.528766	0.667607	0.292000
	H433	H	0.496503	0.669324	0.286866
	H434	H	0.514780	0.675273	0.276927
	O435	O	0.124095	-0.103444	0.163994
	H436	H	0.136732	-0.100031	0.159767
	H437	H	0.131358	-0.084905	0.172408
	O438	O	-0.067974	0.847864	0.867187
	H439	H	-0.068504	0.852352	0.883375
	H440	H	-0.062285	0.844450	0.878293
	O441	O	0.416798	0.641682	0.470154
	H442	H	0.412414	0.628300	0.484471
	H443	H	0.419544	0.640386	0.473268
