data_Molecule from HDF5

_cell_length_a		16.556803
_cell_length_b		16.560064
_cell_length_c		16.685512
_cell_angle_alpha	90.083970
_cell_angle_beta	90.011127
_cell_angle_gamma	89.893454
_symmetry_space_group_name_H-M	'P 1'
_symmetry_Int_Tables_number		1

loop_
	_symmetry_equiv_pos_as_xyz
	x,y,z

loop_
	_atom_site_label
	_atom_site_type_symbol
	_atom_site_fract_x
	_atom_site_fract_y
	_atom_site_fract_z
	H0	H	0.395135	0.841216	0.712721
	H1	H	0.602178	0.155021	0.713823
	H2	H	0.603077	0.842229	0.272092
	H3	H	0.389755	0.153245	0.269865
	H4	H	0.718836	0.393509	0.838239
	H5	H	0.719774	0.603270	0.149051
	H6	H	0.276947	0.602372	0.838754
	H7	H	0.277585	0.394782	0.149264
	H8	H	0.840224	0.716429	0.390565
	H9	H	0.157075	0.714638	0.593507
	H10	H	0.841701	0.276977	0.598866
	H11	H	0.154347	0.277301	0.390284
	H12	H	0.841135	0.392868	0.714445
	H13	H	0.155221	0.602287	0.713012
	H14	H	0.842159	0.603278	0.271428
	H15	H	0.154536	0.392658	0.273593
	H16	H	0.393398	0.719311	0.839087
	H17	H	0.602074	0.719487	0.149328
	H18	H	0.602908	0.277087	0.838642
	H19	H	0.394670	0.278090	0.149722
	H20	H	0.717052	0.840843	0.390514
	H21	H	0.717607	0.155165	0.597363
	H22	H	0.281491	0.839947	0.593627
	H23	H	0.274291	0.154027	0.386389
	H24	H	0.896188	0.340573	0.211023
	H25	H	0.104358	0.653507	0.214941
	H26	H	0.103529	0.341441	0.771863
	H27	H	0.894264	0.656267	0.774138
	H28	H	0.216993	0.896418	0.336057
	H29	H	0.218699	0.102613	0.649997
	H30	H	0.778753	0.100736	0.337439
	H31	H	0.780268	0.896742	0.650446
	H32	H	0.340494	0.217816	0.891502
	H33	H	0.654979	0.218743	0.098987
	H34	H	0.341221	0.778123	0.097732
	H35	H	0.654907	0.778190	0.890491
	H36	H	0.342159	0.892587	0.215266
	H37	H	0.652752	0.105510	0.217062
	H38	H	0.340257	0.102473	0.775269
	H39	H	0.653989	0.893345	0.773096
	H40	H	0.892939	0.219166	0.337963
	H41	H	0.103984	0.220641	0.649450
	H42	H	0.099613	0.780501	0.335206
	H43	H	0.897230	0.780221	0.650392
	H44	H	0.220504	0.341988	0.886764
	H45	H	0.217205	0.655285	0.095842
	H46	H	0.782312	0.339827	0.092946
	H47	H	0.777554	0.655743	0.890202
	H48	H	0.410791	0.111040	0.586409
	H49	H	0.585326	0.886863	0.583698
	H50	H	0.585391	0.110420	0.403233
	H51	H	0.411275	0.887047	0.401974
	H52	H	0.587870	0.402613	0.107025
	H53	H	0.588484	0.585107	0.882736
	H54	H	0.402759	0.585825	0.106688
	H55	H	0.407479	0.411485	0.882994
	H56	H	0.109520	0.592172	0.409371
	H57	H	0.885917	0.585319	0.587109
	H58	H	0.111402	0.406893	0.584407
	H59	H	0.881343	0.405968	0.395308
	H60	H	0.108052	0.408602	0.578215
	H61	H	0.884384	0.593336	0.585083
	H62	H	0.108777	0.580161	0.401893
	H63	H	0.886030	0.403716	0.410468
	H64	H	0.412080	0.585650	0.103388
	H65	H	0.584961	0.588269	0.884054
	H66	H	0.595564	0.408827	0.107843
	H67	H	0.413279	0.408301	0.883903
	H68	H	0.584856	0.108905	0.406884
	H69	H	0.589765	0.886120	0.581419
	H70	H	0.407330	0.110223	0.581002
	H71	H	0.409764	0.888269	0.407552
	H72	H	0.909523	0.611173	0.083389
	H73	H	0.089674	0.385739	0.079254
	H74	H	0.088609	0.610838	0.903586
	H75	H	0.901688	0.383278	0.900912
	H76	H	0.089660	0.909624	0.604346
	H77	H	0.081949	0.088525	0.385051
	H78	H	0.900666	0.087636	0.607657
	H79	H	0.908891	0.904044	0.380555
	H80	H	0.608905	0.087690	0.907674
	H81	H	0.384176	0.089654	0.085015
	H82	H	0.609115	0.910891	0.080179
	H83	H	0.386242	0.910453	0.903264
	H84	H	0.609335	0.912293	0.085084
	H85	H	0.387962	0.088094	0.077742
	H86	H	0.609543	0.082672	0.901020
	H87	H	0.385312	0.908061	0.903106
	H88	H	0.912123	0.079767	0.601121
	H89	H	0.088890	0.088616	0.381173
	H90	H	0.087449	0.902911	0.605603
	H91	H	0.903391	0.905254	0.379861
	H92	H	0.084817	0.609788	0.901996
	H93	H	0.090521	0.383814	0.086782
	H94	H	0.910323	0.611028	0.082980
	H95	H	0.913818	0.385677	0.895905
	H96	H	0.404341	0.112702	0.585714
	H97	H	0.589394	0.884074	0.586307
	H98	H	0.588182	0.110272	0.405738
	H99	H	0.405963	0.886214	0.403790
	H100	H	0.587169	0.411602	0.103933
	H101	H	0.588792	0.589172	0.881386
	H102	H	0.408521	0.593874	0.107318
	H103	H	0.408133	0.405199	0.881372
	H104	H	0.114127	0.592238	0.395855
	H105	H	0.886585	0.587890	0.579212
	H106	H	0.108426	0.413624	0.583934
	H107	H	0.888444	0.417895	0.403072
	H108	H	0.909184	0.610375	0.082928
	H109	H	0.083864	0.386575	0.084555
	H110	H	0.086025	0.608702	0.905819
	H111	H	0.911087	0.389165	0.908474
	H112	H	0.093814	0.904301	0.606642
	H113	H	0.086770	0.082250	0.385223
	H114	H	0.913966	0.094462	0.605096
	H115	H	0.907135	0.909014	0.382656
	H116	H	0.612992	0.090491	0.900743
	H117	H	0.387950	0.082501	0.083105
	H118	H	0.610416	0.907214	0.083455
	H119	H	0.385359	0.909240	0.905593
	C120	C	0.376552	0.006985	0.614863
	C121	C	0.619800	0.989188	0.615484
	C122	C	0.618439	0.006302	0.373051
	C123	C	0.376295	0.990177	0.371804
	C124	C	0.620499	0.376267	0.002791
	C125	C	0.619793	0.619699	0.985535
	C126	C	0.376014	0.620076	0.002866
	C127	C	0.377569	0.377018	0.985627
	C128	C	0.006702	0.619272	0.371483
	C129	C	0.990004	0.619584	0.614321
	C130	C	0.006060	0.377590	0.614481
	C131	C	0.989026	0.376732	0.371893
	C132	C	0.878376	0.506640	0.113789
	C133	C	0.119867	0.489095	0.114702
	C134	C	0.119193	0.506367	0.871721
	C135	C	0.876726	0.489891	0.871350
	C136	C	0.120312	0.875727	0.501363
	C137	C	0.118871	0.119234	0.486280
	C138	C	0.876866	0.119213	0.501767
	C139	C	0.876256	0.875937	0.484828
	C140	C	0.506550	0.119176	0.872390
	C141	C	0.489645	0.119307	0.114929
	C142	C	0.506373	0.877883	0.114563
	C143	C	0.489309	0.877035	0.872278
	C144	C	0.376161	0.888319	0.672961
	C145	C	0.620715	0.107631	0.674114
	C146	C	0.621010	0.888799	0.312796
	C147	C	0.372387	0.106869	0.310753
	C148	C	0.679495	0.374736	0.885307
	C149	C	0.679765	0.621919	0.102438
	C150	C	0.317045	0.621216	0.885375
	C151	C	0.317651	0.375510	0.102597
	C152	C	0.887884	0.677667	0.370887
	C153	C	0.109188	0.676572	0.613578
	C154	C	0.888439	0.317084	0.617051
	C155	C	0.107299	0.317039	0.371227
	C156	C	0.888344	0.374794	0.674504
	C157	C	0.108303	0.620477	0.672792
	C158	C	0.888759	0.621012	0.312125
	C159	C	0.107421	0.374377	0.313270
	C160	C	0.374490	0.679533	0.885608
	C161	C	0.621226	0.679422	0.102720
	C162	C	0.621869	0.316731	0.885624
	C163	C	0.375893	0.317783	0.102938
	C164	C	0.677670	0.888205	0.371592
	C165	C	0.678097	0.107875	0.616162
	C166	C	0.319493	0.887650	0.614139
	C167	C	0.314873	0.107155	0.368633
	C168	C	0.877612	0.387831	0.171562
	C169	C	0.122107	0.606810	0.174507
	C170	C	0.121937	0.388777	0.811563
	C171	C	0.875586	0.609007	0.813603
	C172	C	0.177746	0.876689	0.382992
	C173	C	0.179052	0.121420	0.603051
	C174	C	0.817928	0.120026	0.384354
	C175	C	0.819382	0.876862	0.603242
	C176	C	0.387920	0.178275	0.872317
	C177	C	0.607530	0.178949	0.117305
	C178	C	0.388397	0.817964	0.116481
	C179	C	0.607714	0.817856	0.871481
	C180	C	0.388919	0.874931	0.174817
	C181	C	0.606571	0.122817	0.176162
	C182	C	0.387791	0.120852	0.814402
	C183	C	0.607112	0.874896	0.812985
	C184	C	0.875074	0.178600	0.384590
	C185	C	0.121319	0.179788	0.602864
	C186	C	0.119461	0.819090	0.382724
	C187	C	0.877481	0.819006	0.603224
	C188	C	0.179880	0.388844	0.869061
	C189	C	0.178264	0.607701	0.115346
	C190	C	0.820907	0.387546	0.112970
	C191	C	0.817699	0.608636	0.871333
	C192	C	0.400362	0.089766	0.591057
	C193	C	0.595190	0.907037	0.590841
	C194	C	0.593237	0.088394	0.398070
	C195	C	0.402137	0.908448	0.397208
	C196	C	0.596869	0.400530	0.084708
	C197	C	0.594559	0.594517	0.903980
	C198	C	0.400797	0.595525	0.084596
	C199	C	0.402374	0.401478	0.904049
	C200	C	0.089351	0.595157	0.395604
	C201	C	0.907153	0.595579	0.590571
	C202	C	0.088020	0.402566	0.589469
	C203	C	0.906700	0.402002	0.396151
	C204	C	0.902649	0.589398	0.090057
	C205	C	0.095232	0.406785	0.090381
	C206	C	0.093578	0.588489	0.896790
	C207	C	0.901665	0.407510	0.894926
	C208	C	0.097022	0.898956	0.584070
	C209	C	0.093300	0.093718	0.404896
	C210	C	0.901933	0.094432	0.583473
	C211	C	0.899673	0.899156	0.402633
	C212	C	0.589085	0.094150	0.896298
	C213	C	0.407901	0.093913	0.089479
	C214	C	0.588288	0.902985	0.089854
	C215	C	0.407011	0.901968	0.897013
	Zn216	Zn	0.497519	-0.001650	0.743314
	Zn217	Zn	0.497994	-0.001492	0.243570
	Zn218	Zn	0.748996	0.498126	-0.006622
	Zn219	Zn	0.247559	0.497702	-0.006661
	Zn220	Zn	-0.001592	0.747376	0.492756
	Zn221	Zn	-0.002771	0.248841	0.493519
	Zn222	Zn	-0.001928	0.498535	0.742879
	Zn223	Zn	-0.001611	0.497488	0.243125
	Zn224	Zn	0.497926	0.748675	-0.005952
	Zn225	Zn	0.498375	0.247317	-0.005842
	Zn226	Zn	0.747606	-0.001625	0.493429
	Zn227	Zn	0.248532	-0.001819	0.493196
	N228	N	0.410676	0.963663	0.673706
	N229	N	0.584970	0.032851	0.673846
	N230	N	0.584968	0.963471	0.313398
	N231	N	0.409894	0.033032	0.312569
	N232	N	0.679059	0.410985	0.959275
	N233	N	0.679021	0.585493	0.028443
	N234	N	0.317799	0.585118	0.959328
	N235	N	0.318498	0.411587	0.028572
	N236	N	0.962465	0.676974	0.406910
	N237	N	0.034398	0.676292	0.578083
	N238	N	0.962612	0.318589	0.580325
	N239	N	0.032477	0.318014	0.406761
	N240	N	0.962520	0.411686	0.673199
	N241	N	0.032964	0.585896	0.673521
	N242	N	0.963838	0.585694	0.312033
	N243	N	0.032875	0.410704	0.313453
	N244	N	0.410555	0.679020	0.959670
	N245	N	0.584554	0.678141	0.028959
	N246	N	0.585887	0.317477	0.959706
	N247	N	0.412223	0.318437	0.029021
	N248	N	0.676422	0.962458	0.408088
	N249	N	0.677811	0.033199	0.580288
	N250	N	0.319586	0.962503	0.578709
	N251	N	0.317244	0.033476	0.405981
	N252	N	0.912399	0.463132	0.172291
	N253	N	0.086462	0.532006	0.174433
	N254	N	0.084902	0.463005	0.813018
	N255	N	0.911409	0.534027	0.813174
	N256	N	0.178507	0.911182	0.457930
	N257	N	0.177699	0.084447	0.529398
	N258	N	0.818905	0.083709	0.458239
	N259	N	0.818207	0.911333	0.528573
	N260	N	0.462946	0.177698	0.907437
	N261	N	0.533761	0.177070	0.079973
	N262	N	0.462428	0.819557	0.079680
	N263	N	0.533189	0.818865	0.907560
	N264	N	0.463304	0.911410	0.173936
	N265	N	0.532208	0.086317	0.174729
	N266	N	0.462785	0.085115	0.813860
	N267	N	0.532354	0.910838	0.813208
	N268	N	0.910826	0.178266	0.458732
	N269	N	0.084689	0.178637	0.529023
	N270	N	0.084683	0.818153	0.457351
	N271	N	0.912014	0.818070	0.528527
	N272	N	0.178233	0.463049	0.905927
	N273	N	0.177137	0.533375	0.079001
	N274	N	0.820899	0.462639	0.078045
	N275	N	0.818031	0.533552	0.906255
	O276	O	0.107079	1.166062	-0.062878
	H277	H	0.083144	1.173894	-0.052756
	H278	H	0.128442	1.182161	-0.052231
	O279	O	0.424592	0.280468	0.432860
	H280	H	0.409237	0.272063	0.447497
	H281	H	0.429490	0.278797	0.458639
	O282	O	0.971458	0.076896	0.982574
	H283	H	0.965907	0.070166	0.988104
	H284	H	0.967738	0.088115	0.984616
	O285	O	0.421113	0.537266	0.717951
	H286	H	0.435471	0.517095	0.717614
	H287	H	0.427864	0.541862	0.718990
	O288	O	0.292256	0.538874	0.507428
	H289	H	0.286620	0.544285	0.515627
	H290	H	0.294694	0.543107	0.511984
	O291	O	0.277489	0.274072	0.519837
	H292	H	0.267693	0.273567	0.544812
	H293	H	0.265123	0.259841	0.545194
	O294	O	0.782486	0.214133	0.953635
	H295	H	0.771098	0.216835	0.951801
	H296	H	0.767068	0.227000	0.947546
	O297	O	0.461401	0.704996	0.282421
	H298	H	0.451291	0.702651	0.295972
	H299	H	0.460227	0.717465	0.261994
	O300	O	-0.035134	0.212671	0.776842
	H301	H	-0.023055	0.196751	0.789797
	H302	H	-0.027738	0.237924	0.752024
	O303	O	0.596057	0.629187	0.515903
	H304	H	0.597917	0.629516	0.526816
	H305	H	0.593172	0.628839	0.518516
	O306	O	0.690249	0.303887	0.657924
	H307	H	0.690162	0.305211	0.614463
	H308	H	0.721165	0.276781	0.672910
	O309	O	0.515191	0.697201	0.710298
	H310	H	0.526949	0.694701	0.710999
	H311	H	0.524438	0.714292	0.712353
	O312	O	0.683321	0.706309	0.705494
	H313	H	0.677575	0.709724	0.663186
	H314	H	0.700400	0.738023	0.730366
	O315	O	1.035859	0.790252	1.010224
	H316	H	1.043339	0.793438	0.991121
	H317	H	1.049937	0.795537	1.000023
	O318	O	0.586437	0.497612	0.434254
	H319	H	0.576246	0.491564	0.448914
	H320	H	0.589794	0.508447	0.439318
	O321	O	0.202629	0.790665	0.790251
	H322	H	0.232781	0.766046	0.771320
	H323	H	0.213409	0.834193	0.778589
	O324	O	1.141884	0.809580	0.181954
	H325	H	1.130995	0.827708	0.174911
	H326	H	1.125406	0.819592	0.162399
	O327	O	0.030156	0.207889	1.206658
	H328	H	0.029307	0.233993	1.225027
	H329	H	0.036361	0.192188	1.200431
	O330	O	0.710391	0.487610	0.529711
	H331	H	0.713918	0.490106	0.552384
	H332	H	0.706875	0.497149	0.532645
	O333	O	0.477779	0.310449	0.708599
	H334	H	0.492590	0.330821	0.692142
	H335	H	0.492197	0.291949	0.726093
	O336	O	0.693176	0.288844	0.277731
	H337	H	0.667596	0.273842	0.275040
	H338	H	0.679757	0.311873	0.287485
	O339	O	0.786458	-0.033857	0.883090
	H340	H	0.799947	-0.028703	0.880441
	H341	H	0.788655	-0.042198	0.901253
	O342	O	-0.066079	0.060252	0.183484
	H343	H	-0.070729	0.072049	0.192642
	H344	H	-0.085135	0.048901	0.182135
	O345	O	0.127146	1.006956	0.876287
	H346	H	0.114166	1.025836	0.875601
	H347	H	0.126610	1.004583	0.889015
	O348	O	0.314008	0.310496	0.303494
	H349	H	0.325728	0.315332	0.320257
	H350	H	0.321717	0.331757	0.320549
	O351	O	0.685019	0.685145	0.306060
	H352	H	0.678442	0.678904	0.319531
	H353	H	0.668397	0.666215	0.307324
	O354	O	-0.021675	0.082659	0.989846
	H355	H	-0.029480	0.074923	0.987321
	H356	H	-0.035655	0.083520	1.003335
	O357	O	0.556547	0.471466	0.713129
	H358	H	0.572504	0.459898	0.709585
	H359	H	0.578744	0.478154	0.716827
	O360	O	0.327678	0.294297	0.697187
	H361	H	0.353152	0.314569	0.703392
	H362	H	0.335204	0.289168	0.719116
	O363	O	-0.166181	0.183771	0.163429
	H364	H	-0.151443	0.170207	0.151841
	H365	H	-0.183649	0.199790	0.180421
	O366	O	0.666754	0.336016	0.544558
	H367	H	0.675606	0.355584	0.556937
	H368	H	0.674875	0.326534	0.517699
	O369	O	0.797437	0.043143	0.046591
	H370	H	0.790311	0.028683	0.066581
	H371	H	0.798775	0.044932	0.038338
	O372	O	0.787095	0.786130	0.023208
	H373	H	0.803820	0.790942	0.020730
	H374	H	0.768610	0.768142	0.024481
	O375	O	0.780467	-0.033978	0.207258
	H376	H	0.767434	-0.049942	0.218753
	H377	H	0.773590	-0.052703	0.217532
	O378	O	0.332801	0.447866	0.372907
	H379	H	0.334798	0.433839	0.391559
	H380	H	0.329021	0.463834	0.390550
	O381	O	0.032638	0.778402	0.774692
	H382	H	0.066248	0.783877	0.776668
	H383	H	0.051843	0.751592	0.751357
	O384	O	0.978871	0.001130	1.020669
	H385	H	0.973267	0.011499	1.029761
	H386	H	0.973316	0.006457	1.024479
	O387	O	0.975041	0.779792	0.165717
	H388	H	0.968106	0.768060	0.173323
	H389	H	0.983545	0.773053	0.157445
	O390	O	0.533078	0.306521	0.276024
	H391	H	0.520779	0.296740	0.255284
	H392	H	0.508754	0.306732	0.291952
	O393	O	0.612703	0.619125	0.457560
	H394	H	0.625477	0.611654	0.432394
	H395	H	0.590900	0.611871	0.447396
	O396	O	0.041041	1.045652	0.887625
	H397	H	0.033404	1.038529	0.894113
	H398	H	0.038720	1.042033	0.891557
	O399	O	-0.164048	0.011185	0.784957
	H400	H	-0.167696	0.004848	0.793045
	H401	H	-0.152656	0.000190	0.780290
	O402	O	0.474942	0.484252	0.501746
	H403	H	0.474764	0.469489	0.513082
	H404	H	0.472601	0.493995	0.505305
	O405	O	0.972141	-0.184897	0.943512
	H406	H	0.977771	-0.183563	0.931473
	H407	H	0.980968	-0.177396	0.951776
	O408	O	0.214930	0.217548	0.023953
	H409	H	0.230308	0.235677	0.041958
	H410	H	0.217965	0.223150	0.052239
	O411	O	0.716067	0.712944	0.557219
	H412	H	0.720165	0.717464	0.543015
	H413	H	0.725243	0.713895	0.550307
	O414	O	0.538903	0.634976	0.482664
	H415	H	0.527852	0.641301	0.480116
	H416	H	0.543412	0.634656	0.495250
	O417	O	0.433857	0.430143	0.508812
	H418	H	0.440903	0.424895	0.509829
	H419	H	0.433883	0.436274	0.520119
	O420	O	0.310218	0.690182	0.688413
	H421	H	0.326089	0.673984	0.669370
	H422	H	0.334597	0.671077	0.679798
	O423	O	0.112707	0.110870	0.949174
	H424	H	0.108826	0.104824	0.953154
	H425	H	0.104070	0.113149	0.962910
	O426	O	0.280579	0.716554	0.454610
	H427	H	0.271559	0.726776	0.424602
	H428	H	0.265912	0.726798	0.435649
	O429	O	0.811590	0.818100	0.810081
	H430	H	0.823520	0.838324	0.824744
	H431	H	0.831787	0.825992	0.828851
	O432	O	0.541549	0.616593	0.330682
	H433	H	0.532063	0.628244	0.328380
	H434	H	0.540709	0.616785	0.339381
	O435	O	0.210228	0.950593	0.111270
	H436	H	0.208608	0.960105	0.108520
	H437	H	0.202231	0.932266	0.094026
	O438	O	0.114247	0.050594	0.144448
	H439	H	0.124239	0.058739	0.161228
	H440	H	0.119074	0.048113	0.143877
	O441	O	0.203099	0.205324	0.195668
	H442	H	0.224313	0.222221	0.221025
	H443	H	0.185647	0.180343	0.197155
	O444	O	0.663628	0.301718	0.431014
	H445	H	0.651963	0.314340	0.408707
	H446	H	0.677097	0.295089	0.432931
	O447	O	0.214181	0.957863	0.776051
	H448	H	0.216169	0.966738	0.772574
	H449	H	0.226363	0.975741	0.776888
	O450	O	0.212446	0.781640	0.960818
	H451	H	0.234869	0.764119	0.950860
	H452	H	0.211014	0.780766	0.934074
	O453	O	0.282278	0.437308	0.709533
	H454	H	0.303225	0.438276	0.701523
	H455	H	0.258427	0.427148	0.738842
	O456	O	0.037339	0.027742	0.843816
	H457	H	0.043398	0.026266	0.854301
	H458	H	0.038960	0.010555	0.844358
	O459	O	0.790509	0.793131	0.197941
	H460	H	0.810995	0.792579	0.182955
	H461	H	0.777901	0.770646	0.204493
	O462	O	0.719859	0.450218	0.271972
	H463	H	0.733222	0.447185	0.264192
	H464	H	0.711037	0.447133	0.257433
	O465	O	1.017431	-0.021707	-0.021598
	H466	H	1.019754	-0.029806	-0.022484
	H467	H	1.016645	-0.011151	-0.030365
	O468	O	0.287074	0.528678	0.274523
	H469	H	0.282071	0.528526	0.279069
	H470	H	0.270785	0.518234	0.274827
	O471	O	0.363255	0.642321	0.554801
	H472	H	0.353822	0.646135	0.529906
	H473	H	0.373020	0.636678	0.560958
	O474	O	0.291113	0.704416	0.285870
	H475	H	0.267810	0.730207	0.254649
	H476	H	0.304502	0.671586	0.276729
	O477	O	0.475912	0.477862	1.270931
	H478	H	0.484027	0.468731	1.270152
	H479	H	0.469149	0.481389	1.278794
	O480	O	0.514798	0.301737	0.553893
	H481	H	0.518088	0.301894	0.552160
	H482	H	0.533418	0.304158	0.561542
	O483	O	0.723716	0.534408	0.718867
	H484	H	0.740643	0.545874	0.741030
	H485	H	0.732617	0.565778	0.728691
	O486	O	0.796936	0.196056	0.783615
	H487	H	0.811105	0.164110	0.782932
	H488	H	0.819843	0.191711	0.799287
	O489	O	1.028716	0.952960	0.210152
	H490	H	1.032974	0.964444	0.205343
	H491	H	1.016043	0.955246	0.211477
