data_Molecule from HDF5

_cell_length_a		16.305667
_cell_length_b		16.552561
_cell_length_c		15.954375
_cell_angle_alpha	89.485903
_cell_angle_beta	89.209764
_cell_angle_gamma	90.139645
_symmetry_space_group_name_H-M	'P 1'
_symmetry_Int_Tables_number		1

loop_
	_symmetry_equiv_pos_as_xyz
	x,y,z

loop_
	_atom_site_label
	_atom_site_type_symbol
	_atom_site_fract_x
	_atom_site_fract_y
	_atom_site_fract_z
	H0	H	0.400004	0.843453	0.713532
	H1	H	0.594393	0.168039	0.708346
	H2	H	0.597799	0.843359	0.282133
	H3	H	0.406792	0.167557	0.282162
	H4	H	0.715580	0.407115	0.832467
	H5	H	0.705531	0.600440	0.165450
	H6	H	0.287051	0.603193	0.830947
	H7	H	0.282753	0.405199	0.163544
	H8	H	0.838722	0.727666	0.394436
	H9	H	0.160307	0.725231	0.600783
	H10	H	0.839820	0.282732	0.610832
	H11	H	0.160343	0.290238	0.393982
	H12	H	0.834014	0.410299	0.713394
	H13	H	0.164285	0.600856	0.707790
	H14	H	0.833287	0.602046	0.289798
	H15	H	0.162007	0.412676	0.283848
	H16	H	0.398025	0.721876	0.831900
	H17	H	0.597468	0.718984	0.162426
	H18	H	0.600778	0.292571	0.830282
	H19	H	0.389362	0.283087	0.160048
	H20	H	0.721639	0.846770	0.392129
	H21	H	0.716098	0.166370	0.595575
	H22	H	0.278867	0.844932	0.601168
	H23	H	0.282606	0.166229	0.392922
	H24	H	0.896382	0.344544	0.219994
	H25	H	0.090328	0.669592	0.205984
	H26	H	0.095994	0.343026	0.784322
	H27	H	0.902832	0.668144	0.783887
	H28	H	0.212690	0.912026	0.330684
	H29	H	0.210165	0.101339	0.664466
	H30	H	0.791943	0.106507	0.329504
	H31	H	0.781216	0.905530	0.662717
	H32	H	0.336722	0.226149	0.889596
	H33	H	0.656773	0.227365	0.100306
	H34	H	0.335848	0.785435	0.104485
	H35	H	0.659791	0.786573	0.890040
	H36	H	0.334668	0.908136	0.213663
	H37	H	0.664473	0.098210	0.201515
	H38	H	0.333237	0.099927	0.785396
	H39	H	0.662583	0.912276	0.782170
	H40	H	0.901003	0.226577	0.335446
	H41	H	0.099863	0.219409	0.664642
	H42	H	0.104644	0.791904	0.332582
	H43	H	0.894868	0.788588	0.662777
	H44	H	0.217492	0.344937	0.895589
	H45	H	0.216051	0.665001	0.098566
	H46	H	0.774364	0.345554	0.107597
	H47	H	0.779440	0.665763	0.895876
	H48	H	0.392312	0.121574	0.584667
	H49	H	0.603597	0.890085	0.582773
	H50	H	0.592364	0.118222	0.403036
	H51	H	0.402187	0.891187	0.408501
	H52	H	0.577425	0.414552	0.111779
	H53	H	0.599080	0.589777	0.878051
	H54	H	0.403962	0.594292	0.116487
	H55	H	0.411866	0.412442	0.879139
	H56	H	0.114677	0.603189	0.406176
	H57	H	0.883248	0.595994	0.593395
	H58	H	0.115628	0.412678	0.592508
	H59	H	0.881254	0.412176	0.411576
	H60	H	0.116428	0.407746	0.590349
	H61	H	0.882165	0.604262	0.591153
	H62	H	0.114782	0.598926	0.402685
	H63	H	0.883102	0.411615	0.415941
	H64	H	0.407940	0.596478	0.115365
	H65	H	0.578534	0.593887	0.884166
	H66	H	0.583556	0.404504	0.116598
	H67	H	0.405052	0.412814	0.876956
	H68	H	0.604327	0.121935	0.401002
	H69	H	0.586739	0.889809	0.598882
	H70	H	0.405807	0.121704	0.600070
	H71	H	0.405233	0.891049	0.404301
	H72	H	0.904268	0.617212	0.089078
	H73	H	0.094309	0.389413	0.092176
	H74	H	0.094133	0.620760	0.899453
	H75	H	0.907220	0.395538	0.917742
	H76	H	0.088717	0.917041	0.615401
	H77	H	0.091305	0.099003	0.380899
	H78	H	0.909762	0.098848	0.615964
	H79	H	0.912132	0.915116	0.379715
	H80	H	0.617062	0.109159	0.899794
	H81	H	0.385479	0.089265	0.083984
	H82	H	0.618623	0.900131	0.088747
	H83	H	0.380837	0.906257	0.907063
	H84	H	0.610867	0.908591	0.075462
	H85	H	0.381019	0.096006	0.093326
	H86	H	0.610837	0.100329	0.912274
	H87	H	0.383205	0.910209	0.911731
	H88	H	0.902778	0.094737	0.617926
	H89	H	0.088890	0.102741	0.379246
	H90	H	0.083807	0.911865	0.615404
	H91	H	0.911668	0.916065	0.379417
	H92	H	0.087986	0.617004	0.907138
	H93	H	0.086129	0.391154	0.094755
	H94	H	0.895173	0.619947	0.088472
	H95	H	0.897603	0.390225	0.909885
	H96	H	0.411243	0.115324	0.580990
	H97	H	0.582995	0.897823	0.577819
	H98	H	0.595785	0.121758	0.391230
	H99	H	0.406973	0.893439	0.409650
	H100	H	0.588951	0.414882	0.116290
	H101	H	0.590645	0.608582	0.875329
	H102	H	0.403653	0.598641	0.117502
	H103	H	0.408049	0.418406	0.879931
	H104	H	0.116627	0.603774	0.401497
	H105	H	0.885431	0.598212	0.585838
	H106	H	0.114740	0.411813	0.586619
	H107	H	0.884265	0.415685	0.413645
	H108	H	0.900424	0.620904	0.097070
	H109	H	0.088126	0.393864	0.085786
	H110	H	0.097898	0.619536	0.909047
	H111	H	0.910351	0.392047	0.903779
	H112	H	0.090705	0.910190	0.618647
	H113	H	0.093945	0.102703	0.378645
	H114	H	0.909320	0.091347	0.614175
	H115	H	0.912302	0.914767	0.379376
	H116	H	0.613276	0.093843	0.897175
	H117	H	0.381880	0.101482	0.081840
	H118	H	0.613150	0.916219	0.090870
	H119	H	0.382210	0.912655	0.906119
	C120	C	0.374014	0.013596	0.619941
	C121	C	0.619741	0.998502	0.616152
	C122	C	0.625387	0.014010	0.370746
	C123	C	0.377524	0.997738	0.375835
	C124	C	0.616833	0.383341	0.005907
	C125	C	0.617316	0.625348	0.988937
	C126	C	0.377323	0.625597	0.006416
	C127	C	0.376883	0.383642	0.988146
	C128	C	0.007407	0.629821	0.375820
	C129	C	0.991300	0.627524	0.618917
	C130	C	0.008003	0.382416	0.621727
	C131	C	0.990282	0.385683	0.380555
	C132	C	0.871280	0.513423	0.123555
	C133	C	0.118253	0.497894	0.119046
	C134	C	0.121672	0.512801	0.875563
	C135	C	0.876256	0.498344	0.878524
	C136	C	0.119089	0.885386	0.506666
	C137	C	0.120229	0.128402	0.489582
	C138	C	0.879271	0.126662	0.506960
	C139	C	0.879478	0.885101	0.488591
	C140	C	0.505868	0.128336	0.874178
	C141	C	0.489810	0.125090	0.115145
	C142	C	0.506527	0.880699	0.118025
	C143	C	0.489602	0.882443	0.876023
	C144	C	0.377970	0.891978	0.675938
	C145	C	0.616116	0.119641	0.670999
	C146	C	0.620493	0.892247	0.318020
	C147	C	0.384026	0.119292	0.319729
	C148	C	0.676657	0.386432	0.881677
	C149	C	0.669775	0.621531	0.114950
	C150	C	0.323720	0.623681	0.880784
	C151	C	0.319852	0.384184	0.113403
	C152	C	0.886030	0.687127	0.376647
	C153	C	0.112771	0.684957	0.618820
	C154	C	0.886874	0.324154	0.626320
	C155	C	0.112008	0.329613	0.376957
	C156	C	0.884209	0.387053	0.677788
	C157	C	0.114608	0.623077	0.672221
	C158	C	0.883476	0.625197	0.323879
	C159	C	0.112732	0.390318	0.321799
	C160	C	0.378836	0.682728	0.881468
	C161	C	0.616371	0.681047	0.113268
	C162	C	0.619359	0.329429	0.880548
	C163	C	0.373383	0.324091	0.111544
	C164	C	0.681869	0.894029	0.372923
	C165	C	0.676872	0.118648	0.615108
	C166	C	0.317640	0.892860	0.620131
	C167	C	0.322003	0.118575	0.374750
	C168	C	0.874473	0.392840	0.181687
	C169	C	0.112964	0.620218	0.170889
	C170	C	0.117854	0.391703	0.820795
	C171	C	0.880531	0.619534	0.821520
	C172	C	0.175466	0.890148	0.380842
	C173	C	0.174223	0.123620	0.614557
	C174	C	0.827290	0.126399	0.380691
	C175	C	0.820102	0.885611	0.613103
	C176	C	0.384425	0.185649	0.872455
	C177	C	0.610267	0.185074	0.116374
	C178	C	0.384420	0.824440	0.121782
	C179	C	0.611502	0.826235	0.872680
	C180	C	0.383714	0.885541	0.175938
	C181	C	0.614067	0.121122	0.167088
	C182	C	0.382524	0.123116	0.820685
	C183	C	0.612974	0.888734	0.819144
	C184	C	0.881503	0.186064	0.383385
	C185	C	0.119028	0.182120	0.614732
	C186	C	0.121712	0.830443	0.381938
	C187	C	0.876554	0.827560	0.613168
	C188	C	0.178225	0.392585	0.876376
	C189	C	0.175675	0.617957	0.117473
	C190	C	0.814180	0.393221	0.125583
	C191	C	0.819141	0.618277	0.877396
	C192	C	0.396440	0.097681	0.595603
	C193	C	0.597491	0.914375	0.593298
	C194	C	0.603811	0.098587	0.392077
	C195	C	0.398627	0.913602	0.400234
	C196	C	0.590911	0.404902	0.092505
	C197	C	0.595746	0.603895	0.901721
	C198	C	0.398775	0.603091	0.093890
	C199	C	0.401210	0.407650	0.901225
	C200	C	0.093052	0.608404	0.397257
	C201	C	0.905680	0.605840	0.596537
	C202	C	0.093337	0.404234	0.597056
	C203	C	0.904987	0.407011	0.406251
	C204	C	0.893425	0.597583	0.098784
	C205	C	0.096054	0.413395	0.097205
	C206	C	0.099875	0.597218	0.898564
	C207	C	0.898584	0.414394	0.903228
	C208	C	0.094858	0.906746	0.593854
	C209	C	0.097865	0.107603	0.402249
	C210	C	0.900911	0.102162	0.593551
	C211	C	0.904841	0.908561	0.402014
	C212	C	0.591469	0.107266	0.896642
	C213	C	0.405010	0.102246	0.092909
	C214	C	0.591924	0.902069	0.092504
	C215	C	0.404160	0.903649	0.900977
	Zn216	Zn	0.497564	0.005766	0.747534
	Zn217	Zn	0.499537	0.004633	0.244105
	Zn218	Zn	0.743314	0.504871	-0.000527
	Zn219	Zn	0.250632	0.504529	-0.002127
	Zn220	Zn	-0.000062	0.757387	0.497718
	Zn221	Zn	-0.000510	0.254762	0.500763
	Zn222	Zn	-0.001065	0.505535	0.747674
	Zn223	Zn	-0.003209	0.506400	0.249812
	Zn224	Zn	0.498034	0.752334	-0.002437
	Zn225	Zn	0.496056	0.255771	-0.004806
	Zn226	Zn	0.752530	0.006424	0.495849
	Zn227	Zn	0.245768	0.006375	0.497247
	N228	N	0.412231	0.967918	0.675886
	N229	N	0.581300	0.043826	0.671952
	N230	N	0.586350	0.968067	0.316178
	N231	N	0.418032	0.043330	0.320524
	N232	N	0.675433	0.418951	0.960686
	N233	N	0.670866	0.587848	0.036522
	N234	N	0.322648	0.588813	0.959451
	N235	N	0.321982	0.420676	0.035752
	N236	N	0.964282	0.690464	0.407890
	N237	N	0.034965	0.687729	0.586302
	N238	N	0.964836	0.320837	0.592354
	N239	N	0.034770	0.326678	0.412611
	N240	N	0.960524	0.422537	0.675248
	N241	N	0.038039	0.588163	0.672390
	N242	N	0.959795	0.590281	0.323222
	N243	N	0.036009	0.424698	0.324058
	N244	N	0.411256	0.684016	0.960553
	N245	N	0.584266	0.683441	0.033885
	N246	N	0.582934	0.327342	0.958808
	N247	N	0.407924	0.323634	0.032387
	N248	N	0.685241	0.970846	0.404674
	N249	N	0.678908	0.042431	0.581506
	N250	N	0.314930	0.969668	0.586201
	N251	N	0.317989	0.042101	0.408946
	N252	N	0.909140	0.468541	0.180704
	N253	N	0.077954	0.544493	0.171999
	N254	N	0.083337	0.467522	0.820211
	N255	N	0.915366	0.543910	0.822333
	N256	N	0.174085	0.923666	0.459473
	N257	N	0.175200	0.091060	0.535677
	N258	N	0.825919	0.090105	0.458418
	N259	N	0.821783	0.920671	0.534668
	N260	N	0.462188	0.189094	0.904827
	N261	N	0.532285	0.187535	0.084547
	N262	N	0.461895	0.821290	0.086804
	N263	N	0.533853	0.822318	0.907520
	N264	N	0.460703	0.919588	0.174031
	N265	N	0.538325	0.084275	0.166506
	N266	N	0.459002	0.088315	0.821426
	N267	N	0.536199	0.922926	0.821101
	N268	N	0.912989	0.186528	0.462974
	N269	N	0.086256	0.185285	0.535735
	N270	N	0.087343	0.827380	0.461077
	N271	N	0.912623	0.827014	0.534724
	N272	N	0.180706	0.468977	0.909626
	N273	N	0.179403	0.540825	0.086215
	N274	N	0.812119	0.469185	0.089963
	N275	N	0.816482	0.541864	0.912152
	O276	O	0.857460	-0.036885	1.110197
	H277	H	0.873938	-0.046102	1.105127
	H278	H	0.843927	-0.034153	1.119527
	O279	O	0.379370	0.426277	0.526516
	H280	H	0.374568	0.426609	0.526459
	H281	H	0.379172	0.432890	0.527886
	O282	O	0.467790	0.460696	0.558457
	H283	H	0.470819	0.452104	0.560873
	H284	H	0.457066	0.452809	0.543615
	O285	O	0.444975	0.372434	0.557271
	H286	H	0.436914	0.367023	0.545974
	H287	H	0.436110	0.363852	0.562052
	O288	O	0.611522	0.446651	0.479495
	H289	H	0.613279	0.451316	0.497165
	H290	H	0.602974	0.438701	0.485684
	O291	O	0.031740	-0.091496	1.123964
	H292	H	0.030958	-0.088304	1.126521
	H293	H	0.038135	-0.099628	1.114236
	O294	O	0.898175	1.046239	0.029518
	H295	H	0.897987	1.035803	0.025934
	H296	H	0.899836	1.045955	0.033312
	O297	O	1.140561	0.964835	-0.067116
	H298	H	1.138802	0.967179	-0.072193
	H299	H	1.157737	0.964984	-0.064556
	O300	O	0.458320	0.549574	0.498713
	H301	H	0.461447	0.554370	0.501037
	H302	H	0.464255	0.541404	0.495239
	O303	O	0.640709	0.515221	0.486728
	H304	H	0.651571	0.512389	0.502559
	H305	H	0.623878	0.522802	0.480185
	O306	O	0.469622	0.511068	0.410026
	H307	H	0.467520	0.509743	0.404128
	H308	H	0.488395	0.504759	0.416533
	O309	O	0.530512	0.571343	0.492549
	H310	H	0.535947	0.556412	0.490557
	H311	H	0.515471	0.559844	0.484539
	O312	O	0.879375	0.834121	1.100930
	H313	H	0.872592	0.822977	1.100892
	H314	H	0.887844	0.830091	1.107728
	O315	O	1.055112	1.020218	-0.067251
	H316	H	1.056103	1.023388	-0.071295
	H317	H	1.051351	1.006426	-0.060610
	O318	O	0.517781	0.653806	0.433507
	H319	H	0.512193	0.655409	0.441284
	H320	H	0.528337	0.670211	0.437728
	O321	O	0.598004	0.454440	0.576917
	H322	H	0.599108	0.469929	0.584414
	H323	H	0.593823	0.459516	0.582146
	O324	O	-0.019820	0.931473	0.979434
	H325	H	-0.033779	0.935439	0.981302
	H326	H	-0.032460	0.921404	0.985238
	O327	O	0.067092	1.028482	0.929173
	H328	H	0.067336	1.041502	0.925225
	H329	H	0.054139	1.033499	0.934992
	O330	O	0.087698	-0.034457	0.065344
	H331	H	0.075592	-0.035862	0.067809
	H332	H	0.083472	-0.049216	0.070131
	O333	O	0.449723	0.409530	0.499187
	H334	H	0.438207	0.411992	0.508609
	H335	H	0.452758	0.411361	0.489474
	O336	O	-0.134635	0.098682	0.007987
	H337	H	-0.139091	0.093277	0.001003
	H338	H	-0.148414	0.111799	0.008148
	O339	O	0.080648	0.043521	0.101668
	H340	H	0.063971	0.046638	0.105936
	H341	H	0.080403	0.040297	0.101328
	O342	O	0.571910	0.583745	0.562585
	H343	H	0.559866	0.579783	0.567615
	H344	H	0.576049	0.576240	0.569009
	O345	O	-0.089361	1.012990	0.896406
	H346	H	-0.088451	0.997720	0.903544
	H347	H	-0.077485	1.013584	0.898884
	O348	O	0.583526	0.381286	0.435022
	H349	H	0.578060	0.397435	0.439488
	H350	H	0.594026	0.366192	0.439653
	O351	O	0.512923	0.614373	0.469222
	H352	H	0.515466	0.616611	0.459369
	H353	H	0.518020	0.629737	0.478520
	O354	O	-0.067774	1.153573	0.015831
	H355	H	-0.072441	1.148184	0.006145
	H356	H	-0.078546	1.169205	0.014464
	O357	O	0.070759	-0.101873	0.961116
	H358	H	0.078470	-0.106570	0.954739
	H359	H	0.080024	-0.097839	0.965362
	O360	O	0.977862	0.075330	0.889405
	H361	H	0.982564	0.078565	0.880713
	H362	H	0.960818	0.074471	0.894752
	O363	O	0.415982	0.439658	0.554422
	H364	H	0.414897	0.441303	0.541151
	H365	H	0.412620	0.429190	0.547757
	O366	O	0.545950	0.399186	0.427783
	H367	H	0.547855	0.409051	0.421856
	H368	H	0.543561	0.393222	0.432505
	O369	O	0.902900	0.160790	-0.131892
	H370	H	0.898212	0.147675	-0.143141
	H371	H	0.915901	0.162776	-0.141712
	O372	O	0.447941	0.625495	0.425584
	H373	H	0.450055	0.634790	0.424767
	H374	H	0.447386	0.630177	0.422300
	O375	O	0.889212	-0.129369	1.002866
	H376	H	0.895737	-0.133834	0.990682
	H377	H	0.890478	-0.125403	1.029249
	O378	O	0.065412	1.063358	-0.012127
	H379	H	0.076524	1.074663	-0.021166
	H380	H	0.070210	1.065713	-0.011227
	O381	O	0.413510	0.578771	0.516297
	H382	H	0.422817	0.572738	0.514906
	H383	H	0.415448	0.574994	0.512018
	O384	O	1.107760	1.104456	0.039460
	H385	H	1.106798	1.103525	0.048032
	H386	H	1.096281	1.106359	0.053399
	O387	O	1.102749	-0.086138	0.995423
	H388	H	1.106885	-0.093615	0.977237
	H389	H	1.109474	-0.069986	0.988760
	O390	O	0.897722	1.033003	0.011907
	H391	H	0.880212	1.036709	0.023640
	H392	H	0.886524	1.040151	0.013420
	O393	O	0.563783	0.474343	0.525834
	H394	H	0.567695	0.476046	0.523841
	H395	H	0.565567	0.486565	0.524721
