data_Molecule from HDF5

_cell_length_a		16.345834
_cell_length_b		16.262257
_cell_length_c		16.499804
_cell_angle_alpha	90.043460
_cell_angle_beta	89.942606
_cell_angle_gamma	89.991336
_symmetry_space_group_name_H-M	'P 1'
_symmetry_Int_Tables_number		1

loop_
	_symmetry_equiv_pos_as_xyz
	x,y,z

loop_
	_atom_site_label
	_atom_site_type_symbol
	_atom_site_fract_x
	_atom_site_fract_y
	_atom_site_fract_z
	H0	H	0.395657	0.850245	0.721989
	H1	H	0.609209	0.169218	0.719850
	H2	H	0.610246	0.848838	0.277971
	H3	H	0.403680	0.170831	0.281567
	H4	H	0.728143	0.399135	0.844845
	H5	H	0.721655	0.613710	0.159674
	H6	H	0.278322	0.613726	0.844070
	H7	H	0.282890	0.403620	0.161491
	H8	H	0.843135	0.728867	0.400572
	H9	H	0.163722	0.730015	0.607403
	H10	H	0.843748	0.288741	0.604678
	H11	H	0.165614	0.293401	0.402544
	H12	H	0.845705	0.398378	0.726616
	H13	H	0.161827	0.617135	0.726080
	H14	H	0.842471	0.614438	0.283109
	H15	H	0.162101	0.402315	0.279762
	H16	H	0.393353	0.730517	0.843260
	H17	H	0.606002	0.729655	0.158649
	H18	H	0.606820	0.289135	0.841254
	H19	H	0.399472	0.287158	0.159844
	H20	H	0.724190	0.848117	0.395948
	H21	H	0.719392	0.171642	0.598845
	H22	H	0.285862	0.847302	0.601271
	H23	H	0.288048	0.171906	0.397350
	H24	H	0.899616	0.347437	0.220269
	H25	H	0.105969	0.669680	0.222980
	H26	H	0.108601	0.348550	0.782251
	H27	H	0.893421	0.667328	0.778693
	H28	H	0.223075	0.905175	0.340473
	H29	H	0.227604	0.115347	0.658452
	H30	H	0.787240	0.111993	0.341169
	H31	H	0.781049	0.903256	0.658903
	H32	H	0.341376	0.226389	0.897642
	H33	H	0.664309	0.225667	0.098882
	H34	H	0.341257	0.791296	0.103522
	H35	H	0.663431	0.788773	0.898739
	H36	H	0.345085	0.901884	0.223390
	H37	H	0.663998	0.112542	0.217356
	H38	H	0.344382	0.115375	0.777145
	H39	H	0.664104	0.902939	0.779630
	H40	H	0.906247	0.225698	0.340711
	H41	H	0.108250	0.228848	0.660824
	H42	H	0.107937	0.787160	0.342721
	H43	H	0.900193	0.790207	0.660963
	H44	H	0.219335	0.346328	0.901503
	H45	H	0.222807	0.669494	0.108750
	H46	H	0.785629	0.346706	0.102854
	H47	H	0.783204	0.669563	0.899075
	H48	H	0.416809	0.121722	0.583310
	H49	H	0.586314	0.894793	0.590506
	H50	H	0.593116	0.126907	0.399221
	H51	H	0.416313	0.892314	0.404062
	H52	H	0.591926	0.417973	0.113405
	H53	H	0.589256	0.604300	0.885821
	H54	H	0.412005	0.596613	0.113013
	H55	H	0.409164	0.421139	0.889962
	H56	H	0.117960	0.595152	0.407743
	H57	H	0.892553	0.599055	0.585093
	H58	H	0.119915	0.419983	0.600078
	H59	H	0.888589	0.420389	0.410569
	H60	H	0.117975	0.414405	0.587427
	H61	H	0.892680	0.589724	0.592965
	H62	H	0.117858	0.600198	0.413804
	H63	H	0.887002	0.416107	0.408831
	H64	H	0.414280	0.599075	0.114302
	H65	H	0.599738	0.592799	0.886276
	H66	H	0.592086	0.417188	0.113590
	H67	H	0.412438	0.417794	0.888578
	H68	H	0.590156	0.120407	0.412079
	H69	H	0.594125	0.895821	0.582457
	H70	H	0.411862	0.125807	0.590512
	H71	H	0.419463	0.896807	0.411813
	H72	H	0.902252	0.626352	0.091430
	H73	H	0.096271	0.391406	0.095830
	H74	H	0.080762	0.620348	0.911164
	H75	H	0.914453	0.391687	0.906072
	H76	H	0.091071	0.928778	0.608778
	H77	H	0.106915	0.099023	0.383661
	H78	H	0.911767	0.093566	0.613183
	H79	H	0.908062	0.916742	0.386023
	H80	H	0.615031	0.096339	0.913909
	H81	H	0.387447	0.100460	0.091595
	H82	H	0.614418	0.928320	0.089680
	H83	H	0.392892	0.924995	0.913851
	H84	H	0.620854	0.914976	0.096377
	H85	H	0.390239	0.095830	0.086997
	H86	H	0.617595	0.094431	0.904400
	H87	H	0.388592	0.923936	0.903818
	H88	H	0.917046	0.101883	0.614569
	H89	H	0.089536	0.093053	0.392074
	H90	H	0.090262	0.914331	0.614239
	H91	H	0.915945	0.926951	0.391434
	H92	H	0.090116	0.619918	0.922929
	H93	H	0.084746	0.395316	0.096106
	H94	H	0.913852	0.626849	0.103080
	H95	H	0.923682	0.398416	0.915694
	H96	H	0.420577	0.123195	0.591952
	H97	H	0.596895	0.892205	0.592533
	H98	H	0.603278	0.126399	0.409617
	H99	H	0.409740	0.893754	0.411326
	H100	H	0.592405	0.417761	0.114092
	H101	H	0.585238	0.590212	0.891887
	H102	H	0.410766	0.599334	0.115240
	H103	H	0.408299	0.417272	0.886415
	H104	H	0.114478	0.592703	0.414547
	H105	H	0.887600	0.600112	0.596142
	H106	H	0.114372	0.428165	0.589996
	H107	H	0.888394	0.416284	0.413670
	H108	H	0.916859	0.621275	0.088228
	H109	H	0.091244	0.396632	0.085184
	H110	H	0.094704	0.625999	0.910570
	H111	H	0.909456	0.395214	0.919881
	H112	H	0.103040	0.922005	0.616108
	H113	H	0.091915	0.111954	0.385611
	H114	H	0.907202	0.101801	0.617236
	H115	H	0.921227	0.914327	0.389066
	H116	H	0.619229	0.103518	0.908156
	H117	H	0.388614	0.094427	0.093389
	H118	H	0.614898	0.914399	0.081037
	H119	H	0.388373	0.915234	0.910943
	C120	C	0.383402	0.017596	0.620289
	C121	C	0.624593	1.000448	0.619889
	C122	C	0.627069	0.017992	0.376455
	C123	C	0.384113	1.000980	0.378171
	C124	C	0.624397	0.386202	0.009028
	C125	C	0.622739	0.628608	0.992778
	C126	C	0.379185	0.630765	0.009866
	C127	C	0.379542	0.386403	0.993400
	C128	C	0.011064	0.628877	0.381175
	C129	C	0.995662	0.629948	0.624290
	C130	C	0.012209	0.387800	0.623971
	C131	C	0.994531	0.386999	0.380260
	C132	C	0.880209	0.517859	0.124332
	C133	C	0.122899	0.500424	0.124269
	C134	C	0.122358	0.516622	0.882598
	C135	C	0.881962	0.500238	0.881309
	C136	C	0.126099	0.888036	0.508785
	C137	C	0.127157	0.132146	0.492611
	C138	C	0.882709	0.130436	0.509361
	C139	C	0.882507	0.887422	0.493207
	C140	C	0.511655	0.130464	0.877253
	C141	C	0.494949	0.128984	0.120615
	C142	C	0.511400	0.887379	0.121381
	C143	C	0.495060	0.887880	0.878107
	C144	C	0.379189	0.897555	0.680943
	C145	C	0.627054	0.121224	0.679665
	C146	C	0.628914	0.896988	0.317524
	C147	C	0.383837	0.122534	0.320326
	C148	C	0.686534	0.382523	0.891303
	C149	C	0.682022	0.631592	0.111859
	C150	C	0.318000	0.632699	0.891610
	C151	C	0.322128	0.384761	0.113468
	C152	C	0.890735	0.688896	0.381115
	C153	C	0.115510	0.690644	0.626366
	C154	C	0.891853	0.327762	0.624553
	C155	C	0.116753	0.330796	0.381532
	C156	C	0.892736	0.382744	0.684829
	C157	C	0.114704	0.634183	0.685380
	C158	C	0.890591	0.632049	0.322591
	C159	C	0.114707	0.385138	0.320759
	C160	C	0.375794	0.690664	0.891057
	C161	C	0.624522	0.689619	0.111432
	C162	C	0.625926	0.327715	0.889302
	C163	C	0.380022	0.326732	0.112625
	C164	C	0.685495	0.896677	0.376187
	C165	C	0.681815	0.122687	0.619589
	C166	C	0.324263	0.896405	0.620885
	C167	C	0.326434	0.122792	0.377992
	C168	C	0.879878	0.396111	0.181973
	C169	C	0.124477	0.621590	0.183451
	C170	C	0.125932	0.396163	0.822574
	C171	C	0.877143	0.619841	0.819919
	C172	C	0.183767	0.886664	0.388532
	C173	C	0.186753	0.133164	0.611498
	C174	C	0.826374	0.130701	0.388874
	C175	C	0.821791	0.885555	0.611907
	C176	C	0.390540	0.188483	0.877303
	C177	C	0.616207	0.186934	0.119215
	C178	C	0.390449	0.829007	0.122959
	C179	C	0.615453	0.828021	0.878242
	C180	C	0.392223	0.884560	0.182570
	C181	C	0.616132	0.130792	0.177995
	C182	C	0.391953	0.132979	0.817303
	C183	C	0.615593	0.884974	0.819257
	C184	C	0.885234	0.187469	0.388826
	C185	C	0.127373	0.189607	0.612755
	C186	C	0.126678	0.827608	0.389811
	C187	C	0.881056	0.829013	0.612839
	C188	C	0.180834	0.395217	0.882100
	C189	C	0.182599	0.621415	0.126377
	C190	C	0.823403	0.395585	0.123323
	C191	C	0.821928	0.621091	0.879738
	C192	C	0.409049	0.101714	0.595597
	C193	C	0.599733	0.916305	0.595560
	C194	C	0.602648	0.102420	0.400161
	C195	C	0.408264	0.916317	0.402057
	C196	C	0.599357	0.410780	0.091808
	C197	C	0.598399	0.603102	0.909858
	C198	C	0.404964	0.605516	0.092679
	C199	C	0.403091	0.411638	0.910067
	C200	C	0.094836	0.603536	0.405237
	C201	C	0.912606	0.603928	0.598712
	C202	C	0.095635	0.413522	0.599500
	C203	C	0.910086	0.410707	0.404069
	C204	C	0.903923	0.602765	0.101118
	C205	C	0.098133	0.416309	0.099474
	C206	C	0.096146	0.600319	0.907520
	C207	C	0.908297	0.416841	0.906657
	C208	C	0.101707	0.913853	0.591574
	C209	C	0.103004	0.108283	0.408831
	C210	C	0.905288	0.106255	0.593261
	C211	C	0.907751	0.912165	0.410430
	C212	C	0.595463	0.105313	0.901691
	C213	C	0.410734	0.104158	0.097428
	C214	C	0.595070	0.912192	0.096231
	C215	C	0.411597	0.913812	0.902568
	Zn216	Zn	0.504225	0.008676	0.748475
	Zn217	Zn	0.504483	0.009190	0.249704
	Zn218	Zn	0.753261	0.508278	0.001524
	Zn219	Zn	0.250582	0.508598	0.003049
	Zn220	Zn	0.004331	0.758054	0.502068
	Zn221	Zn	0.003983	0.259533	0.502059
	Zn222	Zn	0.003243	0.508970	0.752824
	Zn223	Zn	0.002245	0.508754	0.252107
	Zn224	Zn	0.501851	0.758823	-0.000083
	Zn225	Zn	0.502663	0.257615	0.000333
	Zn226	Zn	0.753105	0.009188	0.500050
	Zn227	Zn	0.255494	0.009790	0.499312
	N228	N	0.415031	0.974055	0.680957
	N229	N	0.592236	0.044228	0.679919
	N230	N	0.593575	0.973568	0.317297
	N231	N	0.418791	0.045628	0.320094
	N232	N	0.685635	0.418469	0.966655
	N233	N	0.681268	0.594379	0.037001
	N234	N	0.320122	0.596267	0.966599
	N235	N	0.321832	0.421214	0.038352
	N236	N	0.966650	0.687063	0.416915
	N237	N	0.040493	0.688105	0.588998
	N238	N	0.967185	0.330655	0.587476
	N239	N	0.040942	0.331980	0.417918
	N240	N	0.968363	0.419626	0.684367
	N241	N	0.039085	0.597167	0.684114
	N242	N	0.966368	0.595442	0.322557
	N243	N	0.037777	0.419323	0.319800
	N244	N	0.413109	0.689615	0.965796
	N245	N	0.588342	0.687816	0.036462
	N246	N	0.587727	0.330005	0.963415
	N247	N	0.414794	0.327266	0.036730
	N248	N	0.684594	0.972942	0.412005
	N249	N	0.680583	0.046635	0.583239
	N250	N	0.326798	0.972146	0.583961
	N251	N	0.326440	0.046285	0.413200
	N252	N	0.914262	0.473172	0.182940
	N253	N	0.088026	0.545380	0.182106
	N254	N	0.090140	0.472643	0.822822
	N255	N	0.913391	0.543614	0.820489
	N256	N	0.183737	0.923496	0.463594
	N257	N	0.186630	0.098190	0.535682
	N258	N	0.824679	0.095844	0.464813
	N259	N	0.822356	0.921155	0.536265
	N260	N	0.466105	0.187259	0.913726
	N261	N	0.539912	0.185836	0.084230
	N262	N	0.465451	0.830796	0.085526
	N263	N	0.539506	0.829571	0.913938
	N264	N	0.468510	0.920318	0.181832
	N265	N	0.539675	0.095619	0.178976
	N266	N	0.468420	0.097743	0.817203
	N267	N	0.539656	0.921411	0.818972
	N268	N	0.919413	0.187440	0.464852
	N269	N	0.091042	0.189023	0.537710
	N270	N	0.091630	0.828399	0.465521
	N271	N	0.918253	0.830212	0.538307
	N272	N	0.179030	0.471240	0.918502
	N273	N	0.181535	0.545215	0.090256
	N274	N	0.823233	0.472421	0.088525
	N275	N	0.824676	0.545654	0.917208
	O276	O	0.878523	0.066091	1.092272
	H277	H	0.888696	0.071589	1.084912
	H278	H	0.882036	0.064576	1.086878
	O279	O	0.669884	0.676986	0.670762
	H280	H	0.684360	0.676042	0.638980
	H281	H	0.669171	0.652642	0.656131
	O282	O	0.350679	0.382609	0.495529
	H283	H	0.354612	0.385091	0.507822
	H284	H	0.341209	0.380036	0.515244
	O285	O	1.186954	0.016225	-0.113245
	H286	H	1.194039	0.023262	-0.128540
	H287	H	1.183911	0.032896	-0.098067
	O288	O	-0.041337	0.021756	0.875363
	H289	H	-0.044587	0.015296	0.863732
	H290	H	-0.042612	0.021659	0.880893
	O291	O	0.682304	0.351522	0.470417
	H292	H	0.681389	0.351412	0.494036
	H293	H	0.682507	0.352138	0.457063
	O294	O	0.457658	0.594418	0.635818
	H295	H	0.453254	0.592302	0.631625
	H296	H	0.455246	0.613962	0.652556
	O297	O	1.034136	1.118996	1.175345
	H298	H	1.029700	1.125534	1.181994
	H299	H	1.035224	1.107563	1.169102
	O300	O	-0.134263	-0.028172	0.007149
	H301	H	-0.136116	-0.036475	-0.002251
	H302	H	-0.141072	-0.043322	0.016854
	O303	O	0.319858	0.613922	0.351748
	H304	H	0.328770	0.608028	0.350773
	H305	H	0.334132	0.610254	0.352886
	O306	O	0.953846	-0.140006	0.060325
	H307	H	0.964936	-0.142173	0.065506
	H308	H	0.944621	-0.143528	0.055234
	O309	O	0.521639	0.723402	0.718464
	H310	H	0.543564	0.747924	0.740187
	H311	H	0.558791	0.719600	0.711495
	O312	O	1.109615	1.073248	0.145618
	H313	H	1.122314	1.083174	0.151753
	H314	H	1.111936	1.075723	0.152636
	O315	O	0.355522	0.689306	0.498421
	H316	H	0.348282	0.694019	0.498910
	H317	H	0.355184	0.688362	0.496739
	O318	O	0.315063	0.401755	0.591515
	H319	H	0.328729	0.387277	0.575889
	H320	H	0.315865	0.403206	0.581537
	O321	O	0.971374	0.152371	0.928764
	H322	H	0.978366	0.133300	0.933794
	H323	H	0.976938	0.152342	0.938600
	O324	O	0.053280	0.015237	0.875863
	H325	H	0.054272	0.021680	0.879198
	H326	H	0.060102	0.009020	0.878220
	O327	O	0.327195	0.613016	0.445826
	H328	H	0.324296	0.625709	0.459578
	H329	H	0.318521	0.620211	0.449437
	O330	O	0.571145	0.486269	0.323524
	H331	H	0.559859	0.492593	0.342682
	H332	H	0.574825	0.468896	0.315714
	O333	O	0.424863	0.479802	0.427538
	H334	H	0.427766	0.478389	0.427425
	H335	H	0.419965	0.479995	0.426098
	O336	O	0.486555	0.406825	0.294724
	H337	H	0.491524	0.396509	0.293192
	H338	H	0.503321	0.413099	0.283732
	O339	O	0.985944	-0.144844	0.920079
	H340	H	0.985202	-0.141409	0.915998
	H341	H	0.994104	-0.154559	0.923088
	O342	O	-0.490329	0.431307	0.663826
	H343	H	-0.487534	0.433752	0.651763
	H344	H	-0.487584	0.435977	0.677695
	O345	O	-0.064975	1.145644	0.901201
	H346	H	-0.060439	1.143106	0.897649
	H347	H	-0.050278	1.140875	0.893904
	O348	O	-0.305783	0.495479	-0.636125
	H349	H	-0.298100	0.479141	-0.662853
	H350	H	-0.321066	0.491415	-0.640533
	O351	O	0.087031	0.145828	0.046710
	H352	H	0.097026	0.162273	0.056787
	H353	H	0.088583	0.154402	0.056250
	O354	O	1.330827	1.547099	0.692031
	H355	H	1.352934	1.538520	0.695582
	H356	H	1.316658	1.541517	0.706580
	O357	O	-0.073223	1.033587	0.144354
	H358	H	-0.060051	1.011546	0.145930
	H359	H	-0.093599	1.042549	0.160469
	O360	O	0.467976	0.696689	0.300552
	H361	H	0.468043	0.704151	0.305131
	H362	H	0.488893	0.694365	0.295712
	O363	O	0.680916	0.698904	0.521047
	H364	H	0.653774	0.699505	0.499536
	H365	H	0.697448	0.706872	0.517859
	O366	O	0.452840	0.372728	0.694504
	H367	H	0.460748	0.378218	0.700237
	H368	H	0.434275	0.381869	0.702231
	O369	O	0.652524	0.551342	0.403708
	H370	H	0.650738	0.549477	0.406649
	H371	H	0.664081	0.553045	0.401930
	O372	O	0.657384	0.395274	0.358913
	H373	H	0.662423	0.397097	0.355372
	H374	H	0.668880	0.376842	0.371881
	O375	O	0.523280	0.678276	0.455218
	H376	H	0.508349	0.651933	0.466076
	H377	H	0.506917	0.677356	0.457274
	O378	O	0.440497	0.362484	0.440287
	H379	H	0.452823	0.362439	0.445563
	H380	H	0.434574	0.366462	0.440758
	O381	O	0.311006	0.399948	0.506705
	H382	H	0.335995	0.392488	0.489089
	H383	H	0.295805	0.395151	0.508313
	O384	O	0.080548	0.957008	0.855414
	H385	H	0.077671	0.965986	0.869802
	H386	H	0.080334	0.951400	0.852821
	O387	O	1.119084	0.837709	0.043207
	H388	H	1.115287	0.852125	0.025980
	H389	H	1.121679	0.823599	0.044064
	O390	O	0.600676	0.355036	0.588462
	H391	H	0.597242	0.355713	0.604609
	H392	H	0.594481	0.371494	0.586321
	O393	O	1.186620	0.025179	1.020445
	H394	H	1.185168	0.046356	1.015578
	H395	H	1.193256	0.008407	1.025898
	O396	O	-0.036785	0.142076	0.112749
	H397	H	-0.042169	0.129417	0.095051
	H398	H	-0.032570	0.142048	0.119374
	O399	O	0.707402	0.522770	0.707175
	H400	H	0.713981	0.531282	0.708128
	H401	H	0.716386	0.517141	0.712950
	O402	O	0.543923	0.457979	1.453230
	H403	H	0.526223	0.448512	1.453671
	H404	H	0.556215	0.469853	1.460191
	O405	O	0.109363	-0.053355	-0.136835
	H406	H	0.127016	-0.048150	-0.115288
	H407	H	0.105234	-0.059847	-0.147335
	O408	O	0.977347	0.901249	1.091581
	H409	H	0.975041	0.889024	1.078487
	H410	H	0.988661	0.900332	1.086545
	O411	O	0.821851	1.093429	-0.068664
	H412	H	0.821146	1.092699	-0.060871
	H413	H	0.831917	1.097942	-0.070668
	O414	O	0.075812	-0.073520	0.912101
	H415	H	0.061397	-0.054357	0.926414
	H416	H	0.071078	-0.058835	0.901561
	O417	O	1.181089	-0.066655	1.111313
	H418	H	1.189301	-0.085881	1.111302
	H419	H	1.180376	-0.079505	1.112989
	O420	O	-0.007741	1.123098	0.084850
	H421	H	-0.002421	1.122901	0.062847
	H422	H	-0.005283	1.109480	0.096137
	O423	O	0.834730	0.030622	-0.103029
	H424	H	0.835155	0.029107	-0.101503
	H425	H	0.849892	0.049501	-0.106324
	O426	O	-0.092461	-0.128165	1.053949
	H427	H	-0.100829	-0.154983	1.047531
	H428	H	-0.081786	-0.125637	1.045812
	O429	O	0.596680	0.421962	0.487143
	H430	H	0.599491	0.423545	0.483273
	H431	H	0.600402	0.419388	0.486772
