data_Molecule from HDF5

_cell_length_a		16.640222
_cell_length_b		16.454552
_cell_length_c		16.571633
_cell_angle_alpha	89.882569
_cell_angle_beta	89.948087
_cell_angle_gamma	90.190863
_symmetry_space_group_name_H-M	'P 1'
_symmetry_Int_Tables_number		1

loop_
	_symmetry_equiv_pos_as_xyz
	x,y,z

loop_
	_atom_site_label
	_atom_site_type_symbol
	_atom_site_fract_x
	_atom_site_fract_y
	_atom_site_fract_z
	H0	H	0.394836	0.843600	0.722076
	H1	H	0.608382	0.158287	0.722769
	H2	H	0.601413	0.842626	0.282831
	H3	H	0.392819	0.157100	0.274870
	H4	H	0.722784	0.393096	0.843274
	H5	H	0.722003	0.603849	0.154821
	H6	H	0.278176	0.608209	0.842413
	H7	H	0.271638	0.387474	0.152142
	H8	H	0.844099	0.718310	0.396857
	H9	H	0.156848	0.721907	0.602449
	H10	H	0.844550	0.277665	0.601549
	H11	H	0.157644	0.278363	0.392029
	H12	H	0.843863	0.394460	0.717814
	H13	H	0.157275	0.606038	0.719646
	H14	H	0.844277	0.602980	0.279111
	H15	H	0.155398	0.391910	0.273281
	H16	H	0.396516	0.721932	0.841638
	H17	H	0.602130	0.717029	0.157045
	H18	H	0.604933	0.278158	0.843172
	H19	H	0.391199	0.276323	0.154937
	H20	H	0.717240	0.843322	0.398752
	H21	H	0.724014	0.158070	0.606557
	H22	H	0.278187	0.844002	0.606780
	H23	H	0.277526	0.157339	0.390134
	H24	H	0.888181	0.344938	0.225848
	H25	H	0.105819	0.656125	0.219000
	H26	H	0.107545	0.342633	0.775043
	H27	H	0.898584	0.657447	0.779421
	H28	H	0.224266	0.893323	0.345622
	H29	H	0.229293	0.113917	0.652510
	H30	H	0.776850	0.110063	0.344448
	H31	H	0.775184	0.892351	0.653470
	H32	H	0.345877	0.225803	0.889633
	H33	H	0.654167	0.225718	0.107612
	H34	H	0.345924	0.777252	0.105056
	H35	H	0.656958	0.780686	0.894175
	H36	H	0.346735	0.891453	0.223597
	H37	H	0.654859	0.109240	0.222872
	H38	H	0.348557	0.113284	0.771066
	H39	H	0.655326	0.894954	0.776387
	H40	H	0.896152	0.222926	0.342874
	H41	H	0.108217	0.224289	0.654802
	H42	H	0.103830	0.782121	0.343272
	H43	H	0.893270	0.777021	0.655365
	H44	H	0.226595	0.344423	0.886997
	H45	H	0.222954	0.655388	0.103295
	H46	H	0.773471	0.345098	0.109910
	H47	H	0.782174	0.657537	0.894568
	H48	H	0.420721	0.110603	0.587591
	H49	H	0.577917	0.892526	0.591219
	H50	H	0.586991	0.113465	0.413263
	H51	H	0.411871	0.890220	0.413084
	H52	H	0.588814	0.414114	0.110527
	H53	H	0.591576	0.589054	0.885850
	H54	H	0.410126	0.580173	0.107777
	H55	H	0.411395	0.409220	0.886341
	H56	H	0.113312	0.589434	0.405164
	H57	H	0.887293	0.590206	0.594973
	H58	H	0.114239	0.403676	0.585779
	H59	H	0.893512	0.407577	0.421775
	H60	H	0.108054	0.416676	0.580788
	H61	H	0.887959	0.593004	0.585565
	H62	H	0.113632	0.593528	0.408548
	H63	H	0.893670	0.423338	0.409898
	H64	H	0.415972	0.590357	0.109447
	H65	H	0.590547	0.592012	0.885914
	H66	H	0.587988	0.415369	0.109132
	H67	H	0.409247	0.419940	0.889621
	H68	H	0.592902	0.116190	0.411524
	H69	H	0.591496	0.892556	0.577043
	H70	H	0.413646	0.110821	0.579514
	H71	H	0.411190	0.888327	0.411745
	H72	H	0.913839	0.612184	0.089169
	H73	H	0.083387	0.387879	0.085873
	H74	H	0.088415	0.610587	0.909367
	H75	H	0.908390	0.386153	0.912149
	H76	H	0.088075	0.911946	0.612096
	H77	H	0.092254	0.089139	0.387382
	H78	H	0.918560	0.086661	0.608320
	H79	H	0.906180	0.914196	0.386655
	H80	H	0.606867	0.084616	0.916215
	H81	H	0.390445	0.087710	0.081188
	H82	H	0.612461	0.913096	0.090023
	H83	H	0.388170	0.908090	0.911552
	H84	H	0.614168	0.910030	0.092482
	H85	H	0.391022	0.081410	0.089238
	H86	H	0.612124	0.087031	0.907699
	H87	H	0.390843	0.914369	0.914507
	H88	H	0.910742	0.092006	0.612542
	H89	H	0.090942	0.083521	0.389463
	H90	H	0.091085	0.911881	0.613575
	H91	H	0.913337	0.910583	0.388880
	H92	H	0.091086	0.611611	0.910790
	H93	H	0.084968	0.389170	0.081924
	H94	H	0.913817	0.608917	0.084127
	H95	H	0.908047	0.384330	0.907146
	H96	H	0.410648	0.114698	0.589287
	H97	H	0.595213	0.884704	0.594744
	H98	H	0.588149	0.115113	0.407178
	H99	H	0.412653	0.888361	0.411704
	H100	H	0.586836	0.413534	0.109655
	H101	H	0.593852	0.591350	0.884437
	H102	H	0.405363	0.589532	0.112651
	H103	H	0.419192	0.415013	0.891488
	H104	H	0.112120	0.589231	0.410346
	H105	H	0.891265	0.584258	0.588649
	H106	H	0.114055	0.415830	0.594870
	H107	H	0.886434	0.406771	0.403495
	H108	H	0.909401	0.612554	0.085243
	H109	H	0.087728	0.387217	0.084727
	H110	H	0.090680	0.612162	0.907904
	H111	H	0.912573	0.386424	0.909029
	H112	H	0.090018	0.914666	0.611658
	H113	H	0.086537	0.087626	0.389284
	H114	H	0.909604	0.081864	0.609511
	H115	H	0.907661	0.906725	0.384799
	H116	H	0.611441	0.093528	0.915571
	H117	H	0.387088	0.090756	0.090332
	H118	H	0.612692	0.909013	0.088806
	H119	H	0.388629	0.913716	0.907448
	C120	C	0.380602	0.008923	0.620061
	C121	C	0.622086	0.993043	0.621125
	C122	C	0.620663	0.010395	0.379466
	C123	C	0.378988	0.992574	0.378234
	C124	C	0.620897	0.380089	0.007281
	C125	C	0.623091	0.621884	0.989728
	C126	C	0.379064	0.620381	0.006354
	C127	C	0.378508	0.378944	0.991109
	C128	C	0.009119	0.621484	0.377411
	C129	C	0.991897	0.622114	0.621255
	C130	C	0.009158	0.378636	0.619413
	C131	C	0.993389	0.378956	0.377444
	C132	C	0.878244	0.508277	0.120669
	C133	C	0.119796	0.490927	0.117848
	C134	C	0.122301	0.507824	0.876221
	C135	C	0.879709	0.490610	0.877998
	C136	C	0.121444	0.880593	0.508986
	C137	C	0.123919	0.122053	0.490680
	C138	C	0.880275	0.120895	0.507088
	C139	C	0.877385	0.878120	0.490703
	C140	C	0.508823	0.122805	0.878421
	C141	C	0.491255	0.121691	0.121054
	C142	C	0.510185	0.877853	0.122481
	C143	C	0.492174	0.879833	0.878570
	C144	C	0.376566	0.891034	0.681850
	C145	C	0.625528	0.111265	0.682028
	C146	C	0.620784	0.890734	0.321642
	C147	C	0.375455	0.109925	0.315648
	C148	C	0.682275	0.375699	0.890276
	C149	C	0.682022	0.622687	0.108024
	C150	C	0.318952	0.624892	0.889035
	C151	C	0.314040	0.372432	0.106293
	C152	C	0.891101	0.679183	0.377519
	C153	C	0.109904	0.682068	0.621615
	C154	C	0.891456	0.318020	0.620580
	C155	C	0.110594	0.318611	0.374281
	C156	C	0.891055	0.376134	0.678419
	C157	C	0.110135	0.624225	0.679797
	C158	C	0.891276	0.621702	0.319064
	C159	C	0.109378	0.375117	0.314944
	C160	C	0.378086	0.681642	0.888964
	C161	C	0.622437	0.678781	0.109090
	C162	C	0.623329	0.318704	0.890071
	C163	C	0.373699	0.316807	0.107760
	C164	C	0.678348	0.890855	0.379374
	C165	C	0.683485	0.111040	0.624535
	C166	C	0.318885	0.891067	0.624174
	C167	C	0.317904	0.110164	0.373305
	C168	C	0.872267	0.391596	0.183930
	C169	C	0.124016	0.608805	0.179096
	C170	C	0.125709	0.390134	0.814781
	C171	C	0.879583	0.609826	0.818939
	C172	C	0.182681	0.876771	0.391904
	C173	C	0.187250	0.129326	0.606525
	C174	C	0.818445	0.126149	0.390558
	C175	C	0.816312	0.874624	0.607536
	C176	C	0.392766	0.185112	0.872871
	C177	C	0.607375	0.184993	0.125197
	C178	C	0.392911	0.816906	0.124226
	C179	C	0.609513	0.820208	0.876060
	C180	C	0.393245	0.873883	0.182997
	C181	C	0.607755	0.126867	0.182694
	C182	C	0.394104	0.128979	0.813599
	C183	C	0.608981	0.876995	0.817282
	C184	C	0.877905	0.182281	0.389730
	C185	C	0.127125	0.184536	0.607544
	C186	C	0.122783	0.821276	0.390897
	C187	C	0.874879	0.817383	0.608032
	C188	C	0.184601	0.390714	0.871047
	C189	C	0.181846	0.608678	0.121391
	C190	C	0.814841	0.391549	0.126313
	C191	C	0.821696	0.609884	0.876210
	C192	C	0.407341	0.090754	0.593213
	C193	C	0.595825	0.911146	0.595168
	C194	C	0.596507	0.093412	0.403827
	C195	C	0.404584	0.910407	0.404622
	C196	C	0.595215	0.406589	0.088700
	C197	C	0.599007	0.597573	0.907043
	C198	C	0.403450	0.594129	0.088416
	C199	C	0.405777	0.406719	0.910018
	C200	C	0.091598	0.597625	0.401113
	C201	C	0.910183	0.596497	0.596934
	C202	C	0.090807	0.404623	0.594534
	C203	C	0.912155	0.405020	0.404024
	C204	C	0.904966	0.589947	0.093804
	C205	C	0.092997	0.409340	0.091572
	C206	C	0.097037	0.589867	0.902114
	C207	C	0.902981	0.407343	0.902618
	C208	C	0.096703	0.905859	0.591023
	C209	C	0.097527	0.094517	0.409806
	C210	C	0.905761	0.094382	0.588831
	C211	C	0.901880	0.903334	0.408205
	C212	C	0.589213	0.095972	0.905566
	C213	C	0.410582	0.094406	0.094523
	C214	C	0.591910	0.903502	0.097641
	C215	C	0.410579	0.905121	0.903725
	Zn216	Zn	0.500374	0.001309	0.749650
	Zn217	Zn	0.500156	0.000679	0.250146
	Zn218	Zn	0.751237	0.500033	-0.001239
	Zn219	Zn	0.249656	0.499407	-0.002469
	Zn220	Zn	0.000346	0.751020	0.499433
	Zn221	Zn	0.001672	0.249445	0.498074
	Zn222	Zn	0.000871	0.499330	0.749201
	Zn223	Zn	-0.000048	0.499314	0.247706
	Zn224	Zn	0.500915	0.749830	-0.000419
	Zn225	Zn	0.499216	0.250675	-0.000120
	Zn226	Zn	0.750127	0.001898	0.499692
	Zn227	Zn	0.251426	0.000799	0.500075
	N228	N	0.414288	0.965341	0.679340
	N229	N	0.587888	0.036870	0.680028
	N230	N	0.585897	0.966280	0.321218
	N231	N	0.412513	0.035342	0.318340
	N232	N	0.680952	0.413097	0.964318
	N233	N	0.682563	0.588277	0.032578
	N234	N	0.319288	0.587631	0.963207
	N235	N	0.316702	0.410310	0.032282
	N236	N	0.965485	0.679274	0.413040
	N237	N	0.035281	0.681099	0.586046
	N238	N	0.965886	0.319292	0.584844
	N239	N	0.037258	0.320889	0.412319
	N240	N	0.965335	0.412855	0.678068
	N241	N	0.035764	0.587880	0.679861
	N242	N	0.965967	0.586737	0.318676
	N243	N	0.035306	0.411790	0.316745
	N244	N	0.414933	0.678883	0.963159
	N245	N	0.586590	0.678476	0.034505
	N246	N	0.585877	0.321166	0.963881
	N247	N	0.413115	0.321042	0.035106
	N248	N	0.678862	0.966541	0.414060
	N249	N	0.681449	0.036533	0.587349
	N250	N	0.321084	0.965738	0.586823
	N251	N	0.319932	0.036075	0.411393
	N252	N	0.911182	0.465247	0.180348
	N253	N	0.086258	0.534558	0.177211
	N254	N	0.087657	0.463941	0.818027
	N255	N	0.914835	0.534477	0.819687
	N256	N	0.181874	0.913059	0.466343
	N257	N	0.185491	0.091493	0.532770
	N258	N	0.819929	0.088588	0.464624
	N259	N	0.817867	0.911828	0.533404
	N260	N	0.465022	0.181293	0.912636
	N261	N	0.533779	0.182147	0.087871
	N262	N	0.466695	0.819189	0.087198
	N263	N	0.535973	0.821700	0.913551
	N264	N	0.467195	0.910976	0.182141
	N265	N	0.534547	0.088130	0.180439
	N266	N	0.467072	0.090429	0.817209
	N267	N	0.534942	0.913600	0.818836
	N268	N	0.915840	0.178875	0.463266
	N269	N	0.088583	0.180564	0.534293
	N270	N	0.085334	0.823375	0.464793
	N271	N	0.912094	0.819320	0.534101
	N272	N	0.182647	0.465045	0.908690
	N273	N	0.179638	0.534229	0.084192
	N274	N	0.818518	0.465251	0.087505
	N275	N	0.821425	0.534535	0.912068
	O276	O	0.785527	0.788369	0.210530
	H277	H	0.780395	0.835995	0.214643
	H278	H	0.753259	0.757988	0.245358
	O279	O	-0.059998	-0.082567	0.789266
	H280	H	-0.060651	-0.065419	0.802442
	H281	H	-0.077814	-0.067022	0.792905
	O282	O	0.539396	0.704365	0.488411
	H283	H	0.537697	0.703553	0.476637
	H284	H	0.524611	0.696388	0.489643
	O285	O	0.311972	0.603133	0.481408
	H286	H	0.305324	0.588726	0.493119
	H287	H	0.311231	0.601022	0.470733
	O288	O	0.808725	-0.189342	0.807736
	H289	H	0.823984	-0.168978	0.825319
	H290	H	0.821411	-0.177316	0.812307
	O291	O	1.011417	0.939987	0.945024
	H292	H	1.014647	0.931407	0.941782
	H293	H	1.008907	0.950933	0.950200
	O294	O	0.233128	0.047914	-0.060701
	H295	H	0.236721	0.049226	-0.048472
	H296	H	0.237183	0.059409	-0.064926
	O297	O	0.969873	-0.220902	0.220111
	H298	H	0.959810	-0.242523	0.236941
	H299	H	0.931914	-0.224680	0.221858
	O300	O	0.016676	0.218677	0.214561
	H301	H	0.045311	0.228638	0.229009
	H302	H	0.038526	0.222015	0.225462
	O303	O	0.057730	0.047851	-0.192621
	H304	H	0.060537	0.045045	-0.184554
	H305	H	0.066198	0.044785	-0.187113
	O306	O	1.214597	-0.213150	-0.022769
	H307	H	1.211741	-0.216576	-0.028577
	H308	H	1.219431	-0.230756	-0.032257
	O309	O	0.688715	0.687294	0.316281
	H310	H	0.673744	0.672154	0.340941
	H311	H	0.667742	0.666900	0.330434
	O312	O	0.618725	0.294912	0.478613
	H313	H	0.632267	0.306805	0.485444
	H314	H	0.618255	0.294960	0.457398
	O315	O	0.415243	0.664904	0.619580
	H316	H	0.420993	0.660866	0.625195
	H317	H	0.408344	0.663317	0.625403
	O318	O	0.801868	0.912163	-0.048319
	H319	H	0.817933	0.906060	-0.067085
	H320	H	0.787369	0.879585	-0.037192
	O321	O	0.199199	0.802519	0.806155
	H322	H	0.172867	0.796375	0.801151
	H323	H	0.193155	0.821944	0.814630
	O324	O	0.788696	0.212671	0.971224
	H325	H	0.802544	0.220614	0.989780
	H326	H	0.783675	0.223593	0.983750
	O327	O	0.715705	0.531620	0.718955
	H328	H	0.740743	0.535235	0.748644
	H329	H	0.708680	0.575323	0.714527
	O330	O	0.219570	1.022377	0.212975
	H331	H	0.216168	1.018416	0.212359
	H332	H	0.237833	1.018520	0.222184
	O333	O	0.544461	0.299287	0.549885
	H334	H	0.551884	0.293842	0.547656
	H335	H	0.549587	0.302585	0.568153
	O336	O	0.524674	0.577340	0.382403
	H337	H	0.512326	0.586700	0.403125
	H338	H	0.508155	0.579640	0.384633
	O339	O	0.486126	0.505795	0.395516
	H340	H	0.502837	0.515850	0.398572
	H341	H	0.493815	0.487297	0.394552
	O342	O	0.035281	0.784688	-0.219227
	H343	H	0.027242	0.767619	-0.250246
	H344	H	0.016556	0.800174	-0.216264
	O345	O	0.457380	0.547311	0.713945
	H346	H	0.468279	0.579971	0.720030
	H347	H	0.454912	0.538471	0.705420
	O348	O	0.511900	0.663720	0.707148
	H349	H	0.517956	0.673193	0.703075
	H350	H	0.519218	0.666334	0.713752
	O351	O	0.180201	0.182492	1.183126
	H352	H	0.180186	0.171067	1.147245
	H353	H	0.191481	0.155427	1.172592
	O354	O	0.778759	-0.037703	1.220635
	H355	H	0.776085	-0.023096	1.239574
	H356	H	0.773821	-0.021722	1.217082
	O357	O	0.318669	0.429931	0.398105
	H358	H	0.323415	0.431373	0.418867
	H359	H	0.329333	0.414424	0.398565
	O360	O	0.313478	0.548095	0.552244
	H361	H	0.324243	0.527161	0.566229
	H362	H	0.309470	0.547000	0.558653
	O363	O	0.680511	0.320642	0.317269
	H364	H	0.672257	0.328655	0.324184
	H365	H	0.695294	0.324475	0.315474
	O366	O	0.756786	0.232741	0.763254
	H367	H	0.737400	0.243641	0.795773
	H368	H	0.794206	0.226752	0.769420
	O369	O	-0.034691	0.032339	0.982972
	H370	H	-0.043675	0.021367	0.992799
	H371	H	-0.037469	0.019665	0.989521
	O372	O	-0.048976	1.061015	1.184542
	H373	H	-0.039539	1.036860	1.182943
	H374	H	-0.046802	1.063844	1.186638
	O375	O	1.217939	-0.058315	0.044864
	H376	H	1.214630	-0.060617	0.048828
	H377	H	1.217327	-0.075165	0.036092
	O378	O	0.494300	0.495778	0.275785
	H379	H	0.492562	0.513287	0.283073
	H380	H	0.478034	0.507443	0.279106
	O381	O	-0.040101	1.170916	-0.173644
	H382	H	-0.033133	1.159096	-0.155037
	H383	H	-0.040552	1.156592	-0.169342
	O384	O	0.500339	0.550263	0.510808
	H385	H	0.491024	0.563876	0.508171
	H386	H	0.508022	0.523559	0.502988
	O387	O	-0.119369	1.173168	1.083181
	H388	H	-0.111891	1.172528	1.086212
	H389	H	-0.114932	1.166697	1.085327
	O390	O	0.046428	1.118876	0.972830
	H391	H	0.047369	1.143565	0.977704
	H392	H	0.046298	1.110429	0.968373
	O393	O	1.001608	0.053867	0.171134
	H394	H	1.011942	0.040881	0.185208
	H395	H	1.023178	0.043815	0.167362
	O396	O	0.286061	0.529723	0.279775
	H397	H	0.260242	0.523991	0.256724
	H398	H	0.294939	0.502647	0.297317
	O399	O	0.691908	0.544867	0.460825
	H400	H	0.685934	0.529303	0.486276
	H401	H	0.696306	0.538655	0.443325
	O402	O	0.961086	0.223429	0.776938
	H403	H	0.960584	0.221747	0.766450
	H404	H	0.970118	0.234055	0.753330
	O405	O	0.697860	0.496357	0.312857
	H406	H	0.714630	0.481647	0.301925
	H407	H	0.683036	0.508937	0.303242
	O408	O	0.786588	1.019016	0.779598
	H409	H	0.778808	1.032798	0.785507
	H410	H	0.774470	1.040666	0.773876
	O411	O	0.976029	0.779527	-0.036586
	H412	H	1.005434	0.776292	-0.034565
	H413	H	0.968525	0.782476	-0.044256
	O414	O	0.137114	-0.131594	0.201966
	H415	H	0.130284	-0.129594	0.194618
	H416	H	0.139485	-0.143870	0.208230
	O417	O	0.342884	0.325498	0.676065
	H418	H	0.360000	0.313341	0.660385
	H419	H	0.347390	0.335095	0.656406
	O420	O	1.108298	0.179905	0.866068
	H421	H	1.105134	0.180911	0.860399
	H422	H	1.101589	0.169416	0.868650
	O423	O	1.005343	1.157230	0.016551
	H424	H	0.992453	1.146696	0.023673
	H425	H	0.996031	1.155238	0.006318
	O426	O	0.287542	0.287803	0.520397
	H427	H	0.297134	0.281820	0.502560
	H428	H	0.281823	0.259813	0.514709
	O429	O	0.288523	0.481318	0.706455
	H430	H	0.275849	0.476202	0.722521
	H431	H	0.295594	0.459985	0.715858
	O432	O	0.883504	0.131168	1.141160
	H433	H	0.894369	0.114349	1.133885
	H434	H	0.892783	0.137828	1.142443
	O435	O	0.705857	0.703496	0.704818
	H436	H	0.680528	0.710579	0.678814
	H437	H	0.734606	0.729864	0.722424
	O438	O	0.295855	0.702439	0.394568
	H439	H	0.285070	0.700178	0.404219
	H440	H	0.286377	0.692917	0.396505
	O441	O	0.775311	0.779256	0.029703
	H442	H	0.763074	0.755669	0.041188
	H443	H	0.773887	0.773486	0.064686
	O444	O	0.470995	0.708425	0.286532
	H445	H	0.448218	0.718174	0.277852
	H446	H	0.444867	0.721683	0.280088
	O447	O	0.482279	0.301745	0.699221
	H448	H	0.494424	0.327363	0.697039
	H449	H	0.482358	0.286081	0.719964
	O450	O	1.208076	-0.019184	-0.225326
	H451	H	1.208891	-0.028279	-0.215003
	H452	H	1.229839	-0.019348	-0.248290
	O453	O	0.707155	0.407499	0.530635
	H454	H	0.708389	0.415943	0.540222
	H455	H	0.702889	0.405397	0.557199
	O456	O	0.154436	1.097431	0.988385
	H457	H	0.157042	1.102699	0.982348
	H458	H	0.147228	1.110336	0.986823
	O459	O	0.591211	0.466049	0.657939
	H460	H	0.603871	0.467781	0.655329
	H461	H	0.578290	0.476205	0.671058
	O462	O	0.483483	0.281346	0.346892
	H463	H	0.496268	0.259239	0.307516
	H464	H	0.526162	0.288210	0.364983
	O465	O	0.673549	0.686961	0.563015
	H466	H	0.680634	0.691087	0.561832
	H467	H	0.658480	0.682141	0.559334
	O468	O	0.253853	0.745307	0.253342
	H469	H	0.249524	0.736725	0.240352
	H470	H	0.247962	0.732092	0.267445
	O471	O	0.504892	0.345178	0.405481
	H472	H	0.497802	0.355374	0.388404
	H473	H	0.521725	0.336085	0.388569
	O474	O	1.070025	0.811102	0.058625
	H475	H	1.049776	0.801214	0.070875
	H476	H	1.070989	0.815815	0.053100
	O477	O	-0.179199	-0.002326	1.083180
	H478	H	-0.184731	-0.003406	1.094149
	H479	H	-0.179431	0.006154	1.077200
