data_Molecule from HDF5

_cell_length_a		16.493698
_cell_length_b		16.689842
_cell_length_c		16.622186
_cell_angle_alpha	89.933578
_cell_angle_beta	89.937715
_cell_angle_gamma	90.100916
_symmetry_space_group_name_H-M	'P 1'
_symmetry_Int_Tables_number		1

loop_
	_symmetry_equiv_pos_as_xyz
	x,y,z

loop_
	_atom_site_label
	_atom_site_type_symbol
	_atom_site_fract_x
	_atom_site_fract_y
	_atom_site_fract_z
	H0	H	0.400917	0.837334	0.714639
	H1	H	0.615621	0.146873	0.713874
	H2	H	0.617098	0.837177	0.267401
	H3	H	0.404043	0.145723	0.267986
	H4	H	0.730808	0.386571	0.835752
	H5	H	0.734009	0.599745	0.144670
	H6	H	0.290665	0.592837	0.834394
	H7	H	0.290110	0.388795	0.149265
	H8	H	0.851201	0.712689	0.386300
	H9	H	0.164829	0.713037	0.596351
	H10	H	0.852619	0.269793	0.598140
	H11	H	0.164055	0.270369	0.384823
	H12	H	0.851950	0.387842	0.711892
	H13	H	0.166722	0.594786	0.709589
	H14	H	0.851214	0.596714	0.270242
	H15	H	0.163820	0.387405	0.270763
	H16	H	0.404610	0.711298	0.834985
	H17	H	0.619988	0.717582	0.143524
	H18	H	0.618020	0.267112	0.837783
	H19	H	0.404673	0.270239	0.148086
	H20	H	0.730731	0.836246	0.385331
	H21	H	0.732090	0.146396	0.597284
	H22	H	0.287707	0.835624	0.595271
	H23	H	0.286884	0.146522	0.384447
	H24	H	0.898908	0.336579	0.216871
	H25	H	0.115552	0.644800	0.215406
	H26	H	0.115686	0.337246	0.768982
	H27	H	0.898890	0.643105	0.764853
	H28	H	0.224362	0.891770	0.332867
	H29	H	0.227150	0.093799	0.647895
	H30	H	0.783837	0.099910	0.335165
	H31	H	0.790340	0.891716	0.648216
	H32	H	0.352418	0.212986	0.886128
	H33	H	0.665259	0.217142	0.101368
	H34	H	0.353072	0.770080	0.097157
	H35	H	0.664038	0.769327	0.883960
	H36	H	0.352599	0.887301	0.210954
	H37	H	0.664290	0.102953	0.217832
	H38	H	0.351194	0.095631	0.772523
	H39	H	0.665231	0.887728	0.769987
	H40	H	0.899385	0.216881	0.336050
	H41	H	0.111740	0.210601	0.648008
	H42	H	0.110555	0.772493	0.335340
	H43	H	0.903989	0.772576	0.647319
	H44	H	0.229524	0.335846	0.887747
	H45	H	0.230369	0.646202	0.097070
	H46	H	0.784018	0.335527	0.100265
	H47	H	0.784426	0.643751	0.882748
	H48	H	0.422054	0.100341	0.578256
	H49	H	0.596131	0.881050	0.580553
	H50	H	0.594202	0.099899	0.406151
	H51	H	0.419186	0.879701	0.399759
	H52	H	0.594864	0.403705	0.101652
	H53	H	0.602582	0.578874	0.877298
	H54	H	0.418071	0.579781	0.104072
	H55	H	0.422704	0.400253	0.881186
	H56	H	0.121774	0.580065	0.398759
	H57	H	0.896256	0.581853	0.579052
	H58	H	0.121673	0.403729	0.581258
	H59	H	0.895745	0.408986	0.402046
	H60	H	0.122708	0.399854	0.581711
	H61	H	0.896924	0.578601	0.579262
	H62	H	0.119409	0.584996	0.407110
	H63	H	0.893434	0.398691	0.402960
	H64	H	0.422853	0.581132	0.101987
	H65	H	0.592624	0.572724	0.885142
	H66	H	0.595390	0.403454	0.102215
	H67	H	0.417813	0.396450	0.877433
	H68	H	0.597277	0.102132	0.403349
	H69	H	0.596989	0.881159	0.579940
	H70	H	0.414467	0.103408	0.579369
	H71	H	0.416194	0.879222	0.400895
	H72	H	0.925091	0.599866	0.082503
	H73	H	0.097553	0.381856	0.076214
	H74	H	0.106778	0.603822	0.907397
	H75	H	0.922650	0.378852	0.895963
	H76	H	0.097473	0.900948	0.604578
	H77	H	0.095516	0.083966	0.379697
	H78	H	0.926217	0.082094	0.599544
	H79	H	0.918358	0.897156	0.376519
	H80	H	0.622069	0.079901	0.899977
	H81	H	0.399534	0.079555	0.076399
	H82	H	0.621723	0.905256	0.080424
	H83	H	0.396831	0.902759	0.904594
	H84	H	0.622546	0.901120	0.078045
	H85	H	0.399905	0.077707	0.079407
	H86	H	0.621703	0.083641	0.903584
	H87	H	0.395839	0.903889	0.901140
	H88	H	0.916378	0.083601	0.604303
	H89	H	0.098519	0.082414	0.378049
	H90	H	0.098519	0.901059	0.604046
	H91	H	0.916495	0.904900	0.378137
	H92	H	0.101568	0.606881	0.891534
	H93	H	0.101532	0.377551	0.083706
	H94	H	0.923120	0.598444	0.076504
	H95	H	0.930345	0.384957	0.907734
	H96	H	0.419689	0.104011	0.585471
	H97	H	0.596818	0.880781	0.581303
	H98	H	0.593061	0.101170	0.401539
	H99	H	0.416680	0.878784	0.397833
	H100	H	0.595083	0.404450	0.101711
	H101	H	0.590571	0.585477	0.880496
	H102	H	0.420304	0.584984	0.105088
	H103	H	0.416550	0.402893	0.879135
	H104	H	0.117180	0.575367	0.406377
	H105	H	0.894826	0.580265	0.581923
	H106	H	0.121046	0.401082	0.578227
	H107	H	0.898261	0.403549	0.411130
	H108	H	0.918948	0.601192	0.080700
	H109	H	0.092350	0.380374	0.084154
	H110	H	0.090638	0.600158	0.902474
	H111	H	0.915602	0.380447	0.909187
	H112	H	0.097959	0.901642	0.603903
	H113	H	0.095641	0.080398	0.380321
	H114	H	0.918821	0.074389	0.598928
	H115	H	0.924137	0.901467	0.381187
	H116	H	0.620692	0.078689	0.904213
	H117	H	0.398393	0.080473	0.078873
	H118	H	0.620363	0.904874	0.075644
	H119	H	0.395476	0.900220	0.901763
	C120	C	0.386753	-0.000299	0.612519
	C121	C	0.629659	0.983534	0.612619
	C122	C	0.629423	-0.000474	0.369622
	C123	C	0.386296	0.982464	0.368226
	C124	C	0.629580	0.370691	-0.000215
	C125	C	0.630509	0.612923	0.982346
	C126	C	0.388390	0.612670	-0.000079
	C127	C	0.387448	0.369237	0.983311
	C128	C	0.015900	0.612301	0.371252
	C129	C	0.999860	0.612461	0.612275
	C130	C	0.017737	0.370095	0.612718
	C131	C	0.998940	0.371277	0.371969
	C132	C	0.887053	0.498216	0.113770
	C133	C	0.130096	0.482304	0.113882
	C134	C	0.131143	0.500565	0.869378
	C135	C	0.888413	0.482689	0.870341
	C136	C	0.128980	0.870337	0.500092
	C137	C	0.128983	0.113346	0.482623
	C138	C	0.886681	0.113459	0.498431
	C139	C	0.887552	0.870444	0.482334
	C140	C	0.517714	0.113000	0.870619
	C141	C	0.501981	0.112870	0.112724
	C142	C	0.518175	0.870922	0.111131
	C143	C	0.499598	0.870439	0.869816
	C144	C	0.383616	0.883509	0.673328
	C145	C	0.633145	0.100152	0.673233
	C146	C	0.634030	0.883321	0.308100
	C147	C	0.385158	0.099401	0.308425
	C148	C	0.691003	0.367611	0.882828
	C149	C	0.693146	0.617318	0.098047
	C150	C	0.329897	0.612337	0.881651
	C151	C	0.329103	0.369027	0.101800
	C152	C	0.898301	0.672563	0.368151
	C153	C	0.117991	0.672772	0.614330
	C154	C	0.899596	0.310309	0.615751
	C155	C	0.116944	0.311029	0.367950
	C156	C	0.899427	0.368661	0.672542
	C157	C	0.118877	0.613964	0.670676
	C158	C	0.897994	0.614631	0.310712
	C159	C	0.116839	0.368859	0.310911
	C160	C	0.386740	0.671172	0.881880
	C161	C	0.636374	0.676066	0.097495
	C162	C	0.634696	0.308534	0.883780
	C163	C	0.385931	0.310153	0.101157
	C164	C	0.690734	0.883054	0.366718
	C165	C	0.691030	0.100116	0.615152
	C166	C	0.326895	0.882729	0.614300
	C167	C	0.327165	0.099762	0.366490
	C168	C	0.881906	0.382723	0.176000
	C169	C	0.133380	0.598440	0.174816
	C170	C	0.133665	0.383631	0.809372
	C171	C	0.882508	0.597218	0.806726
	C172	C	0.185776	0.871414	0.380735
	C173	C	0.188194	0.113702	0.600514
	C174	C	0.824619	0.117525	0.382075
	C175	C	0.829077	0.871356	0.600883
	C176	C	0.399605	0.173006	0.868278
	C177	C	0.618442	0.175974	0.118214
	C178	C	0.400204	0.810498	0.114507
	C179	C	0.617513	0.810110	0.866626
	C180	C	0.399961	0.868793	0.171345
	C181	C	0.618000	0.118840	0.176265
	C182	C	0.399047	0.114611	0.811554
	C183	C	0.618119	0.868909	0.810043
	C184	C	0.882306	0.175686	0.382445
	C185	C	0.130704	0.171670	0.600660
	C186	C	0.129320	0.812264	0.381890
	C187	C	0.885708	0.812377	0.600556
	C188	C	0.190331	0.383114	0.868420
	C189	C	0.190570	0.599183	0.116060
	C190	C	0.824602	0.382508	0.117553
	C191	C	0.825476	0.597625	0.865421
	C192	C	0.411664	0.081543	0.587894
	C193	C	0.603970	0.902264	0.587597
	C194	C	0.602458	0.080145	0.395968
	C195	C	0.410336	0.900463	0.392608
	C196	C	0.602821	0.396666	0.080833
	C197	C	0.603211	0.586434	0.901707
	C198	C	0.413203	0.588814	0.082264
	C199	C	0.411755	0.393109	0.900888
	C200	C	0.098161	0.587298	0.396626
	C201	C	0.917426	0.587335	0.587379
	C202	C	0.100450	0.394703	0.587659
	C203	C	0.917066	0.396454	0.398059
	C204	C	0.914520	0.579037	0.087335
	C205	C	0.104363	0.401055	0.088492
	C206	C	0.106615	0.582211	0.893532
	C207	C	0.915482	0.402346	0.896952
	C208	C	0.105002	0.894302	0.582551
	C209	C	0.103748	0.089107	0.400659
	C210	C	0.912999	0.087348	0.579790
	C211	C	0.912408	0.894409	0.399999
	C212	C	0.600103	0.087939	0.895426
	C213	C	0.420399	0.086573	0.085946
	C214	C	0.600301	0.896520	0.085526
	C215	C	0.417372	0.895261	0.895220
	Zn216	Zn	0.508364	-0.008106	0.742153
	Zn217	Zn	0.509803	-0.008695	0.240241
	Zn218	Zn	0.758954	0.490613	-0.008588
	Zn219	Zn	0.259051	0.491244	-0.007829
	Zn220	Zn	0.007873	0.741014	0.491579
	Zn221	Zn	0.007966	0.242129	0.491227
	Zn222	Zn	0.009597	0.491502	0.740401
	Zn223	Zn	0.007601	0.491229	0.242730
	Zn224	Zn	0.509099	0.742077	-0.009085
	Zn225	Zn	0.509727	0.241056	-0.007720
	Zn226	Zn	0.758479	-0.008491	0.490194
	Zn227	Zn	0.257823	-0.008399	0.490785
	N228	N	0.420156	0.957489	0.672515
	N229	N	0.595416	0.026761	0.671713
	N230	N	0.596724	0.956879	0.309770
	N231	N	0.421125	0.025338	0.309223
	N232	N	0.687637	0.405697	0.955974
	N233	N	0.689756	0.578864	0.025368
	N234	N	0.330651	0.576725	0.956244
	N235	N	0.329729	0.404855	0.027321
	N236	N	0.972638	0.671196	0.405047
	N237	N	0.042731	0.672286	0.579008
	N238	N	0.974388	0.311006	0.579370
	N239	N	0.042655	0.312288	0.405102
	N240	N	0.974094	0.405122	0.670921
	N241	N	0.044312	0.577336	0.669727
	N242	N	0.972343	0.577795	0.312580
	N243	N	0.042616	0.405725	0.313273
	N244	N	0.422226	0.671644	0.956632
	N245	N	0.598154	0.673659	0.024228
	N246	N	0.597177	0.310390	0.957496
	N247	N	0.421280	0.309866	0.026309
	N248	N	0.688043	0.956370	0.404262
	N249	N	0.688808	0.026772	0.577828
	N250	N	0.328866	0.956000	0.576913
	N251	N	0.327740	0.025931	0.403007
	N252	N	0.919732	0.455931	0.173854
	N253	N	0.096390	0.524724	0.173562
	N254	N	0.097787	0.457715	0.809525
	N255	N	0.920977	0.524474	0.809466
	N256	N	0.185966	0.906625	0.455314
	N257	N	0.187473	0.078223	0.525921
	N258	N	0.826994	0.079692	0.455446
	N259	N	0.829909	0.906520	0.526167
	N260	N	0.474705	0.172553	0.904029
	N261	N	0.545290	0.172169	0.078952
	N262	N	0.474833	0.811518	0.078001
	N263	N	0.542843	0.811086	0.903019
	N264	N	0.474343	0.905792	0.169491
	N265	N	0.544471	0.080183	0.172835
	N266	N	0.473638	0.078184	0.812575
	N267	N	0.543751	0.905689	0.811736
	N268	N	0.919812	0.173475	0.456111
	N269	N	0.094808	0.171752	0.526158
	N270	N	0.095199	0.811203	0.457292
	N271	N	0.920933	0.811413	0.525729
	N272	N	0.189273	0.456913	0.904740
	N273	N	0.188721	0.525819	0.078767
	N274	N	0.827618	0.455773	0.079473
	N275	N	0.829264	0.525402	0.904481
	O276	O	0.116851	0.984007	0.101336
	H277	H	0.118186	0.983764	0.115040
	H278	H	0.122185	0.985112	0.102689
	O279	O	0.474088	0.457589	0.312023
	H280	H	0.480772	0.470977	0.308800
	H281	H	0.456386	0.459383	0.314868
	O282	O	0.848654	0.030023	0.935641
	H283	H	0.846911	0.028135	0.941399
	H284	H	0.852990	0.029163	0.938815
	O285	O	0.214339	0.785530	0.835001
	H286	H	0.227536	0.781643	0.841410
	H287	H	0.197607	0.796712	0.821478
	O288	O	0.534290	0.556082	0.441082
	H289	H	0.544674	0.566100	0.443225
	H290	H	0.535670	0.549752	0.437720
	O291	O	0.479667	0.259592	0.465726
	H292	H	0.484750	0.266525	0.482596
	H293	H	0.469272	0.252712	0.479493
	O294	O	0.726225	0.276235	0.707900
	H295	H	0.731197	0.283083	0.716038
	H296	H	0.719663	0.272116	0.687216
	O297	O	0.475872	0.705461	0.271307
	H298	H	0.496941	0.714221	0.261555
	H299	H	0.483041	0.709190	0.269993
	O300	O	-0.153029	0.203776	0.784131
	H301	H	-0.130949	0.198857	0.793143
	H302	H	-0.150481	0.220585	0.770409
	O303	O	0.477216	0.488049	0.438126
	H304	H	0.473632	0.492702	0.446328
	H305	H	0.479830	0.488654	0.441511
	O306	O	0.347024	0.411182	0.479708
	H307	H	0.343645	0.420658	0.488098
	H308	H	0.342813	0.426153	0.503516
	O309	O	0.533383	0.713958	0.712042
	H310	H	0.552569	0.720943	0.723654
	H311	H	0.566738	0.723586	0.723391
	O312	O	0.710710	0.701233	0.696836
	H313	H	0.741473	0.719188	0.728287
	H314	H	0.720018	0.656022	0.707641
	O315	O	1.026619	0.815488	0.885163
	H316	H	1.026913	0.825045	0.894421
	H317	H	1.040586	0.817539	0.887259
	O318	O	0.548302	0.303568	0.564138
	H319	H	0.535640	0.308403	0.577275
	H320	H	0.548662	0.304289	0.556845
	O321	O	0.190927	0.809758	1.176300
	H322	H	0.199626	0.797222	1.183650
	H323	H	0.184191	0.821913	1.187419
	O324	O	1.003210	0.971268	0.195303
	H325	H	1.001632	0.982872	0.206719
	H326	H	1.022292	0.977575	0.182532
	O327	O	0.037396	0.207251	1.210582
	H328	H	0.040921	0.234392	1.223850
	H329	H	0.025062	0.200029	1.200254
	O330	O	0.724518	0.272324	0.465027
	H331	H	0.727365	0.265269	0.446051
	H332	H	0.728819	0.250204	0.465368
	O333	O	0.573514	0.629323	0.508000
	H334	H	0.553492	0.631469	0.523446
	H335	H	0.580691	0.631516	0.506188
	O336	O	0.529345	0.288297	0.288305
	H337	H	0.510306	0.280154	0.306006
	H338	H	0.514464	0.293539	0.286632
	O339	O	0.817629	-0.204625	0.798640
	H340	H	0.836633	-0.184168	0.816839
	H341	H	0.838998	-0.188565	0.816016
	O342	O	-0.000431	-0.122378	0.203366
	H343	H	-0.002067	-0.107950	0.208398
	H344	H	-0.000273	-0.122474	0.205031
	O345	O	0.218929	1.020912	0.917418
	H346	H	0.218183	1.010968	0.926193
	H347	H	0.211175	1.033056	0.914890
	O348	O	0.318101	0.308329	0.308127
	H349	H	0.331710	0.319032	0.334892
	H350	H	0.330980	0.321073	0.317463
	O351	O	0.652341	0.637761	0.287338
	H352	H	0.665039	0.649778	0.273042
	H353	H	0.642047	0.639532	0.313645
	O354	O	-0.044272	0.188576	1.030228
	H355	H	-0.041696	0.181633	1.036296
	H356	H	-0.068032	0.195069	1.025812
	O357	O	0.434492	0.549371	0.524428
	H358	H	0.442980	0.541111	0.508537
	H359	H	0.427940	0.567640	0.530998
	O360	O	0.477617	0.268693	0.707049
	H361	H	0.487174	0.252514	0.732821
	H362	H	0.494174	0.295899	0.713256
	O363	O	-0.068855	0.119000	0.121588
	H364	H	-0.058271	0.122126	0.119858
	H365	H	-0.079055	0.112796	0.111117
	O366	O	0.609818	0.464344	0.715329
	H367	H	0.622648	0.465679	0.710384
	H368	H	0.610578	0.468409	0.711301
	O369	O	1.034958	0.003992	-0.198904
	H370	H	1.042367	0.012300	-0.189911
	H371	H	1.040835	0.009230	-0.207366
	O372	O	0.795804	0.772603	0.009520
	H373	H	0.811347	0.773808	0.014345
	H374	H	0.773563	0.751133	0.014083
	O375	O	0.835851	-0.068406	-0.032227
	H376	H	0.833814	-0.067749	-0.042159
	H377	H	0.833713	-0.063343	-0.029542
	O378	O	0.430195	0.531505	0.481784
	H379	H	0.447581	0.525588	0.470691
	H380	H	0.416980	0.550452	0.473993
	O381	O	0.081464	0.777207	0.777988
	H382	H	0.081832	0.779717	0.767579
	H383	H	0.072611	0.778032	0.775810
	O384	O	0.816958	0.008081	1.088810
	H385	H	0.817544	0.012301	1.066152
	H386	H	0.831319	0.024635	1.089313
	O387	O	0.962301	0.855468	0.115037
	H388	H	0.960944	0.850390	0.123871
	H389	H	0.968622	0.863254	0.115002
	O390	O	0.301958	0.508277	0.285153
	H391	H	0.295760	0.512037	0.292646
	H392	H	0.298425	0.503117	0.276940
	O393	O	0.725581	0.460882	0.270544
	H394	H	0.717547	0.451798	0.279240
	H395	H	0.754968	0.463387	0.238300
	O396	O	-0.067905	0.972935	0.910708
	H397	H	-0.067040	0.973993	0.912680
	H398	H	-0.067736	0.972079	0.919597
	O399	O	-0.202822	0.017961	0.782728
	H400	H	-0.192074	0.020839	0.785158
	H401	H	-0.217769	0.031411	0.770425
	O402	O	0.679702	0.562885	0.453471
	H403	H	0.685362	0.552053	0.442715
	H404	H	0.687135	0.585248	0.450517
	O405	O	0.990360	0.162653	0.777834
	H406	H	0.993433	0.164295	0.787097
	H407	H	0.996531	0.187833	0.777045
	O408	O	0.230354	0.214703	0.025840
	H409	H	0.235587	0.204629	0.034287
	H410	H	0.258337	0.236144	0.037660
	O411	O	0.731852	0.718111	0.526811
	H412	H	0.742467	0.729691	0.552778
	H413	H	0.744827	0.734104	0.553216
	O414	O	0.547323	0.600591	0.321443
	H415	H	0.550697	0.620312	0.323827
	H416	H	0.567531	0.603002	0.317862
	O417	O	0.290719	0.446784	0.708195
	H418	H	0.274294	0.464222	0.731388
	H419	H	0.302901	0.464007	0.709449
	O420	O	0.219719	0.809598	0.987252
	H421	H	0.227020	0.810056	0.974502
	H422	H	0.228933	0.804053	0.987442
	O423	O	0.062020	0.221826	0.923221
	H424	H	0.089840	0.222173	0.929036
	H425	H	0.066191	0.216434	0.938746
	O426	O	0.282185	0.715927	0.454387
	H427	H	0.269388	0.736888	0.456323
	H428	H	0.275905	0.720479	0.435972
	O429	O	0.947679	0.752184	0.932339
	H430	H	0.962212	0.747506	0.946435
	H431	H	0.954728	0.751728	0.929256
	O432	O	0.320446	0.290042	0.682424
	H433	H	0.370571	0.283233	0.686282
	H434	H	0.311392	0.337535	0.684633
	O435	O	-0.203997	0.989409	0.195367
	H436	H	-0.212349	0.986895	0.202071
	H437	H	-0.208916	0.985788	0.199379
	O438	O	0.138538	0.019214	-0.041646
	H439	H	0.149426	0.002554	-0.026389
	H440	H	0.130935	0.042003	-0.033678
	O441	O	0.210229	0.200032	0.194561
	H442	H	0.211406	0.213925	0.216027
	H443	H	0.204618	0.207161	0.187227
	O444	O	0.438653	0.615631	0.668248
	H445	H	0.445793	0.607014	0.645071
	H446	H	0.463589	0.639256	0.674266
	O447	O	0.148552	0.947560	0.792606
	H448	H	0.161440	0.941134	0.793583
	H449	H	0.149294	0.949864	0.790559
	O450	O	0.141002	0.827584	1.038488
	H451	H	0.158850	0.821154	1.041381
	H452	H	0.133671	0.824209	1.056489
	O453	O	0.200693	0.188819	0.798893
	H454	H	0.207353	0.182176	0.808635
	H455	H	0.223150	0.191126	0.781825
	O456	O	0.225432	0.030622	1.208544
	H457	H	0.238428	0.053220	1.219108
	H458	H	0.234993	0.038356	1.216183
	O459	O	0.814490	0.794999	0.193196
	H460	H	0.834773	0.791696	0.173155
	H461	H	0.815450	0.834702	0.189533
	O462	O	0.691168	0.305186	0.307995
	H463	H	0.702398	0.329121	0.321904
	H464	H	0.638013	0.295268	0.297255
	O465	O	1.073444	0.037859	-0.048591
	H466	H	1.068993	0.038606	-0.042257
	H467	H	1.070302	0.038463	-0.040335
	O468	O	0.431714	0.472879	0.523251
	H469	H	0.450420	0.484824	0.512093
	H470	H	0.426993	0.477241	0.524260
	O471	O	0.450132	0.717341	0.543566
	H472	H	0.459113	0.720035	0.571666
	H473	H	0.434969	0.711694	0.547567
	O474	O	0.297524	0.703608	0.281187
	H475	H	0.323746	0.682053	0.276092
	H476	H	0.302232	0.693796	0.292605
	O477	O	0.330883	0.525911	1.578423
	H478	H	0.339551	0.545099	1.569228
	H479	H	0.337874	0.520567	1.584662
	O480	O	0.287854	0.263947	0.519415
	H481	H	0.272846	0.250353	0.549138
	H482	H	0.273842	0.261440	0.539074
	O483	O	0.726909	0.433371	0.565481
	H484	H	0.734425	0.413709	0.542849
	H485	H	0.721851	0.439195	0.540827
	O486	O	0.682072	0.475845	0.696390
	H487	H	0.699705	0.466858	0.701293
	H488	H	0.689370	0.466707	0.675202
	O489	O	0.793708	1.210009	-0.034949
	H490	H	0.781926	1.218429	-0.056245
	H491	H	0.782926	1.209299	-0.041189
