data_Molecule from HDF5

_cell_length_a		16.313687
_cell_length_b		16.317901
_cell_length_c		16.317900
_cell_angle_alpha	89.957937
_cell_angle_beta	90.000465
_cell_angle_gamma	90.016023
_symmetry_space_group_name_H-M	'P 1'
_symmetry_Int_Tables_number		1

loop_
	_symmetry_equiv_pos_as_xyz
	x,y,z

loop_
	_atom_site_label
	_atom_site_type_symbol
	_atom_site_fract_x
	_atom_site_fract_y
	_atom_site_fract_z
	H0	H	0.402501	0.836296	0.714397
	H1	H	0.598742	0.163192	0.714466
	H2	H	0.597721	0.836059	0.285628
	H3	H	0.402457	0.164017	0.285832
	H4	H	0.713681	0.402333	0.836358
	H5	H	0.713846	0.597151	0.163267
	H6	H	0.286349	0.597483	0.836024
	H7	H	0.286545	0.403002	0.163610
	H8	H	0.836139	0.713471	0.402813
	H9	H	0.163273	0.714505	0.597299
	H10	H	0.836946	0.284999	0.598653
	H11	H	0.163141	0.286095	0.400860
	H12	H	0.836989	0.401781	0.714732
	H13	H	0.164326	0.598888	0.714470
	H14	H	0.836846	0.598559	0.285099
	H15	H	0.162905	0.401422	0.284646
	H16	H	0.402891	0.713430	0.836191
	H17	H	0.597287	0.713387	0.163436
	H18	H	0.597157	0.286052	0.836424
	H19	H	0.402493	0.285884	0.163242
	H20	H	0.714350	0.835432	0.402227
	H21	H	0.715060	0.163281	0.597445
	H22	H	0.285684	0.835994	0.597743
	H23	H	0.285801	0.163486	0.401944
	H24	H	0.900853	0.336686	0.215507
	H25	H	0.096350	0.663774	0.213419
	H26	H	0.098122	0.336724	0.786043
	H27	H	0.903454	0.663902	0.786736
	H28	H	0.213987	0.902336	0.335644
	H29	H	0.214247	0.097020	0.663375
	H30	H	0.784945	0.098162	0.336407
	H31	H	0.787018	0.903201	0.663815
	H32	H	0.336500	0.212665	0.903189
	H33	H	0.663232	0.215290	0.099536
	H34	H	0.335842	0.786952	0.097106
	H35	H	0.663524	0.786830	0.904082
	H36	H	0.336562	0.902009	0.214421
	H37	H	0.663593	0.096981	0.214675
	H38	H	0.336887	0.097612	0.785930
	H39	H	0.663917	0.902592	0.787733
	H40	H	0.900793	0.215753	0.336429
	H41	H	0.098265	0.213958	0.663834
	H42	H	0.097450	0.786171	0.336290
	H43	H	0.901087	0.785401	0.663431
	H44	H	0.215480	0.337460	0.900885
	H45	H	0.213141	0.663641	0.096951
	H46	H	0.784573	0.336499	0.098205
	H47	H	0.785885	0.664202	0.901997
	H48	H	0.391623	0.120857	0.596612
	H49	H	0.597186	0.880567	0.599790
	H50	H	0.593417	0.116055	0.405686
	H51	H	0.403710	0.883817	0.408981
	H52	H	0.589490	0.408307	0.114982
	H53	H	0.599817	0.597293	0.880502
	H54	H	0.412553	0.592409	0.113591
	H55	H	0.403114	0.406138	0.882451
	H56	H	0.115787	0.583131	0.396962
	H57	H	0.885770	0.587684	0.594058
	H58	H	0.114074	0.405761	0.585711
	H59	H	0.883078	0.401837	0.411005
	H60	H	0.115322	0.413798	0.596724
	H61	H	0.881661	0.595878	0.598409
	H62	H	0.121290	0.606527	0.402177
	H63	H	0.886579	0.413518	0.410744
	H64	H	0.404528	0.599738	0.118194
	H65	H	0.593486	0.586216	0.885427
	H66	H	0.593119	0.403009	0.117297
	H67	H	0.407789	0.410391	0.885179
	H68	H	0.591563	0.114440	0.407329
	H69	H	0.586877	0.885294	0.594935
	H70	H	0.417273	0.116530	0.605405
	H71	H	0.405807	0.882562	0.402971
	H72	H	0.910074	0.613823	0.089940
	H73	H	0.096390	0.382618	0.093061
	H74	H	0.088462	0.613927	0.912300
	H75	H	0.913374	0.386114	0.906948
	H76	H	0.091309	0.912783	0.613749
	H77	H	0.091380	0.097979	0.383904
	H78	H	0.895220	0.100955	0.621397
	H79	H	0.898950	0.901827	0.380128
	H80	H	0.613331	0.093357	0.917509
	H81	H	0.381822	0.103238	0.091208
	H82	H	0.615478	0.904430	0.088807
	H83	H	0.382120	0.903039	0.905533
	H84	H	0.615167	0.911393	0.094615
	H85	H	0.388434	0.086776	0.085419
	H86	H	0.616159	0.084183	0.899752
	H87	H	0.384704	0.906832	0.909702
	H88	H	0.906132	0.078374	0.611799
	H89	H	0.097571	0.092937	0.382296
	H90	H	0.089575	0.900485	0.616795
	H91	H	0.905333	0.915156	0.385438
	H92	H	0.101809	0.618108	0.908056
	H93	H	0.091867	0.383131	0.097379
	H94	H	0.902965	0.615880	0.091461
	H95	H	0.902218	0.384539	0.912629
	H96	H	0.410255	0.111166	0.579509
	H97	H	0.596958	0.884005	0.588009
	H98	H	0.594016	0.115186	0.408340
	H99	H	0.409894	0.885123	0.407357
	H100	H	0.596116	0.409221	0.116420
	H101	H	0.586516	0.598277	0.883679
	H102	H	0.401908	0.588402	0.116116
	H103	H	0.409743	0.403895	0.883671
	H104	H	0.111733	0.591835	0.419572
	H105	H	0.884738	0.596002	0.588769
	H106	H	0.119246	0.401018	0.596945
	H107	H	0.882184	0.407890	0.401462
	H108	H	0.908408	0.616729	0.096605
	H109	H	0.091183	0.385176	0.091510
	H110	H	0.090783	0.617919	0.898773
	H111	H	0.903732	0.381348	0.900035
	H112	H	0.100855	0.905629	0.618333
	H113	H	0.090252	0.090195	0.385570
	H114	H	0.921125	0.100926	0.613044
	H115	H	0.914262	0.902529	0.383954
	H116	H	0.620550	0.103553	0.902147
	H117	H	0.382524	0.088806	0.103245
	H118	H	0.617956	0.903459	0.097421
	H119	H	0.383475	0.909156	0.904071
	C120	C	0.378531	0.007745	0.621727
	C121	C	0.621959	0.991555	0.621775
	C122	C	0.621465	0.007254	0.379028
	C123	C	0.378179	0.991884	0.378121
	C124	C	0.621013	0.378493	0.007965
	C125	C	0.621452	0.621871	0.991419
	C126	C	0.378220	0.621649	0.007998
	C127	C	0.378588	0.378400	0.991593
	C128	C	0.008127	0.621813	0.378240
	C129	C	0.991966	0.621546	0.621611
	C130	C	0.008462	0.378612	0.621558
	C131	C	0.991691	0.378962	0.378926
	C132	C	0.878090	0.507957	0.121548
	C133	C	0.121426	0.491702	0.121750
	C134	C	0.121659	0.508430	0.878237
	C135	C	0.878402	0.492001	0.878250
	C136	C	0.121583	0.878587	0.507576
	C137	C	0.121700	0.121730	0.491907
	C138	C	0.878657	0.121788	0.507759
	C139	C	0.878605	0.878601	0.491706
	C140	C	0.508681	0.121600	0.878386
	C141	C	0.491934	0.121071	0.121709
	C142	C	0.508109	0.878251	0.121629
	C143	C	0.491526	0.878086	0.878406
	C144	C	0.381285	0.884949	0.676628
	C145	C	0.619068	0.114550	0.676335
	C146	C	0.618508	0.884397	0.323940
	C147	C	0.381398	0.114997	0.323529
	C148	C	0.675729	0.381715	0.885193
	C149	C	0.676409	0.618490	0.114431
	C150	C	0.324248	0.618128	0.884918
	C151	C	0.323909	0.381670	0.114739
	C152	C	0.885019	0.676007	0.381685
	C153	C	0.115076	0.676382	0.618103
	C154	C	0.885587	0.323333	0.619196
	C155	C	0.114438	0.323710	0.380852
	C156	C	0.885485	0.381523	0.676513
	C157	C	0.115237	0.618774	0.676144
	C158	C	0.885267	0.618936	0.323290
	C159	C	0.114422	0.381259	0.323309
	C160	C	0.381930	0.675880	0.884837
	C161	C	0.618833	0.676327	0.114379
	C162	C	0.617851	0.324027	0.885131
	C163	C	0.381419	0.323520	0.114610
	C164	C	0.676515	0.884281	0.381723
	C165	C	0.676875	0.114599	0.618439
	C166	C	0.323466	0.884972	0.618655
	C167	C	0.323592	0.114756	0.381291
	C168	C	0.880348	0.385133	0.177025
	C169	C	0.117941	0.614931	0.175917
	C170	C	0.118914	0.385764	0.823431
	C171	C	0.882178	0.615278	0.824100
	C172	C	0.176043	0.881882	0.384646
	C173	C	0.176465	0.118243	0.614769
	C174	C	0.823387	0.118835	0.384825
	C175	C	0.824037	0.881640	0.614882
	C176	C	0.385582	0.176174	0.881458
	C177	C	0.614817	0.176593	0.119378
	C178	C	0.384951	0.823937	0.118332
	C179	C	0.614727	0.824086	0.882248
	C180	C	0.385153	0.881353	0.176300
	C181	C	0.615038	0.118330	0.176919
	C182	C	0.385666	0.118686	0.823628
	C183	C	0.614753	0.881523	0.824342
	C184	C	0.880913	0.177040	0.384928
	C185	C	0.118420	0.175874	0.615106
	C186	C	0.118368	0.823947	0.384750
	C187	C	0.881146	0.823654	0.614766
	C188	C	0.177081	0.385932	0.880681
	C189	C	0.175856	0.614737	0.118182
	C190	C	0.822650	0.385208	0.118765
	C191	C	0.823778	0.615164	0.881448
	C192	C	0.400164	0.094008	0.600189
	C193	C	0.600150	0.905683	0.600322
	C194	C	0.599543	0.093010	0.400779
	C195	C	0.399888	0.905855	0.399896
	C196	C	0.599150	0.400430	0.094120
	C197	C	0.599577	0.600264	0.905494
	C198	C	0.399904	0.600069	0.093969
	C199	C	0.400437	0.400330	0.905805
	C200	C	0.094172	0.600267	0.399753
	C201	C	0.906194	0.599793	0.600147
	C202	C	0.094095	0.400397	0.599599
	C203	C	0.906106	0.401312	0.401179
	C204	C	0.900734	0.593445	0.099424
	C205	C	0.099616	0.405764	0.100414
	C206	C	0.099996	0.594658	0.900085
	C207	C	0.900014	0.406101	0.899982
	C208	C	0.100219	0.899945	0.594041
	C209	C	0.099461	0.100086	0.406158
	C210	C	0.900855	0.099755	0.593238
	C211	C	0.900037	0.900007	0.405517
	C212	C	0.594608	0.100147	0.900164
	C213	C	0.406288	0.099220	0.099893
	C214	C	0.594085	0.899973	0.099965
	C215	C	0.405428	0.899800	0.900107
	Zn216	Zn	0.499972	-0.000290	0.750296
	Zn217	Zn	0.500128	-0.000485	0.250010
	Zn218	Zn	0.749617	0.500381	-0.000357
	Zn219	Zn	0.249711	0.499966	-0.000028
	Zn220	Zn	-0.000255	0.750431	0.499840
	Zn221	Zn	0.000028	0.250438	0.499867
	Zn222	Zn	0.000286	0.500092	0.750115
	Zn223	Zn	-0.000230	0.499912	0.250631
	Zn224	Zn	0.499850	0.750178	0.000326
	Zn225	Zn	0.500432	0.249705	0.000271
	Zn226	Zn	0.750333	-0.000547	0.499950
	Zn227	Zn	0.249875	-0.000200	0.499686
	N228	N	0.414878	0.962190	0.678495
	N229	N	0.585556	0.037181	0.678436
	N230	N	0.585124	0.961814	0.322050
	N231	N	0.414688	0.037544	0.321460
	N232	N	0.677856	0.414722	0.962666
	N233	N	0.678000	0.585456	0.037042
	N234	N	0.322074	0.585140	0.962420
	N235	N	0.321943	0.414962	0.037253
	N236	N	0.962236	0.677650	0.415331
	N237	N	0.037609	0.678188	0.584875
	N238	N	0.962769	0.321642	0.585513
	N239	N	0.037342	0.322479	0.414936
	N240	N	0.962854	0.415065	0.678186
	N241	N	0.037914	0.585413	0.678301
	N242	N	0.962824	0.585967	0.321104
	N243	N	0.037249	0.414973	0.322050
	N244	N	0.415064	0.678033	0.962371
	N245	N	0.585272	0.678474	0.036949
	N246	N	0.584660	0.322193	0.962579
	N247	N	0.414542	0.321354	0.037153
	N248	N	0.678464	0.961652	0.415028
	N249	N	0.678846	0.037161	0.585230
	N250	N	0.321736	0.962430	0.585310
	N251	N	0.321658	0.037251	0.414327
	N252	N	0.914235	0.462432	0.178886
	N253	N	0.084525	0.537573	0.178101
	N254	N	0.085167	0.462990	0.822095
	N255	N	0.915224	0.537787	0.821980
	N256	N	0.178006	0.914975	0.462069
	N257	N	0.178644	0.085445	0.537284
	N258	N	0.821903	0.085197	0.462112
	N259	N	0.822608	0.915253	0.537557
	N260	N	0.463009	0.178084	0.914750
	N261	N	0.537548	0.178081	0.085806
	N262	N	0.462294	0.822288	0.084964
	N263	N	0.537180	0.821868	0.915173
	N264	N	0.462716	0.914514	0.178359
	N265	N	0.537838	0.084403	0.178438
	N266	N	0.462903	0.085248	0.821847
	N267	N	0.537205	0.914627	0.822255
	N268	N	0.914342	0.179115	0.462299
	N269	N	0.084881	0.177923	0.537667
	N270	N	0.085153	0.822069	0.462259
	N271	N	0.914341	0.821676	0.537121
	N272	N	0.178668	0.463259	0.914121
	N273	N	0.177902	0.537244	0.085207
	N274	N	0.821522	0.462203	0.084957
	N275	N	0.821595	0.537636	0.914558
