data_Molecule from HDF5

_cell_length_a		16.510748
_cell_length_b		16.596862
_cell_length_c		16.543588
_cell_angle_alpha	90.126577
_cell_angle_beta	89.885528
_cell_angle_gamma	90.052945
_symmetry_space_group_name_H-M	'P 1'
_symmetry_Int_Tables_number		1

loop_
	_symmetry_equiv_pos_as_xyz
	x,y,z

loop_
	_atom_site_label
	_atom_site_type_symbol
	_atom_site_fract_x
	_atom_site_fract_y
	_atom_site_fract_z
	H0	H	0.396113	0.838021	0.719587
	H1	H	0.608040	0.150810	0.720546
	H2	H	0.604644	0.837864	0.277816
	H3	H	0.397260	0.150642	0.278515
	H4	H	0.726191	0.386851	0.841448
	H5	H	0.720963	0.598029	0.155157
	H6	H	0.283303	0.597151	0.839470
	H7	H	0.281883	0.390015	0.154341
	H8	H	0.843245	0.710636	0.397940
	H9	H	0.156684	0.717826	0.606405
	H10	H	0.843510	0.272157	0.604273
	H11	H	0.158632	0.272094	0.393523
	H12	H	0.845209	0.386494	0.722428
	H13	H	0.159239	0.599377	0.719310
	H14	H	0.843380	0.594176	0.281907
	H15	H	0.160299	0.390043	0.279475
	H16	H	0.398979	0.713490	0.840019
	H17	H	0.605818	0.714550	0.154039
	H18	H	0.610400	0.269799	0.841457
	H19	H	0.397131	0.272305	0.154280
	H20	H	0.719604	0.836769	0.395652
	H21	H	0.723033	0.151780	0.603451
	H22	H	0.281193	0.837232	0.601942
	H23	H	0.279402	0.149250	0.392796
	H24	H	0.899395	0.335627	0.217525
	H25	H	0.102579	0.652274	0.215343
	H26	H	0.110219	0.338267	0.773733
	H27	H	0.896906	0.648817	0.776672
	H28	H	0.222957	0.887446	0.342934
	H29	H	0.224135	0.099820	0.654239
	H30	H	0.782831	0.096144	0.340614
	H31	H	0.780512	0.891254	0.655955
	H32	H	0.346527	0.216398	0.891944
	H33	H	0.657793	0.218380	0.106063
	H34	H	0.345285	0.773004	0.102159
	H35	H	0.659573	0.773520	0.892451
	H36	H	0.344874	0.889816	0.217665
	H37	H	0.658510	0.099878	0.220033
	H38	H	0.345598	0.099676	0.776804
	H39	H	0.659271	0.888879	0.775897
	H40	H	0.897568	0.213155	0.341240
	H41	H	0.107854	0.216501	0.654524
	H42	H	0.105653	0.771906	0.342936
	H43	H	0.893493	0.771627	0.655072
	H44	H	0.225872	0.337923	0.890928
	H45	H	0.219839	0.652292	0.099228
	H46	H	0.781461	0.336494	0.102944
	H47	H	0.782492	0.649739	0.894958
	H48	H	0.418093	0.103054	0.585596
	H49	H	0.584941	0.885981	0.586150
	H50	H	0.591551	0.105713	0.412263
	H51	H	0.412058	0.881149	0.408638
	H52	H	0.586346	0.399332	0.109464
	H53	H	0.597061	0.584074	0.883465
	H54	H	0.415537	0.579304	0.107300
	H55	H	0.411826	0.401615	0.883487
	H56	H	0.114433	0.586666	0.413522
	H57	H	0.888573	0.583513	0.589037
	H58	H	0.111013	0.408616	0.585528
	H59	H	0.887953	0.405860	0.402922
	H60	H	0.114247	0.404070	0.588165
	H61	H	0.891068	0.580983	0.584472
	H62	H	0.114437	0.578898	0.407440
	H63	H	0.887518	0.397819	0.408825
	H64	H	0.416196	0.590047	0.110974
	H65	H	0.591194	0.579709	0.885550
	H66	H	0.596966	0.406748	0.110636
	H67	H	0.413539	0.408831	0.886436
	H68	H	0.595393	0.108168	0.407066
	H69	H	0.594944	0.882519	0.582117
	H70	H	0.408956	0.106010	0.583464
	H71	H	0.412029	0.881083	0.407290
	H72	H	0.908663	0.607254	0.092873
	H73	H	0.087079	0.382909	0.089083
	H74	H	0.098044	0.608173	0.906376
	H75	H	0.910124	0.379849	0.909790
	H76	H	0.082668	0.905630	0.608390
	H77	H	0.089791	0.074340	0.390170
	H78	H	0.914415	0.081200	0.609468
	H79	H	0.910351	0.902203	0.385977
	H80	H	0.611845	0.079135	0.912884
	H81	H	0.391637	0.079733	0.085095
	H82	H	0.614313	0.906027	0.086514
	H83	H	0.389067	0.904445	0.907927
	H84	H	0.615370	0.904471	0.089331
	H85	H	0.389185	0.082105	0.089355
	H86	H	0.614837	0.079814	0.905532
	H87	H	0.389285	0.903678	0.909205
	H88	H	0.913001	0.087541	0.611178
	H89	H	0.082205	0.086349	0.387957
	H90	H	0.091575	0.901269	0.613186
	H91	H	0.911399	0.902303	0.385751
	H92	H	0.084995	0.604233	0.904321
	H93	H	0.095406	0.382696	0.083056
	H94	H	0.913076	0.606679	0.092838
	H95	H	0.920807	0.382549	0.906869
	H96	H	0.412205	0.106967	0.592319
	H97	H	0.591550	0.880694	0.592863
	H98	H	0.588250	0.107159	0.406062
	H99	H	0.413050	0.881941	0.407319
	H100	H	0.586217	0.411630	0.105464
	H101	H	0.590133	0.586531	0.883904
	H102	H	0.406131	0.584224	0.111505
	H103	H	0.418740	0.402928	0.887110
	H104	H	0.117705	0.587577	0.404556
	H105	H	0.889550	0.577880	0.589091
	H106	H	0.111804	0.403756	0.582481
	H107	H	0.891650	0.405696	0.412521
	H108	H	0.910617	0.606090	0.089355
	H109	H	0.095989	0.379151	0.092899
	H110	H	0.090892	0.601804	0.916516
	H111	H	0.916678	0.384717	0.917732
	H112	H	0.091658	0.911316	0.610448
	H113	H	0.095541	0.085863	0.383830
	H114	H	0.908747	0.082247	0.611967
	H115	H	0.910971	0.901762	0.385683
	H116	H	0.615095	0.085968	0.910352
	H117	H	0.389921	0.084780	0.084889
	H118	H	0.615325	0.902731	0.086597
	H119	H	0.390064	0.905085	0.909158
	C120	C	0.380598	0.002238	0.619335
	C121	C	0.623181	0.986311	0.619518
	C122	C	0.623128	0.003190	0.376738
	C123	C	0.380311	0.984767	0.376314
	C124	C	0.623824	0.372217	0.005724
	C125	C	0.623984	0.615192	0.988334
	C126	C	0.381460	0.615255	0.005702
	C127	C	0.381674	0.372702	0.989172
	C128	C	0.010600	0.614484	0.378147
	C129	C	0.992965	0.614510	0.620198
	C130	C	0.009381	0.371966	0.619602
	C131	C	0.993126	0.371701	0.376522
	C132	C	0.879927	0.502255	0.121633
	C133	C	0.123739	0.485462	0.119220
	C134	C	0.124553	0.501944	0.875964
	C135	C	0.882664	0.485229	0.878388
	C136	C	0.121308	0.872776	0.507370
	C137	C	0.122361	0.114770	0.489994
	C138	C	0.880217	0.115227	0.507125
	C139	C	0.879145	0.871819	0.490200
	C140	C	0.510912	0.114979	0.877101
	C141	C	0.493832	0.115241	0.119042
	C142	C	0.510872	0.872778	0.118855
	C143	C	0.493786	0.872669	0.876373
	C144	C	0.378225	0.884864	0.679286
	C145	C	0.626337	0.103800	0.680363
	C146	C	0.623708	0.884868	0.317585
	C147	C	0.378413	0.103150	0.317629
	C148	C	0.685512	0.368857	0.888270
	C149	C	0.682168	0.616556	0.107474
	C150	C	0.322661	0.615953	0.886995
	C151	C	0.321538	0.371131	0.107340
	C152	C	0.890910	0.671439	0.378773
	C153	C	0.110302	0.676505	0.623686
	C154	C	0.891105	0.311837	0.622623
	C155	C	0.111386	0.312240	0.374964
	C156	C	0.891977	0.368745	0.681511
	C157	C	0.111365	0.617466	0.679899
	C158	C	0.891159	0.613842	0.320750
	C159	C	0.112376	0.370862	0.318073
	C160	C	0.380150	0.674019	0.887140
	C161	C	0.624948	0.674784	0.106848
	C162	C	0.627943	0.310607	0.888420
	C163	C	0.378732	0.312585	0.106922
	C164	C	0.680791	0.884395	0.376103
	C165	C	0.683312	0.104395	0.621642
	C166	C	0.321227	0.884251	0.620604
	C167	C	0.319579	0.102320	0.374452
	C168	C	0.879868	0.383450	0.178999
	C169	C	0.122388	0.604832	0.176237
	C170	C	0.128213	0.384911	0.814523
	C171	C	0.879143	0.602188	0.817199
	C172	C	0.182413	0.869392	0.389936
	C173	C	0.183416	0.117756	0.607652
	C174	C	0.821639	0.115595	0.388292
	C175	C	0.819947	0.871744	0.608766
	C176	C	0.393375	0.175975	0.874163
	C177	C	0.611335	0.176769	0.122666
	C178	C	0.392564	0.812933	0.120699
	C179	C	0.612111	0.813230	0.874006
	C180	C	0.392104	0.871181	0.178083
	C181	C	0.611653	0.118197	0.179591
	C182	C	0.392758	0.117807	0.816907
	C183	C	0.611878	0.870570	0.815920
	C184	C	0.878935	0.173652	0.388519
	C185	C	0.125560	0.175610	0.607779
	C186	C	0.124410	0.811768	0.389948
	C187	C	0.876381	0.812509	0.608233
	C188	C	0.185583	0.384764	0.872902
	C189	C	0.180692	0.604789	0.118472
	C190	C	0.821328	0.383683	0.121838
	C191	C	0.822501	0.602884	0.876268
	C192	C	0.405673	0.084149	0.594182
	C193	C	0.597779	0.904419	0.594222
	C194	C	0.598898	0.085601	0.401336
	C195	C	0.405272	0.902879	0.400691
	C196	C	0.597338	0.398556	0.087291
	C197	C	0.599829	0.590550	0.905928
	C198	C	0.405662	0.591363	0.088384
	C199	C	0.407356	0.397508	0.907023
	C200	C	0.093877	0.591041	0.401791
	C201	C	0.911104	0.588294	0.594785
	C202	C	0.091014	0.397964	0.592946
	C203	C	0.910384	0.396227	0.401027
	C204	C	0.903705	0.585029	0.098159
	C205	C	0.099790	0.403012	0.095134
	C206	C	0.098715	0.583624	0.901606
	C207	C	0.908355	0.403577	0.904215
	C208	C	0.095778	0.898691	0.589488
	C209	C	0.096615	0.089438	0.408523
	C210	C	0.904999	0.090748	0.589408
	C211	C	0.903794	0.895322	0.407365
	C212	C	0.592763	0.089063	0.902193
	C213	C	0.411738	0.089648	0.093717
	C214	C	0.593579	0.897537	0.094391
	C215	C	0.411097	0.897254	0.901627
	Zn216	Zn	0.502053	-0.005766	0.748094
	Zn217	Zn	0.501650	-0.005748	0.247616
	Zn218	Zn	0.752401	0.493337	-0.001786
	Zn219	Zn	0.252935	0.494234	-0.002453
	Zn220	Zn	0.001047	0.743250	0.499649
	Zn221	Zn	0.001605	0.243668	0.498245
	Zn222	Zn	0.002230	0.493127	0.747958
	Zn223	Zn	0.002887	0.493529	0.249235
	Zn224	Zn	0.502227	0.744107	-0.002903
	Zn225	Zn	0.502445	0.243699	-0.002056
	Zn226	Zn	0.751664	-0.005661	0.498427
	Zn227	Zn	0.251371	-0.006461	0.498202
	N228	N	0.414207	0.959387	0.678898
	N229	N	0.589751	0.029413	0.679267
	N230	N	0.588803	0.959982	0.317645
	N231	N	0.415298	0.029073	0.318508
	N232	N	0.683169	0.406307	0.962302
	N233	N	0.681961	0.580287	0.032809
	N234	N	0.323365	0.580064	0.961818
	N235	N	0.322679	0.407382	0.032712
	N236	N	0.966418	0.672273	0.413620
	N237	N	0.035606	0.674905	0.587325
	N238	N	0.965292	0.313629	0.584953
	N239	N	0.036301	0.312528	0.410559
	N240	N	0.966654	0.405160	0.680001
	N241	N	0.037435	0.579542	0.677833
	N242	N	0.966666	0.579385	0.319928
	N243	N	0.037483	0.407035	0.318808
	N244	N	0.415708	0.673910	0.962069
	N245	N	0.589578	0.674287	0.031852
	N246	N	0.590479	0.312436	0.962575
	N247	N	0.415016	0.313328	0.032275
	N248	N	0.680928	0.959031	0.411926
	N249	N	0.681714	0.030113	0.584729
	N250	N	0.322433	0.958412	0.584158
	N251	N	0.320212	0.027669	0.410157
	N252	N	0.915359	0.458274	0.179326
	N253	N	0.087910	0.529458	0.177197
	N254	N	0.090857	0.458798	0.816238
	N255	N	0.915770	0.527895	0.818267
	N256	N	0.180668	0.906771	0.464072
	N257	N	0.181665	0.080624	0.533480
	N258	N	0.822172	0.080106	0.463153
	N259	N	0.821606	0.907955	0.534239
	N260	N	0.467720	0.174196	0.910908
	N261	N	0.537032	0.174838	0.085536
	N262	N	0.467324	0.813689	0.084618
	N263	N	0.537521	0.814364	0.910747
	N264	N	0.466913	0.907818	0.177121
	N265	N	0.537752	0.080355	0.177195
	N266	N	0.466847	0.080227	0.818622
	N267	N	0.537285	0.906916	0.817235
	N268	N	0.914566	0.173673	0.463412
	N269	N	0.088487	0.174203	0.533732
	N270	N	0.087206	0.813713	0.464208
	N271	N	0.912293	0.812231	0.533323
	N272	N	0.183319	0.458655	0.910366
	N273	N	0.182070	0.529394	0.084207
	N274	N	0.820820	0.458858	0.087092
	N275	N	0.824678	0.529120	0.913563
	O276	O	1.293088	1.348336	-0.293676
	H277	H	1.275228	1.323608	-0.266822
	H278	H	1.321542	1.336527	-0.285962
	O279	O	-0.184804	-0.049967	0.972002
	H280	H	-0.182225	-0.049740	0.996334
	H281	H	-0.173855	-0.058478	0.969006
	O282	O	0.550747	0.642477	0.581358
	H283	H	0.559424	0.639296	0.587699
	H284	H	0.537023	0.634557	0.586986
	O285	O	1.070859	0.947409	1.003862
	H286	H	1.081842	0.941457	0.991778
	H287	H	1.065056	0.955465	1.029433
	O288	O	1.099042	0.070279	1.007300
	H289	H	1.098321	0.074963	1.013474
	H290	H	1.103176	0.069780	1.002596
	O291	O	1.215978	1.022304	1.215099
	H292	H	1.227848	1.036512	1.220014
	H293	H	1.228653	1.051228	1.220216
	O294	O	0.087735	-0.046311	0.012286
	H295	H	0.083867	-0.024296	0.015675
	H296	H	0.085570	-0.047806	-0.016420
	O297	O	0.790572	-0.210424	0.207796
	H298	H	0.823116	-0.224605	0.218596
	H299	H	0.776548	-0.212823	0.211065
	O300	O	-0.208017	0.025924	-0.208748
	H301	H	-0.215233	0.013593	-0.213765
	H302	H	-0.213083	0.017589	-0.210643
	O303	O	-0.183688	0.185397	-0.186075
	H304	H	-0.172856	0.154044	-0.194818
	H305	H	-0.176407	0.187460	-0.169923
	O306	O	1.161093	-0.019554	-0.158358
	H307	H	1.169510	-0.014525	-0.168094
	H308	H	1.167875	-0.030818	-0.167200
	O309	O	0.658136	0.485284	0.709627
	H310	H	0.667134	0.483944	0.715420
	H311	H	0.658674	0.485558	0.697196
	O312	O	0.720992	0.456316	0.276159
	H313	H	0.739489	0.440796	0.252680
	H314	H	0.726486	0.419906	0.268984
	O315	O	0.467492	0.303322	0.547731
	H316	H	0.455063	0.304049	0.542428
	H317	H	0.466098	0.308358	0.537069
	O318	O	0.786357	0.777910	0.029173
	H319	H	0.787539	0.767931	0.052009
	H320	H	0.772157	0.766299	0.044088
	O321	O	-0.000795	0.840977	0.987116
	H322	H	0.011848	0.838878	0.987381
	H323	H	-0.014970	0.834226	0.995047
	O324	O	0.801528	0.118783	1.120237
	H325	H	0.802977	0.122035	1.107880
	H326	H	0.802809	0.103743	1.127237
	O327	O	0.310969	0.700822	0.455878
	H328	H	0.303905	0.695805	0.457283
	H329	H	0.302996	0.701370	0.469747
	O330	O	0.037609	0.979482	0.166023
	H331	H	0.035109	0.958086	0.168623
	H332	H	0.037645	0.975832	0.173103
	O333	O	0.355173	0.305500	0.341832
	H334	H	0.365817	0.307215	0.349680
	H335	H	0.367562	0.329983	0.344132
	O336	O	0.482792	0.629248	0.518861
	H337	H	0.488360	0.619256	0.519274
	H338	H	0.487590	0.611348	0.507595
	O339	O	0.467270	0.348546	0.672229
	H340	H	0.466546	0.359409	0.668281
	H341	H	0.470510	0.351611	0.655446
	O342	O	0.043081	0.909491	-0.216300
	H343	H	0.040114	0.934187	-0.219325
	H344	H	0.062454	0.898075	-0.230039
	O345	O	0.360838	0.649042	0.598448
	H346	H	0.353529	0.635124	0.594515
	H347	H	0.366643	0.649527	0.602258
	O348	O	0.015090	0.783890	0.858603
	H349	H	0.021850	0.774400	0.847239
	H350	H	0.005540	0.781167	0.869020
	O351	O	0.286428	0.601201	1.283533
	H352	H	0.256842	0.614943	1.250578
	H353	H	0.305383	0.621896	1.294790
	O354	O	0.784469	-0.037803	1.206246
	H355	H	0.783118	-0.051271	1.207270
	H356	H	0.770966	-0.047822	1.223527
	O357	O	0.595525	0.701071	0.598812
	H358	H	0.584026	0.706755	0.577327
	H359	H	0.603487	0.710505	0.615122
	O360	O	0.499618	0.566937	0.716292
	H361	H	0.493193	0.563907	0.708684
	H362	H	0.495251	0.579924	0.728418
	O363	O	0.493551	0.467173	0.286545
	H364	H	0.487470	0.459124	0.276737
	H365	H	0.512381	0.476878	0.293423
	O366	O	0.592832	0.384782	0.448659
	H367	H	0.608278	0.369529	0.427294
	H368	H	0.587511	0.387206	0.474201
	O369	O	0.114686	-0.126234	1.198557
	H370	H	0.129294	-0.107431	1.196050
	H371	H	0.123632	-0.132894	1.203029
	O372	O	-0.117303	0.950778	0.904954
	H373	H	-0.124317	0.930734	0.912936
	H374	H	-0.118719	0.961240	0.899153
	O375	O	1.039472	0.200779	-0.120519
	H376	H	1.037512	0.211913	-0.110290
	H377	H	1.035132	0.199099	-0.124879
	O378	O	0.507901	0.313790	0.596729
	H379	H	0.524252	0.311336	0.604951
	H380	H	0.515709	0.316326	0.599667
	O381	O	-0.283340	1.401570	-0.416108
	H382	H	-0.282550	1.425393	-0.442346
	H383	H	-0.287636	1.392360	-0.409895
	O384	O	0.283971	0.556095	0.558315
	H385	H	0.287793	0.549718	0.569715
	H386	H	0.282566	0.537811	0.559047
	O387	O	0.555283	1.318537	1.375105
	H388	H	0.561098	1.317954	1.380591
	H389	H	0.571888	1.312036	1.361769
	O390	O	-0.190034	0.866409	0.868835
	H391	H	-0.196005	0.868850	0.869215
	H392	H	-0.177849	0.858504	0.886022
	O393	O	0.958185	-0.029700	-0.224226
	H394	H	0.967327	-0.034908	-0.216189
	H395	H	0.943960	-0.013327	-0.231594
	O396	O	0.376633	0.458621	0.469890
	H397	H	0.376680	0.455775	0.465025
	H398	H	0.371253	0.458198	0.468125
	O399	O	0.605368	0.610162	0.685672
	H400	H	0.594335	0.618977	0.689209
	H401	H	0.608102	0.612630	0.692242
	O402	O	0.968153	-0.218744	1.209638
	H403	H	0.981797	-0.231326	1.225537
	H404	H	0.976363	-0.208036	1.204928
	O405	O	0.037739	0.198749	0.208799
	H406	H	0.024650	0.188548	0.208985
	H407	H	0.029089	0.205364	0.221753
	O408	O	1.174623	0.775229	0.981488
	H409	H	1.193169	0.791165	0.983982
	H410	H	1.191829	0.761786	0.975874
	O411	O	1.297952	0.323232	-0.526083
	H412	H	1.282268	0.322732	-0.518095
	H413	H	1.296451	0.327304	-0.513655
	O414	O	0.217147	-0.792081	0.200886
	H415	H	0.220564	-0.771886	0.225222
	H416	H	0.194855	-0.792858	0.192531
	O417	O	-0.200884	0.210123	0.984135
	H418	H	-0.209887	0.205307	0.968794
	H419	H	-0.219183	0.213238	0.983010
	O420	O	1.198997	-0.206394	0.798195
	H421	H	1.199900	-0.197529	0.781360
	H422	H	1.175108	-0.208175	0.814689
	O423	O	1.201260	1.129713	-0.195660
	H424	H	1.190026	1.111654	-0.183144
	H425	H	1.198674	1.126232	-0.181232
	O426	O	0.689812	0.531535	0.477922
	H427	H	0.685691	0.530266	0.459700
	H428	H	0.696773	0.540533	0.463191
	O429	O	0.712267	0.707732	0.583106
	H430	H	0.722066	0.730409	0.587865
	H431	H	0.713307	0.687716	0.600277
	O432	O	1.023346	0.164535	0.793296
	H433	H	1.032341	0.171457	0.779759
	H434	H	0.997459	0.162300	0.788386
	O435	O	0.688833	0.682221	0.306645
	H436	H	0.668802	0.663544	0.319512
	H437	H	0.683494	0.682459	0.315998
	O438	O	0.503822	0.633356	0.415970
	H439	H	0.507491	0.630795	0.430601
	H440	H	0.508861	0.623822	0.421647
	O441	O	0.948604	1.161381	0.005177
	H442	H	0.946721	1.156627	0.020216
	H443	H	0.938053	1.156649	0.014645
	O444	O	0.331059	0.649140	0.328079
	H445	H	0.352023	0.647250	0.316716
	H446	H	0.331467	0.656934	0.361310
	O447	O	-0.020865	0.058572	1.104965
	H448	H	-0.013814	0.052912	1.099020
	H449	H	-0.018726	0.061084	1.105243
	O450	O	0.760381	0.233624	0.243955
	H451	H	0.762271	0.219193	0.255626
	H452	H	0.784752	0.215539	0.233624
	O453	O	0.634897	0.633102	0.412294
	H454	H	0.650877	0.641973	0.425111
	H455	H	0.646239	0.626892	0.419218
	O456	O	0.373856	1.500342	0.322887
	H457	H	0.380225	1.526103	0.331176
	H458	H	0.341446	1.521405	0.307277
	O459	O	0.472652	0.302866	0.391885
	H460	H	0.451850	0.300742	0.390400
	H461	H	0.490884	0.295210	0.371145
	O462	O	0.494639	0.580296	0.481296
	H463	H	0.507892	0.588474	0.470314
	H464	H	0.487988	0.568344	0.479539
	O465	O	0.707565	0.282263	0.465589
	H466	H	0.697476	0.280150	0.489575
	H467	H	0.717152	0.275444	0.483210
	O468	O	0.222339	1.214541	0.035164
	H469	H	0.245430	1.238702	0.046219
	H470	H	0.210902	1.223155	0.049122
	O471	O	0.365242	0.401829	0.705691
	H472	H	0.362469	0.376596	0.717055
	H473	H	0.354802	0.401071	0.718158
	O474	O	1.087202	0.997422	0.116319
	H475	H	1.075337	0.995585	0.108752
	H476	H	1.077921	1.006948	0.090343
	O477	O	0.163371	-0.092732	1.087660
	H478	H	0.180154	-0.079405	1.091692
	H479	H	0.165257	-0.100208	1.068844
