data_Molecule from HDF5

_cell_length_a		16.299129
_cell_length_b		16.329958
_cell_length_c		16.298437
_cell_angle_alpha	89.942254
_cell_angle_beta	89.948504
_cell_angle_gamma	89.896249
_symmetry_space_group_name_H-M	'P 1'
_symmetry_Int_Tables_number		1

loop_
	_symmetry_equiv_pos_as_xyz
	x,y,z

loop_
	_atom_site_label
	_atom_site_type_symbol
	_atom_site_fract_x
	_atom_site_fract_y
	_atom_site_fract_z
	H0	H	0.407646	0.841661	0.708546
	H1	H	0.601268	0.169101	0.708750
	H2	H	0.601941	0.841002	0.282201
	H3	H	0.407254	0.168422	0.279949
	H4	H	0.718516	0.407606	0.830159
	H5	H	0.718158	0.601800	0.158066
	H6	H	0.292079	0.603272	0.830082
	H7	H	0.290233	0.407152	0.157623
	H8	H	0.840413	0.720363	0.396011
	H9	H	0.168713	0.718763	0.591414
	H10	H	0.840610	0.291949	0.591927
	H11	H	0.168357	0.292170	0.396580
	H12	H	0.840629	0.407962	0.708873
	H13	H	0.168876	0.602118	0.707026
	H14	H	0.840929	0.604701	0.278773
	H15	H	0.168234	0.408153	0.280531
	H16	H	0.405984	0.721424	0.831378
	H17	H	0.603554	0.720215	0.157579
	H18	H	0.602344	0.291046	0.830679
	H19	H	0.406917	0.291161	0.157503
	H20	H	0.719107	0.842086	0.397855
	H21	H	0.716689	0.169646	0.591116
	H22	H	0.290314	0.841921	0.593297
	H23	H	0.290752	0.168803	0.396129
	H24	H	0.905817	0.342618	0.209399
	H25	H	0.102382	0.668624	0.208578
	H26	H	0.102158	0.342497	0.780980
	H27	H	0.906986	0.669591	0.780240
	H28	H	0.218485	0.908667	0.330184
	H29	H	0.218401	0.102778	0.658701
	H30	H	0.790036	0.104593	0.330829
	H31	H	0.790344	0.907710	0.657864
	H32	H	0.340345	0.220111	0.895593
	H33	H	0.667939	0.218538	0.091538
	H34	H	0.341099	0.790598	0.093090
	H35	H	0.667737	0.791874	0.897381
	H36	H	0.340758	0.906918	0.208493
	H37	H	0.668437	0.101508	0.207661
	H38	H	0.340438	0.103422	0.779582
	H39	H	0.668437	0.907482	0.781111
	H40	H	0.906722	0.220065	0.330544
	H41	H	0.103764	0.221794	0.657600
	H42	H	0.103505	0.791297	0.330896
	H43	H	0.907543	0.792661	0.658450
	H44	H	0.219128	0.342393	0.896294
	H45	H	0.218121	0.669487	0.091512
	H46	H	0.789614	0.342490	0.093662
	H47	H	0.788962	0.669672	0.895822
	H48	H	0.417651	0.117069	0.579756
	H49	H	0.597282	0.889421	0.589622
	H50	H	0.602846	0.125437	0.393330
	H51	H	0.411727	0.889362	0.402191
	H52	H	0.591698	0.401266	0.111418
	H53	H	0.597402	0.606454	0.875639
	H54	H	0.409580	0.604089	0.113327
	H55	H	0.402301	0.414110	0.876164
	H56	H	0.122727	0.609811	0.403469
	H57	H	0.887085	0.601772	0.588840
	H58	H	0.121248	0.409027	0.587573
	H59	H	0.887069	0.406833	0.404195
	H60	H	0.119636	0.413721	0.584595
	H61	H	0.889031	0.600523	0.585495
	H62	H	0.116541	0.591999	0.408175
	H63	H	0.890733	0.417056	0.403903
	H64	H	0.406394	0.593459	0.109666
	H65	H	0.604004	0.595373	0.877554
	H66	H	0.609452	0.410763	0.114614
	H67	H	0.417249	0.419384	0.881089
	H68	H	0.589206	0.119274	0.399251
	H69	H	0.598817	0.890417	0.586428
	H70	H	0.399526	0.124158	0.585204
	H71	H	0.409484	0.888087	0.400837
	H72	H	0.909412	0.622273	0.086324
	H73	H	0.100627	0.389520	0.086759
	H74	H	0.098828	0.622521	0.901105
	H75	H	0.911923	0.392120	0.907323
	H76	H	0.101878	0.915636	0.610406
	H77	H	0.097038	0.097924	0.379364
	H78	H	0.917889	0.102663	0.610084
	H79	H	0.908338	0.926264	0.380890
	H80	H	0.622364	0.100333	0.896302
	H81	H	0.385682	0.105434	0.089923
	H82	H	0.618574	0.919333	0.087887
	H83	H	0.386179	0.916106	0.892603
	H84	H	0.624275	0.907931	0.094871
	H85	H	0.390903	0.097103	0.079998
	H86	H	0.620076	0.101496	0.903927
	H87	H	0.385823	0.903235	0.903473
	H88	H	0.904790	0.103896	0.613362
	H89	H	0.097985	0.100844	0.378107
	H90	H	0.093569	0.912459	0.609157
	H91	H	0.924780	0.909677	0.381026
	H92	H	0.099993	0.623705	0.898872
	H93	H	0.097602	0.389327	0.088841
	H94	H	0.911751	0.622027	0.088581
	H95	H	0.906622	0.388678	0.898782
	H96	H	0.414839	0.123489	0.598318
	H97	H	0.600768	0.888090	0.588811
	H98	H	0.602476	0.120284	0.408850
	H99	H	0.412054	0.888309	0.399147
	H100	H	0.593498	0.420941	0.106500
	H101	H	0.591204	0.595685	0.880779
	H102	H	0.417917	0.597152	0.108470
	H103	H	0.415060	0.403858	0.875892
	H104	H	0.122676	0.595776	0.390056
	H105	H	0.888450	0.597752	0.588980
	H106	H	0.121266	0.414346	0.590501
	H107	H	0.886633	0.412742	0.395565
	H108	H	0.912426	0.620623	0.085119
	H109	H	0.097261	0.391320	0.085801
	H110	H	0.097587	0.621987	0.898927
	H111	H	0.916896	0.391371	0.898234
	H112	H	0.099766	0.907063	0.613108
	H113	H	0.100201	0.098513	0.377740
	H114	H	0.910118	0.092055	0.608850
	H115	H	0.903296	0.904895	0.373218
	H116	H	0.618578	0.094757	0.900563
	H117	H	0.388086	0.092378	0.092718
	H118	H	0.620042	0.907057	0.081159
	H119	H	0.391155	0.918482	0.908332
	C120	C	0.383028	0.013428	0.615864
	C121	C	0.626362	0.997530	0.616181
	C122	C	0.626649	0.013553	0.372613
	C123	C	0.383127	0.996770	0.372499
	C124	C	0.626177	0.383159	0.002634
	C125	C	0.625654	0.626931	0.986263
	C126	C	0.382966	0.626795	0.002318
	C127	C	0.382797	0.383842	0.985815
	C128	C	0.012243	0.627325	0.372168
	C129	C	0.996420	0.627714	0.615642
	C130	C	0.012465	0.384175	0.615824
	C131	C	0.996383	0.384398	0.372682
	C132	C	0.882883	0.513747	0.115353
	C133	C	0.126576	0.497441	0.115415
	C134	C	0.126639	0.514379	0.871944
	C135	C	0.882719	0.497993	0.872568
	C136	C	0.126608	0.883858	0.502394
	C137	C	0.126273	0.127319	0.486528
	C138	C	0.883130	0.127669	0.502625
	C139	C	0.883276	0.884840	0.486359
	C140	C	0.512034	0.126845	0.872447
	C141	C	0.496068	0.126234	0.115690
	C142	C	0.512722	0.883265	0.116166
	C143	C	0.496112	0.884055	0.873044
	C144	C	0.386445	0.890428	0.670829
	C145	C	0.622187	0.120478	0.670650
	C146	C	0.623418	0.890289	0.319131
	C147	C	0.386344	0.119812	0.317847
	C148	C	0.680689	0.386801	0.879087
	C149	C	0.680124	0.622797	0.109435
	C150	C	0.329131	0.624247	0.879041
	C151	C	0.328128	0.386606	0.108786
	C152	C	0.889386	0.682769	0.375107
	C153	C	0.119778	0.681449	0.612568
	C154	C	0.889320	0.329780	0.612566
	C155	C	0.119432	0.329627	0.375617
	C156	C	0.889465	0.387154	0.670800
	C157	C	0.119827	0.623551	0.669864
	C158	C	0.889430	0.625054	0.317147
	C159	C	0.119634	0.387614	0.318289
	C160	C	0.385972	0.682559	0.879501
	C161	C	0.623462	0.681592	0.109126
	C162	C	0.623433	0.328637	0.879397
	C163	C	0.385886	0.328899	0.108795
	C164	C	0.681436	0.890770	0.376718
	C165	C	0.679656	0.120736	0.612559
	C166	C	0.328307	0.890445	0.613423
	C167	C	0.328864	0.120077	0.375738
	C168	C	0.885531	0.391210	0.171118
	C169	C	0.123693	0.620138	0.170975
	C170	C	0.123210	0.391289	0.818206
	C171	C	0.885484	0.620968	0.817831
	C172	C	0.181071	0.887532	0.379282
	C173	C	0.180743	0.124054	0.609811
	C174	C	0.828218	0.124793	0.379395
	C175	C	0.828663	0.887450	0.609347
	C176	C	0.389065	0.182194	0.874885
	C177	C	0.619242	0.180976	0.112537
	C178	C	0.389676	0.828635	0.113367
	C179	C	0.619283	0.829761	0.876508
	C180	C	0.389866	0.886048	0.171150
	C181	C	0.619559	0.122849	0.170085
	C182	C	0.389019	0.124065	0.817525
	C183	C	0.619464	0.887219	0.818740
	C184	C	0.886054	0.182133	0.379284
	C185	C	0.123407	0.182611	0.609433
	C186	C	0.123937	0.829254	0.379513
	C187	C	0.886588	0.830075	0.609494
	C188	C	0.181261	0.391383	0.875564
	C189	C	0.180910	0.620600	0.112725
	C190	C	0.827934	0.390889	0.113445
	C191	C	0.827102	0.620864	0.875130
	C192	C	0.404271	0.099358	0.594147
	C193	C	0.605278	0.911517	0.594520
	C194	C	0.604542	0.099411	0.394111
	C195	C	0.404789	0.910863	0.394326
	C196	C	0.604632	0.404561	0.088722
	C197	C	0.603845	0.605583	0.900085
	C198	C	0.404895	0.604836	0.088273
	C199	C	0.405157	0.405773	0.899857
	C200	C	0.098433	0.605479	0.394040
	C201	C	0.910338	0.606370	0.594087
	C202	C	0.098493	0.405946	0.593975
	C203	C	0.910237	0.406097	0.394474
	C204	C	0.904616	0.599402	0.093193
	C205	C	0.104769	0.412058	0.093487
	C206	C	0.105127	0.600406	0.893359
	C207	C	0.905351	0.412676	0.895050
	C208	C	0.104850	0.905562	0.588627
	C209	C	0.104741	0.105557	0.400683
	C210	C	0.904677	0.105955	0.588437
	C211	C	0.905473	0.907057	0.400443
	C212	C	0.598151	0.105280	0.894029
	C213	C	0.410399	0.104701	0.093815
	C214	C	0.598719	0.904883	0.094197
	C215	C	0.409797	0.905994	0.895210
	Zn216	Zn	0.504256	0.005302	0.744645
	Zn217	Zn	0.504819	0.004898	0.244264
	Zn218	Zn	0.754138	0.505484	-0.005968
	Zn219	Zn	0.254865	0.506071	-0.005966
	Zn220	Zn	0.004523	0.755969	0.493984
	Zn221	Zn	0.004138	0.255875	0.494058
	Zn222	Zn	0.004625	0.506079	0.744080
	Zn223	Zn	0.004364	0.505565	0.243878
	Zn224	Zn	0.504468	0.755783	-0.005634
	Zn225	Zn	0.504021	0.255243	-0.006018
	Zn226	Zn	0.754996	0.006196	0.494490
	Zn227	Zn	0.254911	0.005458	0.494726
	N228	N	0.419706	0.967613	0.672286
	N229	N	0.589790	0.042790	0.672902
	N230	N	0.590000	0.967752	0.316667
	N231	N	0.419536	0.042306	0.315930
	N232	N	0.682764	0.419850	0.956686
	N233	N	0.681557	0.589710	0.031990
	N234	N	0.327495	0.590285	0.956260
	N235	N	0.325996	0.419909	0.031221
	N236	N	0.966995	0.684216	0.408622
	N237	N	0.042103	0.684092	0.579486
	N238	N	0.966942	0.327749	0.579320
	N239	N	0.041948	0.327588	0.408745
	N240	N	0.966947	0.420441	0.672746
	N241	N	0.042162	0.590693	0.671650
	N242	N	0.966815	0.591560	0.315186
	N243	N	0.041867	0.420884	0.316291
	N244	N	0.418730	0.684328	0.957262
	N245	N	0.590347	0.684204	0.031471
	N246	N	0.590298	0.326379	0.957076
	N247	N	0.419507	0.327625	0.031379
	N248	N	0.683571	0.968466	0.409126
	N249	N	0.682229	0.043360	0.579332
	N250	N	0.326292	0.967925	0.579858
	N251	N	0.326596	0.042574	0.409066
	N252	N	0.918957	0.468547	0.172425
	N253	N	0.090497	0.542808	0.172727
	N254	N	0.089718	0.468637	0.816281
	N255	N	0.919420	0.543951	0.816157
	N256	N	0.182796	0.920713	0.456839
	N257	N	0.182455	0.090195	0.532662
	N258	N	0.826405	0.091555	0.457022
	N259	N	0.826732	0.920991	0.531872
	N260	N	0.466495	0.183952	0.908397
	N261	N	0.541617	0.183124	0.079475
	N262	N	0.467250	0.826736	0.079979
	N263	N	0.541640	0.827708	0.909505
	N264	N	0.467242	0.919473	0.172790
	N265	N	0.542132	0.089460	0.172073
	N266	N	0.466568	0.090629	0.815872
	N267	N	0.541609	0.920204	0.816486
	N268	N	0.919387	0.184033	0.456763
	N269	N	0.090243	0.184706	0.531769
	N270	N	0.090617	0.827143	0.457068
	N271	N	0.919852	0.828432	0.531798
	N272	N	0.183606	0.469099	0.908148
	N273	N	0.182716	0.543411	0.078887
	N274	N	0.826182	0.468048	0.079460
	N275	N	0.825298	0.543215	0.908464
	O276	O	0.981485	0.010825	1.019781
	H277	H	0.985008	0.008041	1.018753
	H278	H	0.981213	0.008709	1.017356
	O279	O	-0.054900	0.036483	0.992916
	H280	H	-0.062852	0.038254	0.987658
	H281	H	-0.052832	0.044664	0.985725
	O282	O	0.958403	1.013360	0.019096
	H283	H	0.957609	1.018190	0.023943
	H284	H	0.955530	1.014842	0.019954
	O285	O	-0.065098	0.036569	0.987227
	H286	H	-0.067254	0.030449	0.991515
	H287	H	-0.059769	0.035699	0.990385
