data_Molecule from HDF5

_cell_length_a		16.389218
_cell_length_b		16.424031
_cell_length_c		16.187133
_cell_angle_alpha	89.848720
_cell_angle_beta	90.302957
_cell_angle_gamma	89.881443
_symmetry_space_group_name_H-M	'P 1'
_symmetry_Int_Tables_number		1

loop_
	_symmetry_equiv_pos_as_xyz
	x,y,z

loop_
	_atom_site_label
	_atom_site_type_symbol
	_atom_site_fract_x
	_atom_site_fract_y
	_atom_site_fract_z
	H0	H	0.382133	0.818966	0.719912
	H1	H	0.586978	0.139596	0.716574
	H2	H	0.580290	0.815321	0.285213
	H3	H	0.383686	0.140620	0.282883
	H4	H	0.705325	0.377432	0.838961
	H5	H	0.702743	0.579205	0.164999
	H6	H	0.265791	0.582906	0.840375
	H7	H	0.273668	0.377009	0.164916
	H8	H	0.822767	0.696545	0.395297
	H9	H	0.143164	0.699677	0.607740
	H10	H	0.824881	0.257978	0.606468
	H11	H	0.145813	0.257298	0.399472
	H12	H	0.824430	0.376320	0.719408
	H13	H	0.146179	0.579872	0.720027
	H14	H	0.823204	0.577501	0.281985
	H15	H	0.148988	0.379030	0.289195
	H16	H	0.382809	0.696043	0.838385
	H17	H	0.588752	0.696296	0.163186
	H18	H	0.591716	0.260063	0.837668
	H19	H	0.388182	0.260991	0.162987
	H20	H	0.703873	0.817644	0.394048
	H21	H	0.705654	0.136506	0.604109
	H22	H	0.265980	0.817787	0.602625
	H23	H	0.263145	0.138734	0.394388
	H24	H	0.889288	0.315981	0.215896
	H25	H	0.086844	0.639645	0.219001
	H26	H	0.088228	0.316975	0.784954
	H27	H	0.884088	0.638774	0.782538
	H28	H	0.198596	0.875184	0.336156
	H29	H	0.204223	0.080084	0.660627
	H30	H	0.766976	0.079447	0.336616
	H31	H	0.765098	0.874723	0.662063
	H32	H	0.325666	0.199882	0.894409
	H33	H	0.647808	0.194562	0.102813
	H34	H	0.326515	0.757043	0.104339
	H35	H	0.645328	0.758216	0.894419
	H36	H	0.322126	0.880324	0.212283
	H37	H	0.646870	0.077215	0.218272
	H38	H	0.324152	0.082467	0.780562
	H39	H	0.645761	0.877662	0.781520
	H40	H	0.881326	0.196521	0.338284
	H41	H	0.088320	0.194359	0.662795
	H42	H	0.083323	0.759426	0.337627
	H43	H	0.877222	0.757083	0.661872
	H44	H	0.207202	0.319184	0.898418
	H45	H	0.207341	0.638340	0.107463
	H46	H	0.766896	0.318403	0.106285
	H47	H	0.765609	0.638690	0.896244
	H48	H	0.383159	0.092855	0.580658
	H49	H	0.573987	0.864170	0.592025
	H50	H	0.580991	0.093036	0.410293
	H51	H	0.381949	0.862290	0.410022
	H52	H	0.577932	0.392737	0.114169
	H53	H	0.580414	0.573596	0.882770
	H54	H	0.396081	0.574002	0.119535
	H55	H	0.397405	0.398297	0.887882
	H56	H	0.099719	0.575684	0.413494
	H57	H	0.872296	0.565277	0.589832
	H58	H	0.103005	0.381297	0.596606
	H59	H	0.870673	0.387912	0.406961
	H60	H	0.097805	0.382663	0.586179
	H61	H	0.869460	0.569052	0.592696
	H62	H	0.095656	0.567225	0.416102
	H63	H	0.870186	0.382806	0.409794
	H64	H	0.394484	0.564270	0.117162
	H65	H	0.579039	0.562042	0.886739
	H66	H	0.572078	0.383557	0.115336
	H67	H	0.402482	0.382932	0.884742
	H68	H	0.572931	0.092635	0.403808
	H69	H	0.570992	0.866860	0.587616
	H70	H	0.391471	0.096173	0.597731
	H71	H	0.391533	0.861021	0.397726
	H72	H	0.901294	0.589081	0.085189
	H73	H	0.071541	0.366377	0.093073
	H74	H	0.076150	0.590671	0.914867
	H75	H	0.890788	0.363646	0.913385
	H76	H	0.075356	0.889579	0.615550
	H77	H	0.076033	0.072623	0.381261
	H78	H	0.893354	0.070448	0.617154
	H79	H	0.896531	0.882379	0.384476
	H80	H	0.599701	0.064099	0.901777
	H81	H	0.369893	0.077687	0.086314
	H82	H	0.600860	0.889076	0.095665
	H83	H	0.372616	0.893119	0.909651
	H84	H	0.601051	0.882785	0.091809
	H85	H	0.373106	0.067876	0.086250
	H86	H	0.603421	0.078972	0.907690
	H87	H	0.369818	0.885022	0.908149
	H88	H	0.891045	0.065742	0.615400
	H89	H	0.073308	0.064055	0.385773
	H90	H	0.073077	0.887501	0.614695
	H91	H	0.887734	0.887764	0.383717
	H92	H	0.078472	0.592877	0.912057
	H93	H	0.087950	0.364379	0.086038
	H94	H	0.886005	0.593925	0.089063
	H95	H	0.896760	0.363369	0.907939
	H96	H	0.401068	0.088001	0.583765
	H97	H	0.576286	0.864624	0.586694
	H98	H	0.571245	0.089304	0.413336
	H99	H	0.396866	0.867016	0.411893
	H100	H	0.582538	0.383927	0.118907
	H101	H	0.569780	0.569761	0.887166
	H102	H	0.403952	0.568478	0.114968
	H103	H	0.386938	0.387237	0.881820
	H104	H	0.099279	0.568089	0.406975
	H105	H	0.870619	0.569499	0.587467
	H106	H	0.097900	0.391537	0.593419
	H107	H	0.872176	0.387888	0.412374
	H108	H	0.897264	0.594615	0.100362
	H109	H	0.084609	0.360626	0.102586
	H110	H	0.074645	0.591710	0.910660
	H111	H	0.897979	0.366601	0.915915
	H112	H	0.075541	0.886643	0.615950
	H113	H	0.066753	0.070778	0.384782
	H114	H	0.896339	0.066262	0.615046
	H115	H	0.896565	0.891926	0.387998
	H116	H	0.596413	0.067712	0.917884
	H117	H	0.369477	0.072543	0.095133
	H118	H	0.598402	0.889038	0.088532
	H119	H	0.373445	0.887491	0.915665
	C120	C	0.362117	-0.013309	0.619644
	C121	C	0.605214	0.970495	0.620131
	C122	C	0.605310	-0.014421	0.378023
	C123	C	0.360063	0.969995	0.375852
	C124	C	0.608514	0.357117	0.008865
	C125	C	0.607780	0.599805	0.992639
	C126	C	0.365749	0.600075	0.009900
	C127	C	0.366455	0.358367	0.992313
	C128	C	-0.007929	0.599986	0.379857
	C129	C	0.975849	0.599729	0.622739
	C130	C	-0.006584	0.355270	0.623268
	C131	C	0.977586	0.356186	0.380287
	C132	C	0.864920	0.486531	0.122892
	C133	C	0.110483	0.469941	0.124722
	C134	C	0.107693	0.486416	0.881110
	C135	C	0.863753	0.470146	0.879892
	C136	C	0.104446	0.856438	0.508086
	C137	C	0.104359	0.098776	0.491252
	C138	C	0.862458	0.099000	0.508781
	C139	C	0.861998	0.856317	0.492150
	C140	C	0.493911	0.101545	0.877189
	C141	C	0.477566	0.100812	0.120735
	C142	C	0.493768	0.856764	0.121624
	C143	C	0.477405	0.857390	0.878977
	C144	C	0.362694	0.866673	0.679931
	C145	C	0.606206	0.091100	0.678165
	C146	C	0.602303	0.863920	0.322150
	C147	C	0.362424	0.091551	0.319693
	C148	C	0.666222	0.357882	0.886982
	C149	C	0.664809	0.599216	0.115621
	C150	C	0.305813	0.601342	0.888418
	C151	C	0.311440	0.358034	0.115528
	C152	C	0.871035	0.657154	0.377731
	C153	C	0.095899	0.659387	0.625340
	C154	C	0.872730	0.297571	0.624478
	C155	C	0.098098	0.297414	0.380607
	C156	C	0.872435	0.356507	0.680773
	C157	C	0.097395	0.599400	0.681137
	C158	C	0.871208	0.597949	0.321182
	C159	C	0.099590	0.357783	0.325259
	C160	C	0.363931	0.657893	0.887527
	C161	C	0.608359	0.657855	0.114532
	C162	C	0.609893	0.299260	0.886804
	C163	C	0.368071	0.300002	0.114475
	C164	C	0.663614	0.865192	0.376515
	C165	C	0.665303	0.089656	0.622180
	C166	C	0.304901	0.865930	0.621464
	C167	C	0.302510	0.090756	0.375277
	C168	C	0.867899	0.364686	0.178810
	C169	C	0.107796	0.591169	0.181253
	C170	C	0.107762	0.365471	0.823507
	C171	C	0.863929	0.590472	0.821067
	C172	C	0.160524	0.856052	0.385308
	C173	C	0.163845	0.098604	0.613055
	C174	C	0.805262	0.098973	0.385913
	C175	C	0.803825	0.855510	0.613649
	C176	C	0.373737	0.160325	0.875853
	C177	C	0.599292	0.156290	0.121645
	C178	C	0.373757	0.797462	0.122395
	C179	C	0.597625	0.798475	0.876887
	C180	C	0.371473	0.858819	0.176108
	C181	C	0.598720	0.097883	0.179159
	C182	C	0.372565	0.101513	0.819396
	C183	C	0.597800	0.858035	0.820554
	C184	C	0.861985	0.157487	0.386866
	C185	C	0.106292	0.155542	0.613809
	C186	C	0.103125	0.798351	0.386161
	C187	C	0.859912	0.797056	0.613674
	C188	C	0.167043	0.366562	0.880061
	C189	C	0.167759	0.590643	0.125570
	C190	C	0.807287	0.365884	0.124224
	C191	C	0.805073	0.590486	0.877905
	C192	C	0.385166	0.070482	0.594546
	C193	C	0.580811	0.886871	0.595742
	C194	C	0.581958	0.069802	0.402185
	C195	C	0.383187	0.885461	0.399591
	C196	C	0.584663	0.380199	0.094106
	C197	C	0.583317	0.575461	0.907535
	C198	C	0.390891	0.575962	0.095054
	C199	C	0.389045	0.382592	0.907038
	C200	C	0.076177	0.576894	0.404972
	C201	C	0.892551	0.575172	0.597439
	C202	C	0.077608	0.378492	0.599135
	C203	C	0.893011	0.379442	0.403115
	C204	C	0.888019	0.570750	0.098646
	C205	C	0.087901	0.385482	0.100942
	C206	C	0.083406	0.569938	0.905417
	C207	C	0.888143	0.386365	0.905168
	C208	C	0.081403	0.880965	0.593263
	C209	C	0.079400	0.075685	0.406049
	C210	C	0.886494	0.074620	0.593767
	C211	C	0.886427	0.880339	0.407335
	C212	C	0.578090	0.077206	0.902001
	C213	C	0.392884	0.079066	0.096437
	C214	C	0.578050	0.880016	0.098721
	C215	C	0.393602	0.881594	0.904011
	Zn216	Zn	0.484740	-0.020634	0.748972
	Zn217	Zn	0.484045	-0.021712	0.249188
	Zn218	Zn	0.736045	0.478517	0.002020
	Zn219	Zn	0.238118	0.479247	0.002143
	Zn220	Zn	-0.017041	0.728733	0.501327
	Zn221	Zn	-0.015641	0.227033	0.501700
	Zn222	Zn	-0.014051	0.477308	0.751638
	Zn223	Zn	-0.013695	0.477945	0.251240
	Zn224	Zn	0.486258	0.727898	-0.000018
	Zn225	Zn	0.486883	0.229902	-0.001011
	Zn226	Zn	0.734347	-0.022488	0.499393
	Zn227	Zn	0.232146	-0.021943	0.498359
	N228	N	0.397445	0.942743	0.679060
	N229	N	0.569586	0.015962	0.676880
	N230	N	0.566508	0.939786	0.323239
	N231	N	0.397412	0.015315	0.319864
	N232	N	0.665463	0.392948	0.963978
	N233	N	0.664857	0.564020	0.038608
	N234	N	0.306856	0.566221	0.965609
	N235	N	0.310365	0.393773	0.038519
	N236	N	0.947352	0.658656	0.413344
	N237	N	0.019537	0.659747	0.589924
	N238	N	0.948960	0.296709	0.589360
	N239	N	0.021118	0.296203	0.414019
	N240	N	0.948451	0.391680	0.680181
	N241	N	0.021776	0.563127	0.679852
	N242	N	0.947510	0.563319	0.322252
	N243	N	0.023761	0.393692	0.324962
	N244	N	0.400120	0.657304	0.964321
	N245	N	0.573777	0.658298	0.036913
	N246	N	0.574658	0.298679	0.963681
	N247	N	0.401615	0.300100	0.036828
	N248	N	0.665578	0.941848	0.410352
	N249	N	0.664844	0.013603	0.586809
	N250	N	0.304159	0.941570	0.584994
	N251	N	0.300743	0.013996	0.409300
	N252	N	0.902999	0.440660	0.178113
	N253	N	0.073077	0.515120	0.180802
	N254	N	0.071501	0.440914	0.824011
	N255	N	0.899661	0.514743	0.822178
	N256	N	0.161594	0.891467	0.462356
	N257	N	0.162530	0.063889	0.535904
	N258	N	0.805438	0.063340	0.462754
	N259	N	0.805082	0.891699	0.537161
	N260	N	0.450359	0.160656	0.910807
	N261	N	0.522932	0.158230	0.086007
	N262	N	0.450785	0.796069	0.089194
	N263	N	0.521813	0.798175	0.912568
	N264	N	0.447030	0.894938	0.175903
	N265	N	0.522042	0.064093	0.178735
	N266	N	0.448542	0.065735	0.819957
	N267	N	0.521894	0.894062	0.821674
	N268	N	0.896788	0.157655	0.464260
	N269	N	0.070048	0.155925	0.536908
	N270	N	0.069223	0.798416	0.463527
	N271	N	0.895444	0.797488	0.536994
	N272	N	0.167340	0.442759	0.914961
	N273	N	0.169721	0.514111	0.091327
	N274	N	0.805570	0.442624	0.089963
	N275	N	0.804917	0.514437	0.913764
	O276	O	0.371451	0.301174	0.621876
	H277	H	0.356025	0.300967	0.599684
	H278	H	0.369692	0.304313	0.625094
	O279	O	0.405042	0.376827	0.600396
	H280	H	0.384333	0.380110	0.597594
	H281	H	0.406881	0.368341	0.608648
	O282	O	0.957680	-0.125528	0.989043
	H283	H	0.944835	-0.126929	0.986672
	H284	H	0.953688	-0.126181	0.975507
	O285	O	0.430169	0.570849	0.524996
	H286	H	0.425658	0.561070	0.524955
	H287	H	0.428119	0.585500	0.528968
	O288	O	0.900287	0.886354	0.923393
	H289	H	0.901469	0.889640	0.948005
	H290	H	0.904422	0.878406	0.923598
	O291	O	-0.014569	0.891235	0.001252
	H292	H	0.004814	0.890073	0.001745
	H293	H	-0.021186	0.895322	-0.010066
	O294	O	0.447956	0.464355	0.661850
	H295	H	0.440453	0.463723	0.665575
	H296	H	0.440931	0.469261	0.657571
	O297	O	0.347943	0.402836	0.509507
	H298	H	0.345997	0.409223	0.493341
	H299	H	0.354750	0.419410	0.506698
	O300	O	0.457124	0.420138	0.440767
	H301	H	0.454219	0.425273	0.433748
	H302	H	0.468857	0.424259	0.443976
	O303	O	0.369619	0.317805	0.485614
	H304	H	0.382323	0.318481	0.481296
	H305	H	0.351767	0.324968	0.468374
	O306	O	0.565256	0.421180	0.406442
	H307	H	0.556259	0.424606	0.407242
	H308	H	0.560805	0.415234	0.407765
	O309	O	0.850928	1.095688	0.059226
	H310	H	0.864234	1.097100	0.047046
	H311	H	0.847825	1.090838	0.071903
	O312	O	-0.009289	0.130308	0.025294
	H313	H	0.003426	0.145334	0.023979
	H314	H	-0.011738	0.119883	0.042786
	O315	O	0.400048	0.570577	0.609781
	H316	H	0.400583	0.564844	0.617566
	H317	H	0.411212	0.563360	0.603977
	O318	O	-0.073482	1.087782	0.925532
	H319	H	-0.098080	1.092270	0.921870
	H320	H	-0.075263	1.081012	0.919191
	O321	O	0.298024	0.493198	0.465075
	H322	H	0.296534	0.502391	0.457541
	H323	H	0.303575	0.511078	0.455181
	O324	O	-0.052643	1.076658	0.070968
	H325	H	-0.041143	1.084025	0.067000
	H326	H	-0.041144	1.078550	0.081256
	O327	O	0.662777	0.536028	0.596985
	H328	H	0.666873	0.524271	0.613397
	H329	H	0.656487	0.517917	0.598352
	O330	O	-0.913592	0.776689	1.914234
	H331	H	-0.905938	0.759895	1.904826
	H332	H	-0.897761	0.788288	1.904381
	O333	O	-0.016264	0.041901	0.980048
	H334	H	-0.018472	0.038599	0.985564
	H335	H	-0.003357	0.048476	0.991290
	O336	O	0.665834	0.557714	0.497214
	H337	H	0.672573	0.562340	0.501155
	H338	H	0.662438	0.557631	0.503724
	O339	O	0.964113	-0.055625	-0.016855
	H340	H	0.957345	-0.064223	-0.019636
	H341	H	0.969618	-0.038288	-0.020683
	O342	O	0.004101	-0.121912	0.100837
	H343	H	0.000589	-0.128339	0.108106
	H344	H	0.002938	-0.125650	0.105418
	O345	O	1.396569	0.630319	0.377447
	H346	H	1.401007	0.629057	0.392401
	H347	H	1.414484	0.641064	0.382965
	O348	O	1.550399	1.519715	0.515137
	H349	H	1.545953	1.520689	0.528853
	H350	H	1.548661	1.516193	0.515805
	O351	O	0.632492	0.432343	0.542186
	H352	H	0.629588	0.429691	0.539187
	H353	H	0.634787	0.418280	0.534538
	O354	O	0.904407	-0.057363	1.131996
	H355	H	0.910340	-0.057165	1.130900
	H356	H	0.904787	-0.069882	1.132090
	O357	O	0.570213	0.310785	0.505753
	H358	H	0.558270	0.290403	0.526336
	H359	H	0.578947	0.306011	0.492335
	O360	O	0.412468	0.464964	0.458633
	H361	H	0.413462	0.476280	0.463218
	H362	H	0.418712	0.459527	0.452227
	O363	O	0.017093	0.978280	0.951470
	H364	H	0.020598	0.970050	0.961558
	H365	H	0.014621	0.980864	0.922553
	O366	O	1.105787	1.044792	0.014840
	H367	H	1.092081	1.057305	0.017789
	H368	H	1.108145	1.038533	0.001943
	O369	O	0.018553	0.941051	0.022607
	H370	H	0.030944	0.963531	0.014425
	H371	H	0.004824	0.941540	0.007583
	O372	O	0.932321	-0.051868	-0.060512
	H373	H	0.939627	-0.067058	-0.063349
	H374	H	0.937758	-0.050298	-0.076246
	O375	O	0.631897	0.295213	0.477986
	H376	H	0.634061	0.300456	0.460339
	H377	H	0.646836	0.283933	0.459851
	O378	O	1.611660	1.570376	0.389328
	H379	H	1.629798	1.571991	0.401644
	H380	H	1.618139	1.567573	0.386555
	O381	O	0.945147	-0.006160	-0.100796
	H382	H	0.957336	0.000864	-0.094765
	H383	H	0.951882	-0.014032	-0.091710
	O384	O	1.128413	1.080060	0.040637
	H385	H	1.102931	1.085590	0.036167
	H386	H	1.134295	1.077913	0.046093
	O387	O	-0.093709	0.145191	-0.116777
	H388	H	-0.094268	0.135782	-0.118307
	H389	H	-0.089109	0.142091	-0.111945
	O390	O	0.110847	1.008295	0.102906
	H391	H	0.116031	1.006795	0.109965
	H392	H	0.099120	1.010416	0.102667
	O393	O	1.113291	0.994524	0.929352
	H394	H	1.119275	1.003684	0.927393
	H395	H	1.101228	1.002375	0.939088
	O396	O	0.558248	0.668593	0.549956
	H397	H	0.555923	0.675617	0.561346
	H398	H	0.575129	0.668019	0.571117
	O399	O	-0.015131	0.919477	1.121045
	H400	H	-0.025909	0.924571	1.120319
	H401	H	-0.021456	0.920666	1.122278
	O402	O	0.436145	0.478934	0.526885
	H403	H	0.419533	0.471224	0.516930
	H404	H	0.434605	0.477929	0.533112
	O405	O	0.894938	0.890839	0.092897
	H406	H	0.893534	0.879798	0.096252
	H407	H	0.894496	0.876098	0.105306
	O408	O	1.393268	0.512702	0.332561
	H409	H	1.384969	0.518846	0.320392
	H410	H	1.418058	0.527689	0.325044
	O411	O	1.159823	-0.164773	0.810900
	H412	H	1.164625	-0.140977	0.799688
	H413	H	1.155509	-0.167847	0.812746
	O414	O	0.411529	0.660404	0.556892
	H415	H	0.417241	0.647719	0.563201
	H416	H	0.408631	0.663452	0.560036
	O417	O	0.562105	0.460114	0.493471
	H418	H	0.556856	0.461930	0.481077
	H419	H	0.557304	0.471228	0.510635
