data_Molecule from HDF5

_cell_length_a		16.608143
_cell_length_b		16.652143
_cell_length_c		16.698432
_cell_angle_alpha	90.040126
_cell_angle_beta	89.895353
_cell_angle_gamma	90.176344
_symmetry_space_group_name_H-M	'P 1'
_symmetry_Int_Tables_number		1

loop_
	_symmetry_equiv_pos_as_xyz
	x,y,z

loop_
	_atom_site_label
	_atom_site_type_symbol
	_atom_site_fract_x
	_atom_site_fract_y
	_atom_site_fract_z
	H0	H	0.393974	0.864289	0.702793
	H1	H	0.606889	0.172836	0.703114
	H2	H	0.607884	0.865303	0.256527
	H3	H	0.391459	0.172045	0.256692
	H4	H	0.722600	0.410948	0.827850
	H5	H	0.724749	0.629320	0.133037
	H6	H	0.275732	0.625274	0.827552
	H7	H	0.273509	0.409823	0.134426
	H8	H	0.844821	0.739083	0.376591
	H9	H	0.154343	0.740756	0.587459
	H10	H	0.844821	0.297646	0.583954
	H11	H	0.154201	0.294583	0.370732
	H12	H	0.845563	0.411576	0.701406
	H13	H	0.154913	0.624305	0.702338
	H14	H	0.844283	0.624031	0.260488
	H15	H	0.153053	0.410135	0.254901
	H16	H	0.392418	0.741485	0.827662
	H17	H	0.609534	0.745497	0.132482
	H18	H	0.604768	0.295948	0.827590
	H19	H	0.389203	0.294519	0.134372
	H20	H	0.721953	0.864404	0.373541
	H21	H	0.720887	0.173598	0.585257
	H22	H	0.278282	0.863866	0.586741
	H23	H	0.277545	0.172972	0.374647
	H24	H	0.888690	0.366287	0.206121
	H25	H	0.105951	0.672629	0.203330
	H26	H	0.104840	0.363196	0.758538
	H27	H	0.893687	0.672086	0.757417
	H28	H	0.225279	0.909356	0.328323
	H29	H	0.221915	0.124970	0.633984
	H30	H	0.777419	0.123713	0.325688
	H31	H	0.781143	0.917134	0.636257
	H32	H	0.342911	0.239208	0.876819
	H33	H	0.653615	0.241377	0.086335
	H34	H	0.345509	0.796321	0.087255
	H35	H	0.654265	0.797587	0.874845
	H36	H	0.345719	0.910508	0.204016
	H37	H	0.654114	0.124938	0.201685
	H38	H	0.343667	0.124819	0.759799
	H39	H	0.655213	0.915308	0.760656
	H40	H	0.894639	0.239640	0.325601
	H41	H	0.106216	0.241735	0.633377
	H42	H	0.109490	0.793074	0.328344
	H43	H	0.896691	0.800238	0.636352
	H44	H	0.218758	0.362850	0.876407
	H45	H	0.222169	0.672219	0.086750
	H46	H	0.776508	0.364732	0.086126
	H47	H	0.777762	0.672547	0.874638
	H48	H	0.406299	0.131279	0.567127
	H49	H	0.587785	0.906738	0.570074
	H50	H	0.586821	0.128905	0.393552
	H51	H	0.409592	0.907788	0.393413
	H52	H	0.583301	0.428755	0.090794
	H53	H	0.585604	0.607213	0.871182
	H54	H	0.404723	0.605223	0.093208
	H55	H	0.416122	0.431145	0.873437
	H56	H	0.108625	0.602723	0.393664
	H57	H	0.886959	0.609931	0.571907
	H58	H	0.112651	0.423403	0.563476
	H59	H	0.891000	0.430991	0.396358
	H60	H	0.108739	0.437599	0.567794
	H61	H	0.888608	0.607492	0.568015
	H62	H	0.111377	0.605844	0.392075
	H63	H	0.889607	0.432433	0.391647
	H64	H	0.414834	0.602142	0.088324
	H65	H	0.588877	0.608659	0.869968
	H66	H	0.591065	0.429649	0.092733
	H67	H	0.408986	0.425781	0.869963
	H68	H	0.588390	0.129530	0.392049
	H69	H	0.591484	0.905990	0.570720
	H70	H	0.411241	0.132249	0.576179
	H71	H	0.417557	0.909346	0.390537
	H72	H	0.912817	0.628647	0.069536
	H73	H	0.090205	0.405386	0.069171
	H74	H	0.092973	0.628947	0.896815
	H75	H	0.906923	0.402907	0.885309
	H76	H	0.086940	0.932170	0.590233
	H77	H	0.088068	0.100034	0.371758
	H78	H	0.907281	0.108921	0.592460
	H79	H	0.912914	0.922938	0.367974
	H80	H	0.613044	0.112284	0.888853
	H81	H	0.389059	0.104161	0.066975
	H82	H	0.611590	0.930378	0.068115
	H83	H	0.388468	0.929372	0.895352
	H84	H	0.610217	0.933493	0.066129
	H85	H	0.386457	0.105455	0.073408
	H86	H	0.608665	0.109616	0.897853
	H87	H	0.387685	0.932762	0.889380
	H88	H	0.911297	0.104345	0.590021
	H89	H	0.082553	0.106569	0.370518
	H90	H	0.086146	0.927943	0.591287
	H91	H	0.905861	0.930620	0.367454
	H92	H	0.088638	0.632323	0.884923
	H93	H	0.078986	0.408726	0.072954
	H94	H	0.910228	0.630715	0.069160
	H95	H	0.917962	0.408936	0.890225
	H96	H	0.416292	0.127541	0.567773
	H97	H	0.588616	0.905991	0.573598
	H98	H	0.586481	0.129252	0.391454
	H99	H	0.415629	0.911032	0.398886
	H100	H	0.587069	0.435123	0.089820
	H101	H	0.588635	0.605093	0.871085
	H102	H	0.413437	0.612854	0.092027
	H103	H	0.407483	0.435153	0.871976
	H104	H	0.110146	0.605992	0.395942
	H105	H	0.887769	0.605304	0.572197
	H106	H	0.115536	0.428322	0.577467
	H107	H	0.888616	0.427510	0.392721
	H108	H	0.911616	0.629633	0.071947
	H109	H	0.081672	0.411130	0.061708
	H110	H	0.080647	0.626667	0.893376
	H111	H	0.906459	0.407866	0.897847
	H112	H	0.090329	0.929568	0.592069
	H113	H	0.091207	0.107721	0.368475
	H114	H	0.913543	0.110282	0.590826
	H115	H	0.915210	0.932460	0.371290
	H116	H	0.608145	0.103211	0.889539
	H117	H	0.386413	0.111039	0.068593
	H118	H	0.610259	0.933283	0.069890
	H119	H	0.385657	0.926687	0.889975
	C120	C	0.378229	0.027877	0.602750
	C121	C	0.621449	1.009366	0.602691
	C122	C	0.620395	0.027087	0.359470
	C123	C	0.379639	1.010437	0.360329
	C124	C	0.619543	0.398205	-0.010629
	C125	C	0.621181	0.641047	0.972099
	C126	C	0.378115	0.639500	-0.010684
	C127	C	0.376989	0.396911	0.973086
	C128	C	0.007867	0.638450	0.360813
	C129	C	0.990857	0.639432	0.602708
	C130	C	0.009210	0.397316	0.601002
	C131	C	0.991195	0.396705	0.358914
	C132	C	0.877438	0.527961	0.102756
	C133	C	0.118695	0.510058	0.101688
	C134	C	0.119847	0.526627	0.859342
	C135	C	0.878151	0.509249	0.858883
	C136	C	0.121786	0.896208	0.489901
	C137	C	0.120777	0.138921	0.471538
	C138	C	0.878005	0.140133	0.488855
	C139	C	0.878863	0.897225	0.471798
	C140	C	0.507262	0.140262	0.860206
	C141	C	0.489768	0.140485	0.102247
	C142	C	0.508341	0.898244	0.101414
	C143	C	0.490332	0.897951	0.859658
	C144	C	0.375785	0.910948	0.662493
	C145	C	0.624460	0.126214	0.662642
	C146	C	0.624770	0.911424	0.297476
	C147	C	0.374610	0.125974	0.298066
	C148	C	0.681375	0.393810	0.873891
	C149	C	0.683375	0.646199	0.087090
	C150	C	0.316768	0.642860	0.873613
	C151	C	0.314620	0.392922	0.088229
	C152	C	0.891378	0.699179	0.358235
	C153	C	0.107855	0.700177	0.605329
	C154	C	0.891967	0.337364	0.602574
	C155	C	0.107536	0.335207	0.353715
	C156	C	0.892070	0.394280	0.660803
	C157	C	0.107904	0.642372	0.662575
	C158	C	0.891033	0.641612	0.300890
	C159	C	0.106960	0.392751	0.296155
	C160	C	0.374443	0.701031	0.873817
	C161	C	0.626185	0.704158	0.086757
	C162	C	0.622963	0.336549	0.873723
	C163	C	0.372504	0.335524	0.088328
	C164	C	0.681599	0.911008	0.355771
	C165	C	0.681341	0.126477	0.604154
	C166	C	0.318307	0.910600	0.604628
	C167	C	0.317933	0.126397	0.356912
	C168	C	0.872158	0.412362	0.164534
	C169	C	0.123558	0.626118	0.163018
	C170	C	0.122592	0.409743	0.799151
	C171	C	0.875323	0.625650	0.797969
	C172	C	0.184309	0.891774	0.374560
	C173	C	0.181547	0.142725	0.587633
	C174	C	0.817792	0.142172	0.372243
	C175	C	0.820327	0.897198	0.589298
	C176	C	0.389948	0.199709	0.858206
	C177	C	0.606852	0.201263	0.104762
	C178	C	0.392140	0.836528	0.105214
	C179	C	0.607763	0.838051	0.856992
	C180	C	0.392095	0.893555	0.163060
	C181	C	0.607087	0.143320	0.161986
	C182	C	0.390375	0.142714	0.800139
	C183	C	0.608098	0.896384	0.800230
	C184	C	0.875969	0.199642	0.372022
	C185	C	0.124270	0.200894	0.587156
	C186	C	0.126507	0.834142	0.374478
	C187	C	0.877744	0.839380	0.589436
	C188	C	0.179239	0.409406	0.857578
	C189	C	0.181321	0.625845	0.105257
	C190	C	0.816062	0.411560	0.105266
	C191	C	0.818106	0.626036	0.856433
	C192	C	0.403778	0.109276	0.577688
	C193	C	0.596449	0.927532	0.578396
	C194	C	0.594531	0.108187	0.385198
	C195	C	0.406840	0.930221	0.386815
	C196	C	0.594091	0.423946	0.070141
	C197	C	0.594987	0.614383	0.891706
	C198	C	0.403782	0.613960	0.069957
	C199	C	0.403518	0.423226	0.892662
	C200	C	0.089107	0.612316	0.386602
	C201	C	0.909118	0.614436	0.577860
	C202	C	0.091099	0.422655	0.576289
	C203	C	0.910731	0.422789	0.385942
	C204	C	0.903862	0.608712	0.077334
	C205	C	0.091458	0.429459	0.075221
	C206	C	0.094686	0.607995	0.884309
	C207	C	0.903302	0.427860	0.883989
	C208	C	0.095125	0.922464	0.570266
	C209	C	0.094798	0.112322	0.391049
	C210	C	0.903599	0.114969	0.570006
	C211	C	0.903941	0.921681	0.390175
	C212	C	0.588728	0.115544	0.884996
	C213	C	0.408528	0.114449	0.076932
	C214	C	0.589534	0.924644	0.075529
	C215	C	0.408600	0.922389	0.884448
	Zn216	Zn	0.499586	0.019553	0.731527
	Zn217	Zn	0.499693	0.018743	0.230047
	Zn218	Zn	0.749238	0.518971	-0.019398
	Zn219	Zn	0.247985	0.517919	-0.019347
	Zn220	Zn	-0.000098	0.767742	0.481215
	Zn221	Zn	0.000533	0.268551	0.479636
	Zn222	Zn	-0.000432	0.517638	0.730423
	Zn223	Zn	-0.001075	0.518500	0.231230
	Zn224	Zn	0.499639	0.769501	-0.019112
	Zn225	Zn	0.498225	0.268602	-0.018729
	Zn226	Zn	0.749621	0.018237	0.480018
	Zn227	Zn	0.250076	0.018139	0.480976
	N228	N	0.412400	0.984938	0.661636
	N229	N	0.587577	0.052358	0.661920
	N230	N	0.587256	0.984767	0.299565
	N231	N	0.412407	0.052848	0.299997
	N232	N	0.679437	0.431529	0.946829
	N233	N	0.680331	0.607260	0.014772
	N234	N	0.318800	0.605188	0.946414
	N235	N	0.317203	0.430606	0.015425
	N236	N	0.965222	0.697454	0.394690
	N237	N	0.033991	0.698561	0.568608
	N238	N	0.965964	0.339090	0.566001
	N239	N	0.034445	0.337379	0.392040
	N240	N	0.966159	0.430832	0.660053
	N241	N	0.034121	0.605306	0.661170
	N242	N	0.964760	0.604445	0.302191
	N243	N	0.033582	0.430238	0.298956
	N244	N	0.412077	0.699104	0.946807
	N245	N	0.587972	0.700911	0.014269
	N246	N	0.585315	0.338920	0.946618
	N247	N	0.410571	0.337817	0.015557
	N248	N	0.678950	0.983992	0.393959
	N249	N	0.679646	0.052727	0.567484
	N250	N	0.319691	0.984417	0.568152
	N251	N	0.320755	0.053401	0.394912
	N252	N	0.909497	0.485784	0.163387
	N253	N	0.085391	0.552972	0.160843
	N254	N	0.086446	0.483777	0.799994
	N255	N	0.911855	0.551910	0.799378
	N256	N	0.181832	0.929604	0.447512
	N257	N	0.179596	0.104931	0.514562
	N258	N	0.818784	0.106144	0.446123
	N259	N	0.820621	0.932261	0.514917
	N260	N	0.463651	0.198439	0.894864
	N261	N	0.532654	0.199927	0.068646
	N262	N	0.465557	0.839221	0.067617
	N263	N	0.533528	0.838613	0.893314
	N264	N	0.465581	0.931212	0.160979
	N265	N	0.533308	0.106229	0.160727
	N266	N	0.464445	0.106545	0.800981
	N267	N	0.534019	0.932569	0.801420
	N268	N	0.912613	0.198786	0.445747
	N269	N	0.087281	0.198830	0.513757
	N270	N	0.088323	0.836632	0.447307
	N271	N	0.913193	0.838848	0.515112
	N272	N	0.177869	0.483173	0.894368
	N273	N	0.178481	0.552505	0.067797
	N274	N	0.819123	0.484554	0.067450
	N275	N	0.819601	0.552499	0.893605
	O276	O	-0.222098	1.041801	-0.026721
	H277	H	-0.225408	1.041611	-0.031193
	H278	H	-0.211986	1.050902	-0.033205
	O279	O	0.808360	0.830444	0.789830
	H280	H	0.840074	0.842706	0.800165
	H281	H	0.817104	0.852883	0.814657
	O282	O	1.002689	-0.173612	1.159047
	H283	H	1.013324	-0.160977	1.159444
	H284	H	1.008042	-0.182842	1.167898
	O285	O	0.559605	0.368692	0.477010
	H286	H	0.568057	0.369369	0.470079
	H287	H	0.549922	0.379687	0.483885
	O288	O	0.339888	0.353084	0.352752
	H289	H	0.363665	0.367226	0.363506
	H290	H	0.352058	0.365551	0.367563
	O291	O	0.456310	0.747026	0.558671
	H292	H	0.468070	0.744213	0.550919
	H293	H	0.449718	0.746136	0.538283
	O294	O	0.917849	0.164739	0.970309
	H295	H	0.904853	0.170898	0.981761
	H296	H	0.931657	0.176009	0.961958
	O297	O	0.397541	0.446724	0.267117
	H298	H	0.407400	0.443393	0.263899
	H299	H	0.405678	0.437200	0.280123
	O300	O	-0.214946	0.062142	0.773438
	H301	H	-0.223934	0.057553	0.787569
	H302	H	-0.221985	0.049016	0.760248
	O303	O	0.302589	0.317986	0.682748
	H304	H	0.307467	0.323119	0.695001
	H305	H	0.302540	0.317297	0.656168
	O306	O	0.566390	0.415837	0.627816
	H307	H	0.560363	0.414548	0.632199
	H308	H	0.572029	0.431574	0.629811
	O309	O	0.456749	0.736542	0.275221
	H310	H	0.473456	0.727568	0.266720
	H311	H	0.466316	0.737450	0.254883
	O312	O	0.725168	0.744968	0.511421
	H313	H	0.732384	0.746728	0.538788
	H314	H	0.742021	0.766595	0.529495
	O315	O	0.707930	0.311136	1.270532
	H316	H	0.718949	0.295723	1.278940
	H317	H	0.713771	0.305649	1.285126
	O318	O	0.706474	0.540358	0.433483
	H319	H	0.709663	0.565066	0.411670
	H320	H	0.715855	0.540288	0.425349
	O321	O	-0.648734	0.519196	0.453598
	H322	H	-0.651695	0.528498	0.448180
	H323	H	-0.649124	0.514367	0.462304
	O324	O	1.066495	0.796379	0.027333
	H325	H	1.084864	0.800241	0.038802
	H326	H	1.082187	0.800967	0.032575
	O327	O	0.181312	0.077102	1.202245
	H328	H	0.188851	0.070401	1.214417
	H329	H	0.180480	0.070713	1.186155
	O330	O	0.706237	0.501656	0.254212
	H331	H	0.718467	0.480768	0.244813
	H332	H	0.716846	0.489698	0.244727
	O333	O	0.539127	0.294502	0.276342
	H334	H	0.546768	0.291306	0.257889
	H335	H	0.560761	0.286023	0.265920
	O336	O	0.496249	0.348947	0.705211
	H337	H	0.496225	0.352037	0.715271
	H338	H	0.490819	0.344972	0.713056
	O339	O	0.865807	-0.023217	0.933968
	H340	H	0.863823	-0.016031	0.928716
	H341	H	0.863196	-0.044649	0.941905
	O342	O	0.290375	-0.389788	0.440535
	H343	H	0.306654	-0.398629	0.436977
	H344	H	0.282389	-0.378190	0.435053
	O345	O	0.036497	0.982366	1.006971
	H346	H	0.039934	0.989910	0.998777
	H347	H	0.038355	0.979653	1.000507
	O348	O	0.204605	0.216145	0.187195
	H349	H	0.210572	0.185317	0.172614
	H350	H	0.214361	0.237702	0.214177
	O351	O	-0.005677	-0.023342	0.884171
	H352	H	-0.002958	-0.017330	0.876748
	H353	H	0.002806	-0.029553	0.888589
	O354	O	0.049915	-0.035046	1.214122
	H355	H	0.061103	-0.032400	1.214016
	H356	H	0.054471	-0.041487	1.201533
	O357	O	0.720581	0.537213	0.706623
	H358	H	0.713736	0.577179	0.683309
	H359	H	0.754767	0.551145	0.739369
	O360	O	0.680974	0.520022	0.568733
	H361	H	0.679336	0.525199	0.553236
	H362	H	0.687682	0.544021	0.574112
	O363	O	0.037750	-0.181656	-0.219649
	H364	H	0.053776	-0.188333	-0.214926
	H365	H	0.044535	-0.199378	-0.234489
	O366	O	0.418984	0.297082	0.519662
	H367	H	0.412174	0.294802	0.532878
	H368	H	0.401198	0.291139	0.540083
	O369	O	0.809736	0.210343	0.173217
	H370	H	0.829126	0.202602	0.147843
	H371	H	0.811145	0.194683	0.175869
	O372	O	0.940838	1.250799	0.046139
	H373	H	0.950410	1.248553	0.067182
	H374	H	0.949276	1.252046	0.034139
	O375	O	0.880090	-0.154163	0.148280
	H376	H	0.891218	-0.159333	0.146739
	H377	H	0.899211	-0.137064	0.146566
	O378	O	0.499261	0.462284	0.497644
	H379	H	0.502226	0.463768	0.485225
	H380	H	0.498880	0.462269	0.501658
	O381	O	-0.221492	1.237000	0.946854
	H382	H	-0.238602	1.258133	0.938364
	H383	H	-0.211676	1.242739	0.932795
	O384	O	1.157386	0.001834	0.879066
	H385	H	1.139976	-0.004915	0.877163
	H386	H	1.162726	-0.007628	0.881092
	O387	O	1.217015	0.835321	-0.033317
	H388	H	1.212435	0.854896	-0.040442
	H389	H	1.235411	0.822343	-0.041374
	O390	O	0.276565	0.643176	0.367641
	H391	H	0.292576	0.640248	0.347152
	H392	H	0.264941	0.659627	0.348625
	O393	O	0.720215	0.305651	0.449472
	H394	H	0.693082	0.312364	0.470323
	H395	H	0.748937	0.271681	0.452520
	O396	O	0.320703	0.682666	0.663271
	H397	H	0.337968	0.680789	0.626978
	H398	H	0.336274	0.650853	0.669566
	O399	O	0.141325	0.035771	0.754274
	H400	H	0.159011	0.043950	0.736700
	H401	H	0.130786	0.036093	0.757237
	O402	O	0.295440	0.729389	0.275604
	H403	H	0.314817	0.708019	0.272758
	H404	H	0.318313	0.717657	0.290842
	O405	O	0.794585	-0.770086	1.771963
	H406	H	0.759195	-0.740902	1.740014
	H407	H	0.786263	-0.808569	1.782498
	O408	O	0.027707	-0.018669	-0.197783
	H409	H	0.048354	-0.019062	-0.215186
	H410	H	0.017796	-0.016257	-0.201608
	O411	O	0.446132	0.586943	0.714347
	H412	H	0.443883	0.576403	0.714716
	H413	H	0.441324	0.573967	0.717893
	O414	O	1.182886	-0.171418	1.163959
	H415	H	1.186109	-0.147091	1.145578
	H416	H	1.208624	-0.200248	1.188229
	O417	O	0.545356	0.538394	0.267477
	H418	H	0.561719	0.526987	0.267512
	H419	H	0.559883	0.533434	0.265790
	O420	O	0.541567	0.735050	0.701281
	H421	H	0.519925	0.740197	0.690715
	H422	H	0.529757	0.745771	0.721076
	O423	O	-0.225088	-0.208547	1.213672
	H424	H	-0.222272	-0.163213	1.201275
	H425	H	-0.185174	-0.214200	1.213765
	O426	O	0.397236	0.389185	0.520963
	H427	H	0.389894	0.404227	0.511949
	H428	H	0.395250	0.387641	0.511627
	O429	O	0.784635	0.808374	0.994861
	H430	H	0.765931	0.787181	1.016888
	H431	H	0.808970	0.810564	1.008776
	O432	O	0.618069	0.316796	0.683868
	H433	H	0.613878	0.326467	0.680241
	H434	H	0.606971	0.325339	0.668892
	O435	O	0.192170	1.232209	0.026180
	H436	H	0.193567	1.218590	0.048675
	H437	H	0.214555	1.256550	0.012148
	O438	O	-0.030245	-0.215230	-0.062497
	H439	H	-0.010204	-0.218243	-0.068817
	H440	H	-0.037056	-0.219215	-0.048894
	O441	O	0.026449	0.196924	0.175079
	H442	H	0.041742	0.204485	0.168419
	H443	H	0.053157	0.211493	0.188594
	O444	O	0.286690	0.488413	0.698096
	H445	H	0.262611	0.489293	0.695988
	H446	H	0.278376	0.476537	0.696997
	O447	O	-0.208766	1.002567	1.190332
	H448	H	-0.220653	1.010225	1.193787
	H449	H	-0.190100	1.015135	1.189779
	O450	O	0.146601	1.015969	1.024624
	H451	H	0.127994	1.014875	1.013042
	H452	H	0.149638	1.009733	1.017645
	O453	O	0.550309	0.646909	0.433407
	H454	H	0.554595	0.653246	0.414434
	H455	H	0.570901	0.652124	0.431254
	O456	O	0.118593	0.200080	0.918143
	H457	H	0.124658	0.195990	0.919582
	H458	H	0.104507	0.198109	0.907512
	O459	O	0.541326	0.529068	0.606070
	H460	H	0.543427	0.544555	0.597892
	H461	H	0.565600	0.532820	0.611709
	O462	O	0.944090	0.078333	1.207682
	H463	H	0.958864	0.082443	1.213567
	H464	H	0.957034	0.079903	1.198085
	O465	O	1.277217	-0.443578	0.363228
	H466	H	1.264741	-0.440023	0.368678
	H467	H	1.292629	-0.452784	0.354900
	O468	O	0.550841	0.730610	0.433861
	H469	H	0.564511	0.733701	0.430279
	H470	H	0.561660	0.727611	0.420573
	O471	O	0.614040	0.646277	0.277601
	H472	H	0.605741	0.623316	0.280621
	H473	H	0.645786	0.673850	0.263015
	O474	O	0.102718	0.964407	-0.130826
	H475	H	0.095294	0.948311	-0.144178
	H476	H	0.114439	0.971821	-0.144411
	O477	O	0.335409	0.579132	1.489690
	H478	H	0.336695	0.589958	1.482199
	H479	H	0.326623	0.569131	1.478607
	O480	O	0.609491	0.473996	0.370402
	H481	H	0.611235	0.476290	0.395360
	H482	H	0.617042	0.486255	0.360795
	O483	O	0.469930	0.325832	0.401507
	H484	H	0.475772	0.315465	0.396595
	H485	H	0.485567	0.329807	0.403847
	O486	O	1.205450	-0.188825	0.770581
	H487	H	1.239322	-0.220831	0.744700
	H488	H	1.201826	-0.170168	0.790554
	O489	O	0.996134	1.054260	-0.154098
	H490	H	1.011611	1.070280	-0.157642
	H491	H	1.001533	1.065995	-0.157148
	O492	O	0.190811	0.212584	-0.212318
	H493	H	0.186522	0.215776	-0.199756
	H494	H	0.191353	0.207939	-0.206852
	O495	O	-0.030496	1.239227	0.758239
	H496	H	-0.049041	1.257510	0.744023
	H497	H	-0.060298	1.250181	0.753385
	O498	O	1.046769	1.044924	1.026009
	H499	H	1.042824	1.064104	1.014792
	H500	H	1.040021	1.039796	1.027820
	O501	O	0.710046	0.730051	0.691103
	H502	H	0.739563	0.763737	0.725005
	H503	H	0.661950	0.736639	0.694538
