data_Molecule from HDF5

_cell_length_a		16.198818
_cell_length_b		16.456844
_cell_length_c		16.251280
_cell_angle_alpha	90.068916
_cell_angle_beta	89.993175
_cell_angle_gamma	89.925924
_symmetry_space_group_name_H-M	'P 1'
_symmetry_Int_Tables_number		1

loop_
	_symmetry_equiv_pos_as_xyz
	x,y,z

loop_
	_atom_site_label
	_atom_site_type_symbol
	_atom_site_fract_x
	_atom_site_fract_y
	_atom_site_fract_z
	H0	H	0.404421	0.842003	0.718681
	H1	H	0.601351	0.166614	0.720874
	H2	H	0.601307	0.842323	0.287842
	H3	H	0.402812	0.166571	0.287831
	H4	H	0.713653	0.409063	0.838676
	H5	H	0.714336	0.602053	0.167476
	H6	H	0.288841	0.601471	0.838838
	H7	H	0.287618	0.409354	0.168201
	H8	H	0.838699	0.721956	0.402296
	H9	H	0.166184	0.720880	0.603179
	H10	H	0.839088	0.288969	0.605146
	H11	H	0.166264	0.289163	0.402309
	H12	H	0.837103	0.409283	0.715359
	H13	H	0.167362	0.602501	0.716290
	H14	H	0.836862	0.602657	0.290755
	H15	H	0.167540	0.409304	0.290248
	H16	H	0.400500	0.721148	0.840732
	H17	H	0.601990	0.720441	0.166964
	H18	H	0.602143	0.289198	0.840439
	H19	H	0.398950	0.288440	0.166690
	H20	H	0.717109	0.841878	0.405887
	H21	H	0.716755	0.167341	0.602698
	H22	H	0.287810	0.842218	0.601065
	H23	H	0.288354	0.167727	0.406738
	H24	H	0.902228	0.343961	0.219346
	H25	H	0.099508	0.668599	0.218730
	H26	H	0.101971	0.343901	0.786817
	H27	H	0.902926	0.668680	0.787854
	H28	H	0.214378	0.908798	0.338273
	H29	H	0.214987	0.101235	0.667987
	H30	H	0.788693	0.101734	0.339044
	H31	H	0.789543	0.909172	0.668613
	H32	H	0.338223	0.220918	0.903182
	H33	H	0.665942	0.220130	0.103488
	H34	H	0.338915	0.790310	0.103230
	H35	H	0.665703	0.788811	0.903638
	H36	H	0.337388	0.908843	0.215038
	H37	H	0.667543	0.101263	0.216576
	H38	H	0.336999	0.101107	0.791266
	H39	H	0.667499	0.907674	0.791362
	H40	H	0.901356	0.221989	0.340120
	H41	H	0.105256	0.222818	0.666137
	H42	H	0.102860	0.788847	0.340185
	H43	H	0.901707	0.789598	0.666475
	H44	H	0.217110	0.343596	0.905065
	H45	H	0.216192	0.668085	0.101776
	H46	H	0.787462	0.343107	0.100411
	H47	H	0.785856	0.668658	0.905245
	H48	H	0.407194	0.121742	0.603211
	H49	H	0.600483	0.890631	0.590787
	H50	H	0.592613	0.122784	0.396517
	H51	H	0.408780	0.888212	0.405149
	H52	H	0.596637	0.413723	0.120258
	H53	H	0.590339	0.604634	0.886095
	H54	H	0.403945	0.597141	0.120808
	H55	H	0.402384	0.412702	0.885786
	H56	H	0.118966	0.600754	0.412585
	H57	H	0.887067	0.591296	0.596928
	H58	H	0.115881	0.419722	0.591596
	H59	H	0.884716	0.421152	0.400694
	H60	H	0.121575	0.412156	0.602708
	H61	H	0.882135	0.604442	0.599810
	H62	H	0.118326	0.596387	0.411398
	H63	H	0.880992	0.399013	0.409661
	H64	H	0.413243	0.596628	0.117945
	H65	H	0.599409	0.597372	0.885834
	H66	H	0.591373	0.412605	0.119202
	H67	H	0.414111	0.417529	0.890954
	H68	H	0.583358	0.113710	0.418017
	H69	H	0.597748	0.887074	0.604086
	H70	H	0.415136	0.116874	0.596959
	H71	H	0.411953	0.891424	0.411088
	H72	H	0.904440	0.620145	0.090575
	H73	H	0.088198	0.395952	0.086167
	H74	H	0.101544	0.620393	0.918346
	H75	H	0.908718	0.389245	0.902005
	H76	H	0.095422	0.922159	0.617573
	H77	H	0.099990	0.102133	0.384617
	H78	H	0.913830	0.103754	0.620308
	H79	H	0.906904	0.908448	0.384882
	H80	H	0.620018	0.101681	0.912899
	H81	H	0.386387	0.098585	0.092966
	H82	H	0.622821	0.901018	0.096278
	H83	H	0.385893	0.921490	0.905570
	H84	H	0.615130	0.915043	0.086364
	H85	H	0.385920	0.096480	0.096734
	H86	H	0.617642	0.096299	0.914460
	H87	H	0.380603	0.901231	0.906677
	H88	H	0.905098	0.099603	0.621218
	H89	H	0.094241	0.092974	0.388665
	H90	H	0.083769	0.907330	0.618064
	H91	H	0.908588	0.917065	0.388367
	H92	H	0.098055	0.625174	0.899171
	H93	H	0.106711	0.387966	0.095719
	H94	H	0.902728	0.624181	0.103994
	H95	H	0.915597	0.394968	0.911992
	H96	H	0.405730	0.119213	0.591921
	H97	H	0.587939	0.892361	0.595804
	H98	H	0.607374	0.121162	0.416523
	H99	H	0.404517	0.888945	0.411229
	H100	H	0.594711	0.408898	0.120640
	H101	H	0.589055	0.593949	0.889548
	H102	H	0.410123	0.604755	0.122046
	H103	H	0.413242	0.404223	0.886433
	H104	H	0.120170	0.599477	0.408799
	H105	H	0.887253	0.600956	0.586786
	H106	H	0.119616	0.405997	0.589447
	H107	H	0.891022	0.416328	0.424129
	H108	H	0.915509	0.619646	0.099049
	H109	H	0.088666	0.390044	0.107685
	H110	H	0.083851	0.616776	0.910776
	H111	H	0.902656	0.391591	0.913805
	H112	H	0.102024	0.905534	0.623159
	H113	H	0.088800	0.103268	0.387855
	H114	H	0.912683	0.095150	0.617589
	H115	H	0.915614	0.910750	0.388065
	H116	H	0.619272	0.097136	0.908890
	H117	H	0.384549	0.100684	0.096508
	H118	H	0.620932	0.917776	0.104316
	H119	H	0.389083	0.911404	0.923472
	C120	C	0.380487	0.012266	0.625953
	C121	C	0.624438	0.996710	0.626177
	C122	C	0.623644	0.012290	0.381883
	C123	C	0.379796	0.996761	0.380996
	C124	C	0.622930	0.383484	0.011826
	C125	C	0.622245	0.626959	0.995256
	C126	C	0.380095	0.627351	0.012148
	C127	C	0.379823	0.383241	0.995630
	C128	C	0.010476	0.627103	0.382269
	C129	C	0.994097	0.627160	0.623938
	C130	C	0.010484	0.384115	0.624009
	C131	C	0.994280	0.384256	0.382262
	C132	C	0.879234	0.514029	0.125985
	C133	C	0.123248	0.498101	0.125463
	C134	C	0.123699	0.513788	0.881151
	C135	C	0.879670	0.498730	0.880696
	C136	C	0.122945	0.883723	0.511388
	C137	C	0.123445	0.127158	0.495284
	C138	C	0.881011	0.127385	0.511327
	C139	C	0.881198	0.883914	0.495537
	C140	C	0.510202	0.126692	0.882878
	C141	C	0.493904	0.126500	0.124621
	C142	C	0.511100	0.883505	0.124377
	C143	C	0.493921	0.883023	0.882904
	C144	C	0.383541	0.890500	0.680702
	C145	C	0.621825	0.118573	0.682266
	C146	C	0.621673	0.890523	0.326342
	C147	C	0.382604	0.118571	0.326038
	C148	C	0.676896	0.387403	0.888029
	C149	C	0.677178	0.623426	0.118572
	C150	C	0.325851	0.623082	0.888227
	C151	C	0.325122	0.387742	0.119054
	C152	C	0.887261	0.683268	0.383316
	C153	C	0.117468	0.682615	0.622827
	C154	C	0.887330	0.328219	0.623578
	C155	C	0.117426	0.328072	0.382748
	C156	C	0.886597	0.387751	0.678692
	C157	C	0.118127	0.623697	0.678830
	C158	C	0.886162	0.623730	0.328057
	C159	C	0.118130	0.387636	0.327180
	C160	C	0.381757	0.682279	0.888976
	C161	C	0.621202	0.682260	0.118271
	C162	C	0.621417	0.327929	0.888904
	C163	C	0.380517	0.327790	0.118342
	C164	C	0.679093	0.890253	0.385054
	C165	C	0.679123	0.118887	0.623568
	C166	C	0.325725	0.890550	0.622251
	C167	C	0.325462	0.118975	0.385116
	C168	C	0.881814	0.392302	0.181253
	C169	C	0.120381	0.620098	0.180823
	C170	C	0.121721	0.392143	0.825667
	C171	C	0.882260	0.620348	0.825632
	C172	C	0.177619	0.887326	0.387669
	C173	C	0.178063	0.123088	0.619055
	C174	C	0.825496	0.123741	0.388370
	C175	C	0.826508	0.887748	0.619087
	C176	C	0.386963	0.182022	0.884057
	C177	C	0.617238	0.182092	0.123609
	C178	C	0.387592	0.828529	0.122943
	C179	C	0.617293	0.827548	0.884392
	C180	C	0.386948	0.887236	0.178618
	C181	C	0.618211	0.122754	0.179261
	C182	C	0.386522	0.122607	0.828263
	C183	C	0.617939	0.886522	0.828460
	C184	C	0.882237	0.182833	0.388629
	C185	C	0.123280	0.183280	0.617964
	C186	C	0.122000	0.827985	0.388440
	C187	C	0.882396	0.828402	0.618136
	C188	C	0.179108	0.391892	0.884177
	C189	C	0.178353	0.620004	0.122954
	C190	C	0.825096	0.391652	0.121974
	C191	C	0.824112	0.620462	0.883990
	C192	C	0.402716	0.097400	0.603906
	C193	C	0.601919	0.912091	0.603543
	C194	C	0.600905	0.097163	0.403925
	C195	C	0.401851	0.911401	0.402781
	C196	C	0.600714	0.405330	0.097899
	C197	C	0.599498	0.605091	0.909306
	C198	C	0.402434	0.605914	0.098229
	C199	C	0.403125	0.404971	0.909913
	C200	C	0.096812	0.605257	0.404349
	C201	C	0.907928	0.605364	0.601164
	C202	C	0.096739	0.406014	0.601195
	C203	C	0.908135	0.405807	0.404763
	C204	C	0.900985	0.599245	0.104184
	C205	C	0.101081	0.413391	0.103013
	C206	C	0.101284	0.598822	0.903222
	C207	C	0.902167	0.413778	0.902900
	C208	C	0.100541	0.905381	0.597355
	C209	C	0.100937	0.105696	0.409441
	C210	C	0.903917	0.105830	0.597521
	C211	C	0.903808	0.905666	0.409282
	C212	C	0.596871	0.104796	0.905616
	C213	C	0.407916	0.104987	0.102110
	C214	C	0.597327	0.905146	0.102248
	C215	C	0.407387	0.905011	0.905313
	Zn216	Zn	0.502405	0.004472	0.755291
	Zn217	Zn	0.502278	0.004522	0.251884
	Zn218	Zn	0.750071	0.505851	0.003373
	Zn219	Zn	0.252266	0.505979	0.003361
	Zn220	Zn	0.002172	0.755453	0.503115
	Zn221	Zn	0.002523	0.256099	0.503416
	Zn222	Zn	0.002072	0.505997	0.751496
	Zn223	Zn	0.001812	0.506257	0.254609
	Zn224	Zn	0.501695	0.755362	0.003985
	Zn225	Zn	0.501990	0.255245	0.003947
	Zn226	Zn	0.753061	0.004967	0.503781
	Zn227	Zn	0.250888	0.005093	0.503538
	N228	N	0.416741	0.967282	0.683069
	N229	N	0.588482	0.041712	0.683952
	N230	N	0.588058	0.967350	0.324211
	N231	N	0.415666	0.041516	0.323581
	N232	N	0.678245	0.421114	0.965490
	N233	N	0.677835	0.589630	0.041286
	N234	N	0.324799	0.589620	0.965793
	N235	N	0.324634	0.421609	0.041837
	N236	N	0.965529	0.685152	0.416524
	N237	N	0.039471	0.684822	0.589430
	N238	N	0.965442	0.325763	0.590547
	N239	N	0.039582	0.326137	0.416667
	N240	N	0.964148	0.421913	0.678917
	N241	N	0.040413	0.589967	0.679667
	N242	N	0.963523	0.589542	0.327379
	N243	N	0.040531	0.421557	0.326618
	N244	N	0.414673	0.685020	0.966943
	N245	N	0.587793	0.684347	0.040462
	N246	N	0.588544	0.325603	0.966942
	N247	N	0.413792	0.324923	0.040515
	N248	N	0.680599	0.967072	0.418721
	N249	N	0.680828	0.042310	0.589417
	N250	N	0.323788	0.967388	0.588868
	N251	N	0.323574	0.042191	0.418455
	N252	N	0.915001	0.469237	0.183549
	N253	N	0.086927	0.543352	0.182575
	N254	N	0.087963	0.468821	0.823737
	N255	N	0.915893	0.543637	0.823637
	N256	N	0.178030	0.921578	0.464966
	N257	N	0.178378	0.088943	0.541828
	N258	N	0.825107	0.089914	0.465731
	N259	N	0.825831	0.921582	0.541671
	N260	N	0.465035	0.184531	0.917246
	N261	N	0.539183	0.184424	0.090264
	N262	N	0.465544	0.826349	0.089668
	N263	N	0.538999	0.825209	0.917422
	N264	N	0.464664	0.920815	0.179440
	N265	N	0.540491	0.089031	0.180166
	N266	N	0.464418	0.088988	0.827541
	N267	N	0.540344	0.920301	0.827714
	N268	N	0.915590	0.185458	0.466337
	N269	N	0.090048	0.185938	0.539999
	N270	N	0.088882	0.825455	0.466420
	N271	N	0.915612	0.826081	0.540292
	N272	N	0.180353	0.468568	0.918061
	N273	N	0.180344	0.543359	0.089303
	N274	N	0.823295	0.468309	0.088389
	N275	N	0.822388	0.543696	0.917630
	O276	O	0.532913	0.496273	0.523228
	H277	H	0.530084	0.487330	0.518515
	H278	H	0.532936	0.494633	0.520569
	O279	O	0.044997	0.073897	-0.016248
	H280	H	0.051811	0.077321	-0.008045
	H281	H	0.048295	0.060690	-0.017144
	O282	O	0.523134	0.456018	0.455562
	H283	H	0.519145	0.454441	0.462929
	H284	H	0.523085	0.457169	0.457647
	O285	O	0.612947	0.406079	0.544959
	H286	H	0.610907	0.412960	0.534299
	H287	H	0.630874	0.407272	0.553984
	O288	O	1.036251	0.059878	-0.009691
	H289	H	1.035397	0.064085	-0.001645
	H290	H	1.043648	0.068451	-0.017024
	O291	O	-0.440105	0.506740	-0.480072
	H292	H	-0.443962	0.506980	-0.486151
	H293	H	-0.441898	0.510492	-0.486900
	O294	O	0.534078	0.455771	0.554095
	H295	H	0.531226	0.453843	0.557127
	H296	H	0.542640	0.463373	0.557053
	O297	O	0.031972	1.091829	-0.018812
	H298	H	0.033489	1.098949	-0.018247
	H299	H	0.025476	1.088259	-0.012482
	O300	O	1.065503	0.083833	0.979139
	H301	H	1.057640	0.088070	0.975513
	H302	H	1.072947	0.087011	0.972515
	O303	O	0.574521	0.400527	0.489349
	H304	H	0.578643	0.397814	0.486984
	H305	H	0.575128	0.399096	0.494813
	O306	O	0.009954	1.083364	0.964533
	H307	H	0.003669	1.083422	0.960418
	H308	H	0.004254	1.089757	0.963656
	O309	O	0.536545	0.441914	0.440302
	H310	H	0.525523	0.437342	0.442299
	H311	H	0.538019	0.436751	0.442502
