data_Molecule from HDF5

_cell_length_a		16.282671
_cell_length_b		16.217081
_cell_length_c		16.296910
_cell_angle_alpha	89.620517
_cell_angle_beta	90.111112
_cell_angle_gamma	90.235921
_symmetry_space_group_name_H-M	'P 1'
_symmetry_Int_Tables_number		1

loop_
	_symmetry_equiv_pos_as_xyz
	x,y,z

loop_
	_atom_site_label
	_atom_site_type_symbol
	_atom_site_fract_x
	_atom_site_fract_y
	_atom_site_fract_z
	H0	H	0.404761	0.840691	0.713063
	H1	H	0.605666	0.168431	0.711073
	H2	H	0.599943	0.839442	0.286387
	H3	H	0.404301	0.167128	0.280011
	H4	H	0.721087	0.405796	0.834563
	H5	H	0.721840	0.604565	0.160383
	H6	H	0.289125	0.606613	0.834019
	H7	H	0.289943	0.403481	0.160977
	H8	H	0.839870	0.718058	0.397805
	H9	H	0.167721	0.719262	0.594115
	H10	H	0.840112	0.288934	0.595930
	H11	H	0.167157	0.290613	0.396865
	H12	H	0.841247	0.403026	0.713610
	H13	H	0.166315	0.607402	0.713339
	H14	H	0.841034	0.604349	0.280149
	H15	H	0.167410	0.408581	0.283010
	H16	H	0.406733	0.720555	0.833822
	H17	H	0.603785	0.717592	0.160914
	H18	H	0.603576	0.290952	0.833377
	H19	H	0.405594	0.287331	0.160035
	H20	H	0.717523	0.840998	0.398480
	H21	H	0.719412	0.168776	0.594805
	H22	H	0.288337	0.841223	0.597714
	H23	H	0.290124	0.168711	0.395906
	H24	H	0.904560	0.341505	0.212371
	H25	H	0.103197	0.669693	0.208337
	H26	H	0.104222	0.340978	0.782290
	H27	H	0.904674	0.668625	0.780677
	H28	H	0.218858	0.905818	0.334011
	H29	H	0.222277	0.106560	0.658654
	H30	H	0.788344	0.105256	0.333104
	H31	H	0.788679	0.902861	0.660448
	H32	H	0.341333	0.219675	0.896758
	H33	H	0.668113	0.218721	0.095692
	H34	H	0.341025	0.789268	0.095636
	H35	H	0.669157	0.791845	0.900423
	H36	H	0.340468	0.903512	0.212017
	H37	H	0.667463	0.102864	0.212236
	H38	H	0.341677	0.105244	0.779980
	H39	H	0.667466	0.905752	0.781983
	H40	H	0.905224	0.221007	0.333039
	H41	H	0.104352	0.220317	0.659475
	H42	H	0.099846	0.794049	0.332478
	H43	H	0.904974	0.788021	0.659831
	H44	H	0.217819	0.340768	0.899700
	H45	H	0.220304	0.668418	0.095316
	H46	H	0.789627	0.341556	0.097683
	H47	H	0.790353	0.668723	0.896283
	H48	H	0.411452	0.123686	0.595439
	H49	H	0.590714	0.888023	0.595203
	H50	H	0.604309	0.121060	0.414083
	H51	H	0.409640	0.886751	0.403141
	H52	H	0.594797	0.416811	0.111089
	H53	H	0.598563	0.600779	0.881027
	H54	H	0.407182	0.598055	0.115626
	H55	H	0.415139	0.411490	0.881908
	H56	H	0.123159	0.606826	0.401656
	H57	H	0.884984	0.603377	0.590158
	H58	H	0.122483	0.412859	0.595663
	H59	H	0.892082	0.418598	0.414219
	H60	H	0.119404	0.409224	0.583836
	H61	H	0.890020	0.595011	0.582198
	H62	H	0.118566	0.596624	0.408199
	H63	H	0.886294	0.420722	0.393354
	H64	H	0.411803	0.590634	0.112148
	H65	H	0.599439	0.597072	0.881556
	H66	H	0.594798	0.406312	0.113037
	H67	H	0.407641	0.409382	0.878988
	H68	H	0.601109	0.126071	0.391676
	H69	H	0.594352	0.890277	0.584400
	H70	H	0.420975	0.118228	0.586295
	H71	H	0.412308	0.888505	0.406070
	H72	H	0.908489	0.625331	0.094130
	H73	H	0.097803	0.389250	0.084614
	H74	H	0.096848	0.621656	0.902476
	H75	H	0.914122	0.390162	0.908587
	H76	H	0.095732	0.918142	0.611181
	H77	H	0.094197	0.093750	0.382571
	H78	H	0.910205	0.095643	0.613336
	H79	H	0.914706	0.911789	0.381603
	H80	H	0.622684	0.102169	0.904298
	H81	H	0.391788	0.090873	0.083095
	H82	H	0.618988	0.911543	0.083362
	H83	H	0.383951	0.907170	0.893777
	H84	H	0.620261	0.919260	0.099840
	H85	H	0.386614	0.091858	0.095331
	H86	H	0.618486	0.094959	0.907804
	H87	H	0.389705	0.904381	0.916159
	H88	H	0.912535	0.096195	0.611539
	H89	H	0.093563	0.103457	0.379924
	H90	H	0.091292	0.908856	0.611868
	H91	H	0.905340	0.908229	0.377456
	H92	H	0.095759	0.620778	0.904670
	H93	H	0.102276	0.384600	0.094405
	H94	H	0.919305	0.620699	0.089564
	H95	H	0.908077	0.386399	0.905322
	H96	H	0.407855	0.120571	0.581418
	H97	H	0.602081	0.885841	0.591858
	H98	H	0.583787	0.117681	0.404779
	H99	H	0.408008	0.886791	0.407027
	H100	H	0.603089	0.411877	0.115439
	H101	H	0.595918	0.597661	0.881322
	H102	H	0.417028	0.599563	0.113409
	H103	H	0.409650	0.416909	0.881460
	H104	H	0.121483	0.596371	0.395559
	H105	H	0.887685	0.591276	0.594174
	H106	H	0.116990	0.420455	0.588337
	H107	H	0.884624	0.401720	0.403413
	H108	H	0.909145	0.621735	0.081900
	H109	H	0.091365	0.388569	0.094337
	H110	H	0.097873	0.621076	0.904268
	H111	H	0.914426	0.387671	0.901041
	H112	H	0.100436	0.910372	0.615091
	H113	H	0.102356	0.098357	0.378887
	H114	H	0.911225	0.099264	0.613076
	H115	H	0.906161	0.918339	0.381518
	H116	H	0.621352	0.095320	0.899554
	H117	H	0.386601	0.102751	0.087546
	H118	H	0.625706	0.901726	0.097265
	H119	H	0.392355	0.925512	0.905400
	C120	C	0.382993	0.013240	0.618324
	C121	C	0.625589	0.996012	0.618502
	C122	C	0.624394	0.012657	0.376047
	C123	C	0.381795	0.995609	0.375588
	C124	C	0.626339	0.383057	0.005507
	C125	C	0.626968	0.626640	0.989287
	C126	C	0.383103	0.626156	0.005596
	C127	C	0.382243	0.382349	0.988672
	C128	C	0.012843	0.627916	0.373447
	C129	C	0.995351	0.626525	0.617807
	C130	C	0.012050	0.383683	0.618473
	C131	C	0.995493	0.384644	0.375028
	C132	C	0.883376	0.514061	0.118059
	C133	C	0.125998	0.496313	0.118599
	C134	C	0.125728	0.513339	0.875053
	C135	C	0.882901	0.496292	0.875363
	C136	C	0.124319	0.884283	0.504924
	C137	C	0.126334	0.127566	0.488051
	C138	C	0.882140	0.126799	0.504699
	C139	C	0.880624	0.882359	0.488153
	C140	C	0.512680	0.126654	0.874843
	C141	C	0.496033	0.124735	0.118156
	C142	C	0.513510	0.881528	0.121050
	C143	C	0.496629	0.883705	0.876738
	C144	C	0.384055	0.889809	0.675127
	C145	C	0.624974	0.119540	0.673281
	C146	C	0.621029	0.888950	0.322931
	C147	C	0.383979	0.118542	0.318456
	C148	C	0.682121	0.385613	0.882755
	C149	C	0.683549	0.624400	0.111547
	C150	C	0.327489	0.625848	0.882788
	C151	C	0.327310	0.383366	0.111762
	C152	C	0.889134	0.681113	0.376997
	C153	C	0.118513	0.682045	0.615154
	C154	C	0.889101	0.327115	0.616269
	C155	C	0.118484	0.329140	0.377037
	C156	C	0.889505	0.384008	0.674525
	C157	C	0.117852	0.626285	0.674400
	C158	C	0.889844	0.624777	0.318257
	C159	C	0.118624	0.387743	0.320528
	C160	C	0.385821	0.682687	0.882770
	C161	C	0.624565	0.680621	0.112116
	C162	C	0.623971	0.328324	0.882464
	C163	C	0.384877	0.325501	0.111369
	C164	C	0.679064	0.889702	0.379229
	C165	C	0.681873	0.119583	0.615656
	C166	C	0.326457	0.890122	0.617559
	C167	C	0.327088	0.119183	0.376079
	C168	C	0.884902	0.390509	0.174297
	C169	C	0.123825	0.620242	0.171641
	C170	C	0.123798	0.390051	0.820018
	C171	C	0.884798	0.619628	0.819202
	C172	C	0.180403	0.886201	0.382628
	C173	C	0.183163	0.126022	0.610304
	C174	C	0.826323	0.125294	0.382074
	C175	C	0.826202	0.883334	0.611509
	C176	C	0.390162	0.181929	0.876676
	C177	C	0.619013	0.180962	0.116277
	C178	C	0.389818	0.826778	0.116964
	C179	C	0.619958	0.829285	0.880022
	C180	C	0.389630	0.883502	0.174935
	C181	C	0.618848	0.123233	0.174095
	C182	C	0.390427	0.125003	0.818513
	C183	C	0.619271	0.885554	0.820929
	C184	C	0.884291	0.183043	0.381924
	C185	C	0.124839	0.182955	0.610523
	C186	C	0.121177	0.830499	0.381732
	C187	C	0.883753	0.825673	0.610904
	C188	C	0.180551	0.389890	0.878196
	C189	C	0.182064	0.619460	0.115514
	C190	C	0.827640	0.390363	0.117213
	C191	C	0.828036	0.619693	0.876818
	C192	C	0.406602	0.098732	0.594896
	C193	C	0.602522	0.910262	0.596876
	C194	C	0.602671	0.099489	0.397115
	C195	C	0.403562	0.909451	0.398772
	C196	C	0.604241	0.405214	0.091053
	C197	C	0.604499	0.604900	0.903311
	C198	C	0.405446	0.602855	0.091494
	C199	C	0.404305	0.405860	0.903065
	C200	C	0.098894	0.606325	0.395471
	C201	C	0.909657	0.603289	0.595475
	C202	C	0.097494	0.407249	0.595907
	C203	C	0.909808	0.406973	0.397361
	C204	C	0.905762	0.600223	0.095300
	C205	C	0.103833	0.409854	0.097361
	C206	C	0.103513	0.599046	0.897217
	C207	C	0.905517	0.410250	0.898283
	C208	C	0.102290	0.906047	0.590539
	C209	C	0.103466	0.105045	0.402492
	C210	C	0.904818	0.103871	0.590519
	C211	C	0.902330	0.905724	0.402375
	C212	C	0.598858	0.103981	0.897248
	C213	C	0.410455	0.101825	0.095369
	C214	C	0.599399	0.903995	0.099804
	C215	C	0.410893	0.905778	0.898662
	Zn216	Zn	0.504805	0.004628	0.746762
	Zn217	Zn	0.503567	0.003656	0.247808
	Zn218	Zn	0.755571	0.505002	-0.002949
	Zn219	Zn	0.254251	0.504831	-0.002744
	Zn220	Zn	0.003566	0.755074	0.495869
	Zn221	Zn	0.003940	0.255667	0.496736
	Zn222	Zn	0.003930	0.504916	0.746965
	Zn223	Zn	0.004073	0.505489	0.245691
	Zn224	Zn	0.504951	0.754652	-0.001850
	Zn225	Zn	0.504538	0.254328	-0.003446
	Zn226	Zn	0.753059	0.004617	0.497269
	Zn227	Zn	0.254108	0.005045	0.496872
	N228	N	0.418662	0.967388	0.675675
	N229	N	0.590706	0.041814	0.675367
	N230	N	0.587708	0.966644	0.320925
	N231	N	0.417074	0.040685	0.317832
	N232	N	0.683650	0.419012	0.960120
	N233	N	0.684991	0.591437	0.033957
	N234	N	0.325471	0.591553	0.960231
	N235	N	0.325555	0.418050	0.034492
	N236	N	0.966637	0.683082	0.410647
	N237	N	0.041226	0.682482	0.580698
	N238	N	0.966375	0.326733	0.582120
	N239	N	0.040937	0.327318	0.410465
	N240	N	0.966829	0.418457	0.675899
	N241	N	0.040401	0.592388	0.676116
	N242	N	0.967789	0.592423	0.315859
	N243	N	0.041111	0.421363	0.319080
	N244	N	0.419828	0.682755	0.960178
	N245	N	0.590008	0.682033	0.035048
	N246	N	0.589748	0.326878	0.959740
	N247	N	0.418005	0.324541	0.033758
	N248	N	0.681120	0.967816	0.411585
	N249	N	0.682421	0.041867	0.582454
	N250	N	0.325888	0.967588	0.582813
	N251	N	0.325706	0.041655	0.410959
	N252	N	0.918857	0.468242	0.174741
	N253	N	0.089814	0.542526	0.173767
	N254	N	0.090386	0.467913	0.817979
	N255	N	0.918180	0.541829	0.818067
	N256	N	0.182438	0.919043	0.460212
	N257	N	0.184249	0.092353	0.533068
	N258	N	0.824908	0.090942	0.459531
	N259	N	0.824050	0.917854	0.534084
	N260	N	0.467426	0.183073	0.910633
	N261	N	0.541732	0.181760	0.081984
	N262	N	0.467639	0.825133	0.084402
	N263	N	0.542592	0.828084	0.914031
	N264	N	0.467400	0.916931	0.177588
	N265	N	0.541313	0.089080	0.175381
	N266	N	0.468006	0.091516	0.817219
	N267	N	0.541726	0.918706	0.818883
	N268	N	0.918219	0.183840	0.459216
	N269	N	0.090128	0.183968	0.533491
	N270	N	0.086784	0.829368	0.458768
	N271	N	0.916785	0.825136	0.533275
	N272	N	0.181987	0.467373	0.911805
	N273	N	0.183515	0.541382	0.083167
	N274	N	0.826515	0.468057	0.082867
	N275	N	0.826657	0.541821	0.910957
	O276	O	0.034596	-0.044448	-0.016684
	H277	H	0.026269	-0.040730	-0.017083
	H278	H	0.032509	-0.042390	-0.016929
	O279	O	0.579043	0.535328	0.538615
	H280	H	0.577877	0.538040	0.542419
	H281	H	0.583544	0.526499	0.543415
	O282	O	0.576141	0.436940	0.545704
	H283	H	0.586469	0.442605	0.527393
	H284	H	0.577093	0.442109	0.550483
	O285	O	1.053034	0.044034	0.970362
	H286	H	1.055116	0.035610	0.974238
	H287	H	1.056597	0.053955	0.973206
	O288	O	0.999694	-0.066352	-0.082538
	H289	H	1.002186	-0.058853	-0.084542
	H290	H	1.002179	-0.069217	-0.080697
	O291	O	0.361089	0.490385	0.586382
	H292	H	0.359044	0.484014	0.577075
	H293	H	0.354201	0.481702	0.587315
	O294	O	0.985546	0.113380	0.993906
	H295	H	0.989212	0.111068	0.992107
	H296	H	0.982610	0.115614	0.998357
	O297	O	0.077143	0.029481	-0.017376
	H298	H	0.073826	0.022357	-0.018894
	H299	H	0.065528	0.028821	-0.016499
	O300	O	0.517099	0.434472	0.516321
	H301	H	0.514598	0.440140	0.523576
	H302	H	0.515411	0.437999	0.518261
	O303	O	0.421946	0.487520	0.450898
	H304	H	0.439192	0.491355	0.450708
	H305	H	0.418972	0.479478	0.446766
	O306	O	1.032959	0.011494	0.031913
	H307	H	1.034440	0.015516	0.039538
	H308	H	1.029739	0.009932	0.028134
	O309	O	-0.023919	-0.025474	0.926900
	H310	H	-0.019052	-0.024474	0.923209
	H311	H	-0.032065	-0.014842	0.922396
	O312	O	0.951669	1.007530	0.960505
	H313	H	0.958901	1.001291	0.964046
	H314	H	0.953189	1.010677	0.959299
	O315	O	0.437498	0.539132	0.513898
	H316	H	0.433940	0.540441	0.512760
	H317	H	0.436868	0.539797	0.509654
	O318	O	0.494004	0.487406	0.537781
	H319	H	0.513668	0.477842	0.537060
	H320	H	0.493821	0.494528	0.544840
	O321	O	0.045218	1.017850	0.948209
	H322	H	0.034472	1.015488	0.942296
	H323	H	0.049865	1.011704	0.943340
	O324	O	0.539065	0.571253	0.569343
	H325	H	0.524006	0.576143	0.562767
	H326	H	0.533681	0.563477	0.570580
	O327	O	0.453741	0.471057	0.454661
	H328	H	0.453727	0.472670	0.466610
	H329	H	0.446497	0.470616	0.459289
	O330	O	0.481326	0.483233	0.521590
	H331	H	0.483638	0.475239	0.515478
	H332	H	0.489374	0.485724	0.512805
	O333	O	0.531924	0.577479	0.477145
	H334	H	0.530658	0.577916	0.482514
	H335	H	0.524445	0.574507	0.480672
	O336	O	0.512231	0.494242	0.494991
	H337	H	0.516761	0.480730	0.497885
	H338	H	0.503931	0.494534	0.495204
	O339	O	1.067438	1.099669	0.053039
	H340	H	1.071287	1.095550	0.051348
	H341	H	1.066808	1.099048	0.059337
	O342	O	0.498019	0.441722	0.505811
	H343	H	0.510591	0.447081	0.511120
	H344	H	0.492953	0.440077	0.502981
	O345	O	0.517099	0.503501	0.443311
	H346	H	0.510677	0.506788	0.452844
	H347	H	0.523487	0.506303	0.451934
	O348	O	0.054203	-0.032762	-0.014489
	H349	H	0.063654	-0.029918	-0.018773
	H350	H	0.058964	-0.040579	-0.013559
	O351	O	0.054906	1.015988	0.994626
	H352	H	0.059922	1.007420	1.005601
	H353	H	0.057280	1.019909	0.996665
	O354	O	0.517601	0.521643	0.511699
	H355	H	0.527584	0.528390	0.516064
	H356	H	0.502784	0.513596	0.511208
	O357	O	-0.049017	0.942961	1.004210
	H358	H	-0.047644	0.943387	0.997173
	H359	H	-0.048796	0.938442	1.005514
