data_Molecule from HDF5

_cell_length_a		16.604737
_cell_length_b		16.197516
_cell_length_c		16.325130
_cell_angle_alpha	89.712699
_cell_angle_beta	89.991090
_cell_angle_gamma	90.010681
_symmetry_space_group_name_H-M	'P 1'
_symmetry_Int_Tables_number		1

loop_
	_symmetry_equiv_pos_as_xyz
	x,y,z

loop_
	_atom_site_label
	_atom_site_type_symbol
	_atom_site_fract_x
	_atom_site_fract_y
	_atom_site_fract_z
	H0	H	0.400589	0.850895	0.724577
	H1	H	0.601796	0.175664	0.718242
	H2	H	0.609860	0.851764	0.282861
	H3	H	0.400598	0.173224	0.284746
	H4	H	0.727744	0.403203	0.846438
	H5	H	0.727104	0.620057	0.162084
	H6	H	0.280118	0.622565	0.845687
	H7	H	0.280425	0.402426	0.162843
	H8	H	0.844178	0.731110	0.399409
	H9	H	0.160688	0.733919	0.608387
	H10	H	0.843997	0.291947	0.606913
	H11	H	0.161968	0.291352	0.402125
	H12	H	0.846780	0.404168	0.727646
	H13	H	0.160137	0.618885	0.726455
	H14	H	0.844785	0.613282	0.282909
	H15	H	0.161121	0.405327	0.283123
	H16	H	0.401774	0.732330	0.842938
	H17	H	0.607671	0.731285	0.163837
	H18	H	0.602794	0.297997	0.841519
	H19	H	0.402882	0.294481	0.165859
	H20	H	0.724800	0.851736	0.397253
	H21	H	0.722255	0.172574	0.609183
	H22	H	0.280267	0.852307	0.615531
	H23	H	0.282158	0.171434	0.397090
	H24	H	0.904023	0.348211	0.219840
	H25	H	0.106938	0.672581	0.221996
	H26	H	0.105964	0.349287	0.787026
	H27	H	0.899235	0.672904	0.782264
	H28	H	0.228577	0.902699	0.347206
	H29	H	0.225446	0.120660	0.663019
	H30	H	0.780284	0.119101	0.344713
	H31	H	0.781077	0.902049	0.663705
	H32	H	0.344204	0.233756	0.901547
	H33	H	0.661629	0.232972	0.106827
	H34	H	0.345887	0.789132	0.110653
	H35	H	0.660590	0.791600	0.899996
	H36	H	0.346487	0.905293	0.227990
	H37	H	0.660525	0.118331	0.226163
	H38	H	0.344985	0.120374	0.781963
	H39	H	0.660892	0.909732	0.784779
	H40	H	0.903410	0.226838	0.340729
	H41	H	0.101679	0.227343	0.665905
	H42	H	0.104751	0.795681	0.341879
	H43	H	0.904166	0.793330	0.665497
	H44	H	0.225678	0.352021	0.897556
	H45	H	0.224190	0.672366	0.110246
	H46	H	0.781161	0.351986	0.113967
	H47	H	0.780918	0.670971	0.895097
	H48	H	0.409453	0.126303	0.587587
	H49	H	0.600411	0.895509	0.590728
	H50	H	0.587819	0.126478	0.413157
	H51	H	0.414209	0.899472	0.425358
	H52	H	0.594395	0.420889	0.119315
	H53	H	0.591999	0.601250	0.890454
	H54	H	0.415737	0.599680	0.117552
	H55	H	0.411369	0.426036	0.891088
	H56	H	0.114688	0.600143	0.413804
	H57	H	0.895079	0.603555	0.580934
	H58	H	0.114040	0.417355	0.587600
	H59	H	0.890161	0.421131	0.409076
	H60	H	0.114485	0.427120	0.597812
	H61	H	0.895187	0.586997	0.594571
	H62	H	0.116458	0.601239	0.409311
	H63	H	0.889501	0.417757	0.412762
	H64	H	0.410385	0.599982	0.118582
	H65	H	0.595063	0.600352	0.888376
	H66	H	0.597655	0.424897	0.119652
	H67	H	0.412358	0.425378	0.889558
	H68	H	0.591270	0.123609	0.422802
	H69	H	0.591736	0.893552	0.603753
	H70	H	0.408405	0.129874	0.596575
	H71	H	0.409732	0.894346	0.415365
	H72	H	0.916560	0.627865	0.097415
	H73	H	0.091549	0.394292	0.099829
	H74	H	0.098851	0.627261	0.918459
	H75	H	0.906095	0.395392	0.919856
	H76	H	0.091301	0.924758	0.616854
	H77	H	0.099438	0.094134	0.390356
	H78	H	0.912505	0.101002	0.618071
	H79	H	0.907275	0.925084	0.388715
	H80	H	0.616568	0.108208	0.912077
	H81	H	0.391199	0.101130	0.093310
	H82	H	0.611583	0.929677	0.090709
	H83	H	0.390612	0.920824	0.916081
	H84	H	0.616600	0.923567	0.100636
	H85	H	0.391671	0.101580	0.096250
	H86	H	0.613915	0.102185	0.915776
	H87	H	0.392499	0.926055	0.917156
	H88	H	0.907518	0.101731	0.620099
	H89	H	0.087987	0.097601	0.393001
	H90	H	0.091981	0.921631	0.617894
	H91	H	0.913267	0.927556	0.391356
	H92	H	0.091452	0.628729	0.909544
	H93	H	0.089760	0.399879	0.086712
	H94	H	0.917620	0.623551	0.086332
	H95	H	0.917333	0.395803	0.908472
	H96	H	0.417570	0.127027	0.593643
	H97	H	0.585576	0.899896	0.589784
	H98	H	0.597761	0.128253	0.415593
	H99	H	0.421383	0.898149	0.416079
	H100	H	0.592790	0.425712	0.117402
	H101	H	0.593733	0.597552	0.890855
	H102	H	0.412320	0.595194	0.116724
	H103	H	0.411441	0.425479	0.889461
	H104	H	0.115672	0.604797	0.412254
	H105	H	0.887213	0.605846	0.600603
	H106	H	0.118899	0.413721	0.600220
	H107	H	0.891275	0.422158	0.413274
	H108	H	0.907466	0.627968	0.089888
	H109	H	0.102182	0.394071	0.090674
	H110	H	0.087889	0.622916	0.919452
	H111	H	0.920274	0.401571	0.923209
	H112	H	0.093848	0.924036	0.619256
	H113	H	0.095484	0.105472	0.386337
	H114	H	0.909501	0.096335	0.617377
	H115	H	0.913061	0.920804	0.389179
	H116	H	0.615201	0.101624	0.908852
	H117	H	0.390115	0.103602	0.094640
	H118	H	0.615273	0.917404	0.089122
	H119	H	0.389945	0.925027	0.911920
	C120	C	0.380849	0.021110	0.625949
	C121	C	0.623573	1.003230	0.625317
	C122	C	0.624409	0.020047	0.383956
	C123	C	0.383131	1.003329	0.385013
	C124	C	0.625524	0.391741	0.012651
	C125	C	0.625186	0.632627	0.995048
	C126	C	0.381596	0.632937	0.012401
	C127	C	0.381324	0.392084	0.995938
	C128	C	0.011362	0.633805	0.380088
	C129	C	0.995926	0.632183	0.624212
	C130	C	0.011841	0.387611	0.626820
	C131	C	0.994889	0.388639	0.381197
	C132	C	0.882853	0.519766	0.123987
	C133	C	0.125373	0.502832	0.124496
	C134	C	0.124695	0.520148	0.883405
	C135	C	0.882641	0.503634	0.883428
	C136	C	0.124610	0.890983	0.512621
	C137	C	0.124255	0.131643	0.495758
	C138	C	0.880080	0.132194	0.512141
	C139	C	0.880591	0.890670	0.495629
	C140	C	0.510901	0.136209	0.881061
	C141	C	0.495271	0.134183	0.125856
	C142	C	0.511275	0.890011	0.126901
	C143	C	0.494861	0.891682	0.882972
	C144	C	0.380601	0.899776	0.686107
	C145	C	0.622349	0.126171	0.681161
	C146	C	0.627408	0.899904	0.322862
	C147	C	0.381590	0.124580	0.324265
	C148	C	0.686153	0.387551	0.893162
	C149	C	0.686152	0.636628	0.114676
	C150	C	0.321009	0.638755	0.892886
	C151	C	0.321466	0.386906	0.115590
	C152	C	0.891989	0.692187	0.379792
	C153	C	0.113735	0.693305	0.626471
	C154	C	0.892267	0.330255	0.626617
	C155	C	0.114199	0.330229	0.382037
	C156	C	0.893527	0.386371	0.686766
	C157	C	0.113634	0.635955	0.685386
	C158	C	0.892306	0.633561	0.321672
	C159	C	0.113861	0.387349	0.322917
	C160	C	0.381606	0.693311	0.891579
	C161	C	0.626591	0.692106	0.115544
	C162	C	0.624023	0.334934	0.890835
	C163	C	0.382565	0.333084	0.117126
	C164	C	0.684423	0.899696	0.380452
	C165	C	0.682447	0.124435	0.626952
	C166	C	0.321071	0.900235	0.631201
	C167	C	0.322492	0.123704	0.380141
	C168	C	0.883699	0.397516	0.182121
	C169	C	0.125787	0.624350	0.183062
	C170	C	0.125494	0.398316	0.825406
	C171	C	0.880675	0.624293	0.821991
	C172	C	0.186592	0.886524	0.393956
	C173	C	0.184054	0.136130	0.615727
	C174	C	0.821005	0.135738	0.392096
	C175	C	0.821487	0.885712	0.615925
	C176	C	0.391873	0.194804	0.881518
	C177	C	0.613944	0.193835	0.126811
	C178	C	0.393205	0.829093	0.129323
	C179	C	0.613313	0.831457	0.881345
	C180	C	0.393461	0.886837	0.187957
	C181	C	0.613515	0.136496	0.185940
	C182	C	0.392131	0.137953	0.822161
	C183	C	0.613365	0.890325	0.823909
	C184	C	0.882215	0.189522	0.390076
	C185	C	0.122530	0.189620	0.617089
	C186	C	0.124866	0.833258	0.391233
	C187	C	0.882440	0.831114	0.616767
	C188	C	0.184777	0.399606	0.880823
	C189	C	0.184546	0.624009	0.127511
	C190	C	0.822693	0.399359	0.129014
	C191	C	0.821797	0.623487	0.878097
	C192	C	0.404716	0.105624	0.600009
	C193	C	0.599503	0.918415	0.601546
	C194	C	0.599561	0.104272	0.409837
	C195	C	0.408006	0.919334	0.411431
	C196	C	0.601815	0.416715	0.096787
	C197	C	0.600602	0.607005	0.911763
	C198	C	0.405843	0.606147	0.095536
	C199	C	0.404979	0.417982	0.911874
	C200	C	0.094132	0.609231	0.404586
	C201	C	0.913872	0.606244	0.599277
	C202	C	0.094552	0.412214	0.602392
	C203	C	0.911878	0.413208	0.404773
	C204	C	0.906985	0.604455	0.098355
	C205	C	0.101487	0.418289	0.099541
	C206	C	0.099833	0.604381	0.908509
	C207	C	0.907478	0.419692	0.909584
	C208	C	0.099748	0.916311	0.596242
	C209	C	0.100959	0.106227	0.411884
	C210	C	0.903197	0.106969	0.596470
	C211	C	0.904342	0.916936	0.411663
	C212	C	0.593757	0.111227	0.905285
	C213	C	0.412522	0.109346	0.101659
	C214	C	0.593152	0.915988	0.100895
	C215	C	0.412643	0.916874	0.907741
	Zn216	Zn	0.502505	0.013303	0.752862
	Zn217	Zn	0.503498	0.012252	0.256303
	Zn218	Zn	0.754110	0.511761	0.004428
	Zn219	Zn	0.252796	0.512185	0.004128
	Zn220	Zn	0.002982	0.763010	0.502872
	Zn221	Zn	0.002242	0.259541	0.502906
	Zn222	Zn	0.004192	0.511384	0.755203
	Zn223	Zn	0.003823	0.510807	0.251065
	Zn224	Zn	0.503501	0.760642	0.004218
	Zn225	Zn	0.503118	0.264723	0.003947
	Zn226	Zn	0.751775	0.011626	0.504813
	Zn227	Zn	0.253983	0.011731	0.505031
	N228	N	0.417001	0.975979	0.683066
	N229	N	0.586337	0.049722	0.680318
	N230	N	0.590563	0.975921	0.325008
	N231	N	0.418680	0.048716	0.327358
	N232	N	0.687273	0.421910	0.970080
	N233	N	0.685765	0.600487	0.038535
	N234	N	0.320795	0.601733	0.968974
	N235	N	0.320634	0.422980	0.039218
	N236	N	0.967136	0.692733	0.415186
	N237	N	0.039740	0.690973	0.588990
	N238	N	0.966894	0.330668	0.590187
	N239	N	0.039429	0.331309	0.417772
	N240	N	0.969068	0.421026	0.687349
	N241	N	0.039387	0.598432	0.683956
	N242	N	0.967582	0.598330	0.321448
	N243	N	0.038728	0.423182	0.322261
	N244	N	0.418369	0.689910	0.966725
	N245	N	0.589306	0.689649	0.040483
	N246	N	0.587317	0.337086	0.966261
	N247	N	0.419010	0.336157	0.041592
	N248	N	0.682639	0.975541	0.417478
	N249	N	0.683512	0.046955	0.593032
	N250	N	0.321080	0.976748	0.594561
	N251	N	0.323226	0.047196	0.417188
	N252	N	0.920517	0.473490	0.179168
	N253	N	0.089792	0.547992	0.181434
	N254	N	0.088877	0.474315	0.826804
	N255	N	0.917852	0.548474	0.825104
	N256	N	0.186732	0.921659	0.470605
	N257	N	0.185381	0.100738	0.539308
	N258	N	0.819620	0.100912	0.469053
	N259	N	0.820273	0.922025	0.539527
	N260	N	0.466632	0.193644	0.917410
	N261	N	0.539523	0.192430	0.090107
	N262	N	0.467555	0.830819	0.092107
	N263	N	0.538537	0.832087	0.917368
	N264	N	0.467879	0.923831	0.186621
	N265	N	0.538811	0.099816	0.185390
	N266	N	0.467203	0.101894	0.821979
	N267	N	0.538677	0.926915	0.824627
	N268	N	0.918152	0.187744	0.465967
	N269	N	0.086054	0.186994	0.541595
	N270	N	0.087122	0.835743	0.466043
	N271	N	0.918371	0.834009	0.540933
	N272	N	0.184447	0.476628	0.916021
	N273	N	0.184234	0.547444	0.091687
	N274	N	0.822244	0.476373	0.093327
	N275	N	0.822838	0.547496	0.915605
	O276	O	0.445295	0.374824	0.568849
	H277	H	0.423663	0.387484	0.569095
	H278	H	0.450668	0.351686	0.591118
	O279	O	0.643518	0.413548	0.611469
	H280	H	0.661147	0.423898	0.615178
	H281	H	0.647531	0.420844	0.598591
	O282	O	0.422486	0.561558	0.375802
	H283	H	0.425323	0.560782	0.366725
	H284	H	0.423401	0.563988	0.382310
	O285	O	1.106594	0.108834	-0.112959
	H286	H	1.119506	0.114525	-0.100052
	H287	H	1.115448	0.101729	-0.111197
	O288	O	-0.163278	-0.018409	1.197947
	H289	H	-0.176678	0.001641	1.186889
	H290	H	-0.176273	-0.006354	1.207472
	O291	O	0.319443	0.525072	0.498577
	H292	H	0.303113	0.524840	0.509007
	H293	H	0.315523	0.524224	0.478322
	O294	O	0.314361	0.391562	0.559468
	H295	H	0.326719	0.399828	0.569059
	H296	H	0.303771	0.385596	0.547131
	O297	O	1.096878	1.129915	0.983016
	H298	H	1.090071	1.118525	0.990736
	H299	H	1.112035	1.137691	0.999465
	O300	O	0.020073	-0.024022	0.161114
	H301	H	0.012895	-0.031404	0.183418
	H302	H	0.025422	-0.030910	0.146508
	O303	O	0.657566	0.537307	0.420816
	H304	H	0.665279	0.543267	0.413818
	H305	H	0.650013	0.552258	0.422341
	O306	O	1.143559	0.015058	0.111706
	H307	H	1.140374	0.000751	0.099541
	H308	H	1.139192	-0.010812	0.124377
	O309	O	0.628625	0.677991	0.528020
	H310	H	0.604643	0.668538	0.520729
	H311	H	0.634577	0.698273	0.518096
	O312	O	1.200499	0.891576	0.078939
	H313	H	1.202372	0.873177	0.067684
	H314	H	1.187324	0.897144	0.079120
	O315	O	0.616573	0.564346	0.597989
	H316	H	0.621890	0.578105	0.611934
	H317	H	0.607963	0.547941	0.605211
	O318	O	0.555514	0.632483	0.597357
	H319	H	0.537026	0.630517	0.597018
	H320	H	0.558881	0.634075	0.581803
	O321	O	0.864171	0.156092	0.844172
	H322	H	0.895546	0.170653	0.834962
	H323	H	0.859678	0.132226	0.840315
	O324	O	0.059059	-0.090822	0.965049
	H325	H	0.055801	-0.090517	0.976804
	H326	H	0.071277	-0.081787	0.963925
	O327	O	0.347811	0.641046	0.569758
	H328	H	0.346600	0.637900	0.578223
	H329	H	0.343117	0.643720	0.575100
	O330	O	0.562567	0.427519	0.467335
	H331	H	0.560528	0.428077	0.467517
	H332	H	0.566803	0.421766	0.465046
	O333	O	0.388836	0.474729	0.351735
	H334	H	0.391445	0.474485	0.344247
	H335	H	0.385205	0.466358	0.361433
	O336	O	0.636980	0.469419	0.332926
	H337	H	0.641675	0.477739	0.336364
	H338	H	0.622601	0.470133	0.322388
	O339	O	0.816106	-0.103617	1.006267
	H340	H	0.814769	-0.091413	1.002166
	H341	H	0.808105	-0.097013	0.997359
	O342	O	-0.477765	0.364476	0.442497
	H343	H	-0.474962	0.353039	0.456337
	H344	H	-0.478050	0.373723	0.447230
	O345	O	0.108572	1.100462	1.106891
	H346	H	0.089037	1.108983	1.112502
	H347	H	0.107932	1.088852	1.116184
	O348	O	0.067554	0.119374	0.153682
	H349	H	0.053800	0.111396	0.138379
	H350	H	0.068722	0.117888	0.170869
	O351	O	-0.131886	-0.006850	-0.129283
	H352	H	-0.128880	-0.001583	-0.122379
	H353	H	-0.122803	-0.003629	-0.127012
	O354	O	1.561087	1.424742	0.337637
	H355	H	1.547661	1.423183	0.333781
	H356	H	1.564786	1.419438	0.345821
	O357	O	0.205902	0.906189	-0.154157
	H358	H	0.200329	0.914209	-0.153798
	H359	H	0.234282	0.897615	-0.162436
	O360	O	0.421787	0.707262	0.507014
	H361	H	0.417849	0.703193	0.509659
	H362	H	0.428517	0.691682	0.506872
	O363	O	0.508683	0.520714	0.635662
	H364	H	0.503257	0.529695	0.630714
	H365	H	0.519352	0.517639	0.639146
	O366	O	0.670127	0.335004	0.533213
	H367	H	0.692656	0.322865	0.522735
	H368	H	0.664600	0.341657	0.533125
	O369	O	0.515476	0.646891	0.476757
	H370	H	0.516149	0.638583	0.483764
	H371	H	0.507109	0.658006	0.462807
	O372	O	0.474125	0.470604	0.675444
	H373	H	0.479981	0.485281	0.669277
	H374	H	0.473562	0.479084	0.682181
	O375	O	0.374379	0.652202	0.333940
	H376	H	0.366165	0.624748	0.350290
	H377	H	0.363216	0.660583	0.341108
	O378	O	0.807276	0.124310	0.028304
	H379	H	0.811420	0.119115	0.013795
	H380	H	0.806538	0.145506	0.010285
	O381	O	0.537601	0.441604	0.654703
	H382	H	0.544996	0.436595	0.653129
	H383	H	0.548222	0.445686	0.647285
	O384	O	0.016132	0.959910	0.897257
	H385	H	0.034526	0.958128	0.894767
	H386	H	0.002335	0.948987	0.888669
	O387	O	0.974429	0.832440	0.045225
	H388	H	0.969843	0.830520	0.045246
	H389	H	0.977445	0.825205	0.047204
	O390	O	0.386306	0.436411	0.564181
	H391	H	0.390504	0.436631	0.559639
	H392	H	0.387041	0.438851	0.565078
	O393	O	0.852559	0.214388	0.975938
	H394	H	0.873255	0.204784	0.949722
	H395	H	0.831079	0.241896	0.968001
	O396	O	-0.028679	-0.058185	-0.091843
	H397	H	-0.032733	-0.050832	-0.087078
	H398	H	-0.022762	-0.068533	-0.087254
	O399	O	0.402565	0.419839	0.491373
	H400	H	0.401390	0.425904	0.497840
	H401	H	0.421949	0.432904	0.485321
	O402	O	0.419888	0.675589	1.363550
	H403	H	0.420151	0.709067	1.336946
	H404	H	0.378782	0.670946	1.373962
	O405	O	0.179255	-0.113025	-0.181122
	H406	H	0.180548	-0.109935	-0.183052
	H407	H	0.169025	-0.096950	-0.172961
	O408	O	0.997581	0.888706	1.002876
	H409	H	0.979012	0.870631	1.020137
	H410	H	1.006813	0.898407	1.020772
	O411	O	0.822504	0.869868	0.178690
	H412	H	0.814046	0.888611	0.170194
	H413	H	0.811053	0.885819	0.160315
	O414	O	0.070205	0.148693	1.067902
	H415	H	0.085409	0.147544	1.073259
	H416	H	0.057288	0.154972	1.063764
	O417	O	1.102263	0.142580	0.946504
	H418	H	1.113859	0.162755	0.953068
	H419	H	1.106911	0.115311	0.969079
	O420	O	-0.062966	1.211434	-0.127639
	H421	H	-0.055043	1.210294	-0.128954
	H422	H	-0.044728	1.229625	-0.143878
	O423	O	0.946053	-0.189423	0.210091
	H424	H	0.944011	-0.208664	0.237208
	H425	H	0.909006	-0.184098	0.198468
	O426	O	-0.146662	-0.047750	0.867907
	H427	H	-0.148641	-0.061452	0.861091
	H428	H	-0.153671	-0.038769	0.852454
	O429	O	0.616636	0.640169	0.609569
	H430	H	0.629030	0.637180	0.618711
	H431	H	0.622686	0.640798	0.599611
