data_Molecule from HDF5

_cell_length_a		16.281010
_cell_length_b		16.450087
_cell_length_c		16.388995
_cell_angle_alpha	89.937931
_cell_angle_beta	90.230785
_cell_angle_gamma	90.359561
_symmetry_space_group_name_H-M	'P 1'
_symmetry_Int_Tables_number		1

loop_
	_symmetry_equiv_pos_as_xyz
	x,y,z

loop_
	_atom_site_label
	_atom_site_type_symbol
	_atom_site_fract_x
	_atom_site_fract_y
	_atom_site_fract_z
	H0	H	0.401854	0.850349	0.721533
	H1	H	0.612161	0.168683	0.724149
	H2	H	0.615525	0.853845	0.277322
	H3	H	0.400742	0.167516	0.280426
	H4	H	0.720117	0.408235	0.839125
	H5	H	0.725751	0.612908	0.160171
	H6	H	0.286213	0.612090	0.840466
	H7	H	0.284874	0.406948	0.161822
	H8	H	0.844354	0.730130	0.394855
	H9	H	0.165002	0.731687	0.608105
	H10	H	0.844654	0.288446	0.605931
	H11	H	0.165965	0.291233	0.397001
	H12	H	0.842389	0.407048	0.718321
	H13	H	0.163839	0.617346	0.724329
	H14	H	0.843886	0.613206	0.280196
	H15	H	0.165193	0.406569	0.280515
	H16	H	0.400193	0.730925	0.842367
	H17	H	0.612379	0.731174	0.161069
	H18	H	0.607831	0.288255	0.841750
	H19	H	0.396873	0.287425	0.160586
	H20	H	0.724578	0.850312	0.399287
	H21	H	0.729206	0.168379	0.608176
	H22	H	0.283483	0.850926	0.607329
	H23	H	0.285629	0.168786	0.397855
	H24	H	0.898604	0.351683	0.221287
	H25	H	0.112674	0.668587	0.223194
	H26	H	0.104748	0.350418	0.782704
	H27	H	0.899964	0.669679	0.780693
	H28	H	0.226024	0.906969	0.342866
	H29	H	0.224335	0.112466	0.663993
	H30	H	0.787932	0.109098	0.342440
	H31	H	0.787667	0.904624	0.662086
	H32	H	0.342603	0.227537	0.895794
	H33	H	0.664677	0.230539	0.105723
	H34	H	0.344369	0.790078	0.106841
	H35	H	0.664866	0.790286	0.897825
	H36	H	0.345452	0.903373	0.223694
	H37	H	0.666269	0.113752	0.221941
	H38	H	0.344209	0.112183	0.780771
	H39	H	0.666441	0.907644	0.785152
	H40	H	0.900055	0.228414	0.342755
	H41	H	0.112394	0.232687	0.661650
	H42	H	0.114032	0.786981	0.343614
	H43	H	0.899150	0.786305	0.659546
	H44	H	0.221906	0.350623	0.897325
	H45	H	0.225980	0.669841	0.103989
	H46	H	0.784327	0.349969	0.101846
	H47	H	0.783642	0.669810	0.896197
	H48	H	0.421991	0.121344	0.591562
	H49	H	0.596976	0.894604	0.597154
	H50	H	0.592181	0.121662	0.414913
	H51	H	0.416810	0.897546	0.413944
	H52	H	0.590082	0.416844	0.114526
	H53	H	0.586857	0.601459	0.889934
	H54	H	0.419570	0.602383	0.114721
	H55	H	0.420069	0.414450	0.888537
	H56	H	0.117973	0.595984	0.411070
	H57	H	0.894614	0.593301	0.583551
	H58	H	0.118832	0.424553	0.593009
	H59	H	0.889985	0.414981	0.412070
	H60	H	0.120073	0.419840	0.592155
	H61	H	0.888923	0.595998	0.597609
	H62	H	0.120307	0.602776	0.411323
	H63	H	0.892166	0.421027	0.412984
	H64	H	0.411802	0.601005	0.117343
	H65	H	0.593664	0.606424	0.885203
	H66	H	0.596899	0.419887	0.115403
	H67	H	0.407308	0.413899	0.884290
	H68	H	0.596774	0.122639	0.416110
	H69	H	0.593029	0.897101	0.594647
	H70	H	0.415545	0.122675	0.588097
	H71	H	0.415481	0.896988	0.414630
	H72	H	0.912360	0.625298	0.091375
	H73	H	0.096268	0.396780	0.090447
	H74	H	0.088765	0.620999	0.913639
	H75	H	0.908666	0.393113	0.902240
	H76	H	0.093919	0.918660	0.615684
	H77	H	0.085903	0.093405	0.394863
	H78	H	0.912723	0.102646	0.619874
	H79	H	0.918633	0.920626	0.389037
	H80	H	0.617740	0.101400	0.916988
	H81	H	0.388782	0.096021	0.097182
	H82	H	0.615649	0.924625	0.084509
	H83	H	0.392627	0.924156	0.914169
	H84	H	0.620451	0.926041	0.098625
	H85	H	0.389715	0.102045	0.089818
	H86	H	0.617275	0.097894	0.913740
	H87	H	0.389101	0.919387	0.907639
	H88	H	0.918010	0.094421	0.615490
	H89	H	0.091969	0.114571	0.385242
	H90	H	0.094285	0.922079	0.615071
	H91	H	0.914643	0.918211	0.387350
	H92	H	0.098528	0.624166	0.915297
	H93	H	0.091499	0.396712	0.095041
	H94	H	0.919907	0.622574	0.091887
	H95	H	0.919408	0.398544	0.908772
	H96	H	0.415973	0.124598	0.595364
	H97	H	0.597502	0.896309	0.592940
	H98	H	0.595952	0.123465	0.412254
	H99	H	0.415779	0.896726	0.412752
	H100	H	0.591331	0.423641	0.112234
	H101	H	0.595494	0.597464	0.888160
	H102	H	0.416500	0.595292	0.113749
	H103	H	0.412253	0.425900	0.888888
	H104	H	0.117122	0.599285	0.416542
	H105	H	0.888375	0.606604	0.586052
	H106	H	0.117692	0.422211	0.588858
	H107	H	0.889318	0.419505	0.407097
	H108	H	0.915235	0.622579	0.085061
	H109	H	0.090315	0.398501	0.088999
	H110	H	0.094600	0.625789	0.906327
	H111	H	0.907704	0.397127	0.915722
	H112	H	0.091398	0.920392	0.614066
	H113	H	0.108504	0.097205	0.386403
	H114	H	0.923110	0.104355	0.616579
	H115	H	0.914098	0.922552	0.388098
	H116	H	0.619739	0.101986	0.912886
	H117	H	0.392182	0.093206	0.088550
	H118	H	0.622615	0.913242	0.091673
	H119	H	0.389978	0.916379	0.915654
	C120	C	0.385053	0.017930	0.623598
	C121	C	0.628532	1.000922	0.626220
	C122	C	0.626362	0.017812	0.382521
	C123	C	0.384063	1.001725	0.381292
	C124	C	0.623996	0.389051	0.008502
	C125	C	0.625766	0.632950	0.992688
	C126	C	0.383755	0.631079	0.009648
	C127	C	0.381570	0.387145	0.993112
	C128	C	0.012685	0.631027	0.380284
	C129	C	0.996230	0.631627	0.622428
	C130	C	0.012889	0.389546	0.622579
	C131	C	0.996931	0.388482	0.379884
	C132	C	0.883227	0.518555	0.120653
	C133	C	0.126363	0.501699	0.123041
	C134	C	0.124860	0.518453	0.879948
	C135	C	0.880583	0.501814	0.877797
	C136	C	0.126186	0.888750	0.510206
	C137	C	0.128017	0.133450	0.494328
	C138	C	0.885216	0.130902	0.511435
	C139	C	0.884139	0.887921	0.493169
	C140	C	0.512369	0.131234	0.880856
	C141	C	0.496066	0.130149	0.123517
	C142	C	0.513932	0.888429	0.124212
	C143	C	0.496664	0.888748	0.881331
	C144	C	0.383009	0.898157	0.682538
	C145	C	0.630906	0.120934	0.684968
	C146	C	0.630948	0.899907	0.320109
	C147	C	0.382297	0.120488	0.320655
	C148	C	0.681568	0.388800	0.887604
	C149	C	0.686427	0.632943	0.112469
	C150	C	0.325324	0.631655	0.888796
	C151	C	0.323324	0.387180	0.113504
	C152	C	0.892464	0.690578	0.376958
	C153	C	0.116552	0.691897	0.625603
	C154	C	0.892264	0.329240	0.623748
	C155	C	0.117515	0.330258	0.378467
	C156	C	0.891166	0.388243	0.679796
	C157	C	0.116215	0.634901	0.683771
	C158	C	0.892045	0.632401	0.319806
	C159	C	0.117164	0.387796	0.320330
	C160	C	0.381948	0.690882	0.889806
	C161	C	0.630031	0.691851	0.112863
	C162	C	0.625442	0.329274	0.888841
	C163	C	0.379288	0.327805	0.112969
	C164	C	0.685564	0.898340	0.380850
	C165	C	0.688824	0.120867	0.626981
	C166	C	0.323969	0.898539	0.625911
	C167	C	0.324937	0.120955	0.379149
	C168	C	0.880575	0.398897	0.180702
	C169	C	0.130002	0.621351	0.182478
	C170	C	0.124556	0.398465	0.821354
	C171	C	0.880559	0.621797	0.819542
	C172	C	0.186469	0.887739	0.390508
	C173	C	0.186222	0.132802	0.615161
	C174	C	0.826597	0.129586	0.390506
	C175	C	0.826190	0.886117	0.613645
	C176	C	0.391132	0.188505	0.878070
	C177	C	0.616992	0.190148	0.124338
	C178	C	0.392951	0.828757	0.125849
	C179	C	0.617073	0.829963	0.879896
	C180	C	0.393589	0.885256	0.184071
	C181	C	0.617833	0.132078	0.182115
	C182	C	0.392013	0.131295	0.820385
	C183	C	0.617889	0.888670	0.823657
	C184	C	0.882555	0.188760	0.390775
	C185	C	0.130579	0.192676	0.614037
	C186	C	0.130633	0.827915	0.391013
	C187	C	0.881795	0.827156	0.612517
	C188	C	0.182686	0.398376	0.878765
	C189	C	0.186709	0.621787	0.123463
	C190	C	0.823579	0.398173	0.121585
	C191	C	0.822668	0.621847	0.877204
	C192	C	0.410411	0.101235	0.598731
	C193	C	0.603406	0.917735	0.601946
	C194	C	0.601765	0.100784	0.407287
	C195	C	0.408923	0.918572	0.406582
	C196	C	0.599794	0.413307	0.092147
	C197	C	0.599713	0.608771	0.909202
	C198	C	0.408658	0.606504	0.093504
	C199	C	0.406106	0.411090	0.909197
	C200	C	0.096553	0.606323	0.405513
	C201	C	0.912427	0.606020	0.596434
	C202	C	0.096828	0.414837	0.598317
	C203	C	0.912389	0.412065	0.403852
	C204	C	0.908478	0.601558	0.096497
	C205	C	0.100454	0.418875	0.098573
	C206	C	0.100952	0.601924	0.904609
	C207	C	0.904616	0.418142	0.901992
	C208	C	0.100705	0.913302	0.593341
	C209	C	0.102873	0.108812	0.410608
	C210	C	0.910579	0.107304	0.595529
	C211	C	0.908684	0.913244	0.409946
	C212	C	0.596401	0.107468	0.907010
	C213	C	0.412257	0.104464	0.098959
	C214	C	0.597733	0.913903	0.099031
	C215	C	0.412393	0.912967	0.905426
	Zn216	Zn	0.505483	0.010015	0.753428
	Zn217	Zn	0.505694	0.009141	0.252450
	Zn218	Zn	0.753201	0.510265	-0.000117
	Zn219	Zn	0.254272	0.509918	0.001042
	Zn220	Zn	0.004883	0.760005	0.500944
	Zn221	Zn	0.005402	0.260102	0.502190
	Zn222	Zn	0.003942	0.510488	0.750752
	Zn223	Zn	0.004620	0.510548	0.251228
	Zn224	Zn	0.504315	0.760952	0.002844
	Zn225	Zn	0.502895	0.259117	0.001472
	Zn226	Zn	0.756184	0.009419	0.503087
	Zn227	Zn	0.255260	0.010245	0.503187
	N228	N	0.420334	0.973427	0.681061
	N229	N	0.594417	0.045433	0.684770
	N230	N	0.594433	0.974876	0.321308
	N231	N	0.418320	0.045266	0.321862
	N232	N	0.680510	0.425612	0.962902
	N233	N	0.684107	0.597265	0.036654
	N234	N	0.326461	0.595043	0.964269
	N235	N	0.324490	0.423143	0.037808
	N236	N	0.968438	0.689850	0.413844
	N237	N	0.040921	0.689788	0.588007
	N238	N	0.968788	0.329961	0.588756
	N239	N	0.041652	0.330517	0.414812
	N240	N	0.967189	0.425115	0.679212
	N241	N	0.040375	0.597895	0.681841
	N242	N	0.967735	0.596081	0.321810
	N243	N	0.041096	0.423460	0.321226
	N244	N	0.417290	0.690690	0.966099
	N245	N	0.593197	0.692067	0.037324
	N246	N	0.590493	0.329176	0.965048
	N247	N	0.414424	0.327446	0.036842
	N248	N	0.682985	0.972674	0.419073
	N249	N	0.687818	0.045276	0.591412
	N250	N	0.325229	0.973988	0.589847
	N251	N	0.325923	0.045969	0.416062
	N252	N	0.916921	0.474638	0.180557
	N253	N	0.093284	0.546037	0.182462
	N254	N	0.089446	0.474315	0.821815
	N255	N	0.915931	0.546149	0.819791
	N256	N	0.183789	0.924943	0.465444
	N257	N	0.184766	0.096674	0.539484
	N258	N	0.827729	0.094567	0.466730
	N259	N	0.827531	0.923342	0.538640
	N260	N	0.467111	0.188520	0.914996
	N261	N	0.540341	0.189415	0.088852
	N262	N	0.468820	0.830602	0.089333
	N263	N	0.540824	0.830228	0.915478
	N264	N	0.469935	0.921412	0.183415
	N265	N	0.541593	0.095661	0.181725
	N266	N	0.468599	0.096636	0.821850
	N267	N	0.541922	0.924566	0.824475
	N268	N	0.918228	0.189631	0.467042
	N269	N	0.095256	0.193271	0.537751
	N270	N	0.093834	0.828496	0.466374
	N271	N	0.917267	0.828183	0.536675
	N272	N	0.183108	0.473904	0.914375
	N273	N	0.184436	0.546482	0.086982
	N274	N	0.824968	0.473451	0.085170
	N275	N	0.822457	0.546081	0.912439
	O276	O	0.849340	-0.062523	1.004754
	H277	H	0.846848	-0.052189	0.981860
	H278	H	0.848788	-0.053116	1.008223
	O279	O	0.685918	0.695411	0.604390
	H280	H	0.696637	0.694240	0.601572
	H281	H	0.677583	0.698738	0.608832
	O282	O	0.529026	0.296998	0.289117
	H283	H	0.543234	0.276872	0.281130
	H284	H	0.560207	0.293422	0.288511
	O285	O	1.123583	0.075556	0.166723
	H286	H	1.127160	0.071189	0.163308
	H287	H	1.116116	0.064551	0.168328
	O288	O	0.053512	-0.081429	1.104562
	H289	H	0.046051	-0.099458	1.091150
	H290	H	0.041185	-0.083212	1.108331
	O291	O	0.634936	0.590809	0.535486
	H292	H	0.628395	0.600871	0.540377
	H293	H	0.648191	0.568299	0.532525
	O294	O	0.391339	0.334787	0.644628
	H295	H	0.408973	0.315453	0.651863
	H296	H	0.397600	0.326288	0.606806
	O297	O	0.902590	1.129788	0.858607
	H298	H	0.903711	1.110231	0.854920
	H299	H	0.909084	1.134828	0.889837
	O300	O	-0.050767	0.011760	0.182865
	H301	H	-0.057722	0.031351	0.186741
	H302	H	-0.046752	0.000747	0.171760
	O303	O	0.350745	0.696490	0.560169
	H304	H	0.325298	0.703768	0.564805
	H305	H	0.351173	0.679397	0.584133
	O306	O	1.019432	0.019669	0.049646
	H307	H	1.020085	0.021201	0.063176
	H308	H	1.026510	0.015987	0.045885
	O309	O	0.322525	0.405504	0.573020
	H310	H	0.335126	0.396218	0.568291
	H311	H	0.324934	0.396206	0.576983
	O312	O	1.045939	0.839303	0.157500
	H313	H	1.042289	0.827217	0.180122
	H314	H	1.010485	0.841001	0.159216
	O315	O	0.515995	0.427523	0.371945
	H316	H	0.492188	0.450274	0.375215
	H317	H	0.505122	0.411142	0.371496
	O318	O	0.339777	0.574184	0.580861
	H319	H	0.339527	0.558331	0.588942
	H320	H	0.341419	0.544335	0.578296
	O321	O	1.163242	0.059967	0.947536
	H322	H	1.158809	0.053376	0.950373
	H323	H	1.159316	0.046154	0.948572
	O324	O	0.032421	0.049592	0.926037
	H325	H	0.023987	0.043520	0.927367
	H326	H	0.044660	0.059949	0.925925
	O327	O	0.654352	0.466323	0.370939
	H328	H	0.656022	0.455501	0.370071
	H329	H	0.639954	0.496436	0.374805
	O330	O	0.695802	0.321294	0.314223
	H331	H	0.700489	0.348900	0.325048
	H332	H	0.702124	0.334594	0.342449
	O333	O	0.461486	0.720159	0.346658
	H334	H	0.467838	0.749124	0.339175
	H335	H	0.474347	0.724215	0.374170
	O336	O	0.577267	0.309233	0.589288
	H337	H	0.584593	0.294059	0.597935
	H338	H	0.579172	0.311373	0.569916
	O339	O	1.193558	-0.138264	0.899179
	H340	H	1.200335	-0.135705	0.896449
	H341	H	1.187643	-0.142997	0.926808
	O342	O	-0.300660	0.567272	0.645757
	H343	H	-0.317527	0.585352	0.642409
	H344	H	-0.291768	0.560122	0.665792
	O345	O	0.005880	0.893417	0.925622
	H346	H	-0.002973	0.894690	0.924158
	H347	H	0.007831	0.902494	0.930110
	O348	O	-0.431620	0.719925	-0.547277
	H349	H	-0.428875	0.718324	-0.521820
	H350	H	-0.430535	0.719524	-0.534745
	O351	O	-0.165739	0.055705	-0.196548
	H352	H	-0.166303	0.069157	-0.206731
	H353	H	-0.157545	0.052696	-0.210580
	O354	O	1.533575	1.623905	0.575701
	H355	H	1.515176	1.614619	0.576046
	H356	H	1.527672	1.619780	0.589479
	O357	O	0.129585	1.155626	0.088664
	H358	H	0.143663	1.168220	0.094268
	H359	H	0.138430	1.150427	0.098096
	O360	O	0.512566	0.533294	0.376197
	H361	H	0.501115	0.538850	0.387580
	H362	H	0.519193	0.532890	0.361087
	O363	O	0.608630	0.522722	0.637010
	H364	H	0.600460	0.515288	0.630302
	H365	H	0.613362	0.526767	0.644951
	O366	O	0.357086	0.349744	0.588840
	H367	H	0.331923	0.335180	0.588300
	H368	H	0.359025	0.358962	0.580679
	O369	O	0.600276	0.344957	0.540862
	H370	H	0.602776	0.358396	0.534657
	H371	H	0.602335	0.352200	0.549238
	O372	O	0.681383	0.532612	0.429875
	H373	H	0.677843	0.540182	0.432421
	H374	H	0.675167	0.536760	0.422276
	O375	O	0.417982	0.497245	0.482886
	H376	H	0.413595	0.508777	0.466568
	H377	H	0.425806	0.494497	0.485462
	O378	O	0.316421	0.515991	0.302390
	H379	H	0.326368	0.538550	0.296113
	H380	H	0.306516	0.532143	0.285293
	O381	O	0.582149	0.430207	0.496384
	H382	H	0.577267	0.446223	0.489176
	H383	H	0.591439	0.443117	0.495336
	O384	O	-0.047922	1.028616	0.810653
	H385	H	-0.038263	1.030235	0.828318
	H386	H	-0.019500	1.026402	0.804764
	O387	O	0.972689	1.150234	0.102603
	H388	H	1.000772	1.146457	0.094893
	H389	H	0.982089	1.142810	0.115647
	O390	O	0.321353	0.453189	0.620428
	H391	H	0.314315	0.443324	0.613323
	H392	H	0.324122	0.428029	0.616463
	O393	O	0.956047	0.173726	0.873605
	H394	H	0.965981	0.185891	0.865200
	H395	H	0.943319	0.164773	0.886771
	O396	O	0.033037	-0.175563	-0.188866
	H397	H	0.042862	-0.168631	-0.187588
	H398	H	0.046816	-0.186655	-0.201606
	O399	O	0.525326	0.577307	0.672909
	H400	H	0.503273	0.562150	0.667884
	H401	H	0.516534	0.570264	0.683751
	O402	O	0.331860	0.679791	1.323527
	H403	H	0.368561	0.694743	1.322754
	H404	H	0.324307	0.681839	1.361545
	O405	O	-0.136432	-0.169644	0.186078
	H406	H	-0.157868	-0.167259	0.153024
	H407	H	-0.144043	-0.153838	0.192481
	O408	O	0.832509	1.164200	1.015480
	H409	H	0.860243	1.172279	1.017852
	H410	H	0.826409	1.172753	1.020055
	O411	O	1.034056	1.025794	0.026252
	H412	H	1.029833	1.033685	0.025771
	H413	H	1.048565	1.031666	0.024687
	O414	O	0.134037	-0.096719	1.073361
	H415	H	0.125744	-0.104725	1.081468
	H416	H	0.123582	-0.098284	1.100526
	O417	O	0.854017	-0.067860	1.035714
	H418	H	0.846971	-0.045569	1.011828
	H419	H	0.829144	-0.090769	1.033201
	O420	O	0.008239	1.087030	-0.114704
	H421	H	0.003630	1.103835	-0.120438
	H422	H	0.004898	1.091897	-0.121956
	O423	O	1.175349	0.183103	0.122259
	H424	H	1.183169	0.191589	0.133362
	H425	H	1.172092	0.154380	0.133949
	O426	O	-0.047937	-0.081596	1.076088
	H427	H	-0.046476	-0.088510	1.059709
	H428	H	-0.048845	-0.070854	1.072221
	O429	O	0.340674	0.470958	0.415435
	H430	H	0.352589	0.467561	0.405055
	H431	H	0.344122	0.484698	0.399950
