data_Molecule from HDF5

_cell_length_a		16.387303
_cell_length_b		16.431750
_cell_length_c		16.404232
_cell_angle_alpha	89.919821
_cell_angle_beta	90.076450
_cell_angle_gamma	89.856405
_symmetry_space_group_name_H-M	'P 1'
_symmetry_Int_Tables_number		1

loop_
	_symmetry_equiv_pos_as_xyz
	x,y,z

loop_
	_atom_site_label
	_atom_site_type_symbol
	_atom_site_fract_x
	_atom_site_fract_y
	_atom_site_fract_z
	H0	H	0.397965	0.832663	0.727583
	H1	H	0.609873	0.148613	0.729989
	H2	H	0.607663	0.833247	0.283236
	H3	H	0.391457	0.148975	0.282234
	H4	H	0.721692	0.389390	0.844874
	H5	H	0.729154	0.598955	0.161988
	H6	H	0.283553	0.597243	0.845350
	H7	H	0.278627	0.383306	0.161696
	H8	H	0.844517	0.714812	0.396069
	H9	H	0.158665	0.715013	0.613256
	H10	H	0.842011	0.270096	0.612405
	H11	H	0.159406	0.266466	0.400079
	H12	H	0.843381	0.387121	0.727387
	H13	H	0.161935	0.595056	0.723459
	H14	H	0.845688	0.599938	0.279711
	H15	H	0.160562	0.382130	0.283403
	H16	H	0.398827	0.713539	0.847239
	H17	H	0.612408	0.714212	0.163579
	H18	H	0.608593	0.270713	0.846097
	H19	H	0.395818	0.268428	0.162440
	H20	H	0.723641	0.833400	0.398708
	H21	H	0.721958	0.149376	0.611148
	H22	H	0.280410	0.833251	0.613859
	H23	H	0.277176	0.149745	0.399831
	H24	H	0.895021	0.333678	0.228342
	H25	H	0.111270	0.647779	0.229604
	H26	H	0.111502	0.334264	0.780726
	H27	H	0.898038	0.650316	0.783536
	H28	H	0.226216	0.882395	0.348867
	H29	H	0.222015	0.095695	0.665804
	H30	H	0.778174	0.096334	0.347118
	H31	H	0.778164	0.883349	0.663698
	H32	H	0.345489	0.214718	0.897379
	H33	H	0.661643	0.213222	0.113718
	H34	H	0.344629	0.767136	0.113488
	H35	H	0.661784	0.771044	0.903073
	H36	H	0.341518	0.886601	0.224662
	H37	H	0.660051	0.096739	0.229160
	H38	H	0.344104	0.096112	0.784548
	H39	H	0.659632	0.882313	0.783043
	H40	H	0.890380	0.215145	0.348523
	H41	H	0.107318	0.212429	0.664224
	H42	H	0.108548	0.767919	0.348159
	H43	H	0.894971	0.768069	0.663845
	H44	H	0.225799	0.333590	0.897231
	H45	H	0.223442	0.650190	0.109040
	H46	H	0.781131	0.334317	0.111627
	H47	H	0.780145	0.648962	0.896721
	H48	H	0.406710	0.107259	0.597702
	H49	H	0.592112	0.877277	0.594868
	H50	H	0.583895	0.099368	0.426259
	H51	H	0.411324	0.875910	0.410917
	H52	H	0.597174	0.409060	0.117656
	H53	H	0.595403	0.579617	0.891607
	H54	H	0.413813	0.576494	0.118232
	H55	H	0.413048	0.403680	0.890650
	H56	H	0.112520	0.576621	0.422990
	H57	H	0.888749	0.578826	0.594001
	H58	H	0.114462	0.398291	0.589421
	H59	H	0.888682	0.399296	0.419217
	H60	H	0.113570	0.404634	0.592911
	H61	H	0.887628	0.579015	0.593209
	H62	H	0.115406	0.575113	0.413811
	H63	H	0.891743	0.406992	0.419860
	H64	H	0.416111	0.579426	0.118225
	H65	H	0.588266	0.579452	0.894724
	H66	H	0.584399	0.403726	0.115303
	H67	H	0.415999	0.403955	0.893226
	H68	H	0.597074	0.106899	0.418338
	H69	H	0.589124	0.877366	0.598370
	H70	H	0.417778	0.104147	0.599208
	H71	H	0.418813	0.880909	0.416872
	H72	H	0.908055	0.607937	0.095439
	H73	H	0.082407	0.380597	0.096584
	H74	H	0.090054	0.605468	0.911214
	H75	H	0.923888	0.382427	0.918925
	H76	H	0.092910	0.901151	0.620600
	H77	H	0.088576	0.077213	0.394680
	H78	H	0.918815	0.081100	0.617440
	H79	H	0.921089	0.899932	0.394277
	H80	H	0.614365	0.074983	0.918583
	H81	H	0.394101	0.072303	0.089023
	H82	H	0.614359	0.907149	0.096089
	H83	H	0.390877	0.903898	0.921483
	H84	H	0.616725	0.900435	0.098896
	H85	H	0.386036	0.080514	0.102740
	H86	H	0.617968	0.081123	0.914415
	H87	H	0.387874	0.904700	0.913891
	H88	H	0.907857	0.083043	0.621440
	H89	H	0.087765	0.077702	0.393349
	H90	H	0.089657	0.904223	0.618162
	H91	H	0.906977	0.898924	0.389620
	H92	H	0.093217	0.604462	0.917751
	H93	H	0.092875	0.381386	0.083466
	H94	H	0.924764	0.602239	0.098061
	H95	H	0.906604	0.378105	0.922795
	H96	H	0.412484	0.102543	0.588632
	H97	H	0.587736	0.878414	0.594110
	H98	H	0.582371	0.103725	0.410529
	H99	H	0.409336	0.878549	0.421798
	H100	H	0.594193	0.396071	0.121616
	H101	H	0.590877	0.585898	0.890877
	H102	H	0.412826	0.580010	0.119219
	H103	H	0.415202	0.400779	0.890533
	H104	H	0.116847	0.583144	0.418131
	H105	H	0.888771	0.578779	0.593505
	H106	H	0.116187	0.398551	0.596694
	H107	H	0.888362	0.404654	0.412265
	H108	H	0.917468	0.599353	0.081924
	H109	H	0.098104	0.374116	0.097678
	H110	H	0.096953	0.607446	0.912359
	H111	H	0.913130	0.373713	0.905989
	H112	H	0.088380	0.899479	0.619347
	H113	H	0.088544	0.077241	0.393847
	H114	H	0.910302	0.072265	0.616568
	H115	H	0.911575	0.911052	0.395911
	H116	H	0.615879	0.082172	0.922080
	H117	H	0.388726	0.088969	0.087270
	H118	H	0.614741	0.901324	0.091463
	H119	H	0.387353	0.897624	0.917958
	C120	C	0.380865	0.000092	0.627651
	C121	C	0.623005	0.982472	0.628178
	C122	C	0.621521	-0.000811	0.384934
	C123	C	0.378775	0.982910	0.383830
	C124	C	0.624559	0.370709	0.013296
	C125	C	0.625267	0.613567	0.996972
	C126	C	0.382464	0.612036	0.013594
	C127	C	0.381312	0.369743	0.995623
	C128	C	0.010904	0.612179	0.383695
	C129	C	0.993190	0.611945	0.625906
	C130	C	0.010060	0.368684	0.626997
	C131	C	0.993467	0.369289	0.384211
	C132	C	0.882404	0.499806	0.125805
	C133	C	0.124267	0.482778	0.125758
	C134	C	0.125671	0.500574	0.881612
	C135	C	0.882280	0.483114	0.883443
	C136	C	0.123655	0.868539	0.514854
	C137	C	0.121372	0.110416	0.498504
	C138	C	0.878377	0.112252	0.514007
	C139	C	0.879758	0.869328	0.497381
	C140	C	0.511466	0.112168	0.884910
	C141	C	0.494123	0.113408	0.126868
	C142	C	0.510509	0.869527	0.127882
	C143	C	0.493821	0.869835	0.885448
	C144	C	0.379153	0.880530	0.688113
	C145	C	0.626858	0.101114	0.689207
	C146	C	0.624965	0.880630	0.323678
	C147	C	0.374412	0.101729	0.322895
	C148	C	0.683255	0.369761	0.893087
	C149	C	0.687987	0.616557	0.115002
	C150	C	0.323255	0.614961	0.893383
	C151	C	0.319524	0.366093	0.114331
	C152	C	0.892228	0.674308	0.378960
	C153	C	0.111851	0.673782	0.630052
	C154	C	0.890255	0.309550	0.630219
	C155	C	0.111851	0.306783	0.381157
	C156	C	0.890980	0.367599	0.687732
	C157	C	0.113442	0.614045	0.685158
	C158	C	0.892563	0.616852	0.320956
	C159	C	0.112633	0.364807	0.323414
	C160	C	0.380805	0.672851	0.894356
	C161	C	0.629723	0.673975	0.115964
	C162	C	0.626734	0.310948	0.893724
	C163	C	0.377772	0.308661	0.114715
	C164	C	0.682646	0.880301	0.381324
	C165	C	0.682718	0.101730	0.629778
	C166	C	0.320842	0.880621	0.631196
	C167	C	0.316982	0.101681	0.381130
	C168	C	0.877904	0.381438	0.187977
	C169	C	0.128562	0.600828	0.188121
	C170	C	0.128718	0.381718	0.821050
	C171	C	0.879723	0.602361	0.822994
	C172	C	0.185531	0.864987	0.396314
	C173	C	0.181691	0.113225	0.617914
	C174	C	0.817525	0.114906	0.395006
	C175	C	0.818387	0.865422	0.616121
	C176	C	0.392758	0.173820	0.880798
	C177	C	0.613525	0.173328	0.130726
	C178	C	0.391962	0.807562	0.131106
	C179	C	0.613466	0.809883	0.883614
	C180	C	0.390267	0.867319	0.186459
	C181	C	0.612731	0.115681	0.188709
	C182	C	0.391918	0.114743	0.824434
	C183	C	0.612561	0.865886	0.824274
	C184	C	0.873958	0.173867	0.395742
	C185	C	0.124418	0.171611	0.617030
	C186	C	0.126690	0.808041	0.395741
	C187	C	0.876917	0.808232	0.616280
	C188	C	0.186029	0.381450	0.879184
	C189	C	0.184502	0.601954	0.128144
	C190	C	0.820812	0.381565	0.129639
	C191	C	0.821486	0.602044	0.879972
	C192	C	0.405377	0.082929	0.602393
	C193	C	0.597394	0.899290	0.602890
	C194	C	0.595300	0.081770	0.410997
	C195	C	0.405479	0.900148	0.409266
	C196	C	0.599457	0.395794	0.096408
	C197	C	0.599048	0.588721	0.914093
	C198	C	0.407196	0.586240	0.096828
	C199	C	0.407187	0.395466	0.913006
	C200	C	0.093174	0.585862	0.410545
	C201	C	0.910270	0.586434	0.600626
	C202	C	0.093089	0.393268	0.600673
	C203	C	0.911137	0.395965	0.409670
	C204	C	0.909124	0.581791	0.099243
	C205	C	0.098492	0.400432	0.099984
	C206	C	0.100539	0.584102	0.906596
	C207	C	0.907427	0.400049	0.908633
	C208	C	0.097690	0.894208	0.597604
	C209	C	0.095734	0.084630	0.415487
	C210	C	0.904613	0.086062	0.596914
	C211	C	0.905639	0.895681	0.414841
	C212	C	0.594350	0.086518	0.910768
	C213	C	0.411097	0.087859	0.100566
	C214	C	0.593577	0.895464	0.102762
	C215	C	0.410475	0.894925	0.910624
	Zn216	Zn	0.502203	-0.009148	0.756414
	Zn217	Zn	0.500795	-0.008247	0.255529
	Zn218	Zn	0.753437	0.491670	0.003858
	Zn219	Zn	0.252939	0.491954	0.003861
	Zn220	Zn	0.001387	0.740045	0.505607
	Zn221	Zn	0.000030	0.239830	0.505711
	Zn222	Zn	0.002733	0.491242	0.754496
	Zn223	Zn	0.002765	0.490835	0.255082
	Zn224	Zn	0.502812	0.741614	0.006691
	Zn225	Zn	0.503775	0.241796	0.005207
	Zn226	Zn	0.750525	-0.009694	0.505738
	Zn227	Zn	0.251987	-0.009061	0.507245
	N228	N	0.415793	0.955706	0.686314
	N229	N	0.590842	0.025661	0.688459
	N230	N	0.587370	0.955639	0.325865
	N231	N	0.411785	0.026762	0.324052
	N232	N	0.682021	0.406088	0.968534
	N233	N	0.685284	0.579837	0.039912
	N234	N	0.324103	0.577796	0.968542
	N235	N	0.321495	0.403350	0.039286
	N236	N	0.966800	0.671401	0.417456
	N237	N	0.036072	0.672689	0.594030
	N238	N	0.965520	0.309923	0.593328
	N239	N	0.036777	0.309324	0.418189
	N240	N	0.966738	0.403244	0.686113
	N241	N	0.038719	0.576526	0.682848
	N242	N	0.967287	0.578994	0.323685
	N243	N	0.037811	0.402699	0.324749
	N244	N	0.416793	0.671238	0.969996
	N245	N	0.591436	0.672354	0.041572
	N246	N	0.591210	0.311113	0.969626
	N247	N	0.415425	0.310765	0.039958
	N248	N	0.680472	0.954929	0.418689
	N249	N	0.680488	0.026813	0.592590
	N250	N	0.321681	0.955616	0.594287
	N251	N	0.319467	0.026562	0.418087
	N252	N	0.915470	0.456175	0.185978
	N253	N	0.091959	0.525702	0.186933
	N254	N	0.091926	0.456945	0.822429
	N255	N	0.917042	0.527394	0.825171
	N256	N	0.184020	0.901629	0.471427
	N257	N	0.179857	0.075918	0.542927
	N258	N	0.820249	0.077337	0.469933
	N259	N	0.819883	0.902591	0.541003
	N260	N	0.468107	0.172458	0.917616
	N261	N	0.538445	0.172036	0.093129
	N262	N	0.467845	0.808807	0.095583
	N263	N	0.538701	0.812479	0.921149
	N264	N	0.464838	0.905319	0.184646
	N265	N	0.537417	0.079281	0.186593
	N266	N	0.466668	0.076957	0.827021
	N267	N	0.537101	0.902574	0.825393
	N268	N	0.910885	0.172376	0.470925
	N269	N	0.087521	0.169979	0.541745
	N270	N	0.089114	0.809822	0.470588
	N271	N	0.914104	0.810361	0.541267
	N272	N	0.183910	0.456443	0.916106
	N273	N	0.182232	0.527468	0.090353
	N274	N	0.823395	0.456113	0.091916
	N275	N	0.822929	0.526982	0.916754
	O276	O	0.680299	0.490028	0.622345
	H277	H	0.688868	0.498978	0.599247
	H278	H	0.664728	0.491502	0.625862
	O279	O	0.472213	0.526716	0.391482
	H280	H	0.495958	0.510120	0.395518
	H281	H	0.457340	0.507011	0.391557
	O282	O	0.470335	0.644143	0.533258
	H283	H	0.476009	0.646680	0.525101
	H284	H	0.491348	0.640273	0.525875
	O285	O	1.173757	0.809439	-0.179486
	H286	H	1.137108	0.805618	-0.185648
	H287	H	1.183432	0.811255	-0.170758
	O288	O	0.707450	0.675354	0.596601
	H289	H	0.705315	0.657356	0.619218
	H290	H	0.719302	0.698256	0.601589
	O291	O	0.492099	0.498685	0.289168
	H292	H	0.475319	0.507137	0.280941
	H293	H	0.488788	0.461054	0.282573
	O294	O	0.893058	1.037897	1.184186
	H295	H	0.903285	1.046930	1.174738
	H296	H	0.909118	1.057938	1.189925
	O297	O	0.676567	0.316372	0.325150
	H298	H	0.647632	0.326632	0.317285
	H299	H	0.687653	0.308254	0.363630
	O300	O	0.556380	0.430431	0.711672
	H301	H	0.549657	0.423602	0.711968
	H302	H	0.545725	0.407138	0.711841
	O303	O	0.287261	0.507943	0.291191
	H304	H	0.253247	0.519004	0.257255
	H305	H	0.298790	0.553232	0.304505
	O306	O	-0.114829	0.059529	1.152858
	H307	H	-0.109985	0.072354	1.157161
	H308	H	-0.104657	0.087623	1.146405
	O309	O	0.986972	0.167074	0.016711
	H310	H	0.990459	0.170301	0.037714
	H311	H	0.962984	0.167451	0.012771
	O312	O	0.489848	0.556047	0.488423
	H313	H	0.495052	0.558804	0.483521
	H314	H	0.497125	0.562974	0.486368
	O315	O	0.289943	0.392475	0.474582
	H316	H	0.302733	0.397281	0.486387
	H317	H	0.289263	0.408478	0.431185
	O318	O	0.167248	0.177047	0.098103
	H319	H	0.178010	0.189287	0.069247
	H320	H	0.176490	0.140830	0.094997
	O321	O	0.708568	0.528733	0.430335
	H322	H	0.712950	0.545614	0.445180
	H323	H	0.707207	0.532593	0.411525
	O324	O	0.720634	0.435974	0.322890
	H325	H	0.757571	0.421040	0.296048
	H326	H	0.717716	0.427307	0.336957
	O327	O	0.319629	0.302645	0.657109
	H328	H	0.296348	0.311712	0.666131
	H329	H	0.308324	0.307320	0.616026
	O330	O	-0.174382	1.206036	1.001831
	H331	H	-0.165024	1.194960	0.969508
	H332	H	-0.195239	1.231104	0.994015
	O333	O	0.027184	1.036038	0.077178
	H334	H	0.009628	1.035100	0.079299
	H335	H	0.035617	1.045753	0.077791
	O336	O	1.036962	1.203201	0.219318
	H337	H	1.063528	1.209549	0.231768
	H338	H	1.064852	1.212076	0.219864
	O339	O	0.000913	0.819156	0.813962
	H340	H	-0.015058	0.839453	0.801658
	H341	H	-0.010577	0.802839	0.802942
	O342	O	0.205125	0.790952	-0.003488
	H343	H	0.192554	0.789138	-0.021716
	H344	H	0.220962	0.790687	0.000943
	O345	O	0.133038	-0.039038	0.989909
	H346	H	0.132021	-0.039413	0.995894
	H347	H	0.123513	-0.046812	0.981060
	O348	O	0.486047	0.285760	0.481379
	H349	H	0.485877	0.314663	0.489004
	H350	H	0.502212	0.278918	0.478554
	O351	O	1.121961	0.950172	0.150492
	H352	H	1.110338	0.944150	0.135201
	H353	H	1.108393	0.928929	0.157272
	O354	O	0.820016	1.171864	0.836242
	H355	H	0.822874	1.139012	0.826804
	H356	H	0.853075	1.181163	0.828399
	O357	O	-0.187339	-0.198080	0.039269
	H358	H	-0.181655	-0.209798	0.031787
	H359	H	-0.183203	-0.201333	0.034560
	O360	O	0.511796	0.287719	0.297613
	H361	H	0.506499	0.266934	0.300958
	H362	H	0.523430	0.281995	0.302147
	O363	O	1.200197	0.081199	0.185938
	H364	H	1.219485	0.066313	0.206140
	H365	H	1.184176	0.068862	0.176995
	O366	O	-0.018400	-0.031703	0.870312
	H367	H	-0.009286	-0.017286	0.862559
	H368	H	-0.022080	-0.021422	0.883117
	O369	O	0.801511	0.009663	0.793688
	H370	H	0.775620	0.010066	0.781483
	H371	H	0.788145	0.001049	0.818571
	O372	O	0.558018	0.310050	0.663999
	H373	H	0.529565	0.318916	0.663209
	H374	H	0.544580	0.294279	0.679526
	O375	O	0.196207	-0.033246	0.814884
	H376	H	0.201478	-0.054534	0.817296
	H377	H	0.203189	-0.033301	0.804740
	O378	O	0.472516	0.455390	0.679603
	H379	H	0.460527	0.462065	0.669139
	H380	H	0.457682	0.442812	0.674475
	O381	O	-0.062238	1.191956	-0.150638
	H382	H	-0.053059	1.213312	-0.165141
	H383	H	-0.050755	1.192040	-0.135435
	O384	O	0.367060	0.357387	0.421433
	H385	H	0.353974	0.372545	0.415235
	H386	H	0.375510	0.353079	0.406466
	O387	O	0.601563	0.346622	0.507680
	H388	H	0.597388	0.346091	0.515092
	H389	H	0.597434	0.345404	0.526517
	O390	O	1.011223	0.785250	0.149485
	H391	H	1.000680	0.776799	0.162284
	H392	H	0.985613	0.777918	0.151744
	O393	O	1.100789	-0.119077	1.032058
	H394	H	1.091954	-0.116877	1.040102
	H395	H	1.108468	-0.116081	1.048129
	O396	O	0.494338	0.599719	0.706506
	H397	H	0.490609	0.608924	0.714549
	H398	H	0.494595	0.570636	0.710502
	O399	O	0.600571	0.404715	0.504753
	H400	H	0.615759	0.395106	0.504131
	H401	H	0.592398	0.415502	0.514215
	O402	O	0.888347	0.826365	0.185397
	H403	H	0.866277	0.850342	0.188145
	H404	H	0.880380	0.816364	0.185469
	O405	O	0.352665	0.403951	0.701335
	H406	H	0.355981	0.402374	0.684798
	H407	H	0.323749	0.406913	0.718539
	O408	O	0.486449	0.703289	0.305159
	H409	H	0.506757	0.685845	0.289247
	H410	H	0.494744	0.718590	0.286767
	O411	O	0.932108	0.790954	0.911865
	H412	H	0.942640	0.794466	0.919027
	H413	H	0.949689	0.788970	0.899867
	O414	O	0.317794	0.665461	0.327141
	H415	H	0.365143	0.680658	0.320784
	H416	H	0.309500	0.673606	0.372153
	O417	O	0.037204	1.017816	0.858093
	H418	H	0.044207	1.014970	0.863339
	H419	H	0.037462	1.021764	0.861067
	O420	O	0.205614	1.139218	0.960052
	H421	H	0.201564	1.127544	0.955397
	H422	H	0.211920	1.133614	0.952233
	O423	O	-0.114038	0.904410	0.199533
	H424	H	-0.123267	0.927940	0.191857
	H425	H	-0.123198	0.906454	0.196299
	O426	O	0.292603	0.697391	0.488791
	H427	H	0.315134	0.697202	0.512192
	H428	H	0.266531	0.722048	0.483058
	O429	O	0.619877	0.665629	0.688007
	H430	H	0.631948	0.639616	0.688656
	H431	H	0.589528	0.672802	0.699108
	O432	O	0.618749	0.691854	0.485511
	H433	H	0.609714	0.697243	0.470098
	H434	H	0.641605	0.695690	0.492633
	O435	O	0.017868	0.158017	-0.093579
	H436	H	0.033913	0.146018	-0.079314
	H437	H	-0.000884	0.163092	-0.077172
	O438	O	-0.195165	0.941353	0.954070
	H439	H	-0.186896	0.919364	0.967990
	H440	H	-0.189274	0.962285	0.974466
	O441	O	0.306510	0.585269	0.596341
	H442	H	0.307520	0.597060	0.587512
	H443	H	0.327217	0.571947	0.577537
