data_Molecule from HDF5

_cell_length_a		16.460400
_cell_length_b		16.515566
_cell_length_c		16.538721
_cell_angle_alpha	90.185090
_cell_angle_beta	89.972928
_cell_angle_gamma	89.955260
_symmetry_space_group_name_H-M	'P 1'
_symmetry_Int_Tables_number		1

loop_
	_symmetry_equiv_pos_as_xyz
	x,y,z

loop_
	_atom_site_label
	_atom_site_type_symbol
	_atom_site_fract_x
	_atom_site_fract_y
	_atom_site_fract_z
	H0	H	0.398562	0.850740	0.744660
	H1	H	0.615176	0.161982	0.745757
	H2	H	0.615662	0.851328	0.294129
	H3	H	0.398553	0.163863	0.298832
	H4	H	0.732421	0.395811	0.864869
	H5	H	0.727498	0.610674	0.178322
	H6	H	0.285368	0.610910	0.863496
	H7	H	0.286807	0.404302	0.178401
	H8	H	0.850187	0.728524	0.414019
	H9	H	0.164613	0.727175	0.626517
	H10	H	0.849435	0.282263	0.627233
	H11	H	0.164542	0.282292	0.414104
	H12	H	0.850384	0.396066	0.745557
	H13	H	0.165436	0.608819	0.740323
	H14	H	0.849269	0.609772	0.300257
	H15	H	0.164477	0.398760	0.298796
	H16	H	0.403082	0.726109	0.863069
	H17	H	0.611972	0.727951	0.177936
	H18	H	0.615990	0.279819	0.864942
	H19	H	0.399874	0.284555	0.177937
	H20	H	0.730634	0.849825	0.410832
	H21	H	0.728590	0.163136	0.626672
	H22	H	0.285239	0.848859	0.625844
	H23	H	0.281470	0.162093	0.414232
	H24	H	0.898458	0.349845	0.245316
	H25	H	0.115008	0.661121	0.245687
	H26	H	0.116102	0.348806	0.796070
	H27	H	0.899515	0.661181	0.797365
	H28	H	0.231729	0.896381	0.366249
	H29	H	0.231400	0.113372	0.676410
	H30	H	0.782227	0.112615	0.365206
	H31	H	0.781228	0.897748	0.676026
	H32	H	0.350635	0.232428	0.909716
	H33	H	0.662592	0.230009	0.127009
	H34	H	0.349860	0.785087	0.125338
	H35	H	0.663235	0.782668	0.911532
	H36	H	0.349859	0.901169	0.241603
	H37	H	0.662037	0.115716	0.245049
	H38	H	0.350431	0.114653	0.795571
	H39	H	0.661639	0.897243	0.794959
	H40	H	0.896788	0.230232	0.366245
	H41	H	0.115057	0.230212	0.676559
	H42	H	0.116119	0.779346	0.367198
	H43	H	0.898335	0.782071	0.676889
	H44	H	0.232356	0.349105	0.912080
	H45	H	0.227692	0.663251	0.126777
	H46	H	0.782880	0.349604	0.127408
	H47	H	0.783744	0.661406	0.914272
	H48	H	0.420737	0.116426	0.606096
	H49	H	0.594766	0.895348	0.603805
	H50	H	0.594681	0.117670	0.432399
	H51	H	0.420023	0.894068	0.430368
	H52	H	0.588371	0.417555	0.129194
	H53	H	0.593681	0.589938	0.910990
	H54	H	0.420438	0.597952	0.132782
	H55	H	0.420301	0.420136	0.909859
	H56	H	0.119241	0.595370	0.437056
	H57	H	0.893219	0.594911	0.611028
	H58	H	0.119150	0.412394	0.604760
	H59	H	0.896772	0.421180	0.434882
	H60	H	0.116339	0.421168	0.607118
	H61	H	0.895013	0.594343	0.607721
	H62	H	0.117445	0.588943	0.434217
	H63	H	0.892801	0.416496	0.428930
	H64	H	0.415900	0.599247	0.134946
	H65	H	0.592115	0.597621	0.908515
	H66	H	0.596563	0.414703	0.134129
	H67	H	0.420657	0.416005	0.908275
	H68	H	0.592515	0.116958	0.433490
	H69	H	0.595065	0.893744	0.610239
	H70	H	0.416711	0.117992	0.607784
	H71	H	0.420415	0.895283	0.431697
	H72	H	0.917193	0.618206	0.110610
	H73	H	0.097089	0.389696	0.119695
	H74	H	0.091579	0.618334	0.923149
	H75	H	0.916543	0.392057	0.932049
	H76	H	0.095217	0.911963	0.636013
	H77	H	0.093299	0.092244	0.410216
	H78	H	0.922944	0.089567	0.629949
	H79	H	0.917099	0.916077	0.408581
	H80	H	0.617147	0.091353	0.932214
	H81	H	0.393085	0.096738	0.108134
	H82	H	0.618049	0.923862	0.110173
	H83	H	0.395818	0.924733	0.932972
	H84	H	0.622532	0.914689	0.110966
	H85	H	0.393928	0.093987	0.109607
	H86	H	0.617768	0.094683	0.936108
	H87	H	0.390312	0.914724	0.924897
	H88	H	0.920929	0.099421	0.633602
	H89	H	0.094173	0.092845	0.409430
	H90	H	0.099938	0.921271	0.634023
	H91	H	0.920456	0.919651	0.410460
	H92	H	0.090078	0.613135	0.937949
	H93	H	0.086224	0.397531	0.106076
	H94	H	0.920068	0.617379	0.111327
	H95	H	0.924794	0.394675	0.930762
	H96	H	0.420875	0.118567	0.610654
	H97	H	0.589230	0.896559	0.607650
	H98	H	0.594326	0.117320	0.434991
	H99	H	0.418262	0.894656	0.431546
	H100	H	0.596175	0.423936	0.130213
	H101	H	0.599391	0.594780	0.906795
	H102	H	0.416012	0.594692	0.132518
	H103	H	0.416783	0.418122	0.908002
	H104	H	0.120846	0.594170	0.430360
	H105	H	0.894616	0.591366	0.609776
	H106	H	0.120858	0.415597	0.613226
	H107	H	0.894609	0.413316	0.436260
	H108	H	0.919335	0.616267	0.108368
	H109	H	0.104124	0.392359	0.102162
	H110	H	0.103779	0.619171	0.932770
	H111	H	0.920388	0.395675	0.938173
	H112	H	0.089747	0.920217	0.630880
	H113	H	0.094518	0.091729	0.410055
	H114	H	0.913283	0.091772	0.633699
	H115	H	0.921895	0.914762	0.409454
	H116	H	0.615799	0.090132	0.937148
	H117	H	0.392515	0.096109	0.111203
	H118	H	0.618292	0.917614	0.102180
	H119	H	0.394304	0.912338	0.938277
	C120	C	0.385899	0.014314	0.641421
	C121	C	0.627657	0.998009	0.641831
	C122	C	0.628140	0.014669	0.398810
	C123	C	0.384969	0.997915	0.398703
	C124	C	0.627955	0.384033	0.028637
	C125	C	0.627664	0.627080	1.012474
	C126	C	0.385223	0.628379	0.029295
	C127	C	0.386063	0.385437	1.012194
	C128	C	0.015358	0.626119	0.400553
	C129	C	0.998583	0.626265	0.642240
	C130	C	0.015334	0.383118	0.642144
	C131	C	0.998441	0.383431	0.399641
	C132	C	0.885490	0.513973	0.142836
	C133	C	0.127900	0.497232	0.142033
	C134	C	0.129301	0.513434	0.898266
	C135	C	0.886333	0.497104	0.899680
	C136	C	0.128513	0.883814	0.530552
	C137	C	0.127999	0.126339	0.512984
	C138	C	0.885253	0.126858	0.529575
	C139	C	0.884974	0.883482	0.511960
	C140	C	0.514070	0.126948	0.900035
	C141	C	0.497056	0.128865	0.142601
	C142	C	0.515613	0.885999	0.140584
	C143	C	0.497682	0.884481	0.898687
	C144	C	0.381612	0.897075	0.703166
	C145	C	0.632255	0.115020	0.704501
	C146	C	0.632844	0.898059	0.335250
	C147	C	0.380880	0.116300	0.338673
	C148	C	0.691152	0.378959	0.911639
	C149	C	0.687650	0.629315	0.130899
	C150	C	0.325475	0.629306	0.910752
	C151	C	0.326154	0.384370	0.130978
	C152	C	0.897160	0.687364	0.396982
	C153	C	0.117223	0.686841	0.644762
	C154	C	0.896878	0.322119	0.645631
	C155	C	0.116935	0.322316	0.396026
	C156	C	0.897429	0.378988	0.704472
	C157	C	0.117874	0.627567	0.701038
	C158	C	0.896836	0.628745	0.339668
	C159	C	0.116891	0.380254	0.338515
	C160	C	0.383912	0.686709	0.910365
	C161	C	0.630086	0.687715	0.130599
	C162	C	0.633167	0.321080	0.911715
	C163	C	0.383020	0.325270	0.130634
	C164	C	0.690145	0.897393	0.393650
	C165	C	0.688937	0.115683	0.645231
	C166	C	0.325059	0.896282	0.644367
	C167	C	0.322254	0.115210	0.395998
	C168	C	0.881043	0.396516	0.204330
	C169	C	0.131833	0.614387	0.204328
	C170	C	0.133609	0.395912	0.836737
	C171	C	0.882402	0.614431	0.838185
	C172	C	0.190725	0.879052	0.413110
	C173	C	0.190094	0.130932	0.629979
	C174	C	0.822930	0.130488	0.412311
	C175	C	0.822081	0.880006	0.629133
	C176	C	0.397210	0.190500	0.893720
	C177	C	0.615496	0.189865	0.145497
	C178	C	0.397139	0.825270	0.143519
	C179	C	0.615489	0.822983	0.894142
	C180	C	0.397213	0.882800	0.201658
	C181	C	0.615116	0.132912	0.204009
	C182	C	0.397230	0.132180	0.836479
	C183	C	0.614964	0.880118	0.836000
	C184	C	0.879962	0.189179	0.412706
	C185	C	0.132264	0.189017	0.629837
	C186	C	0.133332	0.820729	0.413627
	C187	C	0.880621	0.822637	0.629710
	C188	C	0.191387	0.396139	0.894808
	C189	C	0.187999	0.615564	0.144965
	C190	C	0.823813	0.396405	0.145496
	C191	C	0.824498	0.614503	0.896236
	C192	C	0.412026	0.096280	0.615627
	C193	C	0.600853	0.916404	0.614972
	C194	C	0.601511	0.096220	0.425909
	C195	C	0.412020	0.916087	0.423949
	C196	C	0.601260	0.411015	0.109800
	C197	C	0.602404	0.601259	0.930069
	C198	C	0.410178	0.604152	0.112062
	C199	C	0.411842	0.410732	0.930151
	C200	C	0.097738	0.600327	0.426291
	C201	C	0.915873	0.600754	0.616898
	C202	C	0.097187	0.408962	0.615921
	C203	C	0.916118	0.409486	0.425709
	C204	C	0.911617	0.595836	0.117441
	C205	C	0.102819	0.414750	0.116513
	C206	C	0.102688	0.595575	0.924051
	C207	C	0.912938	0.415459	0.926044
	C208	C	0.102529	0.910297	0.612200
	C209	C	0.101505	0.099723	0.431214
	C210	C	0.911621	0.100969	0.611063
	C211	C	0.911891	0.909477	0.430667
	C212	C	0.595720	0.099892	0.927402
	C213	C	0.414844	0.103138	0.116914
	C214	C	0.598131	0.911435	0.115166
	C215	C	0.415056	0.910159	0.924695
	Zn216	Zn	0.505982	0.006250	0.770792
	Zn217	Zn	0.506469	0.007098	0.269841
	Zn218	Zn	0.756772	0.505727	0.020653
	Zn219	Zn	0.256997	0.506362	0.020517
	Zn220	Zn	0.006852	0.755287	0.521787
	Zn221	Zn	0.007219	0.255217	0.520661
	Zn222	Zn	0.007139	0.504540	0.770175
	Zn223	Zn	0.007469	0.504961	0.271611
	Zn224	Zn	0.507289	0.756747	0.019889
	Zn225	Zn	0.505979	0.255506	0.019984
	Zn226	Zn	0.756714	0.005253	0.520678
	Zn227	Zn	0.257061	0.005388	0.521294
	N228	N	0.418759	0.971422	0.701330
	N229	N	0.595008	0.040545	0.702725
	N230	N	0.595101	0.972290	0.338115
	N231	N	0.418951	0.042203	0.340111
	N232	N	0.688235	0.417498	0.985443
	N233	N	0.686318	0.592282	0.056279
	N234	N	0.326053	0.593997	0.985876
	N235	N	0.327758	0.420750	0.056442
	N236	N	0.971911	0.686037	0.433809
	N237	N	0.041862	0.685964	0.608927
	N238	N	0.970997	0.324579	0.607557
	N239	N	0.042264	0.324192	0.433207
	N240	N	0.972181	0.416109	0.702583
	N241	N	0.042960	0.590904	0.699809
	N242	N	0.971419	0.591316	0.341767
	N243	N	0.042157	0.417403	0.340529
	N244	N	0.420195	0.686369	0.985149
	N245	N	0.593720	0.686471	0.055821
	N246	N	0.594490	0.324320	0.985208
	N247	N	0.419207	0.325688	0.055539
	N248	N	0.687302	0.970884	0.432489
	N249	N	0.686211	0.041692	0.607099
	N250	N	0.327879	0.970172	0.606427
	N251	N	0.324552	0.040472	0.432451
	N252	N	0.918760	0.470596	0.202771
	N253	N	0.094923	0.539865	0.202474
	N254	N	0.095678	0.469894	0.838935
	N255	N	0.919995	0.540222	0.840245
	N256	N	0.187822	0.917702	0.486696
	N257	N	0.187504	0.092616	0.556229
	N258	N	0.826121	0.092234	0.485852
	N259	N	0.824431	0.916740	0.554753
	N260	N	0.470969	0.187155	0.932465
	N261	N	0.540988	0.187555	0.108174
	N262	N	0.471838	0.827048	0.106383
	N263	N	0.541414	0.825597	0.932367
	N264	N	0.471942	0.919822	0.200097
	N265	N	0.540527	0.095838	0.202359
	N266	N	0.471024	0.093531	0.840212
	N267	N	0.540694	0.917844	0.838758
	N268	N	0.918114	0.186946	0.486560
	N269	N	0.094280	0.185964	0.555971
	N270	N	0.095346	0.823569	0.487540
	N271	N	0.918826	0.824593	0.555870
	N272	N	0.188816	0.470473	0.932366
	N273	N	0.185755	0.541645	0.106810
	N274	N	0.826392	0.470501	0.108033
	N275	N	0.826851	0.540471	0.933819
	O276	O	0.530444	0.593965	0.467038
	H277	H	0.525307	0.593308	0.482788
	H278	H	0.522957	0.584148	0.464438
	O279	O	0.315307	0.633083	0.475513
	H280	H	0.321739	0.631929	0.462097
	H281	H	0.318732	0.636258	0.467379
	O282	O	0.530713	0.715999	0.728183
	H283	H	0.514787	0.725111	0.735064
	H284	H	0.508754	0.715563	0.732159
	O285	O	0.230693	1.231331	0.045613
	H286	H	0.236876	1.237564	0.080654
	H287	H	0.250175	1.248722	0.069380
	O288	O	-0.174173	-0.179491	0.207306
	H289	H	-0.177125	-0.154844	0.186020
	H290	H	-0.182278	-0.159255	0.194515
	O291	O	0.794659	0.867055	0.120191
	H292	H	0.785794	0.874044	0.104777
	H293	H	0.776440	0.871632	0.123510
	O294	O	0.030503	0.789043	-0.199671
	H295	H	0.034184	0.772390	-0.224190
	H296	H	0.052839	0.793753	-0.201461
	O297	O	1.202166	0.809948	-0.172847
	H298	H	1.216214	0.822197	-0.166699
	H299	H	1.198674	0.822959	-0.187038
	O300	O	0.700794	0.311220	0.327130
	H301	H	0.693361	0.313842	0.355910
	H302	H	0.704196	0.316401	0.328362
	O303	O	0.325499	0.321654	0.704697
	H304	H	0.371653	0.310823	0.708770
	H305	H	0.314859	0.348159	0.687877
	O306	O	0.116490	0.902211	1.245066
	H307	H	0.087035	0.925901	1.236751
	H308	H	0.096010	0.882384	1.243292
	O309	O	0.414365	0.590112	0.720553
	H310	H	0.420471	0.567175	0.714592
	H311	H	0.442074	0.583791	0.718195
	O312	O	0.465216	0.304818	0.525369
	H313	H	0.458044	0.295004	0.542927
	H314	H	0.458308	0.289056	0.540458
	O315	O	-0.209339	0.025158	0.808572
	H316	H	-0.206048	0.045505	0.809883
	H317	H	-0.229593	0.043560	0.795597
	O318	O	-0.694428	1.464471	0.398981
	H319	H	-0.704004	1.451377	0.403949
	H320	H	-0.688678	1.475674	0.406490
	O321	O	-0.203009	1.214814	-0.002035
	H322	H	-0.228495	1.229876	0.001706
	H323	H	-0.171347	1.219931	-0.005304
	O324	O	0.989076	0.129609	1.128801
	H325	H	0.979108	0.140440	1.116127
	H326	H	1.000790	0.119534	1.126726
	O327	O	0.969921	0.046787	1.090417
	H328	H	0.989416	0.046662	1.088729
	H329	H	0.966060	0.039587	1.093163
	O330	O	1.207402	-0.016604	-0.180357
	H331	H	1.219212	-0.008265	-0.178530
	H332	H	1.189587	-0.006469	-0.180373
	O333	O	0.660545	0.554018	0.466083
	H334	H	0.666984	0.568580	0.491660
	H335	H	0.662897	0.575981	0.465626
	O336	O	1.569975	-0.571893	0.692728
	H337	H	1.593627	-0.565076	0.678310
	H338	H	1.582431	-0.575870	0.696778
	O339	O	0.682412	-0.409702	-0.529024
	H340	H	0.686218	-0.388616	-0.519025
	H341	H	0.682476	-0.411575	-0.528395
	O342	O	0.692789	0.378769	0.474584
	H343	H	0.696082	0.387531	0.488910
	H344	H	0.716799	0.365114	0.480957
	O345	O	-0.615047	0.634919	-0.692517
	H346	H	-0.610327	0.610884	-0.685845
	H347	H	-0.636779	0.662483	-0.713747
	O348	O	1.219576	0.026156	1.237575
	H349	H	1.241281	0.022124	1.267785
	H350	H	1.197782	0.000131	1.233065
	O351	O	1.103000	1.206869	-0.085176
	H352	H	1.120116	1.193208	-0.073327
	H353	H	1.123322	1.206897	-0.083448
	O354	O	0.488384	0.295549	0.727919
	H355	H	0.505330	0.291421	0.728198
	H356	H	0.497195	0.289003	0.738530
	O357	O	1.110707	1.148614	1.041460
	H358	H	1.137925	1.132472	1.054110
	H359	H	1.099809	1.143341	1.049012
	O360	O	0.446004	0.515092	0.425982
	H361	H	0.447618	0.511963	0.435596
	H362	H	0.440969	0.500070	0.412796
	O363	O	0.720575	0.524236	0.737079
	H364	H	0.724364	0.556008	0.729465
	H365	H	0.742680	0.542077	0.752838
	O366	O	1.106241	-0.099043	0.990362
	H367	H	1.117802	-0.101571	0.966905
	H368	H	1.114697	-0.091060	0.984714
	O369	O	-0.674132	0.452308	-0.475222
	H370	H	-0.668224	0.455480	-0.475763
	H371	H	-0.670836	0.473065	-0.493807
	O372	O	-0.096187	1.055402	0.015331
	H373	H	-0.083761	1.053571	0.008169
	H374	H	-0.090611	1.045952	0.004497
	O375	O	-0.010666	0.786316	1.240946
	H376	H	-0.029226	0.761065	1.258081
	H377	H	-0.043242	0.790587	1.234752
	O378	O	0.607381	0.491792	0.498929
	H379	H	0.609135	0.490916	0.493794
	H380	H	0.616673	0.482645	0.494373
	O381	O	0.860109	-0.186034	-0.126047
	H382	H	0.867036	-0.197099	-0.133016
	H383	H	0.861913	-0.161686	-0.120634
	O384	O	0.159579	-0.152987	2.119375
	H385	H	0.154812	-0.139315	2.113698
	H386	H	0.157892	-0.164273	2.109425
	O387	O	-0.119268	1.001126	1.139103
	H388	H	-0.118670	1.015726	1.129734
	H389	H	-0.124066	1.004791	1.149346
	O390	O	0.799045	0.942546	0.956645
	H391	H	0.808902	0.943234	0.946727
	H392	H	0.805236	0.939602	0.946175
	O393	O	1.303583	0.484934	0.731216
	H394	H	1.307918	0.473936	0.740187
	H395	H	1.291705	0.487221	0.741753
	O396	O	0.537141	0.289828	0.547238
	H397	H	0.520982	0.285952	0.547083
	H398	H	0.540156	0.295177	0.523541
	O399	O	0.451439	0.604235	0.698424
	H400	H	0.448614	0.591131	0.689102
	H401	H	0.455918	0.580733	0.689591
	O402	O	-0.181733	0.187921	0.832025
	H403	H	-0.134852	0.196146	0.824252
	H404	H	-0.184271	0.188933	0.864987
	O405	O	-0.021500	0.217249	-0.185808
	H406	H	-0.002076	0.224823	-0.190739
	H407	H	-0.000916	0.231842	-0.184496
	O408	O	0.275575	0.263140	0.243150
	H409	H	0.246493	0.275607	0.256543
	H410	H	0.282858	0.233357	0.257369
	O411	O	0.121586	1.042429	-0.039755
	H412	H	0.116958	1.022224	-0.021197
	H413	H	0.133360	1.050763	-0.027441
	O414	O	0.490660	0.704753	0.423874
	H415	H	0.475491	0.701056	0.415002
	H416	H	0.490803	0.689967	0.423439
	O417	O	1.028879	0.036732	0.797240
	H418	H	1.025493	0.043691	0.796467
	H419	H	1.025611	0.022557	0.800728
	O420	O	0.520447	0.289856	0.328942
	H421	H	0.541404	0.288101	0.313049
	H422	H	0.520033	0.277758	0.316335
	O423	O	-0.128395	1.209231	0.150692
	H424	H	-0.110215	1.207512	0.134525
	H425	H	-0.127183	1.200406	0.149894
	O426	O	1.023426	0.920133	0.929985
	H427	H	1.032732	0.919148	0.928388
	H428	H	1.021099	0.939498	0.918395
	O429	O	0.725038	0.725078	0.541230
	H430	H	0.720781	0.743923	0.546468
	H431	H	0.725879	0.749894	0.537479
	O432	O	0.388254	0.716584	0.545422
	H433	H	0.377901	0.724015	0.533010
	H434	H	0.398349	0.699572	0.541148
	O435	O	-0.035893	0.065549	0.244991
	H436	H	-0.049395	0.068211	0.253618
	H437	H	-0.045932	0.073851	0.226936
	O438	O	1.401505	0.345085	0.442128
	H439	H	1.402188	0.335402	0.432159
	H440	H	1.410985	0.355303	0.431267
	O441	O	-0.111360	-0.041815	0.084549
	H442	H	-0.111115	-0.034114	0.081400
	H443	H	-0.121345	-0.048942	0.076109
	O444	O	0.910555	-0.168911	0.044135
	H445	H	0.911521	-0.173546	0.037373
	H446	H	0.907760	-0.175217	0.028971
	O447	O	0.666550	0.504713	0.312441
	H448	H	0.678074	0.505978	0.304632
	H449	H	0.677550	0.512921	0.323634
	O450	O	0.460377	0.530076	0.495681
	H451	H	0.462592	0.541471	0.505786
	H452	H	0.461023	0.535562	0.487483
	O453	O	0.693619	0.687162	0.703963
	H454	H	0.646692	0.694071	0.706741
	H455	H	0.700107	0.703412	0.682896
	O456	O	0.493986	0.589824	0.320900
	H457	H	0.475913	0.606501	0.309001
	H458	H	0.486919	0.585535	0.296683
	O459	O	0.034659	0.224949	0.239248
	H460	H	0.027615	0.252589	0.261186
	H461	H	0.016093	0.219414	0.232946
	O462	O	1.177120	0.022798	-0.030751
	H463	H	1.170783	0.023840	-0.019947
	H464	H	1.172472	0.017420	-0.016377
	O465	O	1.199386	-0.196687	0.005062
	H466	H	1.202813	-0.214432	0.003916
	H467	H	1.206357	-0.207453	-0.020614
