data_Molecule from HDF5

_cell_length_a		16.315968
_cell_length_b		16.297830
_cell_length_c		16.340592
_cell_angle_alpha	89.982126
_cell_angle_beta	90.007789
_cell_angle_gamma	89.988182
_symmetry_space_group_name_H-M	'P 1'
_symmetry_Int_Tables_number		1

loop_
	_symmetry_equiv_pos_as_xyz
	x,y,z

loop_
	_atom_site_label
	_atom_site_type_symbol
	_atom_site_fract_x
	_atom_site_fract_y
	_atom_site_fract_z
	H0	H	0.407058	0.842738	0.711692
	H1	H	0.603252	0.170148	0.710826
	H2	H	0.604165	0.843342	0.281788
	H3	H	0.405688	0.169078	0.282236
	H4	H	0.719220	0.408161	0.833465
	H5	H	0.719059	0.604675	0.160365
	H6	H	0.290764	0.603975	0.833368
	H7	H	0.290662	0.408030	0.161515
	H8	H	0.841918	0.719516	0.399456
	H9	H	0.168424	0.719462	0.594882
	H10	H	0.841124	0.291405	0.594737
	H11	H	0.168430	0.291292	0.399140
	H12	H	0.841179	0.408454	0.710859
	H13	H	0.167969	0.604498	0.711658
	H14	H	0.841918	0.602975	0.283135
	H15	H	0.167825	0.405786	0.281751
	H16	H	0.408656	0.720043	0.833841
	H17	H	0.602525	0.721028	0.160030
	H18	H	0.601792	0.292206	0.833574
	H19	H	0.407603	0.291173	0.160692
	H20	H	0.719041	0.842450	0.399111
	H21	H	0.719933	0.169399	0.594784
	H22	H	0.291263	0.842024	0.594744
	H23	H	0.291490	0.169073	0.399566
	H24	H	0.905105	0.342793	0.213057
	H25	H	0.102737	0.669224	0.211540
	H26	H	0.103028	0.342444	0.782834
	H27	H	0.905255	0.669940	0.781833
	H28	H	0.219865	0.906933	0.333675
	H29	H	0.219778	0.103442	0.659978
	H30	H	0.791245	0.103650	0.332801
	H31	H	0.789441	0.906580	0.659320
	H32	H	0.341333	0.219714	0.900122
	H33	H	0.668334	0.220317	0.095504
	H34	H	0.341197	0.792938	0.093684
	H35	H	0.668367	0.790901	0.897858
	H36	H	0.341854	0.907405	0.211388
	H37	H	0.668472	0.102936	0.209553
	H38	H	0.341802	0.105179	0.782287
	H39	H	0.668148	0.906927	0.781146
	H40	H	0.907626	0.219670	0.333241
	H41	H	0.102943	0.219605	0.659744
	H42	H	0.103488	0.790536	0.333659
	H43	H	0.907403	0.791315	0.659741
	H44	H	0.219761	0.342630	0.898652
	H45	H	0.218240	0.670013	0.095057
	H46	H	0.790381	0.342234	0.095904
	H47	H	0.791295	0.669811	0.900079
	H48	H	0.408230	0.122822	0.589114
	H49	H	0.609096	0.885747	0.593273
	H50	H	0.599076	0.125670	0.393618
	H51	H	0.406096	0.886998	0.400969
	H52	H	0.598955	0.422660	0.110168
	H53	H	0.603994	0.596613	0.880074
	H54	H	0.413037	0.606057	0.114256
	H55	H	0.419515	0.418332	0.885549
	H56	H	0.118435	0.586788	0.403493
	H57	H	0.888441	0.600451	0.588381
	H58	H	0.122065	0.414934	0.596780
	H59	H	0.891675	0.414989	0.407622
	H60	H	0.122649	0.405271	0.590898
	H61	H	0.889247	0.596750	0.589845
	H62	H	0.126293	0.603288	0.393698
	H63	H	0.887513	0.414708	0.399140
	H64	H	0.404972	0.597746	0.114629
	H65	H	0.593741	0.595119	0.884023
	H66	H	0.589579	0.408044	0.111401
	H67	H	0.411770	0.402408	0.878697
	H68	H	0.590336	0.119565	0.406156
	H69	H	0.587609	0.891030	0.597497
	H70	H	0.413355	0.123945	0.594510
	H71	H	0.416913	0.889449	0.398446
	H72	H	0.915580	0.621396	0.093991
	H73	H	0.096666	0.392484	0.080964
	H74	H	0.097601	0.622956	0.901192
	H75	H	0.904083	0.388705	0.906348
	H76	H	0.098282	0.911631	0.613034
	H77	H	0.100579	0.098186	0.379780
	H78	H	0.916018	0.098009	0.610393
	H79	H	0.911271	0.916860	0.381806
	H80	H	0.620465	0.103881	0.910356
	H81	H	0.387696	0.102600	0.089633
	H82	H	0.618623	0.921765	0.088572
	H83	H	0.385170	0.907885	0.895212
	H84	H	0.624351	0.910450	0.098542
	H85	H	0.390674	0.096616	0.087844
	H86	H	0.618014	0.090913	0.904889
	H87	H	0.390302	0.909339	0.913014
	H88	H	0.910230	0.102421	0.613886
	H89	H	0.098105	0.096860	0.381917
	H90	H	0.099928	0.913815	0.612948
	H91	H	0.915526	0.910530	0.380789
	H92	H	0.094638	0.620546	0.905381
	H93	H	0.107161	0.386027	0.093014
	H94	H	0.913005	0.619965	0.086540
	H95	H	0.914194	0.388463	0.895623
	H96	H	0.415210	0.120624	0.588093
	H97	H	0.595649	0.894490	0.577058
	H98	H	0.606463	0.123235	0.408189
	H99	H	0.413151	0.891050	0.409418
	H100	H	0.606283	0.408034	0.116592
	H101	H	0.597167	0.605040	0.879233
	H102	H	0.414929	0.595515	0.110685
	H103	H	0.401420	0.417948	0.880630
	H104	H	0.120244	0.604982	0.413640
	H105	H	0.888292	0.599495	0.592349
	H106	H	0.119540	0.414262	0.586199
	H107	H	0.887615	0.407236	0.405120
	H108	H	0.908178	0.623277	0.092001
	H109	H	0.091072	0.389145	0.096868
	H110	H	0.099763	0.622336	0.906338
	H111	H	0.917769	0.393092	0.908780
	H112	H	0.097368	0.913441	0.611511
	H113	H	0.097460	0.099881	0.380053
	H114	H	0.909109	0.094556	0.612154
	H115	H	0.907777	0.910212	0.379381
	H116	H	0.624306	0.101243	0.897101
	H117	H	0.387559	0.097430	0.094045
	H118	H	0.621263	0.906482	0.083129
	H119	H	0.392114	0.923686	0.902229
	C120	C	0.383508	0.013986	0.618724
	C121	C	0.626513	0.997929	0.618202
	C122	C	0.626790	0.014658	0.374876
	C123	C	0.383830	0.997411	0.375062
	C124	C	0.626645	0.384430	0.005043
	C125	C	0.626278	0.627617	0.989029
	C126	C	0.382866	0.628057	0.005279
	C127	C	0.383015	0.384265	0.989457
	C128	C	0.013763	0.626773	0.375417
	C129	C	0.996561	0.627464	0.618629
	C130	C	0.012914	0.383569	0.619249
	C131	C	0.996799	0.383965	0.375587
	C132	C	0.883061	0.513883	0.119170
	C133	C	0.126330	0.497767	0.118710
	C134	C	0.126190	0.514104	0.875878
	C135	C	0.883502	0.498016	0.875488
	C136	C	0.127183	0.883865	0.505102
	C137	C	0.127159	0.126882	0.488144
	C138	C	0.883444	0.127248	0.504623
	C139	C	0.883291	0.883923	0.488346
	C140	C	0.513073	0.127651	0.875427
	C141	C	0.496822	0.127341	0.118485
	C142	C	0.513471	0.884566	0.118434
	C143	C	0.497145	0.885010	0.875147
	C144	C	0.386152	0.891363	0.673772
	C145	C	0.624199	0.120942	0.673413
	C146	C	0.624091	0.891504	0.320369
	C147	C	0.386045	0.120275	0.320275
	C148	C	0.681276	0.387552	0.882143
	C149	C	0.681298	0.625377	0.111586
	C150	C	0.328447	0.624948	0.882183
	C151	C	0.328101	0.386851	0.112337
	C152	C	0.890638	0.681679	0.378580
	C153	C	0.119433	0.682083	0.615800
	C154	C	0.889951	0.329197	0.615456
	C155	C	0.119755	0.328857	0.378190
	C156	C	0.889939	0.387353	0.673152
	C157	C	0.119324	0.624629	0.673456
	C158	C	0.890524	0.624019	0.320922
	C159	C	0.119375	0.385823	0.320004
	C160	C	0.386673	0.682633	0.882478
	C161	C	0.623307	0.683008	0.111535
	C162	C	0.622981	0.329973	0.882145
	C163	C	0.386167	0.328944	0.112113
	C164	C	0.681260	0.891269	0.378474
	C165	C	0.682162	0.120797	0.615836
	C166	C	0.328782	0.890978	0.615543
	C167	C	0.329025	0.120325	0.378356
	C168	C	0.884974	0.391149	0.174575
	C169	C	0.123687	0.620371	0.174051
	C170	C	0.123346	0.391049	0.820958
	C171	C	0.885138	0.620940	0.819886
	C172	C	0.181792	0.886661	0.382106
	C173	C	0.182102	0.124066	0.611216
	C174	C	0.828586	0.124699	0.381705
	C175	C	0.828534	0.886897	0.611036
	C176	C	0.390203	0.182393	0.878837
	C177	C	0.619474	0.182304	0.115646
	C178	C	0.390258	0.830030	0.115214
	C179	C	0.619898	0.829286	0.877614
	C180	C	0.390542	0.887051	0.173310
	C181	C	0.619664	0.124232	0.172557
	C182	C	0.390508	0.125498	0.820403
	C183	C	0.619663	0.886703	0.819469
	C184	C	0.886433	0.182086	0.381800
	C185	C	0.123931	0.181676	0.611052
	C186	C	0.124381	0.828395	0.382373
	C187	C	0.886732	0.829265	0.611118
	C188	C	0.181332	0.391246	0.878448
	C189	C	0.180956	0.620886	0.116063
	C190	C	0.827901	0.391090	0.116312
	C191	C	0.828504	0.620969	0.878622
	C192	C	0.405582	0.100217	0.596935
	C193	C	0.604113	0.912427	0.595751
	C194	C	0.604875	0.100441	0.396255
	C195	C	0.405627	0.911175	0.396639
	C196	C	0.604843	0.406319	0.090724
	C197	C	0.604680	0.605487	0.903306
	C198	C	0.404549	0.606202	0.091091
	C199	C	0.404637	0.406304	0.903822
	C200	C	0.099380	0.604725	0.397000
	C201	C	0.910646	0.605274	0.596707
	C202	C	0.099254	0.405176	0.597719
	C203	C	0.911160	0.405818	0.397577
	C204	C	0.905739	0.599536	0.097344
	C205	C	0.104637	0.411489	0.096682
	C206	C	0.103868	0.599860	0.897759
	C207	C	0.905782	0.412192	0.897246
	C208	C	0.105051	0.906437	0.590490
	C209	C	0.105193	0.104815	0.402622
	C210	C	0.905494	0.105016	0.589970
	C211	C	0.905086	0.905960	0.402885
	C212	C	0.598825	0.105166	0.897555
	C213	C	0.410671	0.105327	0.096970
	C214	C	0.599272	0.906327	0.096519
	C215	C	0.411419	0.907000	0.897279
	Zn216	Zn	0.505201	0.006275	0.747013
	Zn217	Zn	0.505314	0.005785	0.246684
	Zn218	Zn	0.755287	0.506406	-0.002616
	Zn219	Zn	0.254432	0.506264	-0.002431
	Zn220	Zn	0.005256	0.755254	0.496669
	Zn221	Zn	0.004937	0.255510	0.496465
	Zn222	Zn	0.004864	0.506300	0.747225
	Zn223	Zn	0.004929	0.505254	0.247074
	Zn224	Zn	0.504873	0.756703	-0.003099
	Zn225	Zn	0.504731	0.255552	-0.002835
	Zn226	Zn	0.754761	0.006305	0.496739
	Zn227	Zn	0.255848	0.005641	0.496406
	N228	N	0.419356	0.968873	0.675902
	N229	N	0.590449	0.043514	0.674955
	N230	N	0.590861	0.968987	0.318111
	N231	N	0.419529	0.042796	0.318288
	N232	N	0.683678	0.420691	0.959566
	N233	N	0.683021	0.591458	0.034511
	N234	N	0.326021	0.591824	0.959631
	N235	N	0.326093	0.420789	0.035168
	N236	N	0.968251	0.683614	0.411629
	N237	N	0.042157	0.683620	0.582224
	N238	N	0.967715	0.326538	0.582968
	N239	N	0.042488	0.327525	0.411958
	N240	N	0.967424	0.420391	0.675461
	N241	N	0.041765	0.591342	0.675358
	N242	N	0.967970	0.590649	0.318853
	N243	N	0.042154	0.419537	0.318384
	N244	N	0.419967	0.684374	0.959708
	N245	N	0.589937	0.684627	0.034204
	N246	N	0.589775	0.327968	0.959454
	N247	N	0.419409	0.327303	0.034771
	N248	N	0.682862	0.968759	0.411815
	N249	N	0.683741	0.043466	0.582379
	N250	N	0.327362	0.968456	0.581956
	N251	N	0.327766	0.042962	0.411812
	N252	N	0.918587	0.468513	0.176521
	N253	N	0.090267	0.542734	0.175545
	N254	N	0.089875	0.468584	0.819126
	N255	N	0.918727	0.543506	0.818025
	N256	N	0.183771	0.920299	0.459332
	N257	N	0.184074	0.090724	0.533878
	N258	N	0.826706	0.091041	0.459020
	N259	N	0.825964	0.920069	0.533668
	N260	N	0.467443	0.183612	0.912443
	N261	N	0.541921	0.184195	0.082780
	N262	N	0.467648	0.828494	0.081772
	N263	N	0.542723	0.828176	0.911487
	N264	N	0.468063	0.920210	0.175521
	N265	N	0.542290	0.090665	0.174386
	N266	N	0.468035	0.092290	0.818157
	N267	N	0.542361	0.920466	0.817705
	N268	N	0.919862	0.183760	0.458987
	N269	N	0.090354	0.183483	0.533841
	N270	N	0.091072	0.826593	0.459713
	N271	N	0.920276	0.827606	0.533898
	N272	N	0.183069	0.468580	0.912034
	N273	N	0.182647	0.543589	0.082426
	N274	N	0.826678	0.468394	0.082618
	N275	N	0.827269	0.543623	0.912362
	O276	O	0.953992	-0.007971	0.893138
	H277	H	0.947863	-0.012557	0.890117
	H278	H	0.944807	-0.012947	0.890950
	O279	O	-0.050974	0.035596	0.906125
	H280	H	-0.048747	0.038435	0.905284
	H281	H	-0.057686	0.027866	0.906413
	O282	O	0.924692	1.029590	-0.093006
	H283	H	0.921463	1.042177	-0.096393
	H284	H	0.927579	1.036485	-0.094351
	O285	O	-0.073712	0.005438	0.903590
	H286	H	-0.071834	0.001727	0.900319
	H287	H	-0.066428	0.005037	0.903777
