data_Molecule from HDF5

_cell_length_a		16.380106
_cell_length_b		16.209677
_cell_length_c		16.217651
_cell_angle_alpha	89.656982
_cell_angle_beta	90.374405
_cell_angle_gamma	90.107073
_symmetry_space_group_name_H-M	'P 1'
_symmetry_Int_Tables_number		1

loop_
	_symmetry_equiv_pos_as_xyz
	x,y,z

loop_
	_atom_site_label
	_atom_site_type_symbol
	_atom_site_fract_x
	_atom_site_fract_y
	_atom_site_fract_z
	H0	H	0.406509	0.836619	0.714947
	H1	H	0.602932	0.166003	0.713331
	H2	H	0.599934	0.835913	0.289752
	H3	H	0.405299	0.165490	0.285248
	H4	H	0.717033	0.403427	0.836031
	H5	H	0.721827	0.601632	0.162629
	H6	H	0.286280	0.602544	0.837609
	H7	H	0.286821	0.396239	0.163857
	H8	H	0.839439	0.714996	0.399327
	H9	H	0.164203	0.716267	0.600821
	H10	H	0.839418	0.283999	0.599083
	H11	H	0.165504	0.286258	0.404257
	H12	H	0.838820	0.400577	0.714966
	H13	H	0.164482	0.598551	0.714942
	H14	H	0.840103	0.598568	0.284006
	H15	H	0.165511	0.400418	0.286197
	H16	H	0.405348	0.714292	0.836394
	H17	H	0.602481	0.712178	0.165281
	H18	H	0.599669	0.289785	0.834863
	H19	H	0.406710	0.285155	0.164529
	H20	H	0.717264	0.836689	0.402375
	H21	H	0.720542	0.164412	0.600157
	H22	H	0.287373	0.837445	0.602923
	H23	H	0.285121	0.163894	0.396756
	H24	H	0.905095	0.336614	0.214458
	H25	H	0.102230	0.664937	0.214061
	H26	H	0.098583	0.335635	0.789123
	H27	H	0.905183	0.665454	0.785700
	H28	H	0.217765	0.901056	0.337256
	H29	H	0.220312	0.100323	0.664117
	H30	H	0.787003	0.101255	0.337606
	H31	H	0.788870	0.897679	0.664019
	H32	H	0.340762	0.216389	0.899624
	H33	H	0.666593	0.215373	0.099017
	H34	H	0.340801	0.783973	0.099409
	H35	H	0.666598	0.787188	0.904882
	H36	H	0.340295	0.900836	0.215161
	H37	H	0.666432	0.099034	0.216153
	H38	H	0.341119	0.100486	0.783214
	H39	H	0.666893	0.903884	0.788716
	H40	H	0.903511	0.215104	0.336334
	H41	H	0.101467	0.212834	0.665216
	H42	H	0.099520	0.787698	0.335839
	H43	H	0.907294	0.786499	0.664691
	H44	H	0.217950	0.337106	0.901434
	H45	H	0.220085	0.663676	0.101167
	H46	H	0.787037	0.337519	0.101083
	H47	H	0.788625	0.664985	0.898585
	H48	H	0.406972	0.115820	0.583053
	H49	H	0.599746	0.881074	0.601214
	H50	H	0.590303	0.117445	0.405391
	H51	H	0.401560	0.882203	0.408345
	H52	H	0.601402	0.401825	0.120631
	H53	H	0.598988	0.583511	0.884735
	H54	H	0.404733	0.589424	0.119313
	H55	H	0.409563	0.411214	0.884496
	H56	H	0.119025	0.599042	0.411091
	H57	H	0.883192	0.601368	0.592777
	H58	H	0.119658	0.404999	0.600744
	H59	H	0.889628	0.406931	0.414225
	H60	H	0.117553	0.403215	0.590644
	H61	H	0.888925	0.590402	0.585935
	H62	H	0.115859	0.589750	0.410339
	H63	H	0.887617	0.413282	0.402686
	H64	H	0.414911	0.587763	0.114676
	H65	H	0.585940	0.597875	0.884824
	H66	H	0.601182	0.416384	0.115436
	H67	H	0.409796	0.409123	0.883381
	H68	H	0.596366	0.115776	0.415181
	H69	H	0.591048	0.886002	0.594248
	H70	H	0.407776	0.120541	0.596569
	H71	H	0.412856	0.882735	0.402079
	H72	H	0.910161	0.619344	0.092917
	H73	H	0.089354	0.386517	0.091048
	H74	H	0.094377	0.615670	0.913361
	H75	H	0.900739	0.380529	0.905210
	H76	H	0.107602	0.907981	0.620750
	H77	H	0.095672	0.091098	0.385550
	H78	H	0.915084	0.086263	0.614869
	H79	H	0.902097	0.921565	0.385270
	H80	H	0.621106	0.107536	0.913014
	H81	H	0.387627	0.094566	0.092363
	H82	H	0.616994	0.909932	0.092624
	H83	H	0.388140	0.909194	0.907078
	H84	H	0.620233	0.908125	0.101515
	H85	H	0.389612	0.091382	0.089219
	H86	H	0.614142	0.084601	0.914477
	H87	H	0.387312	0.906471	0.905728
	H88	H	0.913558	0.098451	0.619748
	H89	H	0.092670	0.093148	0.384497
	H90	H	0.091877	0.918466	0.612098
	H91	H	0.921471	0.907809	0.385971
	H92	H	0.102490	0.620018	0.906229
	H93	H	0.099393	0.383656	0.088273
	H94	H	0.913538	0.616322	0.091722
	H95	H	0.914340	0.383409	0.902850
	H96	H	0.419597	0.115379	0.590539
	H97	H	0.601713	0.883689	0.589968
	H98	H	0.601298	0.119884	0.406361
	H99	H	0.412076	0.887339	0.415037
	H100	H	0.588843	0.408110	0.114132
	H101	H	0.604210	0.601770	0.878913
	H102	H	0.411736	0.597780	0.119820
	H103	H	0.407660	0.410596	0.884387
	H104	H	0.119961	0.593609	0.403103
	H105	H	0.885577	0.588823	0.599758
	H106	H	0.115867	0.413102	0.595005
	H107	H	0.884259	0.401185	0.403868
	H108	H	0.910087	0.617359	0.088622
	H109	H	0.095891	0.382136	0.098885
	H110	H	0.091843	0.618164	0.902086
	H111	H	0.909060	0.386650	0.915353
	H112	H	0.089388	0.898651	0.618041
	H113	H	0.095961	0.094537	0.383437
	H114	H	0.903651	0.089572	0.619426
	H115	H	0.901360	0.898158	0.378201
	H116	H	0.622743	0.093442	0.893989
	H117	H	0.388483	0.090417	0.093328
	H118	H	0.620605	0.901255	0.094444
	H119	H	0.388250	0.907086	0.908881
	C120	C	0.382832	0.009199	0.620580
	C121	C	0.626354	0.992222	0.623355
	C122	C	0.624018	0.008921	0.380556
	C123	C	0.380301	0.992408	0.378376
	C124	C	0.624613	0.380281	0.008296
	C125	C	0.625399	0.622453	0.991620
	C126	C	0.381509	0.621553	0.009510
	C127	C	0.381196	0.379398	0.992180
	C128	C	0.010771	0.622435	0.378704
	C129	C	0.993316	0.622196	0.621836
	C130	C	0.010438	0.377489	0.623805
	C131	C	0.994409	0.378363	0.378713
	C132	C	0.881782	0.509613	0.121260
	C133	C	0.124708	0.492249	0.122022
	C134	C	0.123963	0.509153	0.879399
	C135	C	0.880650	0.492313	0.878374
	C136	C	0.124342	0.879049	0.509000
	C137	C	0.124501	0.121831	0.492238
	C138	C	0.881488	0.121208	0.509342
	C139	C	0.881037	0.879105	0.491755
	C140	C	0.511851	0.123920	0.877698
	C141	C	0.495861	0.121866	0.121548
	C142	C	0.511774	0.877446	0.123909
	C143	C	0.495444	0.879402	0.879538
	C144	C	0.385342	0.885809	0.677379
	C145	C	0.623606	0.116369	0.676636
	C146	C	0.620736	0.885406	0.326420
	C147	C	0.383867	0.116237	0.322762
	C148	C	0.679210	0.382880	0.884794
	C149	C	0.682333	0.621031	0.114491
	C150	C	0.324901	0.621791	0.886434
	C151	C	0.325654	0.378466	0.115142
	C152	C	0.888213	0.677353	0.379621
	C153	C	0.115680	0.677669	0.620438
	C154	C	0.887932	0.322197	0.619794
	C155	C	0.116961	0.323703	0.382663
	C156	C	0.887834	0.380259	0.677552
	C157	C	0.115719	0.619580	0.677648
	C158	C	0.888560	0.619605	0.322001
	C159	C	0.116711	0.380471	0.323805
	C160	C	0.384273	0.677093	0.885692
	C161	C	0.622943	0.675931	0.115627
	C162	C	0.620902	0.326304	0.884456
	C163	C	0.384957	0.322897	0.115525
	C164	C	0.679067	0.885743	0.382547
	C165	C	0.682383	0.115575	0.620599
	C166	C	0.326084	0.886090	0.621568
	C167	C	0.324547	0.115489	0.378637
	C168	C	0.884317	0.385868	0.176788
	C169	C	0.122725	0.615718	0.176767
	C170	C	0.120006	0.385097	0.825950
	C171	C	0.884115	0.616032	0.822870
	C172	C	0.179762	0.880852	0.385918
	C173	C	0.181478	0.120149	0.615334
	C174	C	0.825569	0.120451	0.386186
	C175	C	0.826950	0.879283	0.615246
	C176	C	0.389523	0.178831	0.879124
	C177	C	0.617902	0.177591	0.119759
	C178	C	0.389150	0.822157	0.120247
	C179	C	0.617788	0.824514	0.883265
	C180	C	0.389137	0.880208	0.177762
	C181	C	0.617860	0.119916	0.178025
	C182	C	0.389698	0.121077	0.821457
	C183	C	0.618010	0.882729	0.825841
	C184	C	0.883741	0.176997	0.385520
	C185	C	0.122736	0.176327	0.615959
	C186	C	0.120843	0.824708	0.385209
	C187	C	0.885557	0.823445	0.615299
	C188	C	0.179166	0.385715	0.881909
	C189	C	0.181236	0.615018	0.120538
	C190	C	0.826011	0.386223	0.120067
	C191	C	0.826215	0.615963	0.879206
	C192	C	0.404886	0.094942	0.596903
	C193	C	0.603956	0.905993	0.601651
	C194	C	0.602352	0.095388	0.402669
	C195	C	0.402304	0.906416	0.401762
	C196	C	0.603426	0.402247	0.094459
	C197	C	0.602991	0.600824	0.905171
	C198	C	0.404059	0.598415	0.095569
	C199	C	0.402879	0.403360	0.906163
	C200	C	0.096083	0.600594	0.401596
	C201	C	0.908041	0.600053	0.599209
	C202	C	0.095796	0.400215	0.601724
	C203	C	0.909120	0.400550	0.400516
	C204	C	0.904420	0.595527	0.097789
	C205	C	0.101666	0.406205	0.099582
	C206	C	0.102511	0.595626	0.901015
	C207	C	0.901734	0.405778	0.901264
	C208	C	0.102672	0.901588	0.594726
	C209	C	0.101543	0.099601	0.406782
	C210	C	0.904122	0.098042	0.595676
	C211	C	0.901992	0.902401	0.405337
	C212	C	0.597318	0.101689	0.900577
	C213	C	0.410603	0.098971	0.098254
	C214	C	0.597097	0.899707	0.102467
	C215	C	0.410045	0.901229	0.900895
	Zn216	Zn	0.503926	0.001226	0.750139
	Zn217	Zn	0.503046	0.000864	0.251740
	Zn218	Zn	0.753350	0.501614	-0.000590
	Zn219	Zn	0.252861	0.500701	0.000563
	Zn220	Zn	0.001983	0.750979	0.499989
	Zn221	Zn	0.002573	0.249402	0.500960
	Zn222	Zn	0.001212	0.500636	0.751114
	Zn223	Zn	0.003278	0.500778	0.249870
	Zn224	Zn	0.503245	0.749228	0.000938
	Zn225	Zn	0.503435	0.251915	0.000086
	Zn226	Zn	0.753195	0.000145	0.500873
	Zn227	Zn	0.253000	0.000475	0.500470
	N228	N	0.419984	0.963290	0.676936
	N229	N	0.589566	0.038685	0.678438
	N230	N	0.587034	0.963061	0.325194
	N231	N	0.417645	0.038729	0.322317
	N232	N	0.681750	0.415851	0.962751
	N233	N	0.684155	0.588693	0.036229
	N234	N	0.323159	0.587853	0.964352
	N235	N	0.323143	0.412819	0.037267
	N236	N	0.965223	0.679184	0.414107
	N237	N	0.038776	0.679476	0.586404
	N238	N	0.965326	0.320330	0.587077
	N239	N	0.040135	0.322242	0.416034
	N240	N	0.965008	0.413757	0.680058
	N241	N	0.038618	0.585712	0.678525
	N242	N	0.965624	0.586115	0.321310
	N243	N	0.039479	0.413986	0.321319
	N244	N	0.418732	0.677264	0.963348
	N245	N	0.588275	0.676991	0.038114
	N246	N	0.587739	0.324549	0.962160
	N247	N	0.418597	0.323220	0.038062
	N248	N	0.681121	0.963686	0.415641
	N249	N	0.684359	0.037327	0.588186
	N250	N	0.324521	0.963632	0.586675
	N251	N	0.322095	0.037273	0.412221
	N252	N	0.918387	0.463445	0.177545
	N253	N	0.088339	0.538206	0.177801
	N254	N	0.086524	0.462837	0.824079
	N255	N	0.917306	0.538153	0.822580
	N256	N	0.182211	0.913964	0.463783
	N257	N	0.182897	0.087101	0.537469
	N258	N	0.824135	0.086604	0.464188
	N259	N	0.823997	0.913201	0.537251
	N260	N	0.466625	0.180651	0.913399
	N261	N	0.540833	0.178791	0.085356
	N262	N	0.466282	0.820060	0.087728
	N263	N	0.540720	0.822477	0.916219
	N264	N	0.466472	0.913803	0.180422
	N265	N	0.540871	0.085941	0.179146
	N266	N	0.466806	0.087884	0.820354
	N267	N	0.540940	0.916154	0.823495
	N268	N	0.918049	0.177462	0.463212
	N269	N	0.087936	0.177555	0.538679
	N270	N	0.087315	0.823225	0.462736
	N271	N	0.918544	0.823461	0.537456
	N272	N	0.181744	0.463900	0.914446
	N273	N	0.182651	0.537173	0.087269
	N274	N	0.824253	0.464255	0.086192
	N275	N	0.824083	0.537888	0.913148
	O276	O	0.034468	0.032097	-0.067163
	H277	H	0.025404	0.027565	-0.066396
	H278	H	0.038311	0.031933	-0.063166
	O279	O	0.554184	0.473764	0.422392
	H280	H	0.560566	0.484749	0.422856
	H281	H	0.553498	0.462284	0.424712
	O282	O	0.550181	0.482636	0.473647
	H283	H	0.556487	0.486620	0.469702
	H284	H	0.535300	0.487461	0.465701
	O285	O	1.062640	-0.006261	1.076268
	H286	H	1.055015	0.000349	1.069139
	H287	H	1.061299	-0.000402	1.063860
	O288	O	1.066919	0.083855	0.021689
	H289	H	1.074046	0.081512	0.024462
	H290	H	1.068631	0.094949	0.015155
	O291	O	0.483612	0.482953	0.531353
	H292	H	0.480141	0.478001	0.531313
	H293	H	0.491413	0.488348	0.536014
	O294	O	0.977294	-0.030130	1.004544
	H295	H	0.961625	-0.037282	0.999422
	H296	H	0.975287	-0.025415	1.008552
	O297	O	-0.021505	-0.012478	0.070796
	H298	H	-0.022044	-0.009148	0.071148
	H299	H	-0.024465	-0.018179	0.069910
	O300	O	0.481151	0.436552	0.537988
	H301	H	0.474778	0.435913	0.539837
	H302	H	0.478369	0.439015	0.534323
	O303	O	0.438958	0.518637	0.390553
	H304	H	0.436280	0.524407	0.387664
	H305	H	0.447374	0.511384	0.401380
	O306	O	1.007898	0.001228	-0.027774
	H307	H	1.003006	0.000220	-0.020486
	H308	H	1.007025	0.002651	-0.016381
	O309	O	-0.005947	-0.055377	0.962656
	H310	H	0.004383	-0.070065	0.964095
	H311	H	-0.009656	-0.058360	0.969538
	O312	O	0.978532	1.019980	1.023019
	H313	H	0.978613	1.018938	1.023327
	H314	H	0.981038	1.032807	1.030516
	O315	O	0.498220	0.408027	0.442921
	H316	H	0.496007	0.401520	0.440151
	H317	H	0.489071	0.419030	0.438629
	O318	O	0.463573	0.534038	0.451654
	H319	H	0.459440	0.536064	0.444230
	H320	H	0.446424	0.538492	0.452296
	O321	O	0.075321	1.032108	0.940461
	H322	H	0.074032	1.038118	0.948752
	H323	H	0.069577	1.032515	0.939879
	O324	O	0.428608	0.581598	0.442922
	H325	H	0.430456	0.578269	0.455991
	H326	H	0.421707	0.574784	0.447635
	O327	O	0.990264	1.044504	0.016274
	H328	H	0.980689	1.043460	0.011988
	H329	H	0.992796	1.034473	0.008898
	O330	O	0.437992	0.495287	0.441003
	H331	H	0.433953	0.497673	0.431417
	H332	H	0.441126	0.489241	0.437160
	O333	O	0.484916	0.542937	0.576524
	H334	H	0.492507	0.540991	0.586226
	H335	H	0.487213	0.533806	0.572667
	O336	O	0.491285	0.504091	0.580753
	H337	H	0.493375	0.509708	0.581311
	H338	H	0.497670	0.500015	0.572681
	O339	O	1.073426	0.932111	0.062205
	H340	H	1.077884	0.929753	0.077907
	H341	H	1.076535	0.930064	0.063596
	O342	O	0.450813	0.545160	0.525819
	H343	H	0.448754	0.555920	0.524842
	H344	H	0.452265	0.548084	0.533430
	O345	O	0.427964	0.539924	0.512651
	H346	H	0.424582	0.536018	0.515951
	H347	H	0.429039	0.540324	0.514124
	O348	O	-0.044274	0.102966	0.001513
	H349	H	-0.039317	0.109794	-0.008127
	H350	H	-0.043120	0.102746	0.005633
	O351	O	-0.056937	0.979976	0.938162
	H352	H	-0.059537	0.984142	0.932893
	H353	H	-0.052040	0.980515	0.934983
	O354	O	0.526695	0.497576	0.479549
	H355	H	0.530475	0.493483	0.487541
	H356	H	0.519121	0.491604	0.486530
	O357	O	0.044709	1.058343	1.038267
	H358	H	0.042229	1.059905	1.051031
	H359	H	0.060747	1.063274	1.032138
