data_Molecule from HDF5

_cell_length_a		16.291835
_cell_length_b		16.268645
_cell_length_c		16.266434
_cell_angle_alpha	89.695920
_cell_angle_beta	89.952059
_cell_angle_gamma	90.046596
_symmetry_space_group_name_H-M	'P 1'
_symmetry_Int_Tables_number		1

loop_
	_symmetry_equiv_pos_as_xyz
	x,y,z

loop_
	_atom_site_label
	_atom_site_type_symbol
	_atom_site_fract_x
	_atom_site_fract_y
	_atom_site_fract_z
	H0	H	0.400007	0.830035	0.704757
	H1	H	0.600438	0.155792	0.702465
	H2	H	0.599496	0.828906	0.274435
	H3	H	0.402032	0.156719	0.272519
	H4	H	0.714606	0.395730	0.825182
	H5	H	0.714930	0.592838	0.152222
	H6	H	0.284095	0.592703	0.825211
	H7	H	0.285185	0.393527	0.152304
	H8	H	0.836320	0.709982	0.388196
	H9	H	0.163302	0.707144	0.587723
	H10	H	0.836217	0.276990	0.589513
	H11	H	0.163492	0.279818	0.391402
	H12	H	0.835882	0.393057	0.704530
	H13	H	0.162639	0.591465	0.703561
	H14	H	0.836343	0.593343	0.272295
	H15	H	0.162640	0.393801	0.273643
	H16	H	0.401417	0.707607	0.824546
	H17	H	0.597838	0.707024	0.151744
	H18	H	0.597620	0.281169	0.823859
	H19	H	0.399827	0.276552	0.150975
	H20	H	0.715980	0.830472	0.388455
	H21	H	0.713935	0.157252	0.584954
	H22	H	0.285609	0.830232	0.588369
	H23	H	0.285841	0.156764	0.387928
	H24	H	0.900018	0.329258	0.204665
	H25	H	0.098030	0.656837	0.202781
	H26	H	0.096236	0.329468	0.776400
	H27	H	0.899669	0.657262	0.773579
	H28	H	0.215303	0.894298	0.324662
	H29	H	0.216441	0.091736	0.651904
	H30	H	0.785888	0.094445	0.324963
	H31	H	0.784379	0.893591	0.651968
	H32	H	0.336614	0.209495	0.886831
	H33	H	0.662414	0.208627	0.085751
	H34	H	0.335964	0.777469	0.089086
	H35	H	0.663042	0.778603	0.889426
	H36	H	0.336503	0.893815	0.203909
	H37	H	0.663663	0.091921	0.200804
	H38	H	0.336639	0.091956	0.772331
	H39	H	0.663233	0.895071	0.773812
	H40	H	0.902967	0.208804	0.325540
	H41	H	0.097833	0.205182	0.653602
	H42	H	0.099057	0.778818	0.325205
	H43	H	0.900886	0.777311	0.652332
	H44	H	0.213086	0.329843	0.890806
	H45	H	0.213640	0.655989	0.087755
	H46	H	0.784596	0.329024	0.088377
	H47	H	0.785942	0.657605	0.891248
	H48	H	0.409769	0.109819	0.581393
	H49	H	0.590042	0.872828	0.596670
	H50	H	0.585271	0.110003	0.383660
	H51	H	0.401253	0.875052	0.394719
	H52	H	0.589495	0.398339	0.104385
	H53	H	0.595566	0.583376	0.872876
	H54	H	0.400148	0.595878	0.109843
	H55	H	0.405749	0.400780	0.871648
	H56	H	0.114270	0.583118	0.395855
	H57	H	0.886041	0.580569	0.577449
	H58	H	0.115792	0.397680	0.580418
	H59	H	0.882744	0.398348	0.397571
	H60	H	0.114839	0.402852	0.583575
	H61	H	0.881808	0.585139	0.587507
	H62	H	0.115783	0.586520	0.394187
	H63	H	0.884314	0.401923	0.399280
	H64	H	0.399628	0.574049	0.104085
	H65	H	0.588490	0.585355	0.873427
	H66	H	0.594034	0.398656	0.105866
	H67	H	0.404780	0.401621	0.871250
	H68	H	0.588951	0.105154	0.405245
	H69	H	0.580584	0.882727	0.572002
	H70	H	0.409810	0.109082	0.577464
	H71	H	0.411095	0.875871	0.391575
	H72	H	0.909774	0.608938	0.081179
	H73	H	0.093437	0.376266	0.082131
	H74	H	0.084159	0.608535	0.892838
	H75	H	0.905055	0.378427	0.900653
	H76	H	0.085433	0.895446	0.604180
	H77	H	0.094789	0.083749	0.372796
	H78	H	0.901332	0.074749	0.603831
	H79	H	0.914471	0.899003	0.374060
	H80	H	0.614632	0.090599	0.902795
	H81	H	0.381605	0.090788	0.079814
	H82	H	0.617698	0.897962	0.084820
	H83	H	0.384741	0.906572	0.894817
	H84	H	0.615435	0.896342	0.076936
	H85	H	0.384928	0.082288	0.075773
	H86	H	0.614894	0.079092	0.893288
	H87	H	0.380858	0.897497	0.891661
	H88	H	0.917279	0.086803	0.602959
	H89	H	0.090792	0.086991	0.374066
	H90	H	0.100270	0.895728	0.608000
	H91	H	0.902774	0.897495	0.370016
	H92	H	0.093949	0.608564	0.903216
	H93	H	0.090997	0.376316	0.083713
	H94	H	0.904865	0.608651	0.077846
	H95	H	0.903374	0.375426	0.893972
	H96	H	0.405950	0.110452	0.578711
	H97	H	0.606318	0.874461	0.574195
	H98	H	0.605542	0.113567	0.392725
	H99	H	0.408768	0.878850	0.401432
	H100	H	0.591299	0.402319	0.104926
	H101	H	0.593539	0.590148	0.870195
	H102	H	0.418385	0.585935	0.101317
	H103	H	0.406220	0.401587	0.871497
	H104	H	0.115133	0.586527	0.398340
	H105	H	0.881663	0.591597	0.577487
	H106	H	0.117305	0.398089	0.586689
	H107	H	0.883653	0.402366	0.394947
	H108	H	0.904331	0.610340	0.083462
	H109	H	0.091439	0.377242	0.081273
	H110	H	0.097551	0.613045	0.889942
	H111	H	0.909754	0.377980	0.896309
	H112	H	0.093484	0.908652	0.602275
	H113	H	0.095265	0.089233	0.371614
	H114	H	0.900112	0.094187	0.609862
	H115	H	0.906407	0.908474	0.374925
	H116	H	0.619429	0.093264	0.888213
	H117	H	0.383005	0.082538	0.085724
	H118	H	0.614213	0.903679	0.080033
	H119	H	0.384318	0.897930	0.900890
	C120	C	0.378918	0.001999	0.609276
	C121	C	0.621060	0.984893	0.609016
	C122	C	0.622038	0.001504	0.365666
	C123	C	0.378537	0.984677	0.366389
	C124	C	0.620521	0.372290	-0.003427
	C125	C	0.621252	0.614999	0.980225
	C126	C	0.377289	0.614548	-0.002968
	C127	C	0.377257	0.371785	0.979766
	C128	C	0.007517	0.614804	0.366825
	C129	C	0.991191	0.614321	0.609933
	C130	C	0.007810	0.370834	0.611906
	C131	C	0.991397	0.372053	0.368234
	C132	C	0.877364	0.501313	0.110438
	C133	C	0.120728	0.484566	0.110679
	C134	C	0.120251	0.502006	0.867644
	C135	C	0.877136	0.484947	0.867098
	C136	C	0.122045	0.871520	0.496775
	C137	C	0.122273	0.115058	0.480633
	C138	C	0.878254	0.114630	0.497282
	C139	C	0.878591	0.871788	0.480545
	C140	C	0.508562	0.116175	0.865123
	C141	C	0.491105	0.114400	0.109086
	C142	C	0.508010	0.870606	0.110399
	C143	C	0.491414	0.872306	0.867099
	C144	C	0.380450	0.878942	0.666020
	C145	C	0.619801	0.107554	0.664132
	C146	C	0.619846	0.878349	0.311308
	C147	C	0.381552	0.107958	0.310685
	C148	C	0.676459	0.374841	0.873818
	C149	C	0.676764	0.612574	0.103129
	C150	C	0.322014	0.612939	0.873934
	C151	C	0.322523	0.373278	0.103146
	C152	C	0.885195	0.671648	0.368133
	C153	C	0.114715	0.668849	0.607474
	C154	C	0.885077	0.315114	0.609543
	C155	C	0.114546	0.317275	0.370847
	C156	C	0.884727	0.372905	0.666758
	C157	C	0.113861	0.612135	0.665887
	C158	C	0.885022	0.613570	0.310595
	C159	C	0.114078	0.373937	0.312222
	C160	C	0.380223	0.670005	0.873533
	C161	C	0.618737	0.669488	0.103050
	C162	C	0.618258	0.318055	0.873271
	C163	C	0.379816	0.315262	0.102584
	C164	C	0.677742	0.878882	0.368252
	C165	C	0.676625	0.108128	0.606088
	C166	C	0.323341	0.878980	0.608460
	C167	C	0.323636	0.107903	0.367900
	C168	C	0.879603	0.378174	0.166570
	C169	C	0.118237	0.607700	0.165494
	C170	C	0.117215	0.378425	0.813752
	C171	C	0.879690	0.608350	0.811617
	C172	C	0.177353	0.874177	0.373755
	C173	C	0.177821	0.112166	0.603543
	C174	C	0.823704	0.114029	0.373920
	C175	C	0.822292	0.873212	0.603207
	C176	C	0.385625	0.171603	0.866732
	C177	C	0.613938	0.170226	0.106182
	C178	C	0.384847	0.815659	0.108751
	C179	C	0.614254	0.816619	0.869250
	C180	C	0.385333	0.873135	0.166047
	C181	C	0.614386	0.112344	0.163618
	C182	C	0.385662	0.113240	0.809870
	C183	C	0.614495	0.874842	0.812012
	C184	C	0.881862	0.171015	0.374335
	C185	C	0.119328	0.168779	0.604148
	C186	C	0.119539	0.816815	0.373822
	C187	C	0.880360	0.815698	0.603580
	C188	C	0.175303	0.378656	0.870596
	C189	C	0.176012	0.607403	0.108585
	C190	C	0.822262	0.377928	0.108891
	C191	C	0.823184	0.608728	0.870080
	C192	C	0.401838	0.087603	0.585961
	C193	C	0.598873	0.899014	0.587163
	C194	C	0.599665	0.087395	0.387544
	C195	C	0.400502	0.898826	0.389134
	C196	C	0.598171	0.393594	0.082734
	C197	C	0.599095	0.592709	0.894432
	C198	C	0.399581	0.591988	0.083027
	C199	C	0.399024	0.394739	0.893661
	C200	C	0.093006	0.592072	0.389552
	C201	C	0.905363	0.592379	0.587346
	C202	C	0.093847	0.393156	0.590038
	C203	C	0.905721	0.394226	0.390765
	C204	C	0.899782	0.587122	0.087389
	C205	C	0.098507	0.398665	0.088596
	C206	C	0.098412	0.587865	0.889078
	C207	C	0.899509	0.399356	0.890217
	C208	C	0.099688	0.893571	0.582660
	C209	C	0.100060	0.093078	0.395022
	C210	C	0.899752	0.091919	0.583408
	C211	C	0.901348	0.894936	0.394938
	C212	C	0.594195	0.094110	0.888004
	C213	C	0.405441	0.091698	0.086995
	C214	C	0.593569	0.892815	0.087427
	C215	C	0.405453	0.894386	0.889266
	Zn216	Zn	0.499938	-0.006519	0.737661
	Zn217	Zn	0.500118	-0.007142	0.237917
	Zn218	Zn	0.749153	0.493046	-0.011059
	Zn219	Zn	0.248926	0.493259	-0.010778
	Zn220	Zn	0.000306	0.743384	0.488918
	Zn221	Zn	-0.000056	0.243061	0.489639
	Zn222	Zn	-0.001211	0.493457	0.738948
	Zn223	Zn	-0.000739	0.492825	0.238604
	Zn224	Zn	0.499128	0.743089	-0.011689
	Zn225	Zn	0.499081	0.243306	-0.012476
	Zn226	Zn	0.749789	-0.006680	0.488052
	Zn227	Zn	0.250556	-0.006261	0.488464
	N228	N	0.414282	0.956586	0.666754
	N229	N	0.586289	0.030098	0.666300
	N230	N	0.585929	0.955713	0.309709
	N231	N	0.414867	0.030277	0.309490
	N232	N	0.678184	0.407699	0.951494
	N233	N	0.678318	0.579248	0.025552
	N234	N	0.320157	0.579230	0.951598
	N235	N	0.321049	0.407715	0.025807
	N236	N	0.962412	0.672401	0.402635
	N237	N	0.037403	0.670463	0.573602
	N238	N	0.962688	0.313642	0.576025
	N239	N	0.037217	0.315910	0.404888
	N240	N	0.962118	0.406850	0.668296
	N241	N	0.036169	0.578846	0.667306
	N242	N	0.961948	0.578973	0.309828
	N243	N	0.036500	0.407366	0.310605
	N244	N	0.413953	0.671113	0.951150
	N245	N	0.584684	0.670973	0.025722
	N246	N	0.583921	0.316478	0.950638
	N247	N	0.413184	0.314203	0.024835
	N248	N	0.679291	0.956490	0.401409
	N249	N	0.677488	0.030679	0.572380
	N250	N	0.322183	0.956351	0.573999
	N251	N	0.321616	0.030214	0.401686
	N252	N	0.913061	0.455742	0.167679
	N253	N	0.084479	0.530066	0.166787
	N254	N	0.083721	0.455890	0.811618
	N255	N	0.912412	0.530526	0.809787
	N256	N	0.179185	0.907239	0.451432
	N257	N	0.179793	0.079390	0.525919
	N258	N	0.821623	0.079471	0.451229
	N259	N	0.821118	0.907190	0.525564
	N260	N	0.462963	0.173374	0.900382
	N261	N	0.536269	0.171774	0.073130
	N262	N	0.462306	0.813633	0.074846
	N263	N	0.536686	0.814919	0.902800
	N264	N	0.462801	0.906532	0.167205
	N265	N	0.537076	0.078350	0.165556
	N266	N	0.462989	0.079284	0.808925
	N267	N	0.537077	0.908597	0.810587
	N268	N	0.914950	0.171503	0.452117
	N269	N	0.085274	0.170606	0.526646
	N270	N	0.085793	0.815002	0.451317
	N271	N	0.914666	0.814799	0.526269
	N272	N	0.177296	0.456397	0.903589
	N273	N	0.177589	0.529985	0.075293
	N274	N	0.820634	0.455563	0.074833
	N275	N	0.821229	0.530906	0.903795
	O276	O	0.494818	0.378809	0.471864
	H277	H	0.495960	0.375810	0.472076
	H278	H	0.490322	0.385422	0.466823
	O279	O	0.475275	0.513437	0.530002
	H280	H	0.474961	0.513907	0.524738
	H281	H	0.476236	0.524524	0.523799
	O282	O	0.487834	0.511897	0.484223
	H283	H	0.491558	0.520008	0.493609
	H284	H	0.489526	0.511192	0.493281
	O285	O	0.109016	1.008662	1.029669
	H286	H	0.116129	1.018379	1.027010
	H287	H	0.106377	1.021982	1.030734
	O288	O	0.524256	0.450492	0.471614
	H289	H	0.531340	0.444025	0.471152
	H290	H	0.531069	0.452019	0.470329
	O291	O	0.009833	0.058056	1.053573
	H292	H	0.004863	0.048659	1.052820
	H293	H	0.008112	0.046938	1.055853
	O294	O	0.547403	0.530950	0.439087
	H295	H	0.553805	0.525820	0.451704
	H296	H	0.551343	0.532383	0.429579
	O297	O	0.529846	0.455812	0.431761
	H298	H	0.521887	0.455933	0.428738
	H299	H	0.524480	0.459816	0.429995
	O300	O	0.918815	0.982319	1.007729
	H301	H	0.914928	0.972155	1.000887
	H302	H	0.911590	0.981188	1.013253
	O303	O	0.543390	0.491000	0.516762
	H304	H	0.545820	0.479262	0.516170
	H305	H	0.543447	0.492009	0.525575
	O306	O	1.034734	-0.059004	1.014452
	H307	H	1.043469	-0.049811	1.007684
	H308	H	1.036239	-0.058139	1.015835
	O309	O	0.452330	0.479337	0.495865
	H310	H	0.441559	0.474176	0.491192
	H311	H	0.443159	0.479160	0.496171
	O312	O	-0.015335	0.966483	1.037341
	H313	H	-0.002752	0.975723	1.032755
	H314	H	-0.009600	0.974395	1.045481
	O315	O	1.062870	0.093400	1.003122
	H316	H	1.055595	0.092960	1.010494
	H317	H	1.050177	0.106838	0.997050
	O318	O	-0.056457	-0.017302	0.044922
	H319	H	-0.043219	-0.022336	0.046876
	H320	H	-0.053110	-0.027301	0.047850
	O321	O	0.495241	0.484651	0.425450
	H322	H	0.506409	0.475706	0.423083
	H323	H	0.502458	0.482911	0.432090
	O324	O	0.543930	0.485652	0.507085
	H325	H	0.540295	0.490319	0.508476
	H326	H	0.546088	0.487348	0.514568
	O327	O	0.924451	1.040570	0.032590
	H328	H	0.938047	1.031630	0.033616
	H329	H	0.908416	1.033070	0.033731
	O330	O	0.541388	0.521962	0.510440
	H331	H	0.542305	0.516221	0.508022
	H332	H	0.540743	0.523949	0.502419
	O333	O	0.491361	0.521543	0.487014
	H334	H	0.494103	0.525971	0.478726
	H335	H	0.484869	0.520563	0.487058
