data_Molecule from HDF5

_cell_length_a		16.698757
_cell_length_b		16.682641
_cell_length_c		16.565937
_cell_angle_alpha	89.939051
_cell_angle_beta	89.956329
_cell_angle_gamma	89.963238
_symmetry_space_group_name_H-M	'P 1'
_symmetry_Int_Tables_number		1

loop_
	_symmetry_equiv_pos_as_xyz
	x,y,z

loop_
	_atom_site_label
	_atom_site_type_symbol
	_atom_site_fract_x
	_atom_site_fract_y
	_atom_site_fract_z
	H0	H	0.394265	0.844351	0.707345
	H1	H	0.601106	0.154524	0.708893
	H2	H	0.600098	0.843549	0.269368
	H3	H	0.389227	0.154012	0.265025
	H4	H	0.721475	0.390131	0.837032
	H5	H	0.717136	0.604997	0.144788
	H6	H	0.277075	0.602706	0.832037
	H7	H	0.273488	0.392178	0.144656
	H8	H	0.843177	0.723539	0.382342
	H9	H	0.148628	0.722644	0.597466
	H10	H	0.842875	0.275098	0.598156
	H11	H	0.149519	0.275599	0.380428
	H12	H	0.842117	0.391867	0.713585
	H13	H	0.149964	0.604713	0.711206
	H14	H	0.843615	0.608744	0.265308
	H15	H	0.149925	0.392858	0.265249
	H16	H	0.392801	0.718495	0.831723
	H17	H	0.601353	0.721058	0.144002
	H18	H	0.605786	0.275268	0.836651
	H19	H	0.388585	0.276542	0.145538
	H20	H	0.719887	0.845420	0.382192
	H21	H	0.716234	0.156098	0.591547
	H22	H	0.275944	0.845916	0.593605
	H23	H	0.271443	0.152904	0.379668
	H24	H	0.888668	0.346278	0.215236
	H25	H	0.098692	0.655376	0.207723
	H26	H	0.099664	0.344202	0.769401
	H27	H	0.889914	0.654001	0.768585
	H28	H	0.217273	0.893744	0.333947
	H29	H	0.217420	0.104665	0.644985
	H30	H	0.775576	0.106499	0.333005
	H31	H	0.774981	0.894494	0.644903
	H32	H	0.342715	0.222264	0.882840
	H33	H	0.648780	0.224926	0.099217
	H34	H	0.342251	0.776283	0.096223
	H35	H	0.652532	0.779665	0.885654
	H36	H	0.341394	0.893556	0.211661
	H37	H	0.650829	0.106302	0.212867
	H38	H	0.342605	0.105603	0.767004
	H39	H	0.652856	0.896137	0.770047
	H40	H	0.891211	0.222438	0.334083
	H41	H	0.103875	0.222317	0.644418
	H42	H	0.101926	0.777764	0.334748
	H43	H	0.890712	0.778679	0.645682
	H44	H	0.219097	0.345281	0.882225
	H45	H	0.216131	0.654195	0.092624
	H46	H	0.770592	0.346593	0.100555
	H47	H	0.773175	0.653771	0.883640
	H48	H	0.406790	0.111804	0.576303
	H49	H	0.594269	0.885659	0.579146
	H50	H	0.587127	0.109052	0.405515
	H51	H	0.402494	0.889436	0.403337
	H52	H	0.580397	0.407920	0.101916
	H53	H	0.583781	0.589925	0.876823
	H54	H	0.407419	0.584026	0.099072
	H55	H	0.400692	0.412428	0.876310
	H56	H	0.108336	0.595077	0.404539
	H57	H	0.885186	0.592284	0.575019
	H58	H	0.107658	0.406917	0.578609
	H59	H	0.888067	0.413355	0.405465
	H60	H	0.104332	0.412798	0.574041
	H61	H	0.886893	0.583696	0.578720
	H62	H	0.104021	0.583168	0.403866
	H63	H	0.887358	0.414280	0.402742
	H64	H	0.410315	0.592403	0.101279
	H65	H	0.587807	0.588454	0.876121
	H66	H	0.586776	0.414556	0.101878
	H67	H	0.414029	0.416375	0.882468
	H68	H	0.588958	0.112358	0.397189
	H69	H	0.584210	0.888286	0.583286
	H70	H	0.406440	0.112619	0.577437
	H71	H	0.407397	0.888036	0.396049
	H72	H	0.906141	0.610270	0.078506
	H73	H	0.085415	0.388381	0.076300
	H74	H	0.087454	0.613010	0.894930
	H75	H	0.913133	0.390700	0.901532
	H76	H	0.086103	0.915377	0.600733
	H77	H	0.085753	0.086788	0.377712
	H78	H	0.911819	0.092641	0.600870
	H79	H	0.904985	0.913048	0.377421
	H80	H	0.608412	0.087424	0.896855
	H81	H	0.389099	0.084955	0.073490
	H82	H	0.606021	0.909647	0.075149
	H83	H	0.384720	0.910080	0.894669
	H84	H	0.606846	0.912216	0.080220
	H85	H	0.386626	0.084193	0.078860
	H86	H	0.607370	0.091198	0.903608
	H87	H	0.383660	0.904141	0.897535
	H88	H	0.901172	0.089854	0.602855
	H89	H	0.081955	0.087008	0.378569
	H90	H	0.081883	0.907901	0.600968
	H91	H	0.912538	0.914691	0.380087
	H92	H	0.081725	0.608624	0.902287
	H93	H	0.086637	0.386708	0.077435
	H94	H	0.910753	0.608717	0.076475
	H95	H	0.904985	0.390188	0.907933
	H96	H	0.407785	0.112139	0.577327
	H97	H	0.586336	0.890179	0.572672
	H98	H	0.580569	0.109171	0.399493
	H99	H	0.411440	0.891302	0.403288
	H100	H	0.578182	0.415985	0.098477
	H101	H	0.584814	0.586050	0.877635
	H102	H	0.401854	0.589490	0.103076
	H103	H	0.412304	0.402199	0.876837
	H104	H	0.109816	0.588057	0.394084
	H105	H	0.882054	0.590526	0.583204
	H106	H	0.106808	0.414299	0.581202
	H107	H	0.885772	0.411273	0.403819
	H108	H	0.906305	0.608300	0.073564
	H109	H	0.084872	0.387809	0.078507
	H110	H	0.091997	0.610600	0.904268
	H111	H	0.904346	0.385866	0.898287
	H112	H	0.090245	0.908713	0.604405
	H113	H	0.083600	0.090196	0.377291
	H114	H	0.908729	0.082131	0.599142
	H115	H	0.910552	0.907018	0.377469
	H116	H	0.605178	0.083816	0.903137
	H117	H	0.385860	0.089657	0.076052
	H118	H	0.608704	0.906740	0.079588
	H119	H	0.385249	0.909261	0.901620
	C120	C	0.376125	0.008903	0.609093
	C121	C	0.619209	0.991060	0.610098
	C122	C	0.618028	0.007662	0.367895
	C123	C	0.374213	0.991258	0.366887
	C124	C	0.616622	0.378759	-0.001135
	C125	C	0.617329	0.620224	0.980297
	C126	C	0.375768	0.619627	-0.003065
	C127	C	0.375122	0.377550	0.981284
	C128	C	0.005445	0.621670	0.368073
	C129	C	0.987126	0.620795	0.611275
	C130	C	0.004493	0.377830	0.611467
	C131	C	0.988615	0.379430	0.369281
	C132	C	0.874103	0.507990	0.111478
	C133	C	0.117271	0.490523	0.109753
	C134	C	0.118349	0.508205	0.867854
	C135	C	0.874544	0.490922	0.869348
	C136	C	0.117871	0.878392	0.498775
	C137	C	0.117125	0.120902	0.480854
	C138	C	0.875487	0.120956	0.497729
	C139	C	0.876171	0.879066	0.481359
	C140	C	0.504949	0.120501	0.868193
	C141	C	0.488449	0.120336	0.110680
	C142	C	0.504529	0.877529	0.110759
	C143	C	0.488109	0.877389	0.867151
	C144	C	0.375158	0.891425	0.668255
	C145	C	0.620007	0.108090	0.669193
	C146	C	0.619613	0.890587	0.308512
	C147	C	0.371587	0.107500	0.305647
	C148	C	0.679612	0.373605	0.883119
	C149	C	0.676899	0.622965	0.097830
	C150	C	0.316937	0.621159	0.879045
	C151	C	0.313657	0.373952	0.097825
	C152	C	0.889533	0.683148	0.364463
	C153	C	0.102886	0.681580	0.614732
	C154	C	0.889004	0.315985	0.615635
	C155	C	0.103770	0.317218	0.363948
	C156	C	0.888627	0.374204	0.672934
	C157	C	0.103401	0.623124	0.671488
	C158	C	0.889776	0.625823	0.306332
	C159	C	0.103906	0.375427	0.306606
	C160	C	0.374507	0.678704	0.878979
	C161	C	0.619510	0.680660	0.097507
	C162	C	0.622242	0.316208	0.882999
	C163	C	0.371475	0.316784	0.098425
	C164	C	0.678745	0.891383	0.364794
	C165	C	0.677203	0.108809	0.610894
	C166	C	0.316434	0.892196	0.611678
	C167	C	0.312668	0.106957	0.362384
	C168	C	0.870228	0.392467	0.174383
	C169	C	0.117775	0.608204	0.168208
	C170	C	0.118990	0.391148	0.808576
	C171	C	0.872017	0.607567	0.808872
	C172	C	0.177359	0.875912	0.381089
	C173	C	0.177649	0.123342	0.597905
	C174	C	0.815842	0.124110	0.380037
	C175	C	0.815358	0.876498	0.598339
	C176	C	0.389058	0.181479	0.864893
	C177	C	0.603497	0.182990	0.115637
	C178	C	0.388194	0.817084	0.113876
	C179	C	0.605543	0.819144	0.866779
	C180	C	0.387960	0.875329	0.171204
	C181	C	0.604178	0.124147	0.172299
	C182	C	0.389046	0.123565	0.807168
	C183	C	0.605718	0.877040	0.809100
	C184	C	0.873075	0.181857	0.380577
	C185	C	0.120958	0.181638	0.597751
	C186	C	0.119966	0.818309	0.381413
	C187	C	0.872712	0.818661	0.598568
	C188	C	0.178362	0.391550	0.864547
	C189	C	0.176450	0.607586	0.111410
	C190	C	0.811864	0.392531	0.117365
	C191	C	0.813543	0.607073	0.865756
	C192	C	0.400374	0.090787	0.584230
	C193	C	0.595211	0.909085	0.585466
	C194	C	0.592741	0.088886	0.393407
	C195	C	0.399799	0.910491	0.393521
	C196	C	0.589534	0.405514	0.079676
	C197	C	0.592495	0.595158	0.898205
	C198	C	0.399777	0.595231	0.079581
	C199	C	0.401362	0.403150	0.899773
	C200	C	0.086447	0.595910	0.393579
	C201	C	0.905936	0.595794	0.586081
	C202	C	0.085215	0.403937	0.585494
	C203	C	0.907992	0.405785	0.396261
	C204	C	0.900316	0.588135	0.084108
	C205	C	0.092749	0.408879	0.084777
	C206	C	0.094066	0.589554	0.893232
	C207	C	0.900218	0.409826	0.895212
	C208	C	0.093285	0.903659	0.580771
	C209	C	0.091207	0.095170	0.399204
	C210	C	0.900310	0.095493	0.579600
	C211	C	0.902027	0.904428	0.399605
	C212	C	0.585949	0.094784	0.894239
	C213	C	0.408067	0.093682	0.083809
	C214	C	0.585856	0.902481	0.085420
	C215	C	0.405941	0.901204	0.890954
	Zn216	Zn	0.496778	-0.000326	0.738372
	Zn217	Zn	0.496740	-0.001101	0.239333
	Zn218	Zn	0.745428	0.499004	-0.009602
	Zn219	Zn	0.247141	0.498845	-0.010992
	Zn220	Zn	-0.003218	0.749959	0.490238
	Zn221	Zn	-0.003467	0.249398	0.489324
	Zn222	Zn	-0.004232	0.499560	0.740117
	Zn223	Zn	-0.003585	0.500037	0.239216
	Zn224	Zn	0.496021	0.748669	-0.011105
	Zn225	Zn	0.496560	0.249626	-0.010119
	Zn226	Zn	0.747656	-0.000054	0.488358
	Zn227	Zn	0.245903	0.000440	0.488954
	N228	N	0.411503	0.965211	0.666803
	N229	N	0.584746	0.033766	0.668916
	N230	N	0.582700	0.964049	0.310094
	N231	N	0.409244	0.034425	0.308316
	N232	N	0.676223	0.411825	0.956173
	N233	N	0.675704	0.585967	0.023907
	N234	N	0.317435	0.585130	0.953656
	N235	N	0.315695	0.411017	0.023840
	N236	N	0.962566	0.680767	0.402409
	N237	N	0.029537	0.680396	0.577967
	N238	N	0.962155	0.318056	0.577977
	N239	N	0.030921	0.319648	0.402341
	N240	N	0.961353	0.412254	0.670365
	N241	N	0.030145	0.586226	0.669798
	N242	N	0.962734	0.588283	0.308447
	N243	N	0.031150	0.413506	0.309761
	N244	N	0.410273	0.678014	0.953475
	N245	N	0.583273	0.679341	0.023196
	N246	N	0.583751	0.319045	0.956234
	N247	N	0.408959	0.318661	0.024574
	N248	N	0.678345	0.965542	0.400607
	N249	N	0.677212	0.034667	0.575110
	N250	N	0.316841	0.966255	0.575481
	N251	N	0.314271	0.033680	0.399931
	N252	N	0.908129	0.465255	0.171020
	N253	N	0.082028	0.534178	0.167503
	N254	N	0.082609	0.464853	0.810154
	N255	N	0.909239	0.534071	0.810779
	N256	N	0.176355	0.912555	0.455150
	N257	N	0.175624	0.086427	0.523931
	N258	N	0.817028	0.086962	0.453999
	N259	N	0.817031	0.913234	0.524088
	N260	N	0.462445	0.179973	0.901978
	N261	N	0.530326	0.180778	0.077884
	N262	N	0.461706	0.818437	0.076734
	N263	N	0.531175	0.818949	0.901946
	N264	N	0.461329	0.912403	0.169403
	N265	N	0.531509	0.086115	0.169461
	N266	N	0.462384	0.086576	0.808762
	N267	N	0.531663	0.912706	0.809103
	N268	N	0.909512	0.180098	0.454801
	N269	N	0.084110	0.180445	0.523774
	N270	N	0.083889	0.819258	0.455833
	N271	N	0.909839	0.820058	0.524739
	N272	N	0.178335	0.465510	0.900587
	N273	N	0.176558	0.533163	0.075781
	N274	N	0.813996	0.465462	0.078971
	N275	N	0.814942	0.533421	0.902619
	O276	O	-0.027721	0.947470	-0.051823
	H277	H	-0.041852	0.934003	-0.059273
	H278	H	-0.043092	0.968850	-0.056594
	O279	O	0.781117	0.784815	1.024888
	H280	H	0.804034	0.779961	1.031457
	H281	H	0.758533	0.766831	1.029175
	O282	O	0.774640	-0.039219	1.206619
	H283	H	0.757023	-0.030635	1.228933
	H284	H	0.781217	-0.047893	1.211013
	O285	O	0.278597	0.307672	0.495053
	H286	H	0.269281	0.313737	0.504506
	H287	H	0.257121	0.290189	0.502336
	O288	O	0.701598	0.701176	0.692861
	H289	H	0.686421	0.670382	0.690830
	H290	H	0.703420	0.688067	0.662712
	O291	O	0.269138	0.720797	0.468201
	H292	H	0.264794	0.729769	0.437250
	H293	H	0.259084	0.735324	0.447109
	O294	O	1.207845	-0.213206	0.782848
	H295	H	1.207184	-0.168998	0.776613
	H296	H	1.240324	-0.241944	0.747082
	O297	O	0.691516	0.693142	0.293991
	H298	H	0.668475	0.670644	0.303557
	H299	H	0.674547	0.679109	0.319210
	O300	O	0.031848	0.210054	1.199883
	H301	H	0.013965	0.212088	1.195433
	H302	H	0.012289	0.219333	1.200067
	O303	O	0.525842	0.281487	0.270379
	H304	H	0.528622	0.253932	0.250299
	H305	H	0.501419	0.269172	0.301089
	O306	O	0.639142	0.346889	0.296341
	H307	H	0.634645	0.349902	0.300984
	H308	H	0.609505	0.359534	0.291588
	O309	O	0.260888	0.725869	0.263457
	H310	H	0.289263	0.722011	0.260580
	H311	H	0.237761	0.760248	0.233742
	O312	O	0.432918	0.273805	0.460788
	H313	H	0.444340	0.270576	0.480596
	H314	H	0.411971	0.270161	0.477301
	O315	O	0.733564	0.563620	1.434517
	H316	H	0.726412	0.556879	1.433297
	H317	H	0.732187	0.548052	1.434360
	O318	O	0.410060	0.588237	0.383938
	H319	H	0.413464	0.573775	0.376373
	H320	H	0.397991	0.585376	0.377502
	O321	O	-0.728523	0.457977	0.695634
	H322	H	-0.743394	0.467581	0.710016
	H323	H	-0.714531	0.448572	0.701766
	O324	O	1.216153	0.956449	-0.228662
	H325	H	1.239981	0.966420	-0.248807
	H326	H	1.215774	0.972785	-0.204966
	O327	O	-0.060597	0.018275	1.174311
	H328	H	-0.065791	0.007661	1.162029
	H329	H	-0.063596	0.023511	1.174527
	O330	O	0.603387	0.472051	0.514672
	H331	H	0.590141	0.461035	0.497222
	H332	H	0.607286	0.463298	0.508478
	O333	O	0.288903	0.289857	0.693527
	H334	H	0.259965	0.272858	0.718992
	H335	H	0.298651	0.314275	0.688232
	O336	O	0.710262	0.706922	0.523261
	H337	H	0.716069	0.687702	0.514674
	H338	H	0.725960	0.712594	0.527916
	O339	O	0.826979	0.001614	0.770474
	H340	H	0.818410	-0.004018	0.759589
	H341	H	0.828079	-0.020466	0.784283
	O342	O	0.475333	-0.294407	0.274165
	H343	H	0.478755	-0.283219	0.291651
	H344	H	0.483863	-0.291792	0.271748
	O345	O	-0.193349	1.182306	0.950891
	H346	H	-0.194160	1.169238	0.947955
	H347	H	-0.200394	1.185672	0.939687
	O348	O	-0.032481	-0.212780	0.205827
	H349	H	-0.049144	-0.238110	0.225660
	H350	H	-0.062679	-0.209500	0.200327
	O351	O	-0.050062	0.155035	0.844775
	H352	H	-0.045258	0.151441	0.846454
	H353	H	-0.043111	0.150799	0.830932
	O354	O	-0.569856	0.451595	0.518453
	H355	H	-0.569763	0.440425	0.517521
	H356	H	-0.579386	0.447656	0.505026
	O357	O	0.465910	0.589069	0.668880
	H358	H	0.470666	0.595560	0.657058
	H359	H	0.481264	0.602256	0.674049
	O360	O	0.717389	0.532605	0.706796
	H361	H	0.733470	0.524626	0.732723
	H362	H	0.699531	0.511938	0.708361
	O363	O	0.119792	-0.005959	0.028689
	H364	H	0.111214	-0.017179	0.021248
	H365	H	0.119010	-0.014481	0.035945
	O366	O	0.530568	0.721267	0.710959
	H367	H	0.529907	0.747078	0.734993
	H368	H	0.554254	0.720563	0.696114
	O369	O	0.795064	0.015475	0.008147
	H370	H	0.786122	0.028304	0.019251
	H371	H	0.794926	-0.009862	0.009311
	O372	O	1.182678	1.189212	-0.195119
	H373	H	1.164379	1.183779	-0.181853
	H374	H	1.175832	1.162589	-0.177188
	O375	O	1.026021	-0.229596	-0.228640
	H376	H	1.061623	-0.234314	-0.233088
	H377	H	1.030399	-0.240302	-0.251968
	O378	O	0.520803	0.508378	0.521385
	H379	H	0.512373	0.493979	0.504535
	H380	H	0.529597	0.498306	0.520278
	O381	O	0.145051	0.862562	1.036159
	H382	H	0.148270	0.852358	1.041690
	H383	H	0.134546	0.853822	1.033817
	O384	O	0.854368	-0.044121	0.833899
	H385	H	0.863168	-0.064891	0.832717
	H386	H	0.832766	-0.055899	0.817663
	O387	O	1.723330	1.479319	0.273966
	H388	H	1.747778	1.463642	0.247330
	H389	H	1.712757	1.474217	0.278152
	O390	O	0.269764	0.524158	0.267984
	H391	H	0.243715	0.522907	0.249880
	H392	H	0.269739	0.566087	0.267275
	O393	O	0.717120	0.413367	0.558788
	H394	H	0.721688	0.402960	0.592864
	H395	H	0.716178	0.413256	0.541979
	O396	O	0.282173	0.549979	0.516737
	H397	H	0.283183	0.568966	0.510028
	H398	H	0.284336	0.550684	0.526123
	O399	O	0.032440	0.054306	0.760530
	H400	H	0.034411	0.047654	0.763609
	H401	H	0.029284	0.038970	0.757030
	O402	O	0.123887	0.979558	-0.133808
	H403	H	0.125545	0.972898	-0.109800
	H404	H	0.129138	0.973902	-0.132900
	O405	O	0.701234	-0.717052	1.459756
	H406	H	0.716339	-0.724513	1.465674
	H407	H	0.699023	-0.721823	1.470616
	O408	O	-0.034882	-0.222404	-0.057443
	H409	H	-0.025297	-0.225706	-0.064602
	H410	H	-0.021715	-0.224331	-0.073472
	O411	O	0.541545	0.551822	0.265142
	H412	H	0.521656	0.530235	0.258787
	H413	H	0.536395	0.560915	0.260885
	O414	O	1.055695	0.234253	0.942679
	H415	H	1.070576	0.238612	0.941815
	H416	H	1.063824	0.232154	0.941284
	O417	O	0.216978	0.785797	0.957517
	H418	H	0.201750	0.786190	0.925450
	H419	H	0.238423	0.763102	0.938240
	O420	O	0.554937	0.447153	0.717008
	H421	H	0.531476	0.445817	0.710985
	H422	H	0.554692	0.438488	0.719252
	O423	O	-0.530542	-0.269090	1.534797
	H424	H	-0.525764	-0.285391	1.524178
	H425	H	-0.533647	-0.268438	1.545178
	O426	O	0.792057	0.793383	0.193154
	H427	H	0.758369	0.761352	0.224831
	H428	H	0.784026	0.820916	0.174866
	O429	O	1.003756	1.068015	0.859343
	H430	H	1.003704	1.077627	0.856759
	H431	H	0.995134	1.064710	0.864971
	O432	O	0.302607	0.692996	0.674021
	H433	H	0.328101	0.675664	0.657553
	H434	H	0.310588	0.677638	0.647426
	O435	O	0.198615	1.199286	0.192965
	H436	H	0.193862	1.162411	0.194833
	H437	H	0.160057	1.192049	0.194463
	O438	O	0.171869	0.036738	0.190655
	H439	H	0.173304	0.032646	0.195015
	H440	H	0.167642	0.020923	0.198826
	O441	O	0.224769	0.054363	0.012965
	H442	H	0.231360	0.060894	0.039872
	H443	H	0.227648	0.042084	0.020922
	O444	O	0.290387	0.469548	0.434080
	H445	H	0.288204	0.485348	0.428662
	H446	H	0.281271	0.469598	0.425232
	O447	O	0.083117	0.926252	1.207105
	H448	H	0.056125	0.929862	1.203442
	H449	H	0.065453	0.924794	1.203389
	O450	O	-0.303969	1.301642	0.685898
	H451	H	-0.275034	1.273979	0.721031
	H452	H	-0.326510	1.311142	0.687615
	O453	O	0.341917	0.307981	0.327981
	H454	H	0.352366	0.314091	0.354736
	H455	H	0.306984	0.290666	0.319834
	O456	O	-0.053742	0.237621	1.043288
	H457	H	-0.050985	0.240877	1.026981
	H458	H	-0.068616	0.238057	1.030065
	O459	O	0.539870	0.289803	0.541200
	H460	H	0.543695	0.293305	0.551446
	H461	H	0.533427	0.293075	0.554164
	O462	O	0.791528	0.211202	0.791741
	H463	H	0.811912	0.195256	0.808476
	H464	H	0.796746	0.187150	0.807255
	O465	O	1.481810	-0.387145	0.473233
	H466	H	1.495884	-0.385588	0.492492
	H467	H	1.474830	-0.411248	0.470535
	O468	O	0.769335	0.222147	0.158550
	H469	H	0.760823	0.229521	0.171177
	H470	H	0.749226	0.230917	0.161122
	O471	O	0.839219	0.820973	0.820510
	H472	H	0.823237	0.798759	0.802606
	H473	H	0.839948	0.821541	0.828538
	O474	O	-0.235958	0.938667	-0.064754
	H475	H	-0.243351	0.915469	-0.059779
	H476	H	-0.227905	0.944167	-0.075011
	O477	O	0.393247	0.441939	1.646628
	H478	H	0.380626	0.429092	1.633390
	H479	H	0.398493	0.455857	1.637658
	O480	O	0.853844	0.146937	0.185652
	H481	H	0.853071	0.137509	0.173183
	H482	H	0.834129	0.168911	0.202433
	O483	O	0.215564	1.219893	0.015717
	H484	H	0.220557	1.213463	0.046867
	H485	H	0.233048	1.240407	0.033631
	O486	O	1.574322	-0.292582	0.416696
	H487	H	1.592753	-0.292911	0.435199
	H488	H	1.562943	-0.307657	0.431933
	O489	O	1.417092	1.434589	0.268568
	H490	H	1.403122	1.422717	0.265870
	H491	H	1.393729	1.413269	0.263578
	O492	O	0.470660	0.277032	-0.290671
	H493	H	0.451441	0.274361	-0.289420
	H494	H	0.458414	0.269674	-0.270874
	O495	O	0.154647	0.849487	1.113346
	H496	H	0.132737	0.852686	1.102818
	H497	H	0.139232	0.862879	1.097034
	O498	O	0.984234	0.940669	1.017367
	H499	H	0.973345	0.924021	1.015941
	H500	H	0.988260	0.947614	1.022672
	O501	O	0.958077	1.038054	1.045467
	H502	H	0.957501	1.045660	1.059435
	H503	H	0.957463	1.031807	1.044927
