data_Molecule from HDF5

_cell_length_a		16.542402
_cell_length_b		16.586988
_cell_length_c		16.551824
_cell_angle_alpha	90.073428
_cell_angle_beta	90.153792
_cell_angle_gamma	90.081604
_symmetry_space_group_name_H-M	'P 1'
_symmetry_Int_Tables_number		1

loop_
	_symmetry_equiv_pos_as_xyz
	x,y,z

loop_
	_atom_site_label
	_atom_site_type_symbol
	_atom_site_fract_x
	_atom_site_fract_y
	_atom_site_fract_z
	H0	H	0.414645	0.830933	0.719725
	H1	H	0.630744	0.141093	0.722127
	H2	H	0.623921	0.829019	0.277996
	H3	H	0.415094	0.140986	0.274160
	H4	H	0.743583	0.378408	0.839340
	H5	H	0.741460	0.588812	0.152640
	H6	H	0.300319	0.589291	0.839862
	H7	H	0.301909	0.381931	0.153742
	H8	H	0.863797	0.703704	0.396917
	H9	H	0.176613	0.710178	0.607040
	H10	H	0.864381	0.263744	0.602963
	H11	H	0.178597	0.265650	0.392833
	H12	H	0.864370	0.379296	0.719055
	H13	H	0.176952	0.592695	0.721092
	H14	H	0.863296	0.587134	0.280244
	H15	H	0.179122	0.383147	0.277567
	H16	H	0.414262	0.707076	0.840186
	H17	H	0.624944	0.705041	0.152758
	H18	H	0.629069	0.261548	0.839909
	H19	H	0.416731	0.265146	0.152897
	H20	H	0.741248	0.829551	0.394354
	H21	H	0.745600	0.141973	0.605502
	H22	H	0.296972	0.831865	0.604206
	H23	H	0.299810	0.142091	0.390889
	H24	H	0.916374	0.330801	0.218250
	H25	H	0.126847	0.643526	0.218838
	H26	H	0.127540	0.331016	0.773512
	H27	H	0.912997	0.641575	0.772686
	H28	H	0.241704	0.880917	0.340643
	H29	H	0.246912	0.095266	0.651792
	H30	H	0.800598	0.088969	0.341120
	H31	H	0.797979	0.878537	0.653788
	H32	H	0.365869	0.209624	0.887470
	H33	H	0.676989	0.207293	0.103295
	H34	H	0.364322	0.762998	0.102804
	H35	H	0.678470	0.765893	0.893625
	H36	H	0.364576	0.878965	0.219571
	H37	H	0.677171	0.088992	0.218083
	H38	H	0.366398	0.093282	0.771748
	H39	H	0.678939	0.881411	0.777234
	H40	H	0.914887	0.206866	0.341232
	H41	H	0.130262	0.211659	0.652155
	H42	H	0.127308	0.763797	0.341335
	H43	H	0.913998	0.762553	0.653989
	H44	H	0.244924	0.331528	0.889494
	H45	H	0.243776	0.642721	0.103412
	H46	H	0.800195	0.329826	0.100713
	H47	H	0.798295	0.642065	0.889697
	H48	H	0.436414	0.095778	0.581945
	H49	H	0.612863	0.873073	0.588331
	H50	H	0.611206	0.098154	0.409166
	H51	H	0.433252	0.876448	0.411987
	H52	H	0.610964	0.392879	0.109354
	H53	H	0.608920	0.580402	0.881375
	H54	H	0.438706	0.578206	0.107033
	H55	H	0.433351	0.391877	0.882324
	H56	H	0.135149	0.574913	0.408391
	H57	H	0.907689	0.573589	0.590715
	H58	H	0.134256	0.398169	0.590440
	H59	H	0.914194	0.401373	0.414807
	H60	H	0.132007	0.395079	0.579724
	H61	H	0.909021	0.579161	0.582631
	H62	H	0.135494	0.576885	0.407180
	H63	H	0.906771	0.400889	0.397102
	H64	H	0.428049	0.579137	0.112049
	H65	H	0.613649	0.572247	0.882422
	H66	H	0.613462	0.400565	0.106987
	H67	H	0.428142	0.399545	0.883395
	H68	H	0.610669	0.098736	0.407169
	H69	H	0.604774	0.876115	0.587238
	H70	H	0.433701	0.097629	0.583516
	H71	H	0.427310	0.872588	0.408617
	H72	H	0.940551	0.596370	0.087399
	H73	H	0.109963	0.374264	0.089600
	H74	H	0.108605	0.598070	0.907856
	H75	H	0.932792	0.374161	0.905367
	H76	H	0.108491	0.896435	0.609873
	H77	H	0.109554	0.073601	0.386217
	H78	H	0.933930	0.076647	0.610483
	H79	H	0.927234	0.895190	0.384958
	H80	H	0.633284	0.073121	0.906609
	H81	H	0.407115	0.069500	0.093085
	H82	H	0.634456	0.892656	0.087800
	H83	H	0.407788	0.893199	0.905828
	H84	H	0.632035	0.895942	0.085127
	H85	H	0.404678	0.084483	0.084606
	H86	H	0.632845	0.077845	0.911874
	H87	H	0.410762	0.896190	0.911267
	H88	H	0.933298	0.074733	0.609851
	H89	H	0.107763	0.075908	0.386021
	H90	H	0.112210	0.899390	0.609645
	H91	H	0.932715	0.900642	0.387798
	H92	H	0.106730	0.595434	0.911416
	H93	H	0.109304	0.375900	0.084482
	H94	H	0.925004	0.598894	0.078775
	H95	H	0.933991	0.376122	0.909488
	H96	H	0.436996	0.097385	0.585193
	H97	H	0.610733	0.876365	0.581310
	H98	H	0.609403	0.096972	0.407982
	H99	H	0.433985	0.873583	0.405128
	H100	H	0.605859	0.398041	0.105311
	H101	H	0.604672	0.572443	0.885477
	H102	H	0.431364	0.568691	0.107719
	H103	H	0.436866	0.399302	0.887084
	H104	H	0.134441	0.577028	0.409833
	H105	H	0.912096	0.570108	0.582452
	H106	H	0.128808	0.405632	0.583373
	H107	H	0.906353	0.384975	0.408514
	H108	H	0.926684	0.603114	0.096009
	H109	H	0.113704	0.373997	0.085696
	H110	H	0.111096	0.597108	0.912154
	H111	H	0.929928	0.373932	0.908924
	H112	H	0.107789	0.900569	0.607267
	H113	H	0.110483	0.076007	0.384851
	H114	H	0.934847	0.075569	0.609202
	H115	H	0.934982	0.892407	0.386786
	H116	H	0.630919	0.070544	0.913244
	H117	H	0.412546	0.070753	0.076713
	H118	H	0.633225	0.896829	0.089522
	H119	H	0.409463	0.899883	0.905828
	C120	C	0.401293	-0.005319	0.617381
	C121	C	0.643402	0.977890	0.619171
	C122	C	0.642133	-0.005614	0.376426
	C123	C	0.399304	0.977312	0.375653
	C124	C	0.642898	0.363996	0.004143
	C125	C	0.641338	0.606456	0.987369
	C126	C	0.399768	0.607431	0.005586
	C127	C	0.400277	0.364821	0.987856
	C128	C	0.030608	0.607266	0.377279
	C129	C	1.012687	0.607583	0.619393
	C130	C	0.028772	0.365640	0.617588
	C131	C	1.013138	0.364411	0.375411
	C132	C	0.899502	0.495270	0.118117
	C133	C	0.143188	0.478123	0.119017
	C134	C	0.142099	0.494339	0.876415
	C135	C	0.899379	0.477724	0.874936
	C136	C	0.142019	0.865616	0.505674
	C137	C	0.143126	0.108501	0.488599
	C138	C	0.900660	0.107387	0.506422
	C139	C	0.899547	0.864024	0.490005
	C140	C	0.529813	0.107166	0.875869
	C141	C	0.511955	0.106574	0.117708
	C142	C	0.529434	0.862982	0.119250
	C143	C	0.512959	0.864649	0.875656
	C144	C	0.397033	0.877706	0.678975
	C145	C	0.647654	0.094658	0.681190
	C146	C	0.643314	0.876235	0.317388
	C147	C	0.396860	0.094421	0.314685
	C148	C	0.703320	0.360539	0.886462
	C149	C	0.701299	0.607688	0.105506
	C150	C	0.339749	0.608367	0.887239
	C151	C	0.341139	0.363258	0.106085
	C152	C	0.911036	0.664438	0.377588
	C153	C	0.129694	0.669314	0.624009
	C154	C	0.911351	0.304063	0.621072
	C155	C	0.131511	0.305572	0.374297
	C156	C	0.911236	0.361922	0.678711
	C157	C	0.129913	0.610960	0.681070
	C158	C	0.910916	0.606813	0.319520
	C159	C	0.131803	0.363833	0.316814
	C160	C	0.396743	0.666799	0.887424
	C161	C	0.643332	0.665286	0.105668
	C162	C	0.646285	0.302140	0.886846
	C163	C	0.398470	0.305261	0.105870
	C164	C	0.701724	0.876669	0.374959
	C165	C	0.705044	0.094935	0.623064
	C166	C	0.338426	0.878332	0.621572
	C167	C	0.339590	0.095048	0.372887
	C168	C	0.897658	0.377639	0.178064
	C169	C	0.145377	0.595941	0.179361
	C170	C	0.145527	0.377627	0.814404
	C171	C	0.895660	0.594920	0.813501
	C172	C	0.201913	0.862744	0.387897
	C173	C	0.205655	0.112689	0.605415
	C174	C	0.840465	0.108211	0.388250
	C175	C	0.838657	0.861099	0.607082
	C176	C	0.412650	0.168830	0.870382
	C177	C	0.629997	0.166822	0.121239
	C178	C	0.411464	0.802889	0.121191
	C179	C	0.631153	0.805274	0.874531
	C180	C	0.411438	0.860644	0.179089
	C181	C	0.629807	0.108272	0.178503
	C182	C	0.412959	0.111006	0.812906
	C183	C	0.631394	0.862700	0.816421
	C184	C	0.897489	0.166742	0.388258
	C185	C	0.147717	0.170473	0.605436
	C186	C	0.145069	0.804209	0.388408
	C187	C	0.896632	0.803383	0.607275
	C188	C	0.203684	0.377791	0.872198
	C189	C	0.203696	0.595781	0.122016
	C190	C	0.839981	0.377055	0.119564
	C191	C	0.838427	0.595139	0.871733
	C192	C	0.428069	0.075711	0.590961
	C193	C	0.616923	0.896308	0.593024
	C194	C	0.617391	0.076700	0.401020
	C195	C	0.424353	0.895424	0.401282
	C196	C	0.617359	0.389895	0.085969
	C197	C	0.616224	0.581911	0.904750
	C198	C	0.425400	0.582591	0.087695
	C199	C	0.425269	0.389727	0.905513
	C200	C	0.113313	0.583341	0.401470
	C201	C	0.930830	0.581602	0.592844
	C202	C	0.110370	0.391909	0.591781
	C203	C	0.930669	0.388790	0.399966
	C204	C	0.923751	0.577733	0.094144
	C205	C	0.118179	0.396102	0.093658
	C206	C	0.116040	0.575876	0.902959
	C207	C	0.924991	0.396109	0.900477
	C208	C	0.116602	0.891276	0.587671
	C209	C	0.116913	0.082294	0.406985
	C210	C	0.926547	0.082590	0.588441
	C211	C	0.924513	0.889072	0.407913
	C212	C	0.611218	0.081170	0.902941
	C213	C	0.429647	0.081998	0.092073
	C214	C	0.611719	0.888130	0.094595
	C215	C	0.430767	0.889380	0.900432
	Zn216	Zn	0.522164	-0.013649	0.747209
	Zn217	Zn	0.520346	-0.014790	0.247039
	Zn218	Zn	0.770657	0.485772	-0.004541
	Zn219	Zn	0.271453	0.486138	-0.002528
	Zn220	Zn	0.021780	0.736093	0.498343
	Zn221	Zn	0.021500	0.236708	0.497198
	Zn222	Zn	0.020818	0.486042	0.747345
	Zn223	Zn	0.021625	0.486936	0.247742
	Zn224	Zn	0.520808	0.736040	-0.003447
	Zn225	Zn	0.521009	0.235902	-0.003701
	Zn226	Zn	0.771082	-0.014004	0.497892
	Zn227	Zn	0.270962	-0.013469	0.496991
	N228	N	0.435289	0.951111	0.676677
	N229	N	0.610252	0.020614	0.678868
	N230	N	0.607186	0.950585	0.317872
	N231	N	0.433411	0.020159	0.316407
	N232	N	0.701415	0.398204	0.960365
	N233	N	0.700179	0.571883	0.030796
	N234	N	0.341296	0.572486	0.961841
	N235	N	0.342067	0.399502	0.031528
	N236	N	0.986535	0.665159	0.412484
	N237	N	0.055456	0.667677	0.586754
	N238	N	0.985440	0.306317	0.583768
	N239	N	0.056618	0.305759	0.409777
	N240	N	0.985312	0.399421	0.676920
	N241	N	0.055989	0.573222	0.678070
	N242	N	0.986277	0.572174	0.319070
	N243	N	0.057004	0.399477	0.317139
	N244	N	0.433179	0.666521	0.962065
	N245	N	0.606686	0.664638	0.031139
	N246	N	0.609064	0.304226	0.961141
	N247	N	0.434331	0.305820	0.031176
	N248	N	0.701234	0.951210	0.410797
	N249	N	0.702774	0.021060	0.585587
	N250	N	0.340846	0.952110	0.584084
	N251	N	0.341046	0.021219	0.410155
	N252	N	0.934101	0.452023	0.177377
	N253	N	0.108809	0.521539	0.178028
	N254	N	0.108008	0.451352	0.816964
	N255	N	0.932834	0.520981	0.815310
	N256	N	0.200225	0.900188	0.461940
	N257	N	0.203067	0.075010	0.531594
	N258	N	0.842027	0.072143	0.462849
	N259	N	0.840315	0.898150	0.533036
	N260	N	0.486218	0.166571	0.908993
	N261	N	0.555536	0.166245	0.084374
	N262	N	0.485992	0.804284	0.084709
	N263	N	0.556295	0.806049	0.910341
	N264	N	0.485835	0.897141	0.178165
	N265	N	0.555306	0.071685	0.176510
	N266	N	0.486832	0.073332	0.816278
	N267	N	0.556794	0.898818	0.816902
	N268	N	0.933995	0.166638	0.462839
	N269	N	0.109619	0.168013	0.531806
	N270	N	0.108669	0.805729	0.462911
	N271	N	0.933675	0.804895	0.533354
	N272	N	0.201701	0.451490	0.909987
	N273	N	0.202663	0.521448	0.085316
	N274	N	0.841001	0.451280	0.083108
	N275	N	0.840471	0.521225	0.909074
	O276	O	1.247607	1.185482	-0.220578
	H277	H	1.254481	1.193843	-0.229084
	H278	H	1.255782	1.183879	-0.210678
	O279	O	-0.034906	0.007215	1.141437
	H280	H	-0.028787	0.004595	1.146183
	H281	H	-0.043051	0.008646	1.132926
	O282	O	0.321733	0.421147	0.361484
	H283	H	0.316375	0.403502	0.330805
	H284	H	0.327226	0.421086	0.375432
	O285	O	0.551707	1.706162	0.714740
	H286	H	0.562324	1.703905	0.706565
	H287	H	0.546936	1.729475	0.740290
	O288	O	1.042014	-0.236318	0.784539
	H289	H	1.042802	-0.256412	0.753051
	H290	H	1.043933	-0.225612	0.785265
	O291	O	0.813162	1.004173	0.778654
	H292	H	0.801978	1.012141	0.750692
	H293	H	0.824249	1.014884	0.783778
	O294	O	-0.192101	-0.088999	-0.085904
	H295	H	-0.183310	-0.091752	-0.077124
	H296	H	-0.190299	-0.077509	-0.089175
	O297	O	1.014466	-0.021971	0.171062
	H298	H	0.999975	-0.021420	0.177504
	H299	H	1.008280	-0.031332	0.171069
	O300	O	-0.192409	-0.229577	0.027519
	H301	H	-0.188911	-0.231712	0.022750
	H302	H	-0.192325	-0.233115	0.024777
	O303	O	-0.434691	0.486208	-0.456642
	H304	H	-0.438543	0.481884	-0.461281
	H305	H	-0.428441	0.476240	-0.464912
	O306	O	0.812519	-0.222586	0.203465
	H307	H	0.807485	-0.209658	0.170615
	H308	H	0.778610	-0.254658	0.231523
	O309	O	-0.014934	0.950176	0.765337
	H310	H	-0.025060	0.958062	0.763585
	H311	H	-0.010960	0.945407	0.779852
	O312	O	0.684378	0.418983	0.604018
	H313	H	0.673133	0.412321	0.610178
	H314	H	0.675575	0.416025	0.597014
	O315	O	0.223828	0.183041	0.184859
	H316	H	0.227503	0.183602	0.166185
	H317	H	0.227452	0.165865	0.165265
	O318	O	0.909702	1.147584	-0.057991
	H319	H	0.924434	1.148644	-0.048426
	H320	H	0.900454	1.154618	-0.047972
	O321	O	0.142250	1.195711	0.884927
	H322	H	0.136840	1.200731	0.882010
	H323	H	0.124279	1.182783	0.870340
	O324	O	1.229281	-0.219683	0.788676
	H325	H	1.221710	-0.244525	0.770953
	H326	H	1.227931	-0.196930	0.816797
	O327	O	0.647152	0.567310	0.702810
	H328	H	0.654682	0.578684	0.722136
	H329	H	0.651136	0.536901	0.697146
	O330	O	-0.183856	1.094273	-0.042965
	H331	H	-0.191585	1.110857	-0.049961
	H332	H	-0.166884	1.085254	-0.041727
	O333	O	-0.003829	-0.016250	0.074065
	H334	H	-0.008316	-0.023273	0.077615
	H335	H	-0.000130	-0.015606	0.079210
	O336	O	-0.035549	1.212471	1.064788
	H337	H	-0.031911	1.202407	1.085959
	H338	H	-0.031099	1.215759	1.066842
	O339	O	0.501215	0.623881	0.346833
	H340	H	0.503408	0.623497	0.356992
	H341	H	0.500611	0.634065	0.338313
	O342	O	0.063344	0.967063	0.135180
	H343	H	0.058516	0.966101	0.133333
	H344	H	0.093855	0.972374	0.126930
	O345	O	0.329988	0.499987	0.285174
	H346	H	0.319228	0.497523	0.262764
	H347	H	0.335424	0.495613	0.282868
	O348	O	0.205052	1.033417	1.172163
	H349	H	0.211431	1.016209	1.171454
	H350	H	0.201301	1.034544	1.180323
	O351	O	0.504454	0.450201	1.394793
	H352	H	0.489774	0.445085	1.387256
	H353	H	0.516643	0.450446	1.393467
	O354	O	1.197750	0.204146	1.002523
	H355	H	1.211671	0.230367	1.006309
	H356	H	1.190179	0.193491	0.978029
	O357	O	0.709100	0.466578	0.277122
	H358	H	0.725313	0.459332	0.256041
	H359	H	0.704157	0.450897	0.287824
	O360	O	0.315327	0.567550	0.579693
	H361	H	0.317795	0.548972	0.559506
	H362	H	0.301188	0.584520	0.569745
	O363	O	0.422986	0.669013	0.612015
	H364	H	0.422045	0.658835	0.585108
	H365	H	0.440350	0.661066	0.614875
	O366	O	0.436926	0.522237	0.682343
	H367	H	0.440570	0.524469	0.681641
	H368	H	0.436603	0.536370	0.687655
	O369	O	-0.176378	0.107441	1.182904
	H370	H	-0.160455	0.104161	1.176133
	H371	H	-0.172211	0.088447	1.174711
	O372	O	0.084140	0.816066	0.940534
	H373	H	0.083901	0.818758	0.931188
	H374	H	0.075332	0.817728	0.939735
	O375	O	0.992642	-0.170283	-0.074169
	H376	H	0.988561	-0.165547	-0.075130
	H377	H	1.005606	-0.169897	-0.068861
	O378	O	0.633883	0.382780	0.693742
	H379	H	0.637237	0.369459	0.698470
	H380	H	0.623572	0.390135	0.682953
	O381	O	-0.462333	1.354862	-0.390930
	H382	H	-0.482854	1.364636	-0.413350
	H383	H	-0.473197	1.342437	-0.378036
	O384	O	0.677319	0.685591	0.604304
	H385	H	0.696854	0.655838	0.615032
	H386	H	0.640854	0.697052	0.624917
	O387	O	0.497324	1.696314	1.535239
	H388	H	0.502724	1.695537	1.557091
	H389	H	0.473222	1.700368	1.536761
	O390	O	-0.762986	0.958912	0.778545
	H391	H	-0.761921	0.947160	0.775076
	H392	H	-0.755200	0.964200	0.768935
	O393	O	0.996618	0.202374	-0.218498
	H394	H	0.998904	0.214208	-0.237985
	H395	H	0.979415	0.203485	-0.214538
	O396	O	0.835794	0.171135	0.805222
	H397	H	0.826742	0.159892	0.808369
	H398	H	0.847949	0.178827	0.831895
	O399	O	0.549665	0.264929	0.280693
	H400	H	0.559719	0.243004	0.254773
	H401	H	0.579602	0.274192	0.277570
	O402	O	0.838426	-0.075334	1.195718
	H403	H	0.823000	-0.091975	1.204840
	H404	H	0.840813	-0.092980	1.209615
	O405	O	0.242145	-0.203089	-0.013333
	H406	H	0.252482	-0.202258	-0.024500
	H407	H	0.257238	-0.212179	-0.017849
	O408	O	1.192099	0.847317	1.088772
	H409	H	1.193676	0.861959	1.103011
	H410	H	1.179810	0.848312	1.075868
	O411	O	1.471510	0.280259	-0.551744
	H412	H	1.482746	0.293106	-0.556537
	H413	H	1.481927	0.285345	-0.571332
	O414	O	0.418347	-0.654064	0.686772
	H415	H	0.411855	-0.633794	0.697536
	H416	H	0.412107	-0.655925	0.667227
	O417	O	0.377360	-0.635287	0.597519
	H418	H	0.366478	-0.621181	0.611384
	H419	H	0.383708	-0.623836	0.582768
	O420	O	1.069964	-0.048205	1.043634
	H421	H	1.073558	-0.043154	1.033549
	H422	H	1.067720	-0.060954	1.056564
	O423	O	0.755553	1.250178	0.267031
	H424	H	0.770623	1.243832	0.301808
	H425	H	0.780667	1.232297	0.242787
	O426	O	0.001369	0.769227	0.217171
	H427	H	-0.006967	0.745469	0.221692
	H428	H	-0.031852	0.761141	0.218049
	O429	O	0.739055	0.273312	0.465475
	H430	H	0.718654	0.278180	0.479458
	H431	H	0.767144	0.243446	0.464490
	O432	O	1.177927	-0.018644	1.052079
	H433	H	1.168853	-0.030060	1.044927
	H434	H	1.172732	-0.024855	1.039508
	O435	O	0.332011	0.654474	0.313418
	H436	H	0.348240	0.640146	0.304343
	H437	H	0.343174	0.657812	0.292410
	O438	O	0.361097	0.698376	0.403593
	H439	H	0.374959	0.698186	0.375716
	H440	H	0.347468	0.713339	0.401963
	O441	O	1.032652	0.943491	0.018142
	H442	H	1.043905	0.945184	0.014783
	H443	H	1.027292	0.944105	0.005257
	O444	O	0.310776	0.277990	0.516621
	H445	H	0.303591	0.273579	0.508830
	H446	H	0.315071	0.265688	0.514510
	O447	O	0.116223	0.020863	0.852766
	H448	H	0.103679	0.009114	0.863033
	H449	H	0.129349	0.014267	0.856783
	O450	O	0.680363	0.583353	0.396015
	H451	H	0.678522	0.572315	0.399122
	H452	H	0.680462	0.575227	0.410703
	O453	O	0.602576	0.468556	0.533828
	H454	H	0.590302	0.467727	0.532809
	H455	H	0.607174	0.468417	0.540912
	O456	O	0.609872	1.313944	0.536709
	H457	H	0.607799	1.323535	0.537127
	H458	H	0.595393	1.297179	0.529623
	O459	O	0.360374	0.467479	0.480104
	H460	H	0.364427	0.467870	0.474904
	H461	H	0.350200	0.456308	0.459682
	O462	O	0.713442	0.673059	0.377309
	H463	H	0.704519	0.681143	0.399403
	H464	H	0.704740	0.649414	0.396061
	O465	O	0.517832	0.498903	0.294079
	H466	H	0.522610	0.499564	0.285664
	H467	H	0.514286	0.499055	0.305765
	O468	O	0.015528	1.002664	-0.056635
	H469	H	0.023797	0.996844	-0.055277
	H470	H	0.027528	1.029374	-0.063274
	O471	O	0.641563	0.654659	0.477262
	H472	H	0.647540	0.672505	0.495094
	H473	H	0.648145	0.652239	0.503339
	O474	O	1.081962	1.144132	0.137115
	H475	H	1.101439	1.144569	0.145269
	H476	H	1.093491	1.160625	0.141183
	O477	O	-0.314671	0.439189	1.427592
	H478	H	-0.307317	0.439261	1.428212
	H479	H	-0.310330	0.433218	1.413855
