data_Molecule from HDF5

_cell_length_a		16.342946
_cell_length_b		16.293091
_cell_length_c		16.269685
_cell_angle_alpha	90.188344
_cell_angle_beta	89.980549
_cell_angle_gamma	90.009575
_symmetry_space_group_name_H-M	'P 1'
_symmetry_Int_Tables_number		1

loop_
	_symmetry_equiv_pos_as_xyz
	x,y,z

loop_
	_atom_site_label
	_atom_site_type_symbol
	_atom_site_fract_x
	_atom_site_fract_y
	_atom_site_fract_z
	H0	H	0.398968	0.846132	0.713259
	H1	H	0.595166	0.173733	0.715360
	H2	H	0.594007	0.845962	0.286736
	H3	H	0.399850	0.173806	0.286722
	H4	H	0.712772	0.409772	0.836177
	H5	H	0.713868	0.610541	0.162224
	H6	H	0.283680	0.607096	0.835531
	H7	H	0.283395	0.412117	0.162830
	H8	H	0.834929	0.723845	0.401899
	H9	H	0.160548	0.726687	0.599543
	H10	H	0.834443	0.296434	0.596439
	H11	H	0.160521	0.294000	0.401267
	H12	H	0.835577	0.411127	0.714760
	H13	H	0.162284	0.607634	0.713740
	H14	H	0.834993	0.606256	0.286637
	H15	H	0.161868	0.410587	0.285053
	H16	H	0.400601	0.722759	0.835260
	H17	H	0.596278	0.723530	0.163854
	H18	H	0.597587	0.293650	0.836814
	H19	H	0.399112	0.296180	0.163335
	H20	H	0.711613	0.846536	0.400997
	H21	H	0.712254	0.173730	0.600409
	H22	H	0.281563	0.846991	0.598433
	H23	H	0.282858	0.173763	0.402001
	H24	H	0.900957	0.345744	0.212100
	H25	H	0.096613	0.673498	0.213802
	H26	H	0.095875	0.345714	0.785251
	H27	H	0.901167	0.673827	0.786003
	H28	H	0.211920	0.909849	0.335876
	H29	H	0.211224	0.110179	0.662694
	H30	H	0.782834	0.107559	0.336754
	H31	H	0.781931	0.911474	0.663644
	H32	H	0.335514	0.225171	0.901516
	H33	H	0.660986	0.224812	0.098519
	H34	H	0.334609	0.795341	0.097454
	H35	H	0.661341	0.794908	0.901609
	H36	H	0.334761	0.912001	0.213872
	H37	H	0.661259	0.108122	0.214995
	H38	H	0.334318	0.107988	0.786121
	H39	H	0.661020	0.910639	0.783894
	H40	H	0.899978	0.221436	0.335485
	H41	H	0.094789	0.224134	0.663217
	H42	H	0.095684	0.794977	0.336395
	H43	H	0.898343	0.795596	0.663480
	H44	H	0.212834	0.345952	0.899652
	H45	H	0.212516	0.672837	0.097279
	H46	H	0.784273	0.346191	0.096484
	H47	H	0.782578	0.672985	0.900270
	H48	H	0.397180	0.129022	0.594507
	H49	H	0.586647	0.892798	0.599283
	H50	H	0.593490	0.126001	0.410790
	H51	H	0.401407	0.892432	0.405552
	H52	H	0.585379	0.409836	0.116819
	H53	H	0.585260	0.607975	0.883299
	H54	H	0.402572	0.610884	0.118629
	H55	H	0.409620	0.407599	0.881135
	H56	H	0.115279	0.605613	0.407109
	H57	H	0.884685	0.602502	0.586772
	H58	H	0.112958	0.418740	0.591136
	H59	H	0.880897	0.419320	0.399203
	H60	H	0.114696	0.415431	0.595108
	H61	H	0.883030	0.597836	0.596267
	H62	H	0.113687	0.601581	0.409581
	H63	H	0.880081	0.409004	0.404830
	H64	H	0.398711	0.597179	0.115805
	H65	H	0.598550	0.604276	0.879545
	H66	H	0.601037	0.416659	0.119528
	H67	H	0.395752	0.418448	0.881081
	H68	H	0.591816	0.127943	0.404118
	H69	H	0.585272	0.897682	0.585944
	H70	H	0.408156	0.126617	0.598734
	H71	H	0.407064	0.894545	0.404934
	H72	H	0.897814	0.629658	0.096437
	H73	H	0.083294	0.394245	0.096692
	H74	H	0.087369	0.624494	0.908347
	H75	H	0.909359	0.397943	0.914229
	H76	H	0.089778	0.919097	0.615758
	H77	H	0.082882	0.107563	0.383483
	H78	H	0.903403	0.102468	0.617168
	H79	H	0.906538	0.913479	0.383726
	H80	H	0.612605	0.099881	0.909483
	H81	H	0.383641	0.105639	0.087409
	H82	H	0.613315	0.915411	0.091689
	H83	H	0.381211	0.914485	0.905407
	H84	H	0.613485	0.918499	0.094069
	H85	H	0.383889	0.096442	0.094590
	H86	H	0.613462	0.100400	0.905430
	H87	H	0.383106	0.914870	0.907848
	H88	H	0.904866	0.103648	0.616402
	H89	H	0.098656	0.105459	0.378872
	H90	H	0.090112	0.917697	0.616191
	H91	H	0.900172	0.917091	0.382764
	H92	H	0.094761	0.625419	0.910922
	H93	H	0.091492	0.395917	0.082801
	H94	H	0.911698	0.625901	0.097482
	H95	H	0.894590	0.390166	0.907401
	H96	H	0.405908	0.123996	0.587205
	H97	H	0.597316	0.892529	0.590358
	H98	H	0.587026	0.124787	0.408499
	H99	H	0.403893	0.895002	0.410323
	H100	H	0.588155	0.426634	0.112886
	H101	H	0.589191	0.594856	0.886236
	H102	H	0.412345	0.601618	0.113285
	H103	H	0.411131	0.424328	0.887083
	H104	H	0.114522	0.600904	0.404813
	H105	H	0.880793	0.607862	0.594959
	H106	H	0.114880	0.413708	0.590048
	H107	H	0.884466	0.418451	0.410353
	H108	H	0.904803	0.623939	0.085108
	H109	H	0.098950	0.389715	0.096087
	H110	H	0.092574	0.627394	0.903213
	H111	H	0.909505	0.391974	0.897581
	H112	H	0.090845	0.918585	0.616233
	H113	H	0.090086	0.092622	0.385730
	H114	H	0.902542	0.104961	0.616581
	H115	H	0.906198	0.920890	0.385550
	H116	H	0.613850	0.103828	0.907815
	H117	H	0.379315	0.106609	0.097860
	H118	H	0.614813	0.914619	0.095194
	H119	H	0.382465	0.917103	0.906415
	C120	C	0.375339	0.018511	0.621569
	C121	C	0.618375	1.002122	0.621549
	C122	C	0.619084	0.018443	0.378607
	C123	C	0.375651	1.001863	0.378427
	C124	C	0.619875	0.388566	0.008110
	C125	C	0.619408	0.631044	0.991299
	C126	C	0.376501	0.631235	0.007570
	C127	C	0.376955	0.388327	0.991229
	C128	C	0.006609	0.630943	0.378884
	C129	C	0.990239	0.631813	0.622039
	C130	C	0.006478	0.387808	0.620664
	C131	C	0.989554	0.386823	0.376530
	C132	C	0.876516	0.518176	0.120920
	C133	C	0.119825	0.501012	0.120807
	C134	C	0.119758	0.517728	0.878247
	C135	C	0.876204	0.501641	0.877718
	C136	C	0.118839	0.888697	0.508167
	C137	C	0.118805	0.130947	0.490724
	C138	C	0.875575	0.131295	0.508260
	C139	C	0.875774	0.888587	0.491973
	C140	C	0.505808	0.130358	0.878951
	C141	C	0.489960	0.131661	0.121817
	C142	C	0.506282	0.887822	0.121996
	C143	C	0.489786	0.887238	0.877748
	C144	C	0.378168	0.895308	0.675958
	C145	C	0.615860	0.124928	0.677367
	C146	C	0.615694	0.895081	0.323673
	C147	C	0.378619	0.125081	0.323969
	C148	C	0.674705	0.390264	0.884966
	C149	C	0.675133	0.629649	0.113904
	C150	C	0.321799	0.627941	0.884156
	C151	C	0.321163	0.390957	0.114087
	C152	C	0.883664	0.685834	0.381412
	C153	C	0.112424	0.687747	0.619850
	C154	C	0.883481	0.333560	0.617513
	C155	C	0.112037	0.331621	0.379655
	C156	C	0.883945	0.390531	0.676204
	C157	C	0.113127	0.628729	0.676632
	C158	C	0.883795	0.627686	0.324001
	C159	C	0.112721	0.389641	0.322050
	C160	C	0.379805	0.685413	0.884228
	C161	C	0.616613	0.685922	0.114766
	C162	C	0.617506	0.332535	0.885181
	C163	C	0.378755	0.333529	0.114318
	C164	C	0.674012	0.895471	0.380501
	C165	C	0.673883	0.124822	0.620243
	C166	C	0.319759	0.895610	0.618964
	C167	C	0.320408	0.124911	0.381076
	C168	C	0.879826	0.394929	0.174907
	C169	C	0.117235	0.624358	0.176102
	C170	C	0.116929	0.394520	0.822973
	C171	C	0.879701	0.624584	0.823071
	C172	C	0.174278	0.889986	0.385068
	C173	C	0.173655	0.130157	0.613901
	C174	C	0.820922	0.128124	0.385374
	C175	C	0.820443	0.891359	0.614963
	C176	C	0.383766	0.186553	0.881092
	C177	C	0.612574	0.186586	0.119307
	C178	C	0.383507	0.832727	0.118836
	C179	C	0.612672	0.832461	0.880456
	C180	C	0.383322	0.890931	0.176475
	C181	C	0.612431	0.128858	0.177206
	C182	C	0.383157	0.128174	0.824054
	C183	C	0.612320	0.889732	0.821960
	C184	C	0.879143	0.184716	0.384876
	C185	C	0.115536	0.186594	0.614113
	C186	C	0.116194	0.833052	0.385150
	C187	C	0.878131	0.833704	0.614946
	C188	C	0.175219	0.394822	0.879629
	C189	C	0.174943	0.624132	0.118291
	C190	C	0.821969	0.395077	0.117396
	C191	C	0.821037	0.624230	0.880026
	C192	C	0.397166	0.104300	0.599756
	C193	C	0.596047	0.916384	0.598600
	C194	C	0.596999	0.104124	0.400991
	C195	C	0.397692	0.916228	0.400415
	C196	C	0.597958	0.411086	0.094086
	C197	C	0.597364	0.608886	0.905185
	C198	C	0.398162	0.609684	0.093659
	C199	C	0.399115	0.410059	0.905237
	C200	C	0.092281	0.609262	0.400788
	C201	C	0.904917	0.609349	0.599489
	C202	C	0.092054	0.409579	0.598650
	C203	C	0.904032	0.409013	0.398377
	C204	C	0.898259	0.604212	0.099307
	C205	C	0.097833	0.415362	0.098514
	C206	C	0.097899	0.603552	0.900666
	C207	C	0.898155	0.415540	0.899641
	C208	C	0.096654	0.911649	0.593885
	C209	C	0.097004	0.108427	0.404830
	C210	C	0.897258	0.109834	0.594675
	C211	C	0.897951	0.910475	0.406137
	C212	C	0.591277	0.107904	0.901093
	C213	C	0.404396	0.109422	0.099722
	C214	C	0.591947	0.909773	0.100137
	C215	C	0.404331	0.909135	0.899899
	Zn216	Zn	0.497425	0.009870	0.749939
	Zn217	Zn	0.497424	0.010167	0.250365
	Zn218	Zn	0.747459	0.509867	-0.000532
	Zn219	Zn	0.248373	0.509065	-0.000977
	Zn220	Zn	-0.002140	0.760252	0.500290
	Zn221	Zn	-0.002516	0.259028	0.499245
	Zn222	Zn	-0.001315	0.509162	0.750050
	Zn223	Zn	-0.001419	0.509824	0.249616
	Zn224	Zn	0.498312	0.759364	0.000322
	Zn225	Zn	0.498470	0.260242	0.000057
	Zn226	Zn	0.747112	0.010247	0.500160
	Zn227	Zn	0.247151	0.010134	0.499800
	N228	N	0.412024	0.972559	0.677688
	N229	N	0.582150	0.047445	0.678299
	N230	N	0.582289	0.972548	0.322365
	N231	N	0.412174	0.047768	0.322241
	N232	N	0.676322	0.424286	0.962390
	N233	N	0.676692	0.596036	0.036131
	N234	N	0.319648	0.594931	0.961882
	N235	N	0.319955	0.424334	0.036556
	N236	N	0.961114	0.688054	0.414786
	N237	N	0.035108	0.689727	0.586684
	N238	N	0.960603	0.331817	0.583695
	N239	N	0.034829	0.329887	0.412942
	N240	N	0.961236	0.423784	0.678127
	N241	N	0.036086	0.594334	0.677798
	N242	N	0.961021	0.594295	0.322413
	N243	N	0.035315	0.423177	0.320003
	N244	N	0.413040	0.687476	0.961890
	N245	N	0.582817	0.686955	0.037422
	N246	N	0.583770	0.331681	0.962578
	N247	N	0.412900	0.332001	0.036911
	N248	N	0.676143	0.973098	0.413978
	N249	N	0.675658	0.047456	0.586242
	N250	N	0.318193	0.973112	0.585480
	N251	N	0.318458	0.047247	0.414243
	N252	N	0.913067	0.472306	0.177260
	N253	N	0.083381	0.546956	0.177551
	N254	N	0.083008	0.471733	0.822055
	N255	N	0.913209	0.547209	0.821570
	N256	N	0.176108	0.923913	0.462664
	N257	N	0.175644	0.096125	0.536412
	N258	N	0.818706	0.095840	0.463248
	N259	N	0.818821	0.924716	0.537306
	N260	N	0.460973	0.187863	0.914777
	N261	N	0.535356	0.188560	0.085735
	N262	N	0.460905	0.830899	0.085672
	N263	N	0.535743	0.830859	0.914610
	N264	N	0.460594	0.924364	0.178571
	N265	N	0.535133	0.095356	0.178624
	N266	N	0.460022	0.093936	0.822827
	N267	N	0.534883	0.923021	0.820281
	N268	N	0.912604	0.186761	0.462504
	N269	N	0.081926	0.187144	0.536530
	N270	N	0.082519	0.832037	0.462677
	N271	N	0.911655	0.831725	0.537490
	N272	N	0.177102	0.472527	0.913248
	N273	N	0.176762	0.546614	0.084731
	N274	N	0.819754	0.472934	0.084613
	N275	N	0.818769	0.546716	0.913069
	O276	O	0.564707	0.513084	0.489491
	H277	H	0.570100	0.515785	0.498359
	H278	H	0.575134	0.515513	0.497448
	O279	O	0.070099	-0.074012	-0.003505
	H280	H	0.078970	-0.072810	-0.002094
	H281	H	0.067850	-0.077939	-0.005253
	O282	O	1.040366	-0.040116	1.036361
	H283	H	1.039940	-0.043085	1.029275
	H284	H	1.047209	-0.043415	1.038868
	O285	O	0.593987	0.551927	0.481740
	H286	H	0.590441	0.548859	0.469560
	H287	H	0.582801	0.544095	0.487895
	O288	O	1.070100	-0.038513	-0.013597
	H289	H	1.066574	-0.038938	-0.016290
	H290	H	1.064846	-0.034535	-0.008272
	O291	O	-0.468620	0.547829	-0.508768
	H292	H	-0.470353	0.559806	-0.508734
	H293	H	-0.471984	0.551933	-0.515703
	O294	O	0.597058	0.558087	0.508318
	H295	H	0.604150	0.556298	0.502012
	H296	H	0.602698	0.556815	0.500750
	O297	O	0.062258	0.963305	0.070372
	H298	H	0.064326	0.957624	0.061882
	H299	H	0.070518	0.952586	0.068096
	O300	O	0.986234	-0.035012	1.030531
	H301	H	0.985531	-0.041264	1.037301
	H302	H	0.990476	-0.027295	1.032700
	O303	O	0.608295	0.433125	0.425889
	H304	H	0.610056	0.440655	0.436034
	H305	H	0.612967	0.435182	0.425191
	O306	O	0.023670	0.976921	1.007384
	H307	H	0.023240	0.986819	1.004465
	H308	H	0.023671	0.980644	1.009661
	O309	O	0.541593	0.544712	0.468242
	H310	H	0.540888	0.537138	0.470170
	H311	H	0.538753	0.545344	0.473371
