data_Molecule from HDF5

_cell_length_a		16.394420
_cell_length_b		16.483376
_cell_length_c		16.369602
_cell_angle_alpha	90.075997
_cell_angle_beta	90.091313
_cell_angle_gamma	90.099266
_symmetry_space_group_name_H-M	'P 1'
_symmetry_Int_Tables_number		1

loop_
	_symmetry_equiv_pos_as_xyz
	x,y,z

loop_
	_atom_site_label
	_atom_site_type_symbol
	_atom_site_fract_x
	_atom_site_fract_y
	_atom_site_fract_z
	H0	H	0.387810	0.833126	0.730692
	H1	H	0.600529	0.149420	0.734771
	H2	H	0.604189	0.836073	0.285028
	H3	H	0.390323	0.149617	0.289067
	H4	H	0.714020	0.386903	0.850107
	H5	H	0.716799	0.599175	0.167776
	H6	H	0.272155	0.594966	0.850914
	H7	H	0.271730	0.385661	0.168919
	H8	H	0.834562	0.717505	0.401736
	H9	H	0.150151	0.717736	0.620076
	H10	H	0.835449	0.268832	0.618400
	H11	H	0.150575	0.271332	0.403321
	H12	H	0.832875	0.388890	0.729987
	H13	H	0.151779	0.598373	0.731693
	H14	H	0.835718	0.601996	0.285308
	H15	H	0.151639	0.389550	0.290426
	H16	H	0.387492	0.710878	0.850331
	H17	H	0.602789	0.716117	0.167235
	H18	H	0.598106	0.270512	0.850075
	H19	H	0.387155	0.269735	0.167837
	H20	H	0.716035	0.835358	0.403908
	H21	H	0.717546	0.149842	0.620344
	H22	H	0.270670	0.833906	0.615843
	H23	H	0.273483	0.150281	0.405526
	H24	H	0.887160	0.334984	0.232882
	H25	H	0.100167	0.650432	0.234156
	H26	H	0.097398	0.335092	0.788601
	H27	H	0.885976	0.649627	0.787957
	H28	H	0.211905	0.887805	0.350206
	H29	H	0.213508	0.096299	0.670119
	H30	H	0.770579	0.099099	0.351453
	H31	H	0.770535	0.886981	0.669045
	H32	H	0.334426	0.211726	0.903218
	H33	H	0.650000	0.218095	0.120925
	H34	H	0.335403	0.767723	0.118009
	H35	H	0.651250	0.766704	0.901135
	H36	H	0.335028	0.886435	0.231316
	H37	H	0.652068	0.098977	0.233822
	H38	H	0.333903	0.093155	0.790785
	H39	H	0.653199	0.886336	0.788870
	H40	H	0.888343	0.212914	0.350711
	H41	H	0.100721	0.215905	0.668837
	H42	H	0.100037	0.768771	0.352722
	H43	H	0.884281	0.770255	0.668409
	H44	H	0.209397	0.332240	0.908485
	H45	H	0.219321	0.647560	0.121258
	H46	H	0.770247	0.334693	0.117329
	H47	H	0.768586	0.648436	0.901356
	H48	H	0.405146	0.106090	0.605087
	H49	H	0.581204	0.879808	0.601757
	H50	H	0.578066	0.103310	0.425408
	H51	H	0.402219	0.876898	0.417096
	H52	H	0.581363	0.398839	0.124823
	H53	H	0.585689	0.578891	0.894977
	H54	H	0.409101	0.585917	0.123818
	H55	H	0.401338	0.412468	0.899710
	H56	H	0.098636	0.572234	0.431584
	H57	H	0.881044	0.583391	0.594132
	H58	H	0.106015	0.403223	0.598699
	H59	H	0.878241	0.396292	0.427354
	H60	H	0.105189	0.405376	0.597440
	H61	H	0.880065	0.577340	0.600589
	H62	H	0.107167	0.577725	0.413141
	H63	H	0.882936	0.409984	0.425801
	H64	H	0.399462	0.578543	0.125517
	H65	H	0.578585	0.573202	0.899932
	H66	H	0.585341	0.407629	0.122531
	H67	H	0.411210	0.393944	0.896964
	H68	H	0.584592	0.104382	0.424005
	H69	H	0.579091	0.882189	0.596495
	H70	H	0.407300	0.101901	0.596942
	H71	H	0.407430	0.880091	0.421737
	H72	H	0.909914	0.604195	0.100636
	H73	H	0.082397	0.381393	0.095805
	H74	H	0.080056	0.602999	0.928625
	H75	H	0.908859	0.378065	0.912770
	H76	H	0.082934	0.901444	0.625056
	H77	H	0.084623	0.077297	0.397689
	H78	H	0.909570	0.080747	0.622457
	H79	H	0.905678	0.903436	0.397620
	H80	H	0.607153	0.081724	0.920765
	H81	H	0.379508	0.087757	0.095114
	H82	H	0.608485	0.903360	0.102940
	H83	H	0.379371	0.897915	0.920217
	H84	H	0.605735	0.897587	0.092506
	H85	H	0.385783	0.074874	0.092610
	H86	H	0.607235	0.082734	0.924640
	H87	H	0.381468	0.901292	0.923011
	H88	H	0.905317	0.084024	0.624518
	H89	H	0.078260	0.085500	0.397483
	H90	H	0.083458	0.907118	0.623180
	H91	H	0.904621	0.906815	0.398341
	H92	H	0.089649	0.608115	0.921679
	H93	H	0.085692	0.377098	0.103628
	H94	H	0.906945	0.601555	0.091971
	H95	H	0.908143	0.383089	0.928055
	H96	H	0.399380	0.105687	0.598400
	H97	H	0.585002	0.879901	0.596551
	H98	H	0.580449	0.105517	0.419402
	H99	H	0.400322	0.878123	0.424803
	H100	H	0.575771	0.405463	0.119579
	H101	H	0.576651	0.583104	0.897066
	H102	H	0.409433	0.574130	0.120725
	H103	H	0.391480	0.396147	0.890200
	H104	H	0.107058	0.591344	0.429275
	H105	H	0.877691	0.585799	0.601919
	H106	H	0.105496	0.405520	0.600721
	H107	H	0.876040	0.403528	0.414596
	H108	H	0.900896	0.605399	0.097513
	H109	H	0.077278	0.380752	0.103226
	H110	H	0.078014	0.606092	0.916248
	H111	H	0.894996	0.376368	0.921200
	H112	H	0.078503	0.904350	0.622456
	H113	H	0.088198	0.086106	0.393715
	H114	H	0.903901	0.078180	0.622879
	H115	H	0.908563	0.906366	0.398732
	H116	H	0.606434	0.079035	0.923521
	H117	H	0.379682	0.077464	0.106213
	H118	H	0.603411	0.908993	0.093429
	H119	H	0.379651	0.902374	0.917923
	C120	C	0.371475	0.000066	0.632077
	C121	C	0.615373	0.984147	0.632363
	C122	C	0.615115	0.000945	0.389116
	C123	C	0.371930	0.983234	0.389004
	C124	C	0.613944	0.370706	0.017641
	C125	C	0.614706	0.612935	1.001175
	C126	C	0.372391	0.611759	0.018493
	C127	C	0.370394	0.369518	1.001124
	C128	C	0.000393	0.614400	0.389863
	C129	C	0.983989	0.615195	0.632581
	C130	C	0.001233	0.371290	0.632036
	C131	C	0.984015	0.371707	0.389621
	C132	C	0.871973	0.500392	0.131182
	C133	C	0.115568	0.483524	0.134119
	C134	C	0.113660	0.500789	0.889990
	C135	C	0.871079	0.483563	0.888361
	C136	C	0.114189	0.871503	0.518720
	C137	C	0.115753	0.115014	0.501675
	C138	C	0.872808	0.113584	0.518339
	C139	C	0.872165	0.871935	0.502340
	C140	C	0.501674	0.112380	0.889734
	C141	C	0.485264	0.113810	0.132090
	C142	C	0.501903	0.869854	0.130678
	C143	C	0.485318	0.868636	0.887977
	C144	C	0.369216	0.880975	0.691513
	C145	C	0.618745	0.102133	0.694745
	C146	C	0.620175	0.883027	0.326674
	C147	C	0.371079	0.102142	0.329061
	C148	C	0.674373	0.368210	0.898082
	C149	C	0.676427	0.616547	0.120190
	C150	C	0.311949	0.613496	0.898628
	C151	C	0.311554	0.367784	0.120917
	C152	C	0.882196	0.676665	0.385094
	C153	C	0.102858	0.676659	0.636807
	C154	C	0.882679	0.309476	0.635858
	C155	C	0.103275	0.311832	0.386335
	C156	C	0.881334	0.369346	0.691526
	C157	C	0.103510	0.617466	0.692884
	C158	C	0.882596	0.619064	0.326938
	C159	C	0.103707	0.370655	0.329834
	C160	C	0.369826	0.670999	0.898293
	C161	C	0.619486	0.674865	0.119879
	C162	C	0.616387	0.310534	0.897894
	C163	C	0.369091	0.309817	0.120335
	C164	C	0.676460	0.882901	0.385864
	C165	C	0.677020	0.102307	0.637289
	C166	C	0.310909	0.881285	0.634168
	C167	C	0.313088	0.102720	0.387057
	C168	C	0.869179	0.382213	0.192552
	C169	C	0.118573	0.602458	0.194538
	C170	C	0.115490	0.382066	0.829380
	C171	C	0.867786	0.602027	0.827725
	C172	C	0.172881	0.869647	0.398443
	C173	C	0.174726	0.115863	0.621964
	C174	C	0.811036	0.116928	0.399108
	C175	C	0.810478	0.868824	0.621104
	C176	C	0.382025	0.171532	0.886304
	C177	C	0.603083	0.176699	0.137438
	C178	C	0.383113	0.808144	0.135207
	C179	C	0.604092	0.807823	0.884346
	C180	C	0.382911	0.867221	0.191972
	C181	C	0.604210	0.117465	0.193819
	C182	C	0.381940	0.113012	0.829708
	C183	C	0.605058	0.867475	0.828218
	C184	C	0.869789	0.173485	0.398662
	C185	C	0.118656	0.175497	0.621062
	C186	C	0.117168	0.810069	0.399724
	C187	C	0.867504	0.810768	0.621262
	C188	C	0.171375	0.380655	0.888990
	C189	C	0.178095	0.600999	0.138453
	C190	C	0.811020	0.381954	0.134832
	C191	C	0.809372	0.601379	0.884650
	C192	C	0.396788	0.082899	0.607234
	C193	C	0.589365	0.902024	0.605853
	C194	C	0.588465	0.083144	0.415188
	C195	C	0.396293	0.900183	0.413923
	C196	C	0.588484	0.396479	0.100598
	C197	C	0.587946	0.586248	0.918922
	C198	C	0.398165	0.586751	0.101585
	C199	C	0.394358	0.393967	0.917350
	C200	C	0.082780	0.588023	0.417044
	C201	C	0.901233	0.589514	0.606557
	C202	C	0.083985	0.397136	0.606218
	C203	C	0.900793	0.396295	0.415145
	C204	C	0.898363	0.582465	0.104527
	C205	C	0.089499	0.401211	0.108297
	C206	C	0.089590	0.583787	0.914976
	C207	C	0.896750	0.400551	0.913604
	C208	C	0.088876	0.896936	0.601894
	C209	C	0.090835	0.090089	0.418119
	C210	C	0.898759	0.088223	0.601466
	C211	C	0.898751	0.898026	0.419726
	C212	C	0.585195	0.088190	0.915611
	C213	C	0.402919	0.087417	0.105641
	C214	C	0.584278	0.895892	0.103901
	C215	C	0.402116	0.893492	0.913103
	Zn216	Zn	0.493461	-0.008300	0.760519
	Zn217	Zn	0.494022	-0.008759	0.260111
	Zn218	Zn	0.742982	0.491625	0.009926
	Zn219	Zn	0.242645	0.491763	0.010649
	Zn220	Zn	-0.007384	0.743363	0.510951
	Zn221	Zn	-0.007034	0.242575	0.510559
	Zn222	Zn	-0.007103	0.493082	0.760466
	Zn223	Zn	-0.007520	0.493538	0.261008
	Zn224	Zn	0.492988	0.740545	0.009813
	Zn225	Zn	0.492921	0.241591	0.009450
	Zn226	Zn	0.743770	-0.006618	0.510421
	Zn227	Zn	0.243092	-0.008062	0.510433
	N228	N	0.406437	0.955799	0.690305
	N229	N	0.581242	0.027546	0.691950
	N230	N	0.582821	0.957602	0.328594
	N231	N	0.406787	0.026855	0.330085
	N232	N	0.672872	0.404993	0.973509
	N233	N	0.673498	0.578583	0.045476
	N234	N	0.313374	0.577488	0.974359
	N235	N	0.312276	0.404124	0.045642
	N236	N	0.956807	0.673684	0.423864
	N237	N	0.027484	0.675626	0.600079
	N238	N	0.958172	0.310844	0.599392
	N239	N	0.027878	0.312203	0.422775
	N240	N	0.956197	0.407091	0.689398
	N241	N	0.028535	0.580113	0.690485
	N242	N	0.956894	0.581107	0.330004
	N243	N	0.028303	0.407099	0.331598
	N244	N	0.406399	0.670210	0.973930
	N245	N	0.581808	0.672676	0.044906
	N246	N	0.579866	0.311684	0.973392
	N247	N	0.404844	0.310646	0.044682
	N248	N	0.673345	0.957192	0.424042
	N249	N	0.675066	0.027957	0.599325
	N250	N	0.312103	0.956415	0.598151
	N251	N	0.313266	0.027535	0.423373
	N252	N	0.906361	0.457048	0.190358
	N253	N	0.080517	0.528300	0.191952
	N254	N	0.080428	0.457677	0.829833
	N255	N	0.905523	0.527562	0.829948
	N256	N	0.171324	0.907074	0.473650
	N257	N	0.173169	0.079117	0.546611
	N258	N	0.812536	0.080678	0.474721
	N259	N	0.813233	0.906252	0.546276
	N260	N	0.457680	0.171359	0.922836
	N261	N	0.528237	0.174460	0.099614
	N262	N	0.458182	0.809600	0.097994
	N263	N	0.528560	0.808367	0.920649
	N264	N	0.457736	0.904787	0.189319
	N265	N	0.529999	0.078760	0.190502
	N266	N	0.457382	0.076980	0.831812
	N267	N	0.530016	0.904578	0.830222
	N268	N	0.907428	0.171600	0.473798
	N269	N	0.082643	0.175075	0.545208
	N270	N	0.081204	0.811264	0.475436
	N271	N	0.905163	0.812515	0.546317
	N272	N	0.170457	0.455612	0.926076
	N273	N	0.176470	0.526090	0.101677
	N274	N	0.812673	0.456407	0.097485
	N275	N	0.811675	0.526729	0.921765
	O276	O	0.568246	0.398429	0.656162
	H277	H	0.576939	0.416574	0.646413
	H278	H	0.548688	0.397484	0.649538
	O279	O	0.431331	0.495770	0.604573
	H280	H	0.446396	0.507515	0.611869
	H281	H	0.428100	0.506514	0.598659
	O282	O	-0.155496	1.106536	0.091675
	H283	H	-0.164773	1.133082	0.068819
	H284	H	-0.158784	1.081137	0.072998
	O285	O	0.918003	1.182967	-0.177807
	H286	H	0.946391	1.193436	-0.176211
	H287	H	0.919888	1.160523	-0.185094
	O288	O	0.922941	0.940299	1.018482
	H289	H	0.938847	0.952079	1.016042
	H290	H	0.930854	0.912433	1.010116
	O291	O	0.511132	0.688731	0.509120
	H292	H	0.501206	0.689305	0.477100
	H293	H	0.508248	0.688180	0.524819
	O294	O	1.142786	1.098051	1.160921
	H295	H	1.129623	1.105128	1.158487
	H296	H	1.142907	1.097173	1.175762
	O297	O	-0.032595	0.961176	-0.064036
	H298	H	-0.005095	0.959218	-0.046155
	H299	H	-0.039969	0.971108	-0.057859
	O300	O	0.541920	0.379361	0.694163
	H301	H	0.544277	0.387166	0.696703
	H302	H	0.536629	0.370354	0.701705
	O303	O	0.292601	0.555750	0.590951
	H304	H	0.300770	0.528239	0.584745
	H305	H	0.274260	0.551139	0.617617
	O306	O	0.178992	-0.029346	0.807709
	H307	H	0.179192	-0.005824	0.842373
	H308	H	0.183108	-0.034463	0.781125
	O309	O	1.097087	0.097494	0.104460
	H310	H	1.101606	0.102370	0.103153
	H311	H	1.083959	0.089348	0.121326
	O312	O	0.347874	0.299287	0.545991
	H313	H	0.346964	0.324743	0.559334
	H314	H	0.310534	0.277554	0.552729
	O315	O	0.376078	0.521114	0.565100
	H316	H	0.361894	0.509789	0.574042
	H317	H	0.378415	0.534709	0.572598
	O318	O	0.440785	0.505060	0.536602
	H319	H	0.437428	0.488231	0.524882
	H320	H	0.440179	0.502680	0.550168
	O321	O	0.550121	0.546150	0.320515
	H322	H	0.545250	0.564221	0.324409
	H323	H	0.551373	0.558760	0.316029
	O324	O	0.625283	0.329918	0.340925
	H325	H	0.644972	0.360829	0.332541
	H326	H	0.613795	0.325794	0.360122
	O327	O	0.694944	0.694493	0.568270
	H328	H	0.713165	0.719022	0.556609
	H329	H	0.677406	0.683335	0.555812
	O330	O	-0.041295	0.788410	0.972950
	H331	H	-0.065347	0.775970	0.973853
	H332	H	-0.040413	0.796759	0.958278
	O333	O	-0.691688	1.309406	0.698560
	H334	H	-0.681576	1.312378	0.695408
	H335	H	-0.679727	1.307105	0.703969
	O336	O	0.962447	0.945693	-0.188446
	H337	H	0.951056	0.952185	-0.181892
	H338	H	0.956267	0.956239	-0.183251
	O339	O	0.068544	0.834932	1.083641
	H340	H	0.075904	0.830645	1.071686
	H341	H	0.075672	0.831854	1.068163
	O342	O	0.211380	0.769644	-0.011495
	H343	H	0.238826	0.744623	-0.028817
	H344	H	0.209993	0.773333	-0.052022
	O345	O	0.021303	0.184420	0.926685
	H346	H	0.024402	0.186508	0.932660
	H347	H	0.045455	0.185367	0.947711
	O348	O	0.372571	0.377723	0.306354
	H349	H	0.392184	0.353908	0.316957
	H350	H	0.403821	0.402007	0.306328
	O351	O	1.201252	1.009758	-0.002562
	H352	H	1.204479	1.030505	0.013419
	H353	H	1.207485	0.993170	0.014371
	O354	O	1.177642	1.138507	1.013084
	H355	H	1.170541	1.131436	1.024939
	H356	H	1.192878	1.147466	1.039704
	O357	O	-0.210918	0.014826	-0.197738
	H358	H	-0.241347	0.016308	-0.221174
	H359	H	-0.210382	0.004467	-0.169432
	O360	O	0.697316	0.487214	0.306866
	H361	H	0.713068	0.489031	0.291725
	H362	H	0.699072	0.493958	0.311963
	O363	O	0.795139	-0.212267	0.058307
	H364	H	0.771026	-0.220134	0.074375
	H365	H	0.817023	-0.209482	0.089574
	O366	O	0.112387	-0.096169	1.142793
	H367	H	0.113451	-0.103544	1.148512
	H368	H	0.126887	-0.097450	1.143691
	O369	O	0.845395	0.133813	1.081791
	H370	H	0.820337	0.140989	1.073318
	H371	H	0.847512	0.123328	1.051199
	O372	O	0.932177	-0.156880	0.203977
	H373	H	0.954912	-0.162708	0.179123
	H374	H	0.939723	-0.161274	0.219894
	O375	O	0.069315	-0.856987	-0.061362
	H376	H	0.056387	-0.863458	-0.051265
	H377	H	0.061655	-0.860860	-0.048208
	O378	O	0.616708	0.659794	0.648671
	H379	H	0.631123	0.659495	0.617757
	H380	H	0.620169	0.645770	0.653630
	O381	O	-0.187259	1.176906	-0.087638
	H382	H	-0.200203	1.180024	-0.105685
	H383	H	-0.153452	1.167734	-0.099008
	O384	O	0.309109	0.667689	0.533702
	H385	H	0.316554	0.662610	0.552764
	H386	H	0.284322	0.677518	0.536494
	O387	O	0.488504	0.704353	0.326952
	H388	H	0.481531	0.728961	0.297850
	H389	H	0.459500	0.698563	0.331728
	O390	O	1.009539	0.787105	-0.186216
	H391	H	0.997695	0.779166	-0.196004
	H392	H	0.991847	0.799379	-0.198168
	O393	O	1.285981	0.513701	0.304584
	H394	H	1.273062	0.504375	0.280966
	H395	H	1.305972	0.492537	0.294176
	O396	O	0.349131	0.399409	0.476843
	H397	H	0.350638	0.396003	0.488794
	H398	H	0.357760	0.409786	0.455528
	O399	O	0.699407	0.301102	0.464564
	H400	H	0.713714	0.273863	0.454311
	H401	H	0.681958	0.299265	0.469213
	O402	O	0.857093	0.948931	0.198488
	H403	H	0.865526	0.962739	0.181152
	H404	H	0.840157	0.954191	0.215139
	O405	O	0.667355	0.514522	0.576874
	H406	H	0.656335	0.499670	0.571754
	H407	H	0.675254	0.516402	0.583151
	O408	O	0.514315	0.340818	0.605890
	H409	H	0.509880	0.338295	0.629028
	H410	H	0.510289	0.346338	0.580251
	O411	O	0.997381	1.198102	1.130076
	H412	H	0.963665	1.201308	1.124959
	H413	H	0.991229	1.199676	1.141911
	O414	O	0.834752	-0.133976	1.183050
	H415	H	0.870319	-0.135134	1.188505
	H416	H	0.830251	-0.098996	1.189931
	O417	O	0.501898	0.676171	0.716001
	H418	H	0.519144	0.697411	0.732735
	H419	H	0.523961	0.675624	0.708042
	O420	O	-0.210206	0.968864	0.989568
	H421	H	-0.185031	0.969833	0.998796
	H422	H	-0.220469	0.948588	0.999945
	O423	O	0.454872	0.331151	0.421938
	H424	H	0.445178	0.340147	0.413149
	H425	H	0.442435	0.330171	0.431714
	O426	O	0.699879	0.533377	0.472775
	H427	H	0.697776	0.528481	0.476234
	H428	H	0.703577	0.531277	0.464483
	O429	O	0.350241	0.679263	0.323732
	H430	H	0.328152	0.635769	0.319800
	H431	H	0.339114	0.696882	0.351992
	O432	O	0.437295	0.555558	0.586738
	H433	H	0.448142	0.552716	0.588851
	H434	H	0.430604	0.568490	0.592532
	O435	O	0.141778	0.088522	0.212863
	H436	H	0.147749	0.088372	0.221975
	H437	H	0.119480	0.096500	0.216759
	O438	O	0.170223	0.811337	0.830425
	H439	H	0.134670	0.819066	0.819457
	H440	H	0.159900	0.838264	0.818347
	O441	O	0.451174	0.284711	0.360058
	H442	H	0.452568	0.256527	0.352293
	H443	H	0.462230	0.294092	0.380272
