data_Molecule from HDF5

_cell_length_a		16.661852
_cell_length_b		16.633356
_cell_length_c		16.671324
_cell_angle_alpha	90.121357
_cell_angle_beta	90.025874
_cell_angle_gamma	90.117408
_symmetry_space_group_name_H-M	'P 1'
_symmetry_Int_Tables_number		1

loop_
	_symmetry_equiv_pos_as_xyz
	x,y,z

loop_
	_atom_site_label
	_atom_site_type_symbol
	_atom_site_fract_x
	_atom_site_fract_y
	_atom_site_fract_z
	H0	H	0.391964	0.846571	0.718696
	H1	H	0.610877	0.152365	0.711045
	H2	H	0.611600	0.840140	0.269702
	H3	H	0.404876	0.153132	0.271387
	H4	H	0.725093	0.393396	0.834542
	H5	H	0.731176	0.603965	0.143865
	H6	H	0.287055	0.600191	0.835478
	H7	H	0.283270	0.388421	0.145139
	H8	H	0.854158	0.719100	0.385127
	H9	H	0.161177	0.723153	0.601342
	H10	H	0.854688	0.274134	0.596266
	H11	H	0.159216	0.270415	0.379540
	H12	H	0.855914	0.388379	0.713897
	H13	H	0.161874	0.606044	0.715117
	H14	H	0.854213	0.603021	0.268428
	H15	H	0.160522	0.387863	0.265234
	H16	H	0.401725	0.717923	0.837143
	H17	H	0.615808	0.720486	0.143239
	H18	H	0.608128	0.277504	0.834815
	H19	H	0.402669	0.276687	0.147621
	H20	H	0.725339	0.839237	0.388222
	H21	H	0.726155	0.152054	0.594711
	H22	H	0.277914	0.846040	0.601570
	H23	H	0.285926	0.152027	0.383704
	H24	H	0.903253	0.341780	0.211654
	H25	H	0.117709	0.650346	0.215587
	H26	H	0.113463	0.342275	0.767971
	H27	H	0.899790	0.649453	0.766909
	H28	H	0.230026	0.889052	0.336828
	H29	H	0.235321	0.109958	0.641003
	H30	H	0.785582	0.099606	0.336694
	H31	H	0.785018	0.889393	0.646125
	H32	H	0.350807	0.215611	0.889058
	H33	H	0.664657	0.213653	0.092150
	H34	H	0.352940	0.772940	0.097523
	H35	H	0.659174	0.771509	0.880265
	H36	H	0.352310	0.889598	0.212553
	H37	H	0.664829	0.097962	0.208359
	H38	H	0.352309	0.104585	0.768058
	H39	H	0.658640	0.887024	0.764739
	H40	H	0.902185	0.216782	0.336635
	H41	H	0.116544	0.222767	0.642986
	H42	H	0.113959	0.773754	0.336563
	H43	H	0.901209	0.773966	0.645687
	H44	H	0.227521	0.340861	0.885740
	H45	H	0.234081	0.649699	0.100260
	H46	H	0.787641	0.341204	0.095957
	H47	H	0.784953	0.649422	0.883669
	H48	H	0.422506	0.104255	0.570867
	H49	H	0.594553	0.885118	0.578265
	H50	H	0.597233	0.108383	0.398533
	H51	H	0.411598	0.883088	0.399796
	H52	H	0.599259	0.406835	0.102908
	H53	H	0.592163	0.583169	0.881112
	H54	H	0.421977	0.584766	0.101772
	H55	H	0.413214	0.408518	0.879968
	H56	H	0.118609	0.585962	0.404322
	H57	H	0.897088	0.592076	0.575661
	H58	H	0.120152	0.406551	0.575935
	H59	H	0.897771	0.411179	0.403550
	H60	H	0.117718	0.412224	0.574003
	H61	H	0.901907	0.579237	0.573472
	H62	H	0.118697	0.583285	0.403449
	H63	H	0.895715	0.407944	0.398572
	H64	H	0.418409	0.582733	0.102305
	H65	H	0.596640	0.585436	0.879294
	H66	H	0.597776	0.404225	0.103034
	H67	H	0.421873	0.406954	0.881484
	H68	H	0.598206	0.107912	0.400962
	H69	H	0.595578	0.884342	0.580022
	H70	H	0.418890	0.108443	0.577684
	H71	H	0.423599	0.886164	0.397607
	H72	H	0.917771	0.608428	0.078349
	H73	H	0.091762	0.388016	0.078863
	H74	H	0.100535	0.609424	0.901025
	H75	H	0.925950	0.387203	0.902108
	H76	H	0.092124	0.911569	0.600149
	H77	H	0.093278	0.081215	0.381438
	H78	H	0.912932	0.086160	0.604494
	H79	H	0.918988	0.905314	0.380188
	H80	H	0.618852	0.086578	0.898544
	H81	H	0.397331	0.081947	0.080468
	H82	H	0.620088	0.900394	0.077656
	H83	H	0.398210	0.909214	0.908434
	H84	H	0.614806	0.912973	0.073501
	H85	H	0.393243	0.086381	0.088485
	H86	H	0.617971	0.087226	0.902940
	H87	H	0.397809	0.913230	0.903480
	H88	H	0.918556	0.082631	0.601716
	H89	H	0.093094	0.083529	0.380395
	H90	H	0.092968	0.912988	0.599889
	H91	H	0.914351	0.905035	0.378891
	H92	H	0.093043	0.607540	0.899820
	H93	H	0.094625	0.387320	0.074467
	H94	H	0.919447	0.608516	0.080252
	H95	H	0.913746	0.384707	0.907264
	H96	H	0.426611	0.104324	0.578424
	H97	H	0.593551	0.884872	0.580576
	H98	H	0.599959	0.109665	0.399108
	H99	H	0.418262	0.887906	0.408930
	H100	H	0.600342	0.404862	0.104464
	H101	H	0.596015	0.579824	0.880418
	H102	H	0.421566	0.581678	0.099707
	H103	H	0.416475	0.400555	0.877615
	H104	H	0.120230	0.585223	0.402144
	H105	H	0.896287	0.582337	0.586063
	H106	H	0.119978	0.411561	0.580397
	H107	H	0.896463	0.405356	0.403807
	H108	H	0.919819	0.607417	0.078359
	H109	H	0.096470	0.385144	0.079006
	H110	H	0.096825	0.606767	0.907022
	H111	H	0.916455	0.380871	0.894539
	H112	H	0.091281	0.913134	0.599102
	H113	H	0.095616	0.082544	0.380989
	H114	H	0.919642	0.089520	0.603176
	H115	H	0.916029	0.909207	0.380635
	H116	H	0.617062	0.083114	0.901273
	H117	H	0.393760	0.091202	0.080031
	H118	H	0.619736	0.911610	0.086570
	H119	H	0.395823	0.907452	0.903522
	C120	C	0.385490	0.005665	0.611430
	C121	C	0.626931	0.987764	0.611832
	C122	C	0.628836	0.004468	0.369052
	C123	C	0.386383	0.988520	0.369633
	C124	C	0.628868	0.374616	-0.000272
	C125	C	0.629033	0.617295	0.981633
	C126	C	0.387374	0.616223	-0.000728
	C127	C	0.385383	0.373916	0.982768
	C128	C	0.016671	0.617785	0.370303
	C129	C	0.999892	0.618943	0.612704
	C130	C	0.017571	0.376000	0.610614
	C131	C	0.998428	0.374492	0.368018
	C132	C	0.886678	0.505570	0.111539
	C133	C	0.129484	0.488172	0.112084
	C134	C	0.129100	0.505215	0.869836
	C135	C	0.886405	0.486881	0.868727
	C136	C	0.127095	0.877575	0.498784
	C137	C	0.128908	0.118223	0.481759
	C138	C	0.885640	0.117172	0.499902
	C139	C	0.884514	0.873909	0.482600
	C140	C	0.514751	0.117405	0.869918
	C141	C	0.498719	0.117218	0.112816
	C142	C	0.515736	0.874974	0.112095
	C143	C	0.498075	0.875950	0.869792
	C144	C	0.376777	0.891853	0.676252
	C145	C	0.629163	0.105319	0.671131
	C146	C	0.629773	0.886734	0.310030
	C147	C	0.385429	0.105883	0.310327
	C148	C	0.685656	0.374568	0.881480
	C149	C	0.690707	0.621637	0.097346
	C150	C	0.327024	0.618644	0.882356
	C151	C	0.324622	0.371456	0.099132
	C152	C	0.900411	0.678491	0.367108
	C153	C	0.115139	0.681689	0.617748
	C154	C	0.901467	0.314248	0.614489
	C155	C	0.113581	0.311970	0.362923
	C156	C	0.901840	0.371275	0.672688
	C157	C	0.115287	0.623411	0.674646
	C158	C	0.900639	0.621029	0.309048
	C159	C	0.113962	0.370447	0.306074
	C160	C	0.384114	0.677027	0.883057
	C161	C	0.633429	0.679622	0.097134
	C162	C	0.627937	0.316657	0.881860
	C163	C	0.383968	0.315565	0.100275
	C164	C	0.686309	0.886425	0.368865
	C165	C	0.686504	0.105264	0.613337
	C166	C	0.320004	0.891599	0.617923
	C167	C	0.326465	0.105365	0.366528
	C168	C	0.884497	0.388670	0.171839
	C169	C	0.135185	0.603634	0.174940
	C170	C	0.131154	0.388593	0.808949
	C171	C	0.882676	0.603061	0.807710
	C172	C	0.189090	0.872389	0.383087
	C173	C	0.192949	0.125421	0.595895
	C174	C	0.826073	0.118495	0.383004
	C175	C	0.824741	0.871358	0.599178
	C176	C	0.397773	0.176501	0.869431
	C177	C	0.617447	0.174778	0.111818
	C178	C	0.399416	0.813689	0.115145
	C179	C	0.612929	0.812893	0.863608
	C180	C	0.399149	0.871761	0.172451
	C181	C	0.617566	0.117082	0.169351
	C182	C	0.398406	0.120946	0.809577
	C183	C	0.612783	0.870547	0.806164
	C184	C	0.883509	0.176829	0.383101
	C185	C	0.134077	0.181536	0.596747
	C186	C	0.131411	0.814841	0.382965
	C187	C	0.882701	0.814043	0.599140
	C188	C	0.188026	0.387894	0.867347
	C189	C	0.192767	0.603595	0.117201
	C190	C	0.827002	0.388210	0.114216
	C191	C	0.825375	0.603173	0.865566
	C192	C	0.414371	0.084832	0.583550
	C193	C	0.601716	0.906266	0.586865
	C194	C	0.605251	0.087103	0.392753
	C195	C	0.411056	0.906901	0.394743
	C196	C	0.605883	0.398481	0.082061
	C197	C	0.602386	0.590657	0.901057
	C198	C	0.413235	0.590284	0.080087
	C199	C	0.410013	0.398329	0.900869
	C200	C	0.097964	0.592159	0.396125
	C201	C	0.919341	0.592055	0.586021
	C202	C	0.098203	0.402523	0.584267
	C203	C	0.917665	0.400668	0.394552
	C204	C	0.911892	0.586889	0.086078
	C205	C	0.102063	0.407764	0.085013
	C206	C	0.103985	0.586774	0.895477
	C207	C	0.911715	0.405554	0.894099
	C208	C	0.100056	0.904929	0.578892
	C209	C	0.101530	0.090323	0.401514
	C210	C	0.910222	0.093121	0.581876
	C211	C	0.909311	0.899164	0.401169
	C212	C	0.596636	0.092633	0.894110
	C213	C	0.416396	0.093448	0.089560
	C214	C	0.596985	0.900938	0.086562
	C215	C	0.418017	0.902807	0.897196
	Zn216	Zn	0.505619	-0.003565	0.740839
	Zn217	Zn	0.507550	-0.003882	0.240946
	Zn218	Zn	0.758209	0.496061	-0.009748
	Zn219	Zn	0.258216	0.495977	-0.008722
	Zn220	Zn	0.008107	0.747243	0.491197
	Zn221	Zn	0.007940	0.246403	0.489856
	Zn222	Zn	0.008378	0.496767	0.740162
	Zn223	Zn	0.007808	0.497201	0.240508
	Zn224	Zn	0.507705	0.746177	-0.009281
	Zn225	Zn	0.507018	0.245777	-0.008037
	Zn226	Zn	0.756517	-0.004430	0.491513
	Zn227	Zn	0.257418	-0.002259	0.490022
	N228	N	0.417035	0.963705	0.672341
	N229	N	0.593182	0.030988	0.670836
	N230	N	0.594934	0.961448	0.309803
	N231	N	0.421863	0.031883	0.311745
	N232	N	0.686860	0.409546	0.956063
	N233	N	0.688223	0.583564	0.024387
	N234	N	0.328896	0.581484	0.955764
	N235	N	0.325193	0.406927	0.024797
	N236	N	0.973770	0.676761	0.404491
	N237	N	0.042052	0.679119	0.579775
	N238	N	0.974521	0.316794	0.576926
	N239	N	0.040502	0.314263	0.400775
	N240	N	0.975165	0.408937	0.670755
	N241	N	0.042537	0.584954	0.671692
	N242	N	0.974125	0.584146	0.310837
	N243	N	0.041291	0.408733	0.309143
	N244	N	0.420699	0.675898	0.956814
	N245	N	0.595632	0.677083	0.024031
	N246	N	0.593479	0.316319	0.956516
	N247	N	0.420896	0.316778	0.026730
	N248	N	0.686009	0.960769	0.404703
	N249	N	0.685840	0.030857	0.577408
	N250	N	0.325364	0.963412	0.578235
	N251	N	0.326774	0.031324	0.402431
	N252	N	0.920957	0.462641	0.170369
	N253	N	0.096466	0.530758	0.171938
	N254	N	0.095329	0.462803	0.810082
	N255	N	0.920101	0.529768	0.809540
	N256	N	0.186645	0.910771	0.456102
	N257	N	0.189721	0.086621	0.523261
	N258	N	0.827120	0.082270	0.456880
	N259	N	0.825648	0.908018	0.525518
	N260	N	0.471233	0.174590	0.906323
	N261	N	0.542377	0.175379	0.077610
	N262	N	0.473081	0.815467	0.078365
	N263	N	0.540643	0.816126	0.902732
	N264	N	0.472725	0.909103	0.170771
	N265	N	0.542821	0.082380	0.170497
	N266	N	0.472403	0.085058	0.809625
	N267	N	0.540159	0.909002	0.809704
	N268	N	0.919784	0.176204	0.456938
	N269	N	0.094764	0.177099	0.524610
	N270	N	0.093393	0.817950	0.456021
	N271	N	0.919093	0.815399	0.525392
	N272	N	0.186997	0.461607	0.904474
	N273	N	0.189374	0.530612	0.078747
	N274	N	0.827822	0.462047	0.077579
	N275	N	0.827643	0.529829	0.903036
	O276	O	-0.180493	0.794625	0.183445
	H277	H	-0.208331	0.765560	0.201220
	H278	H	-0.164616	0.812147	0.179375
	O279	O	0.323670	0.347157	0.431540
	H280	H	0.314788	0.341879	0.434202
	H281	H	0.331849	0.358571	0.438528
	O282	O	1.006821	0.225723	1.014364
	H283	H	0.997750	0.218873	1.023012
	H284	H	0.987441	0.225029	1.010611
	O285	O	0.504990	0.468287	0.548459
	H286	H	0.499901	0.470714	0.554648
	H287	H	0.508009	0.467753	0.545520
	O288	O	0.477842	0.522857	0.386965
	H289	H	0.466659	0.514078	0.382422
	H290	H	0.455652	0.523519	0.388406
	O291	O	0.359548	0.338474	0.536543
	H292	H	0.365294	0.356002	0.543010
	H293	H	0.354348	0.317493	0.537497
	O294	O	0.782431	0.222194	0.956676
	H295	H	0.759498	0.235936	0.945638
	H296	H	0.777766	0.227023	0.920324
	O297	O	0.549613	0.666695	0.357686
	H298	H	0.542506	0.665523	0.365480
	H299	H	0.535436	0.675841	0.351031
	O300	O	-0.026778	0.217105	0.770632
	H301	H	-0.010517	0.190380	0.763052
	H302	H	-0.016193	0.233516	0.741513
	O303	O	0.732141	0.659471	0.498879
	H304	H	0.736224	0.658072	0.505580
	H305	H	0.738870	0.645323	0.489537
	O306	O	0.726053	0.277182	0.461616
	H307	H	0.735322	0.272035	0.438606
	H308	H	0.738831	0.270683	0.457089
	O309	O	0.247570	0.754119	0.755793
	H310	H	0.251122	0.758665	0.763938
	H311	H	0.228026	0.762469	0.780733
	O312	O	0.523337	0.720258	0.705777
	H313	H	0.534014	0.716912	0.715831
	H314	H	0.533081	0.729880	0.712813
	O315	O	0.996648	1.174024	0.942184
	H316	H	0.990162	1.171647	0.943670
	H317	H	0.987315	1.167274	0.943771
	O318	O	0.463402	0.395534	0.312713
	H319	H	0.453597	0.376506	0.313071
	H320	H	0.459665	0.386377	0.303377
	O321	O	-0.052502	0.778583	0.880762
	H322	H	-0.060806	0.777985	0.901050
	H323	H	-0.070185	0.776212	0.866476
	O324	O	1.021876	0.878785	0.213902
	H325	H	1.028666	0.891453	0.191266
	H326	H	1.025446	0.859880	0.226548
	O327	O	-0.099439	0.121476	1.027456
	H328	H	-0.115999	0.140386	1.003400
	H329	H	-0.105658	0.097066	1.020000
	O330	O	0.743312	0.456173	0.536933
	H331	H	0.746349	0.454841	0.542939
	H332	H	0.731927	0.446224	0.529832
	O333	O	0.534354	0.461031	0.678450
	H334	H	0.513985	0.463050	0.663522
	H335	H	0.516985	0.441938	0.683412
	O336	O	0.582313	0.499848	0.310988
	H337	H	0.565393	0.496179	0.303082
	H338	H	0.566784	0.498329	0.314519
	O339	O	0.942514	-0.050502	0.763266
	H340	H	0.920987	-0.061737	0.763484
	H341	H	0.919121	-0.062372	0.767122
	O342	O	-0.044001	0.043933	0.228851
	H343	H	-0.053542	0.023308	0.234066
	H344	H	-0.047880	0.018687	0.222985
	O345	O	0.063658	0.972353	0.975964
	H346	H	0.065621	0.967018	0.957522
	H347	H	0.077793	0.968627	0.996278
	O348	O	0.212020	0.202655	0.192732
	H349	H	0.193956	0.208525	0.177686
	H350	H	0.188855	0.201228	0.173987
	O351	O	0.411766	0.507884	0.421430
	H352	H	0.410167	0.494852	0.444336
	H353	H	0.414195	0.520405	0.440613
	O354	O	0.168777	-0.170669	1.118052
	H355	H	0.166374	-0.160666	1.114453
	H356	H	0.174102	-0.173986	1.131223
	O357	O	0.546306	0.548138	0.471169
	H358	H	0.540420	0.548221	0.468915
	H359	H	0.551914	0.546505	0.455061
	O360	O	0.295196	0.292213	0.700137
	H361	H	0.308248	0.311358	0.691244
	H362	H	0.262962	0.262923	0.731045
	O363	O	-0.180192	0.189380	0.186563
	H364	H	-0.161758	0.167224	0.173304
	H365	H	-0.164657	0.168926	0.164255
	O366	O	0.376023	0.312805	0.371346
	H367	H	0.360234	0.300855	0.364786
	H368	H	0.378315	0.327124	0.376974
	O369	O	0.716116	0.287841	0.282936
	H370	H	0.722043	0.323875	0.291461
	H371	H	0.751469	0.258314	0.251506
	O372	O	0.849913	0.852272	-0.140200
	H373	H	0.847732	0.866494	-0.133248
	H374	H	0.824332	0.830549	-0.155238
	O375	O	0.787833	-0.033087	0.212314
	H376	H	0.767708	-0.040979	0.221521
	H377	H	0.780612	-0.048265	0.204374
	O378	O	0.474281	0.696982	0.283033
	H379	H	0.452420	0.700130	0.286265
	H380	H	0.459295	0.715955	0.268750
	O381	O	-0.180213	0.779985	1.001216
	H382	H	-0.190630	0.783374	1.011874
	H383	H	-0.187365	0.772564	1.011052
	O384	O	0.779703	0.029217	0.766319
	H385	H	0.755832	0.045781	0.744929
	H386	H	0.775935	0.050375	0.764375
	O387	O	1.143749	1.060829	0.005310
	H388	H	1.138064	1.055310	0.008339
	H389	H	1.135761	1.052376	-0.000500
	O390	O	0.544940	0.270209	0.263188
	H391	H	0.583025	0.271991	0.265779
	H392	H	0.550627	0.240257	0.236722
	O393	O	0.471218	0.512855	0.722985
	H394	H	0.458111	0.502378	0.716788
	H395	H	0.455240	0.512678	0.725089
	O396	O	0.114575	0.910837	0.861494
	H397	H	0.106061	0.923936	0.868015
	H398	H	0.106645	0.900467	0.872947
	O399	O	0.053122	0.070947	0.754351
	H400	H	0.036130	0.047154	0.760362
	H401	H	0.070194	0.044650	0.745011
	O402	O	0.318922	0.646269	0.641816
	H403	H	0.307226	0.661203	0.654695
	H404	H	0.338748	0.649912	0.641508
	O405	O	1.070738	0.023340	1.017113
	H406	H	1.067319	0.019820	1.011151
	H407	H	1.081294	0.050167	1.025949
	O408	O	0.223814	0.213876	0.023673
	H409	H	0.215718	0.229457	0.011286
	H410	H	0.232434	0.221466	0.014566
	O411	O	0.718250	0.705151	0.704083
	H412	H	0.715506	0.682853	0.683888
	H413	H	0.696708	0.689057	0.689274
	O414	O	0.707036	0.304826	0.684399
	H415	H	0.700364	0.327908	0.664040
	H416	H	0.679304	0.309135	0.669447
	O417	O	0.694921	0.458938	0.306207
	H418	H	0.669295	0.457188	0.296340
	H419	H	0.712453	0.464265	0.283547
	O420	O	0.416628	0.352660	0.493438
	H421	H	0.412964	0.347806	0.492191
	H422	H	0.413398	0.341772	0.476407
	O423	O	0.011680	-0.062927	1.043054
	H424	H	0.015674	-0.071767	1.045628
	H425	H	0.016663	-0.062394	1.052223
	O426	O	0.287599	0.714586	0.459332
	H427	H	0.268263	0.734220	0.464591
	H428	H	0.292412	0.710688	0.471355
	O429	O	0.988470	0.794066	0.787756
	H430	H	0.987425	0.771840	0.774207
	H431	H	0.967047	0.796176	0.797374
	O432	O	0.450769	0.735250	0.529018
	H433	H	0.461278	0.732717	0.550052
	H434	H	0.459793	0.739257	0.523377
	O435	O	0.084368	0.951687	0.085746
	H436	H	0.088566	0.952567	0.089378
	H437	H	0.091296	0.949781	0.098528
	O438	O	0.227972	0.021155	0.215594
	H439	H	0.226963	0.050946	0.218010
	H440	H	0.242476	0.035630	0.236847
	O441	O	0.037169	0.208723	0.199426
	H442	H	0.016882	0.193633	0.195736
	H443	H	0.023263	0.220679	0.216880
	O444	O	0.558759	0.348651	0.565824
	H445	H	0.563908	0.341483	0.539141
	H446	H	0.535525	0.350687	0.556031
	O447	O	0.205818	0.982663	0.778072
	H448	H	0.236246	0.975760	0.761452
	H449	H	0.195542	0.957546	0.786777
	O450	O	0.119406	0.769455	0.984221
	H451	H	0.120135	0.762545	0.981335
	H452	H	0.111965	0.780019	1.004242
	O453	O	0.285021	0.460641	0.708866
	H454	H	0.279792	0.456364	0.711925
	H455	H	0.267833	0.457322	0.719313
	O456	O	0.197263	0.189984	0.800910
	H457	H	0.175499	0.175724	0.821421
	H458	H	0.183291	0.163287	0.812572
	O459	O	0.712562	0.699427	0.284575
	H460	H	0.699180	0.678394	0.298572
	H461	H	0.695436	0.680736	0.286700
	O462	O	0.646845	0.496443	0.398043
	H463	H	0.641415	0.498018	0.381802
	H464	H	0.643591	0.502640	0.392366
	O465	O	0.821312	0.020635	0.068755
	H466	H	0.824512	0.010932	0.069087
	H467	H	0.825195	0.014692	0.047288
	O468	O	0.294537	0.525358	0.274372
	H469	H	0.298291	0.507999	0.291010
	H470	H	0.273716	0.523768	0.254944
	O471	O	0.276837	0.537086	0.522620
	H472	H	0.282799	0.522318	0.519964
	H473	H	0.273544	0.546392	0.548928
	O474	O	0.310455	0.692590	0.294641
	H475	H	0.313542	0.670802	0.301452
	H476	H	0.306463	0.677179	0.318012
	O477	O	0.564038	0.502143	1.525171
	H478	H	0.555811	0.504827	1.527829
	H479	H	0.566619	0.488557	1.523736
	O480	O	0.475693	0.276334	0.697902
	H481	H	0.476851	0.256959	0.708575
	H482	H	0.452939	0.271980	0.690198
	O483	O	0.731088	0.520850	0.703336
	H484	H	0.724525	0.519977	0.724255
	H485	H	0.736561	0.513955	0.701541
	O486	O	0.801723	0.202027	0.783042
	H487	H	0.844625	0.201529	0.780080
	H488	H	0.780203	0.233566	0.752308
	O489	O	1.142824	0.841384	-0.061533
	H490	H	1.128895	0.828220	-0.060150
	H491	H	1.157134	0.837646	-0.055340
	O492	O	0.235456	-0.038730	0.027014
	H493	H	0.234965	-0.034378	0.039915
	H494	H	0.232296	-0.036755	0.029250
	O495	O	-0.009745	0.783207	1.118639
	H496	H	-0.011963	0.783524	1.125082
	H497	H	-0.011623	0.770794	1.131261
	O498	O	0.771428	0.939581	0.920245
	H499	H	0.780127	0.945740	0.908769
	H500	H	0.765366	0.948069	0.904661
	O501	O	0.671008	0.641743	0.544957
	H502	H	0.669815	0.622961	0.539089
	H503	H	0.687426	0.647319	0.541954
