data_Molecule from HDF5

_cell_length_a		16.458461
_cell_length_b		16.257495
_cell_length_c		16.290138
_cell_angle_alpha	89.818745
_cell_angle_beta	90.415585
_cell_angle_gamma	89.856578
_symmetry_space_group_name_H-M	'P 1'
_symmetry_Int_Tables_number		1

loop_
	_symmetry_equiv_pos_as_xyz
	x,y,z

loop_
	_atom_site_label
	_atom_site_type_symbol
	_atom_site_fract_x
	_atom_site_fract_y
	_atom_site_fract_z
	H0	H	0.392392	0.812926	0.717156
	H1	H	0.591561	0.138538	0.718903
	H2	H	0.590190	0.814130	0.286977
	H3	H	0.387616	0.138692	0.283574
	H4	H	0.710660	0.370697	0.840699
	H5	H	0.712711	0.580199	0.161645
	H6	H	0.270319	0.582715	0.842139
	H7	H	0.273844	0.372495	0.163592
	H8	H	0.830168	0.694831	0.397093
	H9	H	0.151606	0.693930	0.602846
	H10	H	0.829950	0.259301	0.602261
	H11	H	0.150041	0.256443	0.400316
	H12	H	0.831990	0.373012	0.720862
	H13	H	0.151490	0.578603	0.721004
	H14	H	0.831984	0.579922	0.278933
	H15	H	0.152311	0.375393	0.286040
	H16	H	0.389832	0.692567	0.839863
	H17	H	0.591804	0.690887	0.164253
	H18	H	0.592143	0.257697	0.840924
	H19	H	0.392970	0.259834	0.164924
	H20	H	0.708221	0.814916	0.399117
	H21	H	0.710273	0.136784	0.606766
	H22	H	0.274411	0.813225	0.602902
	H23	H	0.270459	0.138341	0.398686
	H24	H	0.891979	0.314411	0.217413
	H25	H	0.093652	0.639142	0.218342
	H26	H	0.093305	0.313816	0.785015
	H27	H	0.891841	0.639329	0.783323
	H28	H	0.206555	0.874694	0.339588
	H29	H	0.209986	0.079302	0.662773
	H30	H	0.767278	0.080995	0.341664
	H31	H	0.771943	0.869072	0.662018
	H32	H	0.330571	0.195745	0.899729
	H33	H	0.650459	0.195677	0.108130
	H34	H	0.329337	0.759033	0.101538
	H35	H	0.649710	0.755881	0.899348
	H36	H	0.329485	0.875898	0.217098
	H37	H	0.649033	0.081123	0.225301
	H38	H	0.329934	0.079289	0.783499
	H39	H	0.650124	0.871928	0.783280
	H40	H	0.886867	0.193520	0.339655
	H41	H	0.092013	0.193240	0.663664
	H42	H	0.089886	0.760947	0.338954
	H43	H	0.891585	0.757454	0.663079
	H44	H	0.211802	0.315435	0.898205
	H45	H	0.209183	0.639294	0.104237
	H46	H	0.772460	0.316193	0.105689
	H47	H	0.770208	0.637297	0.892725
	H48	H	0.394504	0.092246	0.590729
	H49	H	0.576479	0.863666	0.589274
	H50	H	0.577772	0.088371	0.419972
	H51	H	0.394610	0.861994	0.415085
	H52	H	0.584738	0.391935	0.115835
	H53	H	0.586108	0.572046	0.882402
	H54	H	0.406470	0.569889	0.117102
	H55	H	0.397570	0.393866	0.888621
	H56	H	0.102466	0.566765	0.416893
	H57	H	0.879381	0.566727	0.586885
	H58	H	0.102997	0.389233	0.591380
	H59	H	0.876227	0.389091	0.404901
	H60	H	0.106432	0.383436	0.596897
	H61	H	0.877706	0.563501	0.593237
	H62	H	0.105417	0.563146	0.404826
	H63	H	0.876384	0.381977	0.409286
	H64	H	0.394674	0.571244	0.121341
	H65	H	0.584623	0.559707	0.887909
	H66	H	0.579211	0.386682	0.114589
	H67	H	0.407028	0.387182	0.889871
	H68	H	0.583110	0.092527	0.413580
	H69	H	0.588562	0.859360	0.590201
	H70	H	0.398756	0.092913	0.594688
	H71	H	0.394046	0.858361	0.407009
	H72	H	0.898250	0.592547	0.090118
	H73	H	0.081176	0.361200	0.094735
	H74	H	0.080890	0.592671	0.907770
	H75	H	0.901897	0.362988	0.913782
	H76	H	0.095036	0.887336	0.619814
	H77	H	0.079829	0.068037	0.387065
	H78	H	0.897588	0.069152	0.618630
	H79	H	0.897535	0.886674	0.386341
	H80	H	0.606309	0.072716	0.910972
	H81	H	0.378011	0.063137	0.095161
	H82	H	0.605738	0.879170	0.093864
	H83	H	0.376357	0.882941	0.911422
	H84	H	0.602739	0.887443	0.092488
	H85	H	0.374392	0.072407	0.094503
	H86	H	0.601541	0.064459	0.919086
	H87	H	0.378431	0.887583	0.912277
	H88	H	0.898117	0.062101	0.615972
	H89	H	0.081774	0.065166	0.385492
	H90	H	0.075844	0.893687	0.611770
	H91	H	0.897281	0.889412	0.386920
	H92	H	0.080116	0.589986	0.913209
	H93	H	0.084417	0.363263	0.088284
	H94	H	0.905172	0.591286	0.092296
	H95	H	0.899281	0.361532	0.912267
	H96	H	0.400415	0.090434	0.589341
	H97	H	0.580875	0.859350	0.600381
	H98	H	0.574415	0.090150	0.410916
	H99	H	0.402009	0.861237	0.409624
	H100	H	0.586113	0.384571	0.117421
	H101	H	0.574318	0.567911	0.888239
	H102	H	0.398543	0.560329	0.116375
	H103	H	0.397500	0.383174	0.885279
	H104	H	0.107668	0.575094	0.408553
	H105	H	0.876499	0.570083	0.591635
	H106	H	0.104533	0.381025	0.588891
	H107	H	0.878818	0.388346	0.412869
	H108	H	0.902839	0.590656	0.085403
	H109	H	0.088367	0.359901	0.093859
	H110	H	0.085095	0.592655	0.911666
	H111	H	0.902741	0.361728	0.910209
	H112	H	0.078445	0.873510	0.619335
	H113	H	0.079172	0.064705	0.387871
	H114	H	0.903994	0.066533	0.615415
	H115	H	0.899773	0.887538	0.387846
	H116	H	0.604542	0.061122	0.907981
	H117	H	0.378014	0.068385	0.086431
	H118	H	0.605445	0.885078	0.100026
	H119	H	0.375863	0.886068	0.907611
	C120	C	0.368692	-0.015491	0.622228
	C121	C	0.612767	0.967422	0.624702
	C122	C	0.609802	-0.015973	0.382759
	C123	C	0.366780	0.967592	0.379727
	C124	C	0.613588	0.355314	0.009878
	C125	C	0.612886	0.597483	0.992787
	C126	C	0.369506	0.598098	0.011355
	C127	C	0.370610	0.356262	0.994128
	C128	C	-0.000740	0.598762	0.378753
	C129	C	0.983417	0.597584	0.621918
	C130	C	-0.000842	0.354111	0.623178
	C131	C	0.982727	0.354845	0.379531
	C132	C	0.871496	0.485055	0.120994
	C133	C	0.114278	0.468426	0.123135
	C134	C	0.113213	0.485080	0.879980
	C135	C	0.869822	0.468485	0.879458
	C136	C	0.112059	0.854846	0.509751
	C137	C	0.110947	0.096851	0.493403
	C138	C	0.867878	0.097347	0.510264
	C139	C	0.868613	0.855119	0.493012
	C140	C	0.498763	0.097900	0.880916
	C141	C	0.481922	0.098668	0.124650
	C142	C	0.498610	0.854165	0.124415
	C143	C	0.482231	0.854329	0.880272
	C144	C	0.371650	0.861802	0.678970
	C145	C	0.611593	0.089409	0.681303
	C146	C	0.609851	0.862723	0.325048
	C147	C	0.367704	0.089991	0.322532
	C148	C	0.671346	0.353021	0.889062
	C149	C	0.672152	0.598317	0.113825
	C150	C	0.310620	0.600121	0.889951
	C151	C	0.312913	0.354134	0.115353
	C152	C	0.878646	0.656177	0.377855
	C153	C	0.103694	0.655118	0.622228
	C154	C	0.878561	0.296983	0.622796
	C155	C	0.102575	0.295979	0.380528
	C156	C	0.879339	0.353852	0.681532
	C157	C	0.103650	0.597890	0.681084
	C158	C	0.879338	0.598778	0.319331
	C159	C	0.103595	0.355200	0.323720
	C160	C	0.370140	0.654919	0.888923
	C161	C	0.612443	0.653771	0.115065
	C162	C	0.612563	0.296327	0.889040
	C163	C	0.372249	0.298156	0.116057
	C164	C	0.668462	0.863120	0.381220
	C165	C	0.670569	0.088738	0.625183
	C166	C	0.312923	0.861860	0.622082
	C167	C	0.309078	0.089707	0.379344
	C168	C	0.872162	0.363132	0.179077
	C169	C	0.113136	0.590424	0.180206
	C170	C	0.113157	0.362924	0.822823
	C171	C	0.870623	0.590131	0.820925
	C172	C	0.168278	0.855307	0.388023
	C173	C	0.170341	0.098102	0.614565
	C174	C	0.807726	0.099084	0.389693
	C175	C	0.811510	0.851659	0.614291
	C176	C	0.378407	0.156538	0.880487
	C177	C	0.602279	0.156851	0.126756
	C178	C	0.377806	0.797092	0.122306
	C179	C	0.602207	0.795356	0.880425
	C180	C	0.377655	0.855502	0.179833
	C181	C	0.601739	0.099476	0.184909
	C182	C	0.378081	0.098601	0.822595
	C183	C	0.602243	0.853367	0.822680
	C184	C	0.867143	0.155113	0.388400
	C185	C	0.111234	0.154531	0.615078
	C186	C	0.110364	0.798387	0.387840
	C187	C	0.870868	0.796042	0.614571
	C188	C	0.172239	0.363712	0.879328
	C189	C	0.171114	0.590307	0.123615
	C190	C	0.812907	0.364052	0.123142
	C191	C	0.810416	0.589317	0.875789
	C192	C	0.391361	0.069683	0.598342
	C193	C	0.588975	0.882630	0.600382
	C194	C	0.585408	0.068452	0.407528
	C195	C	0.390198	0.882560	0.403650
	C196	C	0.590326	0.380568	0.094162
	C197	C	0.588681	0.573682	0.908038
	C198	C	0.393131	0.574230	0.096101
	C199	C	0.394005	0.381012	0.909780
	C200	C	0.083430	0.575009	0.402936
	C201	C	0.899558	0.573614	0.597670
	C202	C	0.082893	0.377651	0.599160
	C203	C	0.898777	0.379448	0.402221
	C204	C	0.895264	0.569630	0.096335
	C205	C	0.091327	0.383382	0.099308
	C206	C	0.089102	0.569742	0.904094
	C207	C	0.894201	0.383982	0.904938
	C208	C	0.089790	0.878173	0.595045
	C209	C	0.087001	0.072957	0.408820
	C210	C	0.892541	0.072876	0.594606
	C211	C	0.891364	0.880693	0.408839
	C212	C	0.582394	0.073376	0.905544
	C213	C	0.398585	0.074860	0.099323
	C214	C	0.582654	0.877320	0.102087
	C215	C	0.398576	0.878610	0.903728
	Zn216	Zn	0.489890	-0.023659	0.751256
	Zn217	Zn	0.489703	-0.023260	0.253428
	Zn218	Zn	0.742073	0.477205	0.000470
	Zn219	Zn	0.241631	0.477241	0.001966
	Zn220	Zn	-0.009587	0.727637	0.500458
	Zn221	Zn	-0.010475	0.225514	0.501421
	Zn222	Zn	-0.008492	0.476200	0.752021
	Zn223	Zn	-0.007876	0.476790	0.250034
	Zn224	Zn	0.490957	0.725312	0.002246
	Zn225	Zn	0.491333	0.227152	0.002395
	Zn226	Zn	0.739715	-0.024562	0.502584
	Zn227	Zn	0.239535	-0.024297	0.501600
	N228	N	0.405629	0.939051	0.679104
	N229	N	0.576659	0.012719	0.681335
	N230	N	0.573989	0.939191	0.325906
	N231	N	0.402482	0.013126	0.322311
	N232	N	0.672120	0.388865	0.965366
	N233	N	0.672675	0.564254	0.036627
	N234	N	0.310148	0.565338	0.966965
	N235	N	0.311685	0.389676	0.038484
	N236	N	0.954289	0.656130	0.413978
	N237	N	0.027955	0.654999	0.586137
	N238	N	0.954179	0.297068	0.587351
	N239	N	0.026361	0.295661	0.414250
	N240	N	0.955376	0.388453	0.682183
	N241	N	0.027885	0.562663	0.680963
	N242	N	0.955495	0.563728	0.319747
	N243	N	0.027849	0.391041	0.322832
	N244	N	0.406065	0.653948	0.965336
	N245	N	0.576294	0.653403	0.038714
	N246	N	0.577572	0.297506	0.965331
	N247	N	0.407234	0.299318	0.039717
	N248	N	0.668563	0.939690	0.416348
	N249	N	0.671465	0.011691	0.590869
	N250	N	0.310745	0.939183	0.587901
	N251	N	0.308460	0.012486	0.414165
	N252	N	0.907987	0.439407	0.177696
	N253	N	0.078690	0.513532	0.180352
	N254	N	0.077331	0.439280	0.823161
	N255	N	0.906736	0.513867	0.823183
	N256	N	0.169241	0.889702	0.464937
	N257	N	0.170255	0.063043	0.537911
	N258	N	0.807965	0.063938	0.466561
	N259	N	0.809859	0.887691	0.537914
	N260	N	0.454420	0.156198	0.916073
	N261	N	0.526951	0.156610	0.090126
	N262	N	0.454171	0.795908	0.088738
	N263	N	0.526609	0.795850	0.915726
	N264	N	0.453744	0.890199	0.181221
	N265	N	0.525887	0.063869	0.183888
	N266	N	0.453924	0.062946	0.822522
	N267	N	0.526734	0.889465	0.822574
	N268	N	0.903760	0.154201	0.464452
	N269	N	0.075171	0.153999	0.538650
	N270	N	0.075965	0.798270	0.464466
	N271	N	0.905606	0.798062	0.538044
	N272	N	0.172565	0.440824	0.913958
	N273	N	0.171811	0.513483	0.088718
	N274	N	0.812325	0.440939	0.087780
	N275	N	0.809833	0.512532	0.911423
	O276	O	0.420106	0.310507	0.550897
	H277	H	0.411491	0.305638	0.544177
	H278	H	0.400345	0.322840	0.542973
	O279	O	0.294655	0.387403	0.640142
	H280	H	0.302299	0.379494	0.635976
	H281	H	0.283099	0.374999	0.649228
	O282	O	0.987453	-0.110399	0.996603
	H283	H	0.969689	-0.108514	1.000208
	H284	H	1.002669	-0.102936	1.000883
	O285	O	0.636283	0.553639	0.550575
	H286	H	0.640683	0.568178	0.556234
	H287	H	0.626744	0.547061	0.554949
	O288	O	1.091814	0.943707	0.938685
	H289	H	1.096959	0.930024	0.943852
	H290	H	1.100057	0.938419	0.920910
	O291	O	-0.208525	1.073774	-0.011619
	H292	H	-0.203767	1.070887	-0.023898
	H293	H	-0.207342	1.095722	-0.035232
	O294	O	0.504438	0.519962	0.368652
	H295	H	0.504719	0.529918	0.362967
	H296	H	0.500171	0.525794	0.373593
	O297	O	0.480586	0.339903	0.405273
	H298	H	0.488943	0.348924	0.393022
	H299	H	0.471702	0.336111	0.393447
	O300	O	0.555290	0.448628	0.321454
	H301	H	0.557542	0.462880	0.314999
	H302	H	0.543003	0.437557	0.321477
	O303	O	0.361332	0.657038	0.496696
	H304	H	0.358637	0.646175	0.502571
	H305	H	0.348222	0.665619	0.503823
	O306	O	0.319284	0.479342	0.466513
	H307	H	0.326654	0.483815	0.466077
	H308	H	0.317544	0.485074	0.468293
	O309	O	0.975555	1.104492	0.136883
	H310	H	0.965146	1.118635	0.144533
	H311	H	0.972512	1.097717	0.136887
	O312	O	0.097719	0.015858	0.175777
	H313	H	0.103114	0.028528	0.170159
	H314	H	0.112289	0.016881	0.177042
	O315	O	0.568416	0.323001	0.557704
	H316	H	0.567926	0.323220	0.567553
	H317	H	0.554814	0.331714	0.562798
	O318	O	-0.166816	1.004161	0.819740
	H319	H	-0.180626	0.997011	0.817500
	H320	H	-0.168432	1.006274	0.813543
	O321	O	0.524966	0.379123	0.590850
	H322	H	0.526007	0.386306	0.592427
	H323	H	0.539437	0.372069	0.583561
	O324	O	-0.161377	0.999864	0.004877
	H325	H	-0.156418	0.987360	0.007326
	H326	H	-0.150809	0.999093	0.004623
	O327	O	0.330072	0.550362	0.500034
	H328	H	0.333275	0.532609	0.492056
	H329	H	0.324706	0.552257	0.519405
	O330	O	-0.944044	0.847611	1.921416
	H331	H	-0.951688	0.840109	1.916187
	H332	H	-0.950369	0.847023	1.914537
	O333	O	0.154630	0.127314	1.189272
	H334	H	0.158552	0.143544	1.188005
	H335	H	0.133108	0.131748	1.193497
	O336	O	0.563277	0.572053	0.496660
	H337	H	0.556997	0.577924	0.508207
	H338	H	0.580099	0.570993	0.493701
	O339	O	0.916361	-0.154123	0.107715
	H340	H	0.913178	-0.165493	0.100791
	H341	H	0.924895	-0.134995	0.099922
	O342	O	-0.091338	0.187465	-0.123534
	H343	H	-0.087041	0.204041	-0.122144
	H344	H	-0.088466	0.191693	-0.140033
	O345	O	1.597227	0.536209	0.462655
	H346	H	1.597266	0.532508	0.476430
	H347	H	1.594538	0.530865	0.457018
	O348	O	1.524729	1.637515	0.522221
	H349	H	1.516284	1.638233	0.531577
	H350	H	1.518746	1.637127	0.519772
	O351	O	0.523144	0.444765	0.568265
	H352	H	0.516819	0.449602	0.572399
	H353	H	0.528198	0.454657	0.566572
	O354	O	1.135184	-0.043474	0.901689
	H355	H	1.139351	-0.053746	0.881157
	H356	H	1.124257	-0.055812	0.908784
	O357	O	0.515461	0.362123	0.329643
	H358	H	0.537741	0.372180	0.332069
	H359	H	0.508228	0.357835	0.318553
	O360	O	0.623047	0.476792	0.643943
	H361	H	0.620905	0.488577	0.634815
	H362	H	0.630027	0.469465	0.626923
	O363	O	0.164147	0.885040	0.961555
	H364	H	0.153291	0.872846	0.956815
	H365	H	0.166807	0.881618	0.961904
	O366	O	0.744330	0.733312	0.291337
	H367	H	0.748253	0.755020	0.300569
	H368	H	0.768899	0.732678	0.294895
	O369	O	0.044208	0.801424	-0.120296
	H370	H	0.031185	0.801919	-0.115043
	H371	H	0.029237	0.815898	-0.122866
	O372	O	0.775449	-0.064519	0.008701
	H373	H	0.779803	-0.050383	0.040449
	H374	H	0.760993	-0.072289	0.006924
	O375	O	0.383274	0.297718	0.677579
	H376	H	0.387930	0.293554	0.664430
	H377	H	0.380632	0.294785	0.683670
	O378	O	1.390742	1.490327	0.388479
	H379	H	1.383569	1.487004	0.371834
	H380	H	1.399934	1.501372	0.383236
	O381	O	1.076641	0.025202	-0.007354
	H382	H	1.081776	0.023144	-0.015961
	H383	H	1.086434	0.033488	-0.000624
	O384	O	0.984438	1.130889	-0.098425
	H385	H	0.997021	1.122547	-0.096233
	H386	H	0.993841	1.130050	-0.085884
	O387	O	0.033875	-0.140738	-0.029399
	H388	H	0.015674	-0.137735	-0.029497
	H389	H	0.029502	-0.133010	-0.018890
	O390	O	-0.121255	0.993121	0.059057
	H391	H	-0.124808	0.999919	0.057365
	H392	H	-0.123583	0.987894	0.057651
	O393	O	1.148656	1.155440	1.042817
	H394	H	1.154122	1.150417	1.055924
	H395	H	1.152777	1.156379	1.043273
	O396	O	0.681484	0.345685	0.483431
	H397	H	0.686566	0.342947	0.491889
	H398	H	0.681815	0.345242	0.476508
	O399	O	0.101224	0.914829	1.018937
	H400	H	0.105728	0.937933	1.019875
	H401	H	0.094737	0.909140	1.036201
	O402	O	0.339410	0.551392	0.642230
	H403	H	0.344884	0.535936	0.649964
	H404	H	0.344857	0.538538	0.640998
	O405	O	0.869895	0.859208	0.128323
	H406	H	0.852357	0.864982	0.109192
	H407	H	0.852005	0.871549	0.127152
	O408	O	0.879820	1.054647	0.072680
	H409	H	0.886476	1.048408	0.073308
	H410	H	0.875366	1.059323	0.075101
	O411	O	0.938380	0.056465	0.882056
	H412	H	0.952922	0.044341	0.866494
	H413	H	0.927977	0.051914	0.895967
	O414	O	0.595165	0.568329	0.582694
	H415	H	0.594616	0.569582	0.593349
	H416	H	0.585507	0.576197	0.573263
	O417	O	0.404985	0.493512	0.362187
	H418	H	0.407196	0.504308	0.355618
	H419	H	0.422137	0.501924	0.361668
