data_Molecule from HDF5

_cell_length_a		16.292815
_cell_length_b		16.375995
_cell_length_c		16.236960
_cell_angle_alpha	89.861695
_cell_angle_beta	90.032402
_cell_angle_gamma	90.092679
_symmetry_space_group_name_H-M	'P 1'
_symmetry_Int_Tables_number		1

loop_
	_symmetry_equiv_pos_as_xyz
	x,y,z

loop_
	_atom_site_label
	_atom_site_type_symbol
	_atom_site_fract_x
	_atom_site_fract_y
	_atom_site_fract_z
	H0	H	0.400125	0.844492	0.716013
	H1	H	0.596385	0.171122	0.716369
	H2	H	0.594803	0.845114	0.287940
	H3	H	0.400027	0.171761	0.286134
	H4	H	0.711654	0.409932	0.837584
	H5	H	0.711858	0.605325	0.165517
	H6	H	0.285500	0.604678	0.836958
	H7	H	0.285738	0.410339	0.166376
	H8	H	0.834407	0.722890	0.401181
	H9	H	0.160632	0.724355	0.602060
	H10	H	0.835318	0.291847	0.601057
	H11	H	0.161205	0.293578	0.402593
	H12	H	0.834459	0.408477	0.716371
	H13	H	0.162304	0.605248	0.714632
	H14	H	0.834611	0.604994	0.287264
	H15	H	0.161876	0.410844	0.288578
	H16	H	0.399092	0.722403	0.837986
	H17	H	0.598092	0.722779	0.165235
	H18	H	0.596362	0.293128	0.837900
	H19	H	0.397705	0.291688	0.165212
	H20	H	0.712765	0.845576	0.403199
	H21	H	0.712973	0.171440	0.600557
	H22	H	0.283003	0.845196	0.600820
	H23	H	0.283699	0.172017	0.402773
	H24	H	0.900755	0.345325	0.215576
	H25	H	0.096461	0.671446	0.214188
	H26	H	0.095089	0.344622	0.787558
	H27	H	0.900858	0.670628	0.786585
	H28	H	0.211158	0.912188	0.336872
	H29	H	0.212549	0.106374	0.666019
	H30	H	0.784835	0.105558	0.338078
	H31	H	0.782767	0.908622	0.665726
	H32	H	0.334324	0.222573	0.902523
	H33	H	0.660656	0.222896	0.101109
	H34	H	0.333765	0.792040	0.100228
	H35	H	0.661102	0.793352	0.904555
	H36	H	0.334030	0.909446	0.216281
	H37	H	0.662193	0.103569	0.213253
	H38	H	0.333570	0.104349	0.787972
	H39	H	0.662522	0.911189	0.789623
	H40	H	0.899623	0.221741	0.338249
	H41	H	0.096679	0.222398	0.666092
	H42	H	0.096237	0.794351	0.337456
	H43	H	0.897978	0.791676	0.665572
	H44	H	0.212102	0.344215	0.903904
	H45	H	0.213873	0.670255	0.098188
	H46	H	0.783884	0.345004	0.099876
	H47	H	0.782901	0.670879	0.901222
	H48	H	0.412241	0.122759	0.598115
	H49	H	0.595518	0.891785	0.593295
	H50	H	0.587764	0.120067	0.415984
	H51	H	0.409204	0.896217	0.414181
	H52	H	0.582912	0.420813	0.114190
	H53	H	0.584950	0.610529	0.883244
	H54	H	0.398494	0.597169	0.119515
	H55	H	0.411222	0.412348	0.885603
	H56	H	0.117262	0.607412	0.403460
	H57	H	0.885012	0.599676	0.584299
	H58	H	0.112647	0.421751	0.592902
	H59	H	0.878200	0.408094	0.404957
	H60	H	0.116799	0.413766	0.601915
	H61	H	0.882544	0.592589	0.598526
	H62	H	0.113219	0.604953	0.417321
	H63	H	0.883743	0.414183	0.416631
	H64	H	0.411472	0.595371	0.115793
	H65	H	0.600303	0.599345	0.882323
	H66	H	0.588205	0.404255	0.120336
	H67	H	0.401605	0.409272	0.881825
	H68	H	0.602440	0.127485	0.408199
	H69	H	0.589756	0.892202	0.600112
	H70	H	0.403597	0.121718	0.587618
	H71	H	0.396743	0.891835	0.410226
	H72	H	0.906301	0.625804	0.100206
	H73	H	0.088034	0.393570	0.094641
	H74	H	0.086674	0.622462	0.905740
	H75	H	0.898380	0.389898	0.906016
	H76	H	0.076468	0.912058	0.614925
	H77	H	0.089032	0.109747	0.383017
	H78	H	0.910193	0.099631	0.616847
	H79	H	0.893539	0.914341	0.382063
	H80	H	0.614308	0.100636	0.908483
	H81	H	0.383999	0.092988	0.091880
	H82	H	0.612745	0.921473	0.097713
	H83	H	0.381366	0.923582	0.899722
	H84	H	0.616907	0.907926	0.099353
	H85	H	0.378975	0.101347	0.100729
	H86	H	0.613938	0.102386	0.909514
	H87	H	0.376312	0.901064	0.904128
	H88	H	0.904785	0.105804	0.620984
	H89	H	0.099593	0.099118	0.383759
	H90	H	0.098764	0.903934	0.623987
	H91	H	0.909282	0.925359	0.389622
	H92	H	0.094158	0.622161	0.914136
	H93	H	0.096328	0.390782	0.092698
	H94	H	0.909942	0.621744	0.089755
	H95	H	0.909349	0.393196	0.905045
	H96	H	0.399202	0.126406	0.599394
	H97	H	0.587256	0.895274	0.592069
	H98	H	0.587365	0.124951	0.398980
	H99	H	0.406755	0.891857	0.401341
	H100	H	0.599975	0.418629	0.120202
	H101	H	0.583591	0.592572	0.889286
	H102	H	0.407697	0.607273	0.120052
	H103	H	0.402628	0.419329	0.885749
	H104	H	0.112357	0.593899	0.406861
	H105	H	0.878576	0.607944	0.597130
	H106	H	0.114260	0.409231	0.589465
	H107	H	0.882444	0.421717	0.404557
	H108	H	0.898685	0.624528	0.091730
	H109	H	0.093460	0.389522	0.100678
	H110	H	0.097251	0.625544	0.903643
	H111	H	0.904266	0.393784	0.915790
	H112	H	0.096104	0.928040	0.615900
	H113	H	0.085526	0.096282	0.388295
	H114	H	0.901521	0.097740	0.619471
	H115	H	0.912032	0.905164	0.384535
	H116	H	0.613217	0.100130	0.910672
	H117	H	0.381564	0.105689	0.087924
	H118	H	0.611968	0.911854	0.086819
	H119	H	0.385308	0.914637	0.921574
	C120	C	0.376534	0.016025	0.623748
	C121	C	0.619701	1.000353	0.623743
	C122	C	0.619959	0.016179	0.379936
	C123	C	0.376285	1.000963	0.379816
	C124	C	0.619020	0.386094	0.009981
	C125	C	0.618961	0.629407	0.993006
	C126	C	0.376835	0.628556	0.009856
	C127	C	0.376758	0.385546	0.993166
	C128	C	0.006420	0.630165	0.379860
	C129	C	0.989981	0.628790	0.622460
	C130	C	0.006467	0.386110	0.623324
	C131	C	0.989546	0.386434	0.380095
	C132	C	0.876579	0.516429	0.122805
	C133	C	0.120656	0.499267	0.123240
	C134	C	0.120085	0.515545	0.879844
	C135	C	0.875744	0.499770	0.879313
	C136	C	0.119216	0.886784	0.509817
	C137	C	0.119711	0.129976	0.493494
	C138	C	0.876876	0.129321	0.510620
	C139	C	0.876211	0.886197	0.493805
	C140	C	0.505704	0.129347	0.880589
	C141	C	0.488989	0.128675	0.122575
	C142	C	0.506048	0.885365	0.123562
	C143	C	0.489439	0.885407	0.880179
	C144	C	0.379742	0.893146	0.678029
	C145	C	0.617216	0.122732	0.678657
	C146	C	0.616080	0.893753	0.325501
	C147	C	0.379559	0.123357	0.324366
	C148	C	0.673687	0.389319	0.886481
	C149	C	0.674284	0.626459	0.116517
	C150	C	0.322551	0.625661	0.885958
	C151	C	0.322530	0.389000	0.117032
	C152	C	0.883539	0.685050	0.381538
	C153	C	0.112391	0.685103	0.621157
	C154	C	0.883805	0.330211	0.621315
	C155	C	0.112365	0.331253	0.382142
	C156	C	0.883394	0.388108	0.678561
	C157	C	0.113059	0.626144	0.677439
	C158	C	0.883256	0.626387	0.324980
	C159	C	0.112894	0.389985	0.325692
	C160	C	0.378728	0.684466	0.886713
	C161	C	0.617450	0.684607	0.116299
	C162	C	0.616556	0.331096	0.886825
	C163	C	0.378659	0.330583	0.116594
	C164	C	0.674678	0.894060	0.382837
	C165	C	0.675142	0.122803	0.620902
	C166	C	0.321343	0.893484	0.620877
	C167	C	0.321595	0.123428	0.382285
	C168	C	0.879586	0.393942	0.178105
	C169	C	0.117190	0.622610	0.176722
	C170	C	0.116144	0.392926	0.825407
	C171	C	0.879341	0.622130	0.824183
	C172	C	0.173819	0.890644	0.386105
	C173	C	0.174647	0.127045	0.617278
	C174	C	0.822139	0.126234	0.387056
	C175	C	0.821372	0.888647	0.617105
	C176	C	0.382987	0.184403	0.882450
	C177	C	0.612148	0.184375	0.121143
	C178	C	0.382717	0.830183	0.120976
	C179	C	0.612439	0.831041	0.883216
	C180	C	0.382681	0.888399	0.178420
	C181	C	0.613116	0.125301	0.176847
	C182	C	0.382514	0.125546	0.825718
	C183	C	0.613048	0.889834	0.826571
	C184	C	0.878992	0.184200	0.387234
	C185	C	0.117326	0.184937	0.617066
	C186	C	0.116662	0.832327	0.386398
	C187	C	0.878237	0.830358	0.616753
	C188	C	0.174290	0.392751	0.882961
	C189	C	0.175473	0.622134	0.119177
	C190	C	0.821763	0.393615	0.120358
	C191	C	0.820578	0.622047	0.881086
	C192	C	0.398622	0.101623	0.601658
	C193	C	0.597433	0.915124	0.601489
	C194	C	0.598635	0.102112	0.401235
	C195	C	0.397881	0.915379	0.402088
	C196	C	0.596928	0.408301	0.096078
	C197	C	0.596374	0.607296	0.907214
	C198	C	0.399110	0.606164	0.096007
	C199	C	0.398591	0.407339	0.906765
	C200	C	0.092039	0.608372	0.402469
	C201	C	0.904290	0.606656	0.599829
	C202	C	0.092344	0.408417	0.601316
	C203	C	0.903538	0.408187	0.402338
	C204	C	0.898439	0.602009	0.100418
	C205	C	0.099076	0.413555	0.102308
	C206	C	0.098977	0.601118	0.901496
	C207	C	0.897594	0.414148	0.902243
	C208	C	0.097016	0.908371	0.595923
	C209	C	0.097732	0.108241	0.407230
	C210	C	0.899094	0.107540	0.597003
	C211	C	0.898475	0.908416	0.407473
	C212	C	0.591722	0.107650	0.903046
	C213	C	0.403759	0.106520	0.100195
	C214	C	0.591695	0.907235	0.101268
	C215	C	0.403143	0.906960	0.902024
	Zn216	Zn	0.498079	0.008012	0.752410
	Zn217	Zn	0.497635	0.008416	0.250947
	Zn218	Zn	0.747204	0.508262	0.001629
	Zn219	Zn	0.249573	0.506998	0.001089
	Zn220	Zn	-0.002026	0.758022	0.501835
	Zn221	Zn	-0.001930	0.257936	0.501760
	Zn222	Zn	-0.001761	0.507649	0.751313
	Zn223	Zn	-0.001745	0.508389	0.252000
	Zn224	Zn	0.497512	0.757217	0.002073
	Zn225	Zn	0.497616	0.257630	0.002420
	Zn226	Zn	0.748868	0.008050	0.502227
	Zn227	Zn	0.247718	0.008341	0.502425
	N228	N	0.413185	0.970286	0.679744
	N229	N	0.583480	0.045739	0.680480
	N230	N	0.582576	0.970792	0.323932
	N231	N	0.412864	0.046135	0.322942
	N232	N	0.675617	0.422784	0.964147
	N233	N	0.675244	0.592697	0.038922
	N234	N	0.321286	0.591833	0.963615
	N235	N	0.321128	0.422581	0.039145
	N236	N	0.961133	0.687464	0.415069
	N237	N	0.034931	0.686610	0.587569
	N238	N	0.961212	0.328928	0.587672
	N239	N	0.034830	0.329185	0.415531
	N240	N	0.960702	0.422032	0.679901
	N241	N	0.035842	0.591870	0.678427
	N242	N	0.960613	0.593009	0.323801
	N243	N	0.035599	0.423715	0.324361
	N244	N	0.411813	0.686380	0.964721
	N245	N	0.583531	0.686288	0.038744
	N246	N	0.583277	0.329119	0.964661
	N247	N	0.411519	0.328343	0.038538
	N248	N	0.677169	0.971168	0.415965
	N249	N	0.676894	0.045481	0.587597
	N250	N	0.319265	0.970922	0.587737
	N251	N	0.319603	0.046399	0.416292
	N252	N	0.913153	0.471134	0.179590
	N253	N	0.083900	0.545249	0.179544
	N254	N	0.083183	0.470144	0.823558
	N255	N	0.912840	0.545172	0.823078
	N256	N	0.175282	0.924004	0.463841
	N257	N	0.176195	0.093499	0.539652
	N258	N	0.820994	0.092701	0.464871
	N259	N	0.820008	0.922401	0.539517
	N260	N	0.460650	0.186805	0.915682
	N261	N	0.534549	0.186334	0.087911
	N262	N	0.460316	0.828373	0.087536
	N263	N	0.534581	0.828337	0.915759
	N264	N	0.460188	0.921692	0.180460
	N265	N	0.535713	0.091428	0.178045
	N266	N	0.459816	0.091788	0.824848
	N267	N	0.535312	0.922770	0.824468
	N268	N	0.912374	0.186238	0.465015
	N269	N	0.083918	0.186847	0.539095
	N270	N	0.083541	0.829726	0.464255
	N271	N	0.911743	0.828852	0.538946
	N272	N	0.176918	0.469932	0.916000
	N273	N	0.177897	0.544580	0.086884
	N274	N	0.819825	0.470782	0.086667
	N275	N	0.818338	0.544748	0.914676
	O276	O	-0.485693	-0.441633	1.535072
	H277	H	-0.481727	-0.445178	1.527632
	H278	H	-0.484140	-0.441699	1.534698
	O279	O	0.482766	0.631558	0.532758
	H280	H	0.484517	0.640683	0.535465
	H281	H	0.488343	0.632976	0.536307
	O282	O	0.557969	0.512674	0.528206
	H283	H	0.556414	0.508840	0.525132
	H284	H	0.563081	0.513039	0.523257
	O285	O	0.438857	0.544533	0.432347
	H286	H	0.443438	0.551635	0.441597
	H287	H	0.426433	0.549591	0.430958
	O288	O	0.520324	0.638357	0.536215
	H289	H	0.520163	0.643959	0.529216
	H290	H	0.516250	0.635112	0.529394
	O291	O	0.485615	0.563279	0.517472
	H292	H	0.474949	0.574358	0.515931
	H293	H	0.481076	0.568139	0.520403
	O294	O	0.486987	0.545716	0.509344
	H295	H	0.500138	0.546777	0.522642
	H296	H	0.487680	0.535689	0.508839
	O297	O	1.477157	-0.370945	-0.551373
	H298	H	1.476136	-0.372339	-0.560453
	H299	H	1.477194	-0.365800	-0.546779
