data_Molecule from HDF5

_cell_length_a		16.206574
_cell_length_b		16.167095
_cell_length_c		16.466132
_cell_angle_alpha	90.251461
_cell_angle_beta	90.266245
_cell_angle_gamma	90.182018
_symmetry_space_group_name_H-M	'P 1'
_symmetry_Int_Tables_number		1

loop_
	_symmetry_equiv_pos_as_xyz
	x,y,z

loop_
	_atom_site_label
	_atom_site_type_symbol
	_atom_site_fract_x
	_atom_site_fract_y
	_atom_site_fract_z
	H0	H	0.400201	0.834180	0.716862
	H1	H	0.602214	0.161914	0.719399
	H2	H	0.601985	0.834325	0.285411
	H3	H	0.400504	0.162588	0.287303
	H4	H	0.713343	0.400988	0.838024
	H5	H	0.717971	0.598315	0.163956
	H6	H	0.283707	0.597028	0.839412
	H7	H	0.284686	0.398609	0.163286
	H8	H	0.836012	0.709235	0.404795
	H9	H	0.165773	0.710322	0.598509
	H10	H	0.836724	0.285636	0.595970
	H11	H	0.166133	0.286259	0.405855
	H12	H	0.838108	0.395945	0.716038
	H13	H	0.164313	0.599573	0.718811
	H14	H	0.838572	0.598637	0.285201
	H15	H	0.164755	0.396597	0.286845
	H16	H	0.403114	0.712513	0.838641
	H17	H	0.598501	0.712665	0.164591
	H18	H	0.597952	0.282226	0.839786
	H19	H	0.402519	0.283078	0.163832
	H20	H	0.711603	0.832155	0.406197
	H21	H	0.713877	0.163658	0.599314
	H22	H	0.289947	0.832119	0.596119
	H23	H	0.288421	0.162888	0.405319
	H24	H	0.900922	0.334168	0.215491
	H25	H	0.103829	0.661641	0.220027
	H26	H	0.102194	0.335330	0.784700
	H27	H	0.900790	0.661048	0.786043
	H28	H	0.213981	0.898903	0.339021
	H29	H	0.219266	0.098629	0.663033
	H30	H	0.783506	0.095575	0.340724
	H31	H	0.786090	0.898885	0.664409
	H32	H	0.335417	0.207656	0.907467
	H33	H	0.665140	0.213366	0.101336
	H34	H	0.336068	0.785171	0.097044
	H35	H	0.666255	0.787849	0.906501
	H36	H	0.337022	0.896754	0.216903
	H37	H	0.664347	0.099782	0.218840
	H38	H	0.338257	0.099951	0.784993
	H39	H	0.663820	0.896223	0.786135
	H40	H	0.903670	0.209888	0.338337
	H41	H	0.101542	0.215070	0.663829
	H42	H	0.097611	0.781908	0.340508
	H43	H	0.902748	0.783066	0.664572
	H44	H	0.212531	0.333010	0.904014
	H45	H	0.214541	0.663533	0.098820
	H46	H	0.788427	0.333362	0.096290
	H47	H	0.790840	0.664239	0.905067
	H48	H	0.414195	0.114991	0.596347
	H49	H	0.603235	0.876382	0.597638
	H50	H	0.593916	0.115041	0.413654
	H51	H	0.411161	0.882585	0.409875
	H52	H	0.583430	0.412984	0.111106
	H53	H	0.611157	0.590448	0.882475
	H54	H	0.408126	0.590185	0.115534
	H55	H	0.401963	0.412484	0.887726
	H56	H	0.116454	0.591156	0.418075
	H57	H	0.882923	0.589171	0.598631
	H58	H	0.116336	0.408050	0.587223
	H59	H	0.884684	0.410442	0.404736
	H60	H	0.117822	0.414977	0.600552
	H61	H	0.882982	0.593297	0.595519
	H62	H	0.115912	0.581863	0.407963
	H63	H	0.881439	0.400895	0.402680
	H64	H	0.410505	0.592763	0.115466
	H65	H	0.586670	0.582160	0.891798
	H66	H	0.595394	0.392995	0.119878
	H67	H	0.415729	0.403246	0.888875
	H68	H	0.593436	0.116146	0.407303
	H69	H	0.585239	0.880579	0.604185
	H70	H	0.409194	0.115020	0.592291
	H71	H	0.403505	0.878914	0.407834
	H72	H	0.912480	0.612307	0.086231
	H73	H	0.085561	0.384113	0.088828
	H74	H	0.090952	0.612336	0.916964
	H75	H	0.913204	0.379311	0.898936
	H76	H	0.093049	0.901080	0.617984
	H77	H	0.091912	0.088459	0.388438
	H78	H	0.908542	0.091687	0.615905
	H79	H	0.910258	0.897687	0.386677
	H80	H	0.619899	0.097090	0.911361
	H81	H	0.380130	0.097297	0.103194
	H82	H	0.619070	0.901839	0.095060
	H83	H	0.383859	0.907247	0.908379
	H84	H	0.615833	0.910566	0.093091
	H85	H	0.385636	0.093125	0.086675
	H86	H	0.615075	0.084776	0.915298
	H87	H	0.383814	0.905975	0.906028
	H88	H	0.909449	0.092521	0.617324
	H89	H	0.093315	0.096152	0.385963
	H90	H	0.101229	0.905504	0.619053
	H91	H	0.899242	0.903882	0.385059
	H92	H	0.099688	0.618997	0.907386
	H93	H	0.102415	0.379526	0.092380
	H94	H	0.901995	0.619773	0.099195
	H95	H	0.911877	0.383603	0.915847
	H96	H	0.408563	0.116577	0.598640
	H97	H	0.589884	0.884942	0.586032
	H98	H	0.587979	0.113459	0.410364
	H99	H	0.410112	0.879539	0.402028
	H100	H	0.607086	0.414829	0.117610
	H101	H	0.590771	0.608228	0.883577
	H102	H	0.407063	0.593599	0.116887
	H103	H	0.401474	0.396260	0.882660
	H104	H	0.121830	0.594924	0.405112
	H105	H	0.885033	0.587777	0.593480
	H106	H	0.121757	0.400338	0.599084
	H107	H	0.884588	0.403612	0.411997
	H108	H	0.919830	0.615609	0.102742
	H109	H	0.090635	0.378462	0.105106
	H110	H	0.085812	0.614942	0.904626
	H111	H	0.897738	0.377135	0.907317
	H112	H	0.093723	0.910123	0.614862
	H113	H	0.098785	0.090417	0.385769
	H114	H	0.907731	0.092124	0.616855
	H115	H	0.909744	0.910185	0.390362
	H116	H	0.619566	0.086679	0.902770
	H117	H	0.385649	0.080424	0.099069
	H118	H	0.618960	0.908179	0.102021
	H119	H	0.383371	0.904370	0.907718
	C120	C	0.381342	0.006387	0.622960
	C121	C	0.622546	0.989278	0.624636
	C122	C	0.621084	0.006329	0.381462
	C123	C	0.379604	0.989554	0.379218
	C124	C	0.622724	0.377456	0.009116
	C125	C	0.624754	0.621680	0.993290
	C126	C	0.379311	0.620467	0.009035
	C127	C	0.378344	0.375819	0.993633
	C128	C	0.009912	0.618642	0.381270
	C129	C	0.992173	0.619221	0.624022
	C130	C	0.010232	0.377584	0.623201
	C131	C	0.992494	0.376701	0.379576
	C132	C	0.881110	0.506973	0.123272
	C133	C	0.122653	0.489536	0.123984
	C134	C	0.121490	0.506853	0.880659
	C135	C	0.879886	0.489287	0.879928
	C136	C	0.123210	0.876539	0.510340
	C137	C	0.124149	0.120961	0.493565
	C138	C	0.879072	0.120104	0.509709
	C139	C	0.878504	0.875543	0.494607
	C140	C	0.509550	0.118759	0.881120
	C141	C	0.492258	0.119983	0.124647
	C142	C	0.509415	0.877329	0.124208
	C143	C	0.492502	0.877218	0.880246
	C144	C	0.381494	0.882725	0.678021
	C145	C	0.621728	0.113286	0.680414
	C146	C	0.620393	0.883134	0.324871
	C147	C	0.381213	0.113452	0.325099
	C148	C	0.676245	0.380013	0.886937
	C149	C	0.680025	0.619046	0.115428
	C150	C	0.322850	0.617319	0.887508
	C151	C	0.323461	0.378620	0.115353
	C152	C	0.885640	0.672898	0.383957
	C153	C	0.116417	0.673745	0.620557
	C154	C	0.886106	0.322374	0.618400
	C155	C	0.116682	0.322873	0.384272
	C156	C	0.886921	0.377044	0.678178
	C157	C	0.115418	0.618825	0.680377
	C158	C	0.886921	0.618050	0.324207
	C159	C	0.115846	0.377284	0.324723
	C160	C	0.382209	0.674381	0.886826
	C161	C	0.620787	0.675982	0.115792
	C162	C	0.618902	0.320921	0.887629
	C163	C	0.381902	0.321075	0.115451
	C164	C	0.675376	0.882104	0.384542
	C165	C	0.677362	0.113880	0.621196
	C166	C	0.326516	0.881851	0.618248
	C167	C	0.325740	0.113893	0.384000
	C168	C	0.881491	0.383184	0.177589
	C169	C	0.122918	0.612886	0.180917
	C170	C	0.120947	0.383779	0.823901
	C171	C	0.881760	0.612784	0.825018
	C172	C	0.177013	0.878576	0.387912
	C173	C	0.180395	0.119038	0.615088
	C174	C	0.822269	0.116724	0.388611
	C175	C	0.823644	0.878045	0.616031
	C176	C	0.385357	0.172189	0.885081
	C177	C	0.615944	0.175688	0.122202
	C178	C	0.385402	0.822091	0.119169
	C179	C	0.616534	0.823813	0.884875
	C180	C	0.385701	0.877896	0.178358
	C181	C	0.615541	0.119067	0.180317
	C182	C	0.386675	0.118288	0.824565
	C183	C	0.615516	0.877878	0.825275
	C184	C	0.882106	0.173411	0.387404
	C185	C	0.121980	0.176946	0.615362
	C186	C	0.118813	0.820639	0.388384
	C187	C	0.882039	0.820811	0.616173
	C188	C	0.175468	0.382605	0.883463
	C189	C	0.177725	0.613971	0.120759
	C190	C	0.825616	0.382853	0.118219
	C191	C	0.826880	0.614152	0.884123
	C192	C	0.403956	0.092861	0.602043
	C193	C	0.599489	0.903103	0.602532
	C194	C	0.598429	0.092657	0.403834
	C195	C	0.401782	0.902785	0.400411
	C196	C	0.601300	0.400007	0.094286
	C197	C	0.602713	0.600090	0.907909
	C198	C	0.401995	0.598610	0.093881
	C199	C	0.400027	0.397740	0.908461
	C200	C	0.095757	0.596028	0.403888
	C201	C	0.905964	0.596832	0.602280
	C202	C	0.096377	0.401022	0.601823
	C203	C	0.906004	0.398516	0.400235
	C204	C	0.904597	0.593563	0.102351
	C205	C	0.099627	0.403110	0.101930
	C206	C	0.098903	0.593233	0.903097
	C207	C	0.901282	0.402315	0.900984
	C208	C	0.102139	0.898964	0.595244
	C209	C	0.101336	0.098360	0.408727
	C210	C	0.902026	0.098580	0.594937
	C211	C	0.900073	0.897415	0.409275
	C212	C	0.595879	0.096075	0.903192
	C213	C	0.405927	0.097215	0.102845
	C214	C	0.595702	0.900278	0.103136
	C215	C	0.405943	0.899361	0.901083
	Zn216	Zn	0.501020	-0.001975	0.752475
	Zn217	Zn	0.500558	-0.001512	0.252075
	Zn218	Zn	0.753337	0.499451	0.001003
	Zn219	Zn	0.249256	0.497808	0.001552
	Zn220	Zn	0.000672	0.746784	0.502385
	Zn221	Zn	0.001634	0.249833	0.501358
	Zn222	Zn	0.000730	0.497812	0.752331
	Zn223	Zn	0.002059	0.498183	0.252324
	Zn224	Zn	0.501556	0.750318	0.001355
	Zn225	Zn	0.501336	0.246713	0.001785
	Zn226	Zn	0.749609	-0.002591	0.502489
	Zn227	Zn	0.253489	-0.002301	0.501418
	N228	N	0.414744	0.961140	0.681141
	N229	N	0.588407	0.034970	0.682785
	N230	N	0.587494	0.961474	0.322623
	N231	N	0.414079	0.035022	0.322206
	N232	N	0.678766	0.414484	0.963437
	N233	N	0.682302	0.586034	0.038448
	N234	N	0.320877	0.584664	0.964575
	N235	N	0.321096	0.411830	0.038634
	N236	N	0.963015	0.673395	0.418859
	N237	N	0.038894	0.674305	0.586309
	N238	N	0.963728	0.322584	0.584877
	N239	N	0.038986	0.322201	0.417608
	N240	N	0.965064	0.410640	0.681363
	N241	N	0.037207	0.585577	0.682651
	N242	N	0.964860	0.584541	0.322799
	N243	N	0.037688	0.410027	0.321631
	N244	N	0.416434	0.676709	0.963395
	N245	N	0.587077	0.677881	0.038794
	N246	N	0.586505	0.319193	0.964794
	N247	N	0.415262	0.319059	0.038746
	N248	N	0.675968	0.959796	0.419059
	N249	N	0.678065	0.035874	0.587155
	N250	N	0.326173	0.959728	0.584898
	N251	N	0.324500	0.035714	0.416624
	N252	N	0.915345	0.461452	0.180856
	N253	N	0.089312	0.534533	0.182714
	N254	N	0.087635	0.461944	0.822326
	N255	N	0.913890	0.534083	0.822018
	N256	N	0.179759	0.912620	0.464682
	N257	N	0.181856	0.084908	0.538452
	N258	N	0.820643	0.084241	0.465624
	N259	N	0.821476	0.911404	0.539377
	N260	N	0.462878	0.172542	0.919539
	N261	N	0.538412	0.176159	0.088099
	N262	N	0.463263	0.821750	0.085862
	N263	N	0.539060	0.823427	0.918479
	N264	N	0.463651	0.911342	0.181622
	N265	N	0.537446	0.085504	0.182389
	N266	N	0.465008	0.085734	0.822015
	N267	N	0.537196	0.910561	0.822235
	N268	N	0.916678	0.175621	0.463928
	N269	N	0.087850	0.178365	0.538802
	N270	N	0.086369	0.818825	0.465366
	N271	N	0.915487	0.819134	0.539505
	N272	N	0.175705	0.460183	0.918254
	N273	N	0.177825	0.536331	0.086189
	N274	N	0.825208	0.460982	0.085348
	N275	N	0.825838	0.536257	0.917570
	O276	O	1.069599	0.979519	-0.008173
	H277	H	1.069502	0.973261	-0.010980
	H278	H	1.066567	0.972009	-0.004473
	O279	O	0.031650	-0.009168	0.034854
	H280	H	0.030117	-0.010793	0.038250
	H281	H	0.034614	-0.007903	0.033872
	O282	O	-0.025432	-0.023152	0.997086
	H283	H	-0.017826	-0.010075	0.994463
	H284	H	-0.027410	-0.035099	0.992902
	O285	O	0.513783	0.476640	0.427192
	H286	H	0.510471	0.478798	0.425044
	H287	H	0.514503	0.477600	0.421077
	O288	O	0.503982	0.493845	0.465000
	H289	H	0.495518	0.498316	0.454123
	H290	H	0.498095	0.496320	0.464855
	O291	O	0.512454	0.480686	0.422590
	H292	H	0.508913	0.478821	0.423100
	H293	H	0.517985	0.483034	0.415777
	O294	O	0.023590	-0.022551	0.019388
	H295	H	0.022021	-0.027365	0.019593
	H296	H	0.013409	-0.020397	0.023160
	O297	O	0.418884	0.523090	0.454459
	H298	H	0.426517	0.518397	0.463106
	H299	H	0.410277	0.516883	0.453625
	O300	O	0.017804	0.989709	0.963760
	H301	H	0.029244	0.992684	0.972041
	H302	H	0.024483	0.986186	0.960263
	O303	O	0.497887	0.536326	0.473317
	H304	H	0.512037	0.531929	0.466547
	H305	H	0.505283	0.538329	0.477560
	O306	O	-0.035495	-0.032175	0.989010
	H307	H	-0.034378	-0.020669	0.992056
	H308	H	-0.047478	-0.038355	0.983139
	O309	O	0.976200	1.096967	1.017760
	H310	H	0.990140	1.098429	1.023323
	H311	H	0.975396	1.105343	1.016478
	O312	O	0.496093	0.511475	0.429271
	H313	H	0.505434	0.511260	0.437011
	H314	H	0.488310	0.517534	0.429632
	O315	O	0.480400	0.439079	0.456604
	H316	H	0.474347	0.433128	0.449071
	H317	H	0.480391	0.433382	0.452496
	O318	O	0.011426	1.005282	0.018347
	H319	H	0.013528	1.006843	0.021042
	H320	H	0.008485	0.999815	0.016439
	O321	O	0.989389	0.970108	-0.001409
	H322	H	0.990946	0.969263	-0.005849
	H323	H	0.994581	0.973324	-0.006631
