data_Molecule from HDF5

_cell_length_a		16.254750
_cell_length_b		16.312050
_cell_length_c		16.330316
_cell_angle_alpha	90.118538
_cell_angle_beta	90.076170
_cell_angle_gamma	90.097141
_symmetry_space_group_name_H-M	'P 1'
_symmetry_Int_Tables_number		1

loop_
	_symmetry_equiv_pos_as_xyz
	x,y,z

loop_
	_atom_site_label
	_atom_site_type_symbol
	_atom_site_fract_x
	_atom_site_fract_y
	_atom_site_fract_z
	H0	H	0.401252	0.847835	0.715339
	H1	H	0.600623	0.174830	0.718063
	H2	H	0.598828	0.848022	0.286883
	H3	H	0.402058	0.175269	0.287200
	H4	H	0.712672	0.413564	0.837017
	H5	H	0.713776	0.609824	0.164305
	H6	H	0.285595	0.608137	0.837544
	H7	H	0.285207	0.413996	0.164727
	H8	H	0.835704	0.725761	0.402376
	H9	H	0.163452	0.725927	0.599310
	H10	H	0.835470	0.298093	0.598442
	H11	H	0.163452	0.299308	0.402265
	H12	H	0.835636	0.413921	0.714600
	H13	H	0.161858	0.612655	0.717411
	H14	H	0.835570	0.609420	0.286348
	H15	H	0.162390	0.413094	0.285153
	H16	H	0.400079	0.726704	0.838181
	H17	H	0.596749	0.725914	0.165104
	H18	H	0.598046	0.295374	0.838335
	H19	H	0.401263	0.297784	0.164378
	H20	H	0.713219	0.848184	0.404892
	H21	H	0.714265	0.176209	0.599886
	H22	H	0.284898	0.848236	0.598534
	H23	H	0.285900	0.175499	0.403637
	H24	H	0.900915	0.348592	0.214847
	H25	H	0.098985	0.675289	0.215676
	H26	H	0.097102	0.349363	0.785569
	H27	H	0.899063	0.674975	0.785919
	H28	H	0.212746	0.915143	0.337607
	H29	H	0.213736	0.110432	0.664482
	H30	H	0.784726	0.109256	0.337394
	H31	H	0.786588	0.915229	0.664745
	H32	H	0.334715	0.223513	0.904143
	H33	H	0.663204	0.226595	0.099792
	H34	H	0.335266	0.797429	0.098560
	H35	H	0.663139	0.796467	0.903311
	H36	H	0.335409	0.912806	0.215404
	H37	H	0.664128	0.109153	0.214961
	H38	H	0.335801	0.107778	0.787525
	H39	H	0.663524	0.911446	0.786322
	H40	H	0.901106	0.225954	0.336017
	H41	H	0.098193	0.228539	0.663325
	H42	H	0.098189	0.797729	0.337561
	H43	H	0.902077	0.797791	0.664309
	H44	H	0.212467	0.348591	0.902782
	H45	H	0.212083	0.675917	0.097108
	H46	H	0.785853	0.347851	0.097625
	H47	H	0.784145	0.674947	0.902743
	H48	H	0.410414	0.126058	0.593116
	H49	H	0.599954	0.891793	0.601315
	H50	H	0.591704	0.128079	0.407869
	H51	H	0.401301	0.895768	0.412719
	H52	H	0.590215	0.415473	0.117097
	H53	H	0.587400	0.610382	0.883910
	H54	H	0.406624	0.609165	0.118247
	H55	H	0.409158	0.418633	0.886025
	H56	H	0.122405	0.619589	0.400883
	H57	H	0.883059	0.599274	0.595132
	H58	H	0.116211	0.420992	0.595231
	H59	H	0.883978	0.425883	0.405293
	H60	H	0.116306	0.418242	0.593242
	H61	H	0.880085	0.609862	0.597051
	H62	H	0.111268	0.604497	0.423783
	H63	H	0.879494	0.414804	0.402053
	H64	H	0.402067	0.605912	0.118558
	H65	H	0.597702	0.604515	0.883417
	H66	H	0.596389	0.417845	0.118478
	H67	H	0.405270	0.413156	0.884064
	H68	H	0.593485	0.128094	0.408667
	H69	H	0.582382	0.898122	0.597001
	H70	H	0.404531	0.128030	0.594120
	H71	H	0.404775	0.893398	0.400389
	H72	H	0.911640	0.627588	0.095456
	H73	H	0.086558	0.396573	0.094967
	H74	H	0.085997	0.625339	0.909807
	H75	H	0.904361	0.392134	0.895794
	H76	H	0.093267	0.915545	0.618083
	H77	H	0.099228	0.096156	0.385492
	H78	H	0.913248	0.102660	0.612620
	H79	H	0.903596	0.923222	0.385627
	H80	H	0.615736	0.102278	0.908506
	H81	H	0.379103	0.115389	0.098575
	H82	H	0.615177	0.920508	0.095104
	H83	H	0.382966	0.915198	0.908127
	H84	H	0.617184	0.916736	0.097682
	H85	H	0.386623	0.102603	0.084417
	H86	H	0.617029	0.106117	0.907594
	H87	H	0.384811	0.920523	0.910632
	H88	H	0.909019	0.113102	0.617556
	H89	H	0.082317	0.106601	0.387473
	H90	H	0.094362	0.921502	0.617541
	H91	H	0.911793	0.916731	0.385721
	H92	H	0.098018	0.628956	0.912711
	H93	H	0.093371	0.396824	0.089121
	H94	H	0.905291	0.627212	0.089018
	H95	H	0.914543	0.398721	0.910344
	H96	H	0.408847	0.128040	0.598875
	H97	H	0.595777	0.898536	0.583645
	H98	H	0.593689	0.128137	0.406454
	H99	H	0.413762	0.897593	0.408788
	H100	H	0.591526	0.421788	0.115956
	H101	H	0.587800	0.599278	0.888105
	H102	H	0.406982	0.603405	0.116837
	H103	H	0.402202	0.420023	0.884475
	H104	H	0.114645	0.591501	0.398357
	H105	H	0.884273	0.606630	0.586322
	H106	H	0.114841	0.421296	0.592501
	H107	H	0.884051	0.416377	0.414128
	H108	H	0.902866	0.630306	0.097058
	H109	H	0.095164	0.393265	0.097241
	H110	H	0.093536	0.631186	0.901316
	H111	H	0.896618	0.394169	0.912964
	H112	H	0.089124	0.918991	0.615618
	H113	H	0.098787	0.115639	0.379735
	H114	H	0.901261	0.103321	0.617269
	H115	H	0.902328	0.913413	0.382282
	H116	H	0.615879	0.105356	0.911682
	H117	H	0.382460	0.096235	0.103452
	H118	H	0.616581	0.916126	0.092566
	H119	H	0.382330	0.920439	0.904524
	C120	C	0.378626	0.019568	0.623013
	C121	C	0.621550	1.004216	0.622906
	C122	C	0.621557	0.020111	0.379648
	C123	C	0.378473	1.003605	0.379602
	C124	C	0.621019	0.389925	0.009392
	C125	C	0.620129	0.633331	0.993005
	C126	C	0.377257	0.633663	0.009599
	C127	C	0.377378	0.389735	0.992771
	C128	C	0.007866	0.633369	0.379350
	C129	C	0.990842	0.633838	0.621963
	C130	C	0.007338	0.391612	0.621698
	C131	C	0.990574	0.390772	0.378579
	C132	C	0.878144	0.520021	0.121851
	C133	C	0.120284	0.503749	0.121872
	C134	C	0.120614	0.520521	0.879324
	C135	C	0.876943	0.503308	0.878546
	C136	C	0.120938	0.890413	0.509239
	C137	C	0.121838	0.134568	0.492130
	C138	C	0.878588	0.134336	0.508227
	C139	C	0.878073	0.890136	0.492751
	C140	C	0.507881	0.132683	0.880160
	C141	C	0.491144	0.133462	0.123522
	C142	C	0.507611	0.889952	0.122724
	C143	C	0.491537	0.889825	0.879714
	C144	C	0.380482	0.896696	0.677859
	C145	C	0.619854	0.126512	0.679027
	C146	C	0.619134	0.896787	0.325203
	C147	C	0.381059	0.126484	0.324679
	C148	C	0.675176	0.392912	0.886237
	C149	C	0.675966	0.631019	0.115603
	C150	C	0.322472	0.629818	0.886562
	C151	C	0.323037	0.393385	0.115854
	C152	C	0.884574	0.688446	0.381602
	C153	C	0.114136	0.688489	0.619889
	C154	C	0.884133	0.336510	0.618500
	C155	C	0.114332	0.336352	0.381200
	C156	C	0.884361	0.393790	0.676540
	C157	C	0.113549	0.631825	0.678160
	C158	C	0.884397	0.630510	0.324194
	C159	C	0.113918	0.393176	0.323480
	C160	C	0.379600	0.688448	0.886780
	C161	C	0.617657	0.688390	0.116042
	C162	C	0.618079	0.334321	0.886681
	C163	C	0.380867	0.335981	0.115912
	C164	C	0.676098	0.896951	0.383424
	C165	C	0.676444	0.127216	0.620361
	C166	C	0.322812	0.896903	0.619810
	C167	C	0.323484	0.126606	0.382614
	C168	C	0.880301	0.397317	0.176881
	C169	C	0.118532	0.626561	0.177268
	C170	C	0.117593	0.397822	0.823805
	C171	C	0.879334	0.626353	0.824020
	C172	C	0.175385	0.894008	0.386253
	C173	C	0.176508	0.131595	0.615239
	C174	C	0.822826	0.130544	0.385579
	C175	C	0.824561	0.894367	0.616043
	C176	C	0.384032	0.186524	0.883107
	C177	C	0.614369	0.188419	0.120372
	C178	C	0.384111	0.835286	0.119480
	C179	C	0.614558	0.834495	0.882622
	C180	C	0.384231	0.892673	0.177324
	C181	C	0.614843	0.130203	0.177660
	C182	C	0.384480	0.128890	0.825353
	C183	C	0.614941	0.892129	0.824935
	C184	C	0.880570	0.188531	0.385066
	C185	C	0.119091	0.190034	0.614904
	C186	C	0.118501	0.835631	0.386308
	C187	C	0.881362	0.835571	0.615594
	C188	C	0.174841	0.397421	0.882107
	C189	C	0.175233	0.626812	0.118784
	C190	C	0.823319	0.396847	0.118475
	C191	C	0.821955	0.626259	0.881787
	C192	C	0.401213	0.105228	0.601486
	C193	C	0.599234	0.918395	0.600524
	C194	C	0.599402	0.105801	0.401190
	C195	C	0.400247	0.917821	0.401176
	C196	C	0.599143	0.411990	0.095051
	C197	C	0.597720	0.611361	0.907153
	C198	C	0.399084	0.612711	0.095494
	C199	C	0.399041	0.410954	0.907007
	C200	C	0.093928	0.611614	0.401251
	C201	C	0.904752	0.611674	0.599544
	C202	C	0.093567	0.413693	0.600035
	C203	C	0.904721	0.412473	0.400633
	C204	C	0.900083	0.606151	0.100012
	C205	C	0.098076	0.417786	0.100193
	C206	C	0.098713	0.606404	0.901383
	C207	C	0.898898	0.417091	0.899852
	C208	C	0.098914	0.912340	0.595176
	C209	C	0.099796	0.112672	0.406328
	C210	C	0.901175	0.112764	0.593859
	C211	C	0.899465	0.911632	0.406756
	C212	C	0.593919	0.111108	0.902634
	C213	C	0.404890	0.111378	0.101743
	C214	C	0.594100	0.911439	0.101310
	C215	C	0.405413	0.912213	0.901570
	Zn216	Zn	0.500397	0.011306	0.751646
	Zn217	Zn	0.500161	0.011138	0.251207
	Zn218	Zn	0.749269	0.512061	0.000827
	Zn219	Zn	0.249254	0.511371	0.001272
	Zn220	Zn	-0.000203	0.761501	0.500408
	Zn221	Zn	-0.000457	0.263290	0.499855
	Zn222	Zn	-0.001210	0.512881	0.750561
	Zn223	Zn	-0.000754	0.512232	0.250761
	Zn224	Zn	0.499241	0.762054	0.001166
	Zn225	Zn	0.498755	0.261290	0.001202
	Zn226	Zn	0.749992	0.012547	0.501264
	Zn227	Zn	0.249795	0.011717	0.501109
	N228	N	0.414713	0.973908	0.679854
	N229	N	0.586431	0.049001	0.680740
	N230	N	0.585960	0.974289	0.322713
	N231	N	0.414510	0.048935	0.322639
	N232	N	0.676961	0.426719	0.963450
	N233	N	0.677542	0.597580	0.038162
	N234	N	0.320869	0.596441	0.963847
	N235	N	0.320765	0.426103	0.038335
	N236	N	0.962370	0.690375	0.415004
	N237	N	0.036800	0.689722	0.585667
	N238	N	0.961795	0.335156	0.584883
	N239	N	0.036974	0.335030	0.415258
	N240	N	0.961851	0.427403	0.678472
	N241	N	0.035823	0.598415	0.679392
	N242	N	0.961913	0.597038	0.322700
	N243	N	0.036137	0.426249	0.321693
	N244	N	0.412888	0.690811	0.964117
	N245	N	0.583601	0.689744	0.038869
	N246	N	0.584931	0.332367	0.964239
	N247	N	0.413875	0.333484	0.038489
	N248	N	0.677720	0.974426	0.416649
	N249	N	0.677661	0.050098	0.586155
	N250	N	0.321642	0.974315	0.586572
	N251	N	0.321757	0.049341	0.415980
	N252	N	0.913562	0.474927	0.178961
	N253	N	0.084863	0.549071	0.179163
	N254	N	0.084757	0.475312	0.821891
	N255	N	0.912737	0.548795	0.821873
	N256	N	0.177149	0.927011	0.463817
	N257	N	0.178231	0.097939	0.537953
	N258	N	0.821488	0.097672	0.463017
	N259	N	0.822322	0.927562	0.538665
	N260	N	0.461742	0.188852	0.916592
	N261	N	0.536480	0.190449	0.087476
	N262	N	0.461695	0.833620	0.086270
	N263	N	0.536901	0.833067	0.915899
	N264	N	0.462093	0.926135	0.179324
	N265	N	0.537081	0.096720	0.179693
	N266	N	0.462368	0.096071	0.823647
	N267	N	0.537343	0.925654	0.822971
	N268	N	0.914418	0.190926	0.462385
	N269	N	0.085741	0.192074	0.537492
	N270	N	0.085215	0.833473	0.463713
	N271	N	0.914017	0.833046	0.537950
	N272	N	0.176828	0.474729	0.915844
	N273	N	0.176341	0.549616	0.084960
	N274	N	0.821974	0.474316	0.084879
	N275	N	0.820472	0.548867	0.914920
	O276	O	-0.512669	-0.493468	1.512638
	H277	H	-0.505615	-0.494167	1.514384
	H278	H	-0.514825	-0.494614	1.506764
	O279	O	0.464545	0.484310	0.507277
	H280	H	0.465821	0.486019	0.509571
	H281	H	0.463736	0.486683	0.505562
	O282	O	0.499607	0.516952	0.527742
	H283	H	0.498323	0.519798	0.531963
	H284	H	0.494881	0.522926	0.529432
	O285	O	0.471307	0.448383	0.469924
	H286	H	0.469116	0.439747	0.472193
	H287	H	0.470518	0.440412	0.476262
	O288	O	0.504390	0.535511	0.517054
	H289	H	0.497770	0.539931	0.509395
	H290	H	0.507184	0.542786	0.515862
	O291	O	0.485756	0.525693	0.518553
	H292	H	0.479610	0.519664	0.509091
	H293	H	0.491039	0.521224	0.509471
	O294	O	0.433190	0.498231	0.488844
	H295	H	0.423777	0.497528	0.492584
	H296	H	0.429841	0.493309	0.496377
	O297	O	1.403958	-0.512468	-0.386566
	H298	H	1.410283	-0.503505	-0.373058
	H299	H	1.408502	-0.519630	-0.379193
