data_Molecule from HDF5

_cell_length_a		16.670433
_cell_length_b		16.608545
_cell_length_c		16.524228
_cell_angle_alpha	89.983098
_cell_angle_beta	90.046643
_cell_angle_gamma	89.942200
_symmetry_space_group_name_H-M	'P 1'
_symmetry_Int_Tables_number		1

loop_
	_symmetry_equiv_pos_as_xyz
	x,y,z

loop_
	_atom_site_label
	_atom_site_type_symbol
	_atom_site_fract_x
	_atom_site_fract_y
	_atom_site_fract_z
	H0	H	0.425998	0.835542	0.713480
	H1	H	0.632779	0.149216	0.714808
	H2	H	0.634563	0.836937	0.272842
	H3	H	0.426045	0.148457	0.274508
	H4	H	0.751624	0.385368	0.838648
	H5	H	0.751859	0.599637	0.150028
	H6	H	0.307718	0.598666	0.837542
	H7	H	0.310951	0.390799	0.151651
	H8	H	0.871485	0.714013	0.388830
	H9	H	0.181331	0.718972	0.603873
	H10	H	0.872710	0.272776	0.598201
	H11	H	0.183314	0.270763	0.389268
	H12	H	0.873133	0.388724	0.715224
	H13	H	0.182065	0.601341	0.719078
	H14	H	0.871064	0.596349	0.274362
	H15	H	0.184367	0.389620	0.274965
	H16	H	0.424894	0.712992	0.836957
	H17	H	0.636799	0.716047	0.149164
	H18	H	0.633265	0.272701	0.836605
	H19	H	0.426813	0.274535	0.151525
	H20	H	0.750610	0.837088	0.388343
	H21	H	0.748216	0.149971	0.598214
	H22	H	0.307098	0.837932	0.600309
	H23	H	0.306429	0.147134	0.387717
	H24	H	0.925801	0.336477	0.214466
	H25	H	0.132768	0.650146	0.215411
	H26	H	0.133683	0.337428	0.772124
	H27	H	0.921477	0.647864	0.771148
	H28	H	0.252371	0.885700	0.339049
	H29	H	0.252702	0.101065	0.649511
	H30	H	0.808875	0.098381	0.336991
	H31	H	0.809526	0.890276	0.650380
	H32	H	0.373839	0.215068	0.886803
	H33	H	0.684489	0.214314	0.098910
	H34	H	0.376289	0.768073	0.104335
	H35	H	0.683374	0.768968	0.887345
	H36	H	0.375234	0.884896	0.218305
	H37	H	0.684723	0.097623	0.215414
	H38	H	0.373402	0.096982	0.772377
	H39	H	0.684681	0.888133	0.773151
	H40	H	0.925258	0.213660	0.337190
	H41	H	0.135765	0.215830	0.650362
	H42	H	0.135413	0.770205	0.338566
	H43	H	0.924989	0.773137	0.650855
	H44	H	0.251040	0.338036	0.887719
	H45	H	0.250574	0.649071	0.100007
	H46	H	0.806968	0.337245	0.101271
	H47	H	0.803529	0.646149	0.885500
	H48	H	0.440157	0.104443	0.581711
	H49	H	0.622820	0.878642	0.585746
	H50	H	0.617694	0.104287	0.405417
	H51	H	0.445798	0.885325	0.412013
	H52	H	0.621003	0.404177	0.107332
	H53	H	0.610221	0.572239	0.888742
	H54	H	0.438555	0.576569	0.104907
	H55	H	0.437982	0.401011	0.879924
	H56	H	0.137427	0.578264	0.405223
	H57	H	0.917808	0.581528	0.583720
	H58	H	0.138759	0.403972	0.579927
	H59	H	0.916775	0.400849	0.406869
	H60	H	0.140217	0.406372	0.586435
	H61	H	0.918110	0.583390	0.580357
	H62	H	0.141318	0.585928	0.402155
	H63	H	0.917484	0.405910	0.404997
	H64	H	0.444005	0.582816	0.105201
	H65	H	0.611818	0.587378	0.881437
	H66	H	0.615354	0.407060	0.104060
	H67	H	0.435856	0.404588	0.880425
	H68	H	0.621733	0.105392	0.405945
	H69	H	0.615476	0.881790	0.584317
	H70	H	0.440304	0.104518	0.582649
	H71	H	0.434267	0.879611	0.409405
	H72	H	0.940644	0.601369	0.075684
	H73	H	0.118714	0.380302	0.089606
	H74	H	0.111575	0.604304	0.901230
	H75	H	0.941468	0.379165	0.900061
	H76	H	0.119252	0.906099	0.606482
	H77	H	0.113420	0.085206	0.381797
	H78	H	0.936651	0.083381	0.608151
	H79	H	0.941056	0.904561	0.381864
	H80	H	0.640157	0.083320	0.904632
	H81	H	0.417514	0.084816	0.082280
	H82	H	0.636302	0.910415	0.078178
	H83	H	0.417736	0.906679	0.902712
	H84	H	0.641565	0.905729	0.088172
	H85	H	0.417987	0.081362	0.083277
	H86	H	0.640094	0.082376	0.905027
	H87	H	0.416663	0.899269	0.903746
	H88	H	0.938996	0.081747	0.606343
	H89	H	0.123003	0.081312	0.381047
	H90	H	0.115844	0.910586	0.603260
	H91	H	0.939943	0.902169	0.380295
	H92	H	0.115426	0.601454	0.914660
	H93	H	0.116911	0.383408	0.081746
	H94	H	0.932052	0.606627	0.084478
	H95	H	0.945474	0.385293	0.909974
	H96	H	0.440841	0.103341	0.581793
	H97	H	0.620958	0.881993	0.578915
	H98	H	0.619766	0.106452	0.402558
	H99	H	0.443621	0.879820	0.400250
	H100	H	0.615086	0.400132	0.106667
	H101	H	0.624597	0.576690	0.881650
	H102	H	0.436193	0.583657	0.108680
	H103	H	0.439779	0.404461	0.881887
	H104	H	0.137654	0.585297	0.410654
	H105	H	0.919109	0.579773	0.580558
	H106	H	0.142129	0.400082	0.584382
	H107	H	0.915602	0.401717	0.402184
	H108	H	0.944504	0.604735	0.087787
	H109	H	0.124565	0.379780	0.083448
	H110	H	0.124867	0.606656	0.905756
	H111	H	0.933697	0.381325	0.909931
	H112	H	0.113221	0.904698	0.604749
	H113	H	0.115414	0.075726	0.386008
	H114	H	0.939236	0.084701	0.607536
	H115	H	0.937955	0.904801	0.380487
	H116	H	0.640633	0.082338	0.904574
	H117	H	0.416684	0.084022	0.085759
	H118	H	0.640458	0.899243	0.078095
	H119	H	0.419515	0.903228	0.909483
	C120	C	0.408340	0.001241	0.614932
	C121	C	0.650699	0.984351	0.615270
	C122	C	0.651333	0.001450	0.372471
	C123	C	0.408486	0.984195	0.373907
	C124	C	0.649642	0.371555	0.002470
	C125	C	0.649612	0.613074	0.986089
	C126	C	0.407591	0.613777	0.002614
	C127	C	0.407120	0.371558	0.984929
	C128	C	0.035755	0.614747	0.373249
	C129	C	1.019924	0.614869	0.615533
	C130	C	0.037254	0.371560	0.615429
	C131	C	1.019710	0.371504	0.373163
	C132	C	0.907450	0.501295	0.115257
	C133	C	0.151034	0.485027	0.116255
	C134	C	0.149505	0.501353	0.873614
	C135	C	0.907149	0.484329	0.873245
	C136	C	0.149487	0.872821	0.502308
	C137	C	0.150380	0.114215	0.485846
	C138	C	0.907880	0.114604	0.503045
	C139	C	0.908065	0.872786	0.484957
	C140	C	0.537397	0.114579	0.872033
	C141	C	0.520461	0.114783	0.115426
	C142	C	0.537962	0.871371	0.115659
	C143	C	0.520813	0.871099	0.872895
	C144	C	0.407069	0.883107	0.674256
	C145	C	0.651724	0.102233	0.674965
	C146	C	0.653109	0.884078	0.312639
	C147	C	0.406885	0.101640	0.314069
	C148	C	0.710795	0.367991	0.885258
	C149	C	0.711305	0.617374	0.102919
	C150	C	0.347846	0.616470	0.884558
	C151	C	0.349896	0.371417	0.104107
	C152	C	0.918295	0.673976	0.371051
	C153	C	0.135378	0.677317	0.620659
	C154	C	0.919680	0.312353	0.617223
	C155	C	0.136838	0.311566	0.370972
	C156	C	0.919837	0.369890	0.675260
	C157	C	0.135562	0.619019	0.678094
	C158	C	0.918355	0.615406	0.313785
	C159	C	0.137356	0.370355	0.314060
	C160	C	0.406142	0.673398	0.884345
	C161	C	0.653860	0.675085	0.102786
	C162	C	0.651946	0.311855	0.884342
	C163	C	0.407190	0.313354	0.103751
	C164	C	0.711186	0.884121	0.369940
	C165	C	0.709419	0.102448	0.617153
	C166	C	0.348142	0.884024	0.617689
	C167	C	0.347688	0.101006	0.370460
	C168	C	0.906607	0.383649	0.175098
	C169	C	0.152094	0.602763	0.175913
	C170	C	0.151877	0.384112	0.812689
	C171	C	0.903495	0.601071	0.811728
	C172	C	0.211289	0.868237	0.385566
	C173	C	0.211961	0.118474	0.602837
	C174	C	0.848971	0.116448	0.384238
	C175	C	0.848885	0.871268	0.603365
	C176	C	0.420712	0.174983	0.868833
	C177	C	0.637912	0.174138	0.117166
	C178	C	0.422340	0.809331	0.120784
	C179	C	0.637152	0.809945	0.869447
	C180	C	0.422113	0.867561	0.177865
	C181	C	0.637902	0.116242	0.175214
	C182	C	0.420365	0.116182	0.811942
	C183	C	0.637781	0.869064	0.812759
	C184	C	0.906683	0.173778	0.384419
	C185	C	0.153656	0.175500	0.603197
	C186	C	0.153078	0.811011	0.385369
	C187	C	0.906368	0.813267	0.603450
	C188	C	0.210419	0.384477	0.869868
	C189	C	0.210496	0.602450	0.118571
	C190	C	0.847462	0.384146	0.118812
	C191	C	0.844865	0.600402	0.868523
	C192	C	0.433380	0.082932	0.589435
	C193	C	0.626841	0.902428	0.590443
	C194	C	0.626936	0.083842	0.397368
	C195	C	0.433872	0.902784	0.399929
	C196	C	0.624355	0.396744	0.084499
	C197	C	0.623011	0.586380	0.904982
	C198	C	0.432471	0.588427	0.084875
	C199	C	0.430901	0.396369	0.902263
	C200	C	0.117473	0.590272	0.398672
	C201	C	0.939272	0.588900	0.589049
	C202	C	0.118967	0.396292	0.590605
	C203	C	0.937822	0.395985	0.397777
	C204	C	0.931992	0.582939	0.089644
	C205	C	0.126995	0.402661	0.091774
	C206	C	0.124236	0.582878	0.899691
	C207	C	0.932897	0.403057	0.899273
	C208	C	0.123379	0.899536	0.583634
	C209	C	0.124598	0.088103	0.404074
	C210	C	0.931547	0.090271	0.585774
	C211	C	0.932471	0.897091	0.402394
	C212	C	0.619012	0.089628	0.897513
	C213	C	0.438740	0.090433	0.090707
	C214	C	0.618501	0.897507	0.088869
	C215	C	0.439208	0.895963	0.898131
	Zn216	Zn	0.528877	-0.007484	0.743889
	Zn217	Zn	0.529352	-0.007165	0.244340
	Zn218	Zn	0.778066	0.492045	-0.005524
	Zn219	Zn	0.279014	0.493482	-0.005562
	Zn220	Zn	0.028220	0.744109	0.493953
	Zn221	Zn	0.028860	0.242459	0.494527
	Zn222	Zn	0.028289	0.492980	0.744434
	Zn223	Zn	0.028464	0.493277	0.244254
	Zn224	Zn	0.529088	0.742114	-0.005498
	Zn225	Zn	0.528708	0.243362	-0.006465
	Zn226	Zn	0.779355	-0.005987	0.493596
	Zn227	Zn	0.278769	-0.006772	0.494505
	N228	N	0.443959	0.957055	0.672651
	N229	N	0.616118	0.027864	0.674228
	N230	N	0.616704	0.958265	0.314041
	N231	N	0.444075	0.027992	0.316014
	N232	N	0.709697	0.404369	0.959896
	N233	N	0.708880	0.579572	0.029235
	N234	N	0.348443	0.580433	0.959291
	N235	N	0.349480	0.406727	0.028995
	N236	N	0.992633	0.674069	0.407030
	N237	N	0.062305	0.674969	0.582363
	N238	N	0.993934	0.312765	0.581292
	N239	N	0.062603	0.311880	0.406725
	N240	N	0.993982	0.406098	0.674427
	N241	N	0.062735	0.580783	0.675126
	N242	N	0.992629	0.579566	0.314835
	N243	N	0.063378	0.406778	0.315019
	N244	N	0.442527	0.672110	0.958984
	N245	N	0.616088	0.672540	0.028987
	N246	N	0.614751	0.313744	0.958364
	N247	N	0.441860	0.313108	0.028375
	N248	N	0.710429	0.958509	0.406202
	N249	N	0.709178	0.028069	0.580801
	N250	N	0.348697	0.958486	0.581700
	N251	N	0.348687	0.026954	0.406999
	N252	N	0.943131	0.457518	0.173177
	N253	N	0.115817	0.528620	0.174856
	N254	N	0.114883	0.457924	0.814612
	N255	N	0.941685	0.527932	0.814700
	N256	N	0.209026	0.906182	0.459296
	N257	N	0.210085	0.080961	0.528751
	N258	N	0.849505	0.080078	0.458928
	N259	N	0.849447	0.907287	0.528516
	N260	N	0.494684	0.174137	0.905484
	N261	N	0.563902	0.173337	0.080681
	N262	N	0.495518	0.811309	0.082775
	N263	N	0.563179	0.810844	0.905925
	N264	N	0.495078	0.905564	0.174778
	N265	N	0.563877	0.080173	0.174530
	N266	N	0.494083	0.079260	0.813826
	N267	N	0.564418	0.906304	0.814656
	N268	N	0.942619	0.172735	0.459245
	N269	N	0.115936	0.172811	0.529416
	N270	N	0.115222	0.813702	0.459032
	N271	N	0.942130	0.814035	0.528681
	N272	N	0.209125	0.458450	0.907046
	N273	N	0.210071	0.527987	0.082487
	N274	N	0.847616	0.458534	0.082369
	N275	N	0.847034	0.526842	0.906355
	O276	O	0.040693	0.770836	0.007562
	H277	H	0.050756	0.774453	0.008713
	H278	H	0.041180	0.775227	0.025219
	O279	O	0.473521	0.447939	0.278636
	H280	H	0.485845	0.454842	0.276528
	H281	H	0.475703	0.436654	0.274956
	O282	O	0.996227	0.215239	0.772388
	H283	H	1.005379	0.214656	0.783948
	H284	H	0.999246	0.241256	0.745864
	O285	O	0.075047	1.163799	1.183653
	H286	H	0.059884	1.154247	1.187396
	H287	H	0.078365	1.168326	1.193964
	O288	O	0.070663	0.221929	0.944697
	H289	H	0.083131	0.223168	0.946529
	H290	H	0.078974	0.221537	0.961236
	O291	O	0.467474	0.406879	0.417767
	H292	H	0.470844	0.406085	0.420027
	H293	H	0.467561	0.408683	0.423373
	O294	O	0.414891	0.600334	0.501477
	H295	H	0.418295	0.586696	0.508588
	H296	H	0.410964	0.589694	0.509388
	O297	O	0.385565	0.709024	0.527331
	H298	H	0.371192	0.714123	0.514982
	H299	H	0.369544	0.700872	0.512268
	O300	O	-0.305212	0.563688	0.445749
	H301	H	-0.292929	0.571013	0.435490
	H302	H	-0.310970	0.572813	0.453105
	O303	O	0.418433	0.597007	0.633857
	H304	H	0.410388	0.602356	0.614071
	H305	H	0.402002	0.603116	0.641205
	O306	O	0.358048	0.503109	0.572505
	H307	H	0.364396	0.493713	0.572765
	H308	H	0.357433	0.484818	0.576658
	O309	O	0.306959	0.465116	0.705502
	H310	H	0.302670	0.448471	0.699501
	H311	H	0.286784	0.461281	0.725065
	O312	O	0.595107	0.281706	0.552759
	H313	H	0.589511	0.283090	0.561044
	H314	H	0.608883	0.284035	0.551601
	O315	O	0.809966	1.026602	0.775264
	H316	H	0.800982	1.021394	0.774474
	H317	H	0.786298	1.022793	0.773811
	O318	O	0.819654	0.033588	0.054543
	H319	H	0.817206	0.041188	0.055173
	H320	H	0.817774	0.039412	0.066944
	O321	O	-0.060749	1.135100	1.134566
	H322	H	-0.034580	1.149681	1.137465
	H323	H	-0.080893	1.144319	1.132791
	O324	O	0.822566	1.195611	-0.033910
	H325	H	0.828915	1.181501	-0.042754
	H326	H	0.799695	1.218144	-0.034489
	O327	O	-0.103819	-0.160486	0.941686
	H328	H	-0.082668	-0.164613	0.948642
	H329	H	-0.094903	-0.151456	0.929190
	O330	O	0.745102	0.703030	0.698026
	H331	H	0.757872	0.720125	0.707153
	H332	H	0.701423	0.701310	0.700815
	O333	O	0.203668	0.784454	0.915508
	H334	H	0.194545	0.776715	0.908862
	H335	H	0.209610	0.775507	0.918397
	O336	O	0.606139	0.566268	0.273799
	H337	H	0.629651	0.576146	0.270426
	H338	H	0.593406	0.579998	0.277300
	O339	O	0.924225	0.019036	1.023675
	H340	H	0.922153	0.001553	1.028292
	H341	H	0.919783	0.021721	1.028437
	O342	O	0.057776	-0.059962	0.145167
	H343	H	0.054578	-0.076917	0.139126
	H344	H	0.078945	-0.060752	0.152205
	O345	O	-0.385378	1.278657	1.278478
	H346	H	-0.370926	1.252788	1.254745
	H347	H	-0.385497	1.284872	1.287372
	O348	O	0.597033	0.318961	0.669416
	H349	H	0.610929	0.313518	0.672612
	H350	H	0.609231	0.341243	0.677069
	O351	O	0.829343	0.195002	0.798265
	H352	H	0.858974	0.198601	0.803624
	H353	H	0.830709	0.160465	0.804679
	O354	O	0.252101	0.048567	0.948224
	H355	H	0.263182	0.044850	0.956167
	H356	H	0.255855	0.057076	0.961636
	O357	O	0.333946	0.300944	0.306003
	H358	H	0.349599	0.317266	0.327746
	H359	H	0.355733	0.319902	0.322264
	O360	O	0.615989	0.666208	0.685691
	H361	H	0.590587	0.664889	0.672182
	H362	H	0.612041	0.671205	0.698279
	O363	O	0.085040	-0.096037	0.044707
	H364	H	0.084347	-0.104893	0.055559
	H365	H	0.089542	-0.099222	0.030198
	O366	O	0.537371	0.463382	0.716091
	H367	H	0.545495	0.475034	0.719709
	H368	H	0.533095	0.473854	0.707995
	O369	O	1.489254	0.286835	-0.426738
	H370	H	1.474700	0.274321	-0.409486
	H371	H	1.509106	0.299629	-0.415477
	O372	O	1.011201	0.969069	0.004632
	H373	H	1.009562	0.966096	0.006393
	H374	H	1.008825	0.978618	0.003520
	O375	O	0.888625	-0.171842	-0.204069
	H376	H	0.903716	-0.152503	-0.195985
	H377	H	0.895677	-0.163057	-0.191032
	O378	O	-0.690764	0.279668	0.513068
	H379	H	-0.680648	0.287985	0.547234
	H380	H	-0.716285	0.258060	0.529788
	O381	O	0.242880	0.957940	0.778885
	H382	H	0.254601	0.965859	0.773576
	H383	H	0.246157	0.948771	0.775707
	O384	O	1.250073	0.206050	0.854615
	H385	H	1.259771	0.204073	0.870503
	H386	H	1.240528	0.183294	0.872126
	O387	O	1.028531	1.009818	-0.229426
	H388	H	1.027975	1.024221	-0.227524
	H389	H	1.022400	1.018713	-0.223862
	O390	O	0.497666	0.288585	0.363938
	H391	H	0.489726	0.278469	0.380661
	H392	H	0.513887	0.279555	0.362177
	O393	O	0.829639	0.793798	0.191466
	H394	H	0.808304	0.775190	0.173389
	H395	H	0.819830	0.832322	0.183473
	O396	O	0.244084	1.031355	1.206089
	H397	H	0.258777	1.021368	1.240790
	H398	H	0.238401	1.068012	1.200468
	O399	O	-0.007765	-0.232626	1.219373
	H400	H	-0.024039	-0.256148	1.242863
	H401	H	-0.044544	-0.234540	1.224377
	O402	O	0.739583	0.287944	0.337155
	H403	H	0.752037	0.285784	0.334549
	H404	H	0.730005	0.274512	0.355899
	O405	O	0.810974	-0.224578	1.025543
	H406	H	0.805837	-0.239737	1.015827
	H407	H	0.816994	-0.240263	1.012796
	O408	O	0.203800	0.192918	0.012767
	H409	H	0.206142	0.192745	0.034580
	H410	H	0.228021	0.210375	0.030537
	O411	O	0.440520	0.614382	0.438193
	H412	H	0.433228	0.603022	0.431969
	H413	H	0.434496	0.595844	0.445538
	O414	O	0.720191	0.451315	0.663280
	H415	H	0.730627	0.463862	0.669768
	H416	H	0.720129	0.469125	0.663145
	O417	O	-0.271906	0.562127	0.291237
	H418	H	-0.279203	0.556038	0.294115
	H419	H	-0.284390	0.557046	0.294690
	O420	O	0.217163	0.809715	1.172570
	H421	H	0.234304	0.798502	1.180666
	H422	H	0.190467	0.821700	1.166289
	O423	O	0.026524	0.155936	1.017276
	H424	H	0.028107	0.150911	1.023090
	H425	H	0.026758	0.148294	1.012291
	O426	O	0.611764	0.415490	0.460146
	H427	H	0.623553	0.392143	0.465113
	H428	H	0.625219	0.430459	0.479150
	O429	O	1.156836	0.910488	0.971527
	H430	H	1.171500	0.928444	0.960192
	H431	H	1.157733	0.913052	0.990678
	O432	O	0.227647	0.790581	0.794100
	H433	H	0.204823	0.815730	0.786828
	H434	H	0.214477	0.783342	0.827373
	O435	O	-0.247440	0.715435	0.527132
	H436	H	-0.231046	0.741700	0.519907
	H437	H	-0.245475	0.719254	0.552556
	O438	O	-0.340995	0.553822	-0.651922
	H439	H	-0.350240	0.538656	-0.628272
	H440	H	-0.328462	0.540833	-0.669334
	O441	O	-0.187949	-0.059444	-0.071761
	H442	H	-0.181295	-0.045494	-0.047737
	H443	H	-0.188008	-0.075061	-0.080773
	O444	O	0.503768	0.707760	0.276976
	H445	H	0.503291	0.713804	0.279334
	H446	H	0.500741	0.727140	0.276009
	O447	O	0.014659	0.983313	1.176279
	H448	H	0.016375	0.977329	1.188456
	H449	H	0.014190	0.961137	1.155758
	O450	O	-0.135470	1.160548	1.131629
	H451	H	-0.130154	1.162353	1.111186
	H452	H	-0.110400	1.143765	1.126732
	O453	O	0.314004	-0.310395	1.286004
	H454	H	0.330838	-0.328634	1.290977
	H455	H	0.312263	-0.317164	1.291068
	O456	O	-0.148873	-0.016461	1.216612
	H457	H	-0.139843	-0.009676	1.228702
	H458	H	-0.155840	-0.024660	1.218508
	O459	O	0.240690	0.200412	0.200128
	H460	H	0.198023	0.194450	0.208114
	H461	H	0.269258	0.233196	0.235785
	O462	O	0.359989	0.303188	0.663675
	H463	H	0.360868	0.289171	0.684560
	H464	H	0.389696	0.316005	0.672958
	O465	O	1.026399	-0.183898	-0.206554
	H466	H	1.020874	-0.179487	-0.216306
	H467	H	1.027582	-0.170912	-0.214735
	O468	O	0.665356	0.426217	0.527128
	H469	H	0.667780	0.440947	0.522277
	H470	H	0.664990	0.437167	0.527367
	O471	O	0.344126	0.525127	0.309662
	H472	H	0.347698	0.527061	0.289398
	H473	H	0.344740	0.516545	0.325147
	O474	O	0.676344	0.482587	0.667171
	H475	H	0.684126	0.487839	0.678161
	H476	H	0.680103	0.500506	0.670964
	O477	O	0.258079	-0.116906	1.020475
	H478	H	0.261792	-0.134797	1.031569
	H479	H	0.263497	-0.120578	1.047823
	O480	O	0.521020	0.631788	0.483024
	H481	H	0.510877	0.639400	0.473531
	H482	H	0.530179	0.619464	0.489397
	O483	O	0.160303	1.114382	-0.201262
	H484	H	0.153529	1.109199	-0.200830
	H485	H	0.154581	1.112268	-0.174075
	O486	O	0.460856	0.657500	0.676611
	H487	H	0.430159	0.671700	0.688714
	H488	H	0.456835	0.627424	0.673828
	O489	O	1.539663	0.474370	-0.502149
	H490	H	1.545621	0.469522	-0.497632
	H491	H	1.547084	0.475610	-0.496947
