data_Molecule from HDF5

_cell_length_a		16.461985
_cell_length_b		16.431915
_cell_length_c		16.453480
_cell_angle_alpha	90.131046
_cell_angle_beta	90.034876
_cell_angle_gamma	90.055973
_symmetry_space_group_name_H-M	'P 1'
_symmetry_Int_Tables_number		1

loop_
	_symmetry_equiv_pos_as_xyz
	x,y,z

loop_
	_atom_site_label
	_atom_site_type_symbol
	_atom_site_fract_x
	_atom_site_fract_y
	_atom_site_fract_z
	H0	H	0.382905	0.842786	0.711541
	H1	H	0.598093	0.158134	0.715344
	H2	H	0.595630	0.844323	0.266663
	H3	H	0.383934	0.159262	0.268411
	H4	H	0.715570	0.391500	0.834071
	H5	H	0.713085	0.610755	0.147038
	H6	H	0.265644	0.607222	0.833712
	H7	H	0.270927	0.396924	0.148672
	H8	H	0.831203	0.723846	0.383750
	H9	H	0.146679	0.723726	0.597282
	H10	H	0.832004	0.276105	0.600421
	H11	H	0.147412	0.281276	0.388045
	H12	H	0.832264	0.392787	0.715841
	H13	H	0.148098	0.606434	0.711503
	H14	H	0.831456	0.608046	0.267776
	H15	H	0.147240	0.397448	0.272396
	H16	H	0.381579	0.723627	0.833060
	H17	H	0.595076	0.722844	0.148426
	H18	H	0.599741	0.276522	0.832999
	H19	H	0.387773	0.281734	0.148474
	H20	H	0.713412	0.844858	0.380292
	H21	H	0.713052	0.159045	0.598861
	H22	H	0.267826	0.842756	0.596741
	H23	H	0.268289	0.158813	0.385944
	H24	H	0.882095	0.342327	0.212185
	H25	H	0.094628	0.658217	0.213326
	H26	H	0.094772	0.342907	0.769630
	H27	H	0.881086	0.658401	0.766951
	H28	H	0.211362	0.893653	0.333545
	H29	H	0.212312	0.107352	0.648600
	H30	H	0.767306	0.109480	0.332666
	H31	H	0.765389	0.895654	0.648023
	H32	H	0.332745	0.222112	0.885883
	H33	H	0.649115	0.224698	0.097212
	H34	H	0.333187	0.781841	0.094455
	H35	H	0.646779	0.776678	0.881433
	H36	H	0.332728	0.899626	0.208974
	H37	H	0.646979	0.112145	0.215804
	H38	H	0.331376	0.104029	0.770865
	H39	H	0.646138	0.890867	0.764472
	H40	H	0.883574	0.223493	0.333612
	H41	H	0.095589	0.222488	0.649057
	H42	H	0.092689	0.779918	0.333496
	H43	H	0.880457	0.778416	0.648813
	H44	H	0.208817	0.341498	0.887372
	H45	H	0.211809	0.658327	0.098465
	H46	H	0.763775	0.344531	0.099006
	H47	H	0.765164	0.658110	0.882459
	H48	H	0.395243	0.116970	0.582077
	H49	H	0.578894	0.889990	0.574674
	H50	H	0.577276	0.115226	0.401039
	H51	H	0.397319	0.889194	0.406823
	H52	H	0.578165	0.410400	0.103525
	H53	H	0.580789	0.588811	0.876842
	H54	H	0.402270	0.590446	0.102977
	H55	H	0.401589	0.412872	0.877072
	H56	H	0.103507	0.599640	0.403698
	H57	H	0.877769	0.587432	0.578083
	H58	H	0.102957	0.413326	0.585868
	H59	H	0.874918	0.405533	0.406705
	H60	H	0.102576	0.406910	0.577160
	H61	H	0.876666	0.587409	0.581247
	H62	H	0.096744	0.584528	0.411308
	H63	H	0.878066	0.417322	0.405135
	H64	H	0.400122	0.592261	0.104876
	H65	H	0.576610	0.584428	0.879590
	H66	H	0.579162	0.418434	0.101116
	H67	H	0.399501	0.408049	0.875531
	H68	H	0.575765	0.112737	0.403850
	H69	H	0.576517	0.889104	0.578769
	H70	H	0.407259	0.112522	0.583772
	H71	H	0.396916	0.884774	0.394619
	H72	H	0.902172	0.613208	0.082593
	H73	H	0.076670	0.386726	0.083704
	H74	H	0.080893	0.615882	0.897797
	H75	H	0.904123	0.388776	0.900081
	H76	H	0.076714	0.908969	0.605134
	H77	H	0.083316	0.096088	0.374119
	H78	H	0.905981	0.089058	0.601459
	H79	H	0.899795	0.912131	0.378099
	H80	H	0.602700	0.087936	0.903982
	H81	H	0.382216	0.083114	0.075135
	H82	H	0.604606	0.915301	0.080462
	H83	H	0.377711	0.912556	0.901271
	H84	H	0.604296	0.911283	0.076907
	H85	H	0.374899	0.091512	0.088734
	H86	H	0.602875	0.087201	0.900436
	H87	H	0.377367	0.911022	0.899594
	H88	H	0.898472	0.091464	0.605052
	H89	H	0.083383	0.083886	0.379019
	H90	H	0.082374	0.913548	0.605938
	H91	H	0.901264	0.913791	0.380009
	H92	H	0.073707	0.612118	0.902592
	H93	H	0.078708	0.387940	0.078136
	H94	H	0.905543	0.611069	0.078193
	H95	H	0.906167	0.393195	0.907485
	H96	H	0.401259	0.111291	0.572541
	H97	H	0.573723	0.891421	0.575310
	H98	H	0.579687	0.114639	0.403875
	H99	H	0.407798	0.889770	0.399209
	H100	H	0.571585	0.414528	0.099748
	H101	H	0.574532	0.590890	0.878241
	H102	H	0.399155	0.589860	0.103049
	H103	H	0.396818	0.412794	0.875319
	H104	H	0.102715	0.584191	0.394324
	H105	H	0.876449	0.590492	0.579400
	H106	H	0.098352	0.416666	0.576724
	H107	H	0.872630	0.411360	0.395694
	H108	H	0.900032	0.613502	0.077164
	H109	H	0.082224	0.385024	0.081840
	H110	H	0.082401	0.613873	0.906892
	H111	H	0.898107	0.389015	0.906433
	H112	H	0.075981	0.915463	0.603363
	H113	H	0.072274	0.091623	0.379649
	H114	H	0.899030	0.084017	0.602542
	H115	H	0.902570	0.910865	0.378131
	H116	H	0.603640	0.090183	0.901714
	H117	H	0.377012	0.099719	0.073255
	H118	H	0.602596	0.915828	0.075435
	H119	H	0.377276	0.910911	0.901770
	C120	C	0.368288	0.009284	0.611824
	C121	C	0.610871	0.993257	0.611384
	C122	C	0.610955	0.010305	0.368845
	C123	C	0.368214	0.992402	0.368318
	C124	C	0.611219	0.380191	-0.001764
	C125	C	0.611097	0.622375	0.981687
	C126	C	0.367474	0.622978	-0.000547
	C127	C	0.368684	0.379987	0.981112
	C128	C	-0.002937	0.622437	0.369742
	C129	C	0.981017	0.622081	0.612530
	C130	C	-0.002750	0.379200	0.613413
	C131	C	0.979941	0.379762	0.370659
	C132	C	0.868095	0.509006	0.112507
	C133	C	0.110976	0.491630	0.112906
	C134	C	0.110661	0.509193	0.870226
	C135	C	0.868614	0.493462	0.870324
	C136	C	0.110343	0.880202	0.500209
	C137	C	0.111740	0.122894	0.482165
	C138	C	0.868309	0.122175	0.499191
	C139	C	0.867079	0.879642	0.482712
	C140	C	0.498809	0.121336	0.869304
	C141	C	0.482643	0.124114	0.111901
	C142	C	0.499442	0.881895	0.110062
	C143	C	0.481333	0.878022	0.867447
	C144	C	0.365294	0.890398	0.671819
	C145	C	0.615502	0.110782	0.674325
	C146	C	0.614486	0.891776	0.306619
	C147	C	0.365688	0.111529	0.308449
	C148	C	0.674390	0.375092	0.880964
	C149	C	0.672385	0.627064	0.100004
	C150	C	0.306098	0.625639	0.880992
	C151	C	0.310424	0.378827	0.101063
	C152	C	0.878739	0.683456	0.366073
	C153	C	0.099396	0.683465	0.615628
	C154	C	0.879190	0.317175	0.617518
	C155	C	0.099590	0.320599	0.369199
	C156	C	0.879314	0.375334	0.675155
	C157	C	0.100132	0.624988	0.672492
	C158	C	0.878870	0.625609	0.308138
	C159	C	0.099428	0.378429	0.311623
	C160	C	0.364050	0.683533	0.880779
	C161	C	0.613890	0.683468	0.100369
	C162	C	0.616415	0.317575	0.880399
	C163	C	0.368534	0.321401	0.100943
	C164	C	0.672702	0.892162	0.363839
	C165	C	0.672738	0.111397	0.615969
	C166	C	0.307766	0.890382	0.614407
	C167	C	0.308132	0.111382	0.366810
	C168	C	0.864285	0.390257	0.172761
	C169	C	0.112907	0.610801	0.173110
	C170	C	0.112852	0.390289	0.809807
	C171	C	0.863515	0.611032	0.807628
	C172	C	0.170656	0.876417	0.381030
	C173	C	0.172217	0.125453	0.600968
	C174	C	0.807551	0.126551	0.380488
	C175	C	0.805630	0.877122	0.600930
	C176	C	0.379881	0.181960	0.866936
	C177	C	0.601469	0.184524	0.114647
	C178	C	0.380429	0.821901	0.112443
	C179	C	0.599391	0.816574	0.863568
	C180	C	0.380183	0.880158	0.169597
	C181	C	0.600452	0.128458	0.174085
	C182	C	0.379102	0.123033	0.810151
	C183	C	0.599178	0.874016	0.805584
	C184	C	0.865362	0.183600	0.380844
	C185	C	0.114112	0.183081	0.601244
	C186	C	0.111948	0.819590	0.380911
	C187	C	0.863084	0.818742	0.601275
	C188	C	0.169876	0.389799	0.868203
	C189	C	0.171409	0.610676	0.116017
	C190	C	0.805553	0.391239	0.115993
	C191	C	0.805758	0.611150	0.865455
	C192	C	0.394008	0.092057	0.586614
	C193	C	0.584151	0.911430	0.584105
	C194	C	0.584823	0.092646	0.395116
	C195	C	0.393448	0.909645	0.393159
	C196	C	0.584109	0.406862	0.080189
	C197	C	0.584971	0.595537	0.899484
	C198	C	0.393167	0.597953	0.082027
	C199	C	0.392519	0.404210	0.897658
	C200	C	0.079381	0.596801	0.395826
	C201	C	0.898531	0.595869	0.586861
	C202	C	0.079722	0.404749	0.587290
	C203	C	0.897022	0.404377	0.395420
	C204	C	0.894853	0.591124	0.086615
	C205	C	0.086269	0.408327	0.088115
	C206	C	0.086029	0.592488	0.895290
	C207	C	0.895085	0.411638	0.897065
	C208	C	0.085656	0.905492	0.582953
	C209	C	0.086675	0.097780	0.399201
	C210	C	0.893833	0.095756	0.581433
	C211	C	0.893484	0.904947	0.400270
	C212	C	0.581479	0.095938	0.894600
	C213	C	0.399934	0.098804	0.086348
	C214	C	0.582214	0.907086	0.084878
	C215	C	0.398946	0.904099	0.893318
	Zn216	Zn	0.489323	0.000421	0.740434
	Zn217	Zn	0.490924	0.001918	0.239529
	Zn218	Zn	0.739456	0.501507	-0.009130
	Zn219	Zn	0.239250	0.500516	-0.008840
	Zn220	Zn	-0.011158	0.751110	0.491601
	Zn221	Zn	-0.010882	0.250396	0.491794
	Zn222	Zn	-0.010425	0.501178	0.741380
	Zn223	Zn	-0.011262	0.500489	0.241183
	Zn224	Zn	0.490460	0.751120	-0.009667
	Zn225	Zn	0.490525	0.251481	-0.010324
	Zn226	Zn	0.739306	0.001813	0.489927
	Zn227	Zn	0.239862	0.000559	0.491008
	N228	N	0.402441	0.965364	0.670274
	N229	N	0.577684	0.036171	0.671663
	N230	N	0.576879	0.966384	0.309461
	N231	N	0.402612	0.036556	0.309414
	N232	N	0.671105	0.413378	0.955300
	N233	N	0.670929	0.589807	0.025124
	N234	N	0.307794	0.588927	0.955877
	N235	N	0.310334	0.414296	0.025562
	N236	N	0.953250	0.681676	0.403731
	N237	N	0.024293	0.681925	0.579220
	N238	N	0.953663	0.319461	0.579648
	N239	N	0.024228	0.321006	0.405010
	N240	N	0.953739	0.413104	0.672642
	N241	N	0.025367	0.587576	0.670797
	N242	N	0.953571	0.588279	0.310276
	N243	N	0.023913	0.414025	0.312055
	N244	N	0.401680	0.681959	0.955376
	N245	N	0.576511	0.680673	0.025801
	N246	N	0.577926	0.320550	0.954366
	N247	N	0.404235	0.321909	0.025347
	N248	N	0.670706	0.966813	0.401557
	N249	N	0.669878	0.037215	0.577475
	N250	N	0.309504	0.965462	0.577772
	N251	N	0.309434	0.036354	0.403303
	N252	N	0.902414	0.464600	0.170639
	N253	N	0.076024	0.535726	0.171314
	N254	N	0.077115	0.465711	0.810837
	N255	N	0.901842	0.536873	0.810405
	N256	N	0.169885	0.913335	0.456079
	N257	N	0.171059	0.088847	0.525765
	N258	N	0.809114	0.089023	0.455128
	N259	N	0.807906	0.913969	0.526141
	N260	N	0.455236	0.181223	0.902764
	N261	N	0.527121	0.181856	0.076501
	N262	N	0.455510	0.822947	0.076206
	N263	N	0.525005	0.818769	0.901108
	N264	N	0.455197	0.916867	0.168250
	N265	N	0.525595	0.091543	0.172469
	N266	N	0.454126	0.086431	0.811259
	N267	N	0.524509	0.911256	0.807595
	N268	N	0.902407	0.181073	0.455613
	N269	N	0.077439	0.181646	0.526276
	N270	N	0.075344	0.821413	0.455981
	N271	N	0.900393	0.819957	0.526452
	N272	N	0.168917	0.465078	0.904963
	N273	N	0.170104	0.535593	0.078995
	N274	N	0.807697	0.466125	0.079286
	N275	N	0.808983	0.536918	0.903833
	O276	O	0.451733	0.705648	0.286458
	H277	H	0.475542	0.707347	0.299460
	H278	H	0.476027	0.711013	0.273144
	O279	O	1.015768	-0.031638	1.178383
	H280	H	1.008939	-0.022833	1.175562
	H281	H	1.008541	-0.023691	1.166676
	O282	O	0.574132	0.705597	0.410965
	H283	H	0.594744	0.715034	0.428178
	H284	H	0.589651	0.700500	0.423766
	O285	O	0.791251	0.887683	1.011913
	H286	H	0.812761	0.881392	0.989990
	H287	H	0.791259	0.868239	1.007422
	O288	O	1.013043	1.022975	-0.151245
	H289	H	1.016383	1.017504	-0.149854
	H290	H	1.006417	1.038998	-0.159364
	O291	O	1.019610	0.213729	0.207875
	H292	H	1.031246	0.227411	0.221206
	H293	H	1.042270	0.223941	0.215979
	O294	O	0.281693	-0.301900	1.385474
	H295	H	0.287313	-0.310290	1.369268
	H296	H	0.285183	-0.286119	1.377055
	O297	O	0.279665	0.369124	0.491877
	H298	H	0.272658	0.385073	0.497849
	H299	H	0.263512	0.374898	0.503313
	O300	O	0.550072	0.434844	0.705167
	H301	H	0.541294	0.417281	0.704947
	H302	H	0.553523	0.430438	0.694146
	O303	O	0.288359	0.517395	0.297584
	H304	H	0.283757	0.532437	0.289385
	H305	H	0.287684	0.518351	0.300404
	O306	O	0.083175	0.789066	0.996331
	H307	H	0.080803	0.788892	1.002415
	H308	H	0.069615	0.783887	1.004321
	O309	O	0.503809	0.303076	0.296724
	H310	H	0.505225	0.297939	0.298260
	H311	H	0.488127	0.298171	0.315592
	O312	O	-0.029195	1.198594	0.824596
	H313	H	-0.032959	1.213539	0.811860
	H314	H	-0.049225	1.189743	0.833704
	O315	O	0.672521	0.682583	0.668135
	H316	H	0.677009	0.633692	0.679531
	H317	H	0.626702	0.691637	0.682875
	O318	O	1.345731	0.514227	0.705129
	H319	H	1.354054	0.515153	0.710563
	H320	H	1.340741	0.520557	0.705040
	O321	O	-0.210766	-0.004927	0.005328
	H322	H	-0.209966	-0.024380	0.024693
	H323	H	-0.203301	0.009863	0.014793
	O324	O	0.300615	0.341495	0.330006
	H325	H	0.316306	0.345008	0.346722
	H326	H	0.307573	0.367882	0.346986
	O327	O	0.479810	0.517144	0.510400
	H328	H	0.479580	0.522742	0.501409
	H329	H	0.489836	0.505348	0.502553
	O330	O	-0.009863	0.835833	0.143894
	H331	H	-0.009667	0.834756	0.133553
	H332	H	-0.006100	0.834256	0.158301
	O333	O	0.888745	1.008204	0.785327
	H334	H	0.877763	0.999788	0.780168
	H335	H	0.866587	0.997779	0.797975
	O336	O	-0.197059	-0.184343	0.135533
	H337	H	-0.171427	-0.186867	0.132751
	H338	H	-0.209624	-0.178799	0.122944
	O339	O	0.194752	0.793507	0.887185
	H340	H	0.184694	0.783638	0.875849
	H341	H	0.210750	0.786144	0.904958
	O342	O	0.179561	0.986010	1.014395
	H343	H	0.181648	0.991711	1.020720
	H344	H	0.179925	0.978303	1.010241
	O345	O	0.822478	1.208386	-0.020603
	H346	H	0.828028	1.223402	-0.010948
	H347	H	0.817088	1.215774	-0.011389
	O348	O	1.181137	0.878995	0.796172
	H349	H	1.178124	0.867462	0.796175
	H350	H	1.186204	0.903522	0.792807
	O351	O	0.189809	1.198895	1.044816
	H352	H	0.194049	1.196880	1.056943
	H353	H	0.202524	1.207203	1.042692
	O354	O	-0.564689	0.290416	-0.463640
	H355	H	-0.578413	0.280962	-0.459794
	H356	H	-0.578939	0.299953	-0.449448
	O357	O	0.189904	0.046581	1.146224
	H358	H	0.173275	0.030640	1.141161
	H359	H	0.203122	0.037531	1.152174
	O360	O	0.465733	0.283359	0.710540
	H361	H	0.439639	0.291930	0.709635
	H362	H	0.452003	0.261215	0.738120
	O363	O	0.191869	0.179640	1.196759
	H364	H	0.212991	0.170171	1.203770
	H365	H	0.197643	0.183360	1.204025
	O366	O	0.689625	0.413751	0.555736
	H367	H	0.693974	0.433711	0.558343
	H368	H	0.681433	0.413999	0.537137
	O369	O	0.510860	0.712723	0.697942
	H370	H	0.495815	0.723762	0.685264
	H371	H	0.500713	0.720393	0.719958
	O372	O	0.891927	-0.177880	0.897712
	H373	H	0.901978	-0.185728	0.885474
	H374	H	0.894836	-0.161304	0.902469
	O375	O	0.312260	0.581648	0.586245
	H376	H	0.332039	0.589132	0.580985
	H377	H	0.301599	0.594419	0.577003
	O378	O	0.669558	0.322408	0.305339
	H379	H	0.626288	0.320368	0.298906
	H380	H	0.677615	0.309672	0.356125
	O381	O	0.881081	0.068240	1.146643
	H382	H	0.880807	0.086390	1.154568
	H383	H	0.886410	0.079239	1.158927
	O384	O	1.011034	1.125390	-0.021928
	H385	H	1.018804	1.122269	-0.028012
	H386	H	1.010602	1.133482	-0.016822
	O387	O	-0.008682	0.111043	0.979827
	H388	H	0.005053	0.115025	0.987579
	H389	H	0.001347	0.106443	0.970302
	O390	O	-0.218118	-0.041941	0.199818
	H391	H	-0.201800	-0.046803	0.193056
	H392	H	-0.240596	-0.039021	0.226158
	O393	O	0.330286	0.577426	0.512164
	H394	H	0.334229	0.582048	0.494575
	H395	H	0.334559	0.590500	0.502625
	O396	O	0.908382	-0.098280	-0.000406
	H397	H	0.922576	-0.103876	0.005165
	H398	H	0.902954	-0.085897	0.009375
	O399	O	1.001323	-0.211971	0.797983
	H400	H	1.015127	-0.208425	0.792867
	H401	H	1.006549	-0.217680	0.772314
	O402	O	1.707982	0.723375	1.511803
	H403	H	1.747850	0.760418	1.518256
	H404	H	1.694656	0.709004	1.564474
	O405	O	1.044389	0.965694	0.086123
	H406	H	1.038202	0.965098	0.086372
	H407	H	1.048402	0.978961	0.079881
	O408	O	1.186634	0.171035	-0.165387
	H409	H	1.177940	0.173724	-0.159673
	H410	H	1.190995	0.165416	-0.170188
	O411	O	0.786178	1.114727	-0.171974
	H412	H	0.772460	1.102997	-0.140590
	H413	H	0.759264	1.111578	-0.182045
	O414	O	0.461541	0.286964	0.465218
	H415	H	0.450789	0.296130	0.478847
	H416	H	0.460940	0.280840	0.475703
	O417	O	0.534965	0.549120	0.284731
	H418	H	0.552819	0.545243	0.281534
	H419	H	0.533885	0.560276	0.289154
	O420	O	0.092612	-0.017517	-0.188903
	H421	H	0.085352	-0.002647	-0.185353
	H422	H	0.094807	-0.019810	-0.198547
	O423	O	0.651804	0.564517	0.379183
	H424	H	0.657413	0.566321	0.376188
	H425	H	0.658886	0.565292	0.361052
	O426	O	0.702911	0.479238	0.277653
	H427	H	0.731393	0.468340	0.248268
	H428	H	0.692799	0.443125	0.289986
	O429	O	0.363357	0.622031	0.596279
	H430	H	0.383623	0.628649	0.590351
	H431	H	0.371891	0.639080	0.590222
	O432	O	0.701430	0.289467	0.466547
	H433	H	0.686681	0.301366	0.492555
	H434	H	0.728726	0.262194	0.472726
	O435	O	0.366897	0.582251	0.293015
	H436	H	0.402356	0.577381	0.285492
	H437	H	0.355965	0.591945	0.274608
	O438	O	0.150551	-0.164364	0.150309
	H439	H	0.146301	-0.160647	0.146775
	H440	H	0.136522	-0.157957	0.141504
	O441	O	0.905452	0.177972	-0.207540
	H442	H	0.890214	0.169079	-0.216959
	H443	H	0.888120	0.178259	-0.187785
	O444	O	-0.306331	1.520322	1.695068
	H445	H	-0.319064	1.495266	1.688625
	H446	H	-0.284686	1.515992	1.710760
	O447	O	0.300324	0.341216	0.681328
	H448	H	0.286933	0.340527	0.676332
	H449	H	0.281405	0.361075	0.680796
	O450	O	0.544672	0.633594	0.499829
	H451	H	0.553360	0.627011	0.497225
	H452	H	0.546580	0.639142	0.493378
	O453	O	0.481167	0.482833	0.488641
	H454	H	0.484205	0.472066	0.478682
	H455	H	0.485087	0.492046	0.490980
