data_Molecule from HDF5

_cell_length_a		16.583387
_cell_length_b		16.412824
_cell_length_c		16.239886
_cell_angle_alpha	90.137706
_cell_angle_beta	89.910943
_cell_angle_gamma	89.833483
_symmetry_space_group_name_H-M	'P 1'
_symmetry_Int_Tables_number		1

loop_
	_symmetry_equiv_pos_as_xyz
	x,y,z

loop_
	_atom_site_label
	_atom_site_type_symbol
	_atom_site_fract_x
	_atom_site_fract_y
	_atom_site_fract_z
	H0	H	0.393556	0.837022	0.720160
	H1	H	0.599696	0.155146	0.719592
	H2	H	0.602473	0.836983	0.277798
	H3	H	0.395424	0.156240	0.281265
	H4	H	0.718381	0.390527	0.840665
	H5	H	0.717937	0.603557	0.160073
	H6	H	0.276268	0.602898	0.839940
	H7	H	0.274001	0.388823	0.158613
	H8	H	0.842179	0.720491	0.392729
	H9	H	0.155944	0.718327	0.607501
	H10	H	0.841766	0.274347	0.605084
	H11	H	0.154918	0.269874	0.389744
	H12	H	0.839543	0.396373	0.717194
	H13	H	0.157657	0.598137	0.720157
	H14	H	0.840819	0.600578	0.279801
	H15	H	0.155949	0.389838	0.275867
	H16	H	0.392164	0.716710	0.839366
	H17	H	0.599846	0.716514	0.161235
	H18	H	0.601628	0.275949	0.840745
	H19	H	0.393172	0.278738	0.161893
	H20	H	0.722366	0.838306	0.388056
	H21	H	0.720699	0.152234	0.608194
	H22	H	0.275376	0.837807	0.607604
	H23	H	0.274191	0.153030	0.391395
	H24	H	0.894871	0.337336	0.219308
	H25	H	0.101150	0.655012	0.222449
	H26	H	0.100259	0.335158	0.782641
	H27	H	0.898043	0.656776	0.783210
	H28	H	0.219644	0.888444	0.339896
	H29	H	0.218787	0.101774	0.658413
	H30	H	0.775259	0.103930	0.339597
	H31	H	0.777271	0.890833	0.659228
	H32	H	0.340639	0.221375	0.894015
	H33	H	0.653491	0.221101	0.108846
	H34	H	0.341438	0.773897	0.109288
	H35	H	0.652575	0.771793	0.890300
	H36	H	0.340130	0.894277	0.220969
	H37	H	0.655610	0.101426	0.221426
	H38	H	0.340188	0.104018	0.776820
	H39	H	0.653600	0.891250	0.777245
	H40	H	0.892999	0.217194	0.339071
	H41	H	0.102486	0.214494	0.660143
	H42	H	0.104312	0.774238	0.340100
	H43	H	0.897139	0.780586	0.662106
	H44	H	0.222346	0.339077	0.891447
	H45	H	0.223018	0.652297	0.113119
	H46	H	0.774192	0.339190	0.108195
	H47	H	0.773476	0.653161	0.890411
	H48	H	0.400261	0.112068	0.589467
	H49	H	0.581943	0.883576	0.590287
	H50	H	0.592255	0.110391	0.411829
	H51	H	0.403108	0.880589	0.409838
	H52	H	0.583878	0.410610	0.113844
	H53	H	0.589696	0.585791	0.883852
	H54	H	0.418446	0.584289	0.110154
	H55	H	0.404059	0.402510	0.882068
	H56	H	0.108772	0.580189	0.411213
	H57	H	0.889303	0.586207	0.584014
	H58	H	0.111120	0.405577	0.588159
	H59	H	0.889269	0.406755	0.415277
	H60	H	0.112681	0.404600	0.593483
	H61	H	0.885986	0.583414	0.597172
	H62	H	0.111097	0.586853	0.411871
	H63	H	0.887109	0.408570	0.410018
	H64	H	0.405177	0.593230	0.118660
	H65	H	0.586927	0.580743	0.886760
	H66	H	0.588207	0.406306	0.116915
	H67	H	0.406242	0.418288	0.888660
	H68	H	0.584289	0.108557	0.409661
	H69	H	0.586997	0.884817	0.580007
	H70	H	0.413321	0.108137	0.591712
	H71	H	0.412893	0.883435	0.406767
	H72	H	0.903132	0.610350	0.086122
	H73	H	0.082812	0.385038	0.086179
	H74	H	0.088587	0.608924	0.914509
	H75	H	0.909125	0.382224	0.909704
	H76	H	0.087860	0.909740	0.613414
	H77	H	0.085577	0.078227	0.386536
	H78	H	0.902104	0.083799	0.615442
	H79	H	0.907342	0.905647	0.383457
	H80	H	0.607830	0.082977	0.910000
	H81	H	0.384674	0.096489	0.086201
	H82	H	0.609225	0.906405	0.086926
	H83	H	0.382492	0.899293	0.913271
	H84	H	0.609482	0.907478	0.085987
	H85	H	0.389684	0.081089	0.084513
	H86	H	0.610033	0.088454	0.909933
	H87	H	0.388316	0.912334	0.916777
	H88	H	0.910326	0.077786	0.609867
	H89	H	0.084083	0.085600	0.383943
	H90	H	0.086403	0.905923	0.614196
	H91	H	0.908750	0.911135	0.385830
	H92	H	0.090608	0.611564	0.910279
	H93	H	0.088440	0.385333	0.081661
	H94	H	0.908552	0.611089	0.092577
	H95	H	0.905076	0.382271	0.913684
	H96	H	0.407866	0.106321	0.578810
	H97	H	0.592912	0.879553	0.588492
	H98	H	0.587186	0.106947	0.417249
	H99	H	0.409501	0.884454	0.417834
	H100	H	0.590036	0.412392	0.114884
	H101	H	0.583054	0.586395	0.886431
	H102	H	0.402820	0.576721	0.112924
	H103	H	0.418886	0.407459	0.889505
	H104	H	0.107485	0.583685	0.417397
	H105	H	0.883577	0.595839	0.591928
	H106	H	0.112792	0.400222	0.589723
	H107	H	0.886132	0.402776	0.411831
	H108	H	0.910941	0.607620	0.084806
	H109	H	0.088997	0.382861	0.088141
	H110	H	0.085955	0.609351	0.910364
	H111	H	0.903706	0.380896	0.908997
	H112	H	0.090760	0.906842	0.616112
	H113	H	0.091297	0.082204	0.384109
	H114	H	0.912770	0.088606	0.613818
	H115	H	0.912764	0.906739	0.385872
	H116	H	0.608212	0.086056	0.914605
	H117	H	0.383251	0.086203	0.099001
	H118	H	0.609420	0.907579	0.087176
	H119	H	0.383216	0.909739	0.903516
	C120	C	0.375550	0.004405	0.620463
	C121	C	0.618929	0.986936	0.620219
	C122	C	0.620033	0.004098	0.378404
	C123	C	0.376500	0.987589	0.378661
	C124	C	0.619148	0.376101	0.009457
	C125	C	0.618479	0.617468	0.991648
	C126	C	0.375990	0.617698	0.008416
	C127	C	0.376940	0.376828	0.992028
	C128	C	0.006046	0.616960	0.379825
	C129	C	0.990736	0.618872	0.622786
	C130	C	0.007407	0.373499	0.621750
	C131	C	0.990641	0.373039	0.377902
	C132	C	0.875945	0.505067	0.120878
	C133	C	0.119117	0.488079	0.120575
	C134	C	0.120004	0.504712	0.879241
	C135	C	0.875625	0.487359	0.878573
	C136	C	0.120337	0.874427	0.508750
	C137	C	0.118719	0.115116	0.490752
	C138	C	0.876484	0.116541	0.507258
	C139	C	0.878002	0.876165	0.491344
	C140	C	0.505290	0.119240	0.878389
	C141	C	0.489373	0.119914	0.122932
	C142	C	0.505903	0.875399	0.120832
	C143	C	0.488086	0.874426	0.877779
	C144	C	0.374650	0.884680	0.680613
	C145	C	0.619540	0.106751	0.680516
	C146	C	0.621871	0.884858	0.316966
	C147	C	0.375927	0.107569	0.319859
	C148	C	0.678520	0.372613	0.888747
	C149	C	0.677774	0.620840	0.112249
	C150	C	0.316064	0.620637	0.888088
	C151	C	0.315315	0.372615	0.111694
	C152	C	0.889110	0.679395	0.375441
	C153	C	0.108856	0.678255	0.625361
	C154	C	0.888653	0.314669	0.623475
	C155	C	0.108384	0.311544	0.373228
	C156	C	0.887674	0.375231	0.679423
	C157	C	0.109797	0.618203	0.681463
	C158	C	0.888148	0.619378	0.319284
	C159	C	0.108573	0.370939	0.316116
	C160	C	0.374206	0.677118	0.887631
	C161	C	0.618971	0.677103	0.112692
	C162	C	0.620240	0.315854	0.888782
	C163	C	0.374622	0.317638	0.113204
	C164	C	0.681473	0.885592	0.372272
	C165	C	0.679531	0.105473	0.624674
	C166	C	0.315676	0.885250	0.624581
	C167	C	0.315429	0.106243	0.374784
	C168	C	0.875262	0.385043	0.180451
	C169	C	0.120867	0.606958	0.182859
	C170	C	0.120261	0.383854	0.820926
	C171	C	0.877093	0.608086	0.820860
	C172	C	0.179948	0.870856	0.387980
	C173	C	0.178582	0.118952	0.610773
	C174	C	0.815944	0.120725	0.387552
	C175	C	0.817597	0.873290	0.611503
	C176	C	0.387508	0.180651	0.875955
	C177	C	0.606958	0.180215	0.126290
	C178	C	0.387840	0.815255	0.125336
	C179	C	0.605574	0.812651	0.873080
	C180	C	0.387578	0.875212	0.181158
	C181	C	0.607841	0.120675	0.182555
	C182	C	0.387388	0.122391	0.817280
	C183	C	0.606209	0.872286	0.816746
	C184	C	0.874437	0.177358	0.387271
	C185	C	0.120600	0.175436	0.611395
	C186	C	0.122723	0.813763	0.388140
	C187	C	0.877621	0.818509	0.612870
	C188	C	0.180963	0.385790	0.875224
	C189	C	0.181088	0.605810	0.127786
	C190	C	0.815478	0.386095	0.124826
	C191	C	0.815328	0.606351	0.874722
	C192	C	0.400160	0.087271	0.594290
	C193	C	0.594410	0.904327	0.593853
	C194	C	0.594964	0.086995	0.405160
	C195	C	0.401277	0.904420	0.404152
	C196	C	0.594442	0.402245	0.093398
	C197	C	0.593692	0.591708	0.907590
	C198	C	0.401293	0.592138	0.092139
	C199	C	0.402458	0.402185	0.908542
	C200	C	0.087961	0.590977	0.405968
	C201	C	0.907821	0.595203	0.597968
	C202	C	0.090547	0.396616	0.597401
	C203	C	0.908940	0.398785	0.404612
	C204	C	0.900474	0.587899	0.095076
	C205	C	0.094007	0.405732	0.093125
	C206	C	0.095404	0.588046	0.904485
	C207	C	0.899313	0.403669	0.903561
	C208	C	0.095597	0.900236	0.592563
	C209	C	0.094000	0.089345	0.406797
	C210	C	0.901354	0.090762	0.591202
	C211	C	0.902571	0.900700	0.406915
	C212	C	0.587380	0.093399	0.904083
	C213	C	0.407149	0.095141	0.097203
	C214	C	0.587984	0.900007	0.094227
	C215	C	0.406163	0.899897	0.903837
	Zn216	Zn	0.496636	-0.003583	0.748729
	Zn217	Zn	0.498552	-0.003818	0.250571
	Zn218	Zn	0.747169	0.496772	0.000260
	Zn219	Zn	0.248798	0.496821	0.000046
	Zn220	Zn	-0.000832	0.747788	0.500153
	Zn221	Zn	-0.001134	0.243567	0.499531
	Zn222	Zn	-0.000962	0.496068	0.751157
	Zn223	Zn	-0.002048	0.496198	0.249208
	Zn224	Zn	0.496993	0.745533	0.000039
	Zn225	Zn	0.497330	0.248894	0.001289
	Zn226	Zn	0.748350	-0.005012	0.498635
	Zn227	Zn	0.247637	-0.004819	0.499258
	N228	N	0.411127	0.959798	0.678342
	N229	N	0.582414	0.032108	0.677668
	N230	N	0.584372	0.959551	0.320549
	N231	N	0.413388	0.032833	0.322275
	N232	N	0.677980	0.409141	0.964924
	N233	N	0.677479	0.584488	0.035966
	N234	N	0.317035	0.584646	0.964381
	N235	N	0.316757	0.408810	0.035513
	N236	N	0.963580	0.677862	0.412652
	N237	N	0.033827	0.678801	0.589577
	N238	N	0.964095	0.313403	0.588391
	N239	N	0.034100	0.312516	0.410680
	N240	N	0.962560	0.410864	0.678540
	N241	N	0.035163	0.581994	0.680008
	N242	N	0.961880	0.581249	0.321822
	N243	N	0.034334	0.408347	0.318679
	N244	N	0.410808	0.675542	0.963534
	N245	N	0.582963	0.675390	0.036342
	N246	N	0.584053	0.317836	0.964900
	N247	N	0.412597	0.320271	0.037955
	N248	N	0.680650	0.960902	0.409397
	N249	N	0.679244	0.030141	0.587737
	N250	N	0.316032	0.960694	0.588059
	N251	N	0.315723	0.030449	0.410533
	N252	N	0.912258	0.459730	0.178102
	N253	N	0.082779	0.532822	0.178196
	N254	N	0.083011	0.458774	0.823140
	N255	N	0.914090	0.532977	0.823208
	N256	N	0.178747	0.907679	0.463910
	N257	N	0.177705	0.082327	0.534627
	N258	N	0.816813	0.083889	0.463591
	N259	N	0.817627	0.908145	0.534612
	N260	N	0.461982	0.178975	0.913114
	N261	N	0.532173	0.179915	0.090023
	N262	N	0.462494	0.815195	0.088367
	N263	N	0.531080	0.813682	0.910357
	N264	N	0.462044	0.911754	0.178541
	N265	N	0.533555	0.083938	0.180680
	N266	N	0.461518	0.084733	0.818926
	N267	N	0.532137	0.909770	0.819359
	N268	N	0.911239	0.175008	0.462982
	N269	N	0.083930	0.173060	0.535578
	N270	N	0.086429	0.815544	0.464215
	N271	N	0.914460	0.820187	0.537101
	N272	N	0.181050	0.461837	0.910785
	N273	N	0.180219	0.530892	0.089842
	N274	N	0.815701	0.461765	0.088600
	N275	N	0.814302	0.530176	0.909749
	O276	O	0.530856	0.508924	0.317924
	H277	H	0.555994	0.493440	0.311696
	H278	H	0.523326	0.495154	0.318350
	O279	O	0.710869	0.287657	0.483030
	H280	H	0.733331	0.272292	0.460274
	H281	H	0.709905	0.285298	0.449164
	O282	O	0.307560	0.473494	0.696032
	H283	H	0.314776	0.481026	0.689206
	H284	H	0.305439	0.483588	0.709222
	O285	O	1.023197	1.098268	-0.006858
	H286	H	1.019520	1.088942	-0.019938
	H287	H	1.020495	1.122575	-0.015960
	O288	O	0.385583	0.473071	0.507870
	H289	H	0.376345	0.465178	0.516093
	H290	H	0.396135	0.471116	0.500045
	O291	O	0.522718	0.466962	0.519332
	H292	H	0.517788	0.456599	0.536130
	H293	H	0.534058	0.469393	0.504749
	O294	O	1.190028	0.784572	0.998477
	H295	H	1.210858	0.761290	0.992988
	H296	H	1.198818	0.796542	0.974841
	O297	O	0.340118	0.420141	0.499322
	H298	H	0.326719	0.410213	0.508211
	H299	H	0.344506	0.428436	0.495525
	O300	O	0.405943	0.567564	0.567434
	H301	H	0.417874	0.564561	0.569753
	H302	H	0.397775	0.558688	0.568408
	O303	O	0.319699	0.360211	0.488773
	H304	H	0.319052	0.388134	0.473538
	H305	H	0.322592	0.348385	0.496210
	O306	O	0.037232	0.151857	0.951496
	H307	H	0.038462	0.139524	0.964158
	H308	H	0.037223	0.167343	0.949192
	O309	O	1.122027	0.124163	0.150717
	H310	H	1.145385	0.107543	0.157511
	H311	H	1.128070	0.125028	0.146896
	O312	O	0.468788	0.645280	0.544173
	H313	H	0.474905	0.649719	0.515863
	H314	H	0.460397	0.674955	0.552501
	O315	O	0.593446	0.547734	0.467367
	H316	H	0.592034	0.555091	0.476679
	H317	H	0.592087	0.560477	0.472843
	O318	O	0.201845	0.144526	0.102921
	H319	H	0.218881	0.159999	0.106222
	H320	H	0.197692	0.118886	0.107215
	O321	O	0.662382	0.360296	0.423945
	H322	H	0.661134	0.386995	0.420342
	H323	H	0.669219	0.341831	0.402055
	O324	O	0.830482	0.189913	0.804225
	H325	H	0.815265	0.198540	0.775961
	H326	H	0.847402	0.165557	0.805743
	O327	O	0.639602	0.352330	0.650609
	H328	H	0.651013	0.348468	0.634196
	H329	H	0.613718	0.349250	0.662020
	O330	O	0.017126	1.172921	0.789501
	H331	H	0.010938	1.177702	0.792557
	H332	H	0.017198	1.191290	0.775796
	O333	O	0.158568	0.981114	0.067525
	H334	H	0.166894	0.970533	0.043850
	H335	H	0.150155	0.976848	0.067801
	O336	O	0.897099	1.056439	0.155830
	H337	H	0.903473	1.084496	0.149465
	H338	H	0.904780	1.045268	0.145914
	O339	O	0.009767	0.848762	1.055058
	H340	H	0.010196	0.850157	1.056847
	H341	H	-0.006251	0.848636	1.050543
	O342	O	0.246501	0.717034	0.288537
	H343	H	0.256801	0.715610	0.302890
	H344	H	0.233818	0.716942	0.289042
	O345	O	-0.008280	0.118995	0.956539
	H346	H	-0.014620	0.105612	0.936884
	H347	H	-0.004111	0.119752	0.969217
	O348	O	0.324988	0.319539	0.672748
	H349	H	0.325821	0.320673	0.656732
	H350	H	0.319196	0.346275	0.660353
	O351	O	0.790814	0.974972	0.199181
	H352	H	0.761491	0.981423	0.210629
	H353	H	0.795335	0.998151	0.188675
	O354	O	1.019914	0.868892	1.008058
	H355	H	1.017039	0.878105	1.014680
	H356	H	1.030681	0.887317	1.010265
	O357	O	0.010558	-0.165480	-0.121638
	H358	H	0.011425	-0.180726	-0.141375
	H359	H	-0.003148	-0.164417	-0.109199
	O360	O	0.485836	0.295166	0.697611
	H361	H	0.459000	0.284849	0.704485
	H362	H	0.485105	0.296046	0.693896
	O363	O	0.834310	-0.041949	-0.002339
	H364	H	0.824912	-0.051982	0.000745
	H365	H	0.836253	-0.046961	0.007233
	O366	O	0.032309	0.152247	1.019740
	H367	H	0.028294	0.152395	1.034666
	H368	H	0.031616	0.168284	1.036895
	O369	O	1.072698	0.016519	0.906193
	H370	H	1.076928	0.019693	0.909269
	H371	H	1.068181	0.008593	0.890247
	O372	O	0.466677	0.535965	0.686189
	H373	H	0.469690	0.540104	0.661365
	H374	H	0.463957	0.538287	0.687778
	O375	O	0.200884	-0.003673	0.823990
	H376	H	0.218562	0.003593	0.812989
	H377	H	0.189869	-0.010186	0.833389
	O378	O	0.475793	0.475500	0.297078
	H379	H	0.472968	0.464229	0.301479
	H380	H	0.471599	0.470280	0.294599
	O381	O	0.150920	1.076176	0.136327
	H382	H	0.148066	1.088331	0.120735
	H383	H	0.132525	1.065125	0.144587
	O384	O	0.586730	0.563880	0.670823
	H385	H	0.587174	0.528094	0.672864
	H386	H	0.579761	0.580352	0.683650
	O387	O	0.584995	0.685038	0.600173
	H388	H	0.584806	0.687782	0.611533
	H389	H	0.592229	0.668889	0.601001
	O390	O	0.834298	0.821647	0.162275
	H391	H	0.834834	0.854360	0.178422
	H392	H	0.864566	0.834506	0.159706
	O393	O	0.781858	0.206823	0.979267
	H394	H	0.778770	0.214901	0.949509
	H395	H	0.779162	0.224281	0.967703
	O396	O	0.710564	0.713474	0.524506
	H397	H	0.695285	0.702357	0.571155
	H398	H	0.742046	0.748363	0.533713
	O399	O	0.689754	0.403551	0.327286
	H400	H	0.678220	0.416198	0.320060
	H401	H	0.693977	0.431350	0.333112
	O402	O	0.778942	0.781932	0.014842
	H403	H	0.750223	0.748872	0.023988
	H404	H	0.793615	0.794372	0.063284
	O405	O	0.288732	0.480396	0.362836
	H406	H	0.294883	0.488376	0.360882
	H407	H	0.288494	0.488438	0.359847
	O408	O	0.689703	0.478199	0.567985
	H409	H	0.692877	0.477973	0.579320
	H410	H	0.699142	0.480523	0.554765
	O411	O	0.794588	1.019032	0.803198
	H412	H	0.788277	1.009292	0.811720
	H413	H	0.787163	1.021760	0.801862
	O414	O	0.452334	0.324567	0.346671
	H415	H	0.440126	0.302428	0.352458
	H416	H	0.448610	0.326361	0.353930
	O417	O	0.024471	0.929525	0.919371
	H418	H	0.008491	0.936901	0.925878
	H419	H	0.014789	0.940255	0.906389
	O420	O	-0.189985	0.951616	0.954990
	H421	H	-0.203168	0.937467	0.970522
	H422	H	-0.176920	0.966040	0.958712
	O423	O	-0.008881	0.860223	0.080757
	H424	H	0.003902	0.857814	0.092442
	H425	H	0.008364	0.864007	0.081150
	O426	O	0.368824	0.613720	0.298126
	H427	H	0.349195	0.627106	0.315665
	H428	H	0.367992	0.617649	0.277813
	O429	O	0.555545	0.662694	0.495130
	H430	H	0.550216	0.655730	0.497898
	H431	H	0.564893	0.674927	0.476563
	O432	O	0.581920	0.450294	0.569688
	H433	H	0.580817	0.443810	0.563484
	H434	H	0.588712	0.443951	0.571269
	O435	O	-0.006953	0.023123	0.195087
	H436	H	-0.006555	0.030105	0.193742
	H437	H	-0.009549	0.021186	0.195783
	O438	O	0.182628	0.822762	0.861057
	H439	H	0.158109	0.831420	0.840377
	H440	H	0.177462	0.830037	0.872416
	O441	O	0.511294	0.674510	0.360691
	H442	H	0.523731	0.688825	0.353039
	H443	H	0.522743	0.656073	0.357162
