data_Molecule from HDF5

_cell_length_a		16.163868
_cell_length_b		16.441295
_cell_length_c		16.155010
_cell_angle_alpha	89.791674
_cell_angle_beta	89.496106
_cell_angle_gamma	90.245968
_symmetry_space_group_name_H-M	'P 1'
_symmetry_Int_Tables_number		1

loop_
	_symmetry_equiv_pos_as_xyz
	x,y,z

loop_
	_atom_site_label
	_atom_site_type_symbol
	_atom_site_fract_x
	_atom_site_fract_y
	_atom_site_fract_z
	H0	H	0.388414	0.836461	0.714650
	H1	H	0.587693	0.161568	0.712656
	H2	H	0.587872	0.836156	0.284976
	H3	H	0.391134	0.160296	0.281709
	H4	H	0.703531	0.403328	0.834065
	H5	H	0.699676	0.595537	0.164530
	H6	H	0.279683	0.596142	0.833451
	H7	H	0.271740	0.399089	0.163462
	H8	H	0.825182	0.715104	0.397474
	H9	H	0.151339	0.717732	0.598876
	H10	H	0.823991	0.282288	0.601276
	H11	H	0.151685	0.284256	0.394045
	H12	H	0.823364	0.401398	0.714077
	H13	H	0.153921	0.597017	0.708841
	H14	H	0.823396	0.596042	0.287910
	H15	H	0.153261	0.404322	0.284546
	H16	H	0.389935	0.715034	0.835503
	H17	H	0.589669	0.714838	0.162904
	H18	H	0.592715	0.283722	0.835137
	H19	H	0.384582	0.280492	0.162635
	H20	H	0.704687	0.837621	0.398263
	H21	H	0.703276	0.162069	0.594185
	H22	H	0.270152	0.837682	0.601248
	H23	H	0.274903	0.161400	0.400196
	H24	H	0.888307	0.337338	0.216069
	H25	H	0.087334	0.662224	0.212060
	H26	H	0.087994	0.336789	0.782763
	H27	H	0.890060	0.660988	0.783273
	H28	H	0.203752	0.903455	0.334278
	H29	H	0.198520	0.095306	0.664817
	H30	H	0.779897	0.095555	0.331616
	H31	H	0.775044	0.903589	0.663543
	H32	H	0.324948	0.215617	0.897098
	H33	H	0.651931	0.216544	0.099909
	H34	H	0.325699	0.781073	0.103205
	H35	H	0.653824	0.784598	0.897028
	H36	H	0.325035	0.899782	0.213947
	H37	H	0.654937	0.094446	0.208596
	H38	H	0.322623	0.094481	0.788246
	H39	H	0.653748	0.903608	0.784540
	H40	H	0.888315	0.216386	0.334283
	H41	H	0.088646	0.216327	0.661729
	H42	H	0.091587	0.785004	0.334054
	H43	H	0.883998	0.781880	0.661645
	H44	H	0.206107	0.337327	0.897452
	H45	H	0.205396	0.660411	0.097414
	H46	H	0.770463	0.337344	0.100780
	H47	H	0.775981	0.661900	0.901124
	H48	H	0.394019	0.116919	0.597730
	H49	H	0.577131	0.882427	0.603237
	H50	H	0.592433	0.117180	0.404983
	H51	H	0.394613	0.882182	0.403379
	H52	H	0.571108	0.402914	0.114075
	H53	H	0.594028	0.592891	0.877268
	H54	H	0.396490	0.595007	0.118418
	H55	H	0.391654	0.404802	0.879531
	H56	H	0.104518	0.589625	0.405771
	H57	H	0.871778	0.585960	0.596095
	H58	H	0.107681	0.411254	0.600516
	H59	H	0.869018	0.403515	0.406718
	H60	H	0.107860	0.394201	0.586694
	H61	H	0.868108	0.597602	0.592824
	H62	H	0.109006	0.595265	0.401433
	H63	H	0.872199	0.405138	0.412372
	H64	H	0.392801	0.587191	0.116876
	H65	H	0.577359	0.583568	0.886274
	H66	H	0.583346	0.401555	0.118814
	H67	H	0.401310	0.412478	0.884936
	H68	H	0.582935	0.116450	0.394522
	H69	H	0.574692	0.889081	0.584234
	H70	H	0.397947	0.112720	0.591951
	H71	H	0.400316	0.885102	0.407657
	H72	H	0.895858	0.611268	0.084195
	H73	H	0.085757	0.383428	0.088910
	H74	H	0.081221	0.613168	0.906086
	H75	H	0.888057	0.382390	0.909401
	H76	H	0.081121	0.906313	0.617341
	H77	H	0.080103	0.086742	0.383968
	H78	H	0.897407	0.086443	0.613519
	H79	H	0.901605	0.893453	0.377940
	H80	H	0.604149	0.089300	0.907676
	H81	H	0.373306	0.090087	0.086425
	H82	H	0.605498	0.905638	0.086577
	H83	H	0.370859	0.908430	0.901268
	H84	H	0.607165	0.906337	0.092253
	H85	H	0.372173	0.086388	0.091983
	H86	H	0.606513	0.093174	0.903347
	H87	H	0.368261	0.895740	0.908957
	H88	H	0.900264	0.096719	0.615071
	H89	H	0.077200	0.098221	0.381190
	H90	H	0.075083	0.909308	0.614012
	H91	H	0.886281	0.909077	0.376906
	H92	H	0.088475	0.616154	0.905249
	H93	H	0.077033	0.383543	0.097487
	H94	H	0.886130	0.618152	0.095379
	H95	H	0.898663	0.382691	0.900015
	H96	H	0.391161	0.115155	0.590784
	H97	H	0.593009	0.881093	0.589387
	H98	H	0.578802	0.112081	0.407334
	H99	H	0.392473	0.884057	0.411004
	H100	H	0.579028	0.412532	0.114832
	H101	H	0.576407	0.603360	0.880373
	H102	H	0.400645	0.589410	0.114732
	H103	H	0.403983	0.399901	0.882116
	H104	H	0.106374	0.596680	0.409515
	H105	H	0.873329	0.590758	0.583693
	H106	H	0.100539	0.413299	0.580341
	H107	H	0.871793	0.409237	0.408032
	H108	H	0.901408	0.614657	0.098747
	H109	H	0.074710	0.387414	0.087361
	H110	H	0.083438	0.615298	0.899184
	H111	H	0.901292	0.386626	0.912795
	H112	H	0.074527	0.902594	0.615820
	H113	H	0.088495	0.094223	0.378429
	H114	H	0.890719	0.093809	0.617454
	H115	H	0.906587	0.913891	0.386364
	H116	H	0.605352	0.094638	0.909521
	H117	H	0.371071	0.093121	0.091656
	H118	H	0.608404	0.901495	0.089272
	H119	H	0.374794	0.906862	0.916151
	C120	C	0.365344	0.007444	0.622137
	C121	C	0.610650	0.991125	0.620040
	C122	C	0.612484	0.007822	0.374918
	C123	C	0.367575	0.990676	0.377790
	C124	C	0.609127	0.377770	0.007555
	C125	C	0.610560	0.621193	0.990256
	C126	C	0.368450	0.619494	0.007859
	C127	C	0.367214	0.376518	0.990475
	C128	C	-0.002333	0.621273	0.377447
	C129	C	0.979755	0.620645	0.619358
	C130	C	-0.003256	0.377086	0.620186
	C131	C	0.979510	0.377932	0.377683
	C132	C	0.865238	0.507650	0.122681
	C133	C	0.109111	0.491621	0.119372
	C134	C	0.112331	0.507473	0.875288
	C135	C	0.867494	0.491017	0.878232
	C136	C	0.108489	0.878103	0.507336
	C137	C	0.110120	0.121235	0.490041
	C138	C	0.868085	0.120397	0.506189
	C139	C	0.867041	0.877042	0.489064
	C140	C	0.496962	0.120729	0.877741
	C141	C	0.480538	0.119297	0.118974
	C142	C	0.498325	0.875606	0.120190
	C143	C	0.480274	0.876387	0.878115
	C144	C	0.367911	0.885155	0.677130
	C145	C	0.607686	0.113291	0.674673
	C146	C	0.608749	0.885290	0.321536
	C147	C	0.370523	0.112288	0.320953
	C148	C	0.665979	0.381843	0.883714
	C149	C	0.663516	0.616948	0.114883
	C150	C	0.315476	0.616891	0.883361
	C151	C	0.309954	0.378760	0.114117
	C152	C	0.874099	0.676637	0.378775
	C153	C	0.102806	0.678204	0.618039
	C154	C	0.873283	0.320761	0.620328
	C155	C	0.102846	0.322627	0.375905
	C156	C	0.872771	0.380021	0.676420
	C157	C	0.104237	0.617970	0.672597
	C158	C	0.873189	0.617341	0.324080
	C159	C	0.103556	0.382457	0.321509
	C160	C	0.370432	0.676096	0.884428
	C161	C	0.608867	0.676352	0.114027
	C162	C	0.610928	0.322193	0.884263
	C163	C	0.366109	0.319664	0.113884
	C164	C	0.667011	0.885973	0.378112
	C165	C	0.665568	0.113410	0.615839
	C166	C	0.308946	0.885707	0.620708
	C167	C	0.312513	0.112750	0.379587
	C168	C	0.867357	0.385819	0.178530
	C169	C	0.107479	0.613460	0.174403
	C170	C	0.109253	0.385471	0.820233
	C171	C	0.870416	0.612935	0.822265
	C172	C	0.166059	0.881818	0.383572
	C173	C	0.162861	0.117463	0.614804
	C174	C	0.815605	0.116925	0.381590
	C175	C	0.811437	0.881282	0.613537
	C176	C	0.373628	0.176677	0.878367
	C177	C	0.603571	0.176741	0.118185
	C178	C	0.374967	0.819501	0.121456
	C179	C	0.604332	0.822569	0.878355
	C180	C	0.374450	0.878590	0.176482
	C181	C	0.605403	0.115960	0.171987
	C182	C	0.372405	0.116258	0.824318
	C183	C	0.604506	0.881947	0.822614
	C184	C	0.869708	0.176994	0.382795
	C185	C	0.108397	0.177471	0.613243
	C186	C	0.109710	0.823424	0.383252
	C187	C	0.865720	0.820984	0.612733
	C188	C	0.167849	0.385694	0.877374
	C189	C	0.166020	0.612835	0.117196
	C190	C	0.808745	0.385934	0.121224
	C191	C	0.813330	0.613336	0.880636
	C192	C	0.387733	0.092644	0.599767
	C193	C	0.588155	0.905995	0.598667
	C194	C	0.591090	0.093296	0.396145
	C195	C	0.389362	0.905747	0.400558
	C196	C	0.585041	0.399330	0.093768
	C197	C	0.588961	0.599713	0.903578
	C198	C	0.390061	0.597023	0.094330
	C199	C	0.391770	0.398983	0.904288
	C200	C	0.084298	0.600144	0.399207
	C201	C	0.893360	0.598008	0.597429
	C202	C	0.083024	0.399495	0.596060
	C203	C	0.893343	0.399502	0.401957
	C204	C	0.887873	0.592650	0.099503
	C205	C	0.085995	0.406701	0.097486
	C206	C	0.090776	0.592548	0.897100
	C207	C	0.889427	0.405974	0.900923
	C208	C	0.083975	0.899663	0.593407
	C209	C	0.088452	0.099427	0.403593
	C210	C	0.889753	0.098525	0.593031
	C211	C	0.891152	0.898833	0.402772
	C212	C	0.583130	0.098697	0.900285
	C213	C	0.394523	0.096573	0.096495
	C214	C	0.584822	0.897910	0.096406
	C215	C	0.393718	0.897487	0.901885
	Zn216	Zn	0.487895	-0.001091	0.750196
	Zn217	Zn	0.490063	-0.001874	0.247079
	Zn218	Zn	0.737359	0.499737	-0.000595
	Zn219	Zn	0.240047	0.498983	-0.001342
	Zn220	Zn	-0.011676	0.748940	0.498078
	Zn221	Zn	-0.011342	0.248845	0.498029
	Zn222	Zn	-0.011072	0.499218	0.747819
	Zn223	Zn	-0.011845	0.499967	0.251021
	Zn224	Zn	0.489162	0.747649	-0.000796
	Zn225	Zn	0.488658	0.248679	-0.001459
	Zn226	Zn	0.740727	-0.000376	0.497256
	Zn227	Zn	0.236833	-0.000523	0.499884
	N228	N	0.401906	0.961883	0.678468
	N229	N	0.574195	0.036216	0.677320
	N230	N	0.575406	0.962045	0.319513
	N231	N	0.403894	0.035574	0.319747
	N232	N	0.665050	0.415865	0.961365
	N233	N	0.664767	0.583349	0.036936
	N234	N	0.314391	0.582079	0.961079
	N235	N	0.310738	0.413362	0.036419
	N236	N	0.952711	0.679452	0.411066
	N237	N	0.024262	0.680080	0.585891
	N238	N	0.951572	0.319028	0.586037
	N239	N	0.024822	0.319963	0.410537
	N240	N	0.950560	0.414170	0.676524
	N241	N	0.026728	0.582875	0.673645
	N242	N	0.951004	0.583930	0.323020
	N243	N	0.025822	0.416203	0.322616
	N244	N	0.402457	0.678001	0.962860
	N245	N	0.576852	0.679122	0.035450
	N246	N	0.576091	0.319687	0.962209
	N247	N	0.401092	0.318237	0.035897
	N248	N	0.669657	0.963248	0.410422
	N249	N	0.667730	0.036509	0.582798
	N250	N	0.307122	0.962693	0.587365
	N251	N	0.310725	0.036266	0.414515
	N252	N	0.901438	0.462494	0.179725
	N253	N	0.072819	0.537009	0.175979
	N254	N	0.075565	0.462149	0.818691
	N255	N	0.903416	0.535935	0.820704
	N256	N	0.165451	0.915089	0.461573
	N257	N	0.164012	0.083252	0.537216
	N258	N	0.814587	0.082628	0.459320
	N259	N	0.812213	0.915486	0.535618
	N260	N	0.452061	0.179362	0.910983
	N261	N	0.524963	0.178892	0.085911
	N262	N	0.453067	0.817639	0.087131
	N263	N	0.525961	0.819234	0.912262
	N264	N	0.452327	0.912838	0.176103
	N265	N	0.528023	0.080931	0.172749
	N266	N	0.450079	0.082196	0.823679
	N267	N	0.526420	0.914782	0.822389
	N268	N	0.901407	0.179464	0.461558
	N269	N	0.076579	0.180113	0.534647
	N270	N	0.074607	0.820933	0.461184
	N271	N	0.899879	0.818247	0.534393
	N272	N	0.170202	0.462582	0.910612
	N273	N	0.167027	0.536102	0.083613
	N274	N	0.807422	0.462770	0.087042
	N275	N	0.811426	0.536591	0.914718
	O276	O	-0.037574	-0.043870	-0.039803
	H277	H	-0.034238	-0.033572	-0.044431
	H278	H	-0.031132	-0.045956	-0.037137
	O279	O	0.533259	0.519614	0.420421
	H280	H	0.536839	0.518949	0.421753
	H281	H	0.524898	0.516098	0.424420
	O282	O	0.440065	0.572686	0.435318
	H283	H	0.441738	0.583621	0.445038
	H284	H	0.443646	0.575812	0.435196
	O285	O	-0.102536	1.092886	0.947932
	H286	H	-0.116405	1.084104	0.952322
	H287	H	-0.094930	1.091010	0.936817
	O288	O	0.485259	0.457358	0.467912
	H289	H	0.478356	0.459695	0.471005
	H290	H	0.484366	0.461770	0.462176
	O291	O	1.028966	0.987555	1.008717
	H292	H	1.025214	0.986960	1.000498
	H293	H	1.026146	0.992405	1.010277
	O294	O	1.013046	1.005312	0.942307
	H295	H	1.015797	0.994790	0.946807
	H296	H	1.022361	1.010619	0.947126
	O297	O	1.531521	0.485079	1.546442
	H298	H	1.537859	0.469470	1.544683
	H299	H	1.531391	0.486851	1.547595
	O300	O	0.442516	0.384520	0.513484
	H301	H	0.433940	0.398975	0.510687
	H302	H	0.429844	0.378033	0.527131
	O303	O	1.054318	0.081497	-0.017109
	H304	H	1.056087	0.097432	-0.009550
	H305	H	1.050288	0.076165	-0.015044
	O306	O	-0.027549	0.998995	0.984326
	H307	H	-0.039981	0.998577	0.985715
	H308	H	-0.032538	0.997198	0.977168
	O309	O	0.350786	0.466060	0.605477
	H310	H	0.355047	0.474069	0.615857
	H311	H	0.352728	0.473520	0.593943
	O312	O	1.031441	-0.051771	1.011034
	H313	H	1.016756	-0.049968	1.006385
	H314	H	1.033206	-0.051320	1.007700
	O315	O	0.560881	0.565739	0.564082
	H316	H	0.574657	0.564405	0.556061
	H317	H	0.565249	0.567540	0.561825
	O318	O	0.531653	0.374709	0.504176
	H319	H	0.521054	0.377492	0.501663
	H320	H	0.523822	0.355955	0.500111
	O321	O	1.072027	1.141966	1.026173
	H322	H	1.080517	1.140283	1.032940
	H323	H	1.070163	1.154094	1.036004
	O324	O	0.490181	0.426822	0.527275
	H325	H	0.476733	0.424306	0.530581
	H326	H	0.480498	0.416405	0.531267
	O327	O	0.569977	0.531133	0.487014
	H328	H	0.571395	0.519905	0.488626
	H329	H	0.579530	0.524012	0.477262
	O330	O	0.944135	0.015006	0.850109
	H331	H	0.948529	0.019972	0.848497
	H332	H	0.951896	0.009591	0.846001
	O333	O	0.975667	0.946127	0.066746
	H334	H	0.970827	0.948012	0.065339
	H335	H	0.972666	0.948524	0.069230
	O336	O	0.494415	0.526945	0.483328
	H337	H	0.496657	0.527104	0.483449
	H338	H	0.510365	0.531730	0.476603
	O339	O	0.514440	0.500505	0.473913
	H340	H	0.512265	0.501340	0.473706
	H341	H	0.518131	0.514911	0.472130
	O342	O	0.000408	0.977012	0.035678
	H343	H	0.002105	0.980997	0.033002
	H344	H	-0.001612	0.977812	0.026933
	O345	O	-0.013292	-0.028025	0.048049
	H346	H	-0.003050	-0.028658	0.037811
	H347	H	-0.026751	-0.034384	0.058775
	O348	O	0.405242	0.457739	0.518622
	H349	H	0.397243	0.455245	0.526391
	H350	H	0.393648	0.461042	0.533702
	O351	O	0.448487	0.592761	0.522476
	H352	H	0.449206	0.598977	0.518982
	H353	H	0.450347	0.587105	0.518053
	O354	O	0.967084	0.991188	-0.055535
	H355	H	0.969383	0.988017	-0.062762
	H356	H	0.966716	0.983876	-0.053898
	O357	O	-0.060956	0.013455	1.003716
	H358	H	-0.060711	0.013481	1.000555
	H359	H	-0.056073	0.023554	1.004465
	O360	O	0.022205	-0.052919	0.037204
	H361	H	0.011319	-0.061064	0.040181
	H362	H	0.022750	-0.064724	0.026611
	O363	O	0.543651	0.537434	0.564904
	H364	H	0.554011	0.531575	0.560428
	H365	H	0.550821	0.521517	0.569967
	O366	O	0.042579	0.043199	1.035542
	H367	H	0.040385	0.029724	1.044012
	H368	H	0.036314	0.043528	1.041636
	O369	O	1.432852	0.461751	-0.454903
	H370	H	1.428878	0.470544	-0.454767
	H371	H	1.424641	0.454568	-0.450621
