data_Molecule from HDF5

_cell_length_a		16.193651
_cell_length_b		16.347390
_cell_length_c		16.218517
_cell_angle_alpha	90.116680
_cell_angle_beta	89.600758
_cell_angle_gamma	89.684011
_symmetry_space_group_name_H-M	'P 1'
_symmetry_Int_Tables_number		1

loop_
	_symmetry_equiv_pos_as_xyz
	x,y,z

loop_
	_atom_site_label
	_atom_site_type_symbol
	_atom_site_fract_x
	_atom_site_fract_y
	_atom_site_fract_z
	H0	H	0.399280	0.838087	0.711079
	H1	H	0.595044	0.163960	0.710654
	H2	H	0.599794	0.838969	0.278959
	H3	H	0.397873	0.164507	0.281422
	H4	H	0.713569	0.403441	0.833068
	H5	H	0.707227	0.599356	0.162578
	H6	H	0.284497	0.599134	0.831814
	H7	H	0.282372	0.404745	0.162115
	H8	H	0.834443	0.718504	0.398299
	H9	H	0.162201	0.714185	0.595836
	H10	H	0.832318	0.287726	0.598718
	H11	H	0.161272	0.284747	0.396352
	H12	H	0.832228	0.405301	0.712227
	H13	H	0.162233	0.597517	0.708673
	H14	H	0.831098	0.598048	0.288047
	H15	H	0.161806	0.402222	0.281635
	H16	H	0.397112	0.716117	0.832272
	H17	H	0.595484	0.717411	0.159964
	H18	H	0.599582	0.284968	0.833098
	H19	H	0.396790	0.285896	0.160395
	H20	H	0.715219	0.839635	0.394814
	H21	H	0.710030	0.165366	0.593312
	H22	H	0.283822	0.837804	0.595648
	H23	H	0.281166	0.163800	0.398562
	H24	H	0.897459	0.338528	0.213663
	H25	H	0.093582	0.664800	0.212222
	H26	H	0.097417	0.338858	0.780823
	H27	H	0.897739	0.665442	0.784466
	H28	H	0.214410	0.901687	0.332895
	H29	H	0.209127	0.099134	0.662207
	H30	H	0.786791	0.099176	0.331289
	H31	H	0.782452	0.905641	0.660886
	H32	H	0.334461	0.218116	0.896910
	H33	H	0.660855	0.216814	0.096453
	H34	H	0.332558	0.788465	0.095993
	H35	H	0.661006	0.781940	0.892834
	H36	H	0.334011	0.903685	0.211935
	H37	H	0.662826	0.098312	0.208066
	H38	H	0.332470	0.099133	0.784668
	H39	H	0.663264	0.901598	0.781169
	H40	H	0.897263	0.217923	0.333811
	H41	H	0.097188	0.218477	0.660211
	H42	H	0.101350	0.783912	0.334032
	H43	H	0.897599	0.788298	0.661973
	H44	H	0.214723	0.339079	0.896189
	H45	H	0.209310	0.665682	0.095538
	H46	H	0.782406	0.337521	0.097356
	H47	H	0.781683	0.665000	0.901455
	H48	H	0.404176	0.115953	0.588061
	H49	H	0.588668	0.884881	0.592692
	H50	H	0.598475	0.121425	0.399536
	H51	H	0.400475	0.884184	0.404531
	H52	H	0.594654	0.403291	0.117129
	H53	H	0.594942	0.590738	0.879703
	H54	H	0.391816	0.593224	0.116186
	H55	H	0.409453	0.410377	0.882436
	H56	H	0.111750	0.590879	0.410596
	H57	H	0.879417	0.597180	0.591526
	H58	H	0.114888	0.413101	0.596317
	H59	H	0.878588	0.405170	0.402659
	H60	H	0.116636	0.398130	0.588281
	H61	H	0.880196	0.596126	0.591191
	H62	H	0.114998	0.588197	0.397705
	H63	H	0.880737	0.407298	0.410019
	H64	H	0.410491	0.588013	0.108954
	H65	H	0.586431	0.587348	0.882734
	H66	H	0.588711	0.413791	0.111957
	H67	H	0.408015	0.406235	0.879834
	H68	H	0.585792	0.117787	0.395667
	H69	H	0.589117	0.887602	0.583872
	H70	H	0.401220	0.118160	0.590921
	H71	H	0.410375	0.885323	0.397982
	H72	H	0.893370	0.620718	0.097161
	H73	H	0.083857	0.388626	0.083426
	H74	H	0.076717	0.616096	0.896379
	H75	H	0.905852	0.385982	0.903981
	H76	H	0.096842	0.904515	0.617390
	H77	H	0.089119	0.099436	0.379307
	H78	H	0.906385	0.094772	0.613172
	H79	H	0.913959	0.915685	0.384866
	H80	H	0.617095	0.096887	0.901378
	H81	H	0.379252	0.097216	0.090402
	H82	H	0.614111	0.903368	0.080115
	H83	H	0.379386	0.901354	0.903672
	H84	H	0.612207	0.913375	0.086322
	H85	H	0.382053	0.093016	0.085828
	H86	H	0.613032	0.092873	0.908131
	H87	H	0.383158	0.910136	0.910278
	H88	H	0.901708	0.098224	0.615461
	H89	H	0.095183	0.089830	0.380093
	H90	H	0.089863	0.912937	0.612442
	H91	H	0.912282	0.898913	0.379074
	H92	H	0.091999	0.614600	0.918739
	H93	H	0.099046	0.384260	0.086445
	H94	H	0.908522	0.617406	0.098342
	H95	H	0.906327	0.386542	0.904725
	H96	H	0.405476	0.116583	0.592409
	H97	H	0.596495	0.882618	0.588468
	H98	H	0.589605	0.115470	0.408362
	H99	H	0.410483	0.888602	0.408999
	H100	H	0.582490	0.403009	0.113362
	H101	H	0.587402	0.596818	0.879106
	H102	H	0.406591	0.607310	0.115732
	H103	H	0.405068	0.410012	0.880059
	H104	H	0.116945	0.600145	0.402016
	H105	H	0.879464	0.596333	0.592659
	H106	H	0.109611	0.411309	0.579681
	H107	H	0.880558	0.413017	0.404218
	H108	H	0.901292	0.615516	0.084232
	H109	H	0.088043	0.384044	0.098180
	H110	H	0.103229	0.624198	0.895288
	H111	H	0.904863	0.385862	0.904555
	H112	H	0.085000	0.902333	0.614560
	H113	H	0.084145	0.090091	0.383028
	H114	H	0.900903	0.093251	0.613684
	H115	H	0.898938	0.909442	0.377421
	H116	H	0.614800	0.088459	0.899811
	H117	H	0.380070	0.091794	0.092041
	H118	H	0.617895	0.903128	0.091869
	H119	H	0.380460	0.912664	0.898810
	C120	C	0.375592	0.009387	0.618879
	C121	C	0.619166	0.992998	0.617072
	C122	C	0.620980	0.010528	0.372516
	C123	C	0.376649	0.993151	0.374809
	C124	C	0.619519	0.378358	0.005914
	C125	C	0.617809	0.621610	0.988712
	C126	C	0.374861	0.623824	0.005046
	C127	C	0.376482	0.380175	0.988799
	C128	C	0.005935	0.622292	0.375873
	C129	C	0.988872	0.623426	0.619180
	C130	C	0.005011	0.380282	0.618558
	C131	C	0.988666	0.379386	0.375456
	C132	C	0.873270	0.509727	0.121144
	C133	C	0.118013	0.493522	0.118374
	C134	C	0.119901	0.510445	0.874433
	C135	C	0.876027	0.493833	0.876416
	C136	C	0.120502	0.878242	0.506045
	C137	C	0.117868	0.121901	0.489170
	C138	C	0.875464	0.123826	0.505348
	C139	C	0.877438	0.880134	0.488589
	C140	C	0.506156	0.122110	0.874870
	C141	C	0.489092	0.122294	0.117589
	C142	C	0.506263	0.879012	0.116910
	C143	C	0.489333	0.878379	0.874110
	C144	C	0.378430	0.886782	0.673829
	C145	C	0.615822	0.115573	0.672589
	C146	C	0.619401	0.887732	0.317172
	C147	C	0.377431	0.115672	0.319444
	C148	C	0.675885	0.381745	0.882290
	C149	C	0.670394	0.619271	0.112948
	C150	C	0.321461	0.619976	0.881039
	C151	C	0.320144	0.383671	0.112585
	C152	C	0.882939	0.679222	0.378527
	C153	C	0.112892	0.676892	0.616216
	C154	C	0.881376	0.325527	0.618082
	C155	C	0.112331	0.323218	0.376477
	C156	C	0.881569	0.383852	0.675040
	C157	C	0.112920	0.619096	0.672621
	C158	C	0.881417	0.619234	0.323723
	C159	C	0.112555	0.381654	0.319565
	C160	C	0.377080	0.678494	0.881487
	C161	C	0.614817	0.678244	0.111622
	C162	C	0.619214	0.323156	0.882178
	C163	C	0.376928	0.324611	0.112014
	C164	C	0.677014	0.888016	0.374659
	C165	C	0.672613	0.116391	0.613763
	C166	C	0.321191	0.886644	0.616242
	C167	C	0.319492	0.115271	0.377565
	C168	C	0.876774	0.386997	0.175638
	C169	C	0.114466	0.616177	0.174296
	C170	C	0.117910	0.387696	0.818680
	C171	C	0.877673	0.616642	0.822028
	C172	C	0.176576	0.881199	0.382292
	C173	C	0.172310	0.119591	0.612865
	C174	C	0.822597	0.120428	0.381154
	C175	C	0.820622	0.884118	0.611940
	C176	C	0.383016	0.179110	0.877065
	C177	C	0.612382	0.177898	0.115747
	C178	C	0.382356	0.825093	0.116192
	C179	C	0.612442	0.821339	0.874161
	C180	C	0.382968	0.882548	0.173783
	C181	C	0.613477	0.118861	0.170999
	C182	C	0.382133	0.120075	0.821264
	C183	C	0.613444	0.880687	0.818505
	C184	C	0.878015	0.179150	0.382141
	C185	C	0.116149	0.178541	0.612161
	C186	C	0.120246	0.822618	0.382668
	C187	C	0.878020	0.825904	0.612570
	C188	C	0.176090	0.387598	0.876284
	C189	C	0.172059	0.616616	0.116169
	C190	C	0.819381	0.386787	0.118048
	C191	C	0.819935	0.616387	0.880174
	C192	C	0.397305	0.094824	0.596810
	C193	C	0.597729	0.907220	0.594854
	C194	C	0.598057	0.096068	0.394561
	C195	C	0.400344	0.908033	0.397208
	C196	C	0.595561	0.400223	0.091795
	C197	C	0.596043	0.598465	0.902708
	C198	C	0.396516	0.602336	0.091393
	C199	C	0.400325	0.402268	0.903061
	C200	C	0.092448	0.599592	0.397027
	C201	C	0.902082	0.602778	0.597892
	C202	C	0.091357	0.401257	0.594962
	C203	C	0.902385	0.401695	0.398854
	C204	C	0.894559	0.595672	0.099594
	C205	C	0.096634	0.408009	0.095912
	C206	C	0.097308	0.596101	0.896957
	C207	C	0.898957	0.408347	0.898003
	C208	C	0.097361	0.900150	0.592422
	C209	C	0.095932	0.099649	0.403230
	C210	C	0.896700	0.102016	0.591818
	C211	C	0.901463	0.901584	0.402601
	C212	C	0.592664	0.099436	0.896646
	C213	C	0.402813	0.100531	0.095858
	C214	C	0.592468	0.900459	0.093047
	C215	C	0.403182	0.901334	0.897244
	Zn216	Zn	0.497504	0.000804	0.746862
	Zn217	Zn	0.498673	0.001457	0.244833
	Zn218	Zn	0.746606	0.501186	-0.001574
	Zn219	Zn	0.247903	0.502520	-0.003215
	Zn220	Zn	-0.001370	0.750773	0.497652
	Zn221	Zn	-0.003513	0.251459	0.497316
	Zn222	Zn	-0.002796	0.502470	0.746575
	Zn223	Zn	-0.003342	0.500869	0.247506
	Zn224	Zn	0.496998	0.750495	-0.004349
	Zn225	Zn	0.497741	0.250566	-0.003338
	Zn226	Zn	0.748551	0.002293	0.495236
	Zn227	Zn	0.247117	0.000781	0.497383
	N228	N	0.411572	0.964147	0.675554
	N229	N	0.583459	0.037956	0.674847
	N230	N	0.585445	0.964951	0.315628
	N231	N	0.412343	0.038777	0.317620
	N232	N	0.676125	0.415426	0.960062
	N233	N	0.672258	0.584711	0.035583
	N234	N	0.319702	0.586966	0.958984
	N235	N	0.319793	0.417297	0.034934
	N236	N	0.961488	0.681266	0.410531
	N237	N	0.034651	0.679890	0.583762
	N238	N	0.959429	0.322897	0.583872
	N239	N	0.034285	0.321690	0.410504
	N240	N	0.959392	0.416983	0.675426
	N241	N	0.034728	0.586627	0.674369
	N242	N	0.959035	0.584683	0.322033
	N243	N	0.034648	0.415633	0.318734
	N244	N	0.409757	0.680931	0.959571
	N245	N	0.582598	0.679624	0.033270
	N246	N	0.585132	0.320513	0.960181
	N247	N	0.411279	0.322224	0.034171
	N248	N	0.678289	0.965336	0.408189
	N249	N	0.674967	0.038971	0.580060
	N250	N	0.319144	0.963821	0.582871
	N251	N	0.318830	0.038058	0.411240
	N252	N	0.909733	0.464345	0.177602
	N253	N	0.081579	0.538622	0.175604
	N254	N	0.083858	0.464991	0.817350
	N255	N	0.912030	0.539489	0.819829
	N256	N	0.176910	0.914904	0.459965
	N257	N	0.173470	0.084958	0.535380
	N258	N	0.820902	0.086795	0.458822
	N259	N	0.820259	0.917125	0.534030
	N260	N	0.461235	0.180561	0.909701
	N261	N	0.534093	0.180122	0.083100
	N262	N	0.460144	0.822724	0.081551
	N263	N	0.534325	0.819626	0.907861
	N264	N	0.460905	0.915416	0.174257
	N265	N	0.535808	0.085182	0.172234
	N266	N	0.459747	0.085414	0.819897
	N267	N	0.535827	0.915702	0.818519
	N268	N	0.910087	0.181533	0.460533
	N269	N	0.083159	0.180309	0.534247
	N270	N	0.086144	0.820534	0.460696
	N271	N	0.912724	0.823336	0.534791
	N272	N	0.177580	0.464891	0.910156
	N273	N	0.174602	0.539458	0.082277
	N274	N	0.817356	0.464182	0.084836
	N275	N	0.818791	0.539007	0.913211
	O276	O	0.007519	-0.102088	0.030255
	H277	H	0.005531	-0.099175	0.031736
	H278	H	0.017922	-0.105481	0.035305
	O279	O	0.575910	0.533367	0.547338
	H280	H	0.583329	0.538876	0.561117
	H281	H	0.575452	0.528733	0.557770
	O282	O	0.464947	0.591338	0.413927
	H283	H	0.472058	0.586498	0.406090
	H284	H	0.463826	0.595192	0.400666
	O285	O	-0.080375	1.099839	0.934297
	H286	H	-0.093836	1.093361	0.937328
	H287	H	-0.079863	1.099196	0.927939
	O288	O	0.465772	0.516194	0.449712
	H289	H	0.466890	0.510819	0.449827
	H290	H	0.471176	0.505950	0.452698
	O291	O	0.909035	1.101150	0.984256
	H292	H	0.908396	1.102140	0.983487
	H293	H	0.913927	1.090569	0.985657
	O294	O	0.999849	1.027355	1.067003
	H295	H	0.991418	1.035989	1.061685
	H296	H	1.001016	1.028805	1.069370
	O297	O	1.071315	0.082094	0.994972
	H298	H	1.067720	0.090565	0.995619
	H299	H	1.056672	0.086682	0.997052
	O300	O	0.457441	0.496051	0.453680
	H301	H	0.466085	0.500750	0.452820
	H302	H	0.458279	0.502314	0.451126
	O303	O	1.068109	0.032479	-0.065919
	H304	H	1.073355	0.030650	-0.072271
	H305	H	1.076843	0.027602	-0.063674
	O306	O	-0.105679	1.043357	1.034682
	H307	H	-0.105576	1.042428	1.030252
	H308	H	-0.114153	1.039157	1.035799
	O309	O	0.476195	0.487583	0.578263
	H310	H	0.478640	0.493145	0.567350
	H311	H	0.473922	0.484243	0.578646
	O312	O	1.096452	0.063725	1.124044
	H313	H	1.098422	0.074736	1.119694
	H314	H	1.091155	0.064560	1.129647
	O315	O	0.399119	0.577086	0.509644
	H316	H	0.397229	0.586313	0.516100
	H317	H	0.388084	0.590851	0.496574
	O318	O	0.507788	0.500970	0.497090
	H319	H	0.504535	0.499477	0.500180
	H320	H	0.517237	0.509817	0.503901
	O321	O	1.105211	0.990643	1.063551
	H322	H	1.105591	1.008251	1.065141
	H323	H	1.117535	0.999769	1.070394
	O324	O	0.453693	0.484143	0.471536
	H325	H	0.456287	0.485899	0.470531
	H326	H	0.453162	0.478212	0.470593
	O327	O	0.473384	0.459567	0.523155
	H328	H	0.472010	0.459547	0.524154
	H329	H	0.465534	0.458428	0.535087
	O330	O	1.027286	-0.055743	0.992149
	H331	H	1.024404	-0.050475	0.998097
	H332	H	1.025419	-0.058498	0.990633
	O333	O	1.022047	0.855633	-0.052483
	H334	H	1.027858	0.860247	-0.050330
	H335	H	1.037266	0.857676	-0.053606
	O336	O	0.509422	0.471081	0.577726
	H337	H	0.508974	0.464518	0.571126
	H338	H	0.507265	0.473657	0.570003
	O339	O	0.469049	0.492468	0.497107
	H340	H	0.472152	0.502915	0.487975
	H341	H	0.470636	0.495162	0.493715
	O342	O	-0.000884	0.992395	0.004295
	H343	H	-0.005200	0.989538	0.004289
	H344	H	-0.002386	0.990424	0.002491
	O345	O	-0.037130	-0.009350	-0.020581
	H346	H	-0.038769	-0.005859	-0.016833
	H347	H	-0.038951	-0.022000	-0.014810
	O348	O	0.522060	0.534210	0.538115
	H349	H	0.524333	0.536779	0.543560
	H350	H	0.521407	0.518637	0.539919
	O351	O	0.497655	0.503024	0.542655
	H352	H	0.491279	0.488379	0.540724
	H353	H	0.487026	0.512914	0.542867
	O354	O	0.525113	0.478641	0.453805
	H355	H	0.503663	0.478066	0.449211
	H356	H	0.531535	0.472103	0.443229
	O357	O	-0.000411	0.007421	0.952939
	H358	H	0.004068	0.004353	0.961904
	H359	H	-0.003000	0.004931	0.944199
	O360	O	-0.063170	-0.044473	0.041053
	H361	H	-0.052702	-0.042337	0.032982
	H362	H	-0.055572	-0.048936	0.026341
	O363	O	0.550493	0.434660	0.446362
	H364	H	0.543046	0.428918	0.451813
	H365	H	0.566637	0.427825	0.442333
	O366	O	0.008304	-0.008691	0.896559
	H367	H	0.004788	-0.014036	0.890731
	H368	H	0.007549	-0.010035	0.904280
	O369	O	0.982625	1.006522	-0.123697
	H370	H	0.982920	1.009053	-0.119272
	H371	H	0.972496	1.000924	-0.129087
