data_Molecule from HDF5

_cell_length_a		16.392593
_cell_length_b		16.196616
_cell_length_c		16.304953
_cell_angle_alpha	89.997622
_cell_angle_beta	90.080277
_cell_angle_gamma	90.007504
_symmetry_space_group_name_H-M	'P 1'
_symmetry_Int_Tables_number		1

loop_
	_symmetry_equiv_pos_as_xyz
	x,y,z

loop_
	_atom_site_label
	_atom_site_type_symbol
	_atom_site_fract_x
	_atom_site_fract_y
	_atom_site_fract_z
	H0	H	0.406803	0.838854	0.712346
	H1	H	0.602529	0.167431	0.714145
	H2	H	0.601179	0.838371	0.287041
	H3	H	0.406414	0.167694	0.286300
	H4	H	0.717458	0.402245	0.837735
	H5	H	0.716600	0.603085	0.163612
	H6	H	0.285512	0.603938	0.837812
	H7	H	0.286417	0.401684	0.163658
	H8	H	0.839573	0.719524	0.401700
	H9	H	0.165585	0.717930	0.598077
	H10	H	0.839673	0.288210	0.597628
	H11	H	0.166462	0.289738	0.403525
	H12	H	0.839262	0.403905	0.715306
	H13	H	0.164593	0.604664	0.717673
	H14	H	0.839871	0.603094	0.284018
	H15	H	0.164540	0.403935	0.283432
	H16	H	0.404319	0.716298	0.835765
	H17	H	0.599260	0.717856	0.163490
	H18	H	0.598374	0.290738	0.835789
	H19	H	0.405694	0.287973	0.163731
	H20	H	0.718319	0.839805	0.399836
	H21	H	0.717955	0.167585	0.599270
	H22	H	0.289178	0.839199	0.598271
	H23	H	0.288629	0.166826	0.399742
	H24	H	0.904254	0.338383	0.213748
	H25	H	0.099581	0.668263	0.214691
	H26	H	0.099956	0.339977	0.786278
	H27	H	0.903347	0.668619	0.787107
	H28	H	0.218239	0.903184	0.337226
	H29	H	0.219071	0.102215	0.663179
	H30	H	0.787048	0.104101	0.337293
	H31	H	0.786440	0.902739	0.662050
	H32	H	0.339673	0.218023	0.899775
	H33	H	0.666139	0.217200	0.096720
	H34	H	0.338740	0.790740	0.094365
	H35	H	0.665782	0.787784	0.902155
	H36	H	0.340773	0.901821	0.216520
	H37	H	0.666116	0.101896	0.214906
	H38	H	0.340570	0.101799	0.782800
	H39	H	0.666134	0.904337	0.784664
	H40	H	0.907329	0.216742	0.336218
	H41	H	0.100022	0.215165	0.664686
	H42	H	0.099350	0.790388	0.336260
	H43	H	0.906135	0.790853	0.664288
	H44	H	0.217555	0.340693	0.899831
	H45	H	0.218817	0.667310	0.102466
	H46	H	0.786675	0.339202	0.100059
	H47	H	0.785990	0.667309	0.901256
	H48	H	0.415689	0.122227	0.601142
	H49	H	0.604824	0.886577	0.583855
	H50	H	0.600561	0.121696	0.407322
	H51	H	0.418412	0.885084	0.395345
	H52	H	0.591690	0.415702	0.114114
	H53	H	0.585351	0.598247	0.885764
	H54	H	0.409518	0.585989	0.113237
	H55	H	0.402042	0.414558	0.883457
	H56	H	0.113043	0.590212	0.416484
	H57	H	0.887240	0.598620	0.592452
	H58	H	0.119663	0.401805	0.592835
	H59	H	0.884545	0.410721	0.396824
	H60	H	0.114135	0.416508	0.587329
	H61	H	0.887382	0.594126	0.593744
	H62	H	0.118335	0.590716	0.397843
	H63	H	0.886536	0.401878	0.412088
	H64	H	0.417080	0.601851	0.115485
	H65	H	0.602033	0.600904	0.880226
	H66	H	0.591655	0.405372	0.116658
	H67	H	0.413717	0.413864	0.887027
	H68	H	0.593680	0.120677	0.403707
	H69	H	0.598418	0.882738	0.601338
	H70	H	0.417450	0.115694	0.582452
	H71	H	0.415986	0.891631	0.419524
	H72	H	0.898709	0.620491	0.083461
	H73	H	0.094318	0.385921	0.097295
	H74	H	0.089980	0.618941	0.911651
	H75	H	0.909162	0.387153	0.909715
	H76	H	0.097134	0.907003	0.617611
	H77	H	0.095955	0.095532	0.384125
	H78	H	0.918394	0.086290	0.611023
	H79	H	0.917600	0.916181	0.387941
	H80	H	0.620853	0.102650	0.902443
	H81	H	0.385978	0.098226	0.097097
	H82	H	0.618902	0.909616	0.096262
	H83	H	0.388082	0.910578	0.909522
	H84	H	0.618070	0.907939	0.091421
	H85	H	0.388662	0.096433	0.088901
	H86	H	0.616271	0.096656	0.913886
	H87	H	0.388862	0.914357	0.901487
	H88	H	0.912944	0.108689	0.619326
	H89	H	0.096702	0.097310	0.383532
	H90	H	0.100879	0.913315	0.616684
	H91	H	0.910525	0.902818	0.381232
	H92	H	0.097955	0.621689	0.911450
	H93	H	0.089163	0.389889	0.089201
	H94	H	0.905216	0.625164	0.104840
	H95	H	0.904955	0.385659	0.907806
	H96	H	0.399822	0.122863	0.589104
	H97	H	0.585958	0.890356	0.588816
	H98	H	0.594932	0.119416	0.410815
	H99	H	0.396292	0.881446	0.407388
	H100	H	0.600293	0.411057	0.117882
	H101	H	0.597356	0.585065	0.886632
	H102	H	0.400134	0.599930	0.120229
	H103	H	0.407894	0.404231	0.881989
	H104	H	0.120252	0.606699	0.408189
	H105	H	0.886065	0.597235	0.596000
	H106	H	0.118984	0.414575	0.603560
	H107	H	0.890965	0.418350	0.411038
	H108	H	0.920240	0.615583	0.090339
	H109	H	0.098528	0.386847	0.087403
	H110	H	0.093167	0.621890	0.904847
	H111	H	0.908772	0.385824	0.904412
	H112	H	0.094495	0.913012	0.615520
	H113	H	0.098373	0.095716	0.384248
	H114	H	0.896105	0.091168	0.618978
	H115	H	0.901474	0.916733	0.383526
	H116	H	0.616668	0.088863	0.901920
	H117	H	0.389034	0.090103	0.095138
	H118	H	0.616975	0.912891	0.092436
	H119	H	0.385752	0.905896	0.902535
	C120	C	0.382704	0.011919	0.619882
	C121	C	0.624746	0.995031	0.620499
	C122	C	0.624837	0.011822	0.378586
	C123	C	0.381735	0.994377	0.378010
	C124	C	0.622966	0.381802	0.008281
	C125	C	0.623299	0.624149	0.991794
	C126	C	0.380352	0.624793	0.008381
	C127	C	0.379415	0.381170	0.991867
	C128	C	0.010220	0.625221	0.378759
	C129	C	0.994359	0.625692	0.622855
	C130	C	0.010089	0.381897	0.622563
	C131	C	0.994495	0.381145	0.378236
	C132	C	0.879898	0.511648	0.121487
	C133	C	0.123316	0.495699	0.121404
	C134	C	0.122158	0.512394	0.880249
	C135	C	0.879477	0.495197	0.878786
	C136	C	0.125124	0.882035	0.508479
	C137	C	0.125338	0.124849	0.491915
	C138	C	0.881291	0.124682	0.508650
	C139	C	0.881375	0.882671	0.491935
	C140	C	0.510660	0.124736	0.877453
	C141	C	0.495424	0.124078	0.121532
	C142	C	0.510524	0.881317	0.121293
	C143	C	0.494792	0.880662	0.876234
	C144	C	0.385992	0.887900	0.674636
	C145	C	0.622639	0.118522	0.676237
	C146	C	0.622036	0.887848	0.324057
	C147	C	0.385578	0.118394	0.323595
	C148	C	0.678880	0.382888	0.886130
	C149	C	0.678457	0.622881	0.114757
	C150	C	0.324266	0.623450	0.885937
	C151	C	0.324842	0.382599	0.114867
	C152	C	0.888082	0.681189	0.381005
	C153	C	0.116755	0.680677	0.619503
	C154	C	0.888236	0.325982	0.619035
	C155	C	0.117365	0.326830	0.381843
	C156	C	0.888066	0.383647	0.677421
	C157	C	0.116123	0.624050	0.678870
	C158	C	0.888298	0.623716	0.322350
	C159	C	0.116618	0.383558	0.322387
	C160	C	0.383181	0.679339	0.885046
	C161	C	0.620078	0.679781	0.114814
	C162	C	0.619545	0.327431	0.885063
	C163	C	0.383687	0.325706	0.114835
	C164	C	0.679907	0.888490	0.380394
	C165	C	0.680082	0.118660	0.619209
	C166	C	0.327365	0.888193	0.618269
	C167	C	0.327017	0.118129	0.379991
	C168	C	0.883586	0.387582	0.176079
	C169	C	0.120760	0.619276	0.177160
	C170	C	0.119743	0.388689	0.824694
	C171	C	0.882593	0.619241	0.824432
	C172	C	0.180229	0.883431	0.385795
	C173	C	0.181023	0.122762	0.614526
	C174	C	0.825686	0.123731	0.385851
	C175	C	0.825169	0.883260	0.613828
	C176	C	0.388323	0.179891	0.879717
	C177	C	0.617540	0.179420	0.117871
	C178	C	0.387761	0.827282	0.117029
	C179	C	0.617253	0.825499	0.880642
	C180	C	0.388895	0.882710	0.177447
	C181	C	0.617582	0.122253	0.176740
	C182	C	0.388846	0.122437	0.821192
	C183	C	0.617494	0.883207	0.822047
	C184	C	0.885276	0.179699	0.385353
	C185	C	0.122034	0.178808	0.615329
	C186	C	0.121368	0.826982	0.385532
	C187	C	0.884527	0.827848	0.615004
	C188	C	0.178513	0.389176	0.880703
	C189	C	0.180000	0.618684	0.121508
	C190	C	0.825128	0.387902	0.119654
	C191	C	0.824249	0.618621	0.881296
	C192	C	0.404506	0.097947	0.597461
	C193	C	0.602631	0.908875	0.598064
	C194	C	0.602826	0.098267	0.400736
	C195	C	0.403622	0.908251	0.400714
	C196	C	0.600876	0.404070	0.094149
	C197	C	0.601368	0.601372	0.906277
	C198	C	0.402412	0.602503	0.094149
	C199	C	0.401351	0.404212	0.906258
	C200	C	0.095212	0.602440	0.401044
	C201	C	0.908766	0.603297	0.600592
	C202	C	0.095606	0.404261	0.600748
	C203	C	0.909393	0.403674	0.400073
	C204	C	0.901655	0.598096	0.099398
	C205	C	0.100629	0.410011	0.098199
	C206	C	0.100139	0.598437	0.902703
	C207	C	0.901175	0.408575	0.900835
	C208	C	0.103765	0.904505	0.594463
	C209	C	0.103398	0.102780	0.406181
	C210	C	0.902683	0.102032	0.594286
	C211	C	0.903516	0.905141	0.406340
	C212	C	0.596011	0.102581	0.899695
	C213	C	0.410055	0.101468	0.100063
	C214	C	0.596139	0.903639	0.099708
	C215	C	0.409438	0.903504	0.898079
	Zn216	Zn	0.503670	0.003319	0.747731
	Zn217	Zn	0.503797	0.002159	0.251109
	Zn218	Zn	0.751601	0.502495	0.000523
	Zn219	Zn	0.251247	0.504084	0.000602
	Zn220	Zn	0.002617	0.754339	0.500661
	Zn221	Zn	0.003357	0.252759	0.500852
	Zn222	Zn	0.001694	0.504082	0.751788
	Zn223	Zn	0.002106	0.503580	0.248945
	Zn224	Zn	0.501984	0.752431	-0.000684
	Zn225	Zn	0.502267	0.253352	-0.000370
	Zn226	Zn	0.752522	0.003410	0.499795
	Zn227	Zn	0.253692	0.003312	0.499708
	N228	N	0.419697	0.965575	0.675522
	N229	N	0.588869	0.040760	0.677088
	N230	N	0.588617	0.965627	0.322702
	N231	N	0.418816	0.040453	0.322392
	N232	N	0.680821	0.416182	0.963725
	N233	N	0.680669	0.589065	0.037282
	N234	N	0.322422	0.590137	0.963608
	N235	N	0.321844	0.416260	0.037214
	N236	N	0.964910	0.682424	0.415250
	N237	N	0.039980	0.681557	0.585100
	N238	N	0.965248	0.324970	0.585617
	N239	N	0.040563	0.325272	0.415685
	N240	N	0.965015	0.417869	0.679594
	N241	N	0.038960	0.590583	0.680802
	N242	N	0.965087	0.589400	0.321002
	N243	N	0.039207	0.416587	0.319816
	N244	N	0.417531	0.680122	0.962117
	N245	N	0.586411	0.680564	0.037585
	N246	N	0.585466	0.326705	0.962047
	N247	N	0.416673	0.324751	0.037360
	N248	N	0.681681	0.966601	0.413727
	N249	N	0.681357	0.040974	0.585228
	N250	N	0.325227	0.966178	0.584845
	N251	N	0.324523	0.040082	0.413258
	N252	N	0.916946	0.465570	0.177443
	N253	N	0.086362	0.541869	0.177315
	N254	N	0.085503	0.466223	0.824365
	N255	N	0.916077	0.541358	0.822856
	N256	N	0.182869	0.916614	0.463419
	N257	N	0.183187	0.089869	0.536725
	N258	N	0.823061	0.090198	0.463491
	N259	N	0.823211	0.916777	0.536421
	N260	N	0.464999	0.181191	0.914011
	N261	N	0.540449	0.180781	0.084412
	N262	N	0.464329	0.826543	0.082821
	N263	N	0.539987	0.823861	0.913609
	N264	N	0.466539	0.915432	0.180224
	N265	N	0.540659	0.088290	0.179012
	N266	N	0.465925	0.088746	0.819779
	N267	N	0.540414	0.916647	0.819287
	N268	N	0.919299	0.180068	0.462389
	N269	N	0.088243	0.180158	0.538115
	N270	N	0.087657	0.826222	0.462829
	N271	N	0.919022	0.827490	0.538176
	N272	N	0.180159	0.466917	0.914678
	N273	N	0.181689	0.540846	0.087639
	N274	N	0.823067	0.465893	0.086220
	N275	N	0.822358	0.540455	0.914483
	O276	O	0.505183	0.492605	0.502062
	H277	H	0.505962	0.488553	0.500289
	H278	H	0.507063	0.494113	0.505824
	O279	O	0.069514	0.067408	0.150608
	H280	H	0.066135	0.068552	0.148411
	H281	H	0.075885	0.076776	0.156936
	O282	O	0.516438	0.538217	0.436601
	H283	H	0.515669	0.524398	0.438382
	H284	H	0.520537	0.529059	0.423867
	O285	O	0.488176	0.543425	0.501098
	H286	H	0.483673	0.547999	0.496779
	H287	H	0.489893	0.534549	0.490674
	O288	O	1.063298	0.093434	0.089216
	H289	H	1.060842	0.095318	0.081194
	H290	H	1.068795	0.090049	0.086381
	O291	O	-0.483565	0.496747	-0.496650
	H292	H	-0.488427	0.504085	-0.486699
	H293	H	-0.474521	0.500118	-0.500501
	O294	O	0.535043	0.399948	0.478138
	H295	H	0.540029	0.390104	0.485237
	H296	H	0.532626	0.408839	0.487693
	O297	O	0.081349	1.056920	0.084138
	H298	H	0.083834	1.050851	0.095855
	H299	H	0.076480	1.055287	0.083700
	O300	O	1.069006	0.063635	1.106104
	H301	H	1.064653	0.063904	1.107972
	H302	H	1.070921	0.065625	1.101555
	O303	O	0.528579	0.479184	0.501368
	H304	H	0.524512	0.480805	0.504564
	H305	H	0.527441	0.487842	0.497147
	O306	O	0.099325	1.116186	1.074762
	H307	H	0.106472	1.117785	1.083434
	H308	H	0.110322	1.128974	1.076409
	O309	O	0.503492	0.525207	0.527674
	H310	H	0.509647	0.524124	0.529304
	H311	H	0.497531	0.539456	0.526702
