data_Molecule from HDF5

_cell_length_a		16.314228
_cell_length_b		16.276166
_cell_length_c		16.209033
_cell_angle_alpha	90.155773
_cell_angle_beta	90.174349
_cell_angle_gamma	90.145435
_symmetry_space_group_name_H-M	'P 1'
_symmetry_Int_Tables_number		1

loop_
	_symmetry_equiv_pos_as_xyz
	x,y,z

loop_
	_atom_site_label
	_atom_site_type_symbol
	_atom_site_fract_x
	_atom_site_fract_y
	_atom_site_fract_z
	H0	H	0.393789	0.834352	0.714857
	H1	H	0.590074	0.161880	0.714751
	H2	H	0.588903	0.833637	0.286884
	H3	H	0.395021	0.161927	0.288355
	H4	H	0.705142	0.398782	0.836792
	H5	H	0.709729	0.598846	0.164570
	H6	H	0.277298	0.595719	0.837251
	H7	H	0.278275	0.399268	0.166284
	H8	H	0.828688	0.710884	0.402835
	H9	H	0.155136	0.713284	0.602816
	H10	H	0.829335	0.281281	0.601127
	H11	H	0.155090	0.281101	0.403562
	H12	H	0.828780	0.398233	0.716038
	H13	H	0.155775	0.596407	0.717512
	H14	H	0.829169	0.594044	0.286755
	H15	H	0.156652	0.397796	0.288240
	H16	H	0.391699	0.711191	0.837526
	H17	H	0.592668	0.713428	0.165642
	H18	H	0.589790	0.282992	0.837382
	H19	H	0.394214	0.283211	0.166259
	H20	H	0.706866	0.834285	0.400232
	H21	H	0.708977	0.160549	0.602481
	H22	H	0.275538	0.834959	0.600987
	H23	H	0.276188	0.161225	0.401877
	H24	H	0.894180	0.333145	0.215228
	H25	H	0.091467	0.660860	0.216941
	H26	H	0.089178	0.333865	0.788158
	H27	H	0.893377	0.660973	0.787133
	H28	H	0.204685	0.899355	0.337037
	H29	H	0.208709	0.097864	0.665703
	H30	H	0.777314	0.095648	0.337397
	H31	H	0.777066	0.898205	0.665513
	H32	H	0.328510	0.211236	0.903728
	H33	H	0.655070	0.214194	0.101952
	H34	H	0.328524	0.782477	0.100218
	H35	H	0.654497	0.781719	0.901992
	H36	H	0.328712	0.898769	0.215133
	H37	H	0.655161	0.097222	0.218031
	H38	H	0.328256	0.095182	0.787242
	H39	H	0.654844	0.898069	0.785714
	H40	H	0.893907	0.210410	0.337470
	H41	H	0.092508	0.212589	0.666433
	H42	H	0.089161	0.782941	0.337574
	H43	H	0.894128	0.783683	0.666116
	H44	H	0.207140	0.334301	0.901456
	H45	H	0.208548	0.660861	0.102354
	H46	H	0.776078	0.334319	0.101400
	H47	H	0.775428	0.659911	0.899872
	H48	H	0.394759	0.112456	0.581632
	H49	H	0.578495	0.885042	0.586510
	H50	H	0.578002	0.111715	0.411055
	H51	H	0.388535	0.879955	0.413072
	H52	H	0.577006	0.405757	0.115914
	H53	H	0.585333	0.592139	0.883261
	H54	H	0.400512	0.596758	0.120418
	H55	H	0.398984	0.399472	0.883545
	H56	H	0.108327	0.592023	0.413873
	H57	H	0.873583	0.594565	0.597965
	H58	H	0.108547	0.406777	0.595887
	H59	H	0.875786	0.406317	0.403603
	H60	H	0.108808	0.403135	0.597114
	H61	H	0.878928	0.591315	0.587643
	H62	H	0.107115	0.585913	0.409992
	H63	H	0.875176	0.398215	0.407916
	H64	H	0.394127	0.586251	0.119435
	H65	H	0.585318	0.587416	0.885285
	H66	H	0.589154	0.399347	0.121775
	H67	H	0.395145	0.406198	0.884714
	H68	H	0.591712	0.113973	0.415484
	H69	H	0.593189	0.879548	0.590443
	H70	H	0.391137	0.119996	0.603832
	H71	H	0.398860	0.878657	0.398664
	H72	H	0.897640	0.610892	0.082521
	H73	H	0.097692	0.375529	0.099291
	H74	H	0.098141	0.618226	0.909704
	H75	H	0.899926	0.379835	0.903448
	H76	H	0.082495	0.898520	0.620026
	H77	H	0.086413	0.088214	0.385089
	H78	H	0.897415	0.083183	0.617791
	H79	H	0.895368	0.908033	0.385408
	H80	H	0.606751	0.084782	0.908712
	H81	H	0.371871	0.095210	0.103744
	H82	H	0.607634	0.902305	0.089684
	H83	H	0.375193	0.890529	0.919941
	H84	H	0.606410	0.909949	0.093836
	H85	H	0.376315	0.096071	0.086102
	H86	H	0.611231	0.094177	0.903312
	H87	H	0.382684	0.920901	0.913635
	H88	H	0.907122	0.091838	0.617432
	H89	H	0.081889	0.087895	0.386547
	H90	H	0.092160	0.907674	0.620249
	H91	H	0.904395	0.903372	0.385674
	H92	H	0.077739	0.614958	0.899854
	H93	H	0.075315	0.381703	0.102615
	H94	H	0.892859	0.618263	0.101624
	H95	H	0.902615	0.383578	0.912604
	H96	H	0.411587	0.111884	0.596971
	H97	H	0.582118	0.879808	0.601456
	H98	H	0.587897	0.117133	0.401408
	H99	H	0.404948	0.885971	0.413896
	H100	H	0.589689	0.413371	0.117433
	H101	H	0.580982	0.590264	0.885811
	H102	H	0.406016	0.587101	0.115908
	H103	H	0.402514	0.405216	0.886317
	H104	H	0.109416	0.591769	0.406624
	H105	H	0.876460	0.583811	0.596078
	H106	H	0.108314	0.403791	0.593905
	H107	H	0.878209	0.405921	0.412509
	H108	H	0.911746	0.610662	0.097362
	H109	H	0.085025	0.384647	0.081177
	H110	H	0.080781	0.608527	0.921056
	H111	H	0.892620	0.379903	0.910809
	H112	H	0.079994	0.911618	0.615543
	H113	H	0.083293	0.091869	0.384883
	H114	H	0.895446	0.095695	0.621297
	H115	H	0.896379	0.898650	0.381478
	H116	H	0.607728	0.094638	0.915024
	H117	H	0.379218	0.081070	0.095305
	H118	H	0.609433	0.902459	0.098768
	H119	H	0.369517	0.901805	0.889899
	C120	C	0.370152	0.006539	0.622743
	C121	C	0.614059	0.989220	0.622477
	C122	C	0.613688	0.005957	0.379840
	C123	C	0.369704	0.989652	0.379821
	C124	C	0.613387	0.376802	0.010156
	C125	C	0.613951	0.619586	0.992943
	C126	C	0.370875	0.618748	0.009954
	C127	C	0.370619	0.375514	0.993273
	C128	C	0.000676	0.618624	0.380329
	C129	C	0.983879	0.619280	0.623689
	C130	C	0.000778	0.375713	0.624018
	C131	C	0.984442	0.375116	0.379953
	C132	C	0.871327	0.505421	0.122909
	C133	C	0.114949	0.488589	0.123834
	C134	C	0.113860	0.506024	0.880837
	C135	C	0.869961	0.488883	0.879592
	C136	C	0.112906	0.876604	0.509946
	C137	C	0.113707	0.119029	0.493627
	C138	C	0.870914	0.118634	0.510393
	C139	C	0.870357	0.875216	0.492884
	C140	C	0.500239	0.119261	0.880423
	C141	C	0.483543	0.120001	0.124065
	C142	C	0.500249	0.875751	0.122877
	C143	C	0.483601	0.875314	0.879107
	C144	C	0.373175	0.883112	0.677037
	C145	C	0.611511	0.112522	0.677903
	C146	C	0.610104	0.882534	0.324411
	C147	C	0.373480	0.112854	0.325382
	C148	C	0.667801	0.378483	0.886132
	C149	C	0.671049	0.618780	0.115787
	C150	C	0.315309	0.615965	0.886397
	C151	C	0.315800	0.378584	0.117047
	C152	C	0.877765	0.673345	0.382257
	C153	C	0.106581	0.674990	0.622677
	C154	C	0.878010	0.319862	0.621356
	C155	C	0.107013	0.319517	0.382886
	C156	C	0.877642	0.378063	0.678375
	C157	C	0.106697	0.616877	0.679688
	C158	C	0.878002	0.615574	0.324273
	C159	C	0.107358	0.377143	0.325249
	C160	C	0.372075	0.673615	0.886574
	C161	C	0.612387	0.675263	0.116405
	C162	C	0.610450	0.321047	0.886309
	C163	C	0.373740	0.321148	0.117259
	C164	C	0.668970	0.883111	0.380663
	C165	C	0.670079	0.112000	0.621608
	C166	C	0.314401	0.883426	0.620760
	C167	C	0.314651	0.112643	0.381955
	C168	C	0.873607	0.382291	0.177850
	C169	C	0.112335	0.611971	0.179222
	C170	C	0.110171	0.382674	0.825807
	C171	C	0.872504	0.611945	0.824371
	C172	C	0.167451	0.878722	0.386217
	C173	C	0.170212	0.117745	0.616804
	C174	C	0.815416	0.115887	0.386560
	C175	C	0.815070	0.877880	0.616409
	C176	C	0.377431	0.173847	0.882990
	C177	C	0.606426	0.175838	0.122178
	C178	C	0.377429	0.820308	0.120613
	C179	C	0.605792	0.819653	0.881514
	C180	C	0.377415	0.878420	0.177438
	C181	C	0.606672	0.117570	0.179359
	C182	C	0.377088	0.116020	0.825178
	C183	C	0.606095	0.877615	0.823724
	C184	C	0.873207	0.172959	0.386496
	C185	C	0.111846	0.174166	0.617476
	C186	C	0.110347	0.820561	0.386644
	C187	C	0.873142	0.820799	0.616819
	C188	C	0.168837	0.382954	0.882044
	C189	C	0.170585	0.611953	0.122476
	C190	C	0.814690	0.382965	0.121347
	C191	C	0.813971	0.611439	0.880702
	C192	C	0.392476	0.092587	0.600478
	C193	C	0.591406	0.903667	0.599422
	C194	C	0.592083	0.091819	0.402611
	C195	C	0.391090	0.903736	0.401976
	C196	C	0.591694	0.399429	0.096052
	C197	C	0.590689	0.596691	0.907058
	C198	C	0.393549	0.596503	0.096172
	C199	C	0.392359	0.397234	0.907003
	C200	C	0.086150	0.596489	0.403530
	C201	C	0.898514	0.596459	0.600657
	C202	C	0.086428	0.397973	0.602168
	C203	C	0.898710	0.396983	0.401739
	C204	C	0.894159	0.591262	0.100271
	C205	C	0.092703	0.402887	0.101072
	C206	C	0.092177	0.591669	0.903605
	C207	C	0.891901	0.403123	0.902357
	C208	C	0.091312	0.899331	0.596344
	C209	C	0.090642	0.096176	0.407684
	C210	C	0.893415	0.096712	0.596641
	C211	C	0.892217	0.896987	0.406571
	C212	C	0.586223	0.097708	0.902467
	C213	C	0.398097	0.097541	0.101609
	C214	C	0.585844	0.898217	0.100641
	C215	C	0.397992	0.897852	0.901464
	Zn216	Zn	0.492044	-0.002101	0.750887
	Zn217	Zn	0.491848	-0.002479	0.251536
	Zn218	Zn	0.742191	0.497502	0.001024
	Zn219	Zn	0.242666	0.497574	0.001452
	Zn220	Zn	-0.007733	0.747679	0.502233
	Zn221	Zn	-0.007634	0.246921	0.502139
	Zn222	Zn	-0.007997	0.497563	0.752503
	Zn223	Zn	-0.006623	0.496937	0.251364
	Zn224	Zn	0.491481	0.747166	0.001852
	Zn225	Zn	0.492401	0.248221	0.002044
	Zn226	Zn	0.742929	-0.002720	0.501460
	Zn227	Zn	0.241764	-0.002253	0.501525
	N228	N	0.406998	0.960556	0.678439
	N229	N	0.576920	0.035225	0.678417
	N230	N	0.576387	0.959980	0.323617
	N231	N	0.407022	0.035472	0.324160
	N232	N	0.669868	0.412331	0.963877
	N233	N	0.672145	0.584940	0.038004
	N234	N	0.314269	0.582590	0.964256
	N235	N	0.313769	0.411805	0.038972
	N236	N	0.955076	0.675438	0.416355
	N237	N	0.029221	0.676580	0.588647
	N238	N	0.955506	0.318232	0.588122
	N239	N	0.029627	0.318226	0.416229
	N240	N	0.954990	0.411940	0.680285
	N241	N	0.029355	0.582861	0.680636
	N242	N	0.955483	0.582405	0.322840
	N243	N	0.030214	0.411151	0.323368
	N244	N	0.405908	0.675482	0.964498
	N245	N	0.577548	0.675987	0.038923
	N246	N	0.577456	0.319666	0.964450
	N247	N	0.406984	0.319260	0.039480
	N248	N	0.671218	0.960567	0.414537
	N249	N	0.671916	0.034419	0.587939
	N250	N	0.312424	0.961211	0.587627
	N251	N	0.312152	0.034949	0.415085
	N252	N	0.908207	0.459536	0.178766
	N253	N	0.078598	0.534408	0.180181
	N254	N	0.076679	0.460066	0.824799
	N255	N	0.906591	0.534681	0.823672
	N256	N	0.169240	0.912756	0.463980
	N257	N	0.171297	0.083948	0.538933
	N258	N	0.814035	0.082730	0.464579
	N259	N	0.813326	0.910998	0.538408
	N260	N	0.454913	0.175679	0.916524
	N261	N	0.528942	0.177635	0.088711
	N262	N	0.454828	0.818463	0.087417
	N263	N	0.528467	0.818187	0.915098
	N264	N	0.454811	0.912221	0.179039
	N265	N	0.529516	0.083565	0.180693
	N266	N	0.454651	0.082684	0.823311
	N267	N	0.528944	0.911358	0.821917
	N268	N	0.906915	0.174802	0.464338
	N269	N	0.077278	0.175011	0.539906
	N270	N	0.077297	0.819333	0.464553
	N271	N	0.906546	0.818935	0.538934
	N272	N	0.171269	0.460709	0.915613
	N273	N	0.172379	0.534356	0.088549
	N274	N	0.813194	0.460613	0.087975
	N275	N	0.812487	0.533946	0.914419
	O276	O	0.961557	1.044373	0.058809
	H277	H	0.960173	1.051651	0.065106
	H278	H	0.950740	1.044360	0.063633
	O279	O	0.421304	0.525557	0.404826
	H280	H	0.420245	0.527844	0.401659
	H281	H	0.421780	0.528087	0.403134
	O282	O	0.012181	-0.018457	0.003590
	H283	H	0.012483	-0.020253	0.000520
	H284	H	0.012193	-0.017758	0.003739
	O285	O	0.491918	0.538127	0.547272
	H286	H	0.481283	0.541789	0.554371
	H287	H	0.488185	0.540654	0.537103
	O288	O	-0.000575	-0.085410	-0.056520
	H289	H	-0.003553	-0.084756	-0.068421
	H290	H	0.010880	-0.093586	-0.056704
	O291	O	0.494317	0.595308	-0.426535
	H292	H	0.507263	0.603036	-0.423114
	H293	H	0.499789	0.590384	-0.433706
	O294	O	-0.072839	0.962016	-0.049791
	H295	H	-0.065198	0.956663	-0.049284
	H296	H	-0.079683	0.960046	-0.043368
	O297	O	0.482422	0.494165	0.506751
	H298	H	0.476140	0.502220	0.508331
	H299	H	0.477946	0.501354	0.513734
	O300	O	0.586402	0.477540	0.482916
	H301	H	0.583755	0.488703	0.481674
	H302	H	0.593026	0.473617	0.484647
	O303	O	0.979363	0.029090	1.070076
	H304	H	0.978785	0.035100	1.076240
	H305	H	0.977220	0.028316	1.071192
	O306	O	-0.018538	0.946483	1.024083
	H307	H	-0.003297	0.946695	1.026228
	H308	H	-0.013711	0.932709	1.026796
	O309	O	-0.079313	1.014549	0.969997
	H310	H	-0.072813	1.021602	0.965528
	H311	H	-0.086306	1.018309	0.968129
	O312	O	0.446852	0.516167	0.500861
	H313	H	0.446081	0.525407	0.496712
	H314	H	0.446115	0.516580	0.495925
	O315	O	0.484844	0.528464	0.482044
	H316	H	0.493753	0.523983	0.483056
	H317	H	0.477587	0.528963	0.492739
	O318	O	-0.016154	-0.025768	0.973250
	H319	H	-0.018769	-0.029020	0.970843
	H320	H	-0.009322	-0.025309	0.968862
	O321	O	0.551015	0.429788	0.434405
	H322	H	0.552749	0.421668	0.428262
	H323	H	0.551034	0.416846	0.431560
	O324	O	1.046587	-0.007949	1.059348
	H325	H	1.050570	-0.008768	1.073346
	H326	H	1.041258	0.000092	1.056025
	O327	O	0.937742	0.981874	0.986080
	H328	H	0.926065	0.978355	0.993553
	H329	H	0.932986	0.989855	0.982884
	O330	O	0.540342	0.542482	0.495350
	H331	H	0.537876	0.548186	0.496192
	H332	H	0.556776	0.528965	0.489675
	O333	O	0.953276	-0.028249	0.956836
	H334	H	0.952942	-0.030632	0.950252
	H335	H	0.952480	-0.041901	0.955649
	O336	O	0.510002	0.463887	0.492457
	H337	H	0.508295	0.469750	0.491914
	H338	H	0.504311	0.465589	0.496243
	O339	O	0.449544	0.552544	0.459416
	H340	H	0.452799	0.557860	0.462988
	H341	H	0.450731	0.554180	0.459545
	O342	O	0.543776	0.601812	0.480684
	H343	H	0.551050	0.588170	0.483707
	H344	H	0.542911	0.592569	0.475733
	O345	O	0.504492	0.469151	0.488159
	H346	H	0.505943	0.476152	0.491128
	H347	H	0.504721	0.466488	0.484620
