data_Molecule from HDF5

_cell_length_a		16.251747
_cell_length_b		16.214774
_cell_length_c		16.343047
_cell_angle_alpha	90.142803
_cell_angle_beta	90.097360
_cell_angle_gamma	89.886402
_symmetry_space_group_name_H-M	'P 1'
_symmetry_Int_Tables_number		1

loop_
	_symmetry_equiv_pos_as_xyz
	x,y,z

loop_
	_atom_site_label
	_atom_site_type_symbol
	_atom_site_fract_x
	_atom_site_fract_y
	_atom_site_fract_z
	H0	H	0.398699	0.833864	0.710751
	H1	H	0.597623	0.160918	0.712902
	H2	H	0.596653	0.834347	0.281319
	H3	H	0.398185	0.162272	0.283134
	H4	H	0.713856	0.397995	0.832117
	H5	H	0.713977	0.596642	0.158608
	H6	H	0.282447	0.597730	0.833602
	H7	H	0.284222	0.399426	0.158893
	H8	H	0.834791	0.711819	0.398310
	H9	H	0.162811	0.711082	0.594768
	H10	H	0.833958	0.285157	0.592519
	H11	H	0.162151	0.282120	0.396934
	H12	H	0.835343	0.397956	0.710253
	H13	H	0.161446	0.597098	0.711724
	H14	H	0.835150	0.596887	0.280559
	H15	H	0.162358	0.396023	0.280107
	H16	H	0.400765	0.711205	0.832259
	H17	H	0.597791	0.712493	0.159259
	H18	H	0.597519	0.281421	0.833074
	H19	H	0.401577	0.285605	0.159347
	H20	H	0.711139	0.832891	0.397853
	H21	H	0.712562	0.161620	0.596206
	H22	H	0.285994	0.832645	0.593712
	H23	H	0.284241	0.161741	0.400209
	H24	H	0.899411	0.333678	0.209247
	H25	H	0.098666	0.661162	0.211141
	H26	H	0.099511	0.334452	0.779188
	H27	H	0.898447	0.661298	0.780810
	H28	H	0.213324	0.897845	0.333444
	H29	H	0.213613	0.096845	0.659028
	H30	H	0.782206	0.097453	0.333130
	H31	H	0.783810	0.900342	0.659006
	H32	H	0.334473	0.212558	0.898621
	H33	H	0.662946	0.211407	0.095643
	H34	H	0.333648	0.785682	0.092447
	H35	H	0.662874	0.782773	0.896779
	H36	H	0.333774	0.900421	0.209471
	H37	H	0.660820	0.098656	0.214182
	H38	H	0.334590	0.098896	0.780513
	H39	H	0.660863	0.897042	0.779683
	H40	H	0.899165	0.211776	0.332456
	H41	H	0.096416	0.211662	0.658964
	H42	H	0.096676	0.782723	0.332946
	H43	H	0.900486	0.784153	0.659497
	H44	H	0.214282	0.334055	0.896146
	H45	H	0.211725	0.662262	0.093950
	H46	H	0.786140	0.333847	0.092857
	H47	H	0.784730	0.662180	0.897038
	H48	H	0.408978	0.115896	0.595288
	H49	H	0.591727	0.880325	0.591242
	H50	H	0.589990	0.113612	0.407801
	H51	H	0.399298	0.879154	0.403584
	H52	H	0.594651	0.397287	0.113952
	H53	H	0.590530	0.594195	0.879248
	H54	H	0.408016	0.599527	0.113662
	H55	H	0.415312	0.407000	0.883686
	H56	H	0.117741	0.588166	0.395716
	H57	H	0.879349	0.594626	0.592393
	H58	H	0.115205	0.398827	0.582851
	H59	H	0.879737	0.400282	0.398105
	H60	H	0.112637	0.412971	0.585305
	H61	H	0.883093	0.592282	0.583714
	H62	H	0.116681	0.596813	0.405165
	H63	H	0.883622	0.404999	0.407849
	H64	H	0.397502	0.590384	0.113879
	H65	H	0.596392	0.590455	0.878642
	H66	H	0.600182	0.410797	0.112239
	H67	H	0.403368	0.396286	0.876341
	H68	H	0.594085	0.115820	0.403417
	H69	H	0.586917	0.882147	0.587647
	H70	H	0.409260	0.112326	0.584555
	H71	H	0.408205	0.879008	0.395229
	H72	H	0.911485	0.615816	0.095080
	H73	H	0.088729	0.378092	0.098637
	H74	H	0.092368	0.617467	0.893834
	H75	H	0.903891	0.377066	0.892505
	H76	H	0.098148	0.904495	0.614652
	H77	H	0.086810	0.085781	0.382343
	H78	H	0.906807	0.095503	0.613094
	H79	H	0.906541	0.895627	0.378017
	H80	H	0.616710	0.091411	0.898633
	H81	H	0.381530	0.095696	0.085947
	H82	H	0.615341	0.902421	0.087121
	H83	H	0.381316	0.902102	0.904919
	H84	H	0.614190	0.909141	0.089938
	H85	H	0.382945	0.086608	0.089933
	H86	H	0.613398	0.092166	0.910810
	H87	H	0.383502	0.908072	0.905622
	H88	H	0.900794	0.090056	0.611876
	H89	H	0.090064	0.096662	0.377664
	H90	H	0.090997	0.909509	0.609785
	H91	H	0.897179	0.908227	0.378459
	H92	H	0.080706	0.611229	0.905927
	H93	H	0.086248	0.384793	0.081000
	H94	H	0.909283	0.612412	0.082746
	H95	H	0.917019	0.383171	0.903016
	H96	H	0.399746	0.115814	0.588773
	H97	H	0.592982	0.881712	0.585656
	H98	H	0.587763	0.114747	0.402145
	H99	H	0.410454	0.883235	0.406400
	H100	H	0.585723	0.408397	0.108437
	H101	H	0.590547	0.587626	0.880713
	H102	H	0.409769	0.586190	0.109572
	H103	H	0.399352	0.412268	0.879657
	H104	H	0.112867	0.584365	0.406341
	H105	H	0.882117	0.585598	0.590224
	H106	H	0.117529	0.404536	0.595904
	H107	H	0.882842	0.411043	0.398529
	H108	H	0.899825	0.617095	0.090175
	H109	H	0.103478	0.377180	0.086570
	H110	H	0.097624	0.614578	0.911004
	H111	H	0.900276	0.381309	0.909816
	H112	H	0.088888	0.899942	0.613710
	H113	H	0.098168	0.088011	0.378257
	H114	H	0.908482	0.088112	0.610038
	H115	H	0.912330	0.909110	0.383256
	H116	H	0.611578	0.081124	0.904390
	H117	H	0.379470	0.093953	0.095389
	H118	H	0.616242	0.903437	0.093465
	H119	H	0.380934	0.905730	0.899700
	C120	C	0.377450	0.006077	0.617622
	C121	C	0.619404	0.989314	0.617689
	C122	C	0.619557	0.006328	0.374968
	C123	C	0.376672	0.988893	0.374344
	C124	C	0.622308	0.375524	0.003914
	C125	C	0.621232	0.619587	0.987536
	C126	C	0.376826	0.619926	0.004360
	C127	C	0.377599	0.376942	0.987684
	C128	C	0.007402	0.618954	0.373907
	C129	C	0.989685	0.619077	0.617531
	C130	C	0.007046	0.376432	0.616799
	C131	C	0.990398	0.375890	0.373268
	C132	C	0.878527	0.506406	0.116857
	C133	C	0.120798	0.488801	0.117191
	C134	C	0.119895	0.506324	0.874220
	C135	C	0.877810	0.489257	0.873950
	C136	C	0.120808	0.875487	0.504937
	C137	C	0.120268	0.119093	0.487229
	C138	C	0.876405	0.119768	0.503998
	C139	C	0.876599	0.875776	0.487612
	C140	C	0.506282	0.118510	0.875205
	C141	C	0.489768	0.120493	0.119005
	C142	C	0.506407	0.876926	0.117598
	C143	C	0.490066	0.875723	0.874514
	C144	C	0.378913	0.882583	0.672711
	C145	C	0.617678	0.112296	0.674296
	C146	C	0.617038	0.883104	0.319391
	C147	C	0.378036	0.112762	0.320188
	C148	C	0.676487	0.377618	0.881236
	C149	C	0.676257	0.617158	0.109993
	C150	C	0.321293	0.617212	0.881648
	C151	C	0.322341	0.379411	0.110248
	C152	C	0.883826	0.673822	0.377455
	C153	C	0.113395	0.673563	0.615175
	C154	C	0.883586	0.321743	0.613661
	C155	C	0.113349	0.319913	0.376311
	C156	C	0.884104	0.378050	0.672134
	C157	C	0.112868	0.617210	0.673427
	C158	C	0.884114	0.616803	0.318799
	C159	C	0.113327	0.376795	0.318262
	C160	C	0.379967	0.673975	0.881055
	C161	C	0.618369	0.674739	0.110359
	C162	C	0.619062	0.319313	0.881722
	C163	C	0.380768	0.322901	0.110700
	C164	C	0.674143	0.882488	0.377046
	C165	C	0.674637	0.112563	0.616269
	C166	C	0.322971	0.882029	0.614433
	C167	C	0.321557	0.112700	0.378496
	C168	C	0.880268	0.382585	0.171242
	C169	C	0.118568	0.612211	0.173057
	C170	C	0.118990	0.383206	0.817910
	C171	C	0.878967	0.612540	0.818811
	C172	C	0.175612	0.877513	0.382186
	C173	C	0.175919	0.117399	0.610094
	C174	C	0.820605	0.117250	0.381613
	C175	C	0.821426	0.878894	0.610257
	C176	C	0.383428	0.175035	0.877471
	C177	C	0.613490	0.174528	0.116438
	C178	C	0.382873	0.822426	0.113884
	C179	C	0.613595	0.820482	0.876679
	C180	C	0.382916	0.879958	0.171775
	C181	C	0.612445	0.118297	0.175213
	C182	C	0.383302	0.118136	0.819193
	C183	C	0.612563	0.877099	0.818252
	C184	C	0.878859	0.174267	0.381368
	C185	C	0.117826	0.174619	0.610142
	C186	C	0.117726	0.820291	0.381871
	C187	C	0.879653	0.821375	0.610630
	C188	C	0.175733	0.382830	0.876148
	C189	C	0.174826	0.612933	0.114662
	C190	C	0.823622	0.382712	0.113528
	C191	C	0.822809	0.613031	0.876817
	C192	C	0.399486	0.092389	0.595975
	C193	C	0.597114	0.903430	0.594920
	C194	C	0.597309	0.092521	0.397724
	C195	C	0.399389	0.902756	0.395515
	C196	C	0.600017	0.398546	0.089524
	C197	C	0.599064	0.597201	0.901593
	C198	C	0.398781	0.598364	0.090108
	C199	C	0.399605	0.398574	0.902102
	C200	C	0.093700	0.596586	0.395999
	C201	C	0.903800	0.597210	0.595617
	C202	C	0.092880	0.398958	0.594583
	C203	C	0.904243	0.398644	0.395156
	C204	C	0.900388	0.592729	0.095577
	C205	C	0.099204	0.402374	0.095074
	C206	C	0.096938	0.592078	0.896738
	C207	C	0.900326	0.402907	0.895374
	C208	C	0.099050	0.897980	0.590503
	C209	C	0.098122	0.096792	0.401757
	C210	C	0.898589	0.097655	0.589610
	C211	C	0.898668	0.897843	0.402180
	C212	C	0.591794	0.095001	0.897884
	C213	C	0.403539	0.098829	0.096682
	C214	C	0.593110	0.898684	0.096536
	C215	C	0.404165	0.898599	0.896915
	Zn216	Zn	0.497728	-0.002557	0.746144
	Zn217	Zn	0.498116	-0.001727	0.246394
	Zn218	Zn	0.750717	0.498179	-0.004809
	Zn219	Zn	0.248483	0.497902	-0.004288
	Zn220	Zn	-0.001148	0.747132	0.496395
	Zn221	Zn	-0.001779	0.248003	0.495373
	Zn222	Zn	-0.001603	0.497512	0.745467
	Zn223	Zn	-0.000769	0.497254	0.244883
	Zn224	Zn	0.498836	0.747868	-0.003821
	Zn225	Zn	0.498456	0.247943	-0.003427
	Zn226	Zn	0.747777	-0.001998	0.495967
	Zn227	Zn	0.249477	-0.002728	0.496581
	N228	N	0.412085	0.960564	0.674694
	N229	N	0.583943	0.034494	0.675369
	N230	N	0.583596	0.961138	0.318114
	N231	N	0.411804	0.034912	0.317788
	N232	N	0.678694	0.411670	0.958411
	N233	N	0.678021	0.583654	0.032519
	N234	N	0.319360	0.584358	0.959089
	N235	N	0.320218	0.412156	0.032714
	N236	N	0.961559	0.675320	0.411008
	N237	N	0.035996	0.674801	0.580886
	N238	N	0.961168	0.320463	0.580054
	N239	N	0.035826	0.319340	0.410033
	N240	N	0.961781	0.411444	0.674039
	N241	N	0.035086	0.583953	0.675051
	N242	N	0.962072	0.583582	0.316452
	N243	N	0.035779	0.410839	0.316326
	N244	N	0.413927	0.675629	0.958346
	N245	N	0.584917	0.676290	0.033016
	N246	N	0.585980	0.318006	0.959150
	N247	N	0.414626	0.321324	0.033615
	N248	N	0.675634	0.960040	0.411041
	N249	N	0.675832	0.035205	0.581704
	N250	N	0.321686	0.959973	0.581099
	N251	N	0.320414	0.034738	0.411234
	N252	N	0.913650	0.460562	0.173336
	N253	N	0.085791	0.534056	0.174751
	N254	N	0.084977	0.461022	0.816540
	N255	N	0.912687	0.534613	0.817119
	N256	N	0.177687	0.911134	0.459553
	N257	N	0.177382	0.083320	0.532870
	N258	N	0.818914	0.084104	0.459061
	N259	N	0.819442	0.912011	0.532925
	N260	N	0.460670	0.175182	0.912001
	N261	N	0.535928	0.176295	0.082311
	N262	N	0.460861	0.820525	0.080957
	N263	N	0.536337	0.819630	0.911022
	N264	N	0.460809	0.913032	0.174082
	N265	N	0.534564	0.085540	0.176847
	N266	N	0.460716	0.083748	0.817636
	N267	N	0.534767	0.910750	0.816722
	N268	N	0.912779	0.175868	0.458557
	N269	N	0.083880	0.175792	0.532914
	N270	N	0.084282	0.818840	0.459089
	N271	N	0.912903	0.819145	0.533288
	N272	N	0.176466	0.460299	0.910448
	N273	N	0.176409	0.535144	0.080821
	N274	N	0.822276	0.460647	0.080370
	N275	N	0.821997	0.535229	0.910393
	O276	O	1.021998	0.995138	-0.015566
	H277	H	1.018119	0.984097	-0.021681
	H278	H	1.018983	0.985453	-0.008434
	O279	O	0.488983	0.519627	0.459732
	H280	H	0.494696	0.517822	0.453763
	H281	H	0.476466	0.526325	0.460913
	O282	O	0.001957	-0.067519	0.061802
	H283	H	0.003833	-0.068815	0.077372
	H284	H	0.002491	-0.066041	0.064980
	O285	O	0.497015	0.470529	0.458766
	H286	H	0.496220	0.451926	0.447327
	H287	H	0.509216	0.477661	0.467651
	O288	O	-0.043264	0.003086	-0.065340
	H289	H	-0.046668	0.006278	-0.064599
	H290	H	-0.039831	0.001330	-0.057537
	O291	O	0.004661	0.965073	-0.018919
	H292	H	-0.004021	0.960402	-0.012801
	H293	H	0.008503	0.967228	-0.022734
	O294	O	-0.034895	0.981854	0.076959
	H295	H	-0.040916	0.971920	0.069910
	H296	H	-0.047932	0.992603	0.076137
	O297	O	0.514186	0.579757	0.492008
	H298	H	0.513456	0.584081	0.496530
	H299	H	0.511185	0.588932	0.485614
	O300	O	0.511478	0.538913	0.496951
	H301	H	0.513074	0.538041	0.506012
	H302	H	0.506123	0.537659	0.498101
	O303	O	0.985182	-0.031371	1.005026
	H304	H	0.988643	-0.032304	1.009302
	H305	H	0.984484	-0.026085	1.002197
	O306	O	-0.079118	1.041270	1.003086
	H307	H	-0.072761	1.045058	0.997450
	H308	H	-0.077117	1.044787	0.996488
	O309	O	-0.024625	0.981901	0.974075
	H310	H	-0.029308	0.979526	0.968652
	H311	H	-0.027616	0.975923	0.981978
	O312	O	-0.034844	-0.007083	1.025858
	H313	H	-0.038619	-0.007843	1.034468
	H314	H	-0.032660	-0.001705	1.026436
	O315	O	0.453540	0.526840	0.475319
	H316	H	0.443432	0.526479	0.482874
	H317	H	0.453204	0.528474	0.479414
	O318	O	-0.013236	0.039207	0.899329
	H319	H	-0.014384	0.031530	0.907707
	H320	H	-0.023152	0.047212	0.892836
	O321	O	0.551525	0.475046	0.494918
	H322	H	0.547098	0.483926	0.487485
	H323	H	0.548810	0.469008	0.501397
	O324	O	0.989898	-0.062521	0.920368
	H325	H	0.988875	-0.068573	0.919625
	H326	H	0.996655	-0.066376	0.914469
	O327	O	0.945590	0.988895	1.067702
	H328	H	0.939030	0.989985	1.073626
	H329	H	0.952948	0.999884	1.064930
	O330	O	0.540669	0.537628	0.472047
	H331	H	0.539672	0.532595	0.478561
	H332	H	0.539558	0.539050	0.476720
	O333	O	0.986336	0.033543	0.981674
	H334	H	0.969428	0.030991	0.973760
	H335	H	0.988393	0.036583	0.977255
	O336	O	0.480144	0.509124	0.449042
	H337	H	0.484457	0.514276	0.440214
	H338	H	0.478049	0.502443	0.451238
	O339	O	0.473577	0.467810	0.493216
	H340	H	0.469089	0.468010	0.491900
	H341	H	0.475202	0.451395	0.488197
	O342	O	0.471047	0.553920	0.484946
	H343	H	0.464376	0.554807	0.480682
	H344	H	0.461430	0.553021	0.478908
	O345	O	0.542832	0.466933	0.518208
	H346	H	0.551058	0.466718	0.529093
	H347	H	0.546962	0.476580	0.510976
