data_Molecule from HDF5

_cell_length_a		16.383680
_cell_length_b		16.377805
_cell_length_c		16.253120
_cell_angle_alpha	90.352313
_cell_angle_beta	89.456844
_cell_angle_gamma	90.005486
_symmetry_space_group_name_H-M	'P 1'
_symmetry_Int_Tables_number		1

loop_
	_symmetry_equiv_pos_as_xyz
	x,y,z

loop_
	_atom_site_label
	_atom_site_type_symbol
	_atom_site_fract_x
	_atom_site_fract_y
	_atom_site_fract_z
	H0	H	0.383534	0.823575	0.712403
	H1	H	0.584332	0.147903	0.716793
	H2	H	0.588668	0.825776	0.276772
	H3	H	0.385056	0.148041	0.282226
	H4	H	0.705563	0.380857	0.838961
	H5	H	0.697070	0.590451	0.161913
	H6	H	0.265519	0.587218	0.838172
	H7	H	0.263760	0.384029	0.161976
	H8	H	0.822686	0.704375	0.399571
	H9	H	0.144915	0.706083	0.600882
	H10	H	0.823211	0.268830	0.603815
	H11	H	0.145492	0.269851	0.394854
	H12	H	0.822147	0.386082	0.719129
	H13	H	0.144202	0.589866	0.717776
	H14	H	0.820769	0.586359	0.286741
	H15	H	0.144240	0.386029	0.279440
	H16	H	0.381078	0.701634	0.836273
	H17	H	0.583247	0.707751	0.159034
	H18	H	0.587813	0.266526	0.837055
	H19	H	0.377178	0.265902	0.160160
	H20	H	0.704784	0.826230	0.392800
	H21	H	0.702967	0.147342	0.601776
	H22	H	0.262054	0.826773	0.601958
	H23	H	0.266319	0.147342	0.395919
	H24	H	0.880569	0.325002	0.217413
	H25	H	0.080007	0.649019	0.214592
	H26	H	0.087213	0.326785	0.778428
	H27	H	0.879719	0.647187	0.783798
	H28	H	0.202237	0.885707	0.336158
	H29	H	0.202203	0.091449	0.660691
	H30	H	0.768709	0.088459	0.336056
	H31	H	0.761780	0.882602	0.658329
	H32	H	0.322947	0.205049	0.894992
	H33	H	0.641632	0.208684	0.103240
	H34	H	0.322643	0.768055	0.103388
	H35	H	0.642803	0.764002	0.890761
	H36	H	0.324638	0.882891	0.220519
	H37	H	0.645542	0.089361	0.214069
	H38	H	0.321761	0.085840	0.782406
	H39	H	0.643843	0.882792	0.777568
	H40	H	0.885133	0.203533	0.336365
	H41	H	0.086559	0.208178	0.660985
	H42	H	0.088647	0.767326	0.336651
	H43	H	0.879438	0.769986	0.660265
	H44	H	0.203945	0.326284	0.894145
	H45	H	0.202838	0.646042	0.106245
	H46	H	0.761114	0.326605	0.106000
	H47	H	0.763871	0.646570	0.900212
	H48	H	0.389802	0.100256	0.586642
	H49	H	0.580746	0.870235	0.586178
	H50	H	0.586853	0.103388	0.409342
	H51	H	0.396369	0.872870	0.405940
	H52	H	0.565764	0.404782	0.109608
	H53	H	0.581884	0.574304	0.881024
	H54	H	0.399041	0.579949	0.113310
	H55	H	0.391818	0.392351	0.882923
	H56	H	0.094389	0.568680	0.409612
	H57	H	0.865749	0.586904	0.595350
	H58	H	0.094789	0.401575	0.582928
	H59	H	0.866889	0.402269	0.395939
	H60	H	0.098264	0.400958	0.594265
	H61	H	0.871576	0.578676	0.582388
	H62	H	0.101312	0.579670	0.398592
	H63	H	0.864912	0.379215	0.410826
	H64	H	0.386908	0.582677	0.117584
	H65	H	0.571479	0.567704	0.886895
	H66	H	0.564818	0.389046	0.114478
	H67	H	0.391705	0.397741	0.885000
	H68	H	0.573660	0.102590	0.397041
	H69	H	0.570465	0.872326	0.590808
	H70	H	0.391177	0.101438	0.594404
	H71	H	0.394741	0.873990	0.412422
	H72	H	0.894299	0.599655	0.094891
	H73	H	0.069822	0.375125	0.083164
	H74	H	0.078221	0.601670	0.911870
	H75	H	0.892653	0.371266	0.906390
	H76	H	0.071059	0.898081	0.612691
	H77	H	0.072911	0.080158	0.383966
	H78	H	0.888927	0.073545	0.613254
	H79	H	0.890482	0.893656	0.380743
	H80	H	0.598871	0.073504	0.901806
	H81	H	0.367900	0.080833	0.088488
	H82	H	0.597130	0.897731	0.086735
	H83	H	0.365719	0.894622	0.897575
	H84	H	0.598870	0.892091	0.084760
	H85	H	0.372448	0.072389	0.084942
	H86	H	0.597985	0.082439	0.909505
	H87	H	0.367045	0.883827	0.911499
	H88	H	0.899156	0.077676	0.611697
	H89	H	0.079718	0.079614	0.382248
	H90	H	0.073572	0.896182	0.614215
	H91	H	0.896972	0.901467	0.385416
	H92	H	0.072701	0.601259	0.907647
	H93	H	0.079922	0.370021	0.087867
	H94	H	0.885901	0.600275	0.087738
	H95	H	0.898544	0.375020	0.912781
	H96	H	0.397455	0.099227	0.589439
	H97	H	0.572916	0.875463	0.580166
	H98	H	0.570672	0.096807	0.413413
	H99	H	0.390355	0.871169	0.408093
	H100	H	0.578720	0.397029	0.116426
	H101	H	0.570352	0.580563	0.883128
	H102	H	0.389237	0.571232	0.112574
	H103	H	0.396393	0.394775	0.885851
	H104	H	0.098441	0.584453	0.413886
	H105	H	0.870816	0.571476	0.597243
	H106	H	0.098696	0.391502	0.587048
	H107	H	0.874479	0.401843	0.421868
	H108	H	0.884780	0.604630	0.097635
	H109	H	0.069369	0.371651	0.094867
	H110	H	0.072348	0.598882	0.914250
	H111	H	0.889544	0.372103	0.915779
	H112	H	0.074266	0.899074	0.613169
	H113	H	0.076723	0.074634	0.385813
	H114	H	0.891409	0.084055	0.616102
	H115	H	0.900883	0.890874	0.383987
	H116	H	0.594044	0.071913	0.912708
	H117	H	0.369024	0.072851	0.094494
	H118	H	0.595532	0.896466	0.081102
	H119	H	0.372762	0.900615	0.912739
	C120	C	0.361452	-0.005467	0.620667
	C121	C	0.605646	0.978344	0.618640
	C122	C	0.608013	-0.005052	0.374738
	C123	C	0.363872	0.978559	0.377830
	C124	C	0.603390	0.364671	0.007326
	C125	C	0.603434	0.606904	0.990566
	C126	C	0.361264	0.607595	0.007549
	C127	C	0.361449	0.364465	0.991250
	C128	C	-0.008361	0.607963	0.378648
	C129	C	0.975401	0.609551	0.621661
	C130	C	-0.008273	0.366649	0.620747
	C131	C	0.975291	0.364677	0.377292
	C132	C	0.858587	0.495306	0.123892
	C133	C	0.103342	0.478183	0.120619
	C134	C	0.105439	0.495026	0.878496
	C135	C	0.862237	0.478444	0.880688
	C136	C	0.104982	0.866360	0.506641
	C137	C	0.106278	0.109262	0.490850
	C138	C	0.863857	0.108168	0.506650
	C139	C	0.863544	0.865124	0.489861
	C140	C	0.491119	0.106359	0.877235
	C141	C	0.475336	0.107598	0.119857
	C142	C	0.491704	0.864691	0.117886
	C143	C	0.474504	0.862267	0.875057
	C144	C	0.362495	0.872678	0.675819
	C145	C	0.604741	0.099471	0.677749
	C146	C	0.607934	0.874023	0.316105
	C147	C	0.364703	0.099583	0.320290
	C148	C	0.664602	0.362919	0.886558
	C149	C	0.659085	0.608747	0.112802
	C150	C	0.304200	0.606626	0.886192
	C151	C	0.302889	0.364635	0.113280
	C152	C	0.870776	0.665803	0.380076
	C153	C	0.096512	0.667251	0.620874
	C154	C	0.871217	0.308038	0.622639
	C155	C	0.096698	0.308040	0.376000
	C156	C	0.870639	0.366354	0.679919
	C157	C	0.096299	0.609360	0.678779
	C158	C	0.869669	0.606519	0.324060
	C159	C	0.096222	0.366090	0.318674
	C160	C	0.361608	0.663792	0.885443
	C161	C	0.602376	0.667272	0.111463
	C162	C	0.605777	0.306189	0.885479
	C163	C	0.359260	0.305681	0.112279
	C164	C	0.665910	0.874244	0.373608
	C165	C	0.663654	0.099407	0.620446
	C166	C	0.301979	0.874192	0.621118
	C167	C	0.305793	0.099411	0.377342
	C168	C	0.860548	0.373429	0.179554
	C169	C	0.101351	0.599974	0.177595
	C170	C	0.106324	0.374554	0.818465
	C171	C	0.861059	0.599077	0.822657
	C172	C	0.163806	0.865769	0.384759
	C173	C	0.163692	0.110630	0.612420
	C174	C	0.807591	0.107861	0.384606
	C175	C	0.802575	0.864684	0.610491
	C176	C	0.370601	0.164975	0.876773
	C177	C	0.594687	0.168086	0.121068
	C178	C	0.371035	0.806872	0.121225
	C179	C	0.594886	0.803623	0.872593
	C180	C	0.372196	0.863956	0.179828
	C181	C	0.596376	0.108828	0.176642
	C182	C	0.370034	0.105741	0.820469
	C183	C	0.595557	0.862828	0.816339
	C184	C	0.865455	0.165252	0.384740
	C185	C	0.105909	0.168404	0.612638
	C186	C	0.107049	0.807043	0.385087
	C187	C	0.860950	0.808202	0.611311
	C188	C	0.164329	0.374400	0.876237
	C189	C	0.162070	0.598765	0.123088
	C190	C	0.800545	0.374457	0.124468
	C191	C	0.803185	0.598723	0.880413
	C192	C	0.385740	0.078461	0.597110
	C193	C	0.581779	0.894494	0.593221
	C194	C	0.584122	0.079085	0.399466
	C195	C	0.387129	0.894613	0.401677
	C196	C	0.577191	0.389640	0.091541
	C197	C	0.580964	0.581628	0.905634
	C198	C	0.384966	0.584525	0.092459
	C199	C	0.386100	0.388240	0.906682
	C200	C	0.076408	0.584422	0.400914
	C201	C	0.891403	0.586059	0.598387
	C202	C	0.075466	0.391032	0.595498
	C203	C	0.890687	0.387729	0.402281
	C204	C	0.881648	0.579567	0.100447
	C205	C	0.079873	0.393975	0.095850
	C206	C	0.081401	0.578789	0.904074
	C207	C	0.886618	0.394687	0.904571
	C208	C	0.080123	0.890735	0.591424
	C209	C	0.083251	0.084961	0.406037
	C210	C	0.886378	0.084855	0.591563
	C211	C	0.888884	0.888680	0.405206
	C212	C	0.575058	0.082858	0.901041
	C213	C	0.391573	0.082612	0.096055
	C214	C	0.575398	0.888604	0.091659
	C215	C	0.390383	0.886023	0.900088
	Zn216	Zn	0.483257	-0.014448	0.748221
	Zn217	Zn	0.485243	-0.013638	0.247745
	Zn218	Zn	0.731826	0.485578	0.001072
	Zn219	Zn	0.233555	0.486771	0.000512
	Zn220	Zn	-0.015611	0.737718	0.499149
	Zn221	Zn	-0.015356	0.237262	0.499534
	Zn222	Zn	-0.016617	0.487409	0.750706
	Zn223	Zn	-0.017912	0.486384	0.249473
	Zn224	Zn	0.482311	0.735092	-0.002718
	Zn225	Zn	0.482612	0.235551	-0.001649
	Zn226	Zn	0.735598	-0.012962	0.497451
	Zn227	Zn	0.233725	-0.013067	0.498887
	N228	N	0.398737	0.948402	0.675534
	N229	N	0.569616	0.023130	0.676949
	N230	N	0.572683	0.950198	0.316702
	N231	N	0.400334	0.023575	0.320647
	N232	N	0.663074	0.398663	0.963333
	N233	N	0.659839	0.571845	0.036509
	N234	N	0.303602	0.572646	0.963163
	N235	N	0.304068	0.400458	0.036945
	N236	N	0.947549	0.666524	0.413537
	N237	N	0.020330	0.667708	0.586323
	N238	N	0.947340	0.308095	0.586474
	N239	N	0.020373	0.306967	0.411706
	N240	N	0.946693	0.402010	0.678942
	N241	N	0.020122	0.574429	0.679679
	N242	N	0.945834	0.571133	0.323004
	N243	N	0.019628	0.400613	0.319459
	N244	N	0.396323	0.664467	0.962136
	N245	N	0.568698	0.666242	0.034400
	N246	N	0.568487	0.307106	0.961670
	N247	N	0.395091	0.305488	0.035472
	N248	N	0.666184	0.950449	0.409173
	N249	N	0.664374	0.023130	0.584607
	N250	N	0.301193	0.950881	0.587311
	N251	N	0.305129	0.023291	0.412588
	N252	N	0.895621	0.449641	0.179619
	N253	N	0.065306	0.524192	0.175788
	N254	N	0.070599	0.450465	0.819751
	N255	N	0.897135	0.523265	0.822799
	N256	N	0.162543	0.901924	0.461275
	N257	N	0.164080	0.074709	0.535659
	N258	N	0.806406	0.073070	0.461311
	N259	N	0.804199	0.899618	0.533706
	N260	N	0.446803	0.165518	0.911312
	N261	N	0.518292	0.167690	0.086645
	N262	N	0.446422	0.807225	0.083481
	N263	N	0.518451	0.803107	0.908304
	N264	N	0.448215	0.899391	0.177854
	N265	N	0.521125	0.071834	0.176025
	N266	N	0.446036	0.070072	0.820696
	N267	N	0.519746	0.898584	0.817727
	N268	N	0.899615	0.165564	0.461826
	N269	N	0.071076	0.167656	0.536108
	N270	N	0.071122	0.807395	0.461996
	N271	N	0.898313	0.808613	0.535390
	N272	N	0.164072	0.450487	0.912857
	N273	N	0.163920	0.521882	0.088548
	N274	N	0.799231	0.451090	0.090467
	N275	N	0.803753	0.522765	0.915888
	O276	O	0.519772	0.494762	0.556606
	H277	H	0.510402	0.493404	0.557274
	H278	H	0.515499	0.487790	0.549202
	O279	O	0.414553	0.563899	0.668810
	H280	H	0.416784	0.573069	0.670175
	H281	H	0.420482	0.569918	0.662255
	O282	O	1.127946	-0.112050	0.804012
	H283	H	1.139887	-0.098814	0.800883
	H284	H	1.122209	-0.114898	0.779696
	O285	O	0.596693	0.469806	0.388990
	H286	H	0.583497	0.478544	0.392307
	H287	H	0.591994	0.476339	0.389129
	O288	O	1.127039	0.879117	1.097104
	H289	H	1.131339	0.875262	1.072930
	H290	H	1.119876	0.884525	1.082600
	O291	O	0.095629	1.039054	0.157799
	H292	H	0.090294	1.031445	0.172628
	H293	H	0.091969	1.029927	0.154624
	O294	O	0.371566	0.592736	0.476520
	H295	H	0.345664	0.582030	0.479122
	H296	H	0.373331	0.591340	0.473910
	O297	O	0.515533	0.653097	0.601454
	H298	H	0.512234	0.651700	0.611913
	H299	H	0.525175	0.654156	0.609383
	O300	O	0.448708	0.433169	0.320802
	H301	H	0.447078	0.420191	0.315193
	H302	H	0.453015	0.441743	0.332606
	O303	O	0.468326	0.587773	0.503558
	H304	H	0.465513	0.590634	0.508628
	H305	H	0.458220	0.585213	0.505201
	O306	O	0.587184	0.294983	0.557850
	H307	H	0.598519	0.295497	0.546037
	H308	H	0.599412	0.295911	0.556808
	O309	O	1.152909	1.009746	0.116149
	H310	H	1.148337	1.003777	0.117127
	H311	H	1.149871	0.987164	0.124931
	O312	O	-0.181765	0.094233	0.097954
	H313	H	-0.189019	0.089387	0.089395
	H314	H	-0.188162	0.080640	0.084275
	O315	O	0.529847	0.552161	0.527065
	H316	H	0.546600	0.551599	0.540892
	H317	H	0.530192	0.546554	0.526862
	O318	O	-0.224397	1.029836	0.790125
	H319	H	-0.208703	1.042453	0.785854
	H320	H	-0.242580	1.023809	0.765931
	O321	O	1.134869	-0.167013	0.020888
	H322	H	1.140054	-0.183559	0.016120
	H323	H	1.118510	-0.153517	0.027146
	O324	O	-0.044150	1.153253	-0.182626
	H325	H	-0.043394	1.156323	-0.176591
	H326	H	-0.041775	1.158960	-0.165684
	O327	O	0.638205	0.324979	0.351643
	H328	H	0.626597	0.332427	0.350908
	H329	H	0.640081	0.333752	0.341666
	O330	O	-0.884277	1.048141	1.924656
	H331	H	-0.879554	1.051237	1.931969
	H332	H	-0.870240	1.056657	1.924705
	O333	O	-0.544326	-0.638438	1.385954
	H334	H	-0.544183	-0.638890	1.381285
	H335	H	-0.543939	-0.643622	1.371444
	O336	O	0.487583	0.434686	0.440340
	H337	H	0.475469	0.438492	0.443898
	H338	H	0.496119	0.436098	0.437837
	O339	O	0.860067	-0.110383	-0.031862
	H340	H	0.853971	-0.099343	-0.023387
	H341	H	0.865982	-0.111212	-0.035283
	O342	O	-0.059217	-0.019285	0.143509
	H343	H	-0.074928	-0.024170	0.165310
	H344	H	-0.054736	-0.047739	0.138747
	O345	O	1.469740	0.455828	0.457768
	H346	H	1.457186	0.450217	0.442824
	H347	H	1.487668	0.452918	0.459169
	O348	O	1.431494	1.611191	0.455168
	H349	H	1.438514	1.622951	0.447068
	H350	H	1.419739	1.618160	0.460437
	O351	O	0.324556	0.401527	0.600991
	H352	H	0.345286	0.391189	0.600972
	H353	H	0.320717	0.411951	0.587408
	O354	O	0.931179	0.081897	1.125878
	H355	H	0.920028	0.080216	1.126010
	H356	H	0.924229	0.079469	1.122189
	O357	O	0.801557	-0.180653	0.985629
	H358	H	0.789076	-0.169871	0.970104
	H359	H	0.793082	-0.168199	0.975220
	O360	O	0.478471	0.384007	0.508011
	H361	H	0.472260	0.385461	0.515260
	H362	H	0.477875	0.389793	0.513598
	O363	O	-0.074207	0.919023	0.838213
	H364	H	-0.069958	0.907377	0.838428
	H365	H	-0.059774	0.922217	0.835626
	O366	O	0.934628	1.118270	0.111399
	H367	H	0.942756	1.118986	0.124495
	H368	H	0.934519	1.121925	0.095107
	O369	O	-0.201368	1.091197	-0.132977
	H370	H	-0.194172	1.086064	-0.131924
	H371	H	-0.187013	1.101354	-0.145581
	O372	O	0.998181	-0.156083	-0.141302
	H373	H	1.016490	-0.152945	-0.130499
	H374	H	1.006928	-0.180173	-0.156017
	O375	O	0.544245	0.362053	0.546745
	H376	H	0.549771	0.354922	0.537954
	H377	H	0.555408	0.361362	0.538094
	O378	O	1.366879	1.504163	0.642436
	H379	H	1.355031	1.508119	0.659955
	H380	H	1.370208	1.490734	0.635040
	O381	O	1.179217	0.100868	-0.024804
	H382	H	1.179589	0.105194	-0.021222
	H383	H	1.178218	0.098358	-0.020921
	O384	O	0.809086	0.817837	0.167380
	H385	H	0.807685	0.803965	0.142280
	H386	H	0.824162	0.802439	0.155799
	O387	O	-0.035169	0.170889	-0.047550
	H388	H	-0.023878	0.162849	-0.035829
	H389	H	-0.034517	0.171121	-0.035574
	O390	O	0.088153	1.053288	-0.159432
	H391	H	0.073461	1.062182	-0.151325
	H392	H	0.082430	1.062106	-0.153739
	O393	O	0.991464	0.858544	1.124586
	H394	H	0.994000	0.854416	1.115835
	H395	H	0.977069	0.861509	1.124687
	O396	O	0.297832	0.477349	0.422152
	H397	H	0.294810	0.484421	0.417959
	H398	H	0.298574	0.460127	0.422770
	O399	O	-0.139467	1.009831	1.060637
	H400	H	-0.132357	1.032696	1.059385
	H401	H	-0.137608	0.997615	1.087383
	O402	O	0.425803	0.448009	0.553747
	H403	H	0.420616	0.438498	0.567226
	H404	H	0.437038	0.437990	0.549320
	O405	O	1.028262	1.000224	0.130939
	H406	H	1.020388	1.006382	0.121069
	H407	H	1.028052	0.994959	0.134564
	O408	O	1.583515	0.595888	0.518098
	H409	H	1.589822	0.595997	0.519426
	H410	H	1.583740	0.594649	0.518919
	O411	O	1.094253	-0.131624	0.853838
	H412	H	1.094481	-0.102353	0.850478
	H413	H	1.086091	-0.133832	0.889923
	O414	O	0.651172	0.520451	0.369832
	H415	H	0.656817	0.514181	0.375739
	H416	H	0.646333	0.531045	0.361797
	O417	O	0.547677	0.475923	0.604141
	H418	H	0.551395	0.474350	0.602834
	H419	H	0.535390	0.465811	0.602337
