data_Molecule from HDF5

_cell_length_a		16.511275
_cell_length_b		16.332795
_cell_length_c		16.518827
_cell_angle_alpha	90.130117
_cell_angle_beta	89.854807
_cell_angle_gamma	89.964034
_symmetry_space_group_name_H-M	'P 1'
_symmetry_Int_Tables_number		1

loop_
	_symmetry_equiv_pos_as_xyz
	x,y,z

loop_
	_atom_site_label
	_atom_site_type_symbol
	_atom_site_fract_x
	_atom_site_fract_y
	_atom_site_fract_z
	H0	H	0.390154	0.846584	0.716364
	H1	H	0.598021	0.166011	0.716911
	H2	H	0.602922	0.847366	0.275160
	H3	H	0.392370	0.165945	0.276617
	H4	H	0.718242	0.400675	0.839007
	H5	H	0.718618	0.614678	0.154288
	H6	H	0.276020	0.611139	0.838851
	H7	H	0.273303	0.398916	0.153034
	H8	H	0.839850	0.730270	0.392448
	H9	H	0.155364	0.730696	0.603377
	H10	H	0.836885	0.290782	0.598121
	H11	H	0.156288	0.289014	0.394307
	H12	H	0.838729	0.404131	0.717143
	H13	H	0.154498	0.615296	0.721212
	H14	H	0.840245	0.615867	0.274386
	H15	H	0.154773	0.402434	0.275360
	H16	H	0.394402	0.724326	0.837381
	H17	H	0.601623	0.730045	0.153884
	H18	H	0.596864	0.289059	0.836768
	H19	H	0.393936	0.287697	0.154894
	H20	H	0.717435	0.846837	0.391890
	H21	H	0.714264	0.167494	0.600810
	H22	H	0.271512	0.849145	0.604529
	H23	H	0.278336	0.167267	0.394599
	H24	H	0.894067	0.348384	0.217564
	H25	H	0.104978	0.666837	0.219984
	H26	H	0.104511	0.348412	0.774014
	H27	H	0.889774	0.664268	0.774692
	H28	H	0.223694	0.896997	0.340728
	H29	H	0.221102	0.117131	0.652527
	H30	H	0.774943	0.113485	0.340317
	H31	H	0.773765	0.901192	0.652385
	H32	H	0.337844	0.227988	0.892366
	H33	H	0.654332	0.224102	0.097023
	H34	H	0.337321	0.783672	0.102463
	H35	H	0.652890	0.784325	0.890864
	H36	H	0.339739	0.895904	0.222507
	H37	H	0.652946	0.110728	0.216798
	H38	H	0.338842	0.114927	0.772606
	H39	H	0.650633	0.897969	0.771533
	H40	H	0.898411	0.223039	0.336643
	H41	H	0.102077	0.229623	0.654687
	H42	H	0.107624	0.781368	0.340868
	H43	H	0.892996	0.786896	0.653634
	H44	H	0.217683	0.347127	0.891210
	H45	H	0.222034	0.664926	0.104649
	H46	H	0.775842	0.348578	0.102872
	H47	H	0.773028	0.663522	0.889845
	H48	H	0.413427	0.116539	0.581472
	H49	H	0.585012	0.891254	0.588816
	H50	H	0.580118	0.120053	0.403747
	H51	H	0.409389	0.895364	0.414119
	H52	H	0.585031	0.412091	0.110036
	H53	H	0.585425	0.597100	0.884156
	H54	H	0.412002	0.593128	0.106781
	H55	H	0.410379	0.421299	0.886844
	H56	H	0.109647	0.593295	0.405591
	H57	H	0.885938	0.589232	0.594047
	H58	H	0.109944	0.421096	0.588248
	H59	H	0.881763	0.416633	0.400715
	H60	H	0.111136	0.416663	0.588395
	H61	H	0.883081	0.605315	0.587362
	H62	H	0.108986	0.597482	0.411090
	H63	H	0.883723	0.412611	0.409348
	H64	H	0.406061	0.597456	0.109908
	H65	H	0.589454	0.591028	0.884427
	H66	H	0.590891	0.416317	0.111276
	H67	H	0.407512	0.410339	0.881008
	H68	H	0.586083	0.118340	0.413158
	H69	H	0.583095	0.894508	0.582117
	H70	H	0.402759	0.120848	0.582939
	H71	H	0.406218	0.891754	0.409082
	H72	H	0.908222	0.620334	0.083347
	H73	H	0.080339	0.396013	0.086444
	H74	H	0.080184	0.619976	0.903597
	H75	H	0.904847	0.391479	0.908844
	H76	H	0.078599	0.919664	0.606420
	H77	H	0.092675	0.102318	0.381002
	H78	H	0.909071	0.097045	0.609500
	H79	H	0.907433	0.923023	0.384377
	H80	H	0.606216	0.091760	0.906673
	H81	H	0.381451	0.098994	0.087362
	H82	H	0.608939	0.912849	0.084141
	H83	H	0.383978	0.920665	0.907932
	H84	H	0.604539	0.921531	0.081224
	H85	H	0.382722	0.094325	0.085072
	H86	H	0.608920	0.093887	0.902336
	H87	H	0.380971	0.916416	0.901851
	H88	H	0.903836	0.104047	0.612272
	H89	H	0.090565	0.090754	0.385469
	H90	H	0.089075	0.920342	0.609607
	H91	H	0.911144	0.919387	0.384755
	H92	H	0.082813	0.616385	0.916396
	H93	H	0.087099	0.396204	0.081082
	H94	H	0.905377	0.622028	0.087060
	H95	H	0.910427	0.392312	0.904611
	H96	H	0.410243	0.121860	0.591522
	H97	H	0.590029	0.891866	0.583099
	H98	H	0.590978	0.122873	0.404068
	H99	H	0.412218	0.894868	0.407606
	H100	H	0.585183	0.419309	0.108285
	H101	H	0.583055	0.591751	0.887179
	H102	H	0.404906	0.589601	0.108249
	H103	H	0.399585	0.419768	0.881458
	H104	H	0.106895	0.590758	0.411163
	H105	H	0.890090	0.592810	0.577308
	H106	H	0.109229	0.418543	0.584482
	H107	H	0.885448	0.422401	0.408163
	H108	H	0.910073	0.621852	0.087841
	H109	H	0.087878	0.392680	0.089138
	H110	H	0.092457	0.622996	0.909176
	H111	H	0.910637	0.394865	0.910989
	H112	H	0.084596	0.928821	0.604683
	H113	H	0.081593	0.099005	0.385324
	H114	H	0.900590	0.095948	0.611621
	H115	H	0.906802	0.917915	0.382877
	H116	H	0.607785	0.097067	0.907205
	H117	H	0.381724	0.094293	0.090395
	H118	H	0.607696	0.920676	0.090511
	H119	H	0.381753	0.913007	0.908880
	C120	C	0.374633	0.015368	0.618242
	C121	C	0.616952	0.998091	0.617306
	C122	C	0.617895	0.014788	0.375208
	C123	C	0.376525	0.998664	0.377404
	C124	C	0.618261	0.384289	0.005129
	C125	C	0.618595	0.628144	0.988612
	C126	C	0.375474	0.626588	0.004634
	C127	C	0.374220	0.384844	0.987610
	C128	C	0.005325	0.628528	0.376129
	C129	C	0.989785	0.629385	0.619552
	C130	C	0.005265	0.386650	0.618126
	C131	C	0.988503	0.385544	0.374540
	C132	C	0.876085	0.516197	0.118466
	C133	C	0.118898	0.499303	0.118822
	C134	C	0.117615	0.515037	0.876435
	C135	C	0.876317	0.497964	0.876039
	C136	C	0.119137	0.886973	0.504239
	C137	C	0.119525	0.130059	0.488187
	C138	C	0.874838	0.129242	0.505879
	C139	C	0.876141	0.886793	0.487747
	C140	C	0.503713	0.127289	0.874201
	C141	C	0.486693	0.127238	0.117999
	C142	C	0.503570	0.884517	0.118460
	C143	C	0.486524	0.884167	0.874215
	C144	C	0.371625	0.894929	0.677394
	C145	C	0.616967	0.118262	0.676934
	C146	C	0.620667	0.895123	0.315146
	C147	C	0.374143	0.118448	0.316992
	C148	C	0.677797	0.382596	0.886225
	C149	C	0.678741	0.632199	0.106737
	C150	C	0.315426	0.629663	0.886227
	C151	C	0.313860	0.381673	0.106015
	C152	C	0.887075	0.690042	0.373761
	C153	C	0.107787	0.690629	0.621944
	C154	C	0.885226	0.328933	0.617910
	C155	C	0.108111	0.327266	0.374422
	C156	C	0.885926	0.385573	0.677076
	C157	C	0.107523	0.633307	0.680747
	C158	C	0.887334	0.633015	0.315000
	C159	C	0.107387	0.384064	0.315345
	C160	C	0.374684	0.685827	0.885454
	C161	C	0.620166	0.689596	0.106683
	C162	C	0.617465	0.327096	0.884979
	C163	C	0.373614	0.325952	0.106920
	C164	C	0.677827	0.895043	0.373363
	C165	C	0.675062	0.118911	0.619387
	C166	C	0.312550	0.896317	0.621564
	C167	C	0.317445	0.119202	0.375556
	C168	C	0.874685	0.396165	0.178136
	C169	C	0.122563	0.618964	0.179549
	C170	C	0.121287	0.395803	0.814830
	C171	C	0.872525	0.616914	0.815287
	C172	C	0.182507	0.880679	0.387531
	C173	C	0.179960	0.133790	0.606017
	C174	C	0.816048	0.130704	0.386789
	C175	C	0.814857	0.883569	0.605724
	C176	C	0.385068	0.188018	0.873115
	C177	C	0.606517	0.185376	0.117267
	C178	C	0.385220	0.823321	0.121035
	C179	C	0.605071	0.824085	0.872232
	C180	C	0.386182	0.879606	0.180607
	C181	C	0.605785	0.129160	0.176907
	C182	C	0.385586	0.131599	0.813831
	C183	C	0.604307	0.880604	0.812870
	C184	C	0.876824	0.185676	0.385239
	C185	C	0.121048	0.190391	0.606818
	C186	C	0.124448	0.822984	0.387680
	C187	C	0.874067	0.826950	0.606385
	C188	C	0.177853	0.395142	0.873407
	C189	C	0.180820	0.618050	0.122102
	C190	C	0.816301	0.396198	0.120943
	C191	C	0.814503	0.616561	0.872814
	C192	C	0.401054	0.097991	0.592690
	C193	C	0.593148	0.914336	0.592084
	C194	C	0.592811	0.098732	0.399991
	C195	C	0.401982	0.915705	0.402972
	C196	C	0.594141	0.408926	0.088162
	C197	C	0.593330	0.601091	0.906654
	C198	C	0.400605	0.600758	0.086855
	C199	C	0.398719	0.409898	0.904687
	C200	C	0.087070	0.601691	0.401819
	C201	C	0.907902	0.603290	0.593825
	C202	C	0.088412	0.411548	0.594049
	C203	C	0.905215	0.410168	0.398948
	C204	C	0.900840	0.599784	0.093334
	C205	C	0.092557	0.416558	0.093127
	C206	C	0.092243	0.598236	0.902356
	C207	C	0.901748	0.414462	0.901086
	C208	C	0.091873	0.914892	0.585845
	C209	C	0.095053	0.104549	0.405497
	C210	C	0.897919	0.105722	0.589228
	C211	C	0.901457	0.912537	0.405541
	C212	C	0.586075	0.101582	0.898494
	C213	C	0.403571	0.102778	0.094493
	C214	C	0.585556	0.910832	0.092560
	C215	C	0.403709	0.909524	0.899060
	Zn216	Zn	0.494563	0.006037	0.745808
	Zn217	Zn	0.495890	0.006130	0.247755
	Zn218	Zn	0.747286	0.506050	-0.002734
	Zn219	Zn	0.246274	0.506504	-0.003476
	Zn220	Zn	-0.002258	0.757964	0.496916
	Zn221	Zn	-0.003117	0.257664	0.497150
	Zn222	Zn	-0.002228	0.506958	0.747577
	Zn223	Zn	-0.002626	0.508365	0.246650
	Zn224	Zn	0.495277	0.756072	-0.003462
	Zn225	Zn	0.495498	0.256119	-0.004023
	Zn226	Zn	0.746235	0.007673	0.496419
	Zn227	Zn	0.247589	0.007549	0.496782
	N228	N	0.409501	0.969741	0.675486
	N229	N	0.581986	0.041808	0.676200
	N230	N	0.584174	0.970805	0.316141
	N231	N	0.409846	0.042490	0.317724
	N232	N	0.678514	0.417309	0.962141
	N233	N	0.677971	0.594610	0.032133
	N234	N	0.315770	0.593716	0.961361
	N235	N	0.314300	0.417286	0.030725
	N236	N	0.961397	0.687443	0.410971
	N237	N	0.033604	0.688274	0.584525
	N238	N	0.960489	0.329612	0.581951
	N239	N	0.032996	0.327981	0.410528
	N240	N	0.961674	0.420511	0.677331
	N241	N	0.032996	0.596128	0.679453
	N242	N	0.961959	0.595614	0.316274
	N243	N	0.031815	0.419533	0.315271
	N244	N	0.411129	0.684148	0.960135
	N245	N	0.583499	0.687114	0.032249
	N246	N	0.581088	0.327937	0.959942
	N247	N	0.410561	0.327720	0.032321
	N248	N	0.676271	0.970644	0.409941
	N249	N	0.675423	0.043061	0.583175
	N250	N	0.313952	0.972289	0.585904
	N251	N	0.318876	0.043744	0.412273
	N252	N	0.910914	0.471821	0.176772
	N253	N	0.084834	0.544015	0.177671
	N254	N	0.084569	0.471348	0.816610
	N255	N	0.910277	0.541992	0.817331
	N256	N	0.179131	0.919811	0.461248
	N257	N	0.179061	0.096897	0.531276
	N258	N	0.814470	0.096763	0.462842
	N259	N	0.816043	0.920160	0.531080
	N260	N	0.459359	0.185472	0.910109
	N261	N	0.531515	0.184514	0.081407
	N262	N	0.459273	0.826229	0.083130
	N263	N	0.530858	0.826207	0.909556
	N264	N	0.460838	0.916816	0.179373
	N265	N	0.530441	0.093711	0.177446
	N266	N	0.460251	0.094476	0.814365
	N267	N	0.529363	0.917215	0.813881
	N268	N	0.912615	0.185127	0.460205
	N269	N	0.083950	0.188142	0.532552
	N270	N	0.085834	0.826859	0.461406
	N271	N	0.911585	0.829080	0.532105
	N272	N	0.175591	0.470191	0.911186
	N273	N	0.178503	0.542793	0.084979
	N274	N	0.816836	0.471901	0.084760
	N275	N	0.816757	0.541547	0.910108
	O276	O	0.405743	0.631565	0.570824
	H277	H	0.405954	0.630729	0.571883
	H278	H	0.397037	0.644150	0.546877
	O279	O	1.203188	-0.192087	0.972998
	H280	H	1.210172	-0.180294	0.993374
	H281	H	1.190639	-0.213151	0.991499
	O282	O	0.451956	0.466689	0.580166
	H283	H	0.438413	0.478018	0.573655
	H284	H	0.454494	0.470054	0.558403
	O285	O	0.694589	0.308477	0.324355
	H286	H	0.702251	0.341989	0.320332
	H287	H	0.719066	0.286724	0.309354
	O288	O	1.015473	0.801225	0.021567
	H289	H	1.014968	0.813975	0.014760
	H290	H	0.995168	0.795867	0.031572
	O291	O	0.777050	-0.015647	-0.033304
	H292	H	0.772499	0.004123	-0.029763
	H293	H	0.770285	-0.011756	-0.029774
	O294	O	-0.172719	0.174607	1.187580
	H295	H	-0.164639	0.148428	1.181987
	H296	H	-0.159501	0.160303	1.161122
	O297	O	0.695422	0.637801	0.693430
	H298	H	0.689587	0.641169	0.704892
	H299	H	0.695741	0.656368	0.694322
	O300	O	0.685765	0.343015	0.482998
	H301	H	0.680179	0.358573	0.454213
	H302	H	0.708839	0.314270	0.478403
	O303	O	0.332674	0.438343	0.664700
	H304	H	0.330284	0.425544	0.677766
	H305	H	0.326216	0.433195	0.671586
	O306	O	0.179029	0.824121	0.815342
	H307	H	0.193219	0.832221	0.846245
	H308	H	0.172637	0.835514	0.828610
	O309	O	0.419996	0.412187	0.378600
	H310	H	0.427948	0.417807	0.384800
	H311	H	0.418568	0.444223	0.373379
	O312	O	0.205589	1.146277	0.950998
	H313	H	0.199278	1.134395	0.959854
	H314	H	0.219596	1.156693	0.947503
	O315	O	0.562217	0.670510	0.700338
	H316	H	0.545164	0.674018	0.698553
	H317	H	0.556672	0.675661	0.710427
	O318	O	1.204259	0.053257	0.133699
	H319	H	1.207116	0.069604	0.114213
	H320	H	1.221332	0.048082	0.152597
	O321	O	-0.003340	-0.149327	-0.218830
	H322	H	0.002618	-0.187300	-0.245430
	H323	H	-0.010005	-0.135723	-0.214105
	O324	O	0.392763	0.544094	0.321083
	H325	H	0.396828	0.549306	0.299342
	H326	H	0.392051	0.556436	0.320981
	O327	O	0.299048	0.629875	0.377340
	H328	H	0.295251	0.614355	0.381081
	H329	H	0.307421	0.636735	0.371515
	O330	O	-0.184613	0.830299	0.180020
	H331	H	-0.193758	0.819800	0.131491
	H332	H	-0.133558	0.817448	0.190460
	O333	O	0.768379	0.776748	0.766522
	H334	H	0.783192	0.781369	0.761180
	H335	H	0.768052	0.797652	0.779478
	O336	O	0.154810	0.098742	-0.045341
	H337	H	0.155677	0.104324	-0.036421
	H338	H	0.162314	0.090426	-0.051788
	O339	O	-0.075683	0.835054	0.879073
	H340	H	-0.064473	0.846821	0.881997
	H341	H	-0.060998	0.837289	0.868764
	O342	O	0.089758	1.024883	1.032048
	H343	H	0.092995	1.033166	1.018617
	H344	H	0.099514	1.039493	1.032723
	O345	O	1.147491	0.947152	0.036720
	H346	H	1.143183	0.950754	0.025161
	H347	H	1.153585	0.963518	0.039192
	O348	O	0.663205	0.625654	0.514335
	H349	H	0.667965	0.624346	0.530940
	H350	H	0.668626	0.622905	0.524266
	O351	O	-0.218507	0.791760	1.021651
	H352	H	-0.222691	0.792142	1.010279
	H353	H	-0.228036	0.772184	1.011014
	O354	O	-0.210514	1.152275	-0.002154
	H355	H	-0.215145	1.168084	0.008246
	H356	H	-0.193711	1.166100	0.006994
	O357	O	-0.218839	0.031134	0.783603
	H358	H	-0.217109	0.030047	0.780577
	H359	H	-0.236834	0.047924	0.769298
	O360	O	0.638084	0.356670	0.614997
	H361	H	0.635917	0.374375	0.614412
	H362	H	0.621131	0.350972	0.600959
	O363	O	-0.024558	-0.200936	1.205377
	H364	H	0.001700	-0.171621	1.203601
	H365	H	-0.019354	-0.219041	1.232665
	O366	O	0.664518	0.563037	0.570719
	H367	H	0.670133	0.557822	0.570905
	H368	H	0.659588	0.558670	0.561410
	O369	O	0.366184	0.670843	0.541771
	H370	H	0.384720	0.665600	0.527276
	H371	H	0.362953	0.677551	0.533853
	O372	O	1.077390	0.169940	1.192960
	H373	H	1.073146	0.175695	1.192397
	H374	H	1.089459	0.179252	1.215361
	O375	O	0.542965	0.303065	0.296138
	H376	H	0.554689	0.277739	0.277405
	H377	H	0.578039	0.311778	0.305832
	O378	O	0.564446	0.482975	0.697579
	H379	H	0.577183	0.490548	0.705684
	H380	H	0.551337	0.488258	0.690341
	O381	O	0.981705	0.212259	0.928783
	H382	H	0.982522	0.194523	0.924346
	H383	H	0.970458	0.219944	0.909881
	O384	O	0.651438	0.485072	0.446682
	H385	H	0.652867	0.483154	0.469726
	H386	H	0.650860	0.478208	0.452043
	O387	O	-0.194700	0.198857	0.803651
	H388	H	-0.182333	0.202445	0.824759
	H389	H	-0.217475	0.199689	0.789465
	O390	O	0.193618	0.203281	0.190506
	H391	H	0.202645	0.222814	0.189900
	H392	H	0.173112	0.192735	0.191121
	O393	O	0.892849	0.939534	0.937514
	H394	H	0.888271	0.947996	0.921984
	H395	H	0.907345	0.947436	0.928991
	O396	O	0.987725	0.067539	0.063154
	H397	H	0.968749	0.063028	0.065275
	H398	H	0.996694	0.060607	0.051286
	O399	O	0.891740	0.224248	1.003470
	H400	H	0.911115	0.216865	0.999305
	H401	H	0.895975	0.237627	0.990461
	O402	O	1.467037	0.567528	1.396594
	H403	H	1.483812	0.561052	1.396532
	H404	H	1.476719	0.559133	1.407540
	O405	O	1.082837	0.901554	0.186115
	H406	H	1.082458	0.918826	0.183404
	H407	H	1.074956	0.916901	0.184091
	O408	O	0.949257	0.042751	0.176615
	H409	H	0.933136	0.034887	0.174157
	H410	H	0.960430	0.031265	0.162799
	O411	O	1.072397	1.107122	-0.183897
	H412	H	1.049526	1.093485	-0.191474
	H413	H	1.065754	1.122451	-0.176742
	O414	O	0.409580	0.707407	0.299820
	H415	H	0.414189	0.710162	0.297270
	H416	H	0.419348	0.697585	0.288713
	O417	O	0.498101	0.594926	0.438939
	H418	H	0.486814	0.597174	0.457160
	H419	H	0.490725	0.607904	0.422136
	O420	O	-0.211954	-0.007555	0.210618
	H421	H	-0.214229	-0.033721	0.221279
	H422	H	-0.223681	-0.033055	0.212610
	O423	O	0.706264	0.474460	0.283325
	H424	H	0.705235	0.479729	0.279771
	H425	H	0.722232	0.484571	0.281551
	O426	O	0.609321	0.605629	0.373513
	H427	H	0.621847	0.597709	0.387209
	H428	H	0.618716	0.593087	0.373517
	O429	O	0.405413	0.321255	0.638634
	H430	H	0.424795	0.315065	0.634516
	H431	H	0.393558	0.308767	0.623134
	O432	O	0.360238	0.437952	0.524175
	H433	H	0.352517	0.448072	0.504758
	H434	H	0.368648	0.451204	0.534867
	O435	O	0.394406	0.485998	0.431535
	H436	H	0.393160	0.481989	0.437577
	H437	H	0.399079	0.499764	0.431539
	O438	O	0.202672	0.034962	-0.145491
	H439	H	0.180471	0.050828	-0.147855
	H440	H	0.219040	0.031093	-0.173306
	O441	O	0.926844	0.168442	-0.144418
	H442	H	0.920267	0.179910	-0.155302
	H443	H	0.924707	0.165784	-0.127096
	O444	O	0.014700	0.928897	0.796541
	H445	H	0.023184	0.913861	0.779042
	H446	H	0.034488	0.930985	0.810657
	O447	O	0.325878	0.377948	0.481273
	H448	H	0.342084	0.378293	0.475019
	H449	H	0.318994	0.380302	0.492621
	O450	O	0.387971	0.538645	0.543265
	H451	H	0.380751	0.530821	0.541714
	H452	H	0.382570	0.545421	0.527860
	O453	O	0.418788	0.408810	0.552777
	H454	H	0.430797	0.405412	0.545826
	H455	H	0.420046	0.420148	0.546597
