data_Molecule from HDF5

_cell_length_a		16.405570
_cell_length_b		16.230810
_cell_length_c		16.216748
_cell_angle_alpha	89.650671
_cell_angle_beta	90.515529
_cell_angle_gamma	89.624398
_symmetry_space_group_name_H-M	'P 1'
_symmetry_Int_Tables_number		1

loop_
	_symmetry_equiv_pos_as_xyz
	x,y,z

loop_
	_atom_site_label
	_atom_site_type_symbol
	_atom_site_fract_x
	_atom_site_fract_y
	_atom_site_fract_z
	H0	H	0.415122	0.851348	0.711118
	H1	H	0.608851	0.179435	0.711329
	H2	H	0.605833	0.849718	0.287608
	H3	H	0.408039	0.179124	0.279310
	H4	H	0.727350	0.414843	0.831457
	H5	H	0.729696	0.613064	0.158875
	H6	H	0.295157	0.619436	0.832204
	H7	H	0.298281	0.412923	0.157801
	H8	H	0.848160	0.732750	0.392392
	H9	H	0.174192	0.730104	0.593637
	H10	H	0.848354	0.302153	0.594390
	H11	H	0.171888	0.297180	0.395367
	H12	H	0.849815	0.419492	0.710351
	H13	H	0.173813	0.615918	0.710831
	H14	H	0.850230	0.617161	0.274369
	H15	H	0.174908	0.416282	0.282160
	H16	H	0.413340	0.733006	0.831975
	H17	H	0.612343	0.727745	0.160771
	H18	H	0.612993	0.298715	0.832794
	H19	H	0.416832	0.301875	0.159682
	H20	H	0.727012	0.853265	0.397549
	H21	H	0.728258	0.178534	0.600137
	H22	H	0.294610	0.853120	0.598993
	H23	H	0.290289	0.178565	0.392715
	H24	H	0.917185	0.352913	0.209053
	H25	H	0.112730	0.680634	0.209314
	H26	H	0.113167	0.353638	0.779168
	H27	H	0.912681	0.681421	0.778444
	H28	H	0.226441	0.914428	0.332625
	H29	H	0.228195	0.118110	0.657431
	H30	H	0.789110	0.119894	0.333329
	H31	H	0.797633	0.914523	0.659401
	H32	H	0.351270	0.235318	0.892674
	H33	H	0.673962	0.230571	0.100173
	H34	H	0.350300	0.797914	0.096219
	H35	H	0.675013	0.800937	0.899696
	H36	H	0.347930	0.915631	0.210339
	H37	H	0.671671	0.113524	0.216716
	H38	H	0.350608	0.117919	0.777716
	H39	H	0.673316	0.913037	0.780724
	H40	H	0.906562	0.233627	0.332074
	H41	H	0.110714	0.230651	0.658312
	H42	H	0.107115	0.804637	0.329880
	H43	H	0.914660	0.800244	0.658963
	H44	H	0.232046	0.354437	0.892888
	H45	H	0.230726	0.679390	0.095988
	H46	H	0.797837	0.353413	0.097884
	H47	H	0.793755	0.679797	0.891261
	H48	H	0.412893	0.133372	0.586303
	H49	H	0.612985	0.895223	0.595951
	H50	H	0.602574	0.131146	0.412460
	H51	H	0.416038	0.900463	0.408087
	H52	H	0.610202	0.415601	0.114517
	H53	H	0.603752	0.600599	0.881264
	H54	H	0.415014	0.610585	0.114973
	H55	H	0.415748	0.425480	0.876490
	H56	H	0.126618	0.611087	0.401544
	H57	H	0.896859	0.602935	0.590237
	H58	H	0.125239	0.425262	0.585805
	H59	H	0.896565	0.423167	0.401540
	H60	H	0.126265	0.423244	0.589044
	H61	H	0.893890	0.616757	0.588390
	H62	H	0.127441	0.610650	0.402463
	H63	H	0.897703	0.429431	0.402221
	H64	H	0.420492	0.599094	0.109670
	H65	H	0.596809	0.615109	0.879145
	H66	H	0.614216	0.430416	0.111597
	H67	H	0.423043	0.432220	0.881015
	H68	H	0.601707	0.134231	0.401663
	H69	H	0.596552	0.901006	0.592367
	H70	H	0.419723	0.132439	0.590561
	H71	H	0.413650	0.897967	0.404363
	H72	H	0.913458	0.633561	0.078007
	H73	H	0.100091	0.398715	0.099655
	H74	H	0.103228	0.632602	0.904062
	H75	H	0.917604	0.402521	0.912565
	H76	H	0.102422	0.929361	0.609692
	H77	H	0.093893	0.106543	0.380960
	H78	H	0.922212	0.103646	0.609297
	H79	H	0.916596	0.917292	0.376218
	H80	H	0.627729	0.106925	0.903785
	H81	H	0.397787	0.103345	0.087456
	H82	H	0.622901	0.931529	0.090338
	H83	H	0.398338	0.919484	0.913281
	H84	H	0.630034	0.920906	0.103305
	H85	H	0.393685	0.113364	0.090765
	H86	H	0.626535	0.107698	0.908598
	H87	H	0.400141	0.935694	0.904154
	H88	H	0.920933	0.114273	0.613024
	H89	H	0.102306	0.111445	0.376782
	H90	H	0.098860	0.919864	0.610602
	H91	H	0.907561	0.931390	0.377771
	H92	H	0.104480	0.632880	0.904528
	H93	H	0.101146	0.406033	0.075576
	H94	H	0.919482	0.635423	0.090908
	H95	H	0.913830	0.396266	0.895889
	H96	H	0.419165	0.130092	0.582453
	H97	H	0.609017	0.901369	0.579560
	H98	H	0.593259	0.128953	0.406697
	H99	H	0.418845	0.899840	0.404305
	H100	H	0.599411	0.425241	0.108420
	H101	H	0.612223	0.612955	0.874967
	H102	H	0.427698	0.610269	0.111340
	H103	H	0.425148	0.421593	0.879841
	H104	H	0.127086	0.610410	0.401410
	H105	H	0.898032	0.609037	0.577638
	H106	H	0.126066	0.421779	0.585247
	H107	H	0.895459	0.426604	0.396464
	H108	H	0.926726	0.629359	0.079747
	H109	H	0.120993	0.397229	0.087140
	H110	H	0.104422	0.632699	0.902585
	H111	H	0.929909	0.403030	0.899718
	H112	H	0.109066	0.922561	0.614038
	H113	H	0.102582	0.100881	0.379642
	H114	H	0.912441	0.107148	0.613351
	H115	H	0.923752	0.931490	0.382054
	H116	H	0.625874	0.104066	0.906313
	H117	H	0.397596	0.112195	0.080614
	H118	H	0.627417	0.913559	0.087333
	H119	H	0.393507	0.920695	0.895102
	C120	C	0.389071	0.024138	0.617072
	C121	C	0.634035	1.007009	0.619054
	C122	C	0.629634	0.023635	0.377350
	C123	C	0.386316	1.007089	0.374353
	C124	C	0.635747	0.393685	0.003757
	C125	C	0.633818	0.636866	0.987223
	C126	C	0.390984	0.638001	0.004270
	C127	C	0.393118	0.396085	0.987106
	C128	C	0.019898	0.640044	0.370852
	C129	C	1.003307	0.638278	0.615308
	C130	C	0.019104	0.394818	0.616277
	C131	C	1.003552	0.395429	0.372428
	C132	C	0.892194	0.524877	0.113866
	C133	C	0.136150	0.508341	0.116624
	C134	C	0.134240	0.525035	0.873711
	C135	C	0.890486	0.508658	0.872322
	C136	C	0.132162	0.894838	0.503565
	C137	C	0.130070	0.136353	0.486839
	C138	C	0.887154	0.138612	0.504364
	C139	C	0.889248	0.896184	0.487005
	C140	C	0.520229	0.137424	0.874958
	C141	C	0.503042	0.137884	0.118097
	C142	C	0.519441	0.892927	0.120458
	C143	C	0.504112	0.894961	0.875700
	C144	C	0.393059	0.900797	0.673736
	C145	C	0.630341	0.130255	0.674487
	C146	C	0.627161	0.899761	0.323492
	C147	C	0.387656	0.130033	0.317311
	C148	C	0.689925	0.395020	0.880479
	C149	C	0.690966	0.633678	0.110310
	C150	C	0.333691	0.638789	0.881256
	C151	C	0.336904	0.394686	0.109440
	C152	C	0.897323	0.695194	0.372210
	C153	C	0.125551	0.692921	0.614101
	C154	C	0.896986	0.340308	0.614273
	C155	C	0.124171	0.337054	0.375664
	C156	C	0.897759	0.398579	0.672037
	C157	C	0.125251	0.636246	0.672424
	C158	C	0.898095	0.637751	0.313426
	C159	C	0.125758	0.396161	0.318907
	C160	C	0.392406	0.695230	0.881167
	C161	C	0.632468	0.690499	0.111292
	C162	C	0.632927	0.337226	0.881291
	C163	C	0.396221	0.339534	0.110474
	C164	C	0.687342	0.901381	0.378418
	C165	C	0.689533	0.129842	0.618882
	C166	C	0.333406	0.901541	0.617595
	C167	C	0.329193	0.129941	0.373825
	C168	C	0.896211	0.401826	0.170996
	C169	C	0.133225	0.631765	0.171656
	C170	C	0.132845	0.402349	0.817676
	C171	C	0.892192	0.632011	0.816342
	C172	C	0.187906	0.895696	0.381122
	C173	C	0.188314	0.136307	0.609127
	C174	C	0.828333	0.138865	0.381929
	C175	C	0.835465	0.895875	0.610266
	C176	C	0.399194	0.195857	0.874014
	C177	C	0.625000	0.192856	0.119253
	C178	C	0.398255	0.836402	0.116874
	C179	C	0.626041	0.838453	0.878527
	C180	C	0.396993	0.894962	0.173566
	C181	C	0.623917	0.134570	0.177330
	C182	C	0.398727	0.137387	0.816904
	C183	C	0.625246	0.894455	0.819428
	C184	C	0.886998	0.195211	0.380978
	C185	C	0.129798	0.192509	0.609416
	C186	C	0.128573	0.840871	0.379623
	C187	C	0.893358	0.838595	0.609940
	C188	C	0.192227	0.402803	0.874030
	C189	C	0.192007	0.630958	0.115636
	C190	C	0.836731	0.402158	0.115532
	C191	C	0.832926	0.631054	0.872409
	C192	C	0.410773	0.109756	0.593335
	C193	C	0.612371	0.921417	0.596225
	C194	C	0.606009	0.109404	0.400195
	C195	C	0.409360	0.921498	0.398569
	C196	C	0.614245	0.416709	0.089422
	C197	C	0.610856	0.615836	0.900778
	C198	C	0.414266	0.613662	0.089977
	C199	C	0.414872	0.419694	0.901307
	C200	C	0.105049	0.617258	0.394642
	C201	C	0.918294	0.616296	0.591910
	C202	C	0.103967	0.416860	0.593378
	C203	C	0.918450	0.419342	0.393685
	C204	C	0.913702	0.610457	0.090074
	C205	C	0.113972	0.422927	0.094165
	C206	C	0.110918	0.610621	0.897043
	C207	C	0.913625	0.422921	0.895818
	C208	C	0.109942	0.917297	0.589274
	C209	C	0.106355	0.113046	0.401298
	C210	C	0.911394	0.115140	0.589758
	C211	C	0.909872	0.919698	0.400976
	C212	C	0.604795	0.113273	0.899029
	C213	C	0.418404	0.116057	0.093358
	C214	C	0.604621	0.915327	0.099735
	C215	C	0.419217	0.918500	0.897829
	Zn216	Zn	0.511769	0.015690	0.745822
	Zn217	Zn	0.509055	0.014989	0.248160
	Zn218	Zn	0.762852	0.515838	-0.006264
	Zn219	Zn	0.263702	0.515993	-0.004697
	Zn220	Zn	0.011377	0.767797	0.494459
	Zn221	Zn	0.010001	0.265424	0.494784
	Zn222	Zn	0.012326	0.517563	0.745101
	Zn223	Zn	0.013343	0.517351	0.243021
	Zn224	Zn	0.512692	0.766003	-0.003267
	Zn225	Zn	0.512814	0.267129	-0.004192
	Zn226	Zn	0.760056	0.016874	0.496484
	Zn227	Zn	0.259073	0.015834	0.496043
	N228	N	0.427107	0.977916	0.673457
	N229	N	0.596646	0.052874	0.674833
	N230	N	0.591800	0.976972	0.322851
	N231	N	0.422280	0.052722	0.317483
	N232	N	0.692034	0.429140	0.957829
	N233	N	0.691778	0.601200	0.032141
	N234	N	0.332618	0.604124	0.958924
	N235	N	0.334880	0.429288	0.031794
	N236	N	0.974150	0.696769	0.407073
	N237	N	0.048811	0.694330	0.579020
	N238	N	0.973668	0.337778	0.580499
	N239	N	0.046979	0.336509	0.408035
	N240	N	0.974809	0.431380	0.673491
	N241	N	0.048375	0.602928	0.673219
	N242	N	0.975396	0.604489	0.312468
	N243	N	0.049605	0.432027	0.316966
	N244	N	0.427202	0.694981	0.958578
	N245	N	0.597694	0.692676	0.033750
	N246	N	0.600086	0.336198	0.958944
	N247	N	0.430354	0.340291	0.033355
	N248	N	0.688846	0.979430	0.410917
	N249	N	0.692022	0.052322	0.585252
	N250	N	0.330490	0.979288	0.583351
	N251	N	0.328268	0.052332	0.408636
	N252	N	0.929976	0.479307	0.170314
	N253	N	0.099175	0.554570	0.172540
	N254	N	0.097588	0.479381	0.817377
	N255	N	0.927281	0.554898	0.816285
	N256	N	0.190438	0.928224	0.459250
	N257	N	0.188903	0.102241	0.531640
	N258	N	0.828507	0.104499	0.459610
	N259	N	0.832821	0.930984	0.532935
	N260	N	0.475761	0.195896	0.909387
	N261	N	0.548946	0.194924	0.083083
	N262	N	0.475368	0.834948	0.084626
	N263	N	0.549727	0.838802	0.912761
	N264	N	0.473314	0.929421	0.175917
	N265	N	0.547085	0.101189	0.176860
	N266	N	0.474985	0.101656	0.817334
	N267	N	0.548424	0.928997	0.817482
	N268	N	0.922722	0.195550	0.458040
	N269	N	0.094039	0.192348	0.532391
	N270	N	0.094684	0.840021	0.456896
	N271	N	0.926090	0.838487	0.532253
	N272	N	0.193053	0.480162	0.908290
	N273	N	0.194050	0.553369	0.082157
	N274	N	0.834271	0.479417	0.080696
	N275	N	0.831925	0.553262	0.906596
	O276	O	0.042265	0.023131	1.070890
	H277	H	0.042093	0.012148	1.052396
	H278	H	0.021496	0.033981	1.066243
	O279	O	1.101381	-0.005298	0.949061
	H280	H	1.110621	-0.002487	0.939018
	H281	H	1.098611	-0.001364	0.969031
	O282	O	1.048018	0.956125	0.143915
	H283	H	1.049351	0.960912	0.135124
	H284	H	1.043765	0.951263	0.159763
	O285	O	0.921385	0.182458	0.924403
	H286	H	0.909745	0.165167	0.915789
	H287	H	0.914065	0.195956	0.909792
	O288	O	0.411617	0.571385	0.465312
	H289	H	0.414182	0.575841	0.469080
	H290	H	0.420697	0.570146	0.458270
	O291	O	0.524772	0.529156	0.541001
	H292	H	0.532126	0.524856	0.544470
	H293	H	0.532133	0.536411	0.538130
	O294	O	0.487930	0.516563	0.470501
	H295	H	0.486729	0.505447	0.472240
	H296	H	0.491342	0.521243	0.465275
	O297	O	-0.043055	0.160470	0.938954
	H298	H	-0.031146	0.153770	0.944042
	H299	H	-0.058896	0.166612	0.938468
	O300	O	0.077262	0.083614	-0.061387
	H301	H	0.063708	0.073321	-0.055812
	H302	H	0.083453	0.092617	-0.069446
	O303	O	0.404067	0.555488	0.423965
	H304	H	0.407374	0.543809	0.429402
	H305	H	0.399099	0.562943	0.420250
	O306	O	-0.049243	1.020149	0.825019
	H307	H	-0.039414	1.019420	0.807536
	H308	H	-0.053474	1.015024	0.825980
	O309	O	0.438785	0.415720	0.481681
	H310	H	0.433446	0.420306	0.478961
	H311	H	0.442652	0.404253	0.484453
	O312	O	-0.442361	0.541760	0.454508
	H313	H	-0.448890	0.543958	0.462141
	H314	H	-0.447609	0.542685	0.458918
	O315	O	0.502166	-0.453774	-0.523056
	H316	H	0.502875	-0.453332	-0.526665
	H317	H	0.499898	-0.458683	-0.526423
	O318	O	1.047450	0.917903	1.070160
	H319	H	1.046589	0.933041	1.075056
	H320	H	1.057257	0.923579	1.077759
	O321	O	-0.044530	-0.067431	1.089882
	H322	H	-0.034220	-0.065150	1.097371
	H323	H	-0.042994	-0.066543	1.084929
	O324	O	0.481530	0.599198	0.392586
	H325	H	0.471628	0.593260	0.393713
	H326	H	0.474861	0.618563	0.386360
	O327	O	0.117155	-0.033175	-0.134547
	H328	H	0.120145	-0.024468	-0.136644
	H329	H	0.128934	-0.045771	-0.118489
	O330	O	1.032650	1.154238	0.001690
	H331	H	1.031150	1.168745	-0.006614
	H332	H	1.040492	1.140008	0.008966
	O333	O	-0.077997	0.998833	0.884035
	H334	H	-0.061265	1.000477	0.879816
	H335	H	-0.078334	1.010380	0.889167
	O336	O	0.022000	0.003482	0.054607
	H337	H	0.013786	0.015520	0.052788
	H338	H	0.014634	-0.002684	0.043493
	O339	O	0.467657	0.550624	0.464055
	H340	H	0.465666	0.552876	0.473997
	H341	H	0.467624	0.550110	0.462399
	O342	O	1.092455	0.977116	0.973904
	H343	H	1.097692	0.980099	0.975428
	H344	H	1.102778	0.978115	0.987066
	O345	O	1.027850	0.974555	0.089028
	H346	H	1.014411	0.971875	0.100177
	H347	H	1.031202	0.968993	0.081792
	O348	O	0.550418	0.439560	0.500375
	H349	H	0.550995	0.445821	0.501970
	H350	H	0.543387	0.429016	0.502005
	O351	O	0.864940	0.006242	0.026808
	H352	H	0.854454	0.003441	0.037809
	H353	H	0.857331	0.000154	0.027939
	O354	O	0.451671	0.557750	0.452105
	H355	H	0.461873	0.558378	0.450772
	H356	H	0.454455	0.558042	0.445064
	O357	O	0.731356	0.357856	1.695156
	H358	H	0.731322	0.360490	1.680404
	H359	H	0.728809	0.345798	1.697311
	O360	O	0.135741	0.061121	0.005739
	H361	H	0.148017	0.062312	-0.003048
	H362	H	0.135764	0.041905	0.002917
	O363	O	0.529628	0.441423	0.505778
	H364	H	0.528121	0.432733	0.501096
	H365	H	0.525271	0.443428	0.501782
	O366	O	0.880432	1.074666	1.025711
	H367	H	0.886513	1.069872	1.033526
	H368	H	0.884481	1.056069	1.019151
	O369	O	1.006621	0.111906	1.066187
	H370	H	0.993342	0.121070	1.064737
	H371	H	1.002298	0.098714	1.079276
	O372	O	-0.047325	0.037686	-0.094167
	H373	H	-0.050154	0.029610	-0.093191
	H374	H	-0.042983	0.039507	-0.081840
	O375	O	0.531963	-0.513008	0.526972
	H376	H	0.534300	-0.522200	0.522166
	H377	H	0.534978	-0.505005	0.526194
	O378	O	1.042134	-0.131807	0.967079
	H379	H	1.054493	-0.128537	0.967645
	H380	H	1.031414	-0.121719	0.976310
	O381	O	0.582701	0.540153	0.425769
	H382	H	0.582076	0.543663	0.433082
	H383	H	0.583398	0.538120	0.429294
