data_Molecule from HDF5

_cell_length_a		16.314540
_cell_length_b		16.164548
_cell_length_c		16.261835
_cell_angle_alpha	89.737755
_cell_angle_beta	89.466559
_cell_angle_gamma	90.490017
_symmetry_space_group_name_H-M	'P 1'
_symmetry_Int_Tables_number		1

loop_
	_symmetry_equiv_pos_as_xyz
	x,y,z

loop_
	_atom_site_label
	_atom_site_type_symbol
	_atom_site_fract_x
	_atom_site_fract_y
	_atom_site_fract_z
	H0	H	0.390692	0.838224	0.717640
	H1	H	0.590523	0.168328	0.712646
	H2	H	0.590866	0.838022	0.286231
	H3	H	0.395873	0.166511	0.285372
	H4	H	0.708816	0.404192	0.836267
	H5	H	0.708710	0.602957	0.162960
	H6	H	0.282382	0.602941	0.835403
	H7	H	0.271977	0.399639	0.161734
	H8	H	0.828856	0.718433	0.401451
	H9	H	0.155529	0.718809	0.593522
	H10	H	0.829476	0.287395	0.598408
	H11	H	0.155860	0.291707	0.398866
	H12	H	0.829196	0.402312	0.716288
	H13	H	0.156086	0.604655	0.710094
	H14	H	0.828940	0.604331	0.284815
	H15	H	0.154653	0.406110	0.282062
	H16	H	0.398702	0.716625	0.836562
	H17	H	0.590622	0.716242	0.165323
	H18	H	0.590262	0.290796	0.836034
	H19	H	0.392671	0.289508	0.164833
	H20	H	0.707243	0.839228	0.400410
	H21	H	0.707555	0.167345	0.599300
	H22	H	0.272740	0.839883	0.603599
	H23	H	0.282991	0.168132	0.402419
	H24	H	0.889583	0.339611	0.216809
	H25	H	0.092674	0.668372	0.211192
	H26	H	0.091111	0.338843	0.784158
	H27	H	0.898129	0.669078	0.786503
	H28	H	0.210053	0.905544	0.336985
	H29	H	0.205284	0.103771	0.664453
	H30	H	0.778672	0.104243	0.337097
	H31	H	0.774428	0.901876	0.663626
	H32	H	0.328975	0.216090	0.903492
	H33	H	0.655389	0.218584	0.096913
	H34	H	0.329354	0.785504	0.101938
	H35	H	0.657720	0.792429	0.903586
	H36	H	0.329572	0.899750	0.219651
	H37	H	0.655991	0.102842	0.212687
	H38	H	0.329265	0.101820	0.787218
	H39	H	0.655815	0.905299	0.784134
	H40	H	0.897344	0.216301	0.335954
	H41	H	0.088774	0.218706	0.663652
	H42	H	0.090081	0.793777	0.334775
	H43	H	0.892404	0.787744	0.663936
	H44	H	0.205792	0.338520	0.899795
	H45	H	0.208397	0.667393	0.095265
	H46	H	0.775962	0.339341	0.100412
	H47	H	0.780027	0.667510	0.899233
	H48	H	0.403538	0.118344	0.590244
	H49	H	0.584753	0.887096	0.587813
	H50	H	0.584906	0.121145	0.403625
	H51	H	0.400796	0.884939	0.408145
	H52	H	0.580417	0.408793	0.115949
	H53	H	0.582723	0.591587	0.886630
	H54	H	0.400095	0.591691	0.115795
	H55	H	0.398573	0.405697	0.881540
	H56	H	0.108015	0.598621	0.403080
	H57	H	0.877893	0.590967	0.592033
	H58	H	0.107423	0.415511	0.589838
	H59	H	0.875756	0.410759	0.409335
	H60	H	0.110151	0.411782	0.595215
	H61	H	0.873173	0.594322	0.599990
	H62	H	0.109302	0.599903	0.403218
	H63	H	0.876161	0.411709	0.406947
	H64	H	0.398465	0.595225	0.117771
	H65	H	0.585927	0.605841	0.882011
	H66	H	0.588286	0.408388	0.118482
	H67	H	0.396896	0.411469	0.882798
	H68	H	0.584657	0.118853	0.409020
	H69	H	0.587104	0.883366	0.596314
	H70	H	0.393570	0.122410	0.593105
	H71	H	0.401066	0.887188	0.413741
	H72	H	0.901550	0.621271	0.094871
	H73	H	0.085487	0.384572	0.092868
	H74	H	0.093655	0.624204	0.900244
	H75	H	0.892968	0.385796	0.911334
	H76	H	0.080089	0.917956	0.614159
	H77	H	0.077130	0.104141	0.384091
	H78	H	0.898247	0.102339	0.619586
	H79	H	0.906169	0.910963	0.384796
	H80	H	0.609760	0.105900	0.911990
	H81	H	0.376240	0.091641	0.096265
	H82	H	0.610747	0.899001	0.089674
	H83	H	0.376263	0.906343	0.912163
	H84	H	0.603643	0.919532	0.085439
	H85	H	0.374794	0.095837	0.097541
	H86	H	0.604853	0.087682	0.912647
	H87	H	0.377460	0.912730	0.910252
	H88	H	0.891957	0.090695	0.618122
	H89	H	0.100742	0.105008	0.377897
	H90	H	0.077879	0.905813	0.616296
	H91	H	0.894305	0.906490	0.380956
	H92	H	0.083786	0.620814	0.901913
	H93	H	0.078699	0.386203	0.093441
	H94	H	0.902778	0.619551	0.089049
	H95	H	0.900667	0.384070	0.900349
	H96	H	0.401874	0.121220	0.600986
	H97	H	0.578931	0.886422	0.595624
	H98	H	0.590733	0.121659	0.407119
	H99	H	0.396249	0.884214	0.411509
	H100	H	0.585425	0.415858	0.115734
	H101	H	0.596354	0.595593	0.882043
	H102	H	0.396835	0.591832	0.117449
	H103	H	0.402587	0.410179	0.884034
	H104	H	0.108816	0.598868	0.404128
	H105	H	0.874550	0.601541	0.591892
	H106	H	0.109210	0.409034	0.589660
	H107	H	0.875474	0.408874	0.407176
	H108	H	0.897320	0.621731	0.091012
	H109	H	0.082151	0.387407	0.087025
	H110	H	0.090192	0.619760	0.909531
	H111	H	0.906586	0.388698	0.911395
	H112	H	0.089430	0.910511	0.617931
	H113	H	0.091094	0.084216	0.386899
	H114	H	0.904536	0.092063	0.614035
	H115	H	0.896546	0.918936	0.384799
	H116	H	0.611241	0.096085	0.895757
	H117	H	0.376746	0.095283	0.092711
	H118	H	0.611123	0.913835	0.105102
	H119	H	0.375610	0.907470	0.906042
	C120	C	0.369388	0.012169	0.624244
	C121	C	0.612688	0.994573	0.621454
	C122	C	0.614734	0.011578	0.378310
	C123	C	0.372011	0.994147	0.381117
	C124	C	0.613532	0.382303	0.008228
	C125	C	0.616052	0.625714	0.991825
	C126	C	0.372115	0.622681	0.008607
	C127	C	0.369639	0.380076	0.991105
	C128	C	0.000533	0.627033	0.376172
	C129	C	0.983684	0.625012	0.620582
	C130	C	0.001218	0.381865	0.621137
	C131	C	0.983595	0.382797	0.377598
	C132	C	0.870466	0.512403	0.121732
	C133	C	0.112742	0.494770	0.119404
	C134	C	0.115972	0.512301	0.876059
	C135	C	0.872618	0.495129	0.878670
	C136	C	0.112934	0.883661	0.508131
	C137	C	0.115862	0.126198	0.491594
	C138	C	0.871114	0.124601	0.508782
	C139	C	0.869609	0.881820	0.491798
	C140	C	0.500662	0.124712	0.879162
	C141	C	0.483586	0.124087	0.122448
	C142	C	0.500931	0.880056	0.123679
	C143	C	0.484863	0.881427	0.879918
	C144	C	0.370799	0.887652	0.679738
	C145	C	0.611009	0.118837	0.675760
	C146	C	0.611642	0.887495	0.323620
	C147	C	0.375322	0.117661	0.324308
	C148	C	0.670046	0.384601	0.885287
	C149	C	0.670732	0.623551	0.114597
	C150	C	0.319143	0.622327	0.884691
	C151	C	0.311690	0.380729	0.113655
	C152	C	0.877579	0.680940	0.380382
	C153	C	0.106878	0.681086	0.615270
	C154	C	0.878159	0.325524	0.619161
	C155	C	0.106818	0.328953	0.378840
	C156	C	0.878321	0.382421	0.678017
	C157	C	0.107183	0.624136	0.672991
	C158	C	0.877937	0.624424	0.322094
	C159	C	0.106294	0.385993	0.320931
	C160	C	0.377217	0.678827	0.885167
	C161	C	0.612029	0.679558	0.115700
	C162	C	0.610964	0.327993	0.884991
	C163	C	0.371285	0.325689	0.115183
	C164	C	0.669174	0.887957	0.380739
	C165	C	0.669246	0.118439	0.619299
	C166	C	0.312178	0.888479	0.623148
	C167	C	0.318934	0.118247	0.382311
	C168	C	0.870676	0.388534	0.177936
	C169	C	0.111988	0.618874	0.173537
	C170	C	0.112120	0.388302	0.821410
	C171	C	0.876836	0.619491	0.823743
	C172	C	0.170510	0.886000	0.385388
	C173	C	0.168461	0.124106	0.615164
	C174	C	0.817039	0.123346	0.385626
	C175	C	0.813171	0.882307	0.614799
	C176	C	0.377727	0.178476	0.882968
	C177	C	0.606563	0.180667	0.118341
	C178	C	0.378286	0.823256	0.122593
	C179	C	0.608071	0.828351	0.882264
	C180	C	0.378494	0.880097	0.181330
	C181	C	0.607009	0.122707	0.175535
	C182	C	0.377947	0.121779	0.825112
	C183	C	0.607357	0.884595	0.823047
	C184	C	0.875887	0.179285	0.385095
	C185	C	0.110668	0.181278	0.614799
	C186	C	0.111157	0.830200	0.384200
	C187	C	0.871842	0.825678	0.614892
	C188	C	0.169406	0.388087	0.878707
	C189	C	0.169936	0.618367	0.116173
	C190	C	0.813854	0.388545	0.120440
	C191	C	0.818249	0.618882	0.879899
	C192	C	0.392856	0.098453	0.601609
	C193	C	0.590206	0.907974	0.599616
	C194	C	0.593159	0.098174	0.400078
	C195	C	0.393205	0.907877	0.404361
	C196	C	0.591216	0.404357	0.094556
	C197	C	0.594760	0.604061	0.905838
	C198	C	0.392259	0.599422	0.094538
	C199	C	0.392672	0.402493	0.905224
	C200	C	0.086482	0.605497	0.397169
	C201	C	0.897575	0.602365	0.600553
	C202	C	0.086779	0.405126	0.598265
	C203	C	0.897901	0.404103	0.400917
	C204	C	0.893754	0.598686	0.098371
	C205	C	0.089065	0.408442	0.097673
	C206	C	0.095363	0.599194	0.897769
	C207	C	0.893844	0.408593	0.901205
	C208	C	0.089320	0.904949	0.594043
	C209	C	0.095663	0.104200	0.405250
	C210	C	0.891991	0.101810	0.594932
	C211	C	0.892324	0.905153	0.405687
	C212	C	0.586375	0.102906	0.900482
	C213	C	0.398071	0.101037	0.101579
	C214	C	0.586573	0.903875	0.100237
	C215	C	0.398690	0.902596	0.902806
	Zn216	Zn	0.492337	0.003373	0.750744
	Zn217	Zn	0.492338	0.002303	0.251798
	Zn218	Zn	0.743441	0.503737	-0.000555
	Zn219	Zn	0.242662	0.502428	-0.001755
	Zn220	Zn	-0.008224	0.753952	0.499202
	Zn221	Zn	-0.006975	0.253322	0.499094
	Zn222	Zn	-0.006594	0.503893	0.749924
	Zn223	Zn	-0.008306	0.504059	0.248779
	Zn224	Zn	0.493144	0.751899	0.001396
	Zn225	Zn	0.491720	0.252820	0.000692
	Zn226	Zn	0.741422	0.003577	0.500165
	Zn227	Zn	0.243119	0.003848	0.501487
	N228	N	0.405700	0.965713	0.680643
	N229	N	0.576625	0.040873	0.677279
	N230	N	0.578673	0.965501	0.321824
	N231	N	0.407695	0.039558	0.323475
	N232	N	0.671747	0.417658	0.963049
	N233	N	0.673360	0.590741	0.036719
	N234	N	0.315873	0.588065	0.962347
	N235	N	0.310491	0.413692	0.035594
	N236	N	0.954943	0.682839	0.413273
	N237	N	0.029091	0.681758	0.583287
	N238	N	0.955565	0.325031	0.584646
	N239	N	0.029531	0.326827	0.413551
	N240	N	0.955771	0.416637	0.679380
	N241	N	0.029728	0.590019	0.676645
	N242	N	0.955537	0.591427	0.319668
	N243	N	0.028796	0.418769	0.320216
	N244	N	0.409307	0.679439	0.963127
	N245	N	0.578789	0.681136	0.038214
	N246	N	0.576487	0.326503	0.962663
	N247	N	0.406444	0.324808	0.037999
	N248	N	0.671066	0.966069	0.413938
	N249	N	0.670401	0.040204	0.586210
	N250	N	0.311180	0.966793	0.589734
	N251	N	0.316887	0.040375	0.417031
	N252	N	0.904992	0.466513	0.179095
	N253	N	0.077265	0.541049	0.175634
	N254	N	0.079901	0.466809	0.819439
	N255	N	0.910009	0.541467	0.823056
	N256	N	0.171738	0.918295	0.463509
	N257	N	0.172047	0.090887	0.537531
	N258	N	0.813751	0.090001	0.463696
	N259	N	0.811786	0.916523	0.537281
	N260	N	0.455143	0.180727	0.915783
	N261	N	0.528757	0.181884	0.086322
	N262	N	0.455579	0.823077	0.087607
	N263	N	0.530849	0.826462	0.916905
	N264	N	0.455791	0.914894	0.181822
	N265	N	0.529663	0.088362	0.178611
	N266	N	0.455462	0.089026	0.822671
	N267	N	0.529553	0.916853	0.821466
	N268	N	0.909023	0.179852	0.462525
	N269	N	0.078876	0.182971	0.536767
	N270	N	0.075926	0.828466	0.461465
	N271	N	0.906058	0.825013	0.537297
	N272	N	0.172011	0.466311	0.911683
	N273	N	0.170432	0.540094	0.083010
	N274	N	0.813543	0.466589	0.085963
	N275	N	0.815569	0.540650	0.913368
	O276	O	0.064451	-0.028420	0.117333
	H277	H	0.049118	-0.038121	0.128733
	H278	H	0.068088	-0.034511	0.109735
	O279	O	0.588734	0.517021	0.481557
	H280	H	0.602939	0.518845	0.483608
	H281	H	0.580931	0.521391	0.486563
	O282	O	0.500372	0.521315	0.568172
	H283	H	0.491699	0.529445	0.562093
	H284	H	0.496397	0.523617	0.569077
	O285	O	0.064516	1.079285	0.909242
	H286	H	0.065709	1.066951	0.909938
	H287	H	0.068497	1.071322	0.916940
	O288	O	0.503612	0.524989	0.462631
	H289	H	0.492478	0.514267	0.462810
	H290	H	0.509897	0.524602	0.465119
	O291	O	1.042082	0.956540	0.949197
	H292	H	1.039307	0.961018	0.950420
	H293	H	1.053339	0.954018	0.942883
	O294	O	0.952897	1.017585	0.956656
	H295	H	0.958720	1.028331	0.944392
	H296	H	0.944085	1.018880	0.960798
	O297	O	0.975168	0.084317	1.098843
	H298	H	0.971607	0.099131	1.100092
	H299	H	0.975824	0.083873	1.105646
	O300	O	0.413932	0.547676	0.524218
	H301	H	0.415755	0.548513	0.511918
	H302	H	0.420391	0.558333	0.518433
	O303	O	0.984503	0.007844	0.022293
	H304	H	0.978103	0.007191	0.029071
	H305	H	0.976131	-0.001365	0.028389
	O306	O	0.034785	0.959672	1.086358
	H307	H	0.033412	0.951657	1.090936
	H308	H	0.038526	0.956888	1.086640
	O309	O	0.499986	0.452078	0.512128
	H310	H	0.503876	0.453375	0.503833
	H311	H	0.492814	0.455716	0.520619
	O312	O	1.000761	0.053974	1.009930
	H313	H	1.006460	0.058766	1.025365
	H314	H	1.000414	0.043751	1.007345
	O315	O	0.425227	0.368185	0.568647
	H316	H	0.432115	0.381362	0.574968
	H317	H	0.427474	0.364427	0.573679
	O318	O	0.555630	0.471900	0.509815
	H319	H	0.558471	0.488622	0.515138
	H320	H	0.555159	0.463249	0.499088
	O321	O	0.961121	1.066399	0.913928
	H322	H	0.961599	1.062681	0.918321
	H323	H	0.962136	1.064903	0.913303
	O324	O	0.416322	0.390038	0.508356
	H325	H	0.423796	0.383676	0.522551
	H326	H	0.401316	0.383809	0.513243
	O327	O	0.517807	0.521678	0.486304
	H328	H	0.508528	0.514371	0.488659
	H329	H	0.512761	0.506980	0.478471
	O330	O	0.905075	-0.087234	0.994741
	H331	H	0.900556	-0.087106	0.999057
	H332	H	0.911162	-0.095241	0.992046
	O333	O	0.969682	1.074101	-0.045303
	H334	H	0.962654	1.073270	-0.044304
	H335	H	0.983592	1.077545	-0.044105
	O336	O	0.482189	0.475335	0.432721
	H337	H	0.491234	0.470925	0.422662
	H338	H	0.481827	0.469935	0.436642
	O339	O	0.395031	0.478280	0.548867
	H340	H	0.399179	0.479638	0.557308
	H341	H	0.387571	0.468357	0.547314
	O342	O	-0.103317	0.938535	0.069533
	H343	H	-0.110869	0.945556	0.057553
	H344	H	-0.115751	0.930772	0.079914
	O345	O	0.037034	-0.085676	-0.051382
	H346	H	0.038595	-0.074379	-0.058632
	H347	H	0.037873	-0.083285	-0.062108
	O348	O	0.431109	0.525607	0.529937
	H349	H	0.431621	0.517338	0.530276
	H350	H	0.431098	0.519963	0.537485
	O351	O	0.480812	0.508627	0.491161
	H352	H	0.480533	0.507117	0.484135
	H353	H	0.469621	0.510193	0.496753
	O354	O	0.991290	1.107516	0.073534
	H355	H	0.986485	1.109571	0.062898
	H356	H	0.990706	1.119769	0.082032
	O357	O	0.021435	-0.124396	1.038392
	H358	H	0.017447	-0.112972	1.035397
	H359	H	0.022374	-0.130764	1.039972
	O360	O	-0.031962	0.019991	0.073805
	H361	H	-0.024857	0.016113	0.073370
	H362	H	-0.021686	0.020586	0.063752
	O363	O	0.525428	0.517836	0.539809
	H364	H	0.521868	0.518725	0.545035
	H365	H	0.516109	0.525363	0.535917
	O366	O	0.050648	-0.049498	0.926140
	H367	H	0.044072	-0.050525	0.914522
	H368	H	0.063501	-0.052480	0.936619
	O369	O	1.452169	0.515062	-0.444718
	H370	H	1.459790	0.517988	-0.450291
	H371	H	1.453891	0.513155	-0.438364
