data_Molecule from HDF5

_cell_length_a		16.517133
_cell_length_b		16.381372
_cell_length_c		16.216907
_cell_angle_alpha	89.781561
_cell_angle_beta	90.365773
_cell_angle_gamma	90.092050
_symmetry_space_group_name_H-M	'P 1'
_symmetry_Int_Tables_number		1

loop_
	_symmetry_equiv_pos_as_xyz
	x,y,z

loop_
	_atom_site_label
	_atom_site_type_symbol
	_atom_site_fract_x
	_atom_site_fract_y
	_atom_site_fract_z
	H0	H	0.402620	0.848945	0.717595
	H1	H	0.603911	0.170855	0.720883
	H2	H	0.598627	0.848242	0.289817
	H3	H	0.400527	0.171355	0.282895
	H4	H	0.717898	0.408194	0.841804
	H5	H	0.720554	0.612885	0.165343
	H6	H	0.279775	0.615196	0.841650
	H7	H	0.282598	0.404409	0.164475
	H8	H	0.843680	0.734601	0.393891
	H9	H	0.160191	0.731624	0.608051
	H10	H	0.843036	0.289881	0.606067
	H11	H	0.159951	0.291834	0.399563
	H12	H	0.839827	0.410052	0.718644
	H13	H	0.160073	0.613154	0.722753
	H14	H	0.842383	0.614810	0.281259
	H15	H	0.160468	0.410487	0.285452
	H16	H	0.397494	0.729511	0.841141
	H17	H	0.603139	0.726400	0.166118
	H18	H	0.601552	0.294507	0.840591
	H19	H	0.399791	0.290506	0.164835
	H20	H	0.722196	0.852632	0.396468
	H21	H	0.721441	0.170493	0.606628
	H22	H	0.279348	0.852548	0.608806
	H23	H	0.281960	0.171839	0.396099
	H24	H	0.901003	0.349576	0.221088
	H25	H	0.103147	0.671099	0.219250
	H26	H	0.097154	0.348541	0.788260
	H27	H	0.901008	0.673403	0.787122
	H28	H	0.215452	0.913735	0.339068
	H29	H	0.222542	0.117722	0.663132
	H30	H	0.780446	0.117750	0.340480
	H31	H	0.783852	0.909260	0.662968
	H32	H	0.342158	0.231107	0.896408
	H33	H	0.660981	0.229440	0.107209
	H34	H	0.341853	0.788940	0.107649
	H35	H	0.659409	0.791367	0.902214
	H36	H	0.340136	0.910473	0.218303
	H37	H	0.661512	0.109985	0.221125
	H38	H	0.341509	0.112819	0.781415
	H39	H	0.661255	0.909760	0.786666
	H40	H	0.898475	0.231736	0.340221
	H41	H	0.102063	0.226726	0.665849
	H42	H	0.101688	0.796038	0.339998
	H43	H	0.900061	0.794300	0.663960
	H44	H	0.220399	0.350558	0.896726
	H45	H	0.224904	0.667318	0.109404
	H46	H	0.781049	0.350239	0.109172
	H47	H	0.780362	0.670488	0.899218
	H48	H	0.402212	0.129848	0.598231
	H49	H	0.595682	0.895509	0.593959
	H50	H	0.588887	0.124383	0.412556
	H51	H	0.403048	0.896378	0.413629
	H52	H	0.587233	0.413170	0.119469
	H53	H	0.593794	0.598447	0.887492
	H54	H	0.413944	0.596714	0.116541
	H55	H	0.407323	0.426993	0.888562
	H56	H	0.113086	0.601506	0.413741
	H57	H	0.885388	0.603632	0.597279
	H58	H	0.114712	0.421176	0.597194
	H59	H	0.887321	0.423077	0.407757
	H60	H	0.114623	0.418589	0.595041
	H61	H	0.887643	0.607744	0.588000
	H62	H	0.114998	0.604224	0.411226
	H63	H	0.886672	0.416168	0.415132
	H64	H	0.412684	0.600155	0.117594
	H65	H	0.587602	0.599491	0.890146
	H66	H	0.598679	0.418402	0.121417
	H67	H	0.415408	0.421285	0.890079
	H68	H	0.593222	0.125459	0.414360
	H69	H	0.590776	0.896386	0.593718
	H70	H	0.422263	0.122522	0.595111
	H71	H	0.407945	0.895545	0.409619
	H72	H	0.907720	0.624156	0.089118
	H73	H	0.101935	0.393330	0.092131
	H74	H	0.093887	0.623431	0.919322
	H75	H	0.910357	0.395955	0.908758
	H76	H	0.095253	0.918692	0.619636
	H77	H	0.087014	0.101378	0.388792
	H78	H	0.912666	0.101059	0.616031
	H79	H	0.916450	0.927245	0.389519
	H80	H	0.612443	0.102538	0.917332
	H81	H	0.387852	0.106399	0.085440
	H82	H	0.614343	0.909787	0.090107
	H83	H	0.389000	0.923192	0.913413
	H84	H	0.612165	0.925854	0.093005
	H85	H	0.392616	0.093693	0.089519
	H86	H	0.613651	0.097739	0.908991
	H87	H	0.386853	0.920500	0.908595
	H88	H	0.910200	0.102209	0.618548
	H89	H	0.092302	0.107543	0.384663
	H90	H	0.093843	0.928191	0.616344
	H91	H	0.911452	0.915906	0.384591
	H92	H	0.095319	0.626138	0.911356
	H93	H	0.085811	0.394174	0.101991
	H94	H	0.908918	0.625044	0.092310
	H95	H	0.907098	0.397578	0.915593
	H96	H	0.408782	0.122539	0.578079
	H97	H	0.593132	0.896968	0.589403
	H98	H	0.592307	0.126471	0.409510
	H99	H	0.409364	0.898083	0.415943
	H100	H	0.589677	0.425587	0.116117
	H101	H	0.590950	0.604619	0.887245
	H102	H	0.410195	0.596782	0.118109
	H103	H	0.407235	0.417189	0.885735
	H104	H	0.114005	0.605329	0.414206
	H105	H	0.890773	0.598421	0.590174
	H106	H	0.113856	0.421697	0.593957
	H107	H	0.890682	0.425723	0.417540
	H108	H	0.911309	0.623623	0.089844
	H109	H	0.086396	0.400330	0.084183
	H110	H	0.087546	0.623074	0.913514
	H111	H	0.903653	0.393602	0.910386
	H112	H	0.086341	0.921565	0.616559
	H113	H	0.095096	0.099421	0.387242
	H114	H	0.909768	0.098997	0.616567
	H115	H	0.904214	0.927113	0.384939
	H116	H	0.616045	0.107138	0.910236
	H117	H	0.385238	0.101853	0.098815
	H118	H	0.617470	0.915606	0.104934
	H119	H	0.387543	0.917364	0.914091
	C120	C	0.379697	0.019386	0.622959
	C121	C	0.623710	1.002218	0.623711
	C122	C	0.621722	0.019187	0.381541
	C123	C	0.377933	1.002704	0.380389
	C124	C	0.621845	0.389193	0.011898
	C125	C	0.621512	0.631128	0.995463
	C126	C	0.379719	0.630723	0.011314
	C127	C	0.379293	0.388679	0.994476
	C128	C	0.009621	0.634784	0.379636
	C129	C	0.992890	0.634011	0.624020
	C130	C	0.009156	0.389624	0.624974
	C131	C	0.992954	0.390459	0.382027
	C132	C	0.879288	0.518524	0.123522
	C133	C	0.123177	0.501297	0.124498
	C134	C	0.121955	0.518531	0.882693
	C135	C	0.877450	0.501967	0.880816
	C136	C	0.122034	0.892205	0.510473
	C137	C	0.122670	0.133585	0.493865
	C138	C	0.879867	0.133026	0.510352
	C139	C	0.880114	0.891514	0.492892
	C140	C	0.509194	0.133385	0.879759
	C141	C	0.493619	0.131153	0.123308
	C142	C	0.509033	0.887074	0.126100
	C143	C	0.492811	0.889341	0.881795
	C144	C	0.381084	0.898031	0.680587
	C145	C	0.623185	0.122968	0.681666
	C146	C	0.619632	0.897283	0.326114
	C147	C	0.379821	0.123292	0.321398
	C148	C	0.678947	0.389458	0.890123
	C149	C	0.680688	0.631673	0.117056
	C150	C	0.319798	0.633511	0.890070
	C151	C	0.321636	0.386436	0.116119
	C152	C	0.890996	0.694199	0.376289
	C153	C	0.112306	0.692494	0.626266
	C154	C	0.890034	0.330313	0.625059
	C155	C	0.112312	0.331464	0.380698
	C156	C	0.888465	0.390229	0.680908
	C157	C	0.112325	0.633598	0.683622
	C158	C	0.890325	0.634658	0.320008
	C159	C	0.112661	0.390307	0.323847
	C160	C	0.378023	0.690756	0.890003
	C161	C	0.622315	0.688354	0.117306
	C162	C	0.621157	0.332538	0.889605
	C163	C	0.380195	0.329897	0.116308
	C164	C	0.681068	0.899644	0.379357
	C165	C	0.681899	0.122538	0.625109
	C166	C	0.320016	0.899879	0.626130
	C167	C	0.320656	0.123494	0.377581
	C168	C	0.880388	0.397759	0.182447
	C169	C	0.123013	0.622459	0.181437
	C170	C	0.119221	0.397406	0.825402
	C171	C	0.879513	0.624353	0.824499
	C172	C	0.177804	0.893460	0.387939
	C173	C	0.182563	0.135525	0.614931
	C174	C	0.820077	0.135852	0.388945
	C175	C	0.822657	0.890222	0.614675
	C176	C	0.389858	0.191785	0.877637
	C177	C	0.613265	0.189443	0.125039
	C178	C	0.389121	0.829417	0.125630
	C179	C	0.612214	0.831001	0.882689
	C180	C	0.388295	0.889257	0.181450
	C181	C	0.613745	0.130147	0.181922
	C182	C	0.389575	0.132819	0.820525
	C183	C	0.613114	0.889774	0.825237
	C184	C	0.878863	0.192474	0.388793
	C185	C	0.122317	0.189664	0.616427
	C186	C	0.121272	0.834854	0.388474
	C187	C	0.880434	0.833032	0.614968
	C188	C	0.180123	0.398185	0.879823
	C189	C	0.183784	0.620307	0.127071
	C190	C	0.820936	0.398049	0.126420
	C191	C	0.819693	0.622826	0.880210
	C192	C	0.404097	0.103142	0.597843
	C193	C	0.600126	0.918089	0.599553
	C194	C	0.598313	0.103377	0.405290
	C195	C	0.400367	0.918734	0.405845
	C196	C	0.598613	0.412217	0.096976
	C197	C	0.597664	0.607691	0.910345
	C198	C	0.404823	0.605080	0.095516
	C199	C	0.402958	0.414504	0.910038
	C200	C	0.092487	0.610594	0.405615
	C201	C	0.909659	0.610127	0.598893
	C202	C	0.092704	0.413498	0.601807
	C203	C	0.910099	0.414657	0.406423
	C204	C	0.902571	0.602419	0.097875
	C205	C	0.098437	0.417650	0.099909
	C206	C	0.098934	0.602484	0.907647
	C207	C	0.900338	0.417888	0.904647
	C208	C	0.098691	0.915971	0.595262
	C209	C	0.098397	0.109800	0.409007
	C210	C	0.903971	0.107928	0.594833
	C211	C	0.903757	0.916339	0.408435
	C212	C	0.592404	0.109454	0.905005
	C213	C	0.410292	0.107515	0.098429
	C214	C	0.592888	0.910461	0.102920
	C215	C	0.409450	0.913510	0.905212
	Zn216	Zn	0.501462	0.010313	0.751123
	Zn217	Zn	0.500745	0.009929	0.253632
	Zn218	Zn	0.749854	0.510158	0.003598
	Zn219	Zn	0.251183	0.509254	0.002785
	Zn220	Zn	0.001367	0.763549	0.501635
	Zn221	Zn	0.001577	0.260724	0.502969
	Zn222	Zn	0.000257	0.511431	0.753722
	Zn223	Zn	0.000912	0.511012	0.251853
	Zn224	Zn	0.500236	0.759262	0.003799
	Zn225	Zn	0.501102	0.261549	0.002630
	Zn226	Zn	0.751266	0.011883	0.501393
	Zn227	Zn	0.250346	0.012679	0.502191
	N228	N	0.417537	0.973482	0.678844
	N229	N	0.587859	0.047038	0.681046
	N230	N	0.583422	0.972783	0.327268
	N231	N	0.414577	0.047015	0.322787
	N232	N	0.679519	0.423852	0.967196
	N233	N	0.680535	0.596847	0.040108
	N234	N	0.320525	0.597069	0.966660
	N235	N	0.320910	0.422126	0.039297
	N236	N	0.966013	0.694213	0.412733
	N237	N	0.036932	0.692858	0.589797
	N238	N	0.965920	0.329723	0.591108
	N239	N	0.036902	0.331442	0.416204
	N240	N	0.963674	0.426363	0.681063
	N241	N	0.037066	0.597950	0.682468
	N242	N	0.965409	0.598405	0.321707
	N243	N	0.037644	0.426333	0.324636
	N244	N	0.414635	0.688938	0.966382
	N245	N	0.586310	0.688130	0.040697
	N246	N	0.586467	0.332154	0.966439
	N247	N	0.415213	0.330991	0.039601
	N248	N	0.682513	0.976543	0.412996
	N249	N	0.682454	0.046319	0.589896
	N250	N	0.319216	0.976337	0.590952
	N251	N	0.319492	0.047698	0.413599
	N252	N	0.916189	0.473454	0.180441
	N253	N	0.086094	0.547262	0.180103
	N254	N	0.083956	0.473429	0.826754
	N255	N	0.914475	0.548181	0.824277
	N256	N	0.178491	0.928256	0.464973
	N257	N	0.182920	0.101326	0.537605
	N258	N	0.820511	0.099638	0.465526
	N259	N	0.822116	0.925570	0.537743
	N260	N	0.465416	0.192363	0.913558
	N261	N	0.537425	0.190415	0.089617
	N262	N	0.465292	0.827826	0.092268
	N263	N	0.536336	0.830595	0.917062
	N264	N	0.463954	0.924308	0.181808
	N265	N	0.538410	0.094593	0.181032
	N266	N	0.464932	0.097262	0.821615
	N267	N	0.537967	0.925462	0.824690
	N268	N	0.915351	0.190827	0.465106
	N269	N	0.086045	0.188812	0.540048
	N270	N	0.087311	0.833967	0.465683
	N271	N	0.915372	0.833519	0.538272
	N272	N	0.182067	0.474648	0.914548
	N273	N	0.184055	0.543816	0.092594
	N274	N	0.820403	0.474202	0.090375
	N275	N	0.817887	0.545919	0.914262
	O276	O	0.990434	-0.164661	0.895805
	H277	H	0.985739	-0.168863	0.890121
	H278	H	0.996220	-0.155696	0.885816
	O279	O	0.575516	0.643668	0.365014
	H280	H	0.565569	0.656939	0.388708
	H281	H	0.564473	0.653921	0.351694
	O282	O	0.513746	0.489968	0.371972
	H283	H	0.517169	0.493946	0.353884
	H284	H	0.527779	0.493779	0.390679
	O285	O	1.144866	0.122872	0.180999
	H286	H	1.134904	0.107214	0.181686
	H287	H	1.142184	0.100080	0.189502
	O288	O	0.070778	0.002674	0.931107
	H289	H	0.073282	0.016757	0.925404
	H290	H	0.079616	0.009150	0.934474
	O291	O	0.687694	0.442222	0.446582
	H292	H	0.692996	0.445153	0.442392
	H293	H	0.698435	0.443135	0.446855
	O294	O	0.641274	0.325359	0.462053
	H295	H	0.646361	0.336162	0.455819
	H296	H	0.636537	0.326509	0.465457
	O297	O	0.957029	0.923288	1.157167
	H298	H	0.941361	0.929556	1.158612
	H299	H	0.948663	0.929939	1.174091
	O300	O	0.110328	0.001003	-0.037696
	H301	H	0.114872	0.010787	-0.046660
	H302	H	0.109472	0.005725	-0.045328
	O303	O	0.482039	0.548184	0.480868
	H304	H	0.478067	0.555681	0.479360
	H305	H	0.464076	0.554766	0.488455
	O306	O	1.373834	-0.533992	0.439912
	H307	H	1.390244	-0.542848	0.429717
	H308	H	1.368991	-0.541722	0.471467
	O309	O	0.671970	0.666148	0.565266
	H310	H	0.665497	0.673733	0.560983
	H311	H	0.672738	0.666340	0.568095
	O312	O	1.023651	0.822838	0.078556
	H313	H	1.025539	0.828083	0.084979
	H314	H	1.031154	0.813274	0.074145
	O315	O	0.657695	0.534734	0.414800
	H316	H	0.644046	0.528278	0.419561
	H317	H	0.683305	0.548152	0.423243
	O318	O	0.675529	0.502106	0.620582
	H319	H	0.681075	0.514199	0.626277
	H320	H	0.667431	0.504218	0.626418
	O321	O	1.022283	0.075397	0.973362
	H322	H	1.017991	0.066793	0.988546
	H323	H	1.018009	0.085277	0.964530
	O324	O	0.092048	-0.037597	0.904512
	H325	H	0.098430	-0.043626	0.914830
	H326	H	0.114284	-0.037860	0.897141
	O327	O	0.410430	0.495303	0.685161
	H328	H	0.395202	0.494262	0.669153
	H329	H	0.415298	0.504150	0.692173
	O330	O	0.307733	0.491241	0.387091
	H331	H	0.305575	0.466084	0.393064
	H332	H	0.310849	0.489481	0.368311
	O333	O	0.479644	0.436144	0.407879
	H334	H	0.484143	0.442302	0.418134
	H335	H	0.485326	0.453090	0.403229
	O336	O	0.640399	0.358657	0.396601
	H337	H	0.644508	0.349734	0.402889
	H338	H	0.657124	0.374672	0.388494
	O339	O	1.010783	0.005451	0.863086
	H340	H	0.993920	0.008029	0.861679
	H341	H	1.012471	0.024356	0.866138
	O342	O	-0.656416	0.350957	0.605246
	H343	H	-0.646678	0.343748	0.605428
	H344	H	-0.667456	0.350165	0.570282
	O345	O	-0.197158	1.099983	1.021509
	H346	H	-0.209896	1.088487	1.030551
	H347	H	-0.201652	1.093415	1.028546
	O348	O	-0.853922	1.174247	-1.044451
	H349	H	-0.856732	1.187126	-1.045103
	H350	H	-0.839507	1.180645	-1.028194
	O351	O	-0.083025	0.019417	0.121563
	H352	H	-0.079282	0.030317	0.121382
	H353	H	-0.086171	0.022389	0.122827
	O354	O	1.337970	1.378026	0.656352
	H355	H	1.334601	1.363775	0.639860
	H356	H	1.330926	1.368576	0.668872
	O357	O	-0.570419	1.516490	-0.518010
	H358	H	-0.545130	1.520098	-0.517345
	H359	H	-0.566792	1.511431	-0.509955
	O360	O	0.447456	0.647558	0.516904
	H361	H	0.473520	0.638313	0.516827
	H362	H	0.450792	0.645504	0.505213
	O363	O	0.587255	0.338648	0.593168
	H364	H	0.584608	0.345600	0.581217
	H365	H	0.582790	0.340589	0.591397
	O366	O	0.557288	0.666410	0.476576
	H367	H	0.552199	0.679949	0.478337
	H368	H	0.563498	0.665079	0.487986
	O369	O	0.662874	0.601442	0.707236
	H370	H	0.670875	0.586341	0.718949
	H371	H	0.662630	0.616111	0.721635
	O372	O	0.364592	0.669772	0.489106
	H373	H	0.359564	0.677992	0.486702
	H374	H	0.364309	0.663358	0.496958
	O375	O	0.438779	0.648128	0.322333
	H376	H	0.431437	0.627210	0.320781
	H377	H	0.431311	0.666556	0.325213
	O378	O	0.899094	1.032015	0.866237
	H379	H	0.901210	1.039115	0.859308
	H380	H	0.897001	1.024814	0.876274
	O381	O	-0.194479	-0.140240	1.109296
	H382	H	-0.190845	-0.153521	1.105965
	H383	H	-0.199639	-0.140961	1.116842
	O384	O	-0.137208	1.012168	0.866720
	H385	H	-0.138503	1.023634	0.876575
	H386	H	-0.137348	1.018344	0.855718
	O387	O	1.114298	0.882282	-0.028900
	H388	H	1.095737	0.891113	-0.026567
	H389	H	1.116420	0.891535	-0.046062
	O390	O	0.458112	0.483677	0.556861
	H391	H	0.465923	0.479328	0.556649
	H392	H	0.448089	0.484305	0.544790
	O393	O	0.997046	0.136237	0.920076
	H394	H	0.998517	0.143498	0.919380
	H395	H	0.994933	0.128323	0.901333
	O396	O	-0.115697	0.133180	0.009194
	H397	H	-0.116043	0.129277	-0.001199
	H398	H	-0.102955	0.135409	0.017652
	O399	O	0.833057	0.155581	-0.196754
	H400	H	0.834591	0.155998	-0.187397
	H401	H	0.819879	0.151664	-0.206647
	O402	O	0.323205	0.619299	1.431768
	H403	H	0.315299	0.615749	1.424042
	H404	H	0.327910	0.606368	1.439288
	O405	O	-0.140448	-0.021217	-0.155022
	H406	H	-0.138120	-0.010969	-0.141779
	H407	H	-0.141069	-0.022292	-0.146877
	O408	O	1.103460	1.204311	1.116188
	H409	H	1.116313	1.211015	1.121375
	H410	H	1.086728	1.204536	1.137098
	O411	O	1.452076	0.624722	-0.374501
	H412	H	1.460751	0.628156	-0.381091
	H413	H	1.451174	0.627399	-0.363244
	O414	O	0.032642	0.061814	1.111794
	H415	H	0.034107	0.058165	1.108154
	H416	H	0.021802	0.065643	1.110960
	O417	O	0.893556	-0.122337	1.141112
	H418	H	0.899047	-0.123331	1.135673
	H419	H	0.913514	-0.122630	1.136323
	O420	O	0.538055	1.410625	-0.308031
	H421	H	0.543057	1.415306	-0.307762
	H422	H	0.520149	1.396969	-0.298740
	O423	O	1.166297	-0.068202	0.108202
	H424	H	1.171595	-0.069299	0.094492
	H425	H	1.158915	-0.069484	0.130051
	O426	O	0.210655	-0.191613	0.946903
	H427	H	0.226935	-0.204633	0.943384
	H428	H	0.212576	-0.182797	0.934561
	O429	O	0.214616	0.242625	1.293779
	H430	H	0.204337	0.233949	1.282547
	H431	H	0.224757	0.244857	1.294495
