data_Molecule from HDF5

_cell_length_a		16.190759
_cell_length_b		16.361571
_cell_length_c		16.250674
_cell_angle_alpha	90.376113
_cell_angle_beta	89.759864
_cell_angle_gamma	89.697928
_symmetry_space_group_name_H-M	'P 1'
_symmetry_Int_Tables_number		1

loop_
	_symmetry_equiv_pos_as_xyz
	x,y,z

loop_
	_atom_site_label
	_atom_site_type_symbol
	_atom_site_fract_x
	_atom_site_fract_y
	_atom_site_fract_z
	H0	H	0.402623	0.835778	0.707507
	H1	H	0.600459	0.161039	0.709363
	H2	H	0.602820	0.836361	0.274234
	H3	H	0.401043	0.161168	0.277030
	H4	H	0.717177	0.399640	0.827061
	H5	H	0.712981	0.596340	0.155984
	H6	H	0.288201	0.597160	0.827752
	H7	H	0.287475	0.403374	0.155240
	H8	H	0.837239	0.713897	0.392881
	H9	H	0.164780	0.713368	0.591033
	H10	H	0.836492	0.287384	0.590856
	H11	H	0.164887	0.282010	0.390679
	H12	H	0.837119	0.403347	0.705412
	H13	H	0.165318	0.597596	0.705126
	H14	H	0.836515	0.596318	0.280343
	H15	H	0.166307	0.400181	0.278038
	H16	H	0.401807	0.714484	0.828267
	H17	H	0.600333	0.714095	0.155145
	H18	H	0.605413	0.279842	0.829289
	H19	H	0.401079	0.286026	0.155230
	H20	H	0.716998	0.835962	0.392420
	H21	H	0.714139	0.162454	0.591411
	H22	H	0.286725	0.835137	0.590322
	H23	H	0.285917	0.161307	0.395327
	H24	H	0.902358	0.336606	0.206452
	H25	H	0.100769	0.661876	0.208961
	H26	H	0.102119	0.336545	0.774076
	H27	H	0.902890	0.662951	0.778215
	H28	H	0.215989	0.898028	0.328128
	H29	H	0.212953	0.096375	0.656455
	H30	H	0.788442	0.095102	0.327820
	H31	H	0.788639	0.904449	0.656318
	H32	H	0.338595	0.214908	0.893413
	H33	H	0.666369	0.212930	0.091824
	H34	H	0.337736	0.786732	0.090414
	H35	H	0.665920	0.782614	0.890623
	H36	H	0.337795	0.902548	0.204849
	H37	H	0.666385	0.097022	0.205527
	H38	H	0.337011	0.097076	0.779643
	H39	H	0.666445	0.899458	0.776910
	H40	H	0.900084	0.213618	0.328170
	H41	H	0.099497	0.215367	0.655535
	H42	H	0.101513	0.781951	0.328994
	H43	H	0.899504	0.784616	0.654577
	H44	H	0.219595	0.336673	0.889499
	H45	H	0.214220	0.663351	0.089006
	H46	H	0.788495	0.335416	0.087113
	H47	H	0.786507	0.662357	0.894041
	H48	H	0.406926	0.113269	0.584232
	H49	H	0.593094	0.884899	0.581595
	H50	H	0.584489	0.111628	0.399922
	H51	H	0.405916	0.882172	0.400728
	H52	H	0.600162	0.412827	0.107845
	H53	H	0.603065	0.591087	0.872327
	H54	H	0.413137	0.593788	0.106328
	H55	H	0.412841	0.399982	0.873063
	H56	H	0.118520	0.588371	0.398649
	H57	H	0.883864	0.581296	0.593711
	H58	H	0.117869	0.399983	0.576688
	H59	H	0.884378	0.415524	0.391932
	H60	H	0.115515	0.413576	0.579454
	H61	H	0.878606	0.605726	0.590506
	H62	H	0.119866	0.593599	0.397806
	H63	H	0.878957	0.395243	0.393335
	H64	H	0.406685	0.598941	0.110900
	H65	H	0.591136	0.584224	0.877493
	H66	H	0.586005	0.406471	0.105021
	H67	H	0.406208	0.408586	0.874627
	H68	H	0.600197	0.114599	0.405849
	H69	H	0.598366	0.882281	0.582748
	H70	H	0.406767	0.114341	0.587626
	H71	H	0.408588	0.881793	0.393288
	H72	H	0.903128	0.614517	0.080220
	H73	H	0.096863	0.382585	0.083656
	H74	H	0.093207	0.614356	0.899255
	H75	H	0.914972	0.386143	0.900283
	H76	H	0.088384	0.908476	0.606442
	H77	H	0.092924	0.093253	0.375120
	H78	H	0.904232	0.096607	0.610416
	H79	H	0.904835	0.908914	0.374292
	H80	H	0.620187	0.096495	0.900947
	H81	H	0.382732	0.096488	0.089095
	H82	H	0.619159	0.911454	0.086436
	H83	H	0.386188	0.907365	0.904050
	H84	H	0.623400	0.898123	0.087885
	H85	H	0.386235	0.095728	0.078565
	H86	H	0.616424	0.085912	0.905367
	H87	H	0.385489	0.909549	0.897261
	H88	H	0.908377	0.091569	0.608315
	H89	H	0.095748	0.089070	0.374440
	H90	H	0.092833	0.899933	0.610845
	H91	H	0.915289	0.907481	0.377020
	H92	H	0.097524	0.615443	0.899229
	H93	H	0.093706	0.384038	0.083705
	H94	H	0.904873	0.618122	0.092886
	H95	H	0.905606	0.383116	0.900116
	H96	H	0.409270	0.113622	0.586315
	H97	H	0.593983	0.881520	0.586857
	H98	H	0.597131	0.117634	0.389629
	H99	H	0.412986	0.884111	0.397984
	H100	H	0.597526	0.397753	0.111552
	H101	H	0.589974	0.598406	0.873462
	H102	H	0.405049	0.590533	0.108591
	H103	H	0.416788	0.409120	0.878033
	H104	H	0.117130	0.591033	0.402628
	H105	H	0.887924	0.592114	0.570801
	H106	H	0.120735	0.404696	0.590112
	H107	H	0.887282	0.405575	0.410676
	H108	H	0.914827	0.612444	0.085987
	H109	H	0.095355	0.385059	0.081242
	H110	H	0.094994	0.614931	0.895688
	H111	H	0.910814	0.382096	0.891945
	H112	H	0.098711	0.909326	0.609600
	H113	H	0.090467	0.088803	0.377143
	H114	H	0.910766	0.097307	0.609330
	H115	H	0.909968	0.899343	0.372616
	H116	H	0.619172	0.086861	0.894369
	H117	H	0.386495	0.087295	0.085756
	H118	H	0.618313	0.903262	0.076265
	H119	H	0.383463	0.902793	0.899086
	C120	C	0.379295	0.006366	0.614541
	C121	C	0.622979	0.990618	0.613205
	C122	C	0.623995	0.007416	0.368981
	C123	C	0.379660	0.990002	0.369627
	C124	C	0.624476	0.376463	-0.000200
	C125	C	0.622624	0.619804	0.983001
	C126	C	0.380171	0.621734	0.000146
	C127	C	0.381613	0.378023	0.983206
	C128	C	0.009939	0.619833	0.371073
	C129	C	0.992408	0.620999	0.613204
	C130	C	0.009683	0.378467	0.611638
	C131	C	0.992455	0.376263	0.369437
	C132	C	0.879651	0.507260	0.113563
	C133	C	0.123356	0.491347	0.112759
	C134	C	0.124888	0.507616	0.868127
	C135	C	0.880671	0.491098	0.869453
	C136	C	0.122708	0.876674	0.500618
	C137	C	0.121911	0.120083	0.483585
	C138	C	0.879038	0.122141	0.500747
	C139	C	0.880376	0.877817	0.483040
	C140	C	0.510649	0.119752	0.870962
	C141	C	0.493759	0.120965	0.113547
	C142	C	0.511232	0.877348	0.112366
	C143	C	0.493322	0.877037	0.870260
	C144	C	0.381861	0.884226	0.669747
	C145	C	0.620290	0.112810	0.670178
	C146	C	0.622549	0.884813	0.312957
	C147	C	0.381085	0.112596	0.315298
	C148	C	0.679881	0.378523	0.876465
	C149	C	0.676612	0.617382	0.106620
	C150	C	0.325552	0.618338	0.876703
	C151	C	0.325353	0.382084	0.106358
	C152	C	0.886238	0.675893	0.372945
	C153	C	0.115794	0.675781	0.611225
	C154	C	0.885918	0.324420	0.610754
	C155	C	0.115944	0.320285	0.370767
	C156	C	0.886016	0.382177	0.667537
	C157	C	0.116207	0.617929	0.667677
	C158	C	0.885803	0.617131	0.317115
	C159	C	0.116675	0.379019	0.314689
	C160	C	0.382283	0.676458	0.877060
	C161	C	0.620463	0.676009	0.106217
	C162	C	0.624100	0.319261	0.877390
	C163	C	0.382141	0.323906	0.106468
	C164	C	0.679617	0.884651	0.371471
	C165	C	0.676903	0.113652	0.611471
	C166	C	0.324166	0.883871	0.611530
	C167	C	0.323652	0.112464	0.373638
	C168	C	0.882247	0.384796	0.167931
	C169	C	0.120855	0.613474	0.169864
	C170	C	0.122862	0.385210	0.811964
	C171	C	0.882887	0.614064	0.815805
	C172	C	0.178030	0.878421	0.377228
	C173	C	0.175806	0.117545	0.607333
	C174	C	0.825174	0.117043	0.376872
	C175	C	0.825474	0.882305	0.606777
	C176	C	0.387319	0.176230	0.873060
	C177	C	0.617203	0.175315	0.111583
	C178	C	0.386925	0.823963	0.110380
	C179	C	0.616907	0.820788	0.870961
	C180	C	0.386977	0.881461	0.167186
	C181	C	0.617179	0.117559	0.168316
	C182	C	0.386535	0.117931	0.816568
	C183	C	0.617018	0.878629	0.814167
	C184	C	0.880779	0.175889	0.377286
	C185	C	0.119334	0.176395	0.606789
	C186	C	0.121224	0.820274	0.377662
	C187	C	0.880826	0.823037	0.606039
	C188	C	0.180929	0.385106	0.869707
	C189	C	0.177369	0.614275	0.110429
	C190	C	0.825517	0.384354	0.108973
	C191	C	0.825114	0.613925	0.873380
	C192	C	0.401220	0.091837	0.592478
	C193	C	0.601683	0.905038	0.590390
	C194	C	0.600869	0.092552	0.391835
	C195	C	0.402604	0.904598	0.390920
	C196	C	0.601305	0.399064	0.085869
	C197	C	0.601089	0.597642	0.896726
	C198	C	0.401913	0.600695	0.086267
	C199	C	0.405019	0.399663	0.897302
	C200	C	0.096295	0.597546	0.393161
	C201	C	0.906084	0.599265	0.591474
	C202	C	0.095803	0.399959	0.588908
	C203	C	0.905939	0.398853	0.391942
	C204	C	0.901279	0.592863	0.092610
	C205	C	0.101755	0.406047	0.089506
	C206	C	0.102114	0.592825	0.891240
	C207	C	0.903540	0.405802	0.891034
	C208	C	0.100023	0.899225	0.586820
	C209	C	0.099636	0.097316	0.397676
	C210	C	0.901127	0.101283	0.587010
	C211	C	0.903217	0.898984	0.396941
	C212	C	0.596464	0.096627	0.893633
	C213	C	0.407442	0.099366	0.091038
	C214	C	0.597849	0.898207	0.090146
	C215	C	0.407226	0.899746	0.893325
	Zn216	Zn	0.501390	-0.001628	0.742894
	Zn217	Zn	0.501996	-0.001286	0.240307
	Zn218	Zn	0.751533	0.499148	-0.008562
	Zn219	Zn	0.252964	0.499760	-0.009107
	Zn220	Zn	0.000763	0.748678	0.492031
	Zn221	Zn	0.000728	0.249413	0.491671
	Zn222	Zn	0.001586	0.499345	0.740436
	Zn223	Zn	0.001695	0.498924	0.242549
	Zn224	Zn	0.502129	0.749178	-0.008189
	Zn225	Zn	0.502536	0.248836	-0.007606
	Zn226	Zn	0.752358	-0.000425	0.492015
	Zn227	Zn	0.250525	-0.001870	0.492358
	N228	N	0.415334	0.961284	0.671507
	N229	N	0.587340	0.035497	0.671277
	N230	N	0.588621	0.961975	0.311289
	N231	N	0.415277	0.035492	0.312688
	N232	N	0.680173	0.413545	0.953699
	N233	N	0.677813	0.583032	0.029114
	N234	N	0.324146	0.585063	0.954122
	N235	N	0.324723	0.414802	0.028593
	N236	N	0.964257	0.677527	0.406045
	N237	N	0.037892	0.677839	0.578209
	N238	N	0.963694	0.322197	0.576662
	N239	N	0.037602	0.318325	0.403746
	N240	N	0.964067	0.415163	0.668387
	N241	N	0.038307	0.584560	0.669222
	N242	N	0.963803	0.583203	0.315677
	N243	N	0.038836	0.413358	0.313876
	N244	N	0.415210	0.678964	0.954942
	N245	N	0.587559	0.677604	0.028280
	N246	N	0.590213	0.318160	0.955217
	N247	N	0.416338	0.321192	0.028756
	N248	N	0.680617	0.961891	0.405767
	N249	N	0.678705	0.036727	0.576570
	N250	N	0.322629	0.960855	0.577759
	N251	N	0.322574	0.035231	0.406625
	N252	N	0.914969	0.462131	0.171150
	N253	N	0.088026	0.536057	0.171394
	N254	N	0.088752	0.462332	0.810850
	N255	N	0.916951	0.536869	0.813424
	N256	N	0.178734	0.913089	0.454648
	N257	N	0.177265	0.082836	0.529993
	N258	N	0.823887	0.084247	0.454698
	N259	N	0.825229	0.915816	0.529394
	N260	N	0.465364	0.177635	0.906147
	N261	N	0.539277	0.177557	0.078347
	N262	N	0.465146	0.821283	0.076999
	N263	N	0.539104	0.819588	0.905117
	N264	N	0.465121	0.913922	0.168556
	N265	N	0.539322	0.084486	0.169734
	N266	N	0.464280	0.083484	0.815097
	N267	N	0.539161	0.912871	0.813625
	N268	N	0.913346	0.179263	0.455231
	N269	N	0.086711	0.178176	0.528660
	N270	N	0.087491	0.819158	0.455466
	N271	N	0.914261	0.820130	0.528084
	N272	N	0.182351	0.462390	0.903716
	N273	N	0.179042	0.537421	0.075401
	N274	N	0.823846	0.461479	0.075884
	N275	N	0.823574	0.536555	0.906160
	O276	O	0.973533	0.993238	0.075600
	H277	H	0.975749	1.006667	0.071382
	H278	H	0.963173	0.998648	0.085079
	O279	O	-0.040953	0.009620	0.983090
	H280	H	-0.036270	0.018676	0.984571
	H281	H	-0.042261	0.008864	0.984774
	O282	O	0.014986	0.026749	0.033273
	H283	H	0.005382	0.038057	0.034320
	H284	H	0.005533	0.020657	0.025983
	O285	O	0.522322	0.450573	0.453299
	H286	H	0.529008	0.455750	0.447888
	H287	H	0.526301	0.453527	0.462313
	O288	O	-0.054000	0.077529	0.011044
	H289	H	-0.054636	0.078258	-0.000003
	H290	H	-0.042611	0.080811	0.003309
	O291	O	0.030450	0.933936	-0.080263
	H292	H	0.036105	0.930333	-0.083926
	H293	H	0.040606	0.931270	-0.065275
	O294	O	0.029643	0.977673	0.027712
	H295	H	0.035182	0.987115	0.038315
	H296	H	0.032564	0.976798	0.039011
	O297	O	0.363319	0.415754	0.577320
	H298	H	0.353137	0.413037	0.583264
	H299	H	0.369278	0.416713	0.573033
	O300	O	0.519907	0.447978	0.503573
	H301	H	0.522809	0.443717	0.506007
	H302	H	0.517419	0.445620	0.507820
	O303	O	1.051047	-0.037066	0.992189
	H304	H	1.061342	-0.044486	0.998361
	H305	H	1.045426	-0.042923	0.985488
	O306	O	0.003543	1.053323	1.019791
	H307	H	0.008202	1.057076	1.017372
	H308	H	0.012373	1.045728	1.025081
	O309	O	0.132779	1.040830	1.044721
	H310	H	0.132816	1.036546	1.044647
	H311	H	0.116542	1.031332	1.044131
	O312	O	0.089439	-0.005036	1.071188
	H313	H	0.092149	-0.010413	1.061502
	H314	H	0.097578	-0.009676	1.077218
	O315	O	0.523491	0.456329	0.510861
	H316	H	0.521634	0.458511	0.513432
	H317	H	0.534505	0.449435	0.510164
	O318	O	-0.028859	0.006750	1.064884
	H319	H	-0.027468	0.008446	1.071926
	H320	H	-0.033266	0.005077	1.061364
	O321	O	0.528859	0.495424	0.511137
	H322	H	0.513517	0.497470	0.511007
	H323	H	0.520922	0.492959	0.521148
	O324	O	0.984493	0.044020	1.000152
	H325	H	0.981682	0.051346	1.002984
	H326	H	0.983121	0.044000	0.994651
	O327	O	1.114966	1.064907	1.044412
	H328	H	1.124065	1.065704	1.051162
	H329	H	1.113412	1.070669	1.050977
	O330	O	0.456871	0.502318	0.471890
	H331	H	0.468682	0.502443	0.475931
	H332	H	0.447953	0.509467	0.483818
	O333	O	0.554390	0.428466	0.497465
	H334	H	0.552508	0.418206	0.499054
	H335	H	0.556008	0.442365	0.498750
	O336	O	0.595888	0.472579	0.486652
	H337	H	0.596542	0.472921	0.483333
	H338	H	0.597630	0.473897	0.484298
	O339	O	0.392356	0.467775	0.472779
	H340	H	0.394479	0.462973	0.465728
	H341	H	0.393051	0.470769	0.467822
	O342	O	0.466240	0.486952	0.513535
	H343	H	0.464573	0.479481	0.516681
	H344	H	0.474726	0.489196	0.515518
	O345	O	0.550170	0.505016	0.573352
	H346	H	0.550577	0.502909	0.579388
	H347	H	0.543094	0.498670	0.567380
