data_Molecule from HDF5

_cell_length_a		16.506126
_cell_length_b		16.553431
_cell_length_c		16.608144
_cell_angle_alpha	89.942217
_cell_angle_beta	89.996035
_cell_angle_gamma	90.091393
_symmetry_space_group_name_H-M	'P 1'
_symmetry_Int_Tables_number		1

loop_
	_symmetry_equiv_pos_as_xyz
	x,y,z

loop_
	_atom_site_label
	_atom_site_type_symbol
	_atom_site_fract_x
	_atom_site_fract_y
	_atom_site_fract_z
	H0	H	0.413388	0.839202	0.714340
	H1	H	0.624782	0.152055	0.715213
	H2	H	0.626408	0.841053	0.268785
	H3	H	0.414325	0.152049	0.273098
	H4	H	0.735984	0.393800	0.835582
	H5	H	0.740770	0.603108	0.149334
	H6	H	0.297454	0.600469	0.836598
	H7	H	0.295521	0.390864	0.148535
	H8	H	0.860116	0.719289	0.385827
	H9	H	0.174204	0.714567	0.595285
	H10	H	0.859946	0.272634	0.598607
	H11	H	0.174691	0.278394	0.390458
	H12	H	0.860099	0.388345	0.714960
	H13	H	0.173826	0.598797	0.711965
	H14	H	0.859482	0.604271	0.268987
	H15	H	0.172793	0.393092	0.272276
	H16	H	0.412460	0.718177	0.837896
	H17	H	0.626193	0.720552	0.148701
	H18	H	0.620864	0.276530	0.835779
	H19	H	0.411424	0.274146	0.148221
	H20	H	0.739096	0.839281	0.388257
	H21	H	0.739525	0.152678	0.597911
	H22	H	0.296813	0.839457	0.598165
	H23	H	0.299733	0.153018	0.391275
	H24	H	0.908741	0.340156	0.216365
	H25	H	0.124926	0.650338	0.216320
	H26	H	0.121624	0.339908	0.771199
	H27	H	0.908693	0.650823	0.769120
	H28	H	0.240751	0.890023	0.337144
	H29	H	0.236889	0.099071	0.649738
	H30	H	0.792898	0.102895	0.337299
	H31	H	0.793690	0.887028	0.647592
	H32	H	0.361034	0.215785	0.888396
	H33	H	0.673241	0.220728	0.100113
	H34	H	0.361314	0.774956	0.099255
	H35	H	0.672750	0.770122	0.884373
	H36	H	0.362223	0.889631	0.216098
	H37	H	0.673390	0.106411	0.218178
	H38	H	0.362156	0.102147	0.770559
	H39	H	0.673364	0.887267	0.768603
	H40	H	0.908945	0.220094	0.336984
	H41	H	0.120158	0.215270	0.649307
	H42	H	0.126001	0.771655	0.338033
	H43	H	0.909236	0.770329	0.646423
	H44	H	0.239519	0.340776	0.886058
	H45	H	0.240259	0.651160	0.099555
	H46	H	0.793439	0.339511	0.099825
	H47	H	0.794657	0.652064	0.886768
	H48	H	0.429937	0.107433	0.581950
	H49	H	0.601289	0.885129	0.582924
	H50	H	0.603126	0.105667	0.406990
	H51	H	0.427483	0.883814	0.408434
	H52	H	0.602454	0.401680	0.105562
	H53	H	0.613305	0.583601	0.880599
	H54	H	0.423475	0.584221	0.106217
	H55	H	0.431307	0.409143	0.882653
	H56	H	0.130485	0.587804	0.398959
	H57	H	0.903669	0.580691	0.582737
	H58	H	0.130178	0.404321	0.582759
	H59	H	0.902928	0.406974	0.403470
	H60	H	0.128105	0.406959	0.582064
	H61	H	0.902776	0.586045	0.581714
	H62	H	0.126687	0.586256	0.409817
	H63	H	0.903954	0.406886	0.407512
	H64	H	0.431328	0.581672	0.102847
	H65	H	0.600470	0.576313	0.887617
	H66	H	0.611053	0.407563	0.106682
	H67	H	0.429981	0.401921	0.879461
	H68	H	0.608088	0.108624	0.405437
	H69	H	0.605341	0.885745	0.577352
	H70	H	0.427704	0.108977	0.582435
	H71	H	0.426408	0.880646	0.400498
	H72	H	0.926327	0.608914	0.083746
	H73	H	0.098431	0.386568	0.080490
	H74	H	0.104326	0.607271	0.903205
	H75	H	0.928992	0.385535	0.908395
	H76	H	0.107941	0.908953	0.604181
	H77	H	0.107404	0.089119	0.379702
	H78	H	0.933781	0.090060	0.603186
	H79	H	0.930007	0.909173	0.382520
	H80	H	0.630277	0.080753	0.901829
	H81	H	0.407002	0.082087	0.083669
	H82	H	0.630367	0.906043	0.078545
	H83	H	0.406082	0.902168	0.910202
	H84	H	0.628003	0.913238	0.079064
	H85	H	0.405140	0.085286	0.083516
	H86	H	0.632414	0.089152	0.902080
	H87	H	0.410446	0.915644	0.905853
	H88	H	0.922702	0.084480	0.605112
	H89	H	0.110628	0.087888	0.378844
	H90	H	0.103292	0.905339	0.603114
	H91	H	0.930091	0.909364	0.382400
	H92	H	0.106867	0.608905	0.903063
	H93	H	0.107323	0.385065	0.075488
	H94	H	0.934039	0.606007	0.081874
	H95	H	0.921026	0.382240	0.903225
	H96	H	0.429715	0.108851	0.583976
	H97	H	0.608277	0.882763	0.583332
	H98	H	0.603661	0.108183	0.401952
	H99	H	0.433892	0.884393	0.402822
	H100	H	0.602654	0.411921	0.102071
	H101	H	0.599259	0.591422	0.883061
	H102	H	0.430258	0.590111	0.106001
	H103	H	0.424332	0.407793	0.879982
	H104	H	0.125619	0.577615	0.402195
	H105	H	0.905275	0.582920	0.577977
	H106	H	0.129954	0.406490	0.584716
	H107	H	0.905080	0.410193	0.404998
	H108	H	0.927663	0.605869	0.076019
	H109	H	0.106262	0.382193	0.085606
	H110	H	0.105199	0.608740	0.900767
	H111	H	0.930183	0.383308	0.899235
	H112	H	0.108184	0.903450	0.605193
	H113	H	0.107705	0.085408	0.380227
	H114	H	0.932647	0.078063	0.600118
	H115	H	0.930283	0.908852	0.382702
	H116	H	0.628415	0.085234	0.909164
	H117	H	0.406447	0.084293	0.080822
	H118	H	0.631446	0.909492	0.085150
	H119	H	0.403439	0.906540	0.896438
	C120	C	0.396972	0.004495	0.614885
	C121	C	0.638712	0.987560	0.614192
	C122	C	0.638939	0.004578	0.371848
	C123	C	0.396910	0.986740	0.372149
	C124	C	0.637707	0.375098	0.001151
	C125	C	0.638625	0.617642	0.985685
	C126	C	0.395857	0.617908	0.001982
	C127	C	0.395649	0.374204	0.983921
	C128	C	0.024733	0.617721	0.370085
	C129	C	1.008009	0.615157	0.612716
	C130	C	0.025295	0.373295	0.615011
	C131	C	1.007680	0.376205	0.372870
	C132	C	0.895285	0.504380	0.114256
	C133	C	0.137400	0.487337	0.113571
	C134	C	0.138036	0.504845	0.870652
	C135	C	0.894692	0.487415	0.871575
	C136	C	0.139367	0.873849	0.501161
	C137	C	0.139572	0.118106	0.483830
	C138	C	0.895931	0.117619	0.500586
	C139	C	0.896655	0.875041	0.484610
	C140	C	0.526606	0.116840	0.872223
	C141	C	0.509190	0.117604	0.114992
	C142	C	0.526468	0.876113	0.113977
	C143	C	0.509554	0.874404	0.871402
	C144	C	0.394886	0.886374	0.674528
	C145	C	0.642811	0.104988	0.675137
	C146	C	0.643244	0.887433	0.310409
	C147	C	0.395514	0.105168	0.313139
	C148	C	0.696648	0.374534	0.882867
	C149	C	0.700665	0.621304	0.102328
	C150	C	0.336702	0.619534	0.884131
	C151	C	0.335446	0.372283	0.101393
	C152	C	0.906851	0.678963	0.367464
	C153	C	0.126692	0.674767	0.614219
	C154	C	0.907099	0.312884	0.616874
	C155	C	0.127106	0.317706	0.371358
	C156	C	0.907272	0.370354	0.674858
	C157	C	0.126557	0.617368	0.672389
	C158	C	0.906762	0.621663	0.309323
	C159	C	0.126115	0.374385	0.312507
	C160	C	0.393699	0.678252	0.884777
	C161	C	0.643261	0.679619	0.102151
	C162	C	0.639454	0.316178	0.882934
	C163	C	0.393109	0.314198	0.101424
	C164	C	0.699548	0.886652	0.369627
	C165	C	0.699740	0.105303	0.616594
	C166	C	0.337000	0.886401	0.616741
	C167	C	0.338481	0.105572	0.371793
	C168	C	0.891057	0.387000	0.175985
	C169	C	0.142090	0.603776	0.175489
	C170	C	0.140273	0.387058	0.810943
	C171	C	0.891328	0.604326	0.810031
	C172	C	0.200632	0.871558	0.384074
	C173	C	0.197653	0.118268	0.602107
	C174	C	0.833976	0.120982	0.383699
	C175	C	0.834560	0.870066	0.600910
	C176	C	0.408424	0.176286	0.869762
	C177	C	0.626636	0.179755	0.118121
	C178	C	0.408692	0.815132	0.117138
	C179	C	0.626443	0.811904	0.867506
	C180	C	0.409064	0.872129	0.175415
	C181	C	0.626610	0.122763	0.176777
	C182	C	0.409060	0.119554	0.811199
	C183	C	0.626677	0.869845	0.809784
	C184	C	0.891632	0.179290	0.383653
	C185	C	0.139644	0.176116	0.602221
	C186	C	0.143607	0.812659	0.384463
	C187	C	0.892004	0.811814	0.600279
	C188	C	0.198608	0.387351	0.868145
	C189	C	0.199483	0.604244	0.117329
	C190	C	0.833507	0.386921	0.118061
	C191	C	0.834575	0.605021	0.868626
	C192	C	0.422058	0.086953	0.590028
	C193	C	0.612635	0.905890	0.588586
	C194	C	0.612606	0.086087	0.397434
	C195	C	0.421859	0.904346	0.396752
	C196	C	0.612505	0.399756	0.083315
	C197	C	0.611986	0.591300	0.904884
	C198	C	0.421061	0.592649	0.083853
	C199	C	0.421165	0.399119	0.901937
	C200	C	0.106305	0.591491	0.396132
	C201	C	0.925463	0.590426	0.587860
	C202	C	0.108010	0.398656	0.590257
	C203	C	0.925591	0.400923	0.398060
	C204	C	0.921916	0.585664	0.088144
	C205	C	0.111440	0.405814	0.087633
	C206	C	0.112719	0.587034	0.895488
	C207	C	0.919625	0.405140	0.896517
	C208	C	0.113676	0.898854	0.582760
	C209	C	0.115417	0.094357	0.401090
	C210	C	0.922217	0.091574	0.581510
	C211	C	0.922910	0.901510	0.403428
	C212	C	0.609065	0.092107	0.897421
	C213	C	0.427559	0.091316	0.089607
	C214	C	0.608461	0.902209	0.088278
	C215	C	0.427946	0.900579	0.897033
	Zn216	Zn	0.518500	-0.003854	0.743258
	Zn217	Zn	0.518181	-0.003697	0.243225
	Zn218	Zn	0.766817	0.496234	-0.006864
	Zn219	Zn	0.266591	0.495886	-0.007527
	Zn220	Zn	0.016931	0.745158	0.492111
	Zn221	Zn	0.016944	0.246740	0.492319
	Zn222	Zn	0.015727	0.495683	0.742828
	Zn223	Zn	0.015860	0.495945	0.242765
	Zn224	Zn	0.517958	0.746761	-0.005945
	Zn225	Zn	0.517547	0.245706	-0.006809
	Zn226	Zn	0.767329	-0.004075	0.493184
	Zn227	Zn	0.268400	-0.004730	0.493562
	N228	N	0.431379	0.961082	0.673793
	N229	N	0.605891	0.030559	0.674152
	N230	N	0.606231	0.961648	0.311629
	N231	N	0.430846	0.030121	0.313114
	N232	N	0.696052	0.410145	0.957495
	N233	N	0.697953	0.583534	0.028860
	N234	N	0.337721	0.582729	0.958117
	N235	N	0.336813	0.408644	0.027178
	N236	N	0.981347	0.676892	0.404266
	N237	N	0.051843	0.673934	0.578082
	N238	N	0.981662	0.314680	0.580343
	N239	N	0.052550	0.318538	0.407958
	N240	N	0.981859	0.407257	0.673876
	N241	N	0.051526	0.581286	0.671887
	N242	N	0.981097	0.584610	0.310539
	N243	N	0.050970	0.410018	0.313279
	N244	N	0.429642	0.677565	0.959380
	N245	N	0.605471	0.677675	0.028548
	N246	N	0.603888	0.316143	0.957839
	N247	N	0.429740	0.315047	0.027168
	N248	N	0.697144	0.960608	0.406955
	N249	N	0.697472	0.031137	0.579663
	N250	N	0.338073	0.961035	0.580788
	N251	N	0.338911	0.030771	0.407571
	N252	N	0.928441	0.461153	0.173896
	N253	N	0.103982	0.530188	0.173185
	N254	N	0.103458	0.461334	0.812186
	N255	N	0.927951	0.529886	0.811584
	N256	N	0.198292	0.908883	0.457764
	N257	N	0.197744	0.082905	0.527348
	N258	N	0.836449	0.083327	0.457252
	N259	N	0.837334	0.908839	0.527773
	N260	N	0.482469	0.174690	0.907072
	N261	N	0.552724	0.176778	0.080323
	N262	N	0.482778	0.817494	0.079666
	N263	N	0.552391	0.814446	0.905151
	N264	N	0.483462	0.909291	0.173659
	N265	N	0.552729	0.084678	0.174837
	N266	N	0.483715	0.083111	0.812614
	N267	N	0.553045	0.907930	0.811914
	N268	N	0.929480	0.177237	0.457286
	N269	N	0.104171	0.176237	0.527423
	N270	N	0.106048	0.814061	0.458170
	N271	N	0.930047	0.814992	0.526955
	N272	N	0.197554	0.461802	0.904443
	N273	N	0.196690	0.530826	0.079150
	N274	N	0.835757	0.460887	0.080353
	N275	N	0.836470	0.531211	0.906196
	O276	O	0.875820	0.816536	-0.169965
	H277	H	0.885463	0.823169	-0.159858
	H278	H	0.846340	0.796284	-0.175176
	O279	O	-0.015153	0.188119	0.834157
	H280	H	-0.009311	0.192245	0.818743
	H281	H	-0.004525	0.189981	0.846605
	O282	O	0.444994	0.574309	0.657128
	H283	H	0.453538	0.569856	0.670142
	H284	H	0.448954	0.570990	0.657637
	O285	O	0.711806	1.337192	0.499188
	H286	H	0.713630	1.319092	0.503773
	H287	H	0.714451	1.355466	0.500813
	O288	O	1.246429	-0.227179	1.269916
	H289	H	1.223086	-0.232855	1.261327
	H290	H	1.233411	-0.232797	1.282566
	O291	O	0.895515	0.966557	0.772941
	H292	H	0.879544	0.968464	0.775614
	H293	H	0.897680	0.983899	0.773040
	O294	O	-0.198142	-0.033181	0.208013
	H295	H	-0.221338	-0.022687	0.220027
	H296	H	-0.199958	-0.012594	0.199629
	O297	O	0.919428	0.064989	0.130668
	H298	H	0.921849	0.046909	0.124661
	H299	H	0.919764	0.056688	0.123199
	O300	O	-0.200484	-0.218420	0.012802
	H301	H	-0.231870	-0.248065	0.013649
	H302	H	-0.175419	-0.209677	0.026036
	O303	O	-0.266750	0.376212	-0.497497
	H304	H	-0.259807	0.377890	-0.496260
	H305	H	-0.276288	0.382548	-0.477862
	O306	O	0.519110	-0.475079	0.275459
	H307	H	0.521194	-0.465345	0.281978
	H308	H	0.519684	-0.493145	0.271990
	O309	O	-0.204116	1.215584	0.964052
	H310	H	-0.234248	1.239360	0.962311
	H311	H	-0.198695	1.208644	0.928923
	O312	O	0.534819	0.476699	0.570136
	H313	H	0.522498	0.485732	0.567740
	H314	H	0.549446	0.488754	0.579384
	O315	O	0.154690	-0.039702	0.067700
	H316	H	0.165771	-0.032638	0.061618
	H317	H	0.143375	-0.035296	0.075318
	O318	O	1.236659	1.213637	0.076221
	H319	H	1.239921	1.205994	0.085585
	H320	H	1.248126	1.220769	0.082560
	O321	O	0.074723	0.837169	1.012210
	H322	H	0.095317	0.838273	1.004632
	H323	H	0.069746	0.828745	1.001050
	O324	O	1.048525	-0.220093	0.774815
	H325	H	1.050997	-0.231868	0.762470
	H326	H	1.038664	-0.218234	0.773218
	O327	O	0.707136	0.683880	0.685587
	H328	H	0.677168	0.677033	0.681317
	H329	H	0.709129	0.670214	0.652476
	O330	O	-0.004655	0.778031	0.216292
	H331	H	-0.014372	0.766793	0.213816
	H332	H	-0.019167	0.758023	0.227275
	O333	O	0.197176	0.106776	-0.004548
	H334	H	0.202798	0.125932	-0.009579
	H335	H	0.179934	0.110894	-0.006690
	O336	O	0.192877	1.187436	0.827468
	H337	H	0.186757	1.184169	0.837684
	H338	H	0.164342	1.167141	0.831259
	O339	O	0.425747	0.698034	0.431616
	H340	H	0.434442	0.674507	0.426407
	H341	H	0.428811	0.701045	0.428417
	O342	O	-0.071639	1.015232	0.096147
	H343	H	-0.073297	1.025080	0.080324
	H344	H	-0.072695	1.007010	0.095373
	O345	O	0.328674	0.589592	0.513861
	H346	H	0.305437	0.595176	0.516833
	H347	H	0.343419	0.576539	0.510476
	O348	O	0.006200	1.009246	1.124508
	H349	H	0.008498	1.012915	1.128282
	H350	H	-0.000526	0.991408	1.112231
	O351	O	0.674423	0.638243	1.422177
	H352	H	0.660211	0.636785	1.396982
	H353	H	0.670380	0.639351	1.430864
	O354	O	1.250417	-0.204199	1.210713
	H355	H	1.250232	-0.188871	1.202894
	H356	H	1.237747	-0.201105	1.209899
	O357	O	0.398688	0.532467	0.551060
	H358	H	0.389303	0.546861	0.557716
	H359	H	0.408307	0.547906	0.523171
	O360	O	0.645828	0.482157	0.349020
	H361	H	0.635420	0.479696	0.339480
	H362	H	0.653772	0.480335	0.337543
	O363	O	0.643679	0.683393	0.617503
	H364	H	0.622259	0.676779	0.617634
	H365	H	0.635461	0.690968	0.619775
	O366	O	0.255455	0.244425	0.236012
	H367	H	0.234933	0.241622	0.237098
	H368	H	0.269699	0.236797	0.244348
	O369	O	0.029266	-0.012312	0.771008
	H370	H	0.020492	-0.023147	0.762993
	H371	H	0.030532	-0.024003	0.773554
	O372	O	0.047531	0.965941	0.901340
	H373	H	0.050608	0.958405	0.908016
	H374	H	0.045628	0.960169	0.895658
	O375	O	1.071522	0.059244	0.109999
	H376	H	1.067329	0.040437	0.122609
	H377	H	1.077956	0.066950	0.116756
	O378	O	0.628873	0.502668	0.697969
	H379	H	0.635345	0.491678	0.679029
	H380	H	0.641917	0.501266	0.701298
	O381	O	-0.506833	1.286392	-0.297174
	H382	H	-0.509126	1.285670	-0.297596
	H383	H	-0.522434	1.272243	-0.293098
	O384	O	0.397939	0.557437	0.367547
	H385	H	0.411666	0.561192	0.377115
	H386	H	0.390784	0.552895	0.362293
	O387	O	0.389456	1.366592	1.455522
	H388	H	0.369862	1.347907	1.458233
	H389	H	0.387050	1.379183	1.463656
	O390	O	-0.766517	0.798295	0.965961
	H391	H	-0.749010	0.784497	0.950933
	H392	H	-0.755794	0.804945	0.976420
	O393	O	1.216311	-0.204301	-0.205839
	H394	H	1.186824	-0.213953	-0.194051
	H395	H	1.218570	-0.165345	-0.198986
	O396	O	0.958499	0.068877	0.849854
	H397	H	0.953647	0.069843	0.851423
	H398	H	0.955505	0.064955	0.847355
	O399	O	0.397403	0.375161	0.293840
	H400	H	0.411864	0.369849	0.299519
	H401	H	0.406564	0.385447	0.302307
	O402	O	1.017913	-0.012712	1.220448
	H403	H	1.010513	-0.010162	1.214746
	H404	H	1.014278	-0.018322	1.223470
	O405	O	0.046216	0.188171	0.189371
	H406	H	0.052128	0.207507	0.194830
	H407	H	0.049453	0.177427	0.192751
	O408	O	0.969898	1.189516	1.070062
	H409	H	0.972085	1.195008	1.078358
	H410	H	0.962764	1.178406	1.063650
	O411	O	1.698005	0.309411	-0.699612
	H412	H	1.718033	0.332872	-0.709095
	H413	H	1.708423	0.301766	-0.652358
	O414	O	0.357927	-0.712220	0.469010
	H415	H	0.340871	-0.720779	0.476373
	H416	H	0.343982	-0.723299	0.471402
	O417	O	0.505512	-0.345757	0.700461
	H418	H	0.492737	-0.349174	0.708067
	H419	H	0.527758	-0.354408	0.695799
	O420	O	1.319939	0.293874	0.692414
	H421	H	1.313514	0.348556	0.701235
	H422	H	1.319409	0.274127	0.716772
	O423	O	0.678711	1.549969	0.295497
	H424	H	0.663584	1.563221	0.290842
	H425	H	0.676991	1.553835	0.285755
	O426	O	0.057236	0.974153	0.018940
	H427	H	0.061744	0.975089	0.015270
	H428	H	0.059375	0.979419	0.020879
	O429	O	0.601395	0.333847	0.614433
	H430	H	0.599144	0.321557	0.602891
	H431	H	0.592209	0.336341	0.594365
	O432	O	1.046135	0.220042	0.915860
	H433	H	1.055509	0.216504	0.920188
	H434	H	1.032518	0.223103	0.936395
	O435	O	0.409662	0.623073	0.444601
	H436	H	0.422130	0.616195	0.449315
	H437	H	0.405249	0.629403	0.436700
	O438	O	0.544963	0.523224	0.486993
	H439	H	0.547531	0.524024	0.481583
	H440	H	0.532758	0.527828	0.482347
	O441	O	0.825927	0.805275	0.183281
	H442	H	0.817811	0.841646	0.181843
	H443	H	0.843915	0.809650	0.168197
	O444	O	0.440118	0.282287	0.534101
	H445	H	0.424634	0.279889	0.561003
	H446	H	0.414311	0.269429	0.535011
	O447	O	0.230188	-0.025605	0.982593
	H448	H	0.223300	-0.011965	0.988734
	H449	H	0.232761	-0.016084	0.981704
	O450	O	0.532022	0.716269	0.344077
	H451	H	0.509846	0.711719	0.354494
	H452	H	0.524215	0.730334	0.337100
	O453	O	0.533365	0.291016	0.284167
	H454	H	0.551028	0.269579	0.272757
	H455	H	0.567154	0.292971	0.295625
	O456	O	1.166813	1.018334	-0.139198
	H457	H	1.184378	1.029203	-0.154809
	H458	H	1.163168	1.024757	-0.129842
	O459	O	0.310577	0.704668	0.475308
	H460	H	0.299385	0.722357	0.477720
	H461	H	0.316107	0.696732	0.450687
	O462	O	0.727761	0.614253	0.494197
	H463	H	0.719963	0.614492	0.478320
	H464	H	0.735570	0.613939	0.474901
	O465	O	0.763035	0.243751	0.746805
	H466	H	0.770919	0.260498	0.736735
	H467	H	0.757423	0.227263	0.731655
	O468	O	-0.016189	0.855831	-0.038719
	H469	H	-0.004258	0.856403	-0.030393
	H470	H	-0.021311	0.864933	-0.049413
	O471	O	0.814023	0.082307	0.830077
	H472	H	0.837677	0.077560	0.832157
	H473	H	0.796942	0.081140	0.823378
	O474	O	0.880100	0.873541	-0.053357
	H475	H	0.875393	0.864624	-0.058358
	H476	H	0.887967	0.873580	-0.059573
	O477	O	-0.690783	0.461114	1.703661
	H478	H	-0.691534	0.477280	1.708232
	H479	H	-0.703588	0.480799	1.700852
