data_Molecule from HDF5

_cell_length_a		16.343283
_cell_length_b		16.314745
_cell_length_c		16.402911
_cell_angle_alpha	89.885068
_cell_angle_beta	90.173648
_cell_angle_gamma	89.878442
_symmetry_space_group_name_H-M	'P 1'
_symmetry_Int_Tables_number		1

loop_
	_symmetry_equiv_pos_as_xyz
	x,y,z

loop_
	_atom_site_label
	_atom_site_type_symbol
	_atom_site_fract_x
	_atom_site_fract_y
	_atom_site_fract_z
	H0	H	0.397819	0.829635	0.719878
	H1	H	0.601651	0.153108	0.719000
	H2	H	0.604765	0.829986	0.283191
	H3	H	0.394108	0.150739	0.278673
	H4	H	0.714895	0.389004	0.841027
	H5	H	0.717542	0.593192	0.162481
	H6	H	0.275910	0.595188	0.842750
	H7	H	0.278156	0.386740	0.163133
	H8	H	0.837256	0.711268	0.399864
	H9	H	0.157400	0.712286	0.608110
	H10	H	0.836280	0.276061	0.600498
	H11	H	0.159847	0.274288	0.399918
	H12	H	0.835895	0.390837	0.717087
	H13	H	0.156839	0.596524	0.724012
	H14	H	0.836498	0.596661	0.282148
	H15	H	0.158131	0.387083	0.281544
	H16	H	0.393339	0.711107	0.842429
	H17	H	0.600250	0.708181	0.163462
	H18	H	0.599210	0.273365	0.841337
	H19	H	0.396633	0.271692	0.163532
	H20	H	0.717107	0.829133	0.402417
	H21	H	0.715027	0.153303	0.600696
	H22	H	0.279529	0.831498	0.605462
	H23	H	0.278524	0.152103	0.395207
	H24	H	0.894112	0.330807	0.220567
	H25	H	0.103100	0.651465	0.223171
	H26	H	0.098193	0.329663	0.784467
	H27	H	0.891823	0.653082	0.781480
	H28	H	0.222418	0.884572	0.343417
	H29	H	0.220279	0.097181	0.660810
	H30	H	0.780544	0.093267	0.340323
	H31	H	0.782195	0.889592	0.662394
	H32	H	0.337420	0.209738	0.897160
	H33	H	0.659886	0.208036	0.102849
	H34	H	0.338235	0.771223	0.107360
	H35	H	0.659042	0.771112	0.901620
	H36	H	0.341122	0.882766	0.226227
	H37	H	0.659676	0.094765	0.221076
	H38	H	0.339733	0.095760	0.780103
	H39	H	0.661787	0.889728	0.788168
	H40	H	0.896828	0.209763	0.340238
	H41	H	0.099758	0.208652	0.662638
	H42	H	0.105937	0.768231	0.343698
	H43	H	0.894675	0.771793	0.661409
	H44	H	0.215979	0.330639	0.899395
	H45	H	0.218061	0.651042	0.107945
	H46	H	0.783764	0.328827	0.099241
	H47	H	0.777910	0.652534	0.898171
	H48	H	0.408668	0.107839	0.597019
	H49	H	0.588175	0.875731	0.595756
	H50	H	0.594867	0.105559	0.416822
	H51	H	0.409621	0.877398	0.414159
	H52	H	0.589105	0.394505	0.117663
	H53	H	0.581974	0.575610	0.891753
	H54	H	0.409736	0.581781	0.115415
	H55	H	0.404165	0.404048	0.889624
	H56	H	0.111241	0.581260	0.414410
	H57	H	0.885005	0.572510	0.594806
	H58	H	0.112291	0.398907	0.589520
	H59	H	0.882517	0.401489	0.408940
	H60	H	0.112821	0.406013	0.596375
	H61	H	0.878885	0.589582	0.596636
	H62	H	0.109826	0.577679	0.412761
	H63	H	0.883351	0.399353	0.410680
	H64	H	0.406457	0.580682	0.117053
	H65	H	0.583563	0.589504	0.887165
	H66	H	0.595031	0.399482	0.117780
	H67	H	0.410167	0.402566	0.890673
	H68	H	0.591418	0.109043	0.403253
	H69	H	0.596006	0.875174	0.592204
	H70	H	0.416406	0.104118	0.590397
	H71	H	0.414459	0.879224	0.413043
	H72	H	0.916463	0.602169	0.086318
	H73	H	0.084594	0.377486	0.092976
	H74	H	0.080219	0.607198	0.904532
	H75	H	0.907147	0.374546	0.902014
	H76	H	0.091115	0.900998	0.615301
	H77	H	0.091412	0.079526	0.387207
	H78	H	0.904407	0.080522	0.614996
	H79	H	0.900733	0.904543	0.386485
	H80	H	0.612439	0.078824	0.911421
	H81	H	0.387426	0.075044	0.088295
	H82	H	0.618522	0.889956	0.096782
	H83	H	0.385649	0.902278	0.912905
	H84	H	0.608841	0.900000	0.080564
	H85	H	0.383717	0.079349	0.094996
	H86	H	0.615731	0.084610	0.906694
	H87	H	0.384971	0.904039	0.909004
	H88	H	0.912112	0.085066	0.614844
	H89	H	0.085230	0.083382	0.388380
	H90	H	0.089316	0.907665	0.613326
	H91	H	0.914196	0.908874	0.392108
	H92	H	0.081454	0.601969	0.919651
	H93	H	0.086353	0.378395	0.090478
	H94	H	0.896446	0.607675	0.085686
	H95	H	0.909846	0.378924	0.912834
	H96	H	0.406699	0.105797	0.586613
	H97	H	0.594952	0.873099	0.600151
	H98	H	0.582550	0.101929	0.411958
	H99	H	0.412194	0.879883	0.418061
	H100	H	0.587835	0.402079	0.115103
	H101	H	0.594511	0.580051	0.886430
	H102	H	0.408611	0.578419	0.115160
	H103	H	0.406300	0.398173	0.888125
	H104	H	0.111948	0.580045	0.410464
	H105	H	0.886271	0.583798	0.580983
	H106	H	0.115300	0.396784	0.597995
	H107	H	0.883924	0.402639	0.411075
	H108	H	0.907168	0.610427	0.103480
	H109	H	0.088183	0.376064	0.092737
	H110	H	0.093357	0.607817	0.912618
	H111	H	0.898533	0.374838	0.910015
	H112	H	0.084275	0.902563	0.613135
	H113	H	0.091811	0.086545	0.385597
	H114	H	0.904745	0.088609	0.619376
	H115	H	0.912111	0.894370	0.385883
	H116	H	0.614065	0.086247	0.914472
	H117	H	0.384620	0.083463	0.087782
	H118	H	0.611750	0.910269	0.099104
	H119	H	0.383079	0.899806	0.909516
	C120	C	0.378952	-0.000248	0.622811
	C121	C	0.622509	0.982182	0.624860
	C122	C	0.620901	-0.000883	0.380596
	C123	C	0.378925	0.983814	0.380705
	C124	C	0.619896	0.369052	0.010345
	C125	C	0.618611	0.612157	0.994253
	C126	C	0.375794	0.612463	0.010528
	C127	C	0.375643	0.369146	0.994578
	C128	C	0.005562	0.612765	0.380490
	C129	C	0.988876	0.613581	0.623500
	C130	C	0.006448	0.370616	0.623204
	C131	C	0.989623	0.370148	0.379697
	C132	C	0.876730	0.499916	0.122223
	C133	C	0.118517	0.482981	0.124024
	C134	C	0.116745	0.499421	0.881140
	C135	C	0.874331	0.482989	0.878110
	C136	C	0.121073	0.870089	0.509580
	C137	C	0.120796	0.113873	0.493024
	C138	C	0.876371	0.114743	0.509940
	C139	C	0.878311	0.871208	0.493737
	C140	C	0.507920	0.113687	0.879242
	C141	C	0.491010	0.110912	0.121996
	C142	C	0.507451	0.868545	0.124458
	C143	C	0.490936	0.870505	0.881281
	C144	C	0.378212	0.878437	0.681209
	C145	C	0.621295	0.104367	0.680929
	C146	C	0.622409	0.877858	0.323018
	C147	C	0.376318	0.103451	0.319449
	C148	C	0.676449	0.369636	0.889241
	C149	C	0.677917	0.612302	0.114526
	C150	C	0.315823	0.614155	0.890653
	C151	C	0.317677	0.367932	0.115129
	C152	C	0.885210	0.672160	0.380085
	C153	C	0.109496	0.672621	0.626211
	C154	C	0.884772	0.314181	0.620929
	C155	C	0.111294	0.312859	0.380337
	C156	C	0.884453	0.371432	0.678776
	C157	C	0.108999	0.615322	0.684122
	C158	C	0.884917	0.615062	0.321661
	C159	C	0.110277	0.368968	0.321301
	C160	C	0.374244	0.671899	0.890435
	C161	C	0.619572	0.669526	0.115175
	C162	C	0.619094	0.312001	0.889330
	C163	C	0.376347	0.310409	0.115171
	C164	C	0.678622	0.877484	0.382024
	C165	C	0.677482	0.104637	0.621904
	C166	C	0.319568	0.879422	0.624025
	C167	C	0.318803	0.104149	0.377532
	C168	C	0.875947	0.378727	0.180613
	C169	C	0.121222	0.603217	0.183534
	C170	C	0.117548	0.378204	0.823308
	C171	C	0.873568	0.604619	0.820804
	C172	C	0.182211	0.866620	0.390866
	C173	C	0.180003	0.115113	0.613197
	C174	C	0.819305	0.113258	0.388567
	C175	C	0.820929	0.870693	0.614428
	C176	C	0.386463	0.171641	0.877919
	C177	C	0.611865	0.169315	0.122533
	C178	C	0.386673	0.810089	0.126227
	C179	C	0.611530	0.811086	0.882238
	C180	C	0.388029	0.865821	0.185130
	C181	C	0.611686	0.112473	0.180987
	C182	C	0.387260	0.114366	0.820030
	C183	C	0.612753	0.869992	0.825760
	C184	C	0.877340	0.171048	0.388538
	C185	C	0.120210	0.170721	0.613951
	C186	C	0.123921	0.808839	0.390989
	C187	C	0.877115	0.811947	0.613830
	C188	C	0.176009	0.378459	0.880655
	C189	C	0.178642	0.603142	0.126008
	C190	C	0.820950	0.377695	0.120354
	C191	C	0.816483	0.604298	0.878575
	C192	C	0.403430	0.083998	0.598442
	C193	C	0.599804	0.896979	0.602628
	C194	C	0.596600	0.083555	0.403755
	C195	C	0.404618	0.900479	0.407363
	C196	C	0.597152	0.391877	0.094988
	C197	C	0.593824	0.588713	0.910239
	C198	C	0.400890	0.587491	0.094133
	C199	C	0.399828	0.394367	0.911084
	C200	C	0.089283	0.587138	0.405329
	C201	C	0.905175	0.589223	0.598010
	C202	C	0.091371	0.393802	0.600964
	C203	C	0.905249	0.394197	0.403414
	C204	C	0.900070	0.584528	0.098663
	C205	C	0.093471	0.399147	0.099217
	C206	C	0.092218	0.583503	0.905244
	C207	C	0.898293	0.398190	0.901380
	C208	C	0.095577	0.896262	0.592535
	C209	C	0.096739	0.089981	0.408888
	C210	C	0.900044	0.091353	0.594412
	C211	C	0.902127	0.895635	0.409932
	C212	C	0.592073	0.090058	0.903776
	C213	C	0.407028	0.086450	0.097365
	C214	C	0.591222	0.892931	0.099270
	C215	C	0.406521	0.894975	0.903891
	Zn216	Zn	0.500274	-0.009110	0.751583
	Zn217	Zn	0.499634	-0.009650	0.251743
	Zn218	Zn	0.747631	0.491373	0.001239
	Zn219	Zn	0.246247	0.491125	0.002745
	Zn220	Zn	-0.001795	0.741845	0.501737
	Zn221	Zn	-0.001131	0.242471	0.501735
	Zn222	Zn	-0.003148	0.492102	0.751037
	Zn223	Zn	-0.002746	0.491441	0.251589
	Zn224	Zn	0.497725	0.741484	0.002844
	Zn225	Zn	0.498202	0.240836	0.001901
	Zn226	Zn	0.749073	-0.008963	0.501713
	Zn227	Zn	0.249669	-0.007549	0.501372
	N228	N	0.414407	0.954553	0.680686
	N229	N	0.587779	0.027194	0.682843
	N230	N	0.587370	0.954491	0.321960
	N231	N	0.413059	0.027628	0.321584
	N232	N	0.677088	0.404453	0.965564
	N233	N	0.677147	0.577206	0.038389
	N234	N	0.316809	0.577992	0.966367
	N235	N	0.316846	0.403468	0.039057
	N236	N	0.961351	0.670813	0.415927
	N237	N	0.033894	0.671835	0.589277
	N238	N	0.961734	0.313549	0.586949
	N239	N	0.035176	0.313290	0.415802
	N240	N	0.961007	0.405875	0.680281
	N241	N	0.033080	0.579342	0.682403
	N242	N	0.960961	0.578947	0.321576
	N243	N	0.033540	0.403732	0.320638
	N244	N	0.410466	0.671307	0.966288
	N245	N	0.583320	0.669522	0.039418
	N246	N	0.584411	0.311618	0.965523
	N247	N	0.411568	0.310924	0.039133
	N248	N	0.677808	0.953845	0.417267
	N249	N	0.678559	0.027819	0.587873
	N250	N	0.319876	0.955746	0.588649
	N251	N	0.320304	0.028653	0.414903
	N252	N	0.910015	0.455729	0.181766
	N253	N	0.084521	0.527614	0.182278
	N254	N	0.081537	0.454367	0.823429
	N255	N	0.908932	0.528085	0.820255
	N256	N	0.180378	0.904206	0.465757
	N257	N	0.180515	0.080493	0.536742
	N258	N	0.818443	0.078927	0.465206
	N259	N	0.821673	0.907040	0.538863
	N260	N	0.462529	0.171598	0.913929
	N261	N	0.535717	0.168596	0.086691
	N262	N	0.461930	0.811597	0.089137
	N263	N	0.534813	0.811438	0.916310
	N264	N	0.464076	0.901532	0.184072
	N265	N	0.535557	0.076809	0.180746
	N266	N	0.463657	0.079255	0.820428
	N267	N	0.536737	0.906299	0.825112
	N268	N	0.912060	0.171947	0.464928
	N269	N	0.084062	0.170085	0.538299
	N270	N	0.086730	0.810814	0.465859
	N271	N	0.912330	0.812397	0.537855
	N272	N	0.175618	0.454800	0.916048
	N273	N	0.176993	0.527208	0.089528
	N274	N	0.821252	0.454033	0.084745
	N275	N	0.816858	0.527777	0.913565
	O276	O	0.655606	0.452558	0.372488
	H277	H	0.653463	0.465472	0.378411
	H278	H	0.668795	0.462451	0.364803
	O279	O	0.403637	0.374936	0.494086
	H280	H	0.423039	0.371094	0.484942
	H281	H	0.397776	0.357137	0.488655
	O282	O	1.139358	0.164426	0.983308
	H283	H	1.145404	0.182294	0.989410
	H284	H	1.134523	0.166846	1.014856
	O285	O	0.639650	0.451693	0.545730
	H286	H	0.639516	0.453328	0.522054
	H287	H	0.633085	0.451316	0.545823
	O288	O	1.090245	0.836110	1.031859
	H289	H	1.091064	0.844331	1.020642
	H290	H	1.103376	0.821462	1.013588
	O291	O	0.058559	0.943103	0.005886
	H292	H	0.063479	0.946257	0.010918
	H293	H	0.063484	0.956807	0.009275
	O294	O	0.598154	0.581976	0.628984
	H295	H	0.593911	0.565149	0.627614
	H296	H	0.608145	0.574346	0.649356
	O297	O	0.419110	0.528077	0.363824
	H298	H	0.422525	0.532374	0.376000
	H299	H	0.412563	0.518579	0.355503
	O300	O	0.346706	0.554018	0.571090
	H301	H	0.353985	0.549937	0.575461
	H302	H	0.345539	0.561751	0.569843
	O303	O	0.416869	0.643691	0.530761
	H304	H	0.435174	0.643748	0.518666
	H305	H	0.416554	0.641499	0.547463
	O306	O	0.573147	0.552777	0.620557
	H307	H	0.569986	0.541456	0.617537
	H308	H	0.564524	0.541711	0.623600
	O309	O	0.546962	0.577467	0.444500
	H310	H	0.536243	0.581107	0.428952
	H311	H	0.540666	0.571668	0.454116
	O312	O	0.080590	0.184753	0.141502
	H313	H	0.084079	0.156002	0.136508
	H314	H	0.055100	0.193687	0.155767
	O315	O	0.568891	0.618233	0.499217
	H316	H	0.564239	0.623112	0.501806
	H317	H	0.568506	0.619351	0.499514
	O318	O	-0.048909	0.956762	0.951172
	H319	H	-0.040993	0.961184	0.948099
	H320	H	-0.050485	0.976824	0.967909
	O321	O	0.484984	0.526513	0.427545
	H322	H	0.482623	0.529389	0.416559
	H323	H	0.488304	0.514538	0.423036
	O324	O	-0.065548	0.797224	0.180583
	H325	H	-0.067553	0.782973	0.182433
	H326	H	-0.047631	0.792894	0.175025
	O327	O	0.532414	0.455237	0.646758
	H328	H	0.522408	0.440120	0.651870
	H329	H	0.519620	0.455505	0.627991
	O330	O	0.021003	-0.101569	0.845234
	H331	H	0.009501	-0.095623	0.841141
	H332	H	0.018785	-0.110227	0.840222
	O333	O	0.088366	0.018765	0.993198
	H334	H	0.088551	0.042404	0.998649
	H335	H	0.093380	0.007593	1.015284
	O336	O	0.355700	0.581683	0.460115
	H337	H	0.364248	0.583180	0.470477
	H338	H	0.349418	0.594280	0.458186
	O339	O	0.876491	0.098451	0.065110
	H340	H	0.876160	0.073724	0.070037
	H341	H	0.884358	0.101233	0.049703
	O342	O	-0.025689	0.124327	0.153199
	H343	H	-0.048156	0.107929	0.153432
	H344	H	-0.028380	0.140301	0.156576
	O345	O	1.158733	0.063556	0.859075
	H346	H	1.176305	0.072680	0.847671
	H347	H	1.157580	0.064707	0.874180
	O348	O	0.915830	0.857119	0.024029
	H349	H	0.913703	0.855448	0.019885
	H350	H	0.914820	0.854004	0.009299
	O351	O	0.555436	0.390031	0.360607
	H352	H	0.555738	0.391533	0.348800
	H353	H	0.568373	0.412044	0.348627
	O354	O	1.017885	0.033463	0.903532
	H355	H	1.034116	0.050030	0.909403
	H356	H	1.009061	0.030576	0.912004
	O357	O	0.338996	0.501088	0.696722
	H358	H	0.349793	0.506363	0.699952
	H359	H	0.336314	0.511347	0.700296
	O360	O	0.578565	0.371169	0.585281
	H361	H	0.583310	0.372272	0.578678
	H362	H	0.565618	0.370349	0.585960
	O363	O	0.066494	0.864398	0.815959
	H364	H	0.061034	0.889758	0.804136
	H365	H	0.041605	0.879679	0.801018
	O366	O	0.500301	0.432835	0.419774
	H367	H	0.511619	0.438056	0.420221
	H368	H	0.501802	0.425539	0.421296
	O369	O	0.173070	0.797066	-0.056573
	H370	H	0.153576	0.812008	-0.087310
	H371	H	0.197452	0.769066	-0.062176
	O372	O	0.367060	0.319517	0.662643
	H373	H	0.349843	0.346555	0.670461
	H374	H	0.357409	0.311203	0.625827
	O375	O	0.460114	0.555882	0.358593
	H376	H	0.447563	0.541284	0.352257
	H377	H	0.467384	0.548672	0.361667
	O378	O	0.857725	0.885690	0.133904
	H379	H	0.867936	0.872097	0.133833
	H380	H	0.861070	0.882882	0.107894
	O381	O	0.942502	0.108362	-0.056189
	H382	H	0.943243	0.118546	-0.041807
	H383	H	0.945667	0.112553	-0.061514
	O384	O	1.061886	0.911984	0.113856
	H385	H	1.075612	0.897936	0.102489
	H386	H	1.055641	0.913707	0.107677
	O387	O	0.145433	0.016432	0.188717
	H388	H	0.155134	0.006356	0.201386
	H389	H	0.144135	-0.002819	0.181753
	O390	O	-0.135111	1.064813	-0.099457
	H391	H	-0.126266	1.071181	-0.105389
	H392	H	-0.149450	1.065768	-0.104096
	O393	O	0.976275	1.006922	0.824364
	H394	H	0.968676	1.014799	0.824357
	H395	H	0.984967	0.994799	0.827122
	O396	O	0.432291	0.347131	0.622705
	H397	H	0.400167	0.351771	0.604263
	H398	H	0.437315	0.321032	0.642817
	O399	O	0.148388	1.076982	1.076322
	H400	H	0.142848	1.069099	1.075160
	H401	H	0.158197	1.069872	1.078996
	O402	O	0.369842	0.499626	0.402336
	H403	H	0.364174	0.514660	0.419011
	H404	H	0.370512	0.488504	0.404837
	O405	O	0.805176	1.018704	0.117287
	H406	H	0.801070	1.011732	0.113831
	H407	H	0.814276	1.008234	0.106042
	O408	O	0.918851	0.926221	0.186231
	H409	H	0.924137	0.930852	0.179804
	H410	H	0.920404	0.910541	0.197611
	O411	O	0.934070	0.061267	0.874751
	H412	H	0.932935	0.068364	0.864850
	H413	H	0.928021	0.065624	0.883803
	O414	O	0.598611	0.474746	0.478310
	H415	H	0.598536	0.476384	0.484410
	H416	H	0.610037	0.468577	0.483213
	O417	O	0.458959	0.350980	0.406323
	H418	H	0.473468	0.366102	0.405121
	H419	H	0.467051	0.338826	0.397641
