data_Molecule from HDF5

_cell_length_a		16.537995
_cell_length_b		16.634259
_cell_length_c		16.607714
_cell_angle_alpha	90.066509
_cell_angle_beta	90.077371
_cell_angle_gamma	90.000080
_symmetry_space_group_name_H-M	'P 1'
_symmetry_Int_Tables_number		1

loop_
	_symmetry_equiv_pos_as_xyz
	x,y,z

loop_
	_atom_site_label
	_atom_site_type_symbol
	_atom_site_fract_x
	_atom_site_fract_y
	_atom_site_fract_z
	H0	H	0.407603	0.840830	0.712709
	H1	H	0.623054	0.149413	0.717402
	H2	H	0.617931	0.840690	0.269801
	H3	H	0.407728	0.151422	0.269835
	H4	H	0.735780	0.387846	0.835935
	H5	H	0.733059	0.599816	0.147663
	H6	H	0.288268	0.603111	0.836809
	H7	H	0.287509	0.386706	0.144319
	H8	H	0.858796	0.718619	0.383853
	H9	H	0.165467	0.719877	0.601699
	H10	H	0.855299	0.274143	0.597020
	H11	H	0.169316	0.274360	0.387202
	H12	H	0.854914	0.389574	0.712744
	H13	H	0.166309	0.603118	0.716963
	H14	H	0.856532	0.599896	0.270882
	H15	H	0.167945	0.388575	0.269466
	H16	H	0.405106	0.717896	0.836567
	H17	H	0.619022	0.717740	0.146448
	H18	H	0.622039	0.270278	0.836352
	H19	H	0.402101	0.269092	0.143447
	H20	H	0.735488	0.841486	0.385014
	H21	H	0.736998	0.151129	0.599013
	H22	H	0.291143	0.840205	0.596719
	H23	H	0.291599	0.151565	0.385838
	H24	H	0.907950	0.337953	0.211634
	H25	H	0.117890	0.649428	0.214081
	H26	H	0.120734	0.340195	0.767033
	H27	H	0.907392	0.649939	0.771339
	H28	H	0.233926	0.889842	0.336009
	H29	H	0.235203	0.100631	0.647770
	H30	H	0.791615	0.100661	0.335503
	H31	H	0.790816	0.890458	0.646716
	H32	H	0.356958	0.217994	0.884429
	H33	H	0.668640	0.216552	0.095718
	H34	H	0.356146	0.775747	0.094427
	H35	H	0.669068	0.776217	0.887158
	H36	H	0.355310	0.892482	0.209797
	H37	H	0.669417	0.100009	0.210918
	H38	H	0.355903	0.101016	0.769558
	H39	H	0.668932	0.891117	0.770846
	H40	H	0.906317	0.218015	0.336507
	H41	H	0.119702	0.217759	0.647848
	H42	H	0.121837	0.770427	0.337650
	H43	H	0.903674	0.770884	0.644976
	H44	H	0.237368	0.341412	0.882852
	H45	H	0.232624	0.650759	0.096333
	H46	H	0.792064	0.338540	0.094084
	H47	H	0.792913	0.650872	0.888205
	H48	H	0.428060	0.105026	0.576099
	H49	H	0.605747	0.887011	0.572913
	H50	H	0.602633	0.108058	0.400505
	H51	H	0.424796	0.885266	0.402106
	H52	H	0.600858	0.407592	0.101543
	H53	H	0.602038	0.587192	0.877705
	H54	H	0.425121	0.587308	0.103379
	H55	H	0.422451	0.406332	0.878347
	H56	H	0.125273	0.580429	0.401536
	H57	H	0.902727	0.577062	0.580591
	H58	H	0.122187	0.405069	0.576940
	H59	H	0.900842	0.406100	0.404478
	H60	H	0.122907	0.411148	0.582888
	H61	H	0.897988	0.585786	0.584041
	H62	H	0.125105	0.585242	0.403478
	H63	H	0.900664	0.408581	0.402087
	H64	H	0.421913	0.584846	0.103475
	H65	H	0.604017	0.585348	0.878496
	H66	H	0.598773	0.407117	0.100758
	H67	H	0.425189	0.414030	0.883200
	H68	H	0.600558	0.107694	0.401597
	H69	H	0.601723	0.882492	0.586057
	H70	H	0.419841	0.107971	0.578275
	H71	H	0.421776	0.883903	0.402011
	H72	H	0.923349	0.607486	0.084310
	H73	H	0.098188	0.386305	0.073918
	H74	H	0.094433	0.602241	0.905738
	H75	H	0.924395	0.381373	0.898651
	H76	H	0.099927	0.913639	0.599780
	H77	H	0.099858	0.086841	0.380015
	H78	H	0.922631	0.080727	0.602355
	H79	H	0.929275	0.903831	0.381261
	H80	H	0.623566	0.081166	0.902275
	H81	H	0.401398	0.079758	0.080878
	H82	H	0.625420	0.905205	0.079680
	H83	H	0.400047	0.908411	0.899553
	H84	H	0.625453	0.906803	0.081512
	H85	H	0.398778	0.086229	0.080609
	H86	H	0.625908	0.085686	0.902009
	H87	H	0.398874	0.904620	0.901678
	H88	H	0.929042	0.086107	0.602750
	H89	H	0.102995	0.085644	0.379484
	H90	H	0.094908	0.903829	0.601465
	H91	H	0.921497	0.906804	0.378133
	H92	H	0.102910	0.604968	0.907897
	H93	H	0.106739	0.380686	0.079678
	H94	H	0.923687	0.605409	0.080725
	H95	H	0.926146	0.383989	0.904884
	H96	H	0.426162	0.108019	0.584807
	H97	H	0.591652	0.889693	0.577569
	H98	H	0.602345	0.108144	0.402674
	H99	H	0.423996	0.883222	0.398884
	H100	H	0.599847	0.405701	0.102122
	H101	H	0.601282	0.585672	0.880079
	H102	H	0.425452	0.583829	0.101621
	H103	H	0.431292	0.406591	0.882065
	H104	H	0.123942	0.581470	0.406224
	H105	H	0.901092	0.585344	0.573623
	H106	H	0.126103	0.403555	0.584035
	H107	H	0.899651	0.405324	0.401729
	H108	H	0.919753	0.607105	0.082077
	H109	H	0.096853	0.383218	0.084819
	H110	H	0.098966	0.607553	0.900130
	H111	H	0.919511	0.382196	0.903649
	H112	H	0.105763	0.904873	0.605750
	H113	H	0.101032	0.083975	0.381354
	H114	H	0.921765	0.088298	0.605203
	H115	H	0.926563	0.911901	0.382930
	H116	H	0.623151	0.084430	0.906339
	H117	H	0.401495	0.083438	0.074597
	H118	H	0.626902	0.904712	0.081932
	H119	H	0.400849	0.907774	0.903814
	C120	C	0.391997	0.004416	0.611999
	C121	C	0.634330	0.988106	0.613207
	C122	C	0.634189	0.004980	0.369376
	C123	C	0.391106	0.987165	0.369004
	C124	C	0.633113	0.373937	-0.001066
	C125	C	0.634094	0.617354	0.982477
	C126	C	0.391181	0.617268	0.000017
	C127	C	0.391784	0.374788	0.982792
	C128	C	0.021722	0.615573	0.370729
	C129	C	1.003009	0.616576	0.613301
	C130	C	0.020373	0.373998	0.613384
	C131	C	1.003825	0.373892	0.370685
	C132	C	0.890628	0.503171	0.113162
	C133	C	0.133456	0.486005	0.112568
	C134	C	0.132760	0.503148	0.870511
	C135	C	0.890919	0.485566	0.870623
	C136	C	0.133497	0.874276	0.499987
	C137	C	0.134362	0.117532	0.483436
	C138	C	0.891548	0.117161	0.500362
	C139	C	0.891632	0.874367	0.482781
	C140	C	0.521357	0.116611	0.869825
	C141	C	0.503856	0.116303	0.111407
	C142	C	0.521955	0.874064	0.112378
	C143	C	0.503708	0.874886	0.870020
	C144	C	0.389292	0.887389	0.672257
	C145	C	0.639539	0.103710	0.675788
	C146	C	0.636558	0.887565	0.309622
	C147	C	0.389107	0.104605	0.309595
	C148	C	0.695165	0.370064	0.882607
	C149	C	0.693577	0.618533	0.100275
	C150	C	0.329408	0.620391	0.883374
	C151	C	0.328824	0.369751	0.098001
	C152	C	0.905127	0.677569	0.366485
	C153	C	0.119577	0.678609	0.618311
	C154	C	0.902407	0.313926	0.615349
	C155	C	0.121890	0.313935	0.368515
	C156	C	0.902171	0.371502	0.672912
	C157	C	0.119609	0.620660	0.675683
	C158	C	0.904079	0.618330	0.310459
	C159	C	0.121361	0.370697	0.310013
	C160	C	0.387242	0.678000	0.883193
	C161	C	0.636793	0.677368	0.099919
	C162	C	0.638191	0.311630	0.882821
	C163	C	0.385830	0.311275	0.097816
	C164	C	0.694682	0.887881	0.367249
	C165	C	0.696382	0.104282	0.617043
	C166	C	0.331394	0.886991	0.614561
	C167	C	0.331529	0.104671	0.367469
	C168	C	0.889380	0.385047	0.171627
	C169	C	0.136084	0.602983	0.173462
	C170	C	0.137705	0.386855	0.807975
	C171	C	0.888865	0.603256	0.811135
	C172	C	0.194399	0.871293	0.382987
	C173	C	0.195020	0.119210	0.600913
	C174	C	0.831427	0.119296	0.382705
	C175	C	0.830470	0.871655	0.599494
	C176	C	0.403419	0.177125	0.866685
	C177	C	0.621752	0.176292	0.113722
	C178	C	0.403452	0.815003	0.113653
	C179	C	0.621678	0.815514	0.868508
	C180	C	0.402983	0.873023	0.170825
	C181	C	0.621843	0.118647	0.171364
	C182	C	0.403317	0.119298	0.809292
	C183	C	0.621654	0.872951	0.810725
	C184	C	0.888649	0.177534	0.383049
	C185	C	0.137603	0.177455	0.600914
	C186	C	0.138300	0.812077	0.383995
	C187	C	0.887073	0.812534	0.598873
	C188	C	0.195772	0.387294	0.865616
	C189	C	0.193143	0.603579	0.114994
	C190	C	0.831885	0.385266	0.113271
	C191	C	0.831821	0.603520	0.869173
	C192	C	0.417440	0.085684	0.586873
	C193	C	0.607288	0.907311	0.586401
	C194	C	0.609080	0.086625	0.394497
	C195	C	0.416301	0.905245	0.393816
	C196	C	0.607201	0.399519	0.080354
	C197	C	0.609413	0.593093	0.900252
	C198	C	0.416937	0.592264	0.081570
	C199	C	0.418898	0.401617	0.902074
	C200	C	0.103535	0.589798	0.396432
	C201	C	0.921767	0.590369	0.586766
	C202	C	0.102427	0.399408	0.588404
	C203	C	0.921658	0.399216	0.395654
	C204	C	0.915319	0.585196	0.089448
	C205	C	0.107931	0.404453	0.086896
	C206	C	0.106260	0.583851	0.897078
	C207	C	0.916028	0.403754	0.895327
	C208	C	0.107440	0.900174	0.581151
	C209	C	0.108651	0.092550	0.401688
	C210	C	0.917301	0.092182	0.582088
	C211	C	0.918204	0.900305	0.401785
	C212	C	0.602988	0.091126	0.895934
	C213	C	0.422033	0.090575	0.085870
	C214	C	0.604453	0.898455	0.088026
	C215	C	0.421128	0.899769	0.894596
	Zn216	Zn	0.513098	-0.004093	0.741551
	Zn217	Zn	0.512505	-0.003952	0.240270
	Zn218	Zn	0.761991	0.494754	-0.008921
	Zn219	Zn	0.262410	0.495808	-0.008817
	Zn220	Zn	0.013014	0.744694	0.491774
	Zn221	Zn	0.012721	0.245971	0.492056
	Zn222	Zn	0.011432	0.495037	0.741771
	Zn223	Zn	0.012309	0.494316	0.241565
	Zn224	Zn	0.512534	0.745805	-0.009370
	Zn225	Zn	0.512288	0.244998	-0.009383
	Zn226	Zn	0.762595	-0.003558	0.491539
	Zn227	Zn	0.262755	-0.004339	0.490991
	N228	N	0.426190	0.961193	0.670978
	N229	N	0.601660	0.030302	0.673374
	N230	N	0.599587	0.961483	0.310663
	N231	N	0.425251	0.030317	0.310326
	N232	N	0.692117	0.408379	0.955799
	N233	N	0.692163	0.581894	0.026210
	N234	N	0.331522	0.583383	0.957143
	N235	N	0.332324	0.408532	0.025294
	N236	N	0.979421	0.676069	0.403401
	N237	N	0.045916	0.676238	0.580224
	N238	N	0.977093	0.315038	0.579288
	N239	N	0.047587	0.315655	0.405427
	N240	N	0.976658	0.408116	0.671947
	N241	N	0.046135	0.582628	0.672680
	N242	N	0.977980	0.580914	0.312399
	N243	N	0.046906	0.407180	0.311078
	N244	N	0.424791	0.676394	0.956886
	N245	N	0.600506	0.676766	0.025526
	N246	N	0.599950	0.314160	0.956206
	N247	N	0.424593	0.314415	0.024960
	N248	N	0.693590	0.961997	0.403506
	N249	N	0.693073	0.031329	0.578512
	N250	N	0.332810	0.960837	0.577649
	N251	N	0.332396	0.030417	0.403682
	N252	N	0.924853	0.459597	0.171909
	N253	N	0.099745	0.528795	0.172267
	N254	N	0.099483	0.460091	0.810541
	N255	N	0.924676	0.528791	0.811562
	N256	N	0.191721	0.909448	0.456238
	N257	N	0.193337	0.082762	0.526661
	N258	N	0.833025	0.082668	0.456587
	N259	N	0.833022	0.909318	0.526121
	N260	N	0.477757	0.175761	0.903485
	N261	N	0.547166	0.175317	0.077388
	N262	N	0.478514	0.815190	0.078293
	N263	N	0.547084	0.816308	0.904504
	N264	N	0.477731	0.908818	0.170543
	N265	N	0.547540	0.082126	0.170074
	N266	N	0.477768	0.082658	0.810868
	N267	N	0.547204	0.909174	0.811649
	N268	N	0.925156	0.176717	0.457473
	N269	N	0.100716	0.176744	0.526849
	N270	N	0.101052	0.813853	0.457814
	N271	N	0.924471	0.813971	0.525150
	N272	N	0.193045	0.460537	0.903669
	N273	N	0.191856	0.529685	0.078039
	N274	N	0.832083	0.459867	0.078111
	N275	N	0.832881	0.529273	0.905269
	O276	O	-0.114610	0.998494	-0.013819
	H277	H	-0.113516	0.995120	-0.017165
	H278	H	-0.113612	0.983007	-0.022311
	O279	O	0.541518	0.277976	0.271322
	H280	H	0.543458	0.265030	0.263967
	H281	H	0.535146	0.295053	0.255010
	O282	O	0.800996	-0.200494	0.947519
	H283	H	0.800186	-0.209334	0.956007
	H284	H	0.803763	-0.197583	0.962083
	O285	O	0.226705	0.799225	0.985285
	H286	H	0.221721	0.812947	0.958314
	H287	H	0.245185	0.777624	0.973764
	O288	O	0.485018	0.274862	0.714861
	H289	H	0.476272	0.246603	0.735190
	H290	H	0.487134	0.260899	0.695141
	O291	O	0.676086	0.517593	0.506826
	H292	H	0.680582	0.517633	0.510695
	H293	H	0.675052	0.515033	0.503361
	O294	O	0.715804	0.460968	0.697309
	H295	H	0.726817	0.463500	0.711077
	H296	H	0.687225	0.461368	0.699549
	O297	O	0.629066	0.383052	0.433226
	H298	H	0.638962	0.396328	0.435510
	H299	H	0.637770	0.367577	0.435015
	O300	O	-0.180637	0.193578	0.794112
	H301	H	-0.190834	0.155322	0.803610
	H302	H	-0.203872	0.204268	0.793427
	O303	O	0.312166	0.402493	0.365458
	H304	H	0.314864	0.404266	0.369477
	H305	H	0.307271	0.390781	0.363284
	O306	O	0.306318	0.701818	0.280094
	H307	H	0.311409	0.680173	0.304832
	H308	H	0.343484	0.697247	0.282843
	O309	O	0.539206	0.713949	0.709652
	H310	H	0.540331	0.725285	0.705268
	H311	H	0.552435	0.719549	0.720115
	O312	O	0.621223	0.508123	0.437048
	H313	H	0.625229	0.495681	0.450951
	H314	H	0.626489	0.508065	0.435750
	O315	O	0.842979	1.012329	0.788280
	H316	H	0.831721	1.000621	0.779272
	H317	H	0.840627	1.005623	0.799840
	O318	O	0.458762	0.604877	0.435476
	H319	H	0.455875	0.608168	0.432672
	H320	H	0.469483	0.607241	0.421072
	O321	O	0.200500	0.988923	0.885914
	H322	H	0.193840	1.001217	0.872897
	H323	H	0.195126	0.994071	0.870093
	O324	O	1.035105	1.211555	0.208115
	H325	H	1.055527	1.215585	0.212395
	H326	H	1.049442	1.212199	0.224649
	O327	O	-0.019618	-0.218949	1.206798
	H328	H	0.000447	-0.210892	1.215033
	H329	H	-0.010622	-0.239446	1.202291
	O330	O	0.656208	0.275623	0.512302
	H331	H	0.650774	0.281167	0.500057
	H332	H	0.660321	0.269678	0.504173
	O333	O	0.561066	0.529268	0.335474
	H334	H	0.575104	0.543604	0.336636
	H335	H	0.570579	0.522969	0.336175
	O336	O	0.476493	0.719650	0.268945
	H337	H	0.490533	0.716547	0.255378
	H338	H	0.484263	0.728533	0.251169
	O339	O	0.797407	-0.218984	0.775587
	H340	H	0.834762	-0.210996	0.783863
	H341	H	0.780076	-0.251375	0.751546
	O342	O	-0.003752	-0.216599	-0.019296
	H343	H	-0.005351	-0.210534	-0.044723
	H344	H	-0.009412	-0.216755	-0.018094
	O345	O	-0.061361	1.111912	1.159960
	H346	H	-0.039328	1.101864	1.151812
	H347	H	-0.041999	1.133584	1.164157
	O348	O	0.272638	0.256761	0.251137
	H349	H	0.257117	0.229777	0.222085
	H350	H	0.282724	0.261158	0.245074
	O351	O	0.437429	0.274537	0.439728
	H352	H	0.429596	0.280144	0.412023
	H353	H	0.431117	0.272268	0.437456
	O354	O	0.135318	0.211661	0.989887
	H355	H	0.131813	0.213570	0.967742
	H356	H	0.125372	0.211717	0.971677
	O357	O	0.541681	0.528094	0.484082
	H358	H	0.540407	0.525141	0.480185
	H359	H	0.544076	0.526770	0.483504
	O360	O	0.688511	0.641158	0.711299
	H361	H	0.673885	0.638544	0.693607
	H362	H	0.673764	0.622670	0.701339
	O363	O	-0.200679	-0.039175	0.206587
	H364	H	-0.200882	-0.036309	0.219766
	H365	H	-0.195530	-0.035474	0.224140
	O366	O	0.442899	0.606206	0.671795
	H367	H	0.444948	0.604576	0.661611
	H368	H	0.449851	0.603428	0.671792
	O369	O	0.964239	-0.086451	-0.230830
	H370	H	0.954051	-0.079498	-0.233039
	H371	H	0.975977	-0.114492	-0.232499
	O372	O	0.974064	0.974185	-0.013112
	H373	H	0.975460	0.974453	-0.022292
	H374	H	0.972411	0.968274	-0.014608
	O375	O	1.064742	-0.071702	0.215527
	H376	H	1.065889	-0.069077	0.208355
	H377	H	1.084863	-0.088376	0.213735
	O378	O	0.407779	0.618697	0.692603
	H379	H	0.425849	0.601027	0.689791
	H380	H	0.412992	0.605391	0.673827
	O381	O	0.238673	0.767088	0.758823
	H382	H	0.259094	0.756511	0.737934
	H383	H	0.243461	0.793904	0.756575
	O384	O	1.030882	-0.144861	1.010002
	H385	H	1.032081	-0.135338	1.017317
	H386	H	1.026453	-0.142353	1.011795
	O387	O	1.194921	0.815623	0.176321
	H388	H	1.189751	0.815160	0.152165
	H389	H	1.219248	0.788030	0.194842
	O390	O	0.517614	0.399521	0.308775
	H391	H	0.531065	0.420187	0.308614
	H392	H	0.522990	0.412881	0.301645
	O393	O	0.733487	0.459484	0.267648
	H394	H	0.764801	0.457897	0.236361
	H395	H	0.730138	0.415400	0.274069
	O396	O	0.150976	0.954073	1.024350
	H397	H	0.148920	0.960348	1.013707
	H398	H	0.156267	0.940409	1.006531
	O399	O	-0.073281	0.074674	1.047554
	H400	H	-0.069498	0.066207	1.040896
	H401	H	-0.064756	0.079327	1.048517
	O402	O	0.548383	0.474404	0.634425
	H403	H	0.536124	0.472044	0.639884
	H404	H	0.532993	0.460450	0.632646
	O405	O	0.992263	0.221440	1.009814
	H406	H	1.002694	0.224886	0.994088
	H407	H	0.989167	0.215091	1.022944
	O408	O	0.223141	0.208695	0.111680
	H409	H	0.214862	0.205651	0.096519
	H410	H	0.223922	0.200629	0.105517
	O411	O	0.659949	0.457539	0.573622
	H412	H	0.656991	0.459457	0.571001
	H413	H	0.652735	0.462634	0.567163
	O414	O	0.298337	0.703570	0.463985
	H415	H	0.307424	0.700598	0.456771
	H416	H	0.285916	0.720259	0.463656
	O417	O	0.305474	0.462986	0.708067
	H418	H	0.299381	0.479069	0.698414
	H419	H	0.295322	0.468786	0.726479
	O420	O	-0.048438	0.910317	1.066634
	H421	H	-0.042354	0.899906	1.064007
	H422	H	-0.063226	0.907125	1.075075
	O423	O	-0.007096	0.093140	0.797678
	H424	H	-0.030466	0.088817	0.805081
	H425	H	-0.007111	0.114594	0.768616
	O426	O	0.502919	0.727475	0.479839
	H427	H	0.511802	0.731092	0.481952
	H428	H	0.509411	0.720118	0.470643
	O429	O	1.077504	0.790242	0.803740
	H430	H	1.102659	0.771901	0.791544
	H431	H	1.101557	0.806512	0.810938
	O432	O	0.309993	0.292157	0.697837
	H433	H	0.316684	0.320788	0.706466
	H434	H	0.324449	0.289948	0.669170
	O435	O	-0.195545	0.789806	0.202271
	H436	H	-0.176362	0.787048	0.183562
	H437	H	-0.175093	0.817961	0.202369
	O438	O	0.065218	0.132617	-0.099838
	H439	H	0.061960	0.130411	-0.107981
	H440	H	0.043393	0.134647	-0.100392
	O441	O	0.218049	0.074818	-0.077253
	H442	H	0.211399	0.078179	-0.086299
	H443	H	0.204937	0.067959	-0.066884
	O444	O	0.701944	0.686658	0.302567
	H445	H	0.729748	0.710802	0.276010
	H446	H	0.696626	0.679420	0.332283
	O447	O	-0.161853	0.983740	0.999891
	H448	H	-0.159255	0.980876	1.004417
	H449	H	-0.162403	0.974509	0.998715
	O450	O	0.169205	1.000483	0.774364
	H451	H	0.146338	1.017789	0.770576
	H452	H	0.177263	1.024380	0.757302
	O453	O	0.117300	0.098066	0.782748
	H454	H	0.098957	0.112147	0.792747
	H455	H	0.114571	0.109431	0.776141
	O456	O	0.215883	0.034865	1.210068
	H457	H	0.239921	0.024395	1.218991
	H458	H	0.214251	0.016343	1.200503
	O459	O	0.697074	0.615389	0.505385
	H460	H	0.693420	0.612944	0.497701
	H461	H	0.697341	0.622424	0.508429
	O462	O	0.714369	0.294113	0.290611
	H463	H	0.715771	0.283173	0.298877
	H464	H	0.701732	0.278849	0.291857
	O465	O	0.814636	0.153008	0.087662
	H466	H	0.825350	0.145224	0.095017
	H467	H	0.829117	0.158745	0.076913
	O468	O	0.369608	0.463325	0.542077
	H469	H	0.358419	0.466666	0.532166
	H470	H	0.377287	0.458753	0.540759
	O471	O	0.735896	0.657286	0.480880
	H472	H	0.742456	0.650067	0.471396
	H473	H	0.748791	0.652054	0.486026
	O474	O	0.368601	0.477941	0.264742
	H475	H	0.361121	0.469032	0.250035
	H476	H	0.368884	0.488048	0.273510
	O477	O	0.298390	0.511509	1.367019
	H478	H	0.313924	0.518149	1.371024
	H479	H	0.292099	0.511492	1.350053
	O480	O	0.297921	0.274592	0.532199
	H481	H	0.266298	0.247958	0.525309
	H482	H	0.312308	0.287975	0.533345
	O483	O	0.529937	0.355565	0.617776
	H484	H	0.530317	0.355555	0.601003
	H485	H	0.532222	0.345444	0.607180
	O486	O	0.446504	0.527498	0.604044
	H487	H	0.442771	0.534855	0.613608
	H488	H	0.448469	0.506906	0.596248
	O489	O	0.860000	1.105807	-0.032064
	H490	H	0.844993	1.090373	-0.018890
	H491	H	0.865418	1.119118	-0.037339
