data_Molecule from HDF5

_cell_length_a		16.278426
_cell_length_b		16.296458
_cell_length_c		16.360089
_cell_angle_alpha	90.171649
_cell_angle_beta	89.989342
_cell_angle_gamma	89.970917
_symmetry_space_group_name_H-M	'P 1'
_symmetry_Int_Tables_number		1

loop_
	_symmetry_equiv_pos_as_xyz
	x,y,z

loop_
	_atom_site_label
	_atom_site_type_symbol
	_atom_site_fract_x
	_atom_site_fract_y
	_atom_site_fract_z
	H0	H	0.399785	0.837737	0.713738
	H1	H	0.597466	0.164569	0.714330
	H2	H	0.598714	0.838230	0.282541
	H3	H	0.399320	0.164571	0.284976
	H4	H	0.712687	0.403905	0.835982
	H5	H	0.713988	0.600585	0.162759
	H6	H	0.285060	0.598799	0.835961
	H7	H	0.286858	0.404769	0.162691
	H8	H	0.834555	0.714289	0.402582
	H9	H	0.163092	0.716001	0.598059
	H10	H	0.835590	0.287744	0.597034
	H11	H	0.163153	0.287271	0.400490
	H12	H	0.836334	0.402834	0.713639
	H13	H	0.163021	0.599798	0.714267
	H14	H	0.834794	0.599302	0.284895
	H15	H	0.162336	0.402859	0.283970
	H16	H	0.400478	0.716039	0.836446
	H17	H	0.598270	0.717630	0.161761
	H18	H	0.597801	0.285128	0.836828
	H19	H	0.402386	0.287339	0.162763
	H20	H	0.712746	0.837721	0.401029
	H21	H	0.712639	0.165345	0.597092
	H22	H	0.285252	0.836462	0.595626
	H23	H	0.284691	0.164442	0.402047
	H24	H	0.901355	0.337010	0.211597
	H25	H	0.097964	0.664284	0.214999
	H26	H	0.098613	0.338122	0.783948
	H27	H	0.900131	0.664704	0.784936
	H28	H	0.213513	0.901140	0.335905
	H29	H	0.212417	0.098043	0.662731
	H30	H	0.784826	0.097745	0.335818
	H31	H	0.785464	0.904159	0.662373
	H32	H	0.335690	0.215058	0.901630
	H33	H	0.664123	0.213540	0.096272
	H34	H	0.336222	0.787283	0.096906
	H35	H	0.664141	0.786906	0.901203
	H36	H	0.336399	0.902277	0.213627
	H37	H	0.662479	0.100096	0.214171
	H38	H	0.335402	0.099323	0.785459
	H39	H	0.662710	0.901261	0.782954
	H40	H	0.901351	0.214295	0.335991
	H41	H	0.097836	0.216541	0.661713
	H42	H	0.096753	0.785400	0.335754
	H43	H	0.902613	0.788324	0.662379
	H44	H	0.213238	0.337692	0.901330
	H45	H	0.213970	0.664793	0.097616
	H46	H	0.785393	0.337612	0.096175
	H47	H	0.783779	0.664379	0.901654
	H48	H	0.403159	0.118721	0.595724
	H49	H	0.586007	0.885654	0.596577
	H50	H	0.593655	0.116631	0.411068
	H51	H	0.404407	0.884413	0.405238
	H52	H	0.598272	0.404895	0.118030
	H53	H	0.589300	0.596435	0.883816
	H54	H	0.407552	0.584842	0.111171
	H55	H	0.408861	0.408656	0.884723
	H56	H	0.114970	0.587148	0.399862
	H57	H	0.882146	0.596982	0.592663
	H58	H	0.114272	0.410817	0.588402
	H59	H	0.882894	0.406131	0.406502
	H60	H	0.116036	0.410179	0.595776
	H61	H	0.883885	0.592720	0.591782
	H62	H	0.116964	0.600498	0.405501
	H63	H	0.882230	0.408962	0.403997
	H64	H	0.414568	0.600707	0.114528
	H65	H	0.596359	0.593154	0.882855
	H66	H	0.592058	0.413527	0.113811
	H67	H	0.407355	0.402844	0.882796
	H68	H	0.594387	0.119621	0.402728
	H69	H	0.591674	0.887635	0.584012
	H70	H	0.407446	0.117111	0.594359
	H71	H	0.408305	0.884842	0.403619
	H72	H	0.901380	0.617752	0.089991
	H73	H	0.098528	0.382780	0.091985
	H74	H	0.096495	0.617307	0.913338
	H75	H	0.906601	0.384844	0.904628
	H76	H	0.092207	0.912210	0.613227
	H77	H	0.092775	0.088257	0.384623
	H78	H	0.904551	0.099277	0.616420
	H79	H	0.912644	0.908272	0.384845
	H80	H	0.616626	0.092485	0.901885
	H81	H	0.385348	0.083722	0.093155
	H82	H	0.614257	0.909732	0.086061
	H83	H	0.378490	0.896883	0.901530
	H84	H	0.615702	0.914412	0.093432
	H85	H	0.379653	0.098705	0.101000
	H86	H	0.616595	0.097495	0.907609
	H87	H	0.387430	0.909463	0.917732
	H88	H	0.901428	0.093071	0.615808
	H89	H	0.087869	0.097508	0.383434
	H90	H	0.088909	0.904945	0.615211
	H91	H	0.903720	0.899649	0.380653
	H92	H	0.095690	0.620350	0.899018
	H93	H	0.088881	0.384506	0.097351
	H94	H	0.906674	0.619655	0.099076
	H95	H	0.907205	0.385507	0.905726
	H96	H	0.403961	0.116568	0.591170
	H97	H	0.598895	0.881927	0.594858
	H98	H	0.586325	0.116086	0.406075
	H99	H	0.407267	0.885914	0.407968
	H100	H	0.587472	0.403264	0.115336
	H101	H	0.590379	0.589317	0.886270
	H102	H	0.397578	0.597537	0.118352
	H103	H	0.403031	0.407284	0.882533
	H104	H	0.111734	0.590059	0.414201
	H105	H	0.882496	0.594015	0.595626
	H106	H	0.117440	0.404383	0.591240
	H107	H	0.881111	0.405600	0.403372
	H108	H	0.911387	0.615384	0.090579
	H109	H	0.089684	0.387374	0.086796
	H110	H	0.083799	0.615898	0.905851
	H111	H	0.905794	0.384762	0.905368
	H112	H	0.096730	0.906339	0.616048
	H113	H	0.097792	0.096783	0.380849
	H114	H	0.908370	0.093498	0.613910
	H115	H	0.899866	0.912345	0.382414
	H116	H	0.614481	0.090264	0.908314
	H117	H	0.383439	0.099256	0.083810
	H118	H	0.617480	0.905314	0.093484
	H119	H	0.384110	0.918188	0.897589
	C120	C	0.376893	0.009075	0.620967
	C121	C	0.620663	0.993041	0.620778
	C122	C	0.620200	0.009661	0.377670
	C123	C	0.377883	0.992783	0.377626
	C124	C	0.621100	0.379115	0.007894
	C125	C	0.620761	0.622545	0.991790
	C126	C	0.377737	0.622867	0.007284
	C127	C	0.377990	0.378652	0.991115
	C128	C	0.006552	0.621518	0.378277
	C129	C	0.991046	0.622804	0.621327
	C130	C	0.007875	0.380046	0.620299
	C131	C	0.990472	0.378925	0.376536
	C132	C	0.877896	0.509253	0.120799
	C133	C	0.120979	0.492974	0.120811
	C134	C	0.120666	0.509863	0.877500
	C135	C	0.877704	0.492854	0.877372
	C136	C	0.121000	0.878764	0.506815
	C137	C	0.121068	0.122413	0.490824
	C138	C	0.877176	0.122724	0.507462
	C139	C	0.877497	0.879045	0.490569
	C140	C	0.507410	0.121678	0.878022
	C141	C	0.491280	0.122271	0.120670
	C142	C	0.508272	0.880555	0.119916
	C143	C	0.491385	0.878938	0.877007
	C144	C	0.379545	0.886356	0.675732
	C145	C	0.617934	0.116007	0.676125
	C146	C	0.618561	0.886849	0.321287
	C147	C	0.379424	0.115652	0.322711
	C148	C	0.675511	0.382061	0.884893
	C149	C	0.676281	0.620744	0.114038
	C150	C	0.322934	0.619618	0.884664
	C151	C	0.323668	0.383111	0.113663
	C152	C	0.883451	0.676678	0.381565
	C153	C	0.114136	0.678093	0.618481
	C154	C	0.884589	0.325442	0.617250
	C155	C	0.114064	0.325099	0.380069
	C156	C	0.884961	0.382395	0.675678
	C157	C	0.114280	0.620604	0.676420
	C158	C	0.883492	0.619576	0.323339
	C159	C	0.113860	0.382426	0.321971
	C160	C	0.380302	0.678045	0.884890
	C161	C	0.618841	0.679037	0.113579
	C162	C	0.618266	0.323644	0.885264
	C163	C	0.381420	0.325074	0.113882
	C164	C	0.675355	0.886491	0.379871
	C165	C	0.675176	0.116316	0.618075
	C166	C	0.322798	0.885643	0.616929
	C167	C	0.322143	0.115541	0.380754
	C168	C	0.880579	0.386196	0.174679
	C169	C	0.118941	0.615533	0.176856
	C170	C	0.118536	0.386839	0.822154
	C171	C	0.879507	0.615885	0.822608
	C172	C	0.175785	0.880919	0.384564
	C173	C	0.175179	0.119010	0.613817
	C174	C	0.822786	0.118739	0.384411
	C175	C	0.822889	0.882836	0.613532
	C176	C	0.384573	0.177210	0.880963
	C177	C	0.614760	0.176530	0.117203
	C178	C	0.385089	0.825000	0.117657
	C179	C	0.614700	0.824077	0.880246
	C180	C	0.385098	0.882146	0.175533
	C181	C	0.613896	0.120535	0.176025
	C182	C	0.384367	0.119719	0.823210
	C183	C	0.614394	0.880818	0.821513
	C184	C	0.880826	0.176454	0.384500
	C185	C	0.118167	0.177890	0.613371
	C186	C	0.117607	0.823421	0.384328
	C187	C	0.880969	0.825452	0.613688
	C188	C	0.175602	0.386561	0.880231
	C189	C	0.176486	0.615765	0.118769
	C190	C	0.823449	0.386224	0.116737
	C191	C	0.821938	0.615794	0.880760
	C192	C	0.398499	0.095246	0.599817
	C193	C	0.598670	0.907206	0.598500
	C194	C	0.597932	0.095335	0.400007
	C195	C	0.400188	0.907143	0.399353
	C196	C	0.599219	0.400995	0.093550
	C197	C	0.598558	0.599636	0.906286
	C198	C	0.400044	0.600731	0.092751
	C199	C	0.399872	0.400053	0.905185
	C200	C	0.092409	0.599179	0.400111
	C201	C	0.905113	0.600890	0.599756
	C202	C	0.093779	0.402137	0.598320
	C203	C	0.904311	0.400412	0.398100
	C204	C	0.899931	0.595483	0.099529
	C205	C	0.098914	0.407042	0.098488
	C206	C	0.098530	0.595602	0.899476
	C207	C	0.900038	0.407239	0.898799
	C208	C	0.099009	0.901200	0.592753
	C209	C	0.099270	0.100571	0.405122
	C210	C	0.898462	0.101540	0.593220
	C211	C	0.899009	0.900449	0.404856
	C212	C	0.593657	0.099594	0.899566
	C213	C	0.405083	0.100457	0.098888
	C214	C	0.593695	0.903251	0.097654
	C215	C	0.405596	0.901463	0.899113
	Zn216	Zn	0.499362	0.000888	0.749217
	Zn217	Zn	0.499101	0.001347	0.248871
	Zn218	Zn	0.749657	0.500788	-0.000373
	Zn219	Zn	0.248993	0.500894	-0.001332
	Zn220	Zn	-0.001130	0.750473	0.499015
	Zn221	Zn	-0.000650	0.251298	0.498904
	Zn222	Zn	-0.000358	0.501202	0.748965
	Zn223	Zn	-0.001458	0.501120	0.248992
	Zn224	Zn	0.499749	0.751625	-0.000608
	Zn225	Zn	0.499843	0.250058	-0.000290
	Zn226	Zn	0.748788	0.001171	0.499073
	Zn227	Zn	0.249311	0.000680	0.498897
	N228	N	0.412632	0.964090	0.678299
	N229	N	0.584662	0.038322	0.677767
	N230	N	0.585137	0.964386	0.319767
	N231	N	0.413489	0.038311	0.320722
	N232	N	0.677368	0.415680	0.962121
	N233	N	0.677470	0.586229	0.037124
	N234	N	0.321154	0.586167	0.961767
	N235	N	0.321259	0.415410	0.036034
	N236	N	0.960955	0.677887	0.415007
	N237	N	0.036510	0.679629	0.585052
	N238	N	0.962139	0.323818	0.583499
	N239	N	0.036362	0.322718	0.413121
	N240	N	0.962481	0.415641	0.677495
	N241	N	0.036808	0.586996	0.678280
	N242	N	0.961039	0.586103	0.321256
	N243	N	0.036018	0.415288	0.319838
	N244	N	0.413810	0.679933	0.962150
	N245	N	0.585147	0.679994	0.036616
	N246	N	0.585229	0.321620	0.962660
	N247	N	0.414497	0.322272	0.036587
	N248	N	0.676272	0.963516	0.414486
	N249	N	0.676918	0.038928	0.584222
	N250	N	0.320888	0.963088	0.583879
	N251	N	0.321067	0.038239	0.414233
	N252	N	0.913803	0.463790	0.176921
	N253	N	0.085183	0.538168	0.178321
	N254	N	0.085065	0.464540	0.820378
	N255	N	0.913448	0.538503	0.820542
	N256	N	0.177523	0.914722	0.461661
	N257	N	0.177231	0.085501	0.536516
	N258	N	0.820596	0.085961	0.461733
	N259	N	0.820691	0.915516	0.536101
	N260	N	0.462049	0.178451	0.914442
	N261	N	0.537299	0.177726	0.083478
	N262	N	0.462356	0.823795	0.083734
	N263	N	0.537108	0.822722	0.913810
	N264	N	0.462583	0.915912	0.177098
	N265	N	0.536178	0.087522	0.178082
	N266	N	0.461874	0.085993	0.821323
	N267	N	0.536766	0.914109	0.819391
	N268	N	0.913885	0.179169	0.462004
	N269	N	0.085078	0.179902	0.536063
	N270	N	0.084425	0.821766	0.461801
	N271	N	0.914508	0.823252	0.536446
	N272	N	0.176990	0.463925	0.913842
	N273	N	0.177683	0.538554	0.084497
	N274	N	0.821915	0.463796	0.083666
	N275	N	0.820462	0.538382	0.913955
	O276	O	0.040099	0.000040	0.953363
	H277	H	0.045353	-0.004351	0.950433
	H278	H	0.039751	0.004744	0.948957
	O279	O	0.451217	0.591511	0.552058
	H280	H	0.451841	0.602632	0.559459
	H281	H	0.454992	0.591332	0.549351
	O282	O	0.508192	0.605219	0.536108
	H283	H	0.512362	0.617319	0.545812
	H284	H	0.518782	0.595531	0.549648
	O285	O	0.447334	0.545224	0.552828
	H286	H	0.437645	0.548244	0.554295
	H287	H	0.449340	0.550917	0.555657
	O288	O	0.512120	0.545507	0.478618
	H289	H	0.511869	0.546078	0.466842
	H290	H	0.510630	0.551116	0.480760
	O291	O	0.018754	0.994479	0.957608
	H292	H	0.013506	0.993893	0.951791
	H293	H	0.016732	0.997140	0.958311
	O294	O	0.510461	0.566783	0.532962
	H295	H	0.508386	0.568943	0.525161
	H296	H	0.506419	0.565519	0.532074
	O297	O	1.288918	-0.186170	-0.135112
	H298	H	1.291584	-0.193433	-0.129692
	H299	H	1.284956	-0.190451	-0.138867
