data_Molecule from HDF5

_cell_length_a		16.263522
_cell_length_b		16.372793
_cell_length_c		16.495128
_cell_angle_alpha	90.239931
_cell_angle_beta	90.217925
_cell_angle_gamma	89.930213
_symmetry_space_group_name_H-M	'P 1'
_symmetry_Int_Tables_number		1

loop_
	_symmetry_equiv_pos_as_xyz
	x,y,z

loop_
	_atom_site_label
	_atom_site_type_symbol
	_atom_site_fract_x
	_atom_site_fract_y
	_atom_site_fract_z
	H0	H	0.389054	0.843576	0.720932
	H1	H	0.600116	0.162079	0.721587
	H2	H	0.601301	0.842005	0.280727
	H3	H	0.392364	0.162007	0.281292
	H4	H	0.712331	0.397396	0.838745
	H5	H	0.714803	0.600703	0.160125
	H6	H	0.275380	0.604053	0.841340
	H7	H	0.277274	0.399247	0.159550
	H8	H	0.833799	0.718250	0.396901
	H9	H	0.157129	0.721550	0.602860
	H10	H	0.834739	0.286269	0.598311
	H11	H	0.157935	0.281561	0.395891
	H12	H	0.836889	0.396427	0.717894
	H13	H	0.157485	0.607087	0.720236
	H14	H	0.834675	0.604124	0.279552
	H15	H	0.159203	0.399111	0.281735
	H16	H	0.390111	0.721861	0.841637
	H17	H	0.601173	0.721200	0.159190
	H18	H	0.599413	0.278251	0.841724
	H19	H	0.393813	0.282613	0.160427
	H20	H	0.712563	0.840148	0.399770
	H21	H	0.713145	0.163587	0.602358
	H22	H	0.276518	0.842114	0.603406
	H23	H	0.280063	0.163550	0.401034
	H24	H	0.893870	0.341142	0.217700
	H25	H	0.105363	0.659841	0.221755
	H26	H	0.105851	0.343300	0.774867
	H27	H	0.890891	0.659637	0.779325
	H28	H	0.215296	0.899315	0.340364
	H29	H	0.219583	0.109757	0.657942
	H30	H	0.776754	0.101537	0.340337
	H31	H	0.779702	0.901555	0.659688
	H32	H	0.334946	0.220979	0.897566
	H33	H	0.658047	0.217634	0.102791
	H34	H	0.335340	0.783346	0.102010
	H35	H	0.657216	0.782648	0.897334
	H36	H	0.336535	0.896813	0.219662
	H37	H	0.657536	0.104747	0.219846
	H38	H	0.335586	0.108973	0.778698
	H39	H	0.655784	0.896475	0.779634
	H40	H	0.892199	0.220125	0.339923
	H41	H	0.103305	0.226559	0.656793
	H42	H	0.101150	0.780760	0.340963
	H43	H	0.892116	0.781086	0.657281
	H44	H	0.215890	0.340563	0.896304
	H45	H	0.217172	0.660811	0.103833
	H46	H	0.781160	0.338643	0.098640
	H47	H	0.778528	0.659971	0.898546
	H48	H	0.407911	0.113454	0.582418
	H49	H	0.589807	0.886830	0.590930
	H50	H	0.585693	0.113234	0.418453
	H51	H	0.407035	0.888002	0.409553
	H52	H	0.584473	0.417100	0.109308
	H53	H	0.587349	0.596007	0.885329
	H54	H	0.412968	0.597833	0.113583
	H55	H	0.411802	0.402306	0.886894
	H56	H	0.107839	0.588038	0.417777
	H57	H	0.881854	0.590800	0.590369
	H58	H	0.109800	0.417409	0.588435
	H59	H	0.882211	0.414436	0.404774
	H60	H	0.112810	0.412670	0.588967
	H61	H	0.882223	0.592079	0.588057
	H62	H	0.111186	0.584274	0.402052
	H63	H	0.880458	0.407812	0.404880
	H64	H	0.400829	0.591039	0.115073
	H65	H	0.589503	0.589279	0.885974
	H66	H	0.583850	0.401571	0.114784
	H67	H	0.398572	0.410815	0.885636
	H68	H	0.592432	0.120355	0.404912
	H69	H	0.584416	0.887833	0.594396
	H70	H	0.401175	0.120212	0.594740
	H71	H	0.406251	0.887471	0.408736
	H72	H	0.905290	0.616676	0.091808
	H73	H	0.085531	0.387338	0.087341
	H74	H	0.083351	0.615291	0.906346
	H75	H	0.910661	0.386432	0.907544
	H76	H	0.083110	0.915076	0.609850
	H77	H	0.082037	0.094156	0.387585
	H78	H	0.907456	0.096973	0.613883
	H79	H	0.897851	0.911485	0.383634
	H80	H	0.611743	0.084482	0.901377
	H81	H	0.379961	0.090435	0.097361
	H82	H	0.611340	0.908389	0.086132
	H83	H	0.378805	0.908684	0.907094
	H84	H	0.609634	0.918023	0.090645
	H85	H	0.379680	0.097024	0.089650
	H86	H	0.611826	0.098998	0.913856
	H87	H	0.382842	0.911130	0.915507
	H88	H	0.902313	0.096469	0.614845
	H89	H	0.089375	0.091832	0.386119
	H90	H	0.084563	0.907114	0.613973
	H91	H	0.908104	0.916469	0.388081
	H92	H	0.080838	0.612975	0.912431
	H93	H	0.087456	0.386401	0.090145
	H94	H	0.908251	0.614981	0.091074
	H95	H	0.904370	0.385361	0.908545
	H96	H	0.415409	0.114753	0.594749
	H97	H	0.584181	0.889772	0.588185
	H98	H	0.576192	0.114883	0.404520
	H99	H	0.407612	0.887768	0.408576
	H100	H	0.597608	0.410054	0.116145
	H101	H	0.583033	0.590785	0.887301
	H102	H	0.411822	0.585100	0.109035
	H103	H	0.411425	0.417071	0.890935
	H104	H	0.114334	0.599746	0.407912
	H105	H	0.883032	0.589670	0.588665
	H106	H	0.110299	0.413715	0.584201
	H107	H	0.882268	0.411596	0.410664
	H108	H	0.906079	0.614129	0.089036
	H109	H	0.084659	0.388284	0.091136
	H110	H	0.087752	0.614175	0.911776
	H111	H	0.906738	0.384040	0.902898
	H112	H	0.091247	0.913075	0.614706
	H113	H	0.083913	0.086568	0.388957
	H114	H	0.904986	0.092752	0.612733
	H115	H	0.908020	0.904521	0.385155
	H116	H	0.605151	0.082170	0.918827
	H117	H	0.382657	0.087773	0.087741
	H118	H	0.614120	0.910006	0.096804
	H119	H	0.382071	0.917150	0.908579
	C120	C	0.375174	0.010642	0.621924
	C121	C	0.617303	0.994057	0.622400
	C122	C	0.616726	0.010146	0.379070
	C123	C	0.375178	0.993487	0.378248
	C124	C	0.618570	0.377989	0.008106
	C125	C	0.618621	0.622958	0.991459
	C126	C	0.375028	0.622839	0.008238
	C127	C	0.375530	0.379537	0.992799
	C128	C	0.004603	0.622240	0.377537
	C129	C	0.988409	0.623004	0.620602
	C130	C	0.005344	0.382178	0.618666
	C131	C	0.988414	0.379865	0.376538
	C132	C	0.875524	0.509191	0.120552
	C133	C	0.118301	0.492659	0.121192
	C134	C	0.117640	0.509380	0.877930
	C135	C	0.875360	0.491033	0.876698
	C136	C	0.118022	0.880109	0.508122
	C137	C	0.117863	0.124095	0.491938
	C138	C	0.873831	0.124568	0.508025
	C139	C	0.874522	0.880720	0.491074
	C140	C	0.503773	0.121454	0.879848
	C141	C	0.487704	0.122173	0.122255
	C142	C	0.505040	0.880789	0.121507
	C143	C	0.486886	0.880206	0.878655
	C144	C	0.371655	0.891206	0.681124
	C145	C	0.618572	0.114314	0.681521
	C146	C	0.619023	0.889599	0.320527
	C147	C	0.374120	0.114074	0.320768
	C148	C	0.674550	0.377706	0.887336
	C149	C	0.676609	0.621421	0.111775
	C150	C	0.315057	0.623495	0.888952
	C151	C	0.316816	0.379731	0.112228
	C152	C	0.882669	0.679789	0.377660
	C153	C	0.109139	0.682217	0.621927
	C154	C	0.883347	0.324301	0.618286
	C155	C	0.109843	0.321194	0.376946
	C156	C	0.884355	0.379128	0.677698
	C157	C	0.109140	0.625307	0.680413
	C158	C	0.882955	0.622705	0.319394
	C159	C	0.110193	0.379407	0.319817
	C160	C	0.372006	0.682435	0.889271
	C161	C	0.619909	0.681386	0.111504
	C162	C	0.617790	0.318925	0.888495
	C163	C	0.374760	0.321719	0.112554
	C164	C	0.674452	0.888814	0.379958
	C165	C	0.674687	0.115181	0.622070
	C166	C	0.315599	0.890431	0.622221
	C167	C	0.317896	0.114914	0.380032
	C168	C	0.875166	0.388646	0.178270
	C169	C	0.121785	0.612465	0.181089
	C170	C	0.122391	0.390353	0.816421
	C171	C	0.873135	0.611681	0.819082
	C172	C	0.176544	0.879564	0.388365
	C173	C	0.178585	0.127308	0.610678
	C174	C	0.815497	0.122532	0.387952
	C175	C	0.817895	0.881206	0.611538
	C176	C	0.382919	0.181453	0.878341
	C177	C	0.609388	0.179367	0.122135
	C178	C	0.383868	0.822083	0.121756
	C179	C	0.608395	0.821521	0.878080
	C180	C	0.384190	0.878848	0.180163
	C181	C	0.609213	0.123072	0.180345
	C182	C	0.383335	0.125576	0.819371
	C183	C	0.607933	0.878078	0.819518
	C184	C	0.873074	0.181061	0.387690
	C185	C	0.120872	0.185581	0.610103
	C186	C	0.119406	0.820908	0.388398
	C187	C	0.874033	0.821640	0.610431
	C188	C	0.177166	0.388909	0.876854
	C189	C	0.177665	0.612925	0.122365
	C190	C	0.819277	0.387293	0.118872
	C191	C	0.817097	0.611843	0.878325
	C192	C	0.400944	0.094445	0.597699
	C193	C	0.593151	0.910061	0.598198
	C194	C	0.591980	0.094226	0.402600
	C195	C	0.399742	0.909526	0.402035
	C196	C	0.595425	0.402586	0.091725
	C197	C	0.593767	0.599010	0.907890
	C198	C	0.400817	0.598186	0.090928
	C199	C	0.400169	0.403285	0.909332
	C200	C	0.089188	0.597817	0.402024
	C201	C	0.904450	0.598163	0.596181
	C202	C	0.089023	0.407182	0.594405
	C203	C	0.903722	0.404065	0.399997
	C204	C	0.899625	0.593342	0.097248
	C205	C	0.093221	0.409016	0.096599
	C206	C	0.091652	0.592430	0.903008
	C207	C	0.900276	0.406983	0.899593
	C208	C	0.093264	0.904688	0.591036
	C209	C	0.092229	0.098356	0.408983
	C210	C	0.897968	0.101959	0.592030
	C211	C	0.897883	0.904178	0.407663
	C212	C	0.587737	0.095835	0.904392
	C213	C	0.402687	0.098523	0.098425
	C214	C	0.589620	0.905185	0.097915
	C215	C	0.403180	0.905153	0.903127
	Zn216	Zn	0.495548	0.001928	0.750783
	Zn217	Zn	0.496832	0.001585	0.249635
	Zn218	Zn	0.747517	0.499326	-0.001232
	Zn219	Zn	0.245896	0.500682	0.000144
	Zn220	Zn	-0.004225	0.751072	0.498840
	Zn221	Zn	-0.003209	0.253311	0.499007
	Zn222	Zn	-0.002940	0.500739	0.748421
	Zn223	Zn	-0.002744	0.501425	0.248831
	Zn224	Zn	0.496391	0.752328	0.000202
	Zn225	Zn	0.496017	0.249525	0.000882
	Zn226	Zn	0.744823	0.001861	0.500061
	Zn227	Zn	0.247075	0.002419	0.500494
	N228	N	0.407691	0.966973	0.681028
	N229	N	0.583591	0.037892	0.681882
	N230	N	0.583713	0.965978	0.319880
	N231	N	0.408702	0.037253	0.319169
	N232	N	0.674860	0.414021	0.962614
	N233	N	0.675807	0.585794	0.036041
	N234	N	0.316641	0.587306	0.963966
	N235	N	0.317215	0.414759	0.036697
	N236	N	0.959421	0.679625	0.412972
	N237	N	0.033202	0.680867	0.585408
	N238	N	0.959470	0.325946	0.582120
	N239	N	0.033014	0.321321	0.411375
	N240	N	0.960838	0.414478	0.678032
	N241	N	0.032867	0.589298	0.679978
	N242	N	0.959887	0.588047	0.318934
	N243	N	0.033590	0.415057	0.319466
	N244	N	0.408653	0.682092	0.964524
	N245	N	0.584559	0.682417	0.035780
	N246	N	0.583784	0.318750	0.964656
	N247	N	0.410591	0.321647	0.037186
	N248	N	0.673137	0.964670	0.415722
	N249	N	0.674058	0.039318	0.586090
	N250	N	0.317739	0.966005	0.585906
	N251	N	0.318386	0.038947	0.414899
	N252	N	0.909543	0.465332	0.179354
	N253	N	0.085528	0.536748	0.180530
	N254	N	0.086131	0.466121	0.816911
	N255	N	0.908689	0.535539	0.817790
	N256	N	0.175904	0.915785	0.463756
	N257	N	0.176393	0.089442	0.536265
	N258	N	0.815519	0.088501	0.463895
	N259	N	0.818008	0.917361	0.536576
	N260	N	0.458533	0.178957	0.915364
	N261	N	0.532617	0.179212	0.086871
	N262	N	0.460118	0.823157	0.086151
	N263	N	0.532369	0.822517	0.914097
	N264	N	0.460623	0.914631	0.180037
	N265	N	0.532387	0.088317	0.180477
	N266	N	0.459415	0.088721	0.820286
	N267	N	0.531409	0.913704	0.819406
	N268	N	0.908237	0.182911	0.463560
	N269	N	0.083722	0.183361	0.535164
	N270	N	0.083917	0.820749	0.463884
	N271	N	0.908299	0.821034	0.534439
	N272	N	0.174515	0.464002	0.914452
	N273	N	0.175543	0.537453	0.085714
	N274	N	0.819344	0.463311	0.083747
	N275	N	0.818198	0.535800	0.913207
	O276	O	0.515876	0.471631	0.407562
	H277	H	0.509892	0.477178	0.409367
	H278	H	0.526629	0.457094	0.411451
	O279	O	0.378969	0.585762	0.609400
	H280	H	0.392969	0.599328	0.609434
	H281	H	0.387219	0.593895	0.606918
	O282	O	0.435272	0.441008	0.345461
	H283	H	0.448015	0.435194	0.352149
	H284	H	0.458126	0.431688	0.349023
	O285	O	1.006418	0.055394	-0.193247
	H286	H	1.024850	0.058908	-0.188987
	H287	H	1.007838	0.033930	-0.213241
	O288	O	-0.187027	-0.161491	1.094542
	H289	H	-0.205253	-0.154264	1.091699
	H290	H	-0.190827	-0.160119	1.070241
	O291	O	0.448115	0.589696	0.399774
	H292	H	0.454321	0.587018	0.396953
	H293	H	0.452656	0.581109	0.400505
	O294	O	0.363549	0.490115	0.397306
	H295	H	0.354919	0.474458	0.409476
	H296	H	0.374872	0.498296	0.407629
	O297	O	0.821897	0.932502	1.128624
	H298	H	0.819454	0.946637	1.125508
	H299	H	0.811388	0.935414	1.107915
	O300	O	0.061175	-0.095339	0.048880
	H301	H	0.084789	-0.102241	0.069025
	H302	H	0.041095	-0.102224	0.056382
	O303	O	0.521180	0.452741	0.655524
	H304	H	0.516090	0.446585	0.652467
	H305	H	0.513400	0.454133	0.640461
	O306	O	0.988391	0.167195	-0.151626
	H307	H	0.997469	0.155816	-0.156993
	H308	H	0.997582	0.174518	-0.170876
	O309	O	0.481228	0.682866	0.420480
	H310	H	0.478687	0.685527	0.416982
	H311	H	0.476690	0.688527	0.416654
	O312	O	1.120257	0.823470	-0.183089
	H313	H	1.113216	0.816211	-0.173591
	H314	H	1.132420	0.825272	-0.162801
	O315	O	0.634845	0.617127	0.589885
	H316	H	0.631068	0.598029	0.592456
	H317	H	0.628873	0.623714	0.583877
	O318	O	0.629989	0.439684	0.309836
	H319	H	0.627373	0.415461	0.318542
	H320	H	0.638433	0.429133	0.296444
	O321	O	0.903844	-0.186337	0.856247
	H322	H	0.913147	-0.185728	0.843338
	H323	H	0.916721	-0.178068	0.865690
	O324	O	0.181277	-0.075989	0.875549
	H325	H	0.195153	-0.069874	0.865195
	H326	H	0.185287	-0.102041	0.892474
	O327	O	0.593357	0.477194	0.569866
	H328	H	0.590724	0.482251	0.572168
	H329	H	0.592494	0.482619	0.559843
	O330	O	0.369314	0.355554	0.617074
	H331	H	0.361779	0.365859	0.624734
	H332	H	0.370774	0.369874	0.621973
	O333	O	0.970938	0.933586	1.097982
	H334	H	0.962920	0.931241	1.092836
	H335	H	0.978135	0.931082	1.108245
	O336	O	0.420623	0.564415	0.329270
	H337	H	0.421529	0.564434	0.318323
	H338	H	0.441726	0.564379	0.323454
	O339	O	1.031451	0.161380	1.051890
	H340	H	1.028573	0.146203	1.061005
	H341	H	1.038474	0.162442	1.049750
	O342	O	-0.010525	0.899684	0.911876
	H343	H	-0.014717	0.899752	0.901969
	H344	H	-0.018841	0.903970	0.919054
	O345	O	-0.009795	1.122861	0.876714
	H346	H	0.010259	1.127647	0.886706
	H347	H	0.009497	1.119837	0.871232
	O348	O	0.202439	0.034726	0.207582
	H349	H	0.209494	0.052921	0.216495
	H350	H	0.212515	0.022997	0.213476
	O351	O	0.086318	-0.094566	-0.039277
	H352	H	0.083027	-0.108911	-0.022878
	H353	H	0.082909	-0.092187	-0.038851
	O354	O	1.501664	1.676101	0.707390
	H355	H	1.513440	1.681540	0.712347
	H356	H	1.506073	1.676370	0.708807
	O357	O	-0.153495	1.094077	-0.180419
	H358	H	-0.145772	1.110237	-0.168476
	H359	H	-0.166181	1.088845	-0.189508
	O360	O	0.554653	0.450166	0.467196
	H361	H	0.552273	0.456488	0.469605
	H362	H	0.546969	0.443419	0.457655
	O363	O	0.479863	0.491283	0.403160
	H364	H	0.485223	0.472882	0.395402
	H365	H	0.469706	0.509635	0.409959
	O366	O	0.634130	0.373647	0.482057
	H367	H	0.636631	0.371155	0.501395
	H368	H	0.642546	0.366808	0.496246
	O369	O	0.437982	0.556524	0.410572
	H370	H	0.445440	0.550384	0.406464
	H371	H	0.447536	0.557105	0.421796
	O372	O	0.434682	0.639647	0.541436
	H373	H	0.440922	0.640839	0.554669
	H374	H	0.432907	0.642333	0.523735
	O375	O	0.632749	0.703471	0.507914
	H376	H	0.638713	0.716771	0.512835
	H377	H	0.635454	0.701147	0.512558
	O378	O	1.023843	-0.174240	0.154428
	H379	H	1.007813	-0.164416	0.157156
	H380	H	1.016784	-0.183293	0.177620
	O381	O	0.554918	0.410586	0.652508
	H382	H	0.560610	0.400299	0.659569
	H383	H	0.548817	0.419549	0.653395
	O384	O	-0.001501	0.910507	1.184768
	H385	H	-0.004896	0.914749	1.186472
	H386	H	-0.009015	0.889811	1.195586
	O387	O	0.894797	1.145635	0.164126
	H388	H	0.921767	1.142106	0.152694
	H389	H	0.889889	1.142728	0.151380
	O390	O	0.679655	0.605888	0.694861
	H391	H	0.685133	0.616523	0.695939
	H392	H	0.692720	0.586995	0.703256
	O393	O	0.810953	0.193775	0.894731
	H394	H	0.809465	0.207491	0.917593
	H395	H	0.822787	0.190839	0.882913
	O396	O	-0.225079	0.847672	0.908620
	H397	H	-0.238856	0.845745	0.898857
	H398	H	-0.225143	0.857922	0.904368
	O399	O	0.515547	0.354410	0.331423
	H400	H	0.535234	0.363241	0.338383
	H401	H	0.525983	0.344584	0.321844
	O402	O	1.151868	-0.104269	1.010055
	H403	H	1.168248	-0.111481	1.020618
	H404	H	1.133181	-0.108475	1.027998
	O405	O	-0.043199	-0.038052	-0.196610
	H406	H	-0.032392	-0.023188	-0.201518
	H407	H	-0.039972	-0.048251	-0.205675
	O408	O	0.930406	0.999419	1.107701
	H409	H	0.927037	1.001670	1.117362
	H410	H	0.944931	0.987957	1.100795
	O411	O	1.173340	1.182206	-0.033018
	H412	H	1.182282	1.180290	-0.026444
	H413	H	1.180413	1.172286	-0.014641
	O414	O	0.094508	0.201196	1.195587
	H415	H	0.089757	0.192504	1.182119
	H416	H	0.097608	0.221708	1.215497
	O417	O	0.466517	0.423956	0.616439
	H418	H	0.462639	0.431517	0.625317
	H419	H	0.470754	0.438693	0.625138
	O420	O	-0.140437	1.060283	-0.039125
	H421	H	-0.147401	1.065884	-0.053557
	H422	H	-0.132252	1.064962	-0.050728
	O423	O	0.936842	0.136339	0.033444
	H424	H	0.947486	0.146877	0.030207
	H425	H	0.941054	0.125644	0.015681
	O426	O	0.186711	-0.104512	1.047897
	H427	H	0.180084	-0.111344	1.046304
	H428	H	0.187045	-0.115333	1.052541
	O429	O	0.396929	0.460721	0.487226
	H430	H	0.382710	0.472292	0.485942
	H431	H	0.386691	0.448380	0.477249
