data_Molecule from HDF5

_cell_length_a		16.211539
_cell_length_b		16.296471
_cell_length_c		16.282892
_cell_angle_alpha	90.068182
_cell_angle_beta	89.932523
_cell_angle_gamma	89.826400
_symmetry_space_group_name_H-M	'P 1'
_symmetry_Int_Tables_number		1

loop_
	_symmetry_equiv_pos_as_xyz
	x,y,z

loop_
	_atom_site_label
	_atom_site_type_symbol
	_atom_site_fract_x
	_atom_site_fract_y
	_atom_site_fract_z
	H0	H	0.389627	0.838420	0.717913
	H1	H	0.589426	0.164426	0.717539
	H2	H	0.590356	0.838959	0.286386
	H3	H	0.388381	0.164191	0.284834
	H4	H	0.707053	0.404052	0.838249
	H5	H	0.704891	0.599448	0.166628
	H6	H	0.276627	0.600578	0.839297
	H7	H	0.277963	0.401517	0.165828
	H8	H	0.827569	0.716982	0.403395
	H9	H	0.153578	0.718950	0.604703
	H10	H	0.825458	0.290236	0.601857
	H11	H	0.154495	0.287028	0.405439
	H12	H	0.827238	0.403979	0.719086
	H13	H	0.156096	0.600787	0.717072
	H14	H	0.828853	0.602285	0.286948
	H15	H	0.155677	0.402290	0.289478
	H16	H	0.392515	0.716682	0.838326
	H17	H	0.594035	0.719478	0.163900
	H18	H	0.592759	0.285472	0.838489
	H19	H	0.393700	0.286007	0.164552
	H20	H	0.707467	0.839413	0.401710
	H21	H	0.704221	0.165407	0.600657
	H22	H	0.274562	0.838102	0.601596
	H23	H	0.274983	0.165283	0.403279
	H24	H	0.894751	0.338192	0.217356
	H25	H	0.091495	0.665187	0.219280
	H26	H	0.092231	0.338560	0.786439
	H27	H	0.892443	0.665525	0.788500
	H28	H	0.205574	0.901738	0.339388
	H29	H	0.205558	0.101983	0.666075
	H30	H	0.775792	0.102037	0.338723
	H31	H	0.774561	0.904272	0.665009
	H32	H	0.328185	0.218704	0.901196
	H33	H	0.656533	0.213821	0.100172
	H34	H	0.328618	0.785258	0.102195
	H35	H	0.655866	0.787526	0.901521
	H36	H	0.328204	0.900534	0.218027
	H37	H	0.654315	0.100761	0.217575
	H38	H	0.326292	0.100512	0.788569
	H39	H	0.654384	0.900018	0.784171
	H40	H	0.888799	0.218508	0.339704
	H41	H	0.086741	0.216343	0.666519
	H42	H	0.093527	0.783141	0.341277
	H43	H	0.887463	0.784656	0.664688
	H44	H	0.206471	0.337104	0.904306
	H45	H	0.208571	0.664579	0.103009
	H46	H	0.778468	0.337920	0.101969
	H47	H	0.777053	0.665418	0.905566
	H48	H	0.390740	0.117091	0.588597
	H49	H	0.579246	0.888059	0.587818
	H50	H	0.581254	0.117410	0.411471
	H51	H	0.401905	0.888391	0.414871
	H52	H	0.587952	0.405696	0.120070
	H53	H	0.592219	0.586773	0.885245
	H54	H	0.403741	0.605164	0.120057
	H55	H	0.399041	0.406854	0.884529
	H56	H	0.108658	0.599458	0.417066
	H57	H	0.870944	0.604091	0.598427
	H58	H	0.105777	0.411267	0.592652
	H59	H	0.871724	0.405715	0.409117
	H60	H	0.108621	0.408681	0.598598
	H61	H	0.877642	0.592604	0.586906
	H62	H	0.105331	0.586301	0.414460
	H63	H	0.875304	0.410928	0.413411
	H64	H	0.391134	0.590300	0.119778
	H65	H	0.576316	0.591153	0.889243
	H66	H	0.585085	0.409750	0.117217
	H67	H	0.399104	0.412022	0.886212
	H68	H	0.585452	0.118428	0.409609
	H69	H	0.588761	0.884937	0.591770
	H70	H	0.394042	0.121169	0.603196
	H71	H	0.391569	0.883808	0.410029
	H72	H	0.897289	0.618494	0.096112
	H73	H	0.084623	0.383717	0.104052
	H74	H	0.081979	0.616312	0.912459
	H75	H	0.902994	0.387351	0.912170
	H76	H	0.075986	0.920957	0.613257
	H77	H	0.089163	0.089752	0.386229
	H78	H	0.891061	0.094765	0.620892
	H79	H	0.903599	0.911989	0.387977
	H80	H	0.604483	0.083566	0.909409
	H81	H	0.375423	0.087467	0.099971
	H82	H	0.608613	0.912252	0.096161
	H83	H	0.374375	0.909829	0.907615
	H84	H	0.609050	0.907289	0.095136
	H85	H	0.371351	0.102838	0.094993
	H86	H	0.611528	0.095528	0.899000
	H87	H	0.374432	0.907242	0.911199
	H88	H	0.899935	0.092512	0.616781
	H89	H	0.074364	0.091331	0.389960
	H90	H	0.075164	0.899942	0.619729
	H91	H	0.900352	0.903930	0.385153
	H92	H	0.086898	0.617268	0.912203
	H93	H	0.080383	0.387816	0.093073
	H94	H	0.899630	0.618638	0.098133
	H95	H	0.895882	0.385525	0.911347
	H96	H	0.405328	0.114603	0.594312
	H97	H	0.580084	0.884820	0.598415
	H98	H	0.581130	0.119246	0.406086
	H99	H	0.402142	0.884907	0.402831
	H100	H	0.582815	0.405370	0.118518
	H101	H	0.586596	0.603596	0.882625
	H102	H	0.409479	0.587639	0.113327
	H103	H	0.404097	0.408722	0.886183
	H104	H	0.110620	0.594307	0.403989
	H105	H	0.874017	0.588062	0.603271
	H106	H	0.107858	0.404000	0.593273
	H107	H	0.874012	0.412510	0.405982
	H108	H	0.900164	0.617203	0.095786
	H109	H	0.092560	0.384382	0.093878
	H110	H	0.083576	0.617724	0.908443
	H111	H	0.900838	0.385017	0.906289
	H112	H	0.093757	0.911922	0.622061
	H113	H	0.082449	0.103351	0.383903
	H114	H	0.897996	0.102599	0.620643
	H115	H	0.894636	0.911286	0.385528
	H116	H	0.608647	0.098475	0.916139
	H117	H	0.378019	0.092139	0.083722
	H118	H	0.606900	0.910381	0.091433
	H119	H	0.375743	0.911311	0.910891
	C120	C	0.368085	0.009767	0.623902
	C121	C	0.611571	0.993628	0.622591
	C122	C	0.612396	0.010692	0.379732
	C123	C	0.368553	0.993335	0.379854
	C124	C	0.614540	0.378825	0.010541
	C125	C	0.613789	0.622930	0.993646
	C126	C	0.371196	0.623555	0.010242
	C127	C	0.371575	0.380026	0.993468
	C128	C	0.000098	0.622801	0.382388
	C129	C	0.982791	0.623718	0.625089
	C130	C	-0.001015	0.380170	0.624532
	C131	C	0.982194	0.380446	0.381438
	C132	C	0.870814	0.510010	0.125113
	C133	C	0.114783	0.493274	0.125838
	C134	C	0.113850	0.509459	0.881420
	C135	C	0.870878	0.493783	0.881628
	C136	C	0.111539	0.880828	0.511120
	C137	C	0.111448	0.124078	0.494442
	C138	C	0.868025	0.124615	0.511049
	C139	C	0.868893	0.880144	0.493606
	C140	C	0.499727	0.122339	0.879853
	C141	C	0.483089	0.122815	0.122594
	C142	C	0.500131	0.879991	0.123434
	C143	C	0.482984	0.879909	0.879892
	C144	C	0.369868	0.887002	0.679536
	C145	C	0.609181	0.115884	0.678965
	C146	C	0.610647	0.887773	0.324317
	C147	C	0.369182	0.115814	0.323687
	C148	C	0.669864	0.382482	0.887303
	C149	C	0.668208	0.620542	0.117157
	C150	C	0.314580	0.621177	0.887864
	C151	C	0.316047	0.381695	0.116607
	C152	C	0.876906	0.679061	0.383424
	C153	C	0.105274	0.680104	0.623869
	C154	C	0.874999	0.326467	0.623025
	C155	C	0.105722	0.324732	0.384574
	C156	C	0.876020	0.383328	0.680969
	C157	C	0.106222	0.621507	0.680063
	C158	C	0.877406	0.622023	0.325572
	C159	C	0.106373	0.382068	0.326918
	C160	C	0.372306	0.679123	0.887434
	C161	C	0.612795	0.679990	0.115928
	C162	C	0.613303	0.323518	0.887339
	C163	C	0.373252	0.324028	0.116045
	C164	C	0.668942	0.888116	0.381552
	C165	C	0.666454	0.116470	0.620812
	C166	C	0.312434	0.886889	0.621824
	C167	C	0.312669	0.116222	0.382493
	C168	C	0.874157	0.387010	0.179704
	C169	C	0.112054	0.616262	0.181311
	C170	C	0.112087	0.387041	0.825150
	C171	C	0.872514	0.616620	0.826577
	C172	C	0.167700	0.881917	0.388264
	C173	C	0.167209	0.121943	0.617183
	C174	C	0.813414	0.122022	0.387755
	C175	C	0.812934	0.883400	0.616437
	C176	C	0.376745	0.179455	0.881857
	C177	C	0.606821	0.177306	0.120984
	C178	C	0.377317	0.823631	0.121987
	C179	C	0.606458	0.824786	0.881461
	C180	C	0.377000	0.881011	0.179462
	C181	C	0.605796	0.121008	0.179286
	C182	C	0.375944	0.120886	0.825441
	C183	C	0.605695	0.880927	0.823055
	C184	C	0.869624	0.179945	0.388265
	C185	C	0.108294	0.179107	0.617325
	C186	C	0.111879	0.822993	0.389349
	C187	C	0.868923	0.823966	0.616171
	C188	C	0.169210	0.386344	0.883529
	C189	C	0.170154	0.616118	0.123386
	C190	C	0.816127	0.386910	0.122284
	C191	C	0.814995	0.616679	0.884606
	C192	C	0.390281	0.095415	0.601798
	C193	C	0.589261	0.908088	0.599380
	C194	C	0.589281	0.096048	0.402292
	C195	C	0.391832	0.907836	0.402495
	C196	C	0.592002	0.400559	0.096279
	C197	C	0.591494	0.600436	0.907922
	C198	C	0.394468	0.601040	0.095708
	C199	C	0.394065	0.402687	0.907861
	C200	C	0.086017	0.600030	0.405224
	C201	C	0.896493	0.601533	0.602771
	C202	C	0.085061	0.401610	0.601451
	C203	C	0.896171	0.403074	0.403067
	C204	C	0.892664	0.595923	0.103235
	C205	C	0.092523	0.407416	0.103539
	C206	C	0.090937	0.594967	0.904307
	C207	C	0.893314	0.408095	0.903609
	C208	C	0.088430	0.904092	0.596339
	C209	C	0.088866	0.101403	0.408685
	C210	C	0.889965	0.102794	0.597009
	C211	C	0.892481	0.902522	0.408369
	C212	C	0.585844	0.099271	0.901781
	C213	C	0.397385	0.100752	0.099621
	C214	C	0.585738	0.903209	0.100979
	C215	C	0.396933	0.902683	0.903019
	Zn216	Zn	0.490359	0.000863	0.751782
	Zn217	Zn	0.490386	0.001980	0.251455
	Zn218	Zn	0.742187	0.501729	0.003365
	Zn219	Zn	0.242867	0.500835	0.002832
	Zn220	Zn	-0.008781	0.751937	0.503602
	Zn221	Zn	-0.010836	0.252550	0.502523
	Zn222	Zn	-0.007883	0.502078	0.752145
	Zn223	Zn	-0.007884	0.502172	0.253778
	Zn224	Zn	0.492595	0.752475	0.001453
	Zn225	Zn	0.492274	0.250532	0.001386
	Zn226	Zn	0.740848	0.002852	0.501612
	Zn227	Zn	0.240219	0.001658	0.502160
	N228	N	0.403636	0.964322	0.680938
	N229	N	0.575860	0.038403	0.680064
	N230	N	0.576360	0.965125	0.322845
	N231	N	0.403021	0.038325	0.321963
	N232	N	0.671012	0.416006	0.964936
	N233	N	0.668891	0.585755	0.040268
	N234	N	0.313773	0.587347	0.965172
	N235	N	0.315098	0.415901	0.039450
	N236	N	0.954128	0.679634	0.418165
	N237	N	0.027282	0.681798	0.590727
	N238	N	0.952392	0.324520	0.588413
	N239	N	0.027572	0.323508	0.417656
	N240	N	0.954081	0.416042	0.681943
	N241	N	0.028901	0.587154	0.680750
	N242	N	0.955066	0.587704	0.324778
	N243	N	0.028687	0.415946	0.324817
	N244	N	0.406720	0.680706	0.964597
	N245	N	0.579665	0.681606	0.038116
	N246	N	0.579636	0.320968	0.964850
	N247	N	0.407188	0.322987	0.038593
	N248	N	0.669980	0.965315	0.415323
	N249	N	0.667746	0.039471	0.586171
	N250	N	0.311167	0.964221	0.587795
	N251	N	0.312071	0.039049	0.416715
	N252	N	0.907189	0.464503	0.181454
	N253	N	0.078308	0.538902	0.182729
	N254	N	0.078480	0.464555	0.823626
	N255	N	0.906300	0.539091	0.824488
	N256	N	0.167453	0.917334	0.464989
	N257	N	0.169351	0.088643	0.539510
	N258	N	0.812149	0.088238	0.465082
	N259	N	0.812654	0.917524	0.539255
	N260	N	0.454872	0.180675	0.914847
	N261	N	0.529433	0.178486	0.086355
	N262	N	0.454824	0.822935	0.087729
	N263	N	0.529114	0.824275	0.916311
	N264	N	0.454325	0.915402	0.180498
	N265	N	0.527996	0.087686	0.180482
	N266	N	0.453411	0.086114	0.824194
	N267	N	0.527861	0.914562	0.822076
	N268	N	0.902697	0.181887	0.465943
	N269	N	0.074358	0.180347	0.540001
	N270	N	0.077683	0.822228	0.466678
	N271	N	0.902787	0.821649	0.538785
	N272	N	0.170253	0.463573	0.917937
	N273	N	0.172108	0.538626	0.089800
	N274	N	0.813694	0.464467	0.089041
	N275	N	0.813904	0.539324	0.918163
	O276	O	-0.023061	-0.095094	0.069108
	H277	H	-0.013184	-0.091989	0.060022
	H278	H	-0.016897	-0.092374	0.075200
	O279	O	0.550935	0.567034	0.516241
	H280	H	0.552415	0.570404	0.524430
	H281	H	0.553776	0.577261	0.517422
	O282	O	0.553875	0.556001	0.523509
	H283	H	0.551633	0.570658	0.528761
	H284	H	0.558614	0.540933	0.523125
	O285	O	0.066994	1.015280	1.042449
	H286	H	0.063468	1.023045	1.050546
	H287	H	0.063302	1.019306	1.045060
	O288	O	0.509727	0.492566	0.546416
	H289	H	0.501441	0.498199	0.546798
	H290	H	0.514370	0.485222	0.538245
	O291	O	1.049353	0.930983	1.040425
	H292	H	1.047367	0.935783	1.053330
	H293	H	1.056162	0.942194	1.033367
	O294	O	1.062429	0.975480	0.982940
	H295	H	1.079066	0.976576	0.981552
	H296	H	1.054161	0.975390	0.990183
	O297	O	0.997362	0.065676	1.041344
	H298	H	0.991682	0.067655	1.034619
	H299	H	0.993612	0.061718	1.033532
	O300	O	0.471258	0.445068	0.447396
	H301	H	0.466540	0.448785	0.446410
	H302	H	0.484350	0.443108	0.445089
	O303	O	1.029057	0.001154	-0.063260
	H304	H	1.022392	0.010033	-0.064672
	H305	H	1.023295	-0.002399	-0.055493
	O306	O	-0.123912	1.092815	0.983899
	H307	H	-0.117866	1.092528	0.990428
	H308	H	-0.138881	1.090814	0.986407
	O309	O	0.538698	0.477379	0.476527
	H310	H	0.532194	0.468233	0.468526
	H311	H	0.535014	0.487066	0.476814
	O312	O	0.941033	-0.011049	1.000444
	H313	H	0.938117	-0.010596	0.994972
	H314	H	0.949187	-0.018831	1.001833
	O315	O	0.454542	0.436270	0.447221
	H316	H	0.461794	0.432526	0.455022
	H317	H	0.457112	0.434475	0.444424
	O318	O	0.460861	0.549251	0.537466
	H319	H	0.461825	0.551755	0.540841
	H320	H	0.464330	0.546925	0.539026
	O321	O	0.897785	1.046284	0.975003
	H322	H	0.891733	1.035945	0.974194
	H323	H	0.891380	1.049952	0.966451
	O324	O	0.534629	0.516744	0.481437
	H325	H	0.539679	0.510724	0.485083
	H326	H	0.534339	0.520056	0.486894
	O327	O	0.481401	0.533964	0.554955
	H328	H	0.478040	0.532895	0.551473
	H329	H	0.492684	0.530722	0.553776
	O330	O	0.949110	0.016236	1.041242
	H331	H	0.952986	0.020434	1.050246
	H332	H	0.959659	0.013823	1.048252
	O333	O	1.018827	1.064545	0.014582
	H334	H	1.019140	1.072018	0.002764
	H335	H	1.024512	1.057985	0.017250
	O336	O	0.444838	0.548536	0.547631
	H337	H	0.443202	0.545032	0.557577
	H338	H	0.453333	0.548028	0.543802
	O339	O	0.459536	0.576819	0.517245
	H340	H	0.459834	0.583558	0.511047
	H341	H	0.464931	0.571867	0.516808
	O342	O	0.052829	0.989037	-0.017535
	H343	H	0.057538	0.995966	-0.018932
	H344	H	0.051610	0.987665	-0.010885
	O345	O	0.007198	0.014481	-0.095065
	H346	H	0.009090	0.001538	-0.105632
	H347	H	0.014459	0.006044	-0.093620
	O348	O	0.444699	0.538232	0.488484
	H349	H	0.438108	0.545631	0.487018
	H350	H	0.441952	0.539009	0.482452
	O351	O	0.529072	0.392684	0.534670
	H352	H	0.523598	0.393579	0.537098
	H353	H	0.534702	0.392093	0.532341
	O354	O	1.120043	0.980317	0.051962
	H355	H	1.122106	0.986845	0.052436
	H356	H	1.113418	0.988844	0.058887
	O357	O	-0.067847	-0.071655	0.996738
	H358	H	-0.068953	-0.075844	0.995237
	H359	H	-0.066133	-0.069055	1.004293
	O360	O	0.065672	-0.038639	-0.083464
	H361	H	0.060949	-0.042866	-0.091634
	H362	H	0.081626	-0.044332	-0.078031
	O363	O	0.459933	0.439698	0.439506
	H364	H	0.452706	0.441772	0.441741
	H365	H	0.461947	0.442794	0.436217
	O366	O	-0.053483	0.027835	1.026745
	H367	H	-0.061480	0.035135	1.024515
	H368	H	-0.053773	0.016097	1.018714
	O369	O	1.407506	0.493050	-0.556563
	H370	H	1.408688	0.492738	-0.570947
	H371	H	1.402137	0.487349	-0.544504
