data_Molecule from HDF5

_cell_length_a		16.596454
_cell_length_b		16.649582
_cell_length_c		16.547822
_cell_angle_alpha	89.912121
_cell_angle_beta	90.058619
_cell_angle_gamma	89.944868
_symmetry_space_group_name_H-M	'P 1'
_symmetry_Int_Tables_number		1

loop_
	_symmetry_equiv_pos_as_xyz
	x,y,z

loop_
	_atom_site_label
	_atom_site_type_symbol
	_atom_site_fract_x
	_atom_site_fract_y
	_atom_site_fract_z
	H0	H	0.428200	0.828881	0.723872
	H1	H	0.634410	0.141824	0.725004
	H2	H	0.636122	0.830310	0.284271
	H3	H	0.426498	0.140710	0.282207
	H4	H	0.753046	0.379327	0.848138
	H5	H	0.754648	0.593255	0.158168
	H6	H	0.308439	0.592746	0.849215
	H7	H	0.310037	0.380359	0.161112
	H8	H	0.876866	0.709374	0.397841
	H9	H	0.188119	0.705612	0.608061
	H10	H	0.876457	0.264080	0.611636
	H11	H	0.185001	0.261511	0.396017
	H12	H	0.875814	0.380729	0.726063
	H13	H	0.189192	0.588048	0.722966
	H14	H	0.877021	0.592670	0.282052
	H15	H	0.186283	0.378355	0.280556
	H16	H	0.422491	0.709989	0.849729
	H17	H	0.637852	0.708758	0.159092
	H18	H	0.637276	0.263896	0.848355
	H19	H	0.424957	0.263669	0.161050
	H20	H	0.752288	0.830493	0.401525
	H21	H	0.752471	0.141027	0.610447
	H22	H	0.311681	0.829339	0.606694
	H23	H	0.309482	0.140964	0.397986
	H24	H	0.925001	0.333260	0.228481
	H25	H	0.137218	0.641988	0.226205
	H26	H	0.140334	0.331670	0.780596
	H27	H	0.926910	0.641521	0.782159
	H28	H	0.252080	0.882504	0.348063
	H29	H	0.254520	0.092855	0.660258
	H30	H	0.809584	0.091352	0.348737
	H31	H	0.812133	0.881565	0.662302
	H32	H	0.374430	0.205913	0.900818
	H33	H	0.687752	0.205605	0.109441
	H34	H	0.375732	0.763452	0.111797
	H35	H	0.684854	0.761146	0.897151
	H36	H	0.375828	0.879907	0.227236
	H37	H	0.688921	0.088135	0.223448
	H38	H	0.373375	0.088111	0.786094
	H39	H	0.686282	0.879486	0.783165
	H40	H	0.924873	0.208273	0.349726
	H41	H	0.138018	0.207912	0.660745
	H42	H	0.138347	0.763956	0.349681
	H43	H	0.927827	0.765604	0.661754
	H44	H	0.256593	0.331991	0.897682
	H45	H	0.252803	0.641885	0.109908
	H46	H	0.807462	0.333320	0.112075
	H47	H	0.808304	0.641036	0.895904
	H48	H	0.443890	0.096884	0.593179
	H49	H	0.618681	0.875029	0.592892
	H50	H	0.623126	0.098168	0.415637
	H51	H	0.440829	0.873080	0.413074
	H52	H	0.622204	0.391351	0.119116
	H53	H	0.612250	0.573256	0.895475
	H54	H	0.445169	0.579548	0.118034
	H55	H	0.443997	0.402007	0.895704
	H56	H	0.143062	0.573306	0.413939
	H57	H	0.920543	0.573942	0.592871
	H58	H	0.140875	0.402869	0.592311
	H59	H	0.923499	0.406131	0.417915
	H60	H	0.146016	0.395162	0.596390
	H61	H	0.918369	0.575769	0.596562
	H62	H	0.144865	0.579290	0.416156
	H63	H	0.918028	0.395937	0.411633
	H64	H	0.436979	0.574403	0.117839
	H65	H	0.618936	0.578522	0.890514
	H66	H	0.624349	0.401459	0.115778
	H67	H	0.447270	0.395052	0.893830
	H68	H	0.618957	0.097641	0.413156
	H69	H	0.623473	0.873365	0.593040
	H70	H	0.440041	0.097676	0.593470
	H71	H	0.446447	0.875706	0.416436
	H72	H	0.942034	0.598702	0.092328
	H73	H	0.121480	0.373489	0.095717
	H74	H	0.120351	0.597270	0.915755
	H75	H	0.941291	0.375600	0.918845
	H76	H	0.126720	0.893642	0.619321
	H77	H	0.118475	0.074333	0.393297
	H78	H	0.942281	0.074051	0.617347
	H79	H	0.944135	0.895380	0.392823
	H80	H	0.641815	0.076086	0.919282
	H81	H	0.417790	0.079629	0.093681
	H82	H	0.645623	0.892735	0.098178
	H83	H	0.418281	0.902722	0.908172
	H84	H	0.641757	0.893735	0.086307
	H85	H	0.421122	0.073792	0.089095
	H86	H	0.642448	0.071485	0.912819
	H87	H	0.416056	0.888236	0.916428
	H88	H	0.943091	0.074974	0.616868
	H89	H	0.119760	0.075017	0.392533
	H90	H	0.121085	0.903280	0.615007
	H91	H	0.939042	0.897993	0.392025
	H92	H	0.121111	0.596633	0.914679
	H93	H	0.116881	0.376694	0.094085
	H94	H	0.944357	0.598144	0.092916
	H95	H	0.940022	0.374250	0.915046
	H96	H	0.442179	0.098271	0.596742
	H97	H	0.620409	0.872838	0.596949
	H98	H	0.619247	0.096206	0.418033
	H99	H	0.440554	0.874165	0.420411
	H100	H	0.614694	0.396959	0.114203
	H101	H	0.620329	0.568797	0.892612
	H102	H	0.445217	0.571052	0.113589
	H103	H	0.439668	0.397195	0.891513
	H104	H	0.142618	0.574968	0.420309
	H105	H	0.919886	0.578518	0.592550
	H106	H	0.141688	0.394194	0.587069
	H107	H	0.921346	0.395237	0.423932
	H108	H	0.943201	0.597203	0.090556
	H109	H	0.121708	0.375992	0.090452
	H110	H	0.120002	0.597177	0.914908
	H111	H	0.944381	0.375815	0.915256
	H112	H	0.115360	0.893225	0.616409
	H113	H	0.120083	0.073854	0.393415
	H114	H	0.942094	0.075793	0.617134
	H115	H	0.943538	0.900922	0.394684
	H116	H	0.644840	0.078901	0.912828
	H117	H	0.419196	0.072396	0.097221
	H118	H	0.640583	0.903176	0.093977
	H119	H	0.423064	0.901081	0.923894
	C120	C	0.410135	-0.005898	0.625752
	C121	C	0.652703	0.976879	0.626672
	C122	C	0.652787	-0.005588	0.383920
	C123	C	0.410368	0.977015	0.383433
	C124	C	0.652798	0.364348	0.013027
	C125	C	0.651176	0.606975	0.995380
	C126	C	0.409489	0.607841	0.013555
	C127	C	0.410949	0.365389	0.996899
	C128	C	0.040575	0.608068	0.383665
	C129	C	1.023142	0.607241	0.625731
	C130	C	0.040282	0.364877	0.625578
	C131	C	1.023000	0.365393	0.383620
	C132	C	0.910081	0.495563	0.125452
	C133	C	0.152909	0.477819	0.126242
	C134	C	0.153867	0.494568	0.882587
	C135	C	0.909692	0.477899	0.882893
	C136	C	0.153273	0.864928	0.513652
	C137	C	0.152670	0.107421	0.496099
	C138	C	0.909593	0.107587	0.514085
	C139	C	0.910461	0.865383	0.496802
	C140	C	0.539365	0.107065	0.883261
	C141	C	0.523014	0.106611	0.125420
	C142	C	0.539479	0.864227	0.125982
	C143	C	0.521855	0.864117	0.883359
	C144	C	0.409486	0.875748	0.683894
	C145	C	0.654040	0.094547	0.686069
	C146	C	0.654891	0.877078	0.324426
	C147	C	0.408253	0.094160	0.322557
	C148	C	0.712927	0.361518	0.895362
	C149	C	0.713459	0.610771	0.111981
	C150	C	0.348593	0.610606	0.896170
	C151	C	0.350405	0.362349	0.114225
	C152	C	0.923672	0.668811	0.380089
	C153	C	0.141370	0.665695	0.626719
	C154	C	0.923261	0.304356	0.629232
	C155	C	0.138995	0.302873	0.378837
	C156	C	0.923138	0.362547	0.686324
	C157	C	0.141722	0.607480	0.684113
	C158	C	0.923649	0.610694	0.322614
	C159	C	0.139460	0.361257	0.321590
	C160	C	0.405520	0.668926	0.896570
	C161	C	0.655512	0.668200	0.112300
	C162	C	0.655251	0.303921	0.895443
	C163	C	0.407676	0.304274	0.114167
	C164	C	0.712482	0.877124	0.382690
	C165	C	0.712336	0.094266	0.628761
	C166	C	0.351574	0.875950	0.625850
	C167	C	0.350041	0.094282	0.380020
	C168	C	0.906689	0.379441	0.187570
	C169	C	0.155556	0.594987	0.186642
	C170	C	0.157747	0.377918	0.821588
	C171	C	0.908087	0.594692	0.822165
	C172	C	0.213021	0.863141	0.395526
	C173	C	0.214032	0.110660	0.613341
	C174	C	0.849386	0.109863	0.396125
	C175	C	0.851249	0.862885	0.614801
	C176	C	0.421369	0.166146	0.881825
	C177	C	0.640675	0.166045	0.127636
	C178	C	0.422511	0.803805	0.129473
	C179	C	0.638465	0.802441	0.879642
	C180	C	0.422480	0.861615	0.187034
	C181	C	0.641334	0.107435	0.184357
	C182	C	0.421081	0.107910	0.824513
	C183	C	0.639280	0.861267	0.823088
	C184	C	0.906676	0.167956	0.396425
	C185	C	0.155865	0.167870	0.613555
	C186	C	0.156130	0.804735	0.396155
	C187	C	0.908925	0.805251	0.614440
	C188	C	0.215776	0.378209	0.879469
	C189	C	0.212802	0.594919	0.128490
	C190	C	0.848052	0.379800	0.130118
	C191	C	0.848806	0.594463	0.878561
	C192	C	0.434746	0.076068	0.601401
	C193	C	0.627979	0.895073	0.601619
	C194	C	0.627702	0.076235	0.408542
	C195	C	0.435458	0.895554	0.409253
	C196	C	0.627674	0.389491	0.094861
	C197	C	0.624748	0.580801	0.914053
	C198	C	0.435352	0.582232	0.095311
	C199	C	0.436506	0.390929	0.914950
	C200	C	0.122323	0.582716	0.409410
	C201	C	0.941047	0.583005	0.601032
	C202	C	0.121678	0.390146	0.599294
	C203	C	0.942123	0.391534	0.410298
	C204	C	0.935888	0.576680	0.099303
	C205	C	0.127470	0.396661	0.100758
	C206	C	0.127879	0.575640	0.907805
	C207	C	0.934651	0.396402	0.908911
	C208	C	0.128144	0.889707	0.595642
	C209	C	0.126897	0.081728	0.414337
	C210	C	0.935393	0.082360	0.595815
	C211	C	0.935145	0.890766	0.414589
	C212	C	0.621822	0.082517	0.907969
	C213	C	0.440808	0.082272	0.100715
	C214	C	0.621168	0.889422	0.100181
	C215	C	0.440332	0.889834	0.908785
	Zn216	Zn	0.530737	-0.014255	0.755196
	Zn217	Zn	0.531444	-0.014593	0.254342
	Zn218	Zn	0.780708	0.486701	0.003602
	Zn219	Zn	0.281688	0.485958	0.005313
	Zn220	Zn	0.031794	0.736736	0.504805
	Zn221	Zn	0.031180	0.235704	0.504864
	Zn222	Zn	0.031953	0.485706	0.754441
	Zn223	Zn	0.031793	0.486875	0.254779
	Zn224	Zn	0.530636	0.735854	0.004870
	Zn225	Zn	0.530798	0.235915	0.004559
	Zn226	Zn	0.781691	-0.014137	0.505455
	Zn227	Zn	0.280989	-0.013810	0.504449
	N228	N	0.445131	0.950215	0.683864
	N229	N	0.617816	0.020376	0.685218
	N230	N	0.618464	0.951039	0.324985
	N231	N	0.444942	0.020228	0.324385
	N232	N	0.711868	0.398184	0.969460
	N233	N	0.710768	0.573316	0.038274
	N234	N	0.351056	0.573017	0.970040
	N235	N	0.352408	0.399985	0.040387
	N236	N	0.997587	0.667468	0.417161
	N237	N	0.066527	0.665869	0.591360
	N238	N	0.997229	0.305632	0.592080
	N239	N	0.065508	0.305178	0.416870
	N240	N	0.997129	0.399295	0.684369
	N241	N	0.067181	0.571798	0.683763
	N242	N	0.997436	0.573525	0.324859
	N243	N	0.066346	0.399499	0.324523
	N244	N	0.442648	0.667251	0.970583
	N245	N	0.617134	0.665775	0.038813
	N246	N	0.618520	0.305113	0.969803
	N247	N	0.444770	0.306220	0.040026
	N248	N	0.711361	0.951224	0.418900
	N249	N	0.711950	0.019919	0.592935
	N250	N	0.351528	0.950815	0.590704
	N251	N	0.351165	0.020514	0.417193
	N252	N	0.944445	0.452623	0.184963
	N253	N	0.119156	0.521053	0.185569
	N254	N	0.120080	0.451299	0.823376
	N255	N	0.945426	0.521111	0.824669
	N256	N	0.211314	0.899972	0.469622
	N257	N	0.212343	0.073923	0.539050
	N258	N	0.850837	0.073102	0.470457
	N259	N	0.852139	0.899665	0.540515
	N260	N	0.496186	0.166048	0.917480
	N261	N	0.565888	0.166043	0.091859
	N262	N	0.496431	0.805151	0.092275
	N263	N	0.564291	0.803929	0.916283
	N264	N	0.496284	0.898560	0.184886
	N265	N	0.566992	0.071417	0.183422
	N266	N	0.495705	0.072291	0.825056
	N267	N	0.565776	0.898920	0.825211
	N268	N	0.943276	0.166853	0.470832
	N269	N	0.118546	0.166197	0.539510
	N270	N	0.119457	0.805813	0.470491
	N271	N	0.944983	0.806559	0.539847
	N272	N	0.213693	0.451818	0.916637
	N273	N	0.211779	0.520866	0.092048
	N274	N	0.850032	0.453086	0.092219
	N275	N	0.849743	0.520714	0.915549
	O276	O	-0.250198	1.460445	0.293645
	H277	H	-0.261216	1.468812	0.274822
	H278	H	-0.248215	1.456378	0.285982
	O279	O	0.980115	0.934485	-0.189061
	H280	H	0.991130	0.941588	-0.193117
	H281	H	0.983949	0.922696	-0.182796
	O282	O	0.748012	0.267594	0.477706
	H283	H	0.752092	0.256631	0.468221
	H284	H	0.759753	0.262793	0.470986
	O285	O	-0.182147	0.939635	1.209616
	H286	H	-0.198083	0.944931	1.231016
	H287	H	-0.177185	0.941633	1.194349
	O288	O	-0.176801	0.200032	0.833155
	H289	H	-0.176980	0.210340	0.821754
	H290	H	-0.171776	0.165288	0.842914
	O291	O	0.565511	0.503393	0.472255
	H292	H	0.570573	0.513988	0.455882
	H293	H	0.571621	0.504765	0.468489
	O294	O	0.362846	0.585035	0.511188
	H295	H	0.366921	0.585156	0.508860
	H296	H	0.360484	0.593010	0.511264
	O297	O	0.483677	0.445866	0.292842
	H298	H	0.479797	0.438808	0.284187
	H299	H	0.473511	0.438133	0.293658
	O300	O	-0.463548	0.330411	0.332112
	H301	H	-0.462515	0.308781	0.314747
	H302	H	-0.430165	0.341183	0.331941
	O303	O	0.324679	0.670929	0.492441
	H304	H	0.327701	0.667036	0.495519
	H305	H	0.331462	0.679992	0.492166
	O306	O	0.537563	0.440722	0.546095
	H307	H	0.525681	0.434521	0.540593
	H308	H	0.532309	0.420645	0.541088
	O309	O	0.511629	0.698308	0.288124
	H310	H	0.510723	0.730656	0.276053
	H311	H	0.486492	0.697304	0.303747
	O312	O	0.312889	0.475327	0.495109
	H313	H	0.306181	0.463696	0.506032
	H314	H	0.317457	0.469096	0.492776
	O315	O	0.716745	1.296230	0.682344
	H316	H	0.704201	1.306374	0.685957
	H317	H	0.730443	1.284801	0.676225
	O318	O	1.235034	0.027932	0.157503
	H319	H	1.224675	0.016201	0.166582
	H320	H	1.249026	0.022134	0.154319
	O321	O	0.058377	1.203422	1.220777
	H322	H	0.082818	1.216512	1.229673
	H323	H	0.069161	1.216545	1.224433
	O324	O	1.083128	1.224197	-0.051975
	H325	H	1.091841	1.225373	-0.044058
	H326	H	1.098817	1.225946	-0.062989
	O327	O	0.063738	-0.006991	0.818553
	H328	H	0.073728	-0.001574	0.816705
	H329	H	0.059705	-0.014925	0.819502
	O330	O	0.689625	0.700509	0.718594
	H331	H	0.681812	0.697086	0.695881
	H332	H	0.710810	0.719120	0.750685
	O333	O	0.064562	0.787302	0.792140
	H334	H	0.078196	0.782885	0.782283
	H335	H	0.063638	0.774584	0.779646
	O336	O	0.497139	0.274144	0.383357
	H337	H	0.506435	0.276946	0.373626
	H338	H	0.512918	0.265595	0.375443
	O339	O	1.080051	-0.224737	0.996736
	H340	H	1.064796	-0.225710	1.000217
	H341	H	1.088771	-0.223950	1.000436
	O342	O	0.186500	0.056834	-0.174665
	H343	H	0.168578	0.061364	-0.159474
	H344	H	0.188398	0.070242	-0.177687
	O345	O	-0.529711	1.349594	1.525044
	H346	H	-0.524275	1.350159	1.519482
	H347	H	-0.523179	1.355790	1.520259
	O348	O	0.583878	0.693508	0.422876
	H349	H	0.580036	0.700302	0.444408
	H350	H	0.590775	0.695237	0.428504
	O351	O	0.974285	0.024111	1.167289
	H352	H	0.970709	0.017337	1.172880
	H353	H	0.990750	0.015839	1.175197
	O354	O	-0.102465	-0.159637	0.888043
	H355	H	-0.077419	-0.156257	0.895686
	H356	H	-0.104378	-0.143147	0.911605
	O357	O	0.732718	0.286788	0.302463
	H358	H	0.728453	0.324662	0.305130
	H359	H	0.760315	0.270105	0.295057
	O360	O	0.525285	0.704748	0.559379
	H361	H	0.545606	0.706751	0.573829
	H362	H	0.534537	0.687756	0.560745
	O363	O	-0.002525	-0.066929	-0.008723
	H364	H	0.000338	-0.059749	-0.018519
	H365	H	0.014467	-0.053509	-0.002776
	O366	O	0.307558	0.511376	0.284319
	H367	H	0.285278	0.519197	0.268579
	H368	H	0.307965	0.516726	0.285226
	O369	O	1.499497	0.269870	-0.275395
	H370	H	1.500273	0.259962	-0.270684
	H371	H	1.482765	0.260375	-0.268351
	O372	O	0.810339	1.016056	-0.212928
	H373	H	0.801967	1.015745	-0.219033
	H374	H	0.797041	1.012497	-0.210402
	O375	O	1.006069	-0.109010	-0.039210
	H376	H	1.004561	-0.120154	-0.028242
	H377	H	1.018322	-0.108991	-0.031313
	O378	O	-0.687983	0.268491	0.531312
	H379	H	-0.711843	0.240826	0.540800
	H380	H	-0.670477	0.272063	0.520899
	O381	O	-0.123603	0.811164	1.056646
	H382	H	-0.126470	0.810181	1.054583
	H383	H	-0.126727	0.815209	1.066448
	O384	O	1.249208	-0.057160	1.025626
	H385	H	1.250263	-0.052682	1.006318
	H386	H	1.252723	-0.074872	1.003510
	O387	O	0.815376	1.174660	-0.006368
	H388	H	0.811620	1.187107	-0.029191
	H389	H	0.812745	1.179875	-0.013638
	O390	O	0.232766	0.189126	0.204398
	H391	H	0.238672	0.135742	0.213724
	H392	H	0.244592	0.208455	0.209923
	O393	O	1.200492	0.945495	-0.183991
	H394	H	1.185361	0.952265	-0.176179
	H395	H	1.227531	0.950947	-0.208119
	O396	O	0.221323	1.184092	0.888745
	H397	H	0.239939	1.193466	0.894472
	H398	H	0.220384	1.181231	0.899539
	O399	O	-0.135057	0.043687	1.106865
	H400	H	-0.126639	0.065018	1.109099
	H401	H	-0.136883	0.054698	1.083343
	O402	O	0.823618	-0.224246	0.213422
	H403	H	0.790438	-0.251502	0.240034
	H404	H	0.814454	-0.192682	0.196159
	O405	O	0.853161	-0.016565	0.917374
	H406	H	0.861188	-0.018844	0.924696
	H407	H	0.857357	-0.035022	0.931506
	O408	O	0.184751	-0.006839	0.168151
	H409	H	0.201554	-0.009930	0.176757
	H410	H	0.177231	-0.038413	0.165321
	O411	O	0.584345	0.341588	0.643472
	H412	H	0.568234	0.340804	0.653793
	H413	H	0.592073	0.349581	0.636505
	O414	O	0.488891	0.503680	0.629382
	H415	H	0.508728	0.511452	0.634143
	H416	H	0.488195	0.498374	0.607704
	O417	O	-0.630141	0.675608	0.662954
	H418	H	-0.601083	0.670055	0.655171
	H419	H	-0.626172	0.653742	0.640071
	O420	O	-0.024910	1.066618	1.065174
	H421	H	-0.032416	1.080741	1.058198
	H422	H	-0.029888	1.073330	1.052600
	O423	O	-0.132572	-0.094994	0.930559
	H424	H	-0.132051	-0.089322	0.946076
	H425	H	-0.123984	-0.109976	0.955009
	O426	O	0.315072	0.455789	0.722852
	H427	H	0.312603	0.462442	0.741110
	H428	H	0.308279	0.449750	0.723024
	O429	O	0.914615	1.198574	1.128169
	H430	H	0.925456	1.188587	1.128075
	H431	H	0.916495	1.200066	1.121004
	O432	O	0.237324	0.780158	0.796950
	H433	H	0.253799	0.752662	0.767733
	H434	H	0.227576	0.815111	0.792300
	O435	O	-0.285050	0.672643	0.317066
	H436	H	-0.308384	0.665499	0.340608
	H437	H	-0.296905	0.645826	0.329378
	O438	O	-0.403821	0.501618	-0.718767
	H439	H	-0.421092	0.518079	-0.726727
	H440	H	-0.419494	0.499461	-0.718392
	O441	O	0.209263	-0.194861	0.186711
	H442	H	0.212606	-0.197866	0.167915
	H443	H	0.193231	-0.187415	0.181892
	O444	O	0.613500	0.574888	0.699138
	H445	H	0.612873	0.559684	0.700809
	H446	H	0.622828	0.574963	0.706201
	O447	O	0.082039	0.909105	1.204050
	H448	H	0.082988	0.889278	1.211500
	H449	H	0.063929	0.900002	1.206190
	O450	O	0.005875	0.768025	1.228915
	H451	H	-0.018141	0.751441	1.232573
	H452	H	-0.022086	0.752381	1.237603
	O453	O	0.333609	-0.310828	1.308269
	H454	H	0.324673	-0.305559	1.316498
	H455	H	0.332585	-0.326471	1.315956
	O456	O	0.004301	0.206736	0.788923
	H457	H	0.008022	0.232330	0.761870
	H458	H	-0.004844	0.191609	0.799699
	O459	O	0.189425	0.149170	0.049119
	H460	H	0.181905	0.129954	0.074509
	H461	H	0.205979	0.167273	0.067418
	O462	O	0.751625	0.677036	0.519235
	H463	H	0.756025	0.665265	0.526037
	H464	H	0.763925	0.679796	0.525752
	O465	O	0.951108	0.115513	0.015259
	H466	H	0.951075	0.112742	0.009719
	H467	H	0.970623	0.117443	0.012023
	O468	O	0.677178	0.505745	0.561896
	H469	H	0.682818	0.506742	0.555631
	H470	H	0.679400	0.500277	0.581802
	O471	O	0.618820	0.343293	0.543701
	H472	H	0.635351	0.334900	0.555196
	H473	H	0.610734	0.335269	0.537563
	O474	O	0.735107	0.524638	0.448611
	H475	H	0.736337	0.524428	0.453019
	H476	H	0.737712	0.510576	0.452684
	O477	O	0.249037	-0.227019	0.973685
	H478	H	0.248890	-0.235135	0.938980
	H479	H	0.259168	-0.246836	0.963717
	O480	O	0.742277	0.513993	0.720233
	H481	H	0.739895	0.527298	0.729375
	H482	H	0.754622	0.503267	0.736599
	O483	O	0.332635	1.285639	-0.293475
	H484	H	0.340804	1.283479	-0.300141
	H485	H	0.330546	1.308665	-0.308132
	O486	O	0.332865	0.347501	0.363154
	H487	H	0.350522	0.345384	0.366232
	H488	H	0.337477	0.364619	0.361952
	O489	O	1.531132	0.662944	-0.274987
	H490	H	1.541432	0.650699	-0.282478
	H491	H	1.544132	0.666175	-0.260605
