data_Molecule from HDF5

_cell_length_a		16.317821
_cell_length_b		16.286615
_cell_length_c		16.318183
_cell_angle_alpha	89.994686
_cell_angle_beta	90.108815
_cell_angle_gamma	89.919019
_symmetry_space_group_name_H-M	'P 1'
_symmetry_Int_Tables_number		1

loop_
	_symmetry_equiv_pos_as_xyz
	x,y,z

loop_
	_atom_site_label
	_atom_site_type_symbol
	_atom_site_fract_x
	_atom_site_fract_y
	_atom_site_fract_z
	H0	H	0.398761	0.845882	0.718544
	H1	H	0.593559	0.172830	0.719037
	H2	H	0.592934	0.844865	0.291665
	H3	H	0.396257	0.172329	0.289766
	H4	H	0.710639	0.409628	0.841254
	H5	H	0.710697	0.607778	0.167569
	H6	H	0.279819	0.609204	0.841507
	H7	H	0.280951	0.410584	0.167958
	H8	H	0.832017	0.724350	0.406664
	H9	H	0.158309	0.724529	0.603524
	H10	H	0.831405	0.296075	0.602907
	H11	H	0.158105	0.294790	0.405980
	H12	H	0.832450	0.411191	0.720347
	H13	H	0.158405	0.608561	0.719571
	H14	H	0.832505	0.609623	0.288975
	H15	H	0.158165	0.410803	0.289840
	H16	H	0.397621	0.722966	0.840631
	H17	H	0.593450	0.722994	0.168263
	H18	H	0.593246	0.294838	0.841138
	H19	H	0.397109	0.294248	0.168093
	H20	H	0.710415	0.845547	0.407054
	H21	H	0.708945	0.173561	0.602942
	H22	H	0.282574	0.846358	0.602728
	H23	H	0.281489	0.173133	0.405893
	H24	H	0.897104	0.346190	0.219644
	H25	H	0.094412	0.672402	0.219520
	H26	H	0.093869	0.346581	0.790381
	H27	H	0.897444	0.673643	0.791634
	H28	H	0.209725	0.910741	0.342055
	H29	H	0.210789	0.107539	0.667782
	H30	H	0.780809	0.107521	0.342031
	H31	H	0.782769	0.912279	0.669859
	H32	H	0.332828	0.223747	0.906638
	H33	H	0.659423	0.223184	0.102168
	H34	H	0.332393	0.794224	0.101498
	H35	H	0.659507	0.795982	0.907331
	H36	H	0.332219	0.909408	0.219532
	H37	H	0.658836	0.108203	0.220334
	H38	H	0.332093	0.107886	0.789902
	H39	H	0.659083	0.912147	0.791680
	H40	H	0.896198	0.224213	0.341593
	H41	H	0.094136	0.223956	0.668331
	H42	H	0.092198	0.795919	0.341348
	H43	H	0.897952	0.795184	0.668425
	H44	H	0.209898	0.346338	0.906734
	H45	H	0.210487	0.672935	0.103883
	H46	H	0.781788	0.345518	0.103035
	H47	H	0.781002	0.672690	0.907222
	H48	H	0.406375	0.124388	0.596094
	H49	H	0.586164	0.895438	0.594605
	H50	H	0.587495	0.128957	0.398115
	H51	H	0.400204	0.894827	0.421052
	H52	H	0.595702	0.404169	0.125674
	H53	H	0.584656	0.605082	0.888913
	H54	H	0.400668	0.607089	0.122158
	H55	H	0.404146	0.425395	0.891925
	H56	H	0.112123	0.600635	0.406400
	H57	H	0.882599	0.589630	0.600620
	H58	H	0.110827	0.413208	0.593102
	H59	H	0.876810	0.407278	0.413543
	H60	H	0.108412	0.423541	0.597046
	H61	H	0.873097	0.610844	0.610335
	H62	H	0.112494	0.608570	0.413706
	H63	H	0.883021	0.423977	0.418851
	H64	H	0.399645	0.597862	0.120238
	H65	H	0.593676	0.605610	0.886312
	H66	H	0.596502	0.429310	0.118162
	H67	H	0.409098	0.409631	0.888955
	H68	H	0.576837	0.119822	0.417641
	H69	H	0.594857	0.891616	0.596395
	H70	H	0.398997	0.127071	0.595047
	H71	H	0.395834	0.889568	0.406162
	H72	H	0.901312	0.628631	0.106393
	H73	H	0.082175	0.397286	0.091733
	H74	H	0.094835	0.627868	0.912435
	H75	H	0.905770	0.393952	0.910654
	H76	H	0.083300	0.914459	0.619878
	H77	H	0.095759	0.102993	0.386141
	H78	H	0.896673	0.110796	0.625399
	H79	H	0.900462	0.910869	0.387006
	H80	H	0.613672	0.108500	0.912094
	H81	H	0.382664	0.096984	0.092869
	H82	H	0.613134	0.914261	0.100270
	H83	H	0.382350	0.921563	0.915811
	H84	H	0.611071	0.915622	0.095725
	H85	H	0.378081	0.100772	0.104866
	H86	H	0.609832	0.098877	0.916215
	H87	H	0.377215	0.918314	0.902914
	H88	H	0.898114	0.094485	0.619230
	H89	H	0.085544	0.097467	0.392103
	H90	H	0.093538	0.913392	0.624129
	H91	H	0.897242	0.921069	0.389325
	H92	H	0.085733	0.627656	0.906058
	H93	H	0.097474	0.391603	0.094174
	H94	H	0.910111	0.622372	0.094286
	H95	H	0.901193	0.393215	0.914240
	H96	H	0.402409	0.127381	0.602038
	H97	H	0.588386	0.891699	0.603816
	H98	H	0.599691	0.126596	0.418831
	H99	H	0.411126	0.894805	0.408530
	H100	H	0.574013	0.416089	0.116343
	H101	H	0.590256	0.597683	0.888844
	H102	H	0.407326	0.602096	0.118787
	H103	H	0.393441	0.414756	0.885430
	H104	H	0.109354	0.598493	0.416502
	H105	H	0.880708	0.609727	0.586018
	H106	H	0.112731	0.415580	0.603743
	H107	H	0.877270	0.421336	0.400797
	H108	H	0.894541	0.626115	0.091837
	H109	H	0.086593	0.390980	0.106762
	H110	H	0.084975	0.623852	0.916524
	H111	H	0.900829	0.392257	0.908724
	H112	H	0.090123	0.923130	0.619758
	H113	H	0.084751	0.109269	0.387789
	H114	H	0.912011	0.105103	0.618827
	H115	H	0.907875	0.917661	0.391167
	H116	H	0.612761	0.099329	0.905625
	H117	H	0.378598	0.109393	0.094550
	H118	H	0.610674	0.919054	0.099436
	H119	H	0.377165	0.908303	0.912884
	C120	C	0.374416	0.018391	0.626188
	C121	C	0.617412	1.000916	0.626534
	C122	C	0.616926	0.017082	0.383371
	C123	C	0.373616	1.000891	0.382982
	C124	C	0.617040	0.388008	0.012289
	C125	C	0.617559	0.631119	0.995989
	C126	C	0.373992	0.631067	0.012564
	C127	C	0.373980	0.387917	0.996841
	C128	C	0.003502	0.631251	0.383591
	C129	C	0.986924	0.631361	0.626904
	C130	C	0.003088	0.388346	0.626488
	C131	C	0.986846	0.388742	0.383319
	C132	C	0.873643	0.517586	0.126150
	C133	C	0.117497	0.501054	0.126376
	C134	C	0.116984	0.518534	0.883354
	C135	C	0.873947	0.501297	0.883108
	C136	C	0.117416	0.887972	0.513493
	C137	C	0.117098	0.131676	0.496566
	C138	C	0.873413	0.131604	0.513320
	C139	C	0.873758	0.888178	0.497351
	C140	C	0.504327	0.131134	0.882684
	C141	C	0.487521	0.130772	0.126354
	C142	C	0.503815	0.887251	0.126390
	C143	C	0.486970	0.887619	0.882601
	C144	C	0.377707	0.894944	0.680961
	C145	C	0.614324	0.124330	0.681126
	C146	C	0.613635	0.893857	0.329260
	C147	C	0.375823	0.123656	0.327566
	C148	C	0.672182	0.389951	0.889720
	C149	C	0.672395	0.628311	0.118988
	C150	C	0.318405	0.628760	0.889921
	C151	C	0.319070	0.390402	0.119248
	C152	C	0.880630	0.686235	0.386182
	C153	C	0.109676	0.686408	0.623823
	C154	C	0.880219	0.333736	0.623463
	C155	C	0.109549	0.332906	0.385718
	C156	C	0.880564	0.391192	0.681422
	C157	C	0.109782	0.628770	0.681422
	C158	C	0.880971	0.629130	0.327750
	C159	C	0.109851	0.390624	0.328139
	C160	C	0.376840	0.685537	0.889528
	C161	C	0.614549	0.685796	0.119177
	C162	C	0.614060	0.332667	0.889640
	C163	C	0.376894	0.332514	0.119383
	C164	C	0.671968	0.894127	0.386744
	C165	C	0.671641	0.124616	0.623648
	C166	C	0.320100	0.895164	0.623325
	C167	C	0.318696	0.123964	0.385184
	C168	C	0.876684	0.394718	0.181394
	C169	C	0.115164	0.623777	0.181683
	C170	C	0.114358	0.395298	0.828450
	C171	C	0.876362	0.624662	0.828698
	C172	C	0.172022	0.890156	0.390651
	C173	C	0.172593	0.128746	0.619272
	C174	C	0.818288	0.128747	0.390735
	C175	C	0.820001	0.891638	0.620511
	C176	C	0.381182	0.185778	0.885898
	C177	C	0.610544	0.185519	0.123147
	C178	C	0.381173	0.831739	0.123151
	C179	C	0.610376	0.833226	0.886120
	C180	C	0.380946	0.889153	0.181392
	C181	C	0.610263	0.128202	0.181553
	C182	C	0.381049	0.128309	0.827951
	C183	C	0.610325	0.891030	0.828887
	C184	C	0.875966	0.186392	0.390476
	C185	C	0.114488	0.186388	0.619331
	C186	C	0.113605	0.833091	0.390451
	C187	C	0.877382	0.833584	0.620099
	C188	C	0.172040	0.395180	0.886019
	C189	C	0.172819	0.623938	0.124235
	C190	C	0.819372	0.394485	0.123540
	C191	C	0.818697	0.624100	0.886133
	C192	C	0.396232	0.104151	0.604385
	C193	C	0.596073	0.915202	0.604761
	C194	C	0.594674	0.103055	0.405093
	C195	C	0.395837	0.915023	0.405320
	C196	C	0.595069	0.410013	0.098061
	C197	C	0.595643	0.609365	0.910184
	C198	C	0.395972	0.608986	0.098281
	C199	C	0.395947	0.409951	0.910893
	C200	C	0.089229	0.608941	0.405690
	C201	C	0.900953	0.609704	0.605338
	C202	C	0.088435	0.410775	0.604404
	C203	C	0.901420	0.411028	0.404752
	C204	C	0.895562	0.603672	0.103965
	C205	C	0.095314	0.415354	0.104027
	C206	C	0.095025	0.604334	0.905169
	C207	C	0.896213	0.415258	0.904688
	C208	C	0.095468	0.910463	0.599185
	C209	C	0.095288	0.109644	0.410741
	C210	C	0.895742	0.109792	0.599183
	C211	C	0.895526	0.910060	0.411239
	C212	C	0.590038	0.108753	0.904857
	C213	C	0.401900	0.108754	0.104178
	C214	C	0.589565	0.909714	0.104860
	C215	C	0.400916	0.909566	0.904303
	Zn216	Zn	0.496161	0.009498	0.754819
	Zn217	Zn	0.495177	0.009041	0.254956
	Zn218	Zn	0.745613	0.508976	0.004617
	Zn219	Zn	0.245368	0.509846	0.004738
	Zn220	Zn	-0.004843	0.759827	0.505132
	Zn221	Zn	-0.005174	0.260092	0.504953
	Zn222	Zn	-0.004725	0.510319	0.755240
	Zn223	Zn	-0.004585	0.509654	0.254097
	Zn224	Zn	0.495857	0.759360	0.004027
	Zn225	Zn	0.495498	0.259348	0.004411
	Zn226	Zn	0.745228	0.009534	0.505590
	Zn227	Zn	0.245796	0.009781	0.504399
	N228	N	0.410999	0.972453	0.682596
	N229	N	0.581268	0.046684	0.683088
	N230	N	0.580161	0.971432	0.326974
	N231	N	0.409517	0.046288	0.326305
	N232	N	0.674197	0.423392	0.967139
	N233	N	0.674431	0.595155	0.041470
	N234	N	0.316629	0.595543	0.967428
	N235	N	0.317312	0.424067	0.042020
	N236	N	0.957820	0.687709	0.419946
	N237	N	0.032199	0.687986	0.590441
	N238	N	0.957312	0.332015	0.589945
	N239	N	0.032423	0.331698	0.419382
	N240	N	0.957983	0.424401	0.683485
	N241	N	0.032499	0.595270	0.683298
	N242	N	0.958387	0.595623	0.325962
	N243	N	0.032697	0.424591	0.326219
	N244	N	0.410743	0.686982	0.966764
	N245	N	0.581001	0.687537	0.041727
	N246	N	0.580321	0.331371	0.966779
	N247	N	0.410523	0.331074	0.042030
	N248	N	0.673967	0.971839	0.419558
	N249	N	0.673587	0.047155	0.590149
	N250	N	0.317798	0.972798	0.590062
	N251	N	0.317180	0.046518	0.418907
	N252	N	0.909830	0.472434	0.183018
	N253	N	0.081627	0.546507	0.183335
	N254	N	0.080811	0.472916	0.826693
	N255	N	0.910249	0.547315	0.827025
	N256	N	0.174576	0.923567	0.468089
	N257	N	0.174162	0.095239	0.541899
	N258	N	0.816770	0.095203	0.468023
	N259	N	0.817559	0.924798	0.542896
	N260	N	0.458700	0.187817	0.919040
	N261	N	0.533192	0.187154	0.089258
	N262	N	0.458552	0.830442	0.089917
	N263	N	0.532694	0.831259	0.919010
	N264	N	0.458176	0.923092	0.183482
	N265	N	0.532833	0.095041	0.183673
	N266	N	0.458607	0.095032	0.826065
	N267	N	0.532734	0.924139	0.826514
	N268	N	0.909613	0.188178	0.467831
	N269	N	0.080727	0.188175	0.542004
	N270	N	0.080549	0.831582	0.467926
	N271	N	0.909925	0.831382	0.542479
	N272	N	0.173767	0.472656	0.919426
	N273	N	0.173922	0.546544	0.090292
	N274	N	0.817481	0.471851	0.089948
	N275	N	0.816935	0.546328	0.918869
	O276	O	0.020064	0.005507	1.102346
	H277	H	0.020321	0.007368	1.103227
	H278	H	0.020918	0.004484	1.110689
	O279	O	0.490825	0.471924	0.477641
	H280	H	0.490257	0.468526	0.475542
	H281	H	0.485818	0.475509	0.472131
	O282	O	0.476312	0.508678	0.502651
	H283	H	0.476668	0.510917	0.501447
	H284	H	0.473858	0.515764	0.513177
	O285	O	0.461065	0.489274	0.478306
	H286	H	0.471750	0.488969	0.484270
	H287	H	0.472272	0.486548	0.474518
	O288	O	0.444883	0.502201	0.500689
	H289	H	0.445950	0.504364	0.497775
	H290	H	0.439894	0.505349	0.494561
	O291	O	0.466706	0.457212	0.484948
	H292	H	0.466619	0.461219	0.479955
	H293	H	0.457968	0.449606	0.486419
	O294	O	0.469208	0.473430	0.485014
	H295	H	0.471982	0.471778	0.490524
	H296	H	0.467127	0.464129	0.491386
	O297	O	1.518407	-0.546921	-0.458699
	H298	H	1.517750	-0.550465	-0.460696
	H299	H	1.509976	-0.542963	-0.464292
