data_Molecule from HDF5

_cell_length_a		16.296766
_cell_length_b		16.259094
_cell_length_c		16.357661
_cell_angle_alpha	89.992550
_cell_angle_beta	90.074193
_cell_angle_gamma	90.023854
_symmetry_space_group_name_H-M	'P 1'
_symmetry_Int_Tables_number		1

loop_
	_symmetry_equiv_pos_as_xyz
	x,y,z

loop_
	_atom_site_label
	_atom_site_type_symbol
	_atom_site_fract_x
	_atom_site_fract_y
	_atom_site_fract_z
	H0	H	0.408514	0.840271	0.717202
	H1	H	0.606436	0.167348	0.717380
	H2	H	0.605396	0.840397	0.287594
	H3	H	0.407192	0.167958	0.287345
	H4	H	0.719859	0.406771	0.839246
	H5	H	0.721914	0.603836	0.164820
	H6	H	0.291365	0.603283	0.839490
	H7	H	0.290669	0.405700	0.164855
	H8	H	0.841411	0.717321	0.406134
	H9	H	0.169467	0.717379	0.600417
	H10	H	0.841884	0.290482	0.598666
	H11	H	0.169822	0.290192	0.405795
	H12	H	0.842335	0.405291	0.716424
	H13	H	0.168853	0.602872	0.717456
	H14	H	0.842324	0.603613	0.287433
	H15	H	0.169086	0.403431	0.286793
	H16	H	0.408606	0.718769	0.838879
	H17	H	0.604465	0.718634	0.165435
	H18	H	0.603030	0.290714	0.839553
	H19	H	0.406881	0.289217	0.165408
	H20	H	0.719255	0.839845	0.405151
	H21	H	0.720442	0.168323	0.600068
	H22	H	0.292476	0.839977	0.600258
	H23	H	0.292429	0.168599	0.404122
	H24	H	0.906626	0.340666	0.215996
	H25	H	0.104948	0.668214	0.217628
	H26	H	0.104352	0.340623	0.788434
	H27	H	0.907618	0.668043	0.787660
	H28	H	0.220570	0.905133	0.339316
	H29	H	0.222712	0.104264	0.665158
	H30	H	0.790064	0.103888	0.339510
	H31	H	0.791450	0.905976	0.665292
	H32	H	0.342503	0.217732	0.904118
	H33	H	0.670919	0.217963	0.100439
	H34	H	0.342564	0.790371	0.099378
	H35	H	0.670147	0.790799	0.905667
	H36	H	0.343461	0.903815	0.217858
	H37	H	0.669755	0.103375	0.217884
	H38	H	0.343743	0.102979	0.786875
	H39	H	0.669347	0.903601	0.786937
	H40	H	0.907079	0.219512	0.339693
	H41	H	0.104575	0.219362	0.666181
	H42	H	0.102713	0.789456	0.339265
	H43	H	0.908319	0.790480	0.666098
	H44	H	0.219985	0.340265	0.904425
	H45	H	0.220400	0.668591	0.100511
	H46	H	0.791659	0.341298	0.099050
	H47	H	0.793869	0.669270	0.904872
	H48	H	0.415436	0.119805	0.593574
	H49	H	0.595671	0.886786	0.603680
	H50	H	0.598707	0.123406	0.401500
	H51	H	0.416421	0.889821	0.409800
	H52	H	0.593139	0.410033	0.116791
	H53	H	0.599618	0.600672	0.885603
	H54	H	0.413402	0.603342	0.118944
	H55	H	0.412789	0.404142	0.884276
	H56	H	0.123489	0.598151	0.404163
	H57	H	0.886768	0.599090	0.600046
	H58	H	0.123201	0.415660	0.602605
	H59	H	0.892896	0.409348	0.420797
	H60	H	0.123457	0.404887	0.595614
	H61	H	0.889456	0.599862	0.592597
	H62	H	0.121801	0.600557	0.413199
	H63	H	0.891766	0.422995	0.404419
	H64	H	0.408498	0.594729	0.118899
	H65	H	0.602293	0.597408	0.885442
	H66	H	0.604364	0.408135	0.120603
	H67	H	0.406199	0.414264	0.885694
	H68	H	0.590343	0.117159	0.412713
	H69	H	0.594969	0.890897	0.588267
	H70	H	0.412144	0.121427	0.594542
	H71	H	0.410775	0.887795	0.411724
	H72	H	0.910182	0.620293	0.088149
	H73	H	0.104738	0.386378	0.096651
	H74	H	0.103167	0.621586	0.909918
	H75	H	0.904729	0.385037	0.908781
	H76	H	0.103772	0.919137	0.616803
	H77	H	0.100062	0.100026	0.385647
	H78	H	0.906948	0.107224	0.622923
	H79	H	0.910570	0.916849	0.387487
	H80	H	0.621791	0.096188	0.910615
	H81	H	0.393844	0.094157	0.087287
	H82	H	0.622782	0.911311	0.097002
	H83	H	0.391220	0.911266	0.912035
	H84	H	0.622829	0.910651	0.094633
	H85	H	0.389763	0.091048	0.101391
	H86	H	0.623763	0.096759	0.906258
	H87	H	0.390224	0.915452	0.908052
	H88	H	0.906551	0.086661	0.616419
	H89	H	0.100928	0.093162	0.387684
	H90	H	0.091611	0.909107	0.616635
	H91	H	0.918007	0.908497	0.387756
	H92	H	0.096808	0.621843	0.905379
	H93	H	0.093955	0.388415	0.099451
	H94	H	0.908717	0.624826	0.102741
	H95	H	0.917654	0.386945	0.901419
	H96	H	0.414587	0.119991	0.597189
	H97	H	0.607920	0.884498	0.594754
	H98	H	0.605625	0.121163	0.415772
	H99	H	0.411950	0.886493	0.405745
	H100	H	0.601164	0.418959	0.117194
	H101	H	0.598504	0.596648	0.886694
	H102	H	0.417642	0.595059	0.115824
	H103	H	0.417490	0.413889	0.889389
	H104	H	0.120145	0.592240	0.410025
	H105	H	0.890080	0.593214	0.596065
	H106	H	0.119307	0.415437	0.590580
	H107	H	0.885044	0.403045	0.401195
	H108	H	0.922471	0.619483	0.097552
	H109	H	0.097798	0.390485	0.088778
	H110	H	0.096787	0.619152	0.912906
	H111	H	0.916927	0.390364	0.916366
	H112	H	0.105742	0.904149	0.622085
	H113	H	0.094594	0.096725	0.388913
	H114	H	0.925002	0.098071	0.614522
	H115	H	0.908328	0.906727	0.383840
	H116	H	0.624307	0.100900	0.909734
	H117	H	0.387663	0.104745	0.096253
	H118	H	0.622127	0.913072	0.095605
	H119	H	0.388873	0.909502	0.906847
	C120	C	0.385424	0.012115	0.623798
	C121	C	0.628063	0.995763	0.623717
	C122	C	0.627335	0.012192	0.381289
	C123	C	0.384340	0.995973	0.380534
	C124	C	0.627780	0.383516	0.010712
	C125	C	0.628353	0.626462	0.993775
	C126	C	0.384429	0.626231	0.010368
	C127	C	0.383642	0.381965	0.993902
	C128	C	0.013857	0.625716	0.381012
	C129	C	0.997241	0.625818	0.624447
	C130	C	0.014054	0.382906	0.624012
	C131	C	0.997812	0.382383	0.380447
	C132	C	0.884919	0.513368	0.123745
	C133	C	0.127569	0.496465	0.123543
	C134	C	0.127406	0.512653	0.881214
	C135	C	0.884787	0.496008	0.880669
	C136	C	0.128269	0.881985	0.510701
	C137	C	0.127385	0.125500	0.494976
	C138	C	0.884181	0.125920	0.510309
	C139	C	0.884466	0.882904	0.494299
	C140	C	0.515019	0.126430	0.880192
	C141	C	0.498641	0.125550	0.123829
	C142	C	0.514661	0.882976	0.123780
	C143	C	0.498003	0.883144	0.880965
	C144	C	0.387838	0.889089	0.678990
	C145	C	0.626548	0.118739	0.679358
	C146	C	0.625177	0.889208	0.325873
	C147	C	0.386931	0.119295	0.325402
	C148	C	0.682667	0.385923	0.888131
	C149	C	0.683708	0.623963	0.116334
	C150	C	0.329449	0.623562	0.887723
	C151	C	0.328420	0.384687	0.116401
	C152	C	0.890534	0.680081	0.384819
	C153	C	0.120205	0.680465	0.621671
	C154	C	0.890849	0.327861	0.620347
	C155	C	0.120933	0.327517	0.384274
	C156	C	0.891056	0.384814	0.678590
	C157	C	0.119983	0.623462	0.679817
	C158	C	0.890882	0.623414	0.325940
	C159	C	0.120371	0.383808	0.324992
	C160	C	0.387469	0.681135	0.887522
	C161	C	0.625304	0.680984	0.116714
	C162	C	0.624390	0.328508	0.888163
	C163	C	0.386274	0.327062	0.116574
	C164	C	0.682072	0.888997	0.384076
	C165	C	0.683238	0.119178	0.621140
	C166	C	0.330565	0.888766	0.620696
	C167	C	0.329797	0.119491	0.383348
	C168	C	0.886483	0.389728	0.178364
	C169	C	0.125211	0.619472	0.179267
	C170	C	0.125045	0.389657	0.825704
	C171	C	0.887411	0.619324	0.825696
	C172	C	0.182553	0.884758	0.387869
	C173	C	0.183537	0.124096	0.617253
	C174	C	0.828177	0.124261	0.388126
	C175	C	0.829553	0.885387	0.616876
	C176	C	0.391825	0.180640	0.883327
	C177	C	0.621596	0.180599	0.121206
	C178	C	0.391548	0.827684	0.120772
	C179	C	0.621309	0.828416	0.884579
	C180	C	0.391990	0.884303	0.179398
	C181	C	0.621102	0.123746	0.179804
	C182	C	0.392467	0.123700	0.824755
	C183	C	0.620973	0.884488	0.825626
	C184	C	0.886051	0.181760	0.388227
	C185	C	0.124962	0.181195	0.617478
	C186	C	0.124469	0.827017	0.387974
	C187	C	0.887662	0.828121	0.617151
	C188	C	0.182385	0.389285	0.883641
	C189	C	0.182594	0.619730	0.121152
	C190	C	0.829679	0.389888	0.120039
	C191	C	0.830854	0.619837	0.883783
	C192	C	0.407510	0.098072	0.601476
	C193	C	0.605952	0.909635	0.601958
	C194	C	0.604762	0.098346	0.403450
	C195	C	0.406441	0.910257	0.402634
	C196	C	0.606008	0.405856	0.096155
	C197	C	0.606481	0.604817	0.908047
	C198	C	0.406405	0.604216	0.095839
	C199	C	0.405671	0.404306	0.908457
	C200	C	0.099735	0.603693	0.402667
	C201	C	0.911116	0.603622	0.602775
	C202	C	0.099871	0.405239	0.602405
	C203	C	0.912169	0.404965	0.402358
	C204	C	0.907212	0.599296	0.102417
	C205	C	0.105262	0.410610	0.101420
	C206	C	0.105449	0.598795	0.903105
	C207	C	0.906597	0.409825	0.902527
	C208	C	0.106870	0.904149	0.596219
	C209	C	0.105033	0.103160	0.409589
	C210	C	0.906332	0.103729	0.595863
	C211	C	0.905858	0.904512	0.408571
	C212	C	0.601129	0.104313	0.902405
	C213	C	0.412757	0.103104	0.101541
	C214	C	0.600369	0.905079	0.101992
	C215	C	0.412300	0.905571	0.902569
	Zn216	Zn	0.507328	0.003997	0.752107
	Zn217	Zn	0.506225	0.003977	0.252627
	Zn218	Zn	0.757194	0.505381	0.002094
	Zn219	Zn	0.255996	0.504417	0.001872
	Zn220	Zn	0.005471	0.753697	0.502967
	Zn221	Zn	0.006063	0.254512	0.502954
	Zn222	Zn	0.005785	0.504392	0.752552
	Zn223	Zn	0.005953	0.504043	0.252216
	Zn224	Zn	0.506465	0.754583	0.002100
	Zn225	Zn	0.506789	0.254487	0.002899
	Zn226	Zn	0.755694	0.004263	0.502287
	Zn227	Zn	0.256358	0.004403	0.502640
	N228	N	0.421276	0.966723	0.680875
	N229	N	0.592975	0.041022	0.680957
	N230	N	0.591914	0.967044	0.324149
	N231	N	0.420173	0.041477	0.323527
	N232	N	0.684783	0.419693	0.965304
	N233	N	0.685587	0.590859	0.038942
	N234	N	0.327503	0.590244	0.965030
	N235	N	0.326723	0.418193	0.039123
	N236	N	0.967961	0.681705	0.418071
	N237	N	0.042933	0.681805	0.587938
	N238	N	0.968394	0.326852	0.587006
	N239	N	0.043674	0.326487	0.417954
	N240	N	0.968566	0.418478	0.680877
	N241	N	0.042376	0.590152	0.681574
	N242	N	0.968641	0.590266	0.323313
	N243	N	0.042894	0.417230	0.322724
	N244	N	0.421254	0.682651	0.964617
	N245	N	0.591693	0.682710	0.039551
	N246	N	0.591108	0.326961	0.965307
	N247	N	0.419920	0.325236	0.039570
	N248	N	0.683389	0.966451	0.417933
	N249	N	0.684088	0.041801	0.587006
	N250	N	0.329228	0.966310	0.586909
	N251	N	0.327978	0.041897	0.416983
	N252	N	0.920304	0.467295	0.180659
	N253	N	0.091921	0.541753	0.181102
	N254	N	0.091390	0.467317	0.824184
	N255	N	0.920355	0.541370	0.823692
	N256	N	0.184964	0.918311	0.465129
	N257	N	0.185286	0.090334	0.540093
	N258	N	0.826988	0.090130	0.465119
	N259	N	0.827421	0.918815	0.539639
	N260	N	0.469126	0.182254	0.917231
	N261	N	0.544213	0.181811	0.087155
	N262	N	0.468781	0.826666	0.086958
	N263	N	0.544163	0.827540	0.918337
	N264	N	0.469537	0.917781	0.181452
	N265	N	0.543715	0.090081	0.181297
	N266	N	0.470096	0.090597	0.822694
	N267	N	0.543331	0.917932	0.823348
	N268	N	0.920045	0.183052	0.465169
	N269	N	0.090974	0.182176	0.540442
	N270	N	0.091407	0.825197	0.465390
	N271	N	0.921173	0.826552	0.539973
	N272	N	0.184101	0.466794	0.917023
	N273	N	0.184147	0.542332	0.087335
	N274	N	0.828519	0.467689	0.087054
	N275	N	0.829016	0.542294	0.917288
	O276	O	0.440218	0.496481	0.480120
	H277	H	0.446942	0.495487	0.480649
	H278	H	0.438713	0.502203	0.475271
	O279	O	0.093770	0.049188	0.012567
	H280	H	0.097228	0.054964	0.008990
	H281	H	0.086551	0.045010	0.021182
	O282	O	0.432895	0.486383	0.461110
	H283	H	0.433228	0.482706	0.469351
	H284	H	0.428328	0.491856	0.465473
	O285	O	0.443172	0.497074	0.504330
	H286	H	0.439632	0.500283	0.503331
	H287	H	0.439813	0.508380	0.497259
	O288	O	1.033510	-0.009002	0.063237
	H289	H	1.029706	-0.016427	0.067257
	H290	H	1.033092	-0.000766	0.057800
	O291	O	-0.555189	0.535320	-0.464074
	H292	H	-0.555031	0.541288	-0.470569
	H293	H	-0.545696	0.528964	-0.466499
	O294	O	0.453900	0.532665	0.433718
	H295	H	0.455589	0.525684	0.432744
	H296	H	0.446584	0.530489	0.433912
	O297	O	0.052921	1.018400	0.092471
	H298	H	0.069810	1.018515	0.100590
	H299	H	0.048615	1.015579	0.083015
	O300	O	1.066048	0.013068	1.032054
	H301	H	1.063159	0.014734	1.033067
	H302	H	1.072233	0.024442	1.030524
	O303	O	0.441220	0.521355	0.457605
	H304	H	0.436795	0.516870	0.455880
	H305	H	0.444606	0.519966	0.457687
	O306	O	0.067908	1.051449	1.059994
	H307	H	0.069887	1.051067	1.067141
	H308	H	0.069271	1.045262	1.059495
	O309	O	0.453758	0.521566	0.461502
	H310	H	0.452830	0.522527	0.461396
	H311	H	0.438120	0.519503	0.455223
