data_Molecule from HDF5

_cell_length_a		16.425758
_cell_length_b		16.433390
_cell_length_c		16.405903
_cell_angle_alpha	90.069687
_cell_angle_beta	90.146352
_cell_angle_gamma	89.716912
_symmetry_space_group_name_H-M	'P 1'
_symmetry_Int_Tables_number		1

loop_
	_symmetry_equiv_pos_as_xyz
	x,y,z

loop_
	_atom_site_label
	_atom_site_type_symbol
	_atom_site_fract_x
	_atom_site_fract_y
	_atom_site_fract_z
	H0	H	0.387471	0.834133	0.733049
	H1	H	0.597882	0.150098	0.733592
	H2	H	0.604511	0.834325	0.287366
	H3	H	0.387681	0.149767	0.286941
	H4	H	0.717439	0.385993	0.853134
	H5	H	0.719525	0.599884	0.169281
	H6	H	0.274945	0.595844	0.852944
	H7	H	0.275995	0.385910	0.170024
	H8	H	0.838082	0.720695	0.399976
	H9	H	0.151726	0.718184	0.620899
	H10	H	0.837044	0.272259	0.618126
	H11	H	0.152412	0.268083	0.403608
	H12	H	0.838139	0.388470	0.734045
	H13	H	0.153653	0.600474	0.734988
	H14	H	0.838768	0.603887	0.284671
	H15	H	0.153496	0.385718	0.289110
	H16	H	0.391344	0.710365	0.852104
	H17	H	0.605343	0.717104	0.168173
	H18	H	0.602442	0.269895	0.853026
	H19	H	0.390880	0.269307	0.169265
	H20	H	0.720579	0.836369	0.402572
	H21	H	0.713251	0.152464	0.615828
	H22	H	0.270578	0.835566	0.617788
	H23	H	0.272101	0.150705	0.402940
	H24	H	0.891628	0.334163	0.233383
	H25	H	0.097878	0.652361	0.232035
	H26	H	0.101329	0.334297	0.791372
	H27	H	0.890532	0.651603	0.791533
	H28	H	0.214736	0.886750	0.350731
	H29	H	0.215528	0.097365	0.668584
	H30	H	0.773093	0.098743	0.350455
	H31	H	0.774831	0.890134	0.669674
	H32	H	0.337423	0.214179	0.905835
	H33	H	0.654933	0.212808	0.118695
	H34	H	0.336504	0.772699	0.114242
	H35	H	0.654632	0.770580	0.906451
	H36	H	0.336210	0.887659	0.230292
	H37	H	0.653181	0.098454	0.235510
	H38	H	0.335577	0.094546	0.792128
	H39	H	0.653898	0.885212	0.789498
	H40	H	0.890320	0.213174	0.350737
	H41	H	0.097307	0.210793	0.670248
	H42	H	0.100535	0.769760	0.352521
	H43	H	0.888907	0.772717	0.669651
	H44	H	0.214402	0.333128	0.910840
	H45	H	0.217185	0.651351	0.119209
	H46	H	0.774824	0.333513	0.118776
	H47	H	0.773544	0.650454	0.906969
	H48	H	0.403676	0.105547	0.598193
	H49	H	0.591380	0.877564	0.599154
	H50	H	0.577841	0.102933	0.422462
	H51	H	0.407323	0.878789	0.419033
	H52	H	0.589565	0.399321	0.126632
	H53	H	0.585417	0.581408	0.897545
	H54	H	0.404211	0.583240	0.127073
	H55	H	0.404433	0.400911	0.897070
	H56	H	0.104371	0.576764	0.424135
	H57	H	0.881246	0.587151	0.598958
	H58	H	0.111077	0.401807	0.606125
	H59	H	0.880584	0.403714	0.416482
	H60	H	0.108632	0.398148	0.597237
	H61	H	0.885558	0.578912	0.596425
	H62	H	0.106743	0.581988	0.422899
	H63	H	0.882345	0.400116	0.426388
	H64	H	0.407763	0.577724	0.123679
	H65	H	0.585202	0.576664	0.899740
	H66	H	0.585861	0.407905	0.123084
	H67	H	0.404886	0.406037	0.897955
	H68	H	0.583977	0.105472	0.425555
	H69	H	0.582241	0.878812	0.603989
	H70	H	0.406936	0.104830	0.602246
	H71	H	0.407258	0.879932	0.423059
	H72	H	0.891588	0.606712	0.090594
	H73	H	0.093079	0.377724	0.100024
	H74	H	0.079182	0.604882	0.920512
	H75	H	0.911431	0.379754	0.920129
	H76	H	0.082885	0.907339	0.622470
	H77	H	0.078831	0.081432	0.398132
	H78	H	0.899100	0.089666	0.627104
	H79	H	0.908924	0.907287	0.398982
	H80	H	0.605990	0.077226	0.926412
	H81	H	0.381962	0.084019	0.098731
	H82	H	0.609216	0.895206	0.092175
	H83	H	0.378980	0.898667	0.915329
	H84	H	0.604078	0.913331	0.095654
	H85	H	0.384961	0.081244	0.095535
	H86	H	0.610165	0.077511	0.917291
	H87	H	0.382293	0.897666	0.926196
	H88	H	0.901374	0.076905	0.622474
	H89	H	0.084635	0.086396	0.394537
	H90	H	0.082065	0.904512	0.622323
	H91	H	0.907802	0.905876	0.398508
	H92	H	0.086245	0.605168	0.930104
	H93	H	0.083136	0.378799	0.107578
	H94	H	0.910126	0.609037	0.114317
	H95	H	0.907920	0.380170	0.926234
	H96	H	0.408054	0.103083	0.597692
	H97	H	0.583417	0.881529	0.594331
	H98	H	0.583138	0.105830	0.418606
	H99	H	0.403249	0.879285	0.420991
	H100	H	0.580249	0.400779	0.123422
	H101	H	0.581308	0.580215	0.899478
	H102	H	0.411375	0.583984	0.124874
	H103	H	0.408957	0.402591	0.898582
	H104	H	0.105423	0.580632	0.428111
	H105	H	0.882240	0.579859	0.605792
	H106	H	0.106347	0.407486	0.599365
	H107	H	0.885058	0.410022	0.423966
	H108	H	0.919899	0.596974	0.088995
	H109	H	0.082473	0.382911	0.095884
	H110	H	0.089949	0.608368	0.919475
	H111	H	0.904943	0.378069	0.920435
	H112	H	0.084720	0.904910	0.623802
	H113	H	0.085983	0.078061	0.396306
	H114	H	0.910950	0.085693	0.622612
	H115	H	0.907232	0.907737	0.397920
	H116	H	0.610307	0.085650	0.923362
	H117	H	0.383202	0.079470	0.100308
	H118	H	0.611599	0.902747	0.109506
	H119	H	0.383696	0.907473	0.920445
	C120	C	0.373198	0.000282	0.631848
	C121	C	0.616447	0.984217	0.631939
	C122	C	0.616337	0.000875	0.388940
	C123	C	0.373139	0.983883	0.388447
	C124	C	0.617559	0.370200	0.019722
	C125	C	0.617414	0.612926	1.003049
	C126	C	0.374879	0.613320	0.020323
	C127	C	0.374510	0.370691	1.002789
	C128	C	0.002421	0.614614	0.390365
	C129	C	0.987129	0.615307	0.633397
	C130	C	0.004162	0.370898	0.633382
	C131	C	0.987073	0.371377	0.389420
	C132	C	0.874765	0.500231	0.132153
	C133	C	0.118085	0.484261	0.134336
	C134	C	0.117173	0.501156	0.891207
	C135	C	0.874850	0.483924	0.890191
	C136	C	0.115959	0.871836	0.518429
	C137	C	0.115310	0.113303	0.501523
	C138	C	0.871767	0.116158	0.518814
	C139	C	0.874466	0.873440	0.502771
	C140	C	0.504112	0.112954	0.889808
	C141	C	0.487497	0.113886	0.132133
	C142	C	0.503558	0.871477	0.131325
	C143	C	0.486631	0.869058	0.888486
	C144	C	0.369837	0.881732	0.692664
	C145	C	0.617108	0.103163	0.693064
	C146	C	0.620929	0.881953	0.327819
	C147	C	0.369906	0.102602	0.327495
	C148	C	0.677782	0.367441	0.900819
	C149	C	0.678927	0.616910	0.121920
	C150	C	0.314662	0.614651	0.900699
	C151	C	0.315190	0.367812	0.122262
	C152	C	0.885072	0.678580	0.384197
	C153	C	0.104765	0.677486	0.637887
	C154	C	0.885044	0.311582	0.636043
	C155	C	0.105375	0.309542	0.386273
	C156	C	0.885218	0.369627	0.693838
	C157	C	0.105573	0.618796	0.694993
	C158	C	0.885336	0.620670	0.326317
	C159	C	0.105882	0.368151	0.329123
	C160	C	0.372960	0.671420	0.899982
	C161	C	0.621947	0.675431	0.121266
	C162	C	0.620456	0.309788	0.900682
	C163	C	0.372708	0.309778	0.121828
	C164	C	0.679256	0.882879	0.385016
	C165	C	0.674222	0.104318	0.634342
	C166	C	0.311364	0.882561	0.635275
	C167	C	0.312213	0.102910	0.385368
	C168	C	0.872901	0.381639	0.193623
	C169	C	0.118018	0.604408	0.193154
	C170	C	0.119316	0.381662	0.831646
	C171	C	0.872136	0.603627	0.831038
	C172	C	0.175733	0.868450	0.398899
	C173	C	0.175457	0.115657	0.621128
	C174	C	0.812764	0.117287	0.398526
	C175	C	0.814452	0.871408	0.621997
	C176	C	0.384871	0.173730	0.887519
	C177	C	0.606766	0.173734	0.136413
	C178	C	0.384230	0.812101	0.132642
	C179	C	0.606604	0.809722	0.887454
	C180	C	0.384051	0.869539	0.190626
	C181	C	0.605858	0.116533	0.194728
	C182	C	0.383868	0.114214	0.831004
	C183	C	0.606240	0.867124	0.829421
	C184	C	0.870709	0.174571	0.398691
	C185	C	0.116486	0.171998	0.621764
	C186	C	0.118806	0.810046	0.399856
	C187	C	0.871332	0.812987	0.622062
	C188	C	0.175617	0.381034	0.891022
	C189	C	0.177155	0.603787	0.136710
	C190	C	0.814765	0.381326	0.136234
	C191	C	0.813963	0.602992	0.888447
	C192	C	0.399049	0.082917	0.606675
	C193	C	0.592525	0.901086	0.606387
	C194	C	0.589482	0.083302	0.414828
	C195	C	0.398646	0.901045	0.413742
	C196	C	0.592346	0.395450	0.102720
	C197	C	0.591312	0.586828	0.920558
	C198	C	0.400423	0.588699	0.103585
	C199	C	0.399181	0.395928	0.919422
	C200	C	0.084167	0.587455	0.417393
	C201	C	0.904488	0.589430	0.607628
	C202	C	0.087035	0.395584	0.607884
	C203	C	0.904233	0.397297	0.415017
	C204	C	0.900135	0.582810	0.105722
	C205	C	0.093489	0.401397	0.108878
	C206	C	0.092383	0.584413	0.916184
	C207	C	0.900669	0.400802	0.915063
	C208	C	0.090679	0.898041	0.601201
	C209	C	0.090395	0.088888	0.418088
	C210	C	0.896483	0.091349	0.602352
	C211	C	0.900515	0.899407	0.420194
	C212	C	0.587110	0.087487	0.915051
	C213	C	0.404847	0.088851	0.105796
	C214	C	0.586695	0.896575	0.106286
	C215	C	0.403326	0.894080	0.913363
	Zn216	Zn	0.495260	-0.008958	0.761122
	Zn217	Zn	0.495045	-0.008122	0.260330
	Zn218	Zn	0.745874	0.491466	0.011550
	Zn219	Zn	0.246558	0.492685	0.012598
	Zn220	Zn	-0.005441	0.743610	0.511268
	Zn221	Zn	-0.005463	0.242779	0.510472
	Zn222	Zn	-0.003548	0.493235	0.761821
	Zn223	Zn	-0.004665	0.493335	0.261253
	Zn224	Zn	0.495900	0.741912	0.011035
	Zn225	Zn	0.496399	0.242577	0.010998
	Zn226	Zn	0.744693	-0.006128	0.509788
	Zn227	Zn	0.244465	-0.007289	0.509574
	N228	N	0.407791	0.956063	0.690677
	N229	N	0.582112	0.027399	0.691820
	N230	N	0.582396	0.956553	0.330023
	N231	N	0.407146	0.027721	0.329438
	N232	N	0.676297	0.404063	0.975950
	N233	N	0.676197	0.578757	0.047396
	N234	N	0.315751	0.579311	0.976622
	N235	N	0.316322	0.405003	0.047427
	N236	N	0.958691	0.674567	0.423753
	N237	N	0.030119	0.675280	0.600157
	N238	N	0.959886	0.312437	0.598881
	N239	N	0.030498	0.311721	0.423188
	N240	N	0.960289	0.405999	0.692196
	N241	N	0.031397	0.580597	0.692088
	N242	N	0.958979	0.581122	0.330333
	N243	N	0.031247	0.406289	0.331320
	N244	N	0.409450	0.671017	0.975494
	N245	N	0.584355	0.673250	0.046370
	N246	N	0.584211	0.310874	0.975975
	N247	N	0.408942	0.311551	0.046382
	N248	N	0.676133	0.957500	0.422488
	N249	N	0.674160	0.029394	0.597278
	N250	N	0.313400	0.957297	0.598040
	N251	N	0.314100	0.028075	0.422691
	N252	N	0.909340	0.456844	0.191228
	N253	N	0.082173	0.529154	0.191830
	N254	N	0.083651	0.457498	0.831752
	N255	N	0.909184	0.528410	0.831836
	N256	N	0.174279	0.906003	0.473931
	N257	N	0.175032	0.080156	0.545301
	N258	N	0.813161	0.081968	0.474450
	N259	N	0.816025	0.908159	0.546795
	N260	N	0.460542	0.173035	0.923346
	N261	N	0.532154	0.172442	0.098195
	N262	N	0.459718	0.813058	0.096559
	N263	N	0.531059	0.810711	0.923366
	N264	N	0.459436	0.905494	0.190075
	N265	N	0.530691	0.080274	0.192378
	N266	N	0.459108	0.077269	0.832070
	N267	N	0.530583	0.902956	0.829757
	N268	N	0.906341	0.174236	0.474542
	N269	N	0.079914	0.170886	0.546286
	N270	N	0.082885	0.811736	0.475349
	N271	N	0.907891	0.814141	0.546838
	N272	N	0.174319	0.456321	0.927417
	N273	N	0.177671	0.527991	0.101220
	N274	N	0.815753	0.456044	0.098755
	N275	N	0.815420	0.527459	0.924317
	O276	O	0.277555	0.709838	0.489528
	H277	H	0.274661	0.692855	0.507783
	H278	H	0.247517	0.735327	0.481339
	O279	O	0.275335	0.520768	0.547179
	H280	H	0.282849	0.526472	0.547058
	H281	H	0.276084	0.497542	0.536077
	O282	O	0.488313	0.556210	0.716474
	H283	H	0.488017	0.551219	0.720442
	H284	H	0.488183	0.570227	0.693808
	O285	O	1.016876	1.170792	0.131008
	H286	H	1.015275	1.174566	0.126961
	H287	H	1.027593	1.168115	0.145882
	O288	O	0.341121	0.431887	0.710658
	H289	H	0.334744	0.437075	0.696731
	H290	H	0.350394	0.438436	0.709294
	O291	O	0.528112	0.676932	0.711457
	H292	H	0.526222	0.706831	0.732314
	H293	H	0.513210	0.664572	0.700653
	O294	O	1.197915	1.082027	1.135256
	H295	H	1.200178	1.099644	1.128264
	H296	H	1.216053	1.072484	1.131027
	O297	O	0.322039	0.676071	0.330707
	H298	H	0.318466	0.687972	0.372079
	H299	H	0.308320	0.624045	0.320081
	O300	O	0.553632	0.552939	0.302661
	H301	H	0.542111	0.584793	0.296276
	H302	H	0.558515	0.545623	0.316231
	O303	O	0.292977	0.417271	0.428578
	H304	H	0.292565	0.395521	0.441641
	H305	H	0.306463	0.420879	0.417154
	O306	O	0.095594	-0.048931	0.818169
	H307	H	0.098185	-0.061150	0.817208
	H308	H	0.083360	-0.058691	0.808548
	O309	O	0.960284	-0.178553	0.109396
	H310	H	0.968017	-0.174976	0.110791
	H311	H	0.971234	-0.189710	0.104165
	O312	O	0.705478	0.476598	0.301782
	H313	H	0.685593	0.504632	0.316532
	H314	H	0.737869	0.481968	0.283574
	O315	O	0.536829	0.303280	0.703923
	H316	H	0.559027	0.331397	0.689883
	H317	H	0.534172	0.288288	0.727258
	O318	O	0.020912	-0.107629	-0.173219
	H319	H	-0.004022	-0.108390	-0.180914
	H320	H	0.007672	-0.105845	-0.164766
	O321	O	0.716840	0.273551	0.483823
	H322	H	0.739814	0.248935	0.466242
	H323	H	0.719349	0.271565	0.442944
	O324	O	0.703146	0.452949	0.542633
	H325	H	0.710040	0.441179	0.526064
	H326	H	0.708506	0.452599	0.526075
	O327	O	0.490852	0.521015	0.542378
	H328	H	0.506028	0.538980	0.537192
	H329	H	0.498075	0.504674	0.520281
	O330	O	-0.092004	0.923368	1.213886
	H331	H	-0.083091	0.904492	1.216964
	H332	H	-0.094622	0.932195	1.229079
	O333	O	-0.323763	1.576731	0.467896
	H334	H	-0.315109	1.597441	0.459695
	H335	H	-0.333198	1.591941	0.474000
	O336	O	1.152586	1.096568	0.101764
	H337	H	1.147809	1.096166	0.091528
	H338	H	1.151427	1.093980	0.087525
	O339	O	-0.041327	0.837465	0.995733
	H340	H	-0.048477	0.833363	0.996592
	H341	H	-0.050228	0.839270	0.995778
	O342	O	0.134725	0.939940	-0.000138
	H343	H	0.135557	0.943785	0.014531
	H344	H	0.150671	0.944398	-0.005916
	O345	O	-0.161436	0.069528	1.097958
	H346	H	-0.151644	0.065930	1.098189
	H347	H	-0.177613	0.073558	1.102793
	O348	O	0.709779	0.706371	0.530691
	H349	H	0.705492	0.714091	0.553160
	H350	H	0.724758	0.725249	0.557476
	O351	O	0.860062	1.068059	0.033270
	H352	H	0.864936	1.054927	0.048208
	H353	H	0.841469	1.080622	0.028211
	O354	O	0.804056	1.183521	0.935454
	H355	H	0.796096	1.192409	0.948806
	H356	H	0.815709	1.192406	0.929689
	O357	O	0.126629	0.087738	-0.016301
	H358	H	0.130321	0.079274	-0.025442
	H359	H	0.118695	0.075086	-0.025270
	O360	O	0.278903	0.517384	0.299056
	H361	H	0.270913	0.504621	0.285863
	H362	H	0.275166	0.499088	0.293440
	O363	O	0.808719	0.022319	-0.112748
	H364	H	0.812673	0.015201	-0.102354
	H365	H	0.805080	0.034539	-0.133686
	O366	O	0.167072	-0.000993	0.882048
	H367	H	0.160987	-0.008662	0.878992
	H368	H	0.169581	-0.002509	0.863173
	O369	O	0.906717	-0.148024	1.154792
	H370	H	0.916454	-0.127547	1.152198
	H371	H	0.928406	-0.142530	1.151304
	O372	O	0.933030	-0.017601	0.152376
	H373	H	0.943627	-0.011747	0.155375
	H374	H	0.951085	-0.017824	0.157944
	O375	O	0.311559	-0.694466	0.694261
	H376	H	0.331089	-0.688556	0.712122
	H377	H	0.334072	-0.671732	0.702264
	O378	O	0.400696	0.686739	0.575241
	H379	H	0.387258	0.699488	0.550704
	H380	H	0.413209	0.675555	0.579666
	O381	O	0.031653	0.913326	-0.017926
	H382	H	0.024975	0.925128	-0.024581
	H383	H	0.038949	0.917263	-0.009347
	O384	O	0.465583	0.286979	0.501932
	H385	H	0.452661	0.282786	0.523956
	H386	H	0.481037	0.283860	0.521514
	O387	O	0.278920	0.275868	0.536920
	H388	H	0.268830	0.268214	0.574020
	H389	H	0.264968	0.259576	0.555813
	O390	O	1.154823	1.002916	0.185618
	H391	H	1.152043	1.011683	0.199865
	H392	H	1.155395	1.011702	0.153971
	O393	O	1.678781	0.311543	0.327896
	H394	H	1.631124	0.310494	0.317055
	H395	H	1.684871	0.357299	0.313409
	O396	O	0.699315	0.516160	0.717658
	H397	H	0.713138	0.505942	0.716592
	H398	H	0.706482	0.504974	0.712661
	O399	O	0.479155	0.707201	0.292810
	H400	H	0.448679	0.704377	0.295822
	H401	H	0.467823	0.730533	0.273508
	O402	O	1.056864	1.087628	0.101873
	H403	H	1.075570	1.090508	0.098484
	H404	H	1.056143	1.087175	0.103883
	O405	O	0.507348	0.473598	0.506564
	H406	H	0.504163	0.471801	0.485754
	H407	H	0.516227	0.464632	0.509936
	O408	O	0.513401	0.288487	0.303101
	H409	H	0.504722	0.266123	0.298538
	H410	H	0.495602	0.290245	0.321881
	O411	O	0.871976	0.906197	0.923755
	H412	H	0.851861	0.914294	0.917491
	H413	H	0.862395	0.906004	0.943028
	O414	O	0.551853	0.269777	0.537110
	H415	H	0.563774	0.270341	0.549817
	H416	H	0.557844	0.257029	0.542015
	O417	O	0.201792	0.686917	0.749822
	H418	H	0.201154	0.678005	0.734407
	H419	H	0.190433	0.690344	0.747625
	O420	O	-0.033814	1.165145	0.850514
	H421	H	-0.029210	1.165427	0.857689
	H422	H	-0.037882	1.157840	0.857652
	O423	O	0.136389	0.812881	-0.065263
	H424	H	0.140823	0.807320	-0.070248
	H425	H	0.136685	0.804260	-0.073011
	O426	O	0.560084	0.391410	0.706135
	H427	H	0.563588	0.407653	0.696271
	H428	H	0.555894	0.404070	0.690396
	O429	O	0.684335	0.680522	0.693672
	H430	H	0.651008	0.680995	0.708834
	H431	H	0.675166	0.649178	0.703641
	O432	O	0.551368	0.701896	0.457213
	H433	H	0.551524	0.705189	0.436300
	H434	H	0.563314	0.705921	0.463087
	O435	O	-0.126380	0.128610	-0.107672
	H436	H	-0.119792	0.141587	-0.093238
	H437	H	-0.144140	0.137470	-0.129905
	O438	O	-0.112710	0.991980	0.858562
	H439	H	-0.109170	0.994692	0.867060
	H440	H	-0.131653	0.984922	0.861162
	O441	O	0.431679	0.441864	0.307993
	H442	H	0.433746	0.446362	0.318917
	H443	H	0.450359	0.437414	0.303946
