data_Molecule from HDF5

_cell_length_a		16.480353
_cell_length_b		16.549080
_cell_length_c		16.761461
_cell_angle_alpha	90.045745
_cell_angle_beta	89.901682
_cell_angle_gamma	90.014184
_symmetry_space_group_name_H-M	'P 1'
_symmetry_Int_Tables_number		1

loop_
	_symmetry_equiv_pos_as_xyz
	x,y,z

loop_
	_atom_site_label
	_atom_site_type_symbol
	_atom_site_fract_x
	_atom_site_fract_y
	_atom_site_fract_z
	H0	H	0.422073	0.834523	0.710003
	H1	H	0.638402	0.143962	0.707817
	H2	H	0.637306	0.831197	0.265484
	H3	H	0.425150	0.142903	0.263778
	H4	H	0.750759	0.384575	0.830043
	H5	H	0.752774	0.593320	0.140843
	H6	H	0.311949	0.590515	0.830905
	H7	H	0.307701	0.381368	0.140452
	H8	H	0.874687	0.705364	0.385559
	H9	H	0.190845	0.705811	0.589720
	H10	H	0.872073	0.271747	0.586457
	H11	H	0.186822	0.264544	0.379170
	H12	H	0.874280	0.383248	0.706745
	H13	H	0.189795	0.590995	0.705548
	H14	H	0.876026	0.592984	0.266040
	H15	H	0.186339	0.377794	0.260638
	H16	H	0.424453	0.710846	0.832513
	H17	H	0.636919	0.710396	0.140864
	H18	H	0.635504	0.265709	0.831371
	H19	H	0.424229	0.264410	0.141639
	H20	H	0.749465	0.829050	0.384311
	H21	H	0.751587	0.144468	0.588467
	H22	H	0.309401	0.833249	0.591163
	H23	H	0.311916	0.145165	0.382873
	H24	H	0.924506	0.333609	0.208561
	H25	H	0.140061	0.643304	0.208335
	H26	H	0.137527	0.330521	0.764493
	H27	H	0.927658	0.643973	0.764597
	H28	H	0.254249	0.882183	0.331923
	H29	H	0.254850	0.095981	0.638486
	H30	H	0.810940	0.090060	0.330685
	H31	H	0.809973	0.882673	0.641160
	H32	H	0.373400	0.206103	0.884662
	H33	H	0.690023	0.205691	0.089545
	H34	H	0.373609	0.767667	0.091559
	H35	H	0.687384	0.768754	0.883635
	H36	H	0.375500	0.879855	0.210709
	H37	H	0.688682	0.091796	0.206809
	H38	H	0.375779	0.095875	0.764253
	H39	H	0.687261	0.882806	0.765995
	H40	H	0.921907	0.212383	0.333089
	H41	H	0.136227	0.210421	0.639689
	H42	H	0.140848	0.763048	0.333011
	H43	H	0.925731	0.764828	0.640559
	H44	H	0.251348	0.329537	0.882446
	H45	H	0.251672	0.645071	0.087673
	H46	H	0.811899	0.331246	0.088726
	H47	H	0.811862	0.644691	0.881672
	H48	H	0.447721	0.102046	0.581589
	H49	H	0.616834	0.876765	0.576698
	H50	H	0.618567	0.100247	0.393646
	H51	H	0.442114	0.875140	0.395981
	H52	H	0.623041	0.406625	0.094459
	H53	H	0.625802	0.581626	0.872244
	H54	H	0.441299	0.573126	0.096148
	H55	H	0.447184	0.397335	0.878890
	H56	H	0.143643	0.574214	0.398250
	H57	H	0.920497	0.576425	0.572974
	H58	H	0.147795	0.393097	0.579351
	H59	H	0.923061	0.406497	0.400905
	H60	H	0.142212	0.397649	0.568143
	H61	H	0.920302	0.572118	0.577588
	H62	H	0.145510	0.573094	0.393717
	H63	H	0.917722	0.403347	0.389145
	H64	H	0.446998	0.577508	0.095353
	H65	H	0.621874	0.572715	0.877319
	H66	H	0.613260	0.392765	0.096621
	H67	H	0.442740	0.392573	0.875252
	H68	H	0.619348	0.098245	0.398672
	H69	H	0.621950	0.875354	0.575224
	H70	H	0.449344	0.097397	0.569883
	H71	H	0.446105	0.875777	0.396529
	H72	H	0.941414	0.602113	0.076011
	H73	H	0.125085	0.374257	0.072578
	H74	H	0.119715	0.598064	0.897941
	H75	H	0.941241	0.376196	0.897587
	H76	H	0.117295	0.893461	0.596861
	H77	H	0.120317	0.080015	0.373930
	H78	H	0.937493	0.070704	0.595407
	H79	H	0.942196	0.895912	0.374765
	H80	H	0.642447	0.075198	0.902155
	H81	H	0.420589	0.073681	0.074906
	H82	H	0.641547	0.901682	0.072574
	H83	H	0.417443	0.904074	0.894181
	H84	H	0.644207	0.902316	0.080831
	H85	H	0.418851	0.073634	0.077804
	H86	H	0.643397	0.070982	0.892968
	H87	H	0.416134	0.896619	0.896213
	H88	H	0.949482	0.079720	0.594220
	H89	H	0.121340	0.072720	0.375246
	H90	H	0.124910	0.898811	0.598042
	H91	H	0.941599	0.896213	0.375233
	H92	H	0.125343	0.600186	0.894410
	H93	H	0.113020	0.375983	0.080398
	H94	H	0.946315	0.600033	0.077124
	H95	H	0.941553	0.374317	0.892454
	H96	H	0.438159	0.102773	0.573410
	H97	H	0.619959	0.873986	0.579994
	H98	H	0.623947	0.101225	0.395818
	H99	H	0.443389	0.876193	0.399601
	H100	H	0.629408	0.392306	0.101625
	H101	H	0.615532	0.581849	0.876257
	H102	H	0.440837	0.579923	0.098038
	H103	H	0.439858	0.399233	0.876703
	H104	H	0.147432	0.577613	0.395724
	H105	H	0.918057	0.578148	0.578630
	H106	H	0.142592	0.405800	0.578829
	H107	H	0.918080	0.394289	0.398958
	H108	H	0.944268	0.599417	0.072634
	H109	H	0.114097	0.380782	0.066560
	H110	H	0.119185	0.599609	0.891286
	H111	H	0.946190	0.376167	0.895296
	H112	H	0.117501	0.902127	0.594131
	H113	H	0.115066	0.075817	0.377218
	H114	H	0.936970	0.084585	0.600407
	H115	H	0.942351	0.896147	0.375545
	H116	H	0.646576	0.081209	0.894596
	H117	H	0.418941	0.076815	0.076111
	H118	H	0.645415	0.894502	0.076361
	H119	H	0.419550	0.901305	0.901201
	C120	C	0.410852	-0.002383	0.607284
	C121	C	0.652647	0.979064	0.608035
	C122	C	0.652609	-0.004022	0.365003
	C123	C	0.410810	0.978998	0.365025
	C124	C	0.653438	0.365621	-0.005446
	C125	C	0.653435	0.610605	0.977467
	C126	C	0.410630	0.608679	-0.005583
	C127	C	0.409961	0.364577	0.978715
	C128	C	0.041486	0.607757	0.365088
	C129	C	1.024101	0.607226	0.607140
	C130	C	0.040100	0.366915	0.607005
	C131	C	1.022712	0.367254	0.363886
	C132	C	0.910938	0.497099	0.106903
	C133	C	0.151618	0.479685	0.105810
	C134	C	0.153410	0.495357	0.863502
	C135	C	0.910907	0.479436	0.863880
	C136	C	0.153403	0.865867	0.494617
	C137	C	0.151958	0.109296	0.477144
	C138	C	0.908954	0.109649	0.494320
	C139	C	0.910041	0.864993	0.477726
	C140	C	0.540447	0.108697	0.865160
	C141	C	0.523086	0.107654	0.107828
	C142	C	0.539982	0.866794	0.108465
	C143	C	0.521450	0.867823	0.865419
	C144	C	0.405711	0.880927	0.668630
	C145	C	0.656198	0.096809	0.667503
	C146	C	0.655022	0.877967	0.305721
	C147	C	0.407653	0.096627	0.304817
	C148	C	0.711337	0.365269	0.876900
	C149	C	0.713304	0.612249	0.093947
	C150	C	0.351047	0.609809	0.877688
	C151	C	0.348413	0.362860	0.094503
	C152	C	0.922471	0.666623	0.365309
	C153	C	0.143120	0.666096	0.607947
	C154	C	0.920175	0.309688	0.606710
	C155	C	0.139908	0.305219	0.360804
	C156	C	0.921361	0.364918	0.666381
	C157	C	0.142646	0.609358	0.665980
	C158	C	0.923084	0.610763	0.306159
	C159	C	0.139827	0.361475	0.301880
	C160	C	0.407061	0.669606	0.878511
	C161	C	0.655545	0.670541	0.094004
	C162	C	0.654229	0.306120	0.877733
	C163	C	0.406594	0.304861	0.095081
	C164	C	0.710831	0.877015	0.364790
	C165	C	0.712415	0.097227	0.608202
	C166	C	0.349335	0.880416	0.609800
	C167	C	0.351068	0.097464	0.363545
	C168	C	0.907077	0.379895	0.167620
	C169	C	0.156727	0.596839	0.166925
	C170	C	0.155687	0.377508	0.804385
	C171	C	0.909127	0.597196	0.804802
	C172	C	0.214239	0.863719	0.378498
	C173	C	0.213551	0.113122	0.592721
	C174	C	0.849900	0.110215	0.377595
	C175	C	0.849977	0.863634	0.594391
	C176	C	0.421505	0.167682	0.864816
	C177	C	0.642228	0.166556	0.108605
	C178	C	0.421274	0.807095	0.110198
	C179	C	0.640283	0.808420	0.864723
	C180	C	0.422314	0.862708	0.169662
	C181	C	0.641745	0.109874	0.166846
	C182	C	0.422661	0.112831	0.804867
	C183	C	0.639958	0.865023	0.806234
	C184	C	0.905319	0.170602	0.378592
	C185	C	0.155021	0.170561	0.593031
	C186	C	0.157632	0.804377	0.379043
	C187	C	0.907566	0.805138	0.594368
	C188	C	0.212125	0.376989	0.863169
	C189	C	0.212302	0.597768	0.107206
	C190	C	0.850864	0.378926	0.108380
	C191	C	0.851741	0.597558	0.862991
	C192	C	0.437485	0.079374	0.582064
	C193	C	0.626974	0.896694	0.584184
	C194	C	0.627486	0.078469	0.389071
	C195	C	0.436531	0.897116	0.390092
	C196	C	0.629011	0.390234	0.076329
	C197	C	0.628411	0.585884	0.896256
	C198	C	0.435861	0.583853	0.075521
	C199	C	0.435819	0.389330	0.897770
	C200	C	0.124027	0.582352	0.389100
	C201	C	0.941171	0.582638	0.583151
	C202	C	0.122703	0.391672	0.582478
	C203	C	0.940927	0.393910	0.389209
	C204	C	0.936659	0.579059	0.082350
	C205	C	0.125013	0.398225	0.080473
	C206	C	0.128447	0.577936	0.887494
	C207	C	0.935695	0.397095	0.888085
	C208	C	0.127376	0.890966	0.575510
	C209	C	0.126244	0.083513	0.396504
	C210	C	0.934200	0.085320	0.575457
	C211	C	0.934986	0.889112	0.396384
	C212	C	0.622747	0.083095	0.889589
	C213	C	0.440865	0.081954	0.083354
	C214	C	0.622309	0.892514	0.083709
	C215	C	0.439135	0.893233	0.890102
	Zn216	Zn	0.531176	-0.011487	0.736444
	Zn217	Zn	0.531948	-0.012647	0.236700
	Zn218	Zn	0.782228	0.488192	-0.014383
	Zn219	Zn	0.281246	0.487046	-0.014205
	Zn220	Zn	0.032376	0.735960	0.486955
	Zn221	Zn	0.030357	0.238976	0.485682
	Zn222	Zn	0.032216	0.486938	0.735354
	Zn223	Zn	0.032385	0.488130	0.235451
	Zn224	Zn	0.530581	0.739082	-0.013371
	Zn225	Zn	0.531811	0.235709	-0.012619
	Zn226	Zn	0.780739	-0.013250	0.485885
	Zn227	Zn	0.282472	-0.011293	0.485903
	N228	N	0.443155	0.954975	0.667258
	N229	N	0.619789	0.022233	0.667585
	N230	N	0.619535	0.953042	0.305672
	N231	N	0.444045	0.021889	0.305457
	N232	N	0.711274	0.401326	0.950717
	N233	N	0.712464	0.576018	0.020193
	N234	N	0.352934	0.572615	0.950818
	N235	N	0.350365	0.399334	0.021178
	N236	N	0.997272	0.665133	0.401240
	N237	N	0.068189	0.665168	0.572072
	N238	N	0.994941	0.310518	0.570614
	N239	N	0.066129	0.308677	0.398707
	N240	N	0.997081	0.399363	0.667054
	N241	N	0.067598	0.573335	0.665525
	N242	N	0.998306	0.575309	0.305482
	N243	N	0.065771	0.399398	0.303618
	N244	N	0.443198	0.669241	0.952170
	N245	N	0.619212	0.669920	0.020455
	N246	N	0.619048	0.306233	0.952045
	N247	N	0.444114	0.305788	0.022069
	N248	N	0.709639	0.951499	0.400990
	N249	N	0.710582	0.022692	0.572020
	N250	N	0.352286	0.954078	0.572219
	N251	N	0.352851	0.023291	0.400151
	N252	N	0.943662	0.454466	0.166989
	N253	N	0.119739	0.522350	0.166282
	N254	N	0.120166	0.452347	0.804244
	N255	N	0.945194	0.522507	0.805225
	N256	N	0.211959	0.901288	0.451535
	N257	N	0.211879	0.075761	0.519633
	N258	N	0.851832	0.073187	0.450595
	N259	N	0.851340	0.900079	0.520831
	N260	N	0.495928	0.165479	0.901509
	N261	N	0.567379	0.165534	0.072890
	N262	N	0.495375	0.809404	0.072765
	N263	N	0.565413	0.809836	0.900797
	N264	N	0.497358	0.898944	0.168972
	N265	N	0.566506	0.074065	0.166889
	N266	N	0.497742	0.076848	0.804696
	N267	N	0.565058	0.901133	0.806310
	N268	N	0.941488	0.170377	0.452283
	N269	N	0.117274	0.168430	0.520156
	N270	N	0.120497	0.805494	0.452316
	N271	N	0.944102	0.805593	0.520877
	N272	N	0.211289	0.451587	0.898974
	N273	N	0.209398	0.523827	0.069963
	N274	N	0.852936	0.452812	0.071415
	N275	N	0.852502	0.523230	0.899067
	O276	O	-0.012282	1.015272	0.014090
	H277	H	-0.016328	1.006725	0.016144
	H278	H	-0.014093	1.019099	0.018812
	O279	O	0.318240	0.517723	0.275468
	H280	H	0.308913	0.509619	0.275840
	H281	H	0.315698	0.519635	0.272664
	O282	O	0.995252	-0.102115	0.759127
	H283	H	1.012823	-0.098751	0.753429
	H284	H	0.991175	-0.109592	0.766622
	O285	O	0.042493	1.185843	1.209432
	H286	H	0.041117	1.198595	1.208675
	H287	H	0.045158	1.190056	1.205406
	O288	O	0.029038	0.149044	0.762229
	H289	H	0.018950	0.163309	0.773236
	H290	H	0.020187	0.152170	0.761017
	O291	O	0.467441	0.437593	0.254755
	H292	H	0.460326	0.429149	0.251128
	H293	H	0.457478	0.433527	0.255653
	O294	O	0.345861	0.658318	0.671213
	H295	H	0.351037	0.669473	0.672477
	H296	H	0.326318	0.678647	0.683883
	O297	O	0.726846	0.572115	0.449821
	H298	H	0.725854	0.576267	0.466628
	H299	H	0.717155	0.552356	0.447907
	O300	O	-0.434369	0.691625	0.416450
	H301	H	-0.450561	0.681792	0.426462
	H302	H	-0.432719	0.684485	0.432957
	O303	O	0.483278	0.420781	0.504230
	H304	H	0.475297	0.424783	0.502282
	H305	H	0.489197	0.420275	0.506838
	O306	O	0.359314	0.504363	0.541253
	H307	H	0.364580	0.494390	0.541615
	H308	H	0.363557	0.501869	0.571014
	O309	O	0.320718	0.445387	0.698421
	H310	H	0.330715	0.441961	0.693917
	H311	H	0.297799	0.446650	0.717496
	O312	O	0.781784	0.738263	0.733877
	H313	H	0.771647	0.708574	0.717622
	H314	H	0.770772	0.733444	0.739784
	O315	O	0.841924	1.007301	0.765574
	H316	H	0.844521	0.987935	0.759973
	H317	H	0.832074	0.997257	0.757268
	O318	O	0.795673	0.314330	0.225987
	H319	H	0.797574	0.301423	0.219442
	H320	H	0.814189	0.297091	0.207613
	O321	O	-0.070035	1.019469	1.216588
	H322	H	-0.086962	1.025937	1.201978
	H323	H	-0.083845	1.019676	1.224894
	O324	O	0.817947	1.173591	-0.072858
	H325	H	0.801481	1.187611	-0.083207
	H326	H	0.824464	1.177885	-0.096784
	O327	O	-0.175372	-0.215808	1.197011
	H328	H	-0.164050	-0.217546	1.189458
	H329	H	-0.191545	-0.238755	1.223555
	O330	O	0.884941	1.138448	0.825929
	H331	H	0.916252	1.137492	0.821677
	H332	H	0.883533	1.107651	0.816545
	O333	O	0.197929	0.820461	1.048850
	H334	H	0.207693	0.822041	1.057575
	H335	H	0.192455	0.822265	1.055601
	O336	O	0.361136	0.326972	0.474656
	H337	H	0.352538	0.320849	0.467005
	H338	H	0.369414	0.326012	0.457426
	O339	O	0.988710	0.119301	1.072942
	H340	H	0.982071	0.123643	1.067672
	H341	H	0.972345	0.124246	1.065670
	O342	O	0.172353	0.014506	-0.062288
	H343	H	0.171837	0.023991	-0.055574
	H344	H	0.167783	0.001307	-0.068139
	O345	O	-0.264824	1.280759	1.280043
	H346	H	-0.261639	1.271671	1.258600
	H347	H	-0.246976	1.292823	1.264793
	O348	O	0.508268	0.670261	0.574795
	H349	H	0.501621	0.660571	0.569886
	H350	H	0.503153	0.673785	0.578352
	O351	O	0.573378	0.402846	0.625867
	H352	H	0.561634	0.412433	0.618065
	H353	H	0.576332	0.382740	0.622853
	O354	O	-0.012542	-0.209288	0.958096
	H355	H	-0.012373	-0.209401	0.976960
	H356	H	-0.033697	-0.210826	0.954417
	O357	O	0.638585	0.293417	0.612939
	H358	H	0.635659	0.294113	0.590524
	H359	H	0.642740	0.280751	0.619552
	O360	O	0.497036	0.275655	0.696775
	H361	H	0.493150	0.261294	0.695119
	H362	H	0.503878	0.257981	0.686706
	O363	O	0.146563	0.060639	0.066216
	H364	H	0.136027	0.050418	0.061240
	H365	H	0.143777	0.053318	0.050521
	O366	O	0.682244	0.416544	0.602318
	H367	H	0.689105	0.409285	0.597478
	H368	H	0.671161	0.426482	0.608191
	O369	O	1.246909	0.199699	-0.228788
	H370	H	1.259174	0.229808	-0.242940
	H371	H	1.228160	0.179309	-0.210198
	O372	O	0.856472	0.928803	0.163535
	H373	H	0.847904	0.923772	0.161308
	H374	H	0.839942	0.912030	0.174940
	O375	O	0.923066	0.152813	0.107864
	H376	H	0.922814	0.152777	0.086380
	H377	H	0.942080	0.142097	0.090394
	O378	O	-0.678469	0.273889	0.653020
	H379	H	-0.681500	0.270513	0.643639
	H380	H	-0.657109	0.276203	0.658157
	O381	O	0.244464	0.935835	0.917989
	H382	H	0.237602	0.940156	0.916197
	H383	H	0.253519	0.944737	0.915312
	O384	O	1.101745	0.016958	0.884915
	H385	H	1.091978	-0.003314	0.896440
	H386	H	1.101348	0.008125	0.883260
	O387	O	1.045545	1.118607	-0.239367
	H388	H	1.055993	1.109728	-0.239182
	H389	H	1.041645	1.145419	-0.253085
	O390	O	0.564198	0.270988	0.268722
	H391	H	0.576708	0.259156	0.252408
	H392	H	0.571937	0.268439	0.268524
	O393	O	0.523745	0.309191	0.429877
	H394	H	0.530219	0.302544	0.425082
	H395	H	0.520031	0.305515	0.425433
	O396	O	0.108197	0.939382	1.208162
	H397	H	0.102960	0.941172	1.214097
	H398	H	0.097144	0.938232	1.208512
	O399	O	0.000986	-0.233190	1.212512
	H400	H	-0.000778	-0.245918	1.212881
	H401	H	-0.001851	-0.244736	1.224763
	O402	O	0.743981	0.273404	0.452482
	H403	H	0.751646	0.266648	0.428040
	H404	H	0.757993	0.263054	0.434918
	O405	O	0.811967	-0.231982	1.016844
	H406	H	0.800996	-0.239980	1.018355
	H407	H	0.797434	-0.240831	1.033615
	O408	O	0.243170	0.201704	0.016854
	H409	H	0.260856	0.213596	0.030049
	H410	H	0.247675	0.191024	0.029396
	O411	O	0.708625	0.694623	0.528191
	H412	H	0.716959	0.689437	0.523571
	H413	H	0.721492	0.710205	0.533153
	O414	O	0.746147	0.525798	0.691586
	H415	H	0.740451	0.518926	0.687362
	H416	H	0.748567	0.518800	0.712737
	O417	O	-0.343766	0.490407	0.313588
	H418	H	-0.353909	0.509504	0.317004
	H419	H	-0.333713	0.498515	0.302357
	O420	O	0.226099	1.043742	1.202302
	H421	H	0.225686	1.040453	1.210436
	H422	H	0.221104	1.026026	1.216069
	O423	O	0.216617	0.014630	0.810646
	H424	H	0.222299	0.011021	0.801614
	H425	H	0.220939	0.020231	0.810377
	O426	O	0.557530	0.442018	0.719727
	H427	H	0.559116	0.438395	0.712849
	H428	H	0.549702	0.427219	0.722348
	O429	O	0.809206	1.020650	1.033701
	H430	H	0.805812	1.043449	1.018579
	H431	H	0.809559	1.005231	1.022615
	O432	O	0.251761	0.772767	0.759172
	H433	H	0.233497	0.780840	0.765793
	H434	H	0.239010	0.791607	0.784012
	O435	O	-0.276909	0.677075	0.313067
	H436	H	-0.297618	0.660711	0.326442
	H437	H	-0.290622	0.653419	0.329834
	O438	O	-0.680492	0.422658	-0.590151
	H439	H	-0.680101	0.400699	-0.600452
	H440	H	-0.680073	0.424558	-0.580080
	O441	O	0.084302	-0.227274	-0.128682
	H442	H	0.076090	-0.233769	-0.117559
	H443	H	0.095487	-0.235001	-0.131645
	O444	O	0.510149	0.700268	0.265767
	H445	H	0.500334	0.704936	0.289127
	H446	H	0.510343	0.722941	0.252144
	O447	O	0.162626	0.848522	0.925910
	H448	H	0.177699	0.845979	0.929965
	H449	H	0.159431	0.859678	0.931686
	O450	O	-0.159684	0.912859	0.928979
	H451	H	-0.171114	0.919726	0.939602
	H452	H	-0.148949	0.898251	0.909975
	O453	O	0.039982	-0.107075	1.063547
	H454	H	0.026001	-0.113276	1.087864
	H455	H	0.037920	-0.108172	1.059991
	O456	O	0.051048	0.211500	0.943378
	H457	H	0.077405	0.214350	0.954216
	H458	H	0.054149	0.203320	0.927831
	O459	O	0.419658	0.335346	0.332635
	H460	H	0.429129	0.331353	0.338380
	H461	H	0.403848	0.329273	0.330935
	O462	O	0.572816	0.361707	0.482357
	H463	H	0.579433	0.358429	0.469766
	H464	H	0.576466	0.373088	0.484859
	O465	O	0.958168	-0.199852	-0.200295
	H466	H	0.961743	-0.208259	-0.191542
	H467	H	0.956170	-0.202952	-0.201722
	O468	O	0.651909	0.603573	0.441376
	H469	H	0.642182	0.611707	0.431756
	H470	H	0.623634	0.595416	0.434108
	O471	O	0.423892	0.617418	0.424112
	H472	H	0.440275	0.602932	0.440374
	H473	H	0.402320	0.590929	0.421828
	O474	O	0.321321	0.705264	0.453844
	H475	H	0.301412	0.715660	0.456125
	H476	H	0.314356	0.691381	0.461229
	O477	O	0.238507	0.190518	1.197324
	H478	H	0.203316	0.190519	1.185255
	H479	H	0.241841	0.148718	1.194401
	O480	O	0.685063	0.451916	0.437199
	H481	H	0.670405	0.459242	0.430227
	H482	H	0.690407	0.437454	0.428675
	O483	O	0.291331	0.750810	0.219278
	H484	H	0.317060	0.734217	0.227489
	H485	H	0.282454	0.755455	0.245653
	O486	O	0.544738	0.585191	0.669080
	H487	H	0.543541	0.579434	0.673459
	H488	H	0.529672	0.600591	0.679754
	O489	O	1.542094	0.703195	-0.334778
	H490	H	1.540504	0.725463	-0.311627
	H491	H	1.537673	0.688279	-0.346604
