data_Molecule from HDF5

_cell_length_a		16.313533
_cell_length_b		16.218276
_cell_length_c		16.261663
_cell_angle_alpha	89.527682
_cell_angle_beta	89.955224
_cell_angle_gamma	89.878879
_symmetry_space_group_name_H-M	'P 1'
_symmetry_Int_Tables_number		1

loop_
	_symmetry_equiv_pos_as_xyz
	x,y,z

loop_
	_atom_site_label
	_atom_site_type_symbol
	_atom_site_fract_x
	_atom_site_fract_y
	_atom_site_fract_z
	H0	H	0.401328	0.831156	0.714877
	H1	H	0.596129	0.160276	0.710499
	H2	H	0.596129	0.830704	0.288814
	H3	H	0.399157	0.159188	0.282776
	H4	H	0.715550	0.395712	0.835422
	H5	H	0.714822	0.592934	0.161692
	H6	H	0.284668	0.595625	0.834904
	H7	H	0.284100	0.393524	0.162103
	H8	H	0.835756	0.711554	0.397310
	H9	H	0.162886	0.708583	0.595215
	H10	H	0.835554	0.281172	0.598825
	H11	H	0.162427	0.280362	0.401597
	H12	H	0.836166	0.396131	0.714612
	H13	H	0.162437	0.594076	0.713224
	H14	H	0.836770	0.596241	0.281173
	H15	H	0.164105	0.398338	0.286922
	H16	H	0.402216	0.710753	0.834718
	H17	H	0.596776	0.706194	0.163543
	H18	H	0.598402	0.281825	0.834852
	H19	H	0.403018	0.280695	0.162713
	H20	H	0.714456	0.831472	0.401003
	H21	H	0.712764	0.159517	0.596505
	H22	H	0.282937	0.832111	0.601053
	H23	H	0.284297	0.159546	0.399254
	H24	H	0.901341	0.331119	0.214434
	H25	H	0.096852	0.660263	0.208486
	H26	H	0.098000	0.331093	0.785238
	H27	H	0.898241	0.658942	0.780621
	H28	H	0.214608	0.897242	0.334955
	H29	H	0.213503	0.093365	0.661733
	H30	H	0.783595	0.096484	0.335678
	H31	H	0.786068	0.895636	0.662960
	H32	H	0.335854	0.211201	0.899867
	H33	H	0.662307	0.209992	0.097942
	H34	H	0.335579	0.780241	0.099086
	H35	H	0.663375	0.783999	0.903218
	H36	H	0.335404	0.895526	0.215955
	H37	H	0.661984	0.093490	0.214258
	H38	H	0.335948	0.095956	0.783517
	H39	H	0.662325	0.896698	0.784773
	H40	H	0.901010	0.211257	0.335205
	H41	H	0.096163	0.206317	0.663263
	H42	H	0.096782	0.784348	0.333492
	H43	H	0.900794	0.779155	0.661845
	H44	H	0.215344	0.331548	0.899610
	H45	H	0.212499	0.659917	0.094703
	H46	H	0.785330	0.331230	0.099388
	H47	H	0.783173	0.658323	0.897221
	H48	H	0.404712	0.112210	0.591838
	H49	H	0.592983	0.880057	0.585346
	H50	H	0.589356	0.111598	0.404803
	H51	H	0.406339	0.875045	0.396168
	H52	H	0.594881	0.392398	0.118424
	H53	H	0.594148	0.591261	0.881434
	H54	H	0.410473	0.577358	0.111274
	H55	H	0.417541	0.397653	0.883615
	H56	H	0.113554	0.576042	0.398801
	H57	H	0.883627	0.583690	0.592293
	H58	H	0.115319	0.404004	0.595097
	H59	H	0.883545	0.406340	0.402438
	H60	H	0.117752	0.397296	0.593020
	H61	H	0.881672	0.590959	0.592024
	H62	H	0.120920	0.599295	0.395204
	H63	H	0.882218	0.400435	0.406795
	H64	H	0.411289	0.596897	0.116909
	H65	H	0.593484	0.586173	0.882591
	H66	H	0.599109	0.409469	0.114986
	H67	H	0.395821	0.398288	0.876833
	H68	H	0.591913	0.111701	0.408778
	H69	H	0.598654	0.875825	0.597176
	H70	H	0.405966	0.112246	0.590327
	H71	H	0.417373	0.883365	0.414045
	H72	H	0.901376	0.608763	0.076452
	H73	H	0.093815	0.376833	0.096955
	H74	H	0.083936	0.607044	0.915274
	H75	H	0.913169	0.379622	0.906255
	H76	H	0.096869	0.902039	0.616388
	H77	H	0.090472	0.088199	0.382307
	H78	H	0.899476	0.086148	0.617982
	H79	H	0.903917	0.908733	0.382331
	H80	H	0.613753	0.090555	0.913541
	H81	H	0.382182	0.093511	0.089923
	H82	H	0.612616	0.905481	0.089632
	H83	H	0.379478	0.891051	0.906466
	H84	H	0.617131	0.902375	0.101567
	H85	H	0.385564	0.083912	0.085251
	H86	H	0.614048	0.079744	0.901706
	H87	H	0.387232	0.907501	0.917769
	H88	H	0.909106	0.084225	0.613612
	H89	H	0.091952	0.089884	0.381072
	H90	H	0.088126	0.906821	0.612540
	H91	H	0.909977	0.904400	0.383034
	H92	H	0.104831	0.615238	0.906874
	H93	H	0.089754	0.378862	0.092084
	H94	H	0.897150	0.618652	0.099088
	H95	H	0.904396	0.379586	0.911419
	H96	H	0.404136	0.112838	0.591091
	H97	H	0.585084	0.879290	0.597055
	H98	H	0.593605	0.113451	0.404128
	H99	H	0.396461	0.877845	0.415747
	H100	H	0.582564	0.403565	0.111526
	H101	H	0.589324	0.590194	0.882378
	H102	H	0.393941	0.586434	0.118889
	H103	H	0.406050	0.416769	0.885300
	H104	H	0.112574	0.592325	0.417423
	H105	H	0.884592	0.587936	0.585169
	H106	H	0.114507	0.401685	0.589015
	H107	H	0.885181	0.406543	0.409486
	H108	H	0.919648	0.608971	0.093122
	H109	H	0.095608	0.377508	0.090380
	H110	H	0.086150	0.613848	0.892733
	H111	H	0.905103	0.376195	0.902369
	H112	H	0.088081	0.895994	0.615146
	H113	H	0.092682	0.087511	0.382098
	H114	H	0.906278	0.094278	0.617340
	H115	H	0.903051	0.901297	0.380463
	H116	H	0.618901	0.094500	0.899128
	H117	H	0.382256	0.083775	0.096872
	H118	H	0.617589	0.893590	0.092282
	H119	H	0.381982	0.909648	0.897073
	C120	C	0.376516	0.004277	0.621254
	C121	C	0.620717	0.986742	0.620917
	C122	C	0.620362	0.003876	0.378200
	C123	C	0.377879	0.987245	0.378515
	C124	C	0.621349	0.373402	0.006631
	C125	C	0.620958	0.616780	0.990464
	C126	C	0.377315	0.616884	0.007328
	C127	C	0.377871	0.374079	0.990087
	C128	C	0.007981	0.618375	0.375078
	C129	C	0.991015	0.616127	0.618642
	C130	C	0.007780	0.372673	0.621408
	C131	C	0.991432	0.374708	0.377793
	C132	C	0.877650	0.503772	0.119892
	C133	C	0.120906	0.486904	0.119783
	C134	C	0.120580	0.503724	0.877097
	C135	C	0.877915	0.486602	0.876780
	C136	C	0.120402	0.873645	0.506688
	C137	C	0.119905	0.116352	0.490272
	C138	C	0.876500	0.117690	0.507840
	C139	C	0.877303	0.874126	0.489910
	C140	C	0.507397	0.117556	0.876551
	C141	C	0.490931	0.115661	0.119666
	C142	C	0.507665	0.872127	0.122887
	C143	C	0.490665	0.874229	0.878300
	C144	C	0.380015	0.880451	0.677246
	C145	C	0.617491	0.110723	0.674164
	C146	C	0.617659	0.880100	0.324787
	C147	C	0.379453	0.110396	0.321680
	C148	C	0.677211	0.376038	0.884161
	C149	C	0.676529	0.613306	0.113270
	C150	C	0.322392	0.615788	0.883895
	C151	C	0.322523	0.374476	0.113288
	C152	C	0.884731	0.673838	0.377132
	C153	C	0.114018	0.670990	0.616097
	C154	C	0.884644	0.318291	0.619187
	C155	C	0.114052	0.318841	0.380785
	C156	C	0.884931	0.375407	0.676636
	C157	C	0.113909	0.613722	0.674502
	C158	C	0.885124	0.616351	0.319545
	C159	C	0.114718	0.377417	0.323785
	C160	C	0.381076	0.672695	0.883744
	C161	C	0.618016	0.669774	0.114156
	C162	C	0.619023	0.319123	0.883744
	C163	C	0.381695	0.318306	0.113604
	C164	C	0.676457	0.880466	0.380829
	C165	C	0.675432	0.110421	0.617426
	C166	C	0.320928	0.881082	0.620887
	C167	C	0.322171	0.110561	0.379314
	C168	C	0.880914	0.380208	0.176265
	C169	C	0.117651	0.610886	0.172356
	C170	C	0.118569	0.380037	0.822809
	C171	C	0.878914	0.609890	0.819853
	C172	C	0.176640	0.876423	0.383718
	C173	C	0.175364	0.113453	0.613185
	C174	C	0.821404	0.116623	0.384582
	C175	C	0.823230	0.875463	0.613664
	C176	C	0.384704	0.173260	0.879223
	C177	C	0.613680	0.171469	0.117916
	C178	C	0.384536	0.817547	0.120046
	C179	C	0.614029	0.820219	0.881735
	C180	C	0.384560	0.874896	0.178107
	C181	C	0.613609	0.113742	0.175892
	C182	C	0.384652	0.115787	0.821709
	C183	C	0.613625	0.876596	0.822861
	C184	C	0.879742	0.173616	0.384393
	C185	C	0.117086	0.169867	0.613861
	C186	C	0.118069	0.820337	0.382929
	C187	C	0.880655	0.817672	0.613050
	C188	C	0.176675	0.380342	0.879703
	C189	C	0.175517	0.610614	0.115751
	C190	C	0.823113	0.380228	0.119045
	C191	C	0.821748	0.609642	0.877716
	C192	C	0.398406	0.090300	0.598064
	C193	C	0.598730	0.900527	0.599481
	C194	C	0.598118	0.090092	0.399569
	C195	C	0.400194	0.901061	0.401886
	C196	C	0.598845	0.395287	0.092950
	C197	C	0.598810	0.595563	0.904287
	C198	C	0.398869	0.593653	0.093265
	C199	C	0.400000	0.397360	0.904055
	C200	C	0.093513	0.595896	0.397202
	C201	C	0.905380	0.593852	0.596422
	C202	C	0.093592	0.394504	0.599097
	C203	C	0.905693	0.397584	0.399686
	C204	C	0.899453	0.589800	0.096424
	C205	C	0.099354	0.400152	0.099217
	C206	C	0.098197	0.589711	0.898633
	C207	C	0.900830	0.400739	0.899998
	C208	C	0.097700	0.895303	0.592435
	C209	C	0.098141	0.094897	0.403977
	C210	C	0.898455	0.094923	0.594082
	C211	C	0.899234	0.897796	0.404001
	C212	C	0.593328	0.094851	0.898562
	C213	C	0.405524	0.093517	0.097289
	C214	C	0.593582	0.894021	0.100906
	C215	C	0.405005	0.896407	0.900561
	Zn216	Zn	0.498956	-0.004605	0.749031
	Zn217	Zn	0.499079	-0.004757	0.250052
	Zn218	Zn	0.749441	0.494971	-0.001718
	Zn219	Zn	0.248715	0.495007	-0.001502
	Zn220	Zn	-0.000902	0.745961	0.497262
	Zn221	Zn	-0.001307	0.245382	0.499559
	Zn222	Zn	-0.000658	0.495131	0.748466
	Zn223	Zn	-0.000316	0.495830	0.247590
	Zn224	Zn	0.499337	0.745063	-0.000270
	Zn225	Zn	0.499586	0.245286	-0.001725
	Zn226	Zn	0.748585	-0.004474	0.499345
	Zn227	Zn	0.248514	-0.004451	0.498587
	N228	N	0.413718	0.958093	0.677591
	N229	N	0.584299	0.032851	0.676636
	N230	N	0.583696	0.957702	0.323027
	N231	N	0.413535	0.032780	0.321249
	N232	N	0.678800	0.408813	0.961925
	N233	N	0.678628	0.581119	0.035285
	N234	N	0.319946	0.581579	0.961566
	N235	N	0.320090	0.408340	0.035554
	N236	N	0.962106	0.675182	0.410993
	N237	N	0.036733	0.672578	0.582149
	N238	N	0.962003	0.316553	0.585428
	N239	N	0.036501	0.317327	0.413796
	N240	N	0.962540	0.408458	0.678285
	N241	N	0.036295	0.580410	0.676309
	N242	N	0.962426	0.582625	0.318012
	N243	N	0.037242	0.411425	0.321585
	N244	N	0.414271	0.673556	0.961487
	N245	N	0.584415	0.672133	0.036729
	N246	N	0.585045	0.317510	0.961142
	N247	N	0.415340	0.318012	0.035945
	N248	N	0.678357	0.958464	0.413402
	N249	N	0.677351	0.032349	0.584875
	N250	N	0.318627	0.958942	0.586661
	N251	N	0.321347	0.033038	0.414209
	N252	N	0.914154	0.458222	0.176900
	N253	N	0.084367	0.533075	0.174872
	N254	N	0.084217	0.457626	0.821042
	N255	N	0.913304	0.532405	0.819262
	N256	N	0.178202	0.909028	0.461631
	N257	N	0.177017	0.080914	0.535362
	N258	N	0.819417	0.082525	0.462501
	N259	N	0.820863	0.909699	0.536023
	N260	N	0.462052	0.174171	0.912837
	N261	N	0.536668	0.172748	0.083568
	N262	N	0.462026	0.815484	0.086493
	N263	N	0.536702	0.818778	0.915497
	N264	N	0.462247	0.907841	0.180059
	N265	N	0.536406	0.079782	0.177126
	N266	N	0.461975	0.081990	0.819633
	N267	N	0.535867	0.909496	0.820676
	N268	N	0.913049	0.174420	0.462066
	N269	N	0.082986	0.171572	0.536498
	N270	N	0.083872	0.818396	0.460253
	N271	N	0.913581	0.816914	0.535139
	N272	N	0.177872	0.458076	0.912810
	N273	N	0.177567	0.532340	0.083765
	N274	N	0.821029	0.457896	0.084635
	N275	N	0.821004	0.532028	0.912408
	O276	O	0.978968	1.067488	-0.001623
	H277	H	0.973592	1.069838	0.003440
	H278	H	0.977275	1.065887	-0.006939
	O279	O	0.556662	0.498361	0.510096
	H280	H	0.558317	0.494458	0.508897
	H281	H	0.552208	0.499644	0.519545
	O282	O	-0.027819	-0.028539	-0.044666
	H283	H	-0.027134	-0.025742	-0.051265
	H284	H	-0.027072	-0.030186	-0.038390
	O285	O	0.497208	0.508409	0.488544
	H286	H	0.507099	0.509548	0.496231
	H287	H	0.499498	0.503531	0.493560
	O288	O	0.000860	-0.012884	-0.011392
	H289	H	0.006657	-0.002825	-0.009855
	H290	H	-0.000577	-0.015057	-0.020003
	O291	O	0.035194	1.038613	-0.055381
	H292	H	0.040990	1.031132	-0.063091
	H293	H	0.034695	1.041027	-0.054340
	O294	O	0.012527	0.904728	-0.009172
	H295	H	0.011109	0.900806	0.012582
	H296	H	0.003420	0.904317	-0.004340
	O297	O	0.445853	0.590115	0.453207
	H298	H	0.441224	0.604514	0.443668
	H299	H	0.448328	0.579327	0.457814
	O300	O	0.475577	0.487245	0.471193
	H301	H	0.478002	0.488785	0.474357
	H302	H	0.474187	0.493449	0.463678
	O303	O	1.011560	0.021379	1.016419
	H304	H	1.010005	0.015750	1.026173
	H305	H	1.017666	0.017935	1.017806
	O306	O	-0.018696	0.896580	1.036933
	H307	H	-0.031037	0.891123	1.036753
	H308	H	-0.022279	0.898342	1.029972
	O309	O	-0.010643	0.936735	0.922058
	H310	H	-0.007237	0.938362	0.925244
	H311	H	-0.001905	0.940536	0.924060
	O312	O	0.075149	0.060282	1.044429
	H313	H	0.077362	0.053110	1.048947
	H314	H	0.071898	0.056159	1.042532
	O315	O	0.524661	0.496907	0.439937
	H316	H	0.531216	0.500229	0.430683
	H317	H	0.525686	0.500079	0.441471
	O318	O	-0.031079	-0.017608	1.016034
	H319	H	-0.037141	-0.023861	1.015123
	H320	H	-0.037212	-0.024476	1.004799
	O321	O	0.531132	0.509012	0.563495
	H322	H	0.524322	0.505700	0.563934
	H323	H	0.528707	0.504798	0.569448
	O324	O	0.925889	-0.042184	0.977899
	H325	H	0.927633	-0.039650	0.972898
	H326	H	0.928027	-0.037832	0.978474
	O327	O	0.948176	1.035651	0.983346
	H328	H	0.945210	1.039523	0.977558
	H329	H	0.939654	1.036111	0.986259
	O330	O	0.540430	0.533726	0.474820
	H331	H	0.539300	0.530900	0.477665
	H332	H	0.537658	0.535022	0.477266
	O333	O	0.650771	0.382308	0.565731
	H334	H	0.646099	0.382886	0.561799
	H335	H	0.653396	0.378309	0.564114
	O336	O	0.490087	0.545015	0.504189
	H337	H	0.482182	0.548553	0.502561
	H338	H	0.489668	0.544178	0.500568
	O339	O	0.556531	0.442420	0.461549
	H340	H	0.552026	0.442705	0.459942
	H341	H	0.560154	0.445491	0.457905
	O342	O	0.495155	0.489743	0.503482
	H343	H	0.495238	0.484534	0.496913
	H344	H	0.495378	0.486837	0.504923
	O345	O	0.492932	0.526795	0.464535
	H346	H	0.494315	0.528820	0.460627
	H347	H	0.496080	0.526016	0.474337
