data_Molecule from HDF5

_cell_length_a		16.301893
_cell_length_b		16.212253
_cell_length_c		16.596573
_cell_angle_alpha	90.195427
_cell_angle_beta	89.852258
_cell_angle_gamma	90.155880
_symmetry_space_group_name_H-M	'P 1'
_symmetry_Int_Tables_number		1

loop_
	_symmetry_equiv_pos_as_xyz
	x,y,z

loop_
	_atom_site_label
	_atom_site_type_symbol
	_atom_site_fract_x
	_atom_site_fract_y
	_atom_site_fract_z
	H0	H	0.398280	0.850614	0.723126
	H1	H	0.609811	0.171921	0.724114
	H2	H	0.606197	0.849964	0.282438
	H3	H	0.397244	0.171854	0.284363
	H4	H	0.720970	0.408451	0.844783
	H5	H	0.719175	0.612271	0.162235
	H6	H	0.282371	0.616320	0.844360
	H7	H	0.282672	0.409089	0.161677
	H8	H	0.838289	0.723774	0.404076
	H9	H	0.163186	0.726153	0.601328
	H10	H	0.839021	0.294967	0.599194
	H11	H	0.164881	0.294088	0.402682
	H12	H	0.842968	0.400405	0.725084
	H13	H	0.160679	0.617300	0.723922
	H14	H	0.840854	0.611738	0.284019
	H15	H	0.162038	0.403867	0.281146
	H16	H	0.403145	0.729724	0.842914
	H17	H	0.602846	0.728417	0.163209
	H18	H	0.605253	0.291792	0.844271
	H19	H	0.400682	0.294334	0.162554
	H20	H	0.715987	0.846638	0.403036
	H21	H	0.720056	0.172941	0.603570
	H22	H	0.286778	0.847897	0.602793
	H23	H	0.287474	0.173836	0.405778
	H24	H	0.897911	0.347493	0.218613
	H25	H	0.103104	0.672369	0.221060
	H26	H	0.107883	0.348949	0.781829
	H27	H	0.897555	0.670067	0.782934
	H28	H	0.222438	0.906828	0.344639
	H29	H	0.220037	0.115036	0.662075
	H30	H	0.784428	0.110382	0.343546
	H31	H	0.780806	0.906402	0.661036
	H32	H	0.340452	0.228642	0.903478
	H33	H	0.665782	0.228111	0.101947
	H34	H	0.340150	0.795334	0.101782
	H35	H	0.666351	0.798434	0.904231
	H36	H	0.342182	0.906480	0.223605
	H37	H	0.662742	0.117816	0.223635
	H38	H	0.343940	0.120649	0.780392
	H39	H	0.662970	0.908017	0.782451
	H40	H	0.901407	0.226053	0.342576
	H41	H	0.103875	0.230924	0.661178
	H42	H	0.102644	0.791740	0.342939
	H43	H	0.898082	0.789815	0.661297
	H44	H	0.219074	0.347796	0.901360
	H45	H	0.215072	0.675163	0.101214
	H46	H	0.785293	0.347193	0.100632
	H47	H	0.790826	0.675242	0.907125
	H48	H	0.404169	0.131122	0.598591
	H49	H	0.581902	0.901402	0.586174
	H50	H	0.588511	0.125388	0.413044
	H51	H	0.416857	0.895489	0.408719
	H52	H	0.586431	0.413440	0.116118
	H53	H	0.598820	0.599848	0.889333
	H54	H	0.407960	0.609838	0.118105
	H55	H	0.409987	0.418010	0.888509
	H56	H	0.113470	0.597050	0.417031
	H57	H	0.887680	0.598270	0.587894
	H58	H	0.117447	0.418395	0.591262
	H59	H	0.882509	0.413290	0.401965
	H60	H	0.114601	0.424760	0.591672
	H61	H	0.888356	0.590613	0.596717
	H62	H	0.116138	0.592392	0.406600
	H63	H	0.887554	0.413653	0.416596
	H64	H	0.404770	0.597315	0.114550
	H65	H	0.591922	0.605628	0.889953
	H66	H	0.602977	0.418563	0.119885
	H67	H	0.409578	0.423516	0.890686
	H68	H	0.596154	0.126564	0.415128
	H69	H	0.599117	0.894753	0.589684
	H70	H	0.421256	0.126317	0.600967
	H71	H	0.414057	0.896987	0.415157
	H72	H	0.910931	0.624799	0.090691
	H73	H	0.085268	0.395780	0.095091
	H74	H	0.086269	0.620619	0.921347
	H75	H	0.911509	0.395003	0.911547
	H76	H	0.087341	0.910802	0.616604
	H77	H	0.100921	0.097403	0.389166
	H78	H	0.915099	0.101405	0.613569
	H79	H	0.906614	0.911452	0.387040
	H80	H	0.620812	0.109098	0.909423
	H81	H	0.390113	0.097110	0.091181
	H82	H	0.620387	0.917429	0.096982
	H83	H	0.392118	0.932500	0.914258
	H84	H	0.616306	0.922660	0.090429
	H85	H	0.387052	0.098963	0.101963
	H86	H	0.613702	0.099066	0.922033
	H87	H	0.384525	0.920241	0.902406
	H88	H	0.908693	0.105511	0.617304
	H89	H	0.090403	0.095655	0.393060
	H90	H	0.102581	0.916006	0.619157
	H91	H	0.906423	0.920837	0.389651
	H92	H	0.100833	0.629571	0.910941
	H93	H	0.093118	0.396475	0.086612
	H94	H	0.905868	0.628892	0.099301
	H95	H	0.913122	0.394544	0.911859
	H96	H	0.413226	0.122849	0.585497
	H97	H	0.586103	0.894272	0.602798
	H98	H	0.594179	0.128360	0.407294
	H99	H	0.409915	0.893260	0.410741
	H100	H	0.591372	0.430425	0.112297
	H101	H	0.599137	0.608285	0.886449
	H102	H	0.417539	0.601939	0.112738
	H103	H	0.415013	0.421154	0.891842
	H104	H	0.118291	0.603620	0.408538
	H105	H	0.884048	0.601537	0.598268
	H106	H	0.117418	0.421878	0.596803
	H107	H	0.888479	0.426542	0.407812
	H108	H	0.916258	0.625857	0.100180
	H109	H	0.096576	0.392249	0.096768
	H110	H	0.083039	0.625499	0.902290
	H111	H	0.911891	0.394574	0.913080
	H112	H	0.092248	0.926820	0.613102
	H113	H	0.093040	0.106394	0.388218
	H114	H	0.907668	0.097541	0.615398
	H115	H	0.913548	0.915805	0.390501
	H116	H	0.615871	0.092304	0.905850
	H117	H	0.386457	0.107542	0.094877
	H118	H	0.617415	0.926254	0.098843
	H119	H	0.388030	0.914971	0.919589
	C120	C	0.381228	0.019927	0.625357
	C121	C	0.622184	1.003055	0.623780
	C122	C	0.623328	0.019547	0.381294
	C123	C	0.382393	1.002326	0.382392
	C124	C	0.623781	0.390080	0.010997
	C125	C	0.625732	0.634519	0.994271
	C126	C	0.379886	0.634171	0.010536
	C127	C	0.380076	0.389731	0.995149
	C128	C	0.009907	0.629556	0.380973
	C129	C	0.992825	0.629736	0.624200
	C130	C	0.010145	0.389378	0.623002
	C131	C	0.993148	0.387109	0.379292
	C132	C	0.880171	0.518816	0.124825
	C133	C	0.122114	0.502217	0.123354
	C134	C	0.122393	0.518611	0.880774
	C135	C	0.881658	0.501656	0.882074
	C136	C	0.124299	0.887552	0.511102
	C137	C	0.124570	0.132300	0.494703
	C138	C	0.880364	0.131108	0.510479
	C139	C	0.878639	0.886612	0.494363
	C140	C	0.510815	0.132033	0.882012
	C141	C	0.494331	0.133103	0.125661
	C142	C	0.511058	0.890822	0.124907
	C143	C	0.494574	0.891725	0.881788
	C144	C	0.379873	0.898512	0.683555
	C145	C	0.626301	0.123872	0.683479
	C146	C	0.624298	0.897897	0.322436
	C147	C	0.379911	0.123924	0.324515
	C148	C	0.681571	0.389542	0.891624
	C149	C	0.681203	0.632865	0.114536
	C150	C	0.322001	0.635053	0.891388
	C151	C	0.321714	0.389905	0.114278
	C152	C	0.887423	0.685992	0.383438
	C153	C	0.114470	0.688046	0.622477
	C154	C	0.888155	0.331874	0.621013
	C155	C	0.115523	0.331075	0.381471
	C156	C	0.890091	0.384657	0.683286
	C157	C	0.113274	0.633395	0.682981
	C158	C	0.888587	0.630373	0.323647
	C159	C	0.114187	0.385901	0.321174
	C160	C	0.381912	0.691631	0.890950
	C161	C	0.623100	0.690483	0.114982
	C162	C	0.623941	0.331590	0.891582
	C163	C	0.380512	0.332497	0.114552
	C164	C	0.678908	0.896346	0.382448
	C165	C	0.681666	0.124471	0.623876
	C166	C	0.324414	0.897035	0.623888
	C167	C	0.325211	0.124948	0.384714
	C168	C	0.879662	0.396090	0.180098
	C169	C	0.122235	0.624161	0.181569
	C170	C	0.125161	0.397201	0.822146
	C171	C	0.880139	0.622876	0.823631
	C172	C	0.182496	0.887803	0.391751
	C173	C	0.181392	0.133520	0.614310
	C174	C	0.823415	0.130126	0.390780
	C175	C	0.820268	0.887198	0.613615
	C176	C	0.389351	0.190628	0.883027
	C177	C	0.616462	0.190457	0.123082
	C178	C	0.388956	0.833384	0.122759
	C179	C	0.617026	0.835446	0.883193
	C180	C	0.389934	0.888678	0.183213
	C181	C	0.615028	0.135722	0.183658
	C182	C	0.391091	0.136520	0.821988
	C183	C	0.615536	0.890070	0.822836
	C184	C	0.881648	0.187734	0.390536
	C185	C	0.123392	0.191282	0.613972
	C186	C	0.123360	0.830129	0.391136
	C187	C	0.878693	0.829271	0.613967
	C188	C	0.180845	0.396756	0.881444
	C189	C	0.177931	0.625639	0.122025
	C190	C	0.822962	0.396312	0.121875
	C191	C	0.827015	0.625386	0.885085
	C192	C	0.405578	0.104795	0.601887
	C193	C	0.596384	0.918402	0.599669
	C194	C	0.599760	0.104587	0.404982
	C195	C	0.406513	0.917380	0.404851
	C196	C	0.600391	0.413941	0.094482
	C197	C	0.603182	0.611369	0.910318
	C198	C	0.403177	0.610044	0.093639
	C199	C	0.404477	0.413896	0.911974
	C200	C	0.094177	0.605007	0.404021
	C201	C	0.908601	0.604300	0.601042
	C202	C	0.094633	0.414437	0.599798
	C203	C	0.908155	0.410977	0.402072
	C204	C	0.904176	0.604382	0.103248
	C205	C	0.098584	0.417124	0.099685
	C206	C	0.097359	0.603360	0.904706
	C207	C	0.905212	0.416691	0.905196
	C208	C	0.100818	0.911007	0.594656
	C209	C	0.101380	0.107092	0.411565
	C210	C	0.903444	0.108119	0.593709
	C211	C	0.902018	0.909341	0.410779
	C212	C	0.594906	0.107150	0.905752
	C213	C	0.409675	0.108144	0.102804
	C214	C	0.595862	0.914971	0.102075
	C215	C	0.410214	0.915745	0.905325
	Zn216	Zn	0.502534	0.011789	0.752807
	Zn217	Zn	0.502542	0.011622	0.253808
	Zn218	Zn	0.753474	0.511321	0.002673
	Zn219	Zn	0.250292	0.511721	0.002304
	Zn220	Zn	0.001062	0.757822	0.502745
	Zn221	Zn	0.002208	0.260815	0.502342
	Zn222	Zn	0.001024	0.508750	0.752776
	Zn223	Zn	0.001689	0.509074	0.251821
	Zn224	Zn	0.503634	0.763176	0.002611
	Zn225	Zn	0.502628	0.260594	0.003045
	Zn226	Zn	0.750323	0.010153	0.502623
	Zn227	Zn	0.253915	0.010658	0.503695
	N228	N	0.414310	0.975988	0.684465
	N229	N	0.590217	0.047331	0.683343
	N230	N	0.590438	0.975523	0.321540
	N231	N	0.414525	0.046723	0.322824
	N232	N	0.681449	0.425208	0.966833
	N233	N	0.682911	0.598846	0.038617
	N234	N	0.320379	0.600229	0.966811
	N235	N	0.321217	0.424796	0.038715
	N236	N	0.963856	0.685683	0.418348
	N237	N	0.038565	0.685981	0.586870
	N238	N	0.963687	0.334887	0.583974
	N239	N	0.039134	0.331461	0.416595
	N240	N	0.966906	0.419415	0.684607
	N241	N	0.036492	0.597902	0.684389
	N242	N	0.965505	0.595854	0.322163
	N243	N	0.036914	0.419771	0.319498
	N244	N	0.417129	0.691237	0.966049
	N245	N	0.589401	0.691687	0.039083
	N246	N	0.588896	0.331676	0.966947
	N247	N	0.415905	0.332136	0.039446
	N248	N	0.678457	0.972822	0.418307
	N249	N	0.679116	0.048245	0.587227
	N250	N	0.325116	0.973521	0.588480
	N251	N	0.326568	0.048354	0.420066
	N252	N	0.914090	0.473436	0.182428
	N253	N	0.088791	0.546385	0.182748
	N254	N	0.089854	0.474058	0.821440
	N255	N	0.913267	0.544882	0.821676
	N256	N	0.183587	0.922351	0.467491
	N257	N	0.182098	0.097355	0.539101
	N258	N	0.822516	0.095693	0.466203
	N259	N	0.820052	0.922083	0.538193
	N260	N	0.464727	0.187870	0.919936
	N261	N	0.540267	0.189202	0.087846
	N262	N	0.465257	0.834690	0.087291
	N263	N	0.540818	0.836133	0.919170
	N264	N	0.466926	0.923549	0.184627
	N265	N	0.537981	0.100834	0.185410
	N266	N	0.467507	0.100940	0.821122
	N267	N	0.538427	0.923911	0.821711
	N268	N	0.916495	0.188492	0.465888
	N269	N	0.088795	0.190595	0.538624
	N270	N	0.087890	0.829868	0.466357
	N271	N	0.914056	0.828710	0.538876
	N272	N	0.179465	0.473515	0.917175
	N273	N	0.178299	0.548797	0.086638
	N274	N	0.823286	0.473591	0.088087
	N275	N	0.827743	0.548995	0.920726
	O276	O	0.472524	0.653265	0.304378
	H277	H	0.453475	0.664768	0.298065
	H278	H	0.466418	0.657002	0.302522
	O279	O	0.633060	0.596258	0.477185
	H280	H	0.635300	0.574324	0.466465
	H281	H	0.648611	0.601060	0.473942
	O282	O	0.298199	0.566552	0.341545
	H283	H	0.293327	0.582767	0.330234
	H284	H	0.284812	0.580245	0.337947
	O285	O	1.136438	-0.116606	-0.125514
	H286	H	1.143794	-0.124923	-0.113697
	H287	H	1.149982	-0.113532	-0.133260
	O288	O	0.033776	-0.169896	1.141737
	H289	H	0.031118	-0.156352	1.139387
	H290	H	0.031402	-0.162918	1.134108
	O291	O	0.369057	0.660362	0.460735
	H292	H	0.382395	0.668986	0.452280
	H293	H	0.378357	0.662020	0.459697
	O294	O	0.453882	0.596117	0.367588
	H295	H	0.446675	0.591023	0.360200
	H296	H	0.454651	0.606946	0.377191
	O297	O	0.985869	1.020640	0.866872
	H298	H	1.008338	1.024308	0.864715
	H299	H	0.995644	1.022454	0.871800
	O300	O	-0.182298	-0.121287	0.190613
	H301	H	-0.192094	-0.135927	0.193634
	H302	H	-0.169979	-0.139537	0.182740
	O303	O	0.557074	0.453370	0.451007
	H304	H	0.566890	0.445253	0.448475
	H305	H	0.561251	0.454975	0.458123
	O306	O	1.088488	0.072952	0.109495
	H307	H	1.096229	0.072164	0.105925
	H308	H	1.085449	0.085698	0.100635
	O309	O	0.339011	0.396566	0.548177
	H310	H	0.326502	0.396208	0.540319
	H311	H	0.340894	0.405589	0.536633
	O312	O	1.030071	0.925059	-0.096062
	H313	H	1.024944	0.906122	-0.099627
	H314	H	1.047397	0.920540	-0.105301
	O315	O	0.595272	0.592260	0.647343
	H316	H	0.607477	0.599976	0.671008
	H317	H	0.593601	0.586487	0.647958
	O318	O	0.422973	0.631378	0.591108
	H319	H	0.416944	0.615370	0.592155
	H320	H	0.434516	0.625596	0.582979
	O321	O	0.896139	-0.068973	0.857240
	H322	H	0.901138	-0.072461	0.861639
	H323	H	0.915836	-0.072743	0.851340
	O324	O	0.106282	0.155970	1.167426
	H325	H	0.112801	0.169809	1.179095
	H326	H	0.093136	0.155456	1.167424
	O327	O	0.437953	0.364413	0.685055
	H328	H	0.443268	0.364184	0.674627
	H329	H	0.431646	0.359378	0.668728
	O330	O	0.534634	0.395071	0.462000
	H331	H	0.546082	0.391661	0.469825
	H332	H	0.536243	0.383244	0.457035
	O333	O	0.582603	0.701980	0.674687
	H334	H	0.589452	0.700716	0.688569
	H335	H	0.594301	0.708321	0.662806
	O336	O	0.407894	0.458249	0.423645
	H337	H	0.412329	0.487603	0.423477
	H338	H	0.423187	0.464262	0.409299
	O339	O	0.832447	-0.138607	0.986311
	H340	H	0.832754	-0.126111	0.975881
	H341	H	0.843568	-0.141615	0.996885
	O342	O	-0.491077	0.591801	0.463429
	H343	H	-0.492748	0.607357	0.468669
	H344	H	-0.495479	0.591414	0.476808
	O345	O	-0.054990	1.143615	1.163247
	H346	H	-0.045543	1.150534	1.172470
	H347	H	-0.066756	1.120930	1.174759
	O348	O	0.136159	-0.015636	0.176320
	H349	H	0.125012	-0.007291	0.181914
	H350	H	0.148231	0.000002	0.181298
	O351	O	0.122456	0.133375	0.149879
	H352	H	0.111344	0.130132	0.136634
	H353	H	0.135183	0.128501	0.158042
	O354	O	1.454604	1.586871	0.591702
	H355	H	1.459757	1.581651	0.584771
	H356	H	1.447878	1.572032	0.590363
	O357	O	0.028220	0.869922	-0.205270
	H358	H	0.038729	0.866932	-0.215598
	H359	H	0.043379	0.867773	-0.212203
	O360	O	0.438967	0.616901	0.426186
	H361	H	0.432060	0.615925	0.425483
	H362	H	0.440114	0.607918	0.432172
	O363	O	0.651864	0.483796	0.437531
	H364	H	0.657530	0.473747	0.434293
	H365	H	0.648020	0.482017	0.456398
	O366	O	0.494144	0.406848	0.420019
	H367	H	0.500353	0.403666	0.401676
	H368	H	0.508499	0.412028	0.421076
	O369	O	0.318592	0.446346	0.672165
	H370	H	0.310546	0.444550	0.689535
	H371	H	0.331801	0.427167	0.668193
	O372	O	0.629166	0.539426	0.703371
	H373	H	0.622441	0.557393	0.696720
	H374	H	0.631829	0.539800	0.717562
	O375	O	0.653869	0.429104	0.435438
	H376	H	0.647355	0.420393	0.439405
	H377	H	0.649164	0.441431	0.441357
	O378	O	0.979588	0.177949	-0.029621
	H379	H	0.972172	0.179246	-0.022420
	H380	H	0.982405	0.175843	-0.024903
	O381	O	0.406961	0.377806	0.420866
	H382	H	0.410434	0.378827	0.417412
	H383	H	0.416835	0.382920	0.425569
	O384	O	-0.051784	1.173207	0.816960
	H385	H	-0.044857	1.179671	0.835894
	H386	H	-0.051729	1.176277	0.808080
	O387	O	0.824883	0.932465	0.061104
	H388	H	0.836219	0.924179	0.045978
	H389	H	0.801436	0.936120	0.065049
	O390	O	0.630530	0.506810	0.552681
	H391	H	0.649763	0.513826	0.566944
	H392	H	0.631312	0.509603	0.566921
	O393	O	0.863769	0.156383	0.834362
	H394	H	0.871886	0.150209	0.840091
	H395	H	0.856733	0.165664	0.833441
	O396	O	-0.260112	0.188237	0.096325
	H397	H	-0.250120	0.184318	0.090363
	H398	H	-0.267286	0.173496	0.104655
	O399	O	0.563472	0.416215	0.629147
	H400	H	0.568637	0.422546	0.638196
	H401	H	0.560833	0.424745	0.624760
	O402	O	0.499879	0.551216	1.436273
	H403	H	0.503232	0.538926	1.437495
	H404	H	0.487842	0.552413	1.430698
	O405	O	0.193485	0.010429	-0.133941
	H406	H	0.194500	0.010727	-0.121962
	H407	H	0.210415	0.018649	-0.138036
	O408	O	1.154308	0.982098	0.910614
	H409	H	1.161015	0.962003	0.914732
	H410	H	1.161571	0.997344	0.925537
	O411	O	0.863359	1.141554	0.002627
	H412	H	0.864164	1.139660	-0.003929
	H413	H	0.855859	1.135958	0.017706
	O414	O	0.071071	-0.038836	1.006464
	H415	H	0.077411	-0.027938	1.016034
	H416	H	0.065435	-0.030843	1.011396
	O417	O	0.981683	-0.077490	1.153674
	H418	H	0.982738	-0.078783	1.150556
	H419	H	0.996081	-0.076672	1.135159
	O420	O	0.175008	1.170105	0.020501
	H421	H	0.166754	1.164219	0.042585
	H422	H	0.188633	1.181795	0.023703
	O423	O	0.988032	-0.063374	0.082406
	H424	H	0.969218	-0.063063	0.078986
	H425	H	0.983378	-0.067933	0.072106
	O426	O	0.131612	-0.073993	0.964991
	H427	H	0.130969	-0.053433	0.969589
	H428	H	0.147678	-0.104578	0.961054
	O429	O	0.600857	0.394997	0.530855
	H430	H	0.602802	0.374647	0.545158
	H431	H	0.587429	0.398505	0.540763
