data_Molecule from HDF5

_cell_length_a		16.235261
_cell_length_b		16.304339
_cell_length_c		16.348022
_cell_angle_alpha	90.057552
_cell_angle_beta	89.723265
_cell_angle_gamma	89.946113
_symmetry_space_group_name_H-M	'P 1'
_symmetry_Int_Tables_number		1

loop_
	_symmetry_equiv_pos_as_xyz
	x,y,z

loop_
	_atom_site_label
	_atom_site_type_symbol
	_atom_site_fract_x
	_atom_site_fract_y
	_atom_site_fract_z
	H0	H	0.399298	0.834305	0.717582
	H1	H	0.597473	0.160803	0.714730
	H2	H	0.600657	0.834917	0.283471
	H3	H	0.401381	0.160945	0.286833
	H4	H	0.714499	0.398979	0.836108
	H5	H	0.714137	0.595319	0.162964
	H6	H	0.287303	0.595820	0.836185
	H7	H	0.284302	0.400472	0.163013
	H8	H	0.835313	0.710999	0.401508
	H9	H	0.164113	0.710182	0.594826
	H10	H	0.835262	0.283446	0.597705
	H11	H	0.163659	0.282690	0.400355
	H12	H	0.836690	0.397180	0.715579
	H13	H	0.164690	0.594984	0.711259
	H14	H	0.835815	0.596134	0.285627
	H15	H	0.163798	0.398404	0.284181
	H16	H	0.400928	0.714193	0.837736
	H17	H	0.597942	0.712085	0.163116
	H18	H	0.600411	0.280657	0.837280
	H19	H	0.399458	0.282417	0.163231
	H20	H	0.713930	0.833325	0.402580
	H21	H	0.713780	0.160419	0.598394
	H22	H	0.286132	0.831875	0.598317
	H23	H	0.286613	0.160420	0.404298
	H24	H	0.898387	0.334758	0.215750
	H25	H	0.098031	0.660497	0.213561
	H26	H	0.101642	0.334002	0.782105
	H27	H	0.901628	0.660383	0.784079
	H28	H	0.216500	0.897241	0.336877
	H29	H	0.211404	0.093486	0.663599
	H30	H	0.785445	0.094020	0.336166
	H31	H	0.785454	0.900028	0.663608
	H32	H	0.335845	0.210586	0.904003
	H33	H	0.663849	0.212099	0.099141
	H34	H	0.336086	0.782753	0.100508
	H35	H	0.664042	0.782869	0.900971
	H36	H	0.336117	0.899246	0.216278
	H37	H	0.663745	0.096015	0.214368
	H38	H	0.335215	0.095320	0.787794
	H39	H	0.663099	0.897174	0.783745
	H40	H	0.900850	0.211219	0.336168
	H41	H	0.097965	0.211776	0.662144
	H42	H	0.099451	0.782016	0.335984
	H43	H	0.898619	0.780242	0.662393
	H44	H	0.216544	0.333736	0.899380
	H45	H	0.212658	0.661164	0.095436
	H46	H	0.786341	0.333659	0.095936
	H47	H	0.787793	0.661615	0.902429
	H48	H	0.407723	0.113324	0.600036
	H49	H	0.592421	0.881231	0.592958
	H50	H	0.594688	0.113077	0.409440
	H51	H	0.406300	0.883075	0.414828
	H52	H	0.592981	0.406413	0.115410
	H53	H	0.590738	0.597594	0.883323
	H54	H	0.406842	0.590328	0.115391
	H55	H	0.395675	0.395999	0.877728
	H56	H	0.122470	0.591893	0.389858
	H57	H	0.879665	0.596468	0.596933
	H58	H	0.116495	0.397909	0.585957
	H59	H	0.886623	0.407470	0.415029
	H60	H	0.113496	0.409664	0.588383
	H61	H	0.886186	0.588573	0.583936
	H62	H	0.116118	0.602558	0.416268
	H63	H	0.882075	0.409452	0.397879
	H64	H	0.405569	0.593007	0.116376
	H65	H	0.599921	0.589736	0.882242
	H66	H	0.591024	0.403053	0.114821
	H67	H	0.407686	0.419367	0.888217
	H68	H	0.592799	0.114338	0.405236
	H69	H	0.591486	0.880253	0.594763
	H70	H	0.407841	0.110459	0.590050
	H71	H	0.402045	0.877943	0.402643
	H72	H	0.901381	0.614791	0.092828
	H73	H	0.090321	0.382227	0.090424
	H74	H	0.092310	0.611779	0.908079
	H75	H	0.903943	0.377909	0.898062
	H76	H	0.082517	0.899984	0.613313
	H77	H	0.102788	0.088111	0.381367
	H78	H	0.912938	0.088711	0.612437
	H79	H	0.904656	0.901278	0.383071
	H80	H	0.617765	0.090291	0.904871
	H81	H	0.381254	0.087174	0.103905
	H82	H	0.616544	0.900167	0.090637
	H83	H	0.382933	0.901766	0.912102
	H84	H	0.614897	0.908546	0.090152
	H85	H	0.381664	0.099420	0.091775
	H86	H	0.616347	0.091038	0.908973
	H87	H	0.384842	0.908640	0.910551
	H88	H	0.905057	0.096539	0.617886
	H89	H	0.088211	0.082982	0.386800
	H90	H	0.098088	0.895938	0.618409
	H91	H	0.905493	0.906587	0.384814
	H92	H	0.096648	0.613786	0.903750
	H93	H	0.093465	0.381286	0.090817
	H94	H	0.909774	0.614420	0.098051
	H95	H	0.916026	0.383477	0.905944
	H96	H	0.399187	0.114051	0.593754
	H97	H	0.590455	0.882026	0.593688
	H98	H	0.589828	0.112835	0.408174
	H99	H	0.415269	0.881654	0.404554
	H100	H	0.594805	0.402994	0.116052
	H101	H	0.589224	0.586065	0.886416
	H102	H	0.403291	0.590206	0.116338
	H103	H	0.422932	0.395758	0.887167
	H104	H	0.110240	0.574788	0.410508
	H105	H	0.884370	0.580965	0.597513
	H106	H	0.118811	0.402482	0.597906
	H107	H	0.879732	0.393294	0.405682
	H108	H	0.909454	0.612101	0.089146
	H109	H	0.091314	0.380166	0.093199
	H110	H	0.090303	0.613105	0.901994
	H111	H	0.902359	0.382031	0.912286
	H112	H	0.094105	0.912039	0.613310
	H113	H	0.089722	0.098308	0.382314
	H114	H	0.901314	0.085742	0.614416
	H115	H	0.910093	0.902728	0.384647
	H116	H	0.615339	0.087319	0.907069
	H117	H	0.386857	0.083237	0.087369
	H118	H	0.617755	0.905497	0.097170
	H119	H	0.382193	0.904523	0.905051
	C120	C	0.376820	0.004570	0.622829
	C121	C	0.620245	0.988866	0.622141
	C122	C	0.621271	0.005698	0.378787
	C123	C	0.378732	0.988701	0.378851
	C124	C	0.621758	0.375281	0.007754
	C125	C	0.621539	0.619284	0.991774
	C126	C	0.377831	0.619659	0.008162
	C127	C	0.379013	0.375757	0.992101
	C128	C	0.007938	0.618172	0.377530
	C129	C	0.991795	0.617594	0.620240
	C130	C	0.008313	0.374496	0.620656
	C131	C	0.991221	0.375021	0.377244
	C132	C	0.877836	0.505818	0.121350
	C133	C	0.120412	0.489082	0.120226
	C134	C	0.122758	0.505135	0.876051
	C135	C	0.879084	0.489055	0.877297
	C136	C	0.121081	0.874575	0.507494
	C137	C	0.121487	0.117967	0.491281
	C138	C	0.877638	0.118457	0.507389
	C139	C	0.877545	0.875046	0.491808
	C140	C	0.508071	0.118398	0.878978
	C141	C	0.491660	0.118837	0.122203
	C142	C	0.508405	0.875915	0.122062
	C143	C	0.491497	0.876102	0.879690
	C144	C	0.378974	0.882355	0.678784
	C145	C	0.618116	0.112028	0.677103
	C146	C	0.619987	0.883028	0.322640
	C147	C	0.380923	0.111889	0.324352
	C148	C	0.676857	0.378167	0.884977
	C149	C	0.676114	0.615960	0.114383
	C150	C	0.324485	0.616657	0.885056
	C151	C	0.322677	0.379125	0.114484
	C152	C	0.884206	0.673069	0.381088
	C153	C	0.115190	0.672524	0.616247
	C154	C	0.884548	0.320483	0.618317
	C155	C	0.114893	0.320227	0.379603
	C156	C	0.885227	0.376953	0.676989
	C157	C	0.115479	0.615227	0.674020
	C158	C	0.884492	0.615993	0.323445
	C159	C	0.114661	0.377514	0.321661
	C160	C	0.380788	0.675644	0.886120
	C161	C	0.618693	0.674298	0.114453
	C162	C	0.620228	0.319173	0.885685
	C163	C	0.379980	0.320892	0.114613
	C164	C	0.675862	0.882102	0.382027
	C165	C	0.676038	0.111718	0.619555
	C166	C	0.322600	0.881353	0.619658
	C167	C	0.323941	0.111551	0.382736
	C168	C	0.878878	0.383327	0.177161
	C169	C	0.118413	0.611807	0.175394
	C170	C	0.121376	0.382496	0.820571
	C171	C	0.881676	0.611848	0.822292
	C172	C	0.177401	0.877254	0.385111
	C173	C	0.174800	0.114455	0.614497
	C174	C	0.823285	0.114858	0.384721
	C175	C	0.822714	0.878376	0.614726
	C176	C	0.384769	0.173169	0.882889
	C177	C	0.614863	0.173998	0.119335
	C178	C	0.384991	0.820849	0.120668
	C179	C	0.614969	0.821140	0.881105
	C180	C	0.385192	0.878348	0.178301
	C181	C	0.614951	0.116348	0.176552
	C182	C	0.384598	0.116062	0.824887
	C183	C	0.614343	0.877713	0.822879
	C184	C	0.880339	0.173124	0.384783
	C185	C	0.118668	0.173597	0.613725
	C186	C	0.119266	0.819906	0.384515
	C187	C	0.879224	0.819145	0.614044
	C188	C	0.178232	0.382311	0.878948
	C189	C	0.175025	0.612137	0.116544
	C190	C	0.823141	0.382592	0.117546
	C191	C	0.824773	0.612386	0.880725
	C192	C	0.398536	0.090483	0.600937
	C193	C	0.597926	0.903302	0.600346
	C194	C	0.599139	0.091219	0.401183
	C195	C	0.401370	0.902984	0.400675
	C196	C	0.599518	0.397697	0.093210
	C197	C	0.599595	0.597557	0.906163
	C198	C	0.399164	0.597762	0.093834
	C199	C	0.402180	0.397353	0.906571
	C200	C	0.094174	0.596024	0.399138
	C201	C	0.905565	0.595294	0.599063
	C202	C	0.094048	0.396760	0.597533
	C203	C	0.905102	0.396898	0.399686
	C204	C	0.900139	0.591494	0.099659
	C205	C	0.098149	0.403322	0.097896
	C206	C	0.099740	0.590810	0.898030
	C207	C	0.900939	0.403323	0.898995
	C208	C	0.098151	0.896266	0.592900
	C209	C	0.100007	0.096296	0.405609
	C210	C	0.899944	0.096723	0.592861
	C211	C	0.899940	0.896978	0.406240
	C212	C	0.594406	0.096021	0.900541
	C213	C	0.405531	0.096439	0.100701
	C214	C	0.594141	0.898091	0.099275
	C215	C	0.405514	0.898405	0.902485
	Zn216	Zn	0.499266	-0.003062	0.751272
	Zn217	Zn	0.500234	-0.002507	0.250577
	Zn218	Zn	0.750543	0.497812	-0.001017
	Zn219	Zn	0.249803	0.497221	-0.001088
	Zn220	Zn	-0.000580	0.745911	0.498963
	Zn221	Zn	-0.000090	0.246612	0.498892
	Zn222	Zn	0.000524	0.496516	0.748244
	Zn223	Zn	-0.000521	0.497472	0.249876
	Zn224	Zn	0.499653	0.747705	0.000088
	Zn225	Zn	0.499894	0.246490	0.000472
	Zn226	Zn	0.748852	-0.002875	0.500308
	Zn227	Zn	0.249493	-0.004097	0.500132
	N228	N	0.411774	0.960030	0.681029
	N229	N	0.584040	0.034783	0.678745
	N230	N	0.586772	0.960698	0.320591
	N231	N	0.414407	0.034356	0.322026
	N232	N	0.677874	0.412418	0.961858
	N233	N	0.677987	0.582541	0.037192
	N234	N	0.322305	0.582601	0.961955
	N235	N	0.322024	0.412718	0.037308
	N236	N	0.962013	0.674456	0.414174
	N237	N	0.037299	0.674116	0.583488
	N238	N	0.962163	0.318753	0.584051
	N239	N	0.037164	0.318416	0.413390
	N240	N	0.963110	0.409701	0.678531
	N241	N	0.037719	0.581659	0.676352
	N242	N	0.962377	0.582828	0.321130
	N243	N	0.036861	0.410832	0.320133
	N244	N	0.413312	0.677375	0.963673
	N245	N	0.585479	0.676419	0.037158
	N246	N	0.586750	0.317164	0.963066
	N247	N	0.414092	0.318602	0.037459
	N248	N	0.676790	0.959329	0.416087
	N249	N	0.677289	0.034471	0.585885
	N250	N	0.321360	0.958311	0.585485
	N251	N	0.322466	0.034018	0.415831
	N252	N	0.912285	0.460750	0.179432
	N253	N	0.084963	0.534316	0.177327
	N254	N	0.087585	0.459880	0.818704
	N255	N	0.914630	0.534076	0.819935
	N256	N	0.178422	0.910504	0.462346
	N257	N	0.176738	0.080670	0.537348
	N258	N	0.821555	0.081482	0.461990
	N259	N	0.821600	0.912384	0.537774
	N260	N	0.462640	0.174718	0.915655
	N261	N	0.537023	0.175829	0.086298
	N262	N	0.462575	0.819113	0.086450
	N263	N	0.537592	0.820156	0.915828
	N264	N	0.462791	0.911996	0.179277
	N265	N	0.537332	0.082651	0.178290
	N266	N	0.462397	0.082686	0.822505
	N267	N	0.536414	0.911054	0.821670
	N268	N	0.913396	0.175563	0.462041
	N269	N	0.085994	0.175844	0.536263
	N270	N	0.084715	0.818156	0.461584
	N271	N	0.912623	0.816970	0.536558
	N272	N	0.179146	0.459519	0.912872
	N273	N	0.176551	0.534637	0.083027
	N274	N	0.822247	0.459830	0.083614
	N275	N	0.823038	0.535172	0.914292
	O276	O	1.031269	1.026101	-0.026350
	H277	H	1.027364	1.019190	-0.026932
	H278	H	1.024404	1.028440	-0.020074
	O279	O	0.083014	0.038329	0.028178
	H280	H	0.085214	0.039884	0.022794
	H281	H	0.090788	0.039152	0.024808
	O282	O	0.049070	-0.014807	0.951904
	H283	H	0.046232	-0.013520	0.956481
	H284	H	0.043873	-0.015714	0.948008
	O285	O	0.490534	0.455005	0.494255
	H286	H	0.485141	0.444149	0.501694
	H287	H	0.485083	0.455090	0.488566
	O288	O	0.472643	0.492960	0.502449
	H289	H	0.464101	0.483664	0.503194
	H290	H	0.470031	0.503423	0.504289
	O291	O	0.505133	0.475474	0.515411
	H292	H	0.501969	0.464557	0.515822
	H293	H	0.509447	0.479074	0.514468
	O294	O	0.090498	-0.008783	-0.029047
	H295	H	0.088928	-0.008554	-0.026915
	H296	H	0.091959	-0.016876	-0.039862
	O297	O	0.502996	0.446696	0.534653
	H298	H	0.505363	0.452006	0.526540
	H299	H	0.503784	0.456210	0.537737
	O300	O	0.011841	1.025915	0.965893
	H301	H	0.008319	1.030851	0.958267
	H302	H	0.010688	1.026603	0.970718
	O303	O	0.480640	0.496387	0.545805
	H304	H	0.477382	0.486673	0.552534
	H305	H	0.482597	0.498078	0.546927
	O306	O	-0.014262	0.049466	0.946952
	H307	H	-0.008111	0.048008	0.943451
	H308	H	-0.010475	0.048111	0.958215
	O309	O	0.970505	1.016091	0.931765
	H310	H	0.967464	1.011802	0.933723
	H311	H	0.967151	1.016350	0.934129
	O312	O	0.489790	0.438335	0.583610
	H313	H	0.497365	0.430919	0.579560
	H314	H	0.494861	0.432434	0.582535
	O315	O	0.501152	0.497062	0.540312
	H316	H	0.507961	0.494175	0.541093
	H317	H	0.497075	0.499282	0.543753
	O318	O	-0.018688	1.065515	-0.027264
	H319	H	-0.018303	1.069583	-0.029752
	H320	H	-0.019226	1.069272	-0.028135
	O321	O	1.052159	1.106221	0.029869
	H322	H	1.055991	1.112743	0.038254
	H323	H	1.063860	1.102053	0.025483
