data_Molecule from HDF5

_cell_length_a		16.284321
_cell_length_b		16.252177
_cell_length_c		16.268855
_cell_angle_alpha	89.778457
_cell_angle_beta	90.074367
_cell_angle_gamma	89.750193
_symmetry_space_group_name_H-M	'P 1'
_symmetry_Int_Tables_number		1

loop_
	_symmetry_equiv_pos_as_xyz
	x,y,z

loop_
	_atom_site_label
	_atom_site_type_symbol
	_atom_site_fract_x
	_atom_site_fract_y
	_atom_site_fract_z
	H0	H	0.399843	0.833938	0.715592
	H1	H	0.597651	0.161498	0.711229
	H2	H	0.598598	0.833049	0.283840
	H3	H	0.397255	0.160279	0.281866
	H4	H	0.713479	0.398634	0.833221
	H5	H	0.715611	0.595749	0.160020
	H6	H	0.284448	0.597970	0.833502
	H7	H	0.284218	0.398215	0.160388
	H8	H	0.835504	0.713773	0.395614
	H9	H	0.162839	0.709664	0.593799
	H10	H	0.835260	0.283109	0.594595
	H11	H	0.162620	0.280329	0.397322
	H12	H	0.835383	0.399379	0.710323
	H13	H	0.162957	0.593267	0.709083
	H14	H	0.835709	0.596899	0.280622
	H15	H	0.163976	0.398696	0.283198
	H16	H	0.401020	0.712909	0.834040
	H17	H	0.597469	0.709165	0.162112
	H18	H	0.598183	0.282635	0.834101
	H19	H	0.398736	0.281623	0.160201
	H20	H	0.714771	0.833857	0.399121
	H21	H	0.712146	0.160964	0.595863
	H22	H	0.284928	0.832580	0.598224
	H23	H	0.282546	0.160274	0.398522
	H24	H	0.901656	0.332970	0.211853
	H25	H	0.099201	0.660473	0.211560
	H26	H	0.099157	0.332799	0.782456
	H27	H	0.901378	0.660532	0.781192
	H28	H	0.216210	0.895531	0.334394
	H29	H	0.212234	0.094339	0.661323
	H30	H	0.780641	0.099134	0.334809
	H31	H	0.784679	0.897033	0.661192
	H32	H	0.335875	0.213726	0.898257
	H33	H	0.663249	0.210775	0.096457
	H34	H	0.335723	0.781863	0.097935
	H35	H	0.662997	0.782829	0.899454
	H36	H	0.334991	0.898937	0.212134
	H37	H	0.661943	0.094996	0.213743
	H38	H	0.335327	0.097639	0.782622
	H39	H	0.663097	0.900122	0.784280
	H40	H	0.899331	0.212201	0.333582
	H41	H	0.096530	0.209302	0.661141
	H42	H	0.096860	0.782874	0.332837
	H43	H	0.899897	0.781197	0.660068
	H44	H	0.216152	0.333895	0.896634
	H45	H	0.211991	0.661062	0.094026
	H46	H	0.785882	0.332870	0.095362
	H47	H	0.783643	0.660304	0.896039
	H48	H	0.408846	0.109754	0.582022
	H49	H	0.587625	0.881324	0.593901
	H50	H	0.596059	0.112637	0.414835
	H51	H	0.400148	0.877891	0.403325
	H52	H	0.586149	0.404524	0.111911
	H53	H	0.594525	0.593806	0.879694
	H54	H	0.401717	0.593222	0.116098
	H55	H	0.408337	0.413311	0.883517
	H56	H	0.110835	0.582928	0.411550
	H57	H	0.882950	0.585989	0.591511
	H58	H	0.111053	0.413637	0.584357
	H59	H	0.881554	0.402770	0.397439
	H60	H	0.119643	0.401786	0.602175
	H61	H	0.880566	0.593896	0.590480
	H62	H	0.117306	0.586468	0.393769
	H63	H	0.883519	0.400933	0.407399
	H64	H	0.403771	0.585835	0.113361
	H65	H	0.592565	0.586989	0.880705
	H66	H	0.595374	0.398281	0.116901
	H67	H	0.412533	0.401904	0.881207
	H68	H	0.593873	0.117572	0.395825
	H69	H	0.592648	0.881586	0.586992
	H70	H	0.396348	0.115218	0.588718
	H71	H	0.412327	0.880216	0.400760
	H72	H	0.903598	0.615283	0.090880
	H73	H	0.090479	0.378704	0.097074
	H74	H	0.095246	0.611683	0.912194
	H75	H	0.909671	0.378332	0.895766
	H76	H	0.100515	0.905670	0.615273
	H77	H	0.089940	0.093864	0.380028
	H78	H	0.906482	0.087904	0.613076
	H79	H	0.908161	0.907706	0.382577
	H80	H	0.614427	0.086370	0.901541
	H81	H	0.382161	0.090180	0.093535
	H82	H	0.616451	0.905755	0.096695
	H83	H	0.381807	0.897919	0.907967
	H84	H	0.616673	0.897229	0.089708
	H85	H	0.381725	0.095020	0.087597
	H86	H	0.618246	0.094845	0.903585
	H87	H	0.386555	0.911037	0.911904
	H88	H	0.906523	0.091867	0.613848
	H89	H	0.095529	0.086560	0.380289
	H90	H	0.084649	0.909138	0.609046
	H91	H	0.906083	0.902611	0.379557
	H92	H	0.100199	0.618610	0.894272
	H93	H	0.086628	0.383802	0.084076
	H94	H	0.912079	0.612244	0.089199
	H95	H	0.909864	0.382260	0.908999
	H96	H	0.409413	0.114525	0.597022
	H97	H	0.595872	0.878307	0.594608
	H98	H	0.578672	0.109289	0.405623
	H99	H	0.407841	0.882420	0.411835
	H100	H	0.597395	0.410555	0.113484
	H101	H	0.587755	0.592402	0.881424
	H102	H	0.409166	0.591351	0.114121
	H103	H	0.400933	0.404443	0.878774
	H104	H	0.117069	0.600598	0.406566
	H105	H	0.884144	0.589796	0.583666
	H106	H	0.117703	0.391702	0.581792
	H107	H	0.885042	0.410100	0.403179
	H108	H	0.905866	0.611487	0.083534
	H109	H	0.100420	0.378927	0.086186
	H110	H	0.081982	0.611738	0.898409
	H111	H	0.898061	0.377893	0.903893
	H112	H	0.087682	0.893908	0.614990
	H113	H	0.086209	0.085593	0.382962
	H114	H	0.901908	0.089607	0.614704
	H115	H	0.901824	0.907391	0.380246
	H116	H	0.613319	0.090851	0.910153
	H117	H	0.383885	0.087570	0.086675
	H118	H	0.612655	0.907510	0.086676
	H119	H	0.381601	0.908902	0.898434
	C120	C	0.376709	0.005178	0.619332
	C121	C	0.620380	0.988959	0.619536
	C122	C	0.619525	0.005353	0.376533
	C123	C	0.376439	0.988094	0.375918
	C124	C	0.621055	0.375979	0.005777
	C125	C	0.620736	0.619025	0.988706
	C126	C	0.376797	0.619701	0.006103
	C127	C	0.378047	0.376751	0.988817
	C128	C	0.007370	0.619486	0.374511
	C129	C	0.990554	0.618062	0.617044
	C130	C	0.007590	0.374608	0.617958
	C131	C	0.991464	0.375207	0.374581
	C132	C	0.878211	0.505079	0.117592
	C133	C	0.120980	0.488696	0.117996
	C134	C	0.121777	0.505621	0.873741
	C135	C	0.877738	0.488105	0.874351
	C136	C	0.120248	0.874590	0.505247
	C137	C	0.119222	0.117200	0.489034
	C138	C	0.875915	0.119478	0.505923
	C139	C	0.876755	0.876118	0.488739
	C140	C	0.507521	0.120013	0.875662
	C141	C	0.490585	0.119085	0.118980
	C142	C	0.507048	0.875246	0.119776
	C143	C	0.491211	0.876841	0.877330
	C144	C	0.379507	0.882395	0.676608
	C145	C	0.617611	0.112465	0.673540
	C146	C	0.618434	0.882284	0.321432
	C147	C	0.377309	0.111336	0.320047
	C148	C	0.675854	0.378301	0.882248
	C149	C	0.677072	0.616213	0.111591
	C150	C	0.321879	0.618462	0.882847
	C151	C	0.322308	0.378132	0.111578
	C152	C	0.884321	0.675368	0.376015
	C153	C	0.113911	0.672291	0.614301
	C154	C	0.884249	0.320559	0.615108
	C155	C	0.114029	0.319181	0.377202
	C156	C	0.884363	0.378071	0.672784
	C157	C	0.114045	0.614207	0.671395
	C158	C	0.884393	0.617305	0.318662
	C159	C	0.114682	0.377673	0.320217
	C160	C	0.380077	0.675548	0.883109
	C161	C	0.618469	0.672660	0.112526
	C162	C	0.618453	0.320841	0.882532
	C163	C	0.379544	0.320610	0.111679
	C164	C	0.676162	0.882535	0.378714
	C165	C	0.674735	0.112100	0.616234
	C166	C	0.322633	0.881625	0.618062
	C167	C	0.320132	0.111283	0.377858
	C168	C	0.880937	0.382029	0.173674
	C169	C	0.119086	0.611783	0.173443
	C170	C	0.119647	0.381998	0.819605
	C171	C	0.880689	0.611632	0.819203
	C172	C	0.176808	0.876527	0.382652
	C173	C	0.174217	0.114513	0.612425
	C174	C	0.819660	0.118244	0.383276
	C175	C	0.822009	0.877218	0.612025
	C176	C	0.384606	0.175732	0.877767
	C177	C	0.613855	0.173693	0.117238
	C178	C	0.384315	0.820120	0.117599
	C179	C	0.614177	0.820834	0.879344
	C180	C	0.384051	0.877966	0.174787
	C181	C	0.613277	0.116192	0.175453
	C182	C	0.384506	0.118356	0.820021
	C183	C	0.614376	0.879003	0.822073
	C184	C	0.878564	0.174670	0.382611
	C185	C	0.117080	0.172027	0.612209
	C186	C	0.117809	0.820472	0.381863
	C187	C	0.878972	0.819399	0.611474
	C188	C	0.177624	0.382522	0.876695
	C189	C	0.175429	0.612047	0.115040
	C190	C	0.823552	0.381698	0.115739
	C191	C	0.822570	0.611612	0.876528
	C192	C	0.398436	0.090965	0.596165
	C193	C	0.598503	0.902674	0.598199
	C194	C	0.596296	0.091018	0.398672
	C195	C	0.399804	0.902357	0.398755
	C196	C	0.599395	0.398050	0.091588
	C197	C	0.598386	0.597308	0.903057
	C198	C	0.398433	0.596730	0.092106
	C199	C	0.400573	0.399650	0.903316
	C200	C	0.092943	0.596736	0.397138
	C201	C	0.904812	0.596317	0.594976
	C202	C	0.093799	0.396020	0.596020
	C203	C	0.905435	0.398040	0.396395
	C204	C	0.900485	0.590999	0.094546
	C205	C	0.098949	0.402660	0.095806
	C206	C	0.099078	0.591637	0.895369
	C207	C	0.899430	0.401790	0.896445
	C208	C	0.097746	0.896692	0.590885
	C209	C	0.097039	0.095142	0.403307
	C210	C	0.898426	0.096624	0.591626
	C211	C	0.898857	0.899089	0.402866
	C212	C	0.593308	0.097355	0.898375
	C213	C	0.404869	0.097359	0.096011
	C214	C	0.593022	0.897323	0.097695
	C215	C	0.405581	0.899438	0.899729
	Zn216	Zn	0.498991	-0.001967	0.747870
	Zn217	Zn	0.498008	-0.002963	0.247899
	Zn218	Zn	0.749431	0.496898	-0.003511
	Zn219	Zn	0.248773	0.497343	-0.003545
	Zn220	Zn	-0.001787	0.747475	0.496500
	Zn221	Zn	-0.000859	0.246158	0.496702
	Zn222	Zn	-0.000494	0.496312	0.745827
	Zn223	Zn	-0.000352	0.497203	0.246320
	Zn224	Zn	0.499458	0.747261	-0.001776
	Zn225	Zn	0.499253	0.248180	-0.002442
	Zn226	Zn	0.748199	-0.003005	0.498198
	Zn227	Zn	0.248496	-0.003597	0.498213
	N228	N	0.412478	0.960301	0.677570
	N229	N	0.584343	0.034796	0.675673
	N230	N	0.583790	0.959712	0.320049
	N231	N	0.411354	0.033709	0.318503
	N232	N	0.677659	0.411842	0.959749
	N233	N	0.678918	0.583675	0.033590
	N234	N	0.319797	0.584297	0.960209
	N235	N	0.321516	0.412664	0.034312
	N236	N	0.961643	0.676714	0.409939
	N237	N	0.036058	0.674705	0.581147
	N238	N	0.961923	0.318461	0.581616
	N239	N	0.036188	0.317427	0.409990
	N240	N	0.961995	0.410911	0.674616
	N241	N	0.036443	0.581342	0.673547
	N242	N	0.961904	0.583347	0.317296
	N243	N	0.037276	0.412034	0.318665
	N244	N	0.413250	0.676556	0.960927
	N245	N	0.584216	0.674482	0.035298
	N246	N	0.584930	0.319367	0.960172
	N247	N	0.413593	0.319658	0.034354
	N248	N	0.676904	0.959975	0.412403
	N249	N	0.676681	0.034225	0.583554
	N250	N	0.320920	0.958777	0.583249
	N251	N	0.319297	0.033596	0.411852
	N252	N	0.914417	0.459730	0.174682
	N253	N	0.085867	0.534167	0.175219
	N254	N	0.085431	0.459548	0.817754
	N255	N	0.914149	0.533839	0.817685
	N256	N	0.178397	0.909695	0.460430
	N257	N	0.175808	0.080999	0.534843
	N258	N	0.818242	0.084252	0.460828
	N259	N	0.820599	0.911770	0.534667
	N260	N	0.462085	0.176863	0.911514
	N261	N	0.536503	0.175528	0.082748
	N262	N	0.461885	0.818348	0.084241
	N263	N	0.536636	0.819376	0.912910
	N264	N	0.461520	0.911618	0.176178
	N265	N	0.535658	0.083112	0.176593
	N266	N	0.462048	0.084437	0.818590
	N267	N	0.536892	0.913186	0.820615
	N268	N	0.912720	0.175572	0.459974
	N269	N	0.083565	0.173524	0.534653
	N270	N	0.083393	0.819258	0.458921
	N271	N	0.912269	0.818646	0.533768
	N272	N	0.179016	0.460354	0.909489
	N273	N	0.176617	0.534489	0.081109
	N274	N	0.821956	0.459260	0.081571
	N275	N	0.820448	0.533707	0.909886
	O276	O	1.073460	0.973106	0.055784
	H277	H	1.070856	0.970174	0.065349
	H278	H	1.065272	0.961990	0.065411
	O279	O	0.431788	0.502487	0.542599
	H280	H	0.418984	0.509589	0.527631
	H281	H	0.434313	0.516048	0.548118
	O282	O	0.025617	0.020232	0.036582
	H283	H	0.024444	0.016195	0.038396
	H284	H	0.025113	0.034120	0.036319
	O285	O	0.474346	0.510674	0.527753
	H286	H	0.459327	0.518881	0.521277
	H287	H	0.472610	0.504609	0.530472
	O288	O	-0.010193	-0.053161	0.059881
	H289	H	-0.008941	-0.048638	0.065568
	H290	H	-0.013889	-0.058335	0.062322
	O291	O	0.011916	0.947406	-0.031255
	H292	H	0.008445	0.946663	-0.021637
	H293	H	0.023003	0.949708	-0.038006
	O294	O	0.063252	0.976194	-0.022793
	H295	H	0.064605	0.972763	-0.011495
	H296	H	0.066694	0.976917	-0.035042
	O297	O	0.525384	0.482814	0.548256
	H298	H	0.531697	0.487744	0.546217
	H299	H	0.525250	0.485753	0.563202
	O300	O	0.508706	0.566062	0.492180
	H301	H	0.512085	0.563070	0.481723
	H302	H	0.515614	0.572115	0.485510
	O303	O	0.981113	0.016226	1.053997
	H304	H	0.984518	0.012579	1.062895
	H305	H	0.976313	0.015106	1.058233
	O306	O	0.005782	0.973163	0.964680
	H307	H	0.007221	0.970463	0.966375
	H308	H	-0.002994	0.977208	0.960668
	O309	O	-0.054124	0.927114	1.019364
	H310	H	-0.054974	0.925933	1.024257
	H311	H	-0.067086	0.922437	1.016341
	O312	O	-0.001577	-0.006559	0.974479
	H313	H	0.013232	-0.007909	0.982713
	H314	H	-0.002567	-0.007901	0.974407
	O315	O	0.483487	0.445618	0.505399
	H316	H	0.479411	0.444645	0.504390
	H317	H	0.480698	0.449298	0.510582
	O318	O	-0.000627	0.032880	0.986808
	H319	H	-0.003730	0.042960	0.979296
	H320	H	-0.001934	0.035118	0.981116
	O321	O	0.496985	0.494549	0.465287
	H322	H	0.490088	0.492497	0.459383
	H323	H	0.500113	0.491686	0.474136
	O324	O	1.068969	-0.044351	0.958952
	H325	H	1.078467	-0.050968	0.956173
	H326	H	1.064208	-0.040575	0.963850
	O327	O	1.012429	0.957443	0.930352
	H328	H	1.020877	0.951140	0.929102
	H329	H	1.005414	0.960178	0.933224
	O330	O	0.542774	0.482513	0.469194
	H331	H	0.545546	0.480477	0.478491
	H332	H	0.543201	0.477247	0.463273
	O333	O	0.559449	0.441479	0.476762
	H334	H	0.569362	0.436261	0.480747
	H335	H	0.562785	0.438541	0.476919
	O336	O	0.460199	0.449441	0.467667
	H337	H	0.456608	0.442347	0.468546
	H338	H	0.466790	0.448724	0.477665
	O339	O	0.496991	0.454043	0.532820
	H340	H	0.510028	0.448852	0.533342
	H341	H	0.498343	0.452158	0.535347
	O342	O	0.522292	0.552124	0.529984
	H343	H	0.519564	0.554382	0.537910
	H344	H	0.523574	0.550472	0.526894
	O345	O	0.508406	0.496157	0.489118
	H346	H	0.497168	0.494995	0.493445
	H347	H	0.504512	0.497123	0.480478
