data_Molecule from HDF5

_cell_length_a		16.352078
_cell_length_b		16.291388
_cell_length_c		16.305184
_cell_angle_alpha	90.139442
_cell_angle_beta	90.268232
_cell_angle_gamma	90.350231
_symmetry_space_group_name_H-M	'P 1'
_symmetry_Int_Tables_number		1

loop_
	_symmetry_equiv_pos_as_xyz
	x,y,z

loop_
	_atom_site_label
	_atom_site_type_symbol
	_atom_site_fract_x
	_atom_site_fract_y
	_atom_site_fract_z
	H0	H	0.400874	0.836142	0.714834
	H1	H	0.602440	0.162915	0.715400
	H2	H	0.598723	0.837131	0.283961
	H3	H	0.400699	0.163264	0.283404
	H4	H	0.717481	0.401021	0.836218
	H5	H	0.721330	0.601171	0.162493
	H6	H	0.285530	0.600492	0.838145
	H7	H	0.283317	0.394514	0.160394
	H8	H	0.839134	0.711769	0.401313
	H9	H	0.163455	0.716535	0.602585
	H10	H	0.840047	0.280204	0.601029
	H11	H	0.163064	0.281588	0.399397
	H12	H	0.840243	0.397274	0.716943
	H13	H	0.163971	0.601073	0.716940
	H14	H	0.840145	0.597771	0.282964
	H15	H	0.163168	0.396141	0.282144
	H16	H	0.405077	0.714150	0.837109
	H17	H	0.606614	0.718328	0.161997
	H18	H	0.601770	0.284165	0.836403
	H19	H	0.401819	0.281354	0.161374
	H20	H	0.714814	0.836381	0.399741
	H21	H	0.722430	0.160373	0.604180
	H22	H	0.284396	0.836697	0.598619
	H23	H	0.283622	0.162421	0.398206
	H24	H	0.899589	0.336735	0.215414
	H25	H	0.106040	0.660464	0.219044
	H26	H	0.104352	0.337994	0.780475
	H27	H	0.905050	0.662952	0.784367
	H28	H	0.216537	0.896821	0.338303
	H29	H	0.220880	0.103060	0.660801
	H30	H	0.782579	0.099111	0.338791
	H31	H	0.782680	0.895364	0.662402
	H32	H	0.341995	0.217287	0.895758
	H33	H	0.663900	0.217417	0.101680
	H34	H	0.342133	0.779887	0.099242
	H35	H	0.666360	0.786303	0.900635
	H36	H	0.340021	0.896654	0.215617
	H37	H	0.662534	0.104945	0.220438
	H38	H	0.340298	0.100489	0.782300
	H39	H	0.664481	0.898970	0.782073
	H40	H	0.895235	0.217626	0.339538
	H41	H	0.106109	0.219529	0.660291
	H42	H	0.098038	0.783605	0.337763
	H43	H	0.901076	0.782031	0.663570
	H44	H	0.222214	0.339027	0.894541
	H45	H	0.223089	0.660133	0.104330
	H46	H	0.784384	0.338170	0.099358
	H47	H	0.788011	0.663217	0.898542
	H48	H	0.407336	0.113981	0.587923
	H49	H	0.588159	0.883628	0.594636
	H50	H	0.583934	0.111602	0.410970
	H51	H	0.406270	0.880272	0.396802
	H52	H	0.600933	0.407440	0.117618
	H53	H	0.599932	0.586678	0.884853
	H54	H	0.410855	0.588885	0.115739
	H55	H	0.407745	0.417011	0.886286
	H56	H	0.114264	0.587442	0.415553
	H57	H	0.883732	0.600074	0.590973
	H58	H	0.110015	0.418273	0.582941
	H59	H	0.887275	0.405674	0.410073
	H60	H	0.119193	0.412326	0.601245
	H61	H	0.890789	0.585329	0.584834
	H62	H	0.118772	0.588087	0.401302
	H63	H	0.887692	0.410530	0.408829
	H64	H	0.415990	0.588184	0.113617
	H65	H	0.589819	0.594485	0.885985
	H66	H	0.594150	0.415595	0.112068
	H67	H	0.421120	0.409755	0.888059
	H68	H	0.599402	0.114329	0.419419
	H69	H	0.589153	0.886612	0.586440
	H70	H	0.408922	0.117127	0.594802
	H71	H	0.418451	0.889420	0.410007
	H72	H	0.910157	0.615798	0.091384
	H73	H	0.096023	0.383634	0.088286
	H74	H	0.091137	0.611764	0.914099
	H75	H	0.899467	0.381711	0.910254
	H76	H	0.093390	0.898013	0.619084
	H77	H	0.089078	0.089499	0.384891
	H78	H	0.911495	0.088100	0.614756
	H79	H	0.904579	0.905813	0.384112
	H80	H	0.615649	0.093076	0.915016
	H81	H	0.385037	0.094181	0.092803
	H82	H	0.615883	0.913846	0.090687
	H83	H	0.387214	0.903136	0.907826
	H84	H	0.618313	0.911651	0.096481
	H85	H	0.387614	0.091574	0.086651
	H86	H	0.617098	0.084938	0.905721
	H87	H	0.389514	0.908685	0.909456
	H88	H	0.914125	0.087238	0.614593
	H89	H	0.092732	0.090540	0.384371
	H90	H	0.100812	0.914436	0.616527
	H91	H	0.908595	0.906430	0.386326
	H92	H	0.099153	0.616066	0.910957
	H93	H	0.092521	0.383607	0.092508
	H94	H	0.913083	0.616296	0.094983
	H95	H	0.914853	0.382371	0.898456
	H96	H	0.414438	0.113895	0.591515
	H97	H	0.595512	0.882613	0.590874
	H98	H	0.597149	0.119356	0.401620
	H99	H	0.399777	0.885109	0.415070
	H100	H	0.590063	0.404489	0.114041
	H101	H	0.600524	0.598702	0.880328
	H102	H	0.414192	0.593245	0.115631
	H103	H	0.409707	0.402362	0.882039
	H104	H	0.119385	0.600196	0.410199
	H105	H	0.884824	0.586267	0.601453
	H106	H	0.118208	0.399187	0.585355
	H107	H	0.886670	0.407501	0.405986
	H108	H	0.914227	0.614158	0.091139
	H109	H	0.090138	0.385123	0.087618
	H110	H	0.091825	0.614982	0.905603
	H111	H	0.916378	0.389418	0.916372
	H112	H	0.083987	0.911602	0.612565
	H113	H	0.091422	0.087670	0.385298
	H114	H	0.912928	0.090429	0.614137
	H115	H	0.907377	0.902254	0.384424
	H116	H	0.620030	0.096319	0.904270
	H117	H	0.387524	0.087028	0.092716
	H118	H	0.617324	0.907895	0.091496
	H119	H	0.387079	0.907250	0.904461
	C120	C	0.380247	0.007607	0.620930
	C121	C	0.622684	0.991142	0.621613
	C122	C	0.622234	0.007905	0.379829
	C123	C	0.378442	0.992002	0.377502
	C124	C	0.624618	0.378638	0.007571
	C125	C	0.626868	0.623033	0.991406
	C126	C	0.383438	0.620033	0.008088
	C127	C	0.381555	0.377969	0.991538
	C128	C	0.010197	0.620381	0.378957
	C129	C	0.993482	0.621205	0.622601
	C130	C	0.009528	0.378158	0.620849
	C131	C	0.993354	0.377280	0.378055
	C132	C	0.881450	0.508227	0.121435
	C133	C	0.124460	0.490685	0.121335
	C134	C	0.124420	0.507964	0.878429
	C135	C	0.881655	0.492012	0.878681
	C136	C	0.121910	0.877681	0.508866
	C137	C	0.122702	0.120827	0.491041
	C138	C	0.880761	0.118876	0.508045
	C139	C	0.877744	0.875104	0.491992
	C140	C	0.510799	0.121304	0.877899
	C141	C	0.493330	0.122038	0.122045
	C142	C	0.510732	0.879361	0.121713
	C143	C	0.494980	0.877705	0.877730
	C144	C	0.381052	0.885069	0.676970
	C145	C	0.622551	0.113764	0.677821
	C146	C	0.619285	0.885610	0.322736
	C147	C	0.380689	0.114627	0.321810
	C148	C	0.680058	0.380526	0.885181
	C149	C	0.683454	0.621546	0.113669
	C150	C	0.325200	0.619735	0.886332
	C151	C	0.323113	0.376369	0.112591
	C152	C	0.887906	0.674635	0.380590
	C153	C	0.115042	0.678032	0.621542
	C154	C	0.888375	0.319670	0.620521
	C155	C	0.114478	0.319571	0.378812
	C156	C	0.888482	0.377743	0.678325
	C157	C	0.115454	0.620810	0.678763
	C158	C	0.888774	0.618198	0.321449
	C159	C	0.114811	0.377100	0.320981
	C160	C	0.384837	0.676009	0.885571
	C161	C	0.626108	0.679632	0.113492
	C162	C	0.622776	0.321986	0.885418
	C163	C	0.382069	0.319956	0.112835
	C164	C	0.676975	0.885316	0.380418
	C165	C	0.681689	0.112693	0.621891
	C166	C	0.323064	0.885227	0.619225
	C167	C	0.322232	0.114125	0.378913
	C168	C	0.881037	0.385552	0.177142
	C169	C	0.125435	0.611985	0.180050
	C170	C	0.124338	0.386542	0.819506
	C171	C	0.884233	0.614346	0.822154
	C172	C	0.177972	0.877837	0.386691
	C173	C	0.181322	0.121749	0.612759
	C174	C	0.821337	0.118797	0.387290
	C175	C	0.821435	0.875782	0.613974
	C176	C	0.389886	0.178361	0.877239
	C177	C	0.615071	0.179495	0.122013
	C178	C	0.389931	0.819670	0.119520
	C179	C	0.617251	0.823181	0.879825
	C180	C	0.388763	0.877863	0.177325
	C181	C	0.614500	0.123281	0.180712
	C182	C	0.389163	0.120175	0.820638
	C183	C	0.616479	0.879476	0.821050
	C184	C	0.877709	0.177789	0.387534
	C185	C	0.124229	0.179844	0.612244
	C186	C	0.119060	0.821496	0.386353
	C187	C	0.880321	0.819481	0.614543
	C188	C	0.182838	0.386915	0.876350
	C189	C	0.183371	0.612109	0.122732
	C190	C	0.823432	0.386394	0.119628
	C191	C	0.825998	0.614346	0.879116
	C192	C	0.403591	0.092805	0.598227
	C193	C	0.598064	0.906390	0.597596
	C194	C	0.599932	0.093136	0.403579
	C195	C	0.401510	0.906976	0.400542
	C196	C	0.601678	0.402182	0.092745
	C197	C	0.603556	0.600045	0.905795
	C198	C	0.406720	0.596820	0.092915
	C199	C	0.405632	0.402798	0.907387
	C200	C	0.095427	0.598365	0.402190
	C201	C	0.908396	0.597406	0.599364
	C202	C	0.093816	0.402728	0.596931
	C203	C	0.909107	0.400934	0.401520
	C204	C	0.905563	0.593282	0.099062
	C205	C	0.099944	0.405971	0.096628
	C206	C	0.100802	0.592337	0.903112
	C207	C	0.903677	0.406755	0.901671
	C208	C	0.099361	0.901181	0.593929
	C209	C	0.098204	0.096386	0.406760
	C210	C	0.905732	0.095157	0.592595
	C211	C	0.900258	0.898112	0.407011
	C212	C	0.595540	0.098215	0.901658
	C213	C	0.408921	0.097942	0.097855
	C214	C	0.595372	0.904116	0.099369
	C215	C	0.410024	0.899804	0.900606
	Zn216	Zn	0.502359	-0.000308	0.749718
	Zn217	Zn	0.501266	0.001131	0.250543
	Zn218	Zn	0.753523	0.500370	-0.000580
	Zn219	Zn	0.252986	0.499317	0.000228
	Zn220	Zn	0.001188	0.748872	0.500904
	Zn221	Zn	0.001157	0.248208	0.499610
	Zn222	Zn	0.002512	0.499616	0.750142
	Zn223	Zn	0.002685	0.498733	0.249551
	Zn224	Zn	0.504489	0.750033	-0.000289
	Zn225	Zn	0.502837	0.249225	-0.000706
	Zn226	Zn	0.751330	-0.002025	0.501020
	Zn227	Zn	0.250638	-0.000635	0.499708
	N228	N	0.415756	0.962157	0.678371
	N229	N	0.586554	0.037100	0.677715
	N230	N	0.585929	0.962946	0.322402
	N231	N	0.414630	0.037756	0.320679
	N232	N	0.681468	0.414766	0.962390
	N233	N	0.684115	0.587290	0.036562
	N234	N	0.324299	0.585583	0.963324
	N235	N	0.322590	0.411512	0.036139
	N236	N	0.964547	0.676141	0.415425
	N237	N	0.038018	0.678298	0.587188
	N238	N	0.964671	0.319913	0.585462
	N239	N	0.037964	0.319447	0.413554
	N240	N	0.964860	0.413304	0.678719
	N241	N	0.038758	0.586038	0.679405
	N242	N	0.966040	0.585248	0.320319
	N243	N	0.038586	0.412025	0.320297
	N244	N	0.420315	0.676460	0.962190
	N245	N	0.591838	0.680590	0.036240
	N246	N	0.589077	0.320740	0.962567
	N247	N	0.417576	0.320803	0.036512
	N248	N	0.678921	0.962270	0.415180
	N249	N	0.682159	0.035284	0.588061
	N250	N	0.322299	0.962327	0.585109
	N251	N	0.320583	0.036649	0.412640
	N252	N	0.916514	0.462345	0.178316
	N253	N	0.089549	0.535376	0.179276
	N254	N	0.088847	0.462824	0.820632
	N255	N	0.918166	0.537259	0.821690
	N256	N	0.179727	0.912226	0.463744
	N257	N	0.180636	0.085838	0.536430
	N258	N	0.823309	0.082795	0.463412
	N259	N	0.819573	0.909392	0.536833
	N260	N	0.466408	0.178953	0.912455
	N261	N	0.538867	0.178907	0.086169
	N262	N	0.466760	0.820386	0.085743
	N263	N	0.540568	0.821870	0.914232
	N264	N	0.464867	0.914243	0.178678
	N265	N	0.537697	0.088500	0.181117
	N266	N	0.465479	0.085185	0.820963
	N267	N	0.539388	0.912713	0.819610
	N268	N	0.914236	0.177598	0.463562
	N269	N	0.088478	0.179364	0.535699
	N270	N	0.085121	0.821211	0.463257
	N271	N	0.914398	0.818529	0.537615
	N272	N	0.183062	0.463348	0.912395
	N273	N	0.183012	0.535432	0.087169
	N274	N	0.823550	0.463503	0.085785
	N275	N	0.824175	0.537305	0.913281
	O276	O	-0.184791	0.067215	-0.078090
	H277	H	-0.190673	0.054100	-0.069875
	H278	H	-0.186349	0.082382	-0.071771
	O279	O	0.125599	-0.149880	-0.120150
	H280	H	0.130319	-0.155540	-0.126801
	H281	H	0.119021	-0.146189	-0.104030
	O282	O	0.999878	0.052383	-0.010337
	H283	H	0.992193	0.050394	-0.018324
	H284	H	0.999579	0.065892	-0.009849
	O285	O	-0.186907	0.938894	-0.050149
	H286	H	-0.190286	0.937751	-0.039463
	H287	H	-0.191006	0.925650	-0.032185
	O288	O	0.581168	0.541171	0.537193
	H289	H	0.589178	0.540709	0.540542
	H290	H	0.586676	0.540150	0.541115
	O291	O	0.650866	0.503981	0.480749
	H292	H	0.642473	0.520181	0.484486
	H293	H	0.662415	0.499009	0.491802
	O294	O	1.131290	0.887249	0.941656
	H295	H	1.134709	0.897992	0.937915
	H296	H	1.128101	0.893484	0.947753
	O297	O	0.107049	0.183914	0.083999
	H298	H	0.111728	0.191794	0.096775
	H299	H	0.104867	0.173193	0.095971
	O300	O	0.391220	0.459458	0.522378
	H301	H	0.390479	0.461336	0.522019
	H302	H	0.398182	0.451379	0.515171
	O303	O	-0.187127	0.853426	1.228248
	H304	H	-0.176156	0.850460	1.224375
	H305	H	-0.188612	0.849685	1.231481
	O306	O	0.397434	0.455515	0.551060
	H307	H	0.384814	0.452153	0.560568
	H308	H	0.407143	0.450490	0.545688
	O309	O	0.982878	0.178661	-0.162618
	H310	H	0.990591	0.187687	-0.166148
	H311	H	0.959012	0.178566	-0.162685
	O312	O	0.026602	0.029608	0.913113
	H313	H	0.035259	0.028956	0.919369
	H314	H	0.017598	0.019238	0.909389
	O315	O	-0.016355	0.983925	0.987761
	H316	H	-0.021331	0.980326	0.987233
	H317	H	-0.022998	0.983791	0.995119
	O318	O	0.347703	0.585497	0.385223
	H319	H	0.351425	0.589483	0.385213
	H320	H	0.321575	0.594531	0.378864
	O321	O	0.526579	0.523358	0.393782
	H322	H	0.527032	0.522714	0.397516
	H323	H	0.525162	0.543880	0.408553
	O324	O	0.659357	0.599558	0.474594
	H325	H	0.653631	0.595421	0.488908
	H326	H	0.675187	0.606536	0.468870
	O327	O	-0.475991	1.490354	1.521858
	H328	H	-0.455803	1.488454	1.521360
	H329	H	-0.472920	1.485623	1.529205
	O330	O	0.444348	0.605676	0.362577
	H331	H	0.424594	0.601259	0.360143
	H332	H	0.446295	0.614037	0.370746
	O333	O	0.036870	0.891998	0.921353
	H334	H	0.028704	0.884761	0.914369
	H335	H	0.040919	0.896026	0.918175
	O336	O	0.944371	1.094988	0.893996
	H337	H	0.951651	1.104559	0.891106
	H338	H	0.943894	1.096515	0.875776
	O339	O	1.122719	1.067978	0.199318
	H340	H	1.125303	1.065936	0.218600
	H341	H	1.124686	1.040367	0.188700
	O342	O	0.912739	0.119331	-0.056129
	H343	H	0.917083	0.118304	-0.064184
	H344	H	0.911633	0.119807	-0.051745
	O345	O	0.417354	0.536599	0.413622
	H346	H	0.432424	0.542251	0.407687
	H347	H	0.422727	0.546444	0.424674
	O348	O	0.431761	0.625833	0.535863
	H349	H	0.432415	0.613959	0.551753
	H350	H	0.423735	0.619343	0.533452
	O351	O	1.019160	1.095587	0.168267
	H352	H	1.028338	1.113310	0.188230
	H353	H	1.034551	1.096031	0.164715
	O354	O	1.014218	0.091715	0.989036
	H355	H	0.996986	0.088027	0.987582
	H356	H	1.011608	0.109844	0.974835
	O357	O	0.471968	0.513943	0.459523
	H358	H	0.477043	0.517952	0.457393
	H359	H	0.474510	0.513750	0.453116
	O360	O	-0.070472	-0.128765	-0.131950
	H361	H	-0.045699	-0.122547	-0.116551
	H362	H	-0.064633	-0.144989	-0.136942
	O363	O	0.570299	0.495980	0.501522
	H364	H	0.585890	0.499844	0.482275
	H365	H	0.569048	0.495672	0.502888
	O366	O	0.491796	0.358108	0.495117
	H367	H	0.497645	0.354591	0.475369
	H368	H	0.505837	0.367858	0.495511
	O369	O	1.164764	-0.011039	-0.073786
	H370	H	1.165230	-0.025058	-0.070900
	H371	H	1.169732	-0.000372	-0.088712
	O372	O	0.514954	0.434789	0.400710
	H373	H	0.523799	0.435968	0.392189
	H374	H	0.518363	0.427749	0.394032
	O375	O	0.436281	0.417173	0.597802
	H376	H	0.431529	0.396579	0.609868
	H377	H	0.422617	0.410066	0.588012
	O378	O	0.551895	0.466933	0.599196
	H379	H	0.552256	0.456887	0.583207
	H380	H	0.559194	0.469509	0.595564
	O381	O	0.491316	0.470228	0.602758
	H382	H	0.500718	0.474564	0.615077
	H383	H	0.478315	0.470694	0.602290
	O384	O	-0.036472	0.983647	0.019488
	H385	H	-0.021932	0.977085	0.018333
	H386	H	-0.041433	0.992027	0.023484
	O387	O	1.071667	-0.049710	1.127799
	H388	H	1.084892	-0.046958	1.108590
	H389	H	1.069369	-0.054068	1.129032
	O390	O	-0.068438	0.895790	0.037659
	H391	H	-0.042229	0.905582	0.034172
	H392	H	-0.078845	0.889921	0.048239
	O393	O	1.094456	0.853332	0.125618
	H394	H	1.081686	0.857257	0.116309
	H395	H	1.109276	0.844652	0.119516
	O396	O	0.392974	0.505388	0.544633
	H397	H	0.380393	0.494693	0.557345
	H398	H	0.384329	0.511257	0.548287
	O399	O	-0.096365	1.007544	1.148306
	H400	H	-0.089674	1.000126	1.162601
	H401	H	-0.098212	1.013765	1.153427
	O402	O	1.072895	1.139923	1.026665
	H403	H	1.083288	1.154798	1.031034
	H404	H	1.062540	1.133762	1.035448
	O405	O	0.645110	0.489118	0.595473
	H406	H	0.644272	0.494091	0.585406
	H407	H	0.634792	0.478403	0.597793
