data_Molecule from HDF5

_cell_length_a		16.741431
_cell_length_b		16.492223
_cell_length_c		16.569843
_cell_angle_alpha	89.788067
_cell_angle_beta	90.060561
_cell_angle_gamma	89.925294
_symmetry_space_group_name_H-M	'P 1'
_symmetry_Int_Tables_number		1

loop_
	_symmetry_equiv_pos_as_xyz
	x,y,z

loop_
	_atom_site_label
	_atom_site_type_symbol
	_atom_site_fract_x
	_atom_site_fract_y
	_atom_site_fract_z
	H0	H	0.419546	0.837827	0.707193
	H1	H	0.623107	0.153258	0.706397
	H2	H	0.623152	0.838193	0.269312
	H3	H	0.413162	0.150501	0.263539
	H4	H	0.740536	0.389312	0.831884
	H5	H	0.741450	0.600167	0.143280
	H6	H	0.295391	0.604118	0.833977
	H7	H	0.296936	0.386375	0.142959
	H8	H	0.865784	0.717130	0.383244
	H9	H	0.175502	0.715893	0.591851
	H10	H	0.865771	0.272957	0.592971
	H11	H	0.174843	0.271757	0.381398
	H12	H	0.866464	0.388478	0.709568
	H13	H	0.174895	0.600305	0.710372
	H14	H	0.866402	0.602160	0.264685
	H15	H	0.174022	0.387416	0.263430
	H16	H	0.416097	0.715163	0.832018
	H17	H	0.622921	0.713866	0.144252
	H18	H	0.622379	0.275994	0.830807
	H19	H	0.415570	0.273004	0.144030
	H20	H	0.739829	0.838341	0.384876
	H21	H	0.742511	0.151199	0.594499
	H22	H	0.302261	0.837629	0.592082
	H23	H	0.295506	0.149555	0.378147
	H24	H	0.916289	0.338441	0.209610
	H25	H	0.121357	0.653075	0.205155
	H26	H	0.123739	0.337026	0.769369
	H27	H	0.919017	0.653400	0.769432
	H28	H	0.243432	0.886640	0.333426
	H29	H	0.241507	0.099985	0.643250
	H30	H	0.797114	0.101902	0.332887
	H31	H	0.800527	0.888358	0.645715
	H32	H	0.364519	0.215681	0.884596
	H33	H	0.673990	0.218195	0.095232
	H34	H	0.364785	0.773954	0.091633
	H35	H	0.674258	0.771963	0.881081
	H36	H	0.366553	0.886100	0.211846
	H37	H	0.673497	0.101522	0.212509
	H38	H	0.364472	0.099796	0.767566
	H39	H	0.674451	0.889904	0.766186
	H40	H	0.915539	0.215879	0.330823
	H41	H	0.122915	0.213200	0.644980
	H42	H	0.123658	0.775112	0.330973
	H43	H	0.919025	0.775869	0.645678
	H44	H	0.241897	0.338427	0.882154
	H45	H	0.240191	0.651940	0.092476
	H46	H	0.800460	0.337964	0.092762
	H47	H	0.801175	0.652923	0.883483
	H48	H	0.425776	0.109272	0.574687
	H49	H	0.608283	0.883118	0.576621
	H50	H	0.597581	0.102068	0.404655
	H51	H	0.432877	0.884127	0.400995
	H52	H	0.613013	0.407108	0.100075
	H53	H	0.612666	0.574721	0.877050
	H54	H	0.432769	0.581578	0.099801
	H55	H	0.431173	0.406505	0.875895
	H56	H	0.131924	0.587138	0.400784
	H57	H	0.909241	0.586475	0.575716
	H58	H	0.130464	0.406313	0.575467
	H59	H	0.911349	0.408962	0.399136
	H60	H	0.131644	0.406789	0.581119
	H61	H	0.910728	0.581904	0.576483
	H62	H	0.130057	0.580492	0.398009
	H63	H	0.908494	0.405734	0.396493
	H64	H	0.428501	0.587334	0.102885
	H65	H	0.602260	0.587167	0.876692
	H66	H	0.608304	0.408267	0.099241
	H67	H	0.428997	0.410402	0.876707
	H68	H	0.618126	0.108749	0.408588
	H69	H	0.613359	0.881943	0.576722
	H70	H	0.429594	0.109830	0.580232
	H71	H	0.430831	0.883173	0.402783
	H72	H	0.930734	0.607848	0.075134
	H73	H	0.109505	0.382124	0.078036
	H74	H	0.109549	0.606920	0.901337
	H75	H	0.934405	0.383816	0.899802
	H76	H	0.113101	0.904941	0.600934
	H77	H	0.111266	0.079257	0.376587
	H78	H	0.931666	0.080280	0.598687
	H79	H	0.929745	0.914058	0.379120
	H80	H	0.629750	0.086823	0.904279
	H81	H	0.408543	0.080532	0.081277
	H82	H	0.627222	0.909767	0.074362
	H83	H	0.408158	0.899940	0.900873
	H84	H	0.631616	0.906219	0.083098
	H85	H	0.409811	0.087572	0.072211
	H86	H	0.629586	0.078360	0.894230
	H87	H	0.412017	0.911038	0.900912
	H88	H	0.932555	0.084740	0.599001
	H89	H	0.104700	0.082732	0.376849
	H90	H	0.110294	0.910089	0.598614
	H91	H	0.934405	0.901646	0.375741
	H92	H	0.109725	0.608539	0.897519
	H93	H	0.104640	0.383970	0.074491
	H94	H	0.928037	0.608399	0.075252
	H95	H	0.926094	0.381907	0.902799
	H96	H	0.432468	0.107187	0.574804
	H97	H	0.610743	0.881232	0.581187
	H98	H	0.609004	0.111429	0.388585
	H99	H	0.431039	0.882726	0.399933
	H100	H	0.609395	0.404211	0.101193
	H101	H	0.617549	0.589498	0.871607
	H102	H	0.425587	0.580371	0.100910
	H103	H	0.433337	0.409254	0.878524
	H104	H	0.133178	0.585503	0.393654
	H105	H	0.908968	0.584827	0.580351
	H106	H	0.133137	0.401590	0.578581
	H107	H	0.910517	0.404891	0.400673
	H108	H	0.929769	0.608508	0.077719
	H109	H	0.110368	0.383673	0.072132
	H110	H	0.106289	0.606052	0.899004
	H111	H	0.928277	0.379597	0.894236
	H112	H	0.107112	0.905009	0.599260
	H113	H	0.110342	0.086541	0.374281
	H114	H	0.928423	0.083102	0.600299
	H115	H	0.921517	0.905240	0.372885
	H116	H	0.634613	0.089911	0.892548
	H117	H	0.413533	0.076841	0.071564
	H118	H	0.631187	0.900395	0.074730
	H119	H	0.406945	0.906461	0.891547
	C120	C	0.398924	0.004449	0.608667
	C121	C	0.642032	0.986528	0.610129
	C122	C	0.640158	0.003601	0.368673
	C123	C	0.398219	0.986305	0.366644
	C124	C	0.641886	0.373580	-0.003304
	C125	C	0.641653	0.615733	0.978744
	C126	C	0.397652	0.615936	-0.002505
	C127	C	0.399225	0.375452	0.980109
	C128	C	0.029292	0.617158	0.365711
	C129	C	1.012089	0.616614	0.609298
	C130	C	0.029398	0.372837	0.609844
	C131	C	1.012236	0.373430	0.365901
	C132	C	0.898810	0.503678	0.108425
	C133	C	0.140014	0.486899	0.107417
	C134	C	0.141208	0.503565	0.866885
	C135	C	0.898869	0.486148	0.866530
	C136	C	0.141560	0.873937	0.496539
	C137	C	0.141252	0.115583	0.479162
	C138	C	0.899020	0.115596	0.496187
	C139	C	0.898574	0.874253	0.480000
	C140	C	0.528639	0.117084	0.865626
	C141	C	0.512015	0.115357	0.108956
	C142	C	0.528131	0.872669	0.109753
	C143	C	0.511518	0.873590	0.865951
	C144	C	0.399447	0.885253	0.667769
	C145	C	0.642669	0.105713	0.667972
	C146	C	0.642250	0.885253	0.309158
	C147	C	0.394940	0.103566	0.304445
	C148	C	0.700662	0.371309	0.878916
	C149	C	0.700944	0.617757	0.096719
	C150	C	0.336582	0.620898	0.880427
	C151	C	0.338073	0.370134	0.096748
	C152	C	0.912362	0.677348	0.363973
	C153	C	0.129053	0.675928	0.610649
	C154	C	0.912538	0.312905	0.611546
	C155	C	0.128289	0.312335	0.363240
	C156	C	0.912760	0.370433	0.669587
	C157	C	0.128603	0.618416	0.669495
	C158	C	0.912867	0.620250	0.305249
	C159	C	0.128043	0.369944	0.304663
	C160	C	0.396695	0.675739	0.879245
	C161	C	0.642409	0.674628	0.097150
	C162	C	0.642139	0.314811	0.878344
	C163	C	0.396945	0.313655	0.097229
	C164	C	0.699957	0.885538	0.366484
	C165	C	0.701859	0.104473	0.612338
	C166	C	0.341347	0.885144	0.610646
	C167	C	0.336645	0.103298	0.361375
	C168	C	0.897701	0.385308	0.168852
	C169	C	0.141023	0.605473	0.166365
	C170	C	0.143029	0.385056	0.807769
	C171	C	0.898975	0.605579	0.807993
	C172	C	0.202120	0.869874	0.379473
	C173	C	0.201021	0.117888	0.596642
	C174	C	0.838061	0.119346	0.379204
	C175	C	0.840401	0.871212	0.598281
	C176	C	0.411205	0.176041	0.865303
	C177	C	0.627616	0.177375	0.113122
	C178	C	0.411663	0.813019	0.111150
	C179	C	0.627726	0.812728	0.863385
	C180	C	0.412436	0.869135	0.170699
	C181	C	0.627557	0.119262	0.171242
	C182	C	0.411219	0.118276	0.807293
	C183	C	0.627847	0.871322	0.805958
	C184	C	0.897211	0.175668	0.378151
	C185	C	0.142183	0.174270	0.597447
	C186	C	0.142625	0.814314	0.378509
	C187	C	0.899266	0.814939	0.598497
	C188	C	0.201630	0.385654	0.864317
	C189	C	0.199537	0.605148	0.109935
	C190	C	0.840277	0.385014	0.110761
	C191	C	0.840423	0.605238	0.864679
	C192	C	0.422613	0.087303	0.583632
	C193	C	0.617696	0.903573	0.585408
	C194	C	0.615174	0.085981	0.393491
	C195	C	0.424031	0.904525	0.393642
	C196	C	0.617333	0.399032	0.078841
	C197	C	0.617603	0.590964	0.896526
	C198	C	0.422093	0.590425	0.079651
	C199	C	0.424221	0.401473	0.898296
	C200	C	0.110527	0.591802	0.390590
	C201	C	0.930761	0.591648	0.584372
	C202	C	0.110634	0.397746	0.585171
	C203	C	0.931227	0.399249	0.391484
	C204	C	0.922647	0.586458	0.083267
	C205	C	0.115299	0.404512	0.082080
	C206	C	0.115886	0.585820	0.892252
	C207	C	0.922820	0.403390	0.891570
	C208	C	0.117179	0.899418	0.578310
	C209	C	0.116203	0.090131	0.397098
	C210	C	0.923839	0.090017	0.578020
	C211	C	0.922072	0.899405	0.397460
	C212	C	0.610191	0.092181	0.890127
	C213	C	0.431709	0.089087	0.082612
	C214	C	0.608966	0.898161	0.084472
	C215	C	0.430112	0.898741	0.890564
	Zn216	Zn	0.520216	-0.003775	0.736622
	Zn217	Zn	0.519675	-0.005801	0.239343
	Zn218	Zn	0.770129	0.494828	-0.012805
	Zn219	Zn	0.269688	0.495017	-0.011970
	Zn220	Zn	0.020450	0.745910	0.487912
	Zn221	Zn	0.020331	0.244181	0.487607
	Zn222	Zn	0.020235	0.494662	0.738539
	Zn223	Zn	0.020210	0.495257	0.236708
	Zn224	Zn	0.519807	0.743850	-0.012229
	Zn225	Zn	0.519803	0.245739	-0.012215
	Zn226	Zn	0.769425	-0.005295	0.489132
	Zn227	Zn	0.270468	-0.005452	0.487675
	N228	N	0.434297	0.960532	0.666899
	N229	N	0.606202	0.031224	0.666715
	N230	N	0.605785	0.959859	0.310169
	N231	N	0.432215	0.029536	0.307468
	N232	N	0.700786	0.406998	0.953621
	N233	N	0.700879	0.582189	0.022051
	N234	N	0.336833	0.584731	0.955051
	N235	N	0.339323	0.407798	0.022783
	N236	N	0.985873	0.675893	0.400862
	N237	N	0.055507	0.675026	0.574202
	N238	N	0.986188	0.314046	0.575194
	N239	N	0.055248	0.314448	0.400548
	N240	N	0.986486	0.406775	0.669040
	N241	N	0.054875	0.582289	0.668777
	N242	N	0.986594	0.583750	0.306092
	N243	N	0.054816	0.407445	0.306239
	N244	N	0.433909	0.673120	0.953148
	N245	N	0.606177	0.673624	0.022706
	N246	N	0.606386	0.315741	0.952974
	N247	N	0.434246	0.316692	0.023566
	N248	N	0.699292	0.960317	0.402376
	N249	N	0.701633	0.029158	0.577188
	N250	N	0.340574	0.960412	0.574921
	N251	N	0.338664	0.029215	0.399487
	N252	N	0.933230	0.460325	0.167692
	N253	N	0.104661	0.530902	0.165002
	N254	N	0.106222	0.459486	0.809027
	N255	N	0.934289	0.530395	0.808761
	N256	N	0.201844	0.906124	0.453908
	N257	N	0.200985	0.082526	0.521739
	N258	N	0.838794	0.082758	0.453636
	N259	N	0.839869	0.907406	0.523628
	N260	N	0.485399	0.175654	0.900696
	N261	N	0.554895	0.174993	0.074927
	N262	N	0.484643	0.815165	0.073747
	N263	N	0.554269	0.813931	0.899984
	N264	N	0.486014	0.905525	0.170147
	N265	N	0.554614	0.081266	0.168925
	N266	N	0.485283	0.082478	0.807371
	N267	N	0.554546	0.908762	0.807549
	N268	N	0.934256	0.173746	0.451972
	N269	N	0.105960	0.173099	0.523184
	N270	N	0.105622	0.816662	0.452309
	N271	N	0.934588	0.816324	0.523707
	N272	N	0.200675	0.460520	0.900329
	N273	N	0.199369	0.530144	0.074295
	N274	N	0.840522	0.459799	0.074312
	N275	N	0.839796	0.529775	0.900141
	O276	O	-0.093682	1.007244	0.100996
	H277	H	-0.090800	0.998489	0.082456
	H278	H	-0.104581	0.997797	0.116478
	O279	O	0.738285	0.471839	0.272353
	H280	H	0.741113	0.448150	0.269679
	H281	H	0.754974	0.451287	0.259016
	O282	O	1.082899	0.142273	0.942858
	H283	H	1.078839	0.127862	0.954704
	H284	H	1.092037	0.147652	0.935398
	O285	O	0.189021	0.961525	0.842526
	H286	H	0.189381	0.940426	0.856121
	H287	H	0.214540	0.956576	0.818797
	O288	O	0.299391	0.531359	0.323397
	H289	H	0.296560	0.529878	0.318246
	H290	H	0.299966	0.537901	0.316580
	O291	O	0.487878	0.406661	0.279040
	H292	H	0.476990	0.415507	0.272901
	H293	H	0.487324	0.409753	0.297013
	O294	O	0.595373	0.442501	0.562542
	H295	H	0.604275	0.439350	0.572292
	H296	H	0.609060	0.431320	0.572239
	O297	O	0.608437	0.290613	0.442865
	H298	H	0.614848	0.287610	0.452959
	H299	H	0.610037	0.294607	0.451366
	O300	O	-0.264352	0.282918	0.699694
	H301	H	-0.255009	0.289658	0.711119
	H302	H	-0.258907	0.277274	0.705207
	O303	O	0.302741	0.468549	0.712749
	H304	H	0.277037	0.467315	0.726866
	H305	H	0.298183	0.447976	0.700851
	O306	O	0.303713	0.705665	0.272176
	H307	H	0.320710	0.679059	0.273934
	H308	H	0.293401	0.707471	0.284744
	O309	O	0.682718	0.696217	0.692101
	H310	H	0.667658	0.720067	0.711325
	H311	H	0.670197	0.698683	0.686665
	O312	O	0.500300	0.664512	0.552529
	H313	H	0.493286	0.652479	0.559067
	H314	H	0.498638	0.667776	0.561674
	O315	O	0.798996	1.023802	0.770996
	H316	H	0.776159	1.027489	0.743247
	H317	H	0.814336	1.038837	0.770024
	O318	O	0.328319	0.440895	0.559649
	H319	H	0.327593	0.442757	0.548174
	H320	H	0.320772	0.457417	0.567975
	O321	O	-0.114477	1.123196	1.102620
	H322	H	-0.121112	1.136250	1.096852
	H323	H	-0.108184	1.120136	1.098754
	O324	O	0.859187	1.210870	-0.010531
	H325	H	0.865023	1.214967	-0.016568
	H326	H	0.855828	1.212166	-0.013328
	O327	O	0.243263	-0.065716	1.027360
	H328	H	0.245830	-0.075443	1.035513
	H329	H	0.240435	-0.069788	1.024226
	O330	O	0.512972	0.481927	0.455735
	H331	H	0.525875	0.486691	0.465290
	H332	H	0.513367	0.487676	0.464163
	O333	O	0.240528	0.752008	0.741364
	H334	H	0.234922	0.751255	0.766871
	H335	H	0.259252	0.731379	0.746203
	O336	O	0.480124	0.598740	0.269405
	H337	H	0.474932	0.606895	0.257320
	H338	H	0.473472	0.601324	0.276459
	O339	O	0.949670	0.028455	1.082823
	H340	H	0.960555	0.031038	1.094394
	H341	H	0.955742	0.017343	1.094138
	O342	O	0.203547	-0.185166	0.167167
	H343	H	0.200384	-0.189502	0.164690
	H344	H	0.199986	-0.172571	0.177594
	O345	O	0.241468	1.007096	0.860744
	H346	H	0.263423	0.995282	0.840587
	H347	H	0.236753	0.971138	0.876358
	O348	O	0.420258	0.327225	0.360804
	H349	H	0.438951	0.331625	0.383535
	H350	H	0.427529	0.340874	0.371039
	O351	O	0.563223	0.347166	0.488896
	H352	H	0.586498	0.339211	0.492475
	H353	H	0.563295	0.343346	0.489932
	O354	O	0.009079	0.072728	0.852083
	H355	H	0.026458	0.078957	0.850030
	H356	H	-0.006311	0.071617	0.857949
	O357	O	0.747347	0.522939	0.710011
	H358	H	0.766626	0.541316	0.728404
	H359	H	0.752708	0.557079	0.714690
	O360	O	0.400039	0.426076	0.507382
	H361	H	0.414816	0.447126	0.502332
	H362	H	0.404060	0.411235	0.499590
	O363	O	0.000614	-0.221033	-0.135619
	H364	H	-0.004485	-0.223571	-0.127074
	H365	H	0.012038	-0.229007	-0.121249
	O366	O	0.430059	0.545451	0.509952
	H367	H	0.431562	0.544431	0.501661
	H368	H	0.442114	0.559669	0.519906
	O369	O	0.819196	-0.073627	0.161348
	H370	H	0.804720	-0.079186	0.170753
	H371	H	0.809611	-0.088193	0.176516
	O372	O	1.050889	0.905134	0.138188
	H373	H	1.054524	0.915301	0.154323
	H374	H	1.049572	0.904511	0.135110
	O375	O	1.241909	0.017035	0.207328
	H376	H	1.268815	0.022047	0.225928
	H377	H	1.244254	0.024322	0.200130
	O378	O	-0.093509	-0.089726	0.790720
	H379	H	-0.069419	-0.099548	0.791329
	H380	H	-0.091717	-0.054846	0.794555
	O381	O	0.253430	0.768057	0.900064
	H382	H	0.237415	0.761022	0.916742
	H383	H	0.256399	0.748287	0.921152
	O384	O	1.203018	0.133149	0.854827
	H385	H	1.191607	0.131689	0.862175
	H386	H	1.191243	0.118886	0.860430
	O387	O	1.054742	1.054042	0.028321
	H388	H	1.061076	1.041416	0.025223
	H389	H	1.052768	1.055223	0.035174
	O390	O	0.475827	0.286010	0.702256
	H391	H	0.463660	0.256839	0.731683
	H392	H	0.438043	0.294595	0.692307
	O393	O	0.558177	0.580501	0.284841
	H394	H	0.565178	0.584853	0.291451
	H395	H	0.560027	0.563367	0.280105
	O396	O	0.044714	0.877951	1.057114
	H397	H	0.024893	0.874598	1.056589
	H398	H	0.045951	0.897187	1.056462
	O399	O	-0.175817	0.174999	1.179518
	H400	H	-0.166564	0.160685	1.162410
	H401	H	-0.152571	0.153688	1.167829
	O402	O	0.746568	0.431236	0.536479
	H403	H	0.748482	0.403605	0.534656
	H404	H	0.750683	0.426514	0.550937
	O405	O	0.872491	0.174076	0.994006
	H406	H	0.877552	0.148463	1.004824
	H407	H	0.860467	0.181091	1.001855
	O408	O	0.221057	0.194743	0.187815
	H409	H	0.202215	0.196808	0.171291
	H410	H	0.240824	0.193467	0.201101
	O411	O	0.735556	0.291391	0.514687
	H412	H	0.715805	0.289999	0.486723
	H413	H	0.749739	0.282313	0.496476
	O414	O	0.302772	0.704591	0.456650
	H415	H	0.302621	0.714995	0.452076
	H416	H	0.300354	0.705412	0.455628
	O417	O	0.203566	0.254494	0.728011
	H418	H	0.184282	0.239875	0.738279
	H419	H	0.207506	0.245939	0.699258
	O420	O	-0.014118	0.779404	1.205955
	H421	H	-0.034303	0.793728	1.199134
	H422	H	-0.012732	0.755385	1.239737
	O423	O	0.075134	-0.112785	0.775537
	H424	H	0.048458	-0.129409	0.799650
	H425	H	0.083317	-0.129054	0.757096
	O426	O	0.577235	0.708204	0.460690
	H427	H	0.589111	0.712466	0.471837
	H428	H	0.583990	0.703991	0.465553
	O429	O	1.068796	0.896765	0.893048
	H430	H	1.072232	0.896481	0.895894
	H431	H	1.054411	0.879973	0.901083
	O432	O	0.301514	0.273317	0.517668
	H433	H	0.302396	0.267025	0.512877
	H434	H	0.291812	0.262908	0.501548
	O435	O	-0.190390	0.788675	0.193225
	H436	H	-0.177897	0.800519	0.180609
	H437	H	-0.220941	0.755568	0.227139
	O438	O	-0.146927	0.201815	-0.218450
	H439	H	-0.158712	0.202704	-0.183946
	H440	H	-0.129543	0.190882	-0.227010
	O441	O	0.233272	0.200208	0.023833
	H442	H	0.239672	0.184462	0.019145
	H443	H	0.251545	0.225078	0.028951
	O444	O	0.714794	0.686817	0.296382
	H445	H	0.706297	0.654789	0.312040
	H446	H	0.689401	0.679235	0.318712
	O447	O	-0.187460	0.803292	0.978885
	H448	H	-0.197695	0.808661	0.978396
	H449	H	-0.207717	0.797268	0.987034
	O450	O	0.077306	1.047619	0.798428
	H451	H	0.088933	1.054943	0.799862
	H452	H	0.087167	1.038363	0.783649
	O453	O	-0.044631	-0.111930	1.018361
	H454	H	-0.045116	-0.093571	1.014473
	H455	H	-0.057127	-0.124599	1.038244
	O456	O	0.027016	0.156061	1.200350
	H457	H	0.051724	0.158775	1.204282
	H458	H	0.031605	0.164894	1.210463
	O459	O	0.503896	0.654782	0.662232
	H460	H	0.490689	0.641115	0.677571
	H461	H	0.505730	0.645354	0.663979
	O462	O	0.722317	0.302628	0.281448
	H463	H	0.726251	0.284164	0.264908
	H464	H	0.696558	0.288746	0.272377
	O465	O	0.808201	-0.046766	-0.058324
	H466	H	0.812900	-0.039476	-0.066668
	H467	H	0.813394	-0.042600	-0.065588
	O468	O	0.486400	0.366093	0.507921
	H469	H	0.475178	0.370949	0.509686
	H470	H	0.493480	0.372316	0.511674
	O471	O	0.517961	0.650290	0.412794
	H472	H	0.521730	0.651576	0.413551
	H473	H	0.523508	0.652617	0.407477
	O474	O	0.546479	0.436338	0.603654
	H475	H	0.556105	0.422532	0.611417
	H476	H	0.544102	0.436292	0.601765
	O477	O	0.317736	0.413015	1.384752
	H478	H	0.317326	0.411605	1.403348
	H479	H	0.321867	0.414927	1.382257
	O480	O	0.752801	0.555697	0.431754
	H481	H	0.749672	0.535068	0.446207
	H482	H	0.760164	0.542543	0.422822
	O483	O	0.356266	0.660682	0.685684
	H484	H	0.378125	0.647313	0.676050
	H485	H	0.354488	0.642650	0.681497
	O486	O	0.522373	0.530254	0.517130
	H487	H	0.510884	0.515734	0.523970
	H488	H	0.545690	0.519136	0.516039
	O489	O	0.735097	0.704775	-0.438842
	H490	H	0.748309	0.704003	-0.438922
	H491	H	0.748240	0.715774	-0.426892
