data_Molecule from HDF5

_cell_length_a		16.264402
_cell_length_b		16.436848
_cell_length_c		16.264940
_cell_angle_alpha	89.982586
_cell_angle_beta	90.240839
_cell_angle_gamma	90.095624
_symmetry_space_group_name_H-M	'P 1'
_symmetry_Int_Tables_number		1

loop_
	_symmetry_equiv_pos_as_xyz
	x,y,z

loop_
	_atom_site_label
	_atom_site_type_symbol
	_atom_site_fract_x
	_atom_site_fract_y
	_atom_site_fract_z
	H0	H	0.401078	0.835772	0.720047
	H1	H	0.606490	0.157578	0.722841
	H2	H	0.604722	0.835838	0.285099
	H3	H	0.400272	0.157069	0.282577
	H4	H	0.720567	0.398013	0.840302
	H5	H	0.719783	0.597448	0.166184
	H6	H	0.285965	0.599066	0.841099
	H7	H	0.288049	0.395396	0.165804
	H8	H	0.841428	0.716624	0.399385
	H9	H	0.164864	0.719744	0.607707
	H10	H	0.842549	0.279306	0.607698
	H11	H	0.163938	0.277952	0.399849
	H12	H	0.842280	0.397382	0.720378
	H13	H	0.167219	0.601230	0.721044
	H14	H	0.840530	0.598263	0.286579
	H15	H	0.166771	0.398529	0.289182
	H16	H	0.400552	0.715785	0.841371
	H17	H	0.608414	0.715955	0.164067
	H18	H	0.610177	0.277648	0.841213
	H19	H	0.400556	0.276640	0.163548
	H20	H	0.721256	0.836256	0.401458
	H21	H	0.722259	0.157422	0.606641
	H22	H	0.285229	0.835976	0.602664
	H23	H	0.283758	0.157858	0.398412
	H24	H	0.904126	0.337064	0.219131
	H25	H	0.105528	0.659719	0.221042
	H26	H	0.108439	0.337572	0.785062
	H27	H	0.905639	0.660012	0.786412
	H28	H	0.216084	0.898441	0.338724
	H29	H	0.220589	0.097764	0.664894
	H30	H	0.786713	0.096526	0.340453
	H31	H	0.789092	0.898409	0.666994
	H32	H	0.343415	0.217911	0.896147
	H33	H	0.666713	0.214095	0.105467
	H34	H	0.342038	0.779191	0.103488
	H35	H	0.666365	0.782134	0.902212
	H36	H	0.339373	0.897791	0.215890
	H37	H	0.666127	0.096301	0.220385
	H38	H	0.340207	0.097201	0.785861
	H39	H	0.665874	0.898054	0.787753
	H40	H	0.899044	0.216516	0.340997
	H41	H	0.106537	0.214618	0.665338
	H42	H	0.102676	0.780560	0.340208
	H43	H	0.902559	0.780683	0.665573
	H44	H	0.221551	0.336756	0.903700
	H45	H	0.222089	0.659630	0.103662
	H46	H	0.786574	0.338100	0.103613
	H47	H	0.787782	0.660075	0.901982
	H48	H	0.411701	0.110368	0.592763
	H49	H	0.594471	0.881716	0.598164
	H50	H	0.591061	0.107320	0.420640
	H51	H	0.410418	0.882976	0.409594
	H52	H	0.600710	0.407814	0.118791
	H53	H	0.595625	0.593016	0.885286
	H54	H	0.419323	0.587226	0.116597
	H55	H	0.413318	0.411431	0.889210
	H56	H	0.116319	0.589452	0.419982
	H57	H	0.890678	0.582834	0.597904
	H58	H	0.120359	0.401744	0.591312
	H59	H	0.887442	0.410183	0.409109
	H60	H	0.116941	0.410067	0.590152
	H61	H	0.887035	0.595464	0.597610
	H62	H	0.119018	0.585317	0.408854
	H63	H	0.886136	0.401817	0.411437
	H64	H	0.414872	0.593306	0.120172
	H65	H	0.597670	0.588512	0.887119
	H66	H	0.590397	0.409724	0.114502
	H67	H	0.418008	0.406705	0.889431
	H68	H	0.602557	0.113569	0.410924
	H69	H	0.590812	0.884786	0.593317
	H70	H	0.411261	0.111618	0.593555
	H71	H	0.408586	0.882204	0.410784
	H72	H	0.908352	0.614969	0.096513
	H73	H	0.097032	0.385274	0.091773
	H74	H	0.089247	0.611791	0.907613
	H75	H	0.921510	0.389037	0.920692
	H76	H	0.092419	0.913539	0.615442
	H77	H	0.083298	0.087617	0.390852
	H78	H	0.905824	0.092804	0.621302
	H79	H	0.903103	0.914888	0.387368
	H80	H	0.618216	0.083504	0.910797
	H81	H	0.394585	0.079534	0.081352
	H82	H	0.617753	0.914536	0.097119
	H83	H	0.390063	0.911214	0.913055
	H84	H	0.623963	0.899811	0.101380
	H85	H	0.385649	0.084148	0.104761
	H86	H	0.620800	0.092081	0.910448
	H87	H	0.385493	0.903444	0.905938
	H88	H	0.912593	0.083029	0.617349
	H89	H	0.093115	0.097323	0.384287
	H90	H	0.088065	0.903393	0.617217
	H91	H	0.921656	0.907850	0.391685
	H92	H	0.093890	0.608985	0.920692
	H93	H	0.101388	0.382093	0.099326
	H94	H	0.915630	0.613763	0.098401
	H95	H	0.899784	0.381628	0.915685
	H96	H	0.412749	0.111367	0.593899
	H97	H	0.596958	0.883204	0.591462
	H98	H	0.587633	0.110412	0.405546
	H99	H	0.408501	0.881756	0.409110
	H100	H	0.593009	0.399456	0.118707
	H101	H	0.592932	0.589533	0.887398
	H102	H	0.410626	0.586022	0.118528
	H103	H	0.412545	0.405493	0.886778
	H104	H	0.120889	0.597169	0.412502
	H105	H	0.891153	0.589441	0.586403
	H106	H	0.121000	0.407907	0.598087
	H107	H	0.889994	0.408103	0.416821
	H108	H	0.913458	0.611834	0.091632
	H109	H	0.092391	0.384151	0.099676
	H110	H	0.102892	0.614696	0.911209
	H111	H	0.916509	0.381939	0.899019
	H112	H	0.098757	0.905267	0.620588
	H113	H	0.097822	0.083183	0.387721
	H114	H	0.918383	0.094767	0.618528
	H115	H	0.907586	0.896249	0.383494
	H116	H	0.617172	0.088593	0.917704
	H117	H	0.385946	0.102842	0.087190
	H118	H	0.617511	0.902167	0.086082
	H119	H	0.387591	0.900342	0.916734
	C120	C	0.381252	0.004748	0.623824
	C121	C	0.624853	0.989236	0.625104
	C122	C	0.624340	0.004922	0.381699
	C123	C	0.379670	0.988553	0.379444
	C124	C	0.626050	0.375841	0.010729
	C125	C	0.625806	0.619621	0.994154
	C126	C	0.383386	0.619083	0.011398
	C127	C	0.383317	0.375931	0.994731
	C128	C	0.011536	0.620243	0.382382
	C129	C	0.996343	0.620280	0.624986
	C130	C	0.012761	0.376559	0.624694
	C131	C	0.994781	0.376742	0.382246
	C132	C	0.882456	0.507262	0.125000
	C133	C	0.127221	0.490102	0.126604
	C134	C	0.126243	0.506057	0.882510
	C135	C	0.882849	0.490687	0.881643
	C136	C	0.123383	0.876896	0.510775
	C137	C	0.123540	0.119297	0.494552
	C138	C	0.881466	0.119905	0.511689
	C139	C	0.881329	0.876368	0.494956
	C140	C	0.512060	0.118817	0.881329
	C141	C	0.495823	0.118647	0.123156
	C142	C	0.511993	0.875591	0.124124
	C143	C	0.494819	0.875782	0.881822
	C144	C	0.381662	0.884063	0.681204
	C145	C	0.625520	0.109636	0.683327
	C146	C	0.624053	0.883999	0.324053
	C147	C	0.380355	0.109242	0.321354
	C148	C	0.683321	0.376931	0.889056
	C149	C	0.682406	0.618008	0.116839
	C150	C	0.324787	0.618680	0.889635
	C151	C	0.326180	0.375716	0.116624
	C152	C	0.889715	0.677518	0.380940
	C153	C	0.117076	0.679592	0.626171
	C154	C	0.891012	0.318748	0.625953
	C155	C	0.116143	0.318226	0.381568
	C156	C	0.890852	0.377679	0.681993
	C157	C	0.118187	0.620600	0.682596
	C158	C	0.889396	0.618804	0.324701
	C159	C	0.117486	0.377861	0.326253
	C160	C	0.382231	0.676517	0.889726
	C161	C	0.627002	0.677093	0.115824
	C162	C	0.627818	0.317420	0.889616
	C163	C	0.381973	0.316279	0.115399
	C164	C	0.682225	0.884314	0.382165
	C165	C	0.683411	0.109473	0.625644
	C166	C	0.323966	0.884121	0.622597
	C167	C	0.322395	0.109618	0.379078
	C168	C	0.883699	0.385565	0.181221
	C169	C	0.125887	0.611359	0.182797
	C170	C	0.126961	0.385583	0.824316
	C171	C	0.884749	0.611751	0.824720
	C172	C	0.178537	0.878457	0.387726
	C173	C	0.181941	0.117984	0.616216
	C174	C	0.824519	0.117604	0.389258
	C175	C	0.826641	0.878220	0.617922
	C176	C	0.390978	0.177699	0.878573
	C177	C	0.617874	0.174935	0.123987
	C178	C	0.390175	0.818293	0.123076
	C179	C	0.617441	0.820056	0.882572
	C180	C	0.388897	0.877563	0.178673
	C181	C	0.617612	0.116422	0.181160
	C182	C	0.389335	0.117597	0.823709
	C183	C	0.617178	0.877786	0.825528
	C184	C	0.880255	0.177304	0.389688
	C185	C	0.125200	0.176370	0.616384
	C186	C	0.122218	0.819726	0.388583
	C187	C	0.882675	0.819307	0.617105
	C188	C	0.183460	0.385129	0.883032
	C189	C	0.184035	0.611224	0.124645
	C190	C	0.825641	0.386009	0.123607
	C191	C	0.826510	0.611948	0.882397
	C192	C	0.405099	0.089255	0.600421
	C193	C	0.600882	0.905165	0.601150
	C194	C	0.600475	0.088682	0.405452
	C195	C	0.402491	0.904337	0.403129
	C196	C	0.601827	0.398971	0.095394
	C197	C	0.602268	0.596981	0.908898
	C198	C	0.407798	0.595616	0.096402
	C199	C	0.407608	0.400625	0.910457
	C200	C	0.096666	0.597350	0.406852
	C201	C	0.911429	0.596197	0.600909
	C202	C	0.097325	0.399810	0.600269
	C203	C	0.910038	0.400009	0.405737
	C204	C	0.905740	0.591544	0.102238
	C205	C	0.103981	0.405823	0.103723
	C206	C	0.102181	0.590040	0.906287
	C207	C	0.905791	0.406223	0.905052
	C208	C	0.100022	0.900551	0.595674
	C209	C	0.098707	0.096122	0.409593
	C210	C	0.905478	0.097067	0.596903
	C211	C	0.904122	0.899413	0.409490
	C212	C	0.596620	0.095099	0.905916
	C213	C	0.410585	0.095472	0.098467
	C214	C	0.597655	0.898739	0.101494
	C215	C	0.409833	0.898337	0.905006
	Zn216	Zn	0.503076	-0.003062	0.753870
	Zn217	Zn	0.502325	-0.003026	0.251773
	Zn218	Zn	0.753491	0.498670	0.002497
	Zn219	Zn	0.255301	0.497829	0.003602
	Zn220	Zn	0.002671	0.748822	0.503172
	Zn221	Zn	0.003296	0.248514	0.503013
	Zn222	Zn	0.005341	0.498068	0.753075
	Zn223	Zn	0.003629	0.498365	0.254507
	Zn224	Zn	0.504678	0.747502	0.002779
	Zn225	Zn	0.504656	0.247515	0.001903
	Zn226	Zn	0.753904	-0.002727	0.503957
	Zn227	Zn	0.251770	-0.002309	0.501525
	N228	N	0.416827	0.960308	0.681855
	N229	N	0.589672	0.033951	0.683169
	N230	N	0.588568	0.959871	0.323651
	N231	N	0.415164	0.033075	0.321479
	N232	N	0.682122	0.413025	0.965225
	N233	N	0.681938	0.583157	0.040046
	N234	N	0.325483	0.583426	0.966282
	N235	N	0.326684	0.412104	0.040493
	N236	N	0.966761	0.678405	0.416214
	N237	N	0.040351	0.679352	0.590782
	N238	N	0.967823	0.317716	0.590996
	N239	N	0.038916	0.317259	0.415440
	N240	N	0.967554	0.412818	0.681489
	N241	N	0.042089	0.583991	0.681638
	N242	N	0.966094	0.583897	0.325423
	N243	N	0.041139	0.413632	0.326479
	N244	N	0.417851	0.676939	0.966464
	N245	N	0.592281	0.678190	0.038645
	N246	N	0.592709	0.316811	0.966254
	N247	N	0.416857	0.316491	0.038572
	N248	N	0.682436	0.960391	0.417372
	N249	N	0.682728	0.033657	0.589887
	N250	N	0.323579	0.960313	0.587885
	N251	N	0.321981	0.033712	0.414616
	N252	N	0.918415	0.461932	0.182063
	N253	N	0.091353	0.535083	0.184201
	N254	N	0.092262	0.461920	0.823703
	N255	N	0.919044	0.535349	0.824048
	N256	N	0.179466	0.913246	0.464712
	N257	N	0.181000	0.083237	0.539456
	N258	N	0.824785	0.082918	0.466273
	N259	N	0.825706	0.912864	0.540909
	N260	N	0.468049	0.178597	0.913580
	N261	N	0.540889	0.176572	0.088954
	N262	N	0.467855	0.816958	0.090024
	N263	N	0.540329	0.818620	0.916834
	N264	N	0.465884	0.912229	0.179423
	N265	N	0.540447	0.082225	0.180697
	N266	N	0.465718	0.081794	0.825155
	N267	N	0.540090	0.911804	0.825211
	N268	N	0.914659	0.178988	0.466943
	N269	N	0.089494	0.177196	0.539601
	N270	N	0.088692	0.818825	0.465970
	N271	N	0.915912	0.818184	0.539542
	N272	N	0.183111	0.461018	0.918609
	N273	N	0.185012	0.534746	0.090487
	N274	N	0.824444	0.462562	0.089714
	N275	N	0.825250	0.535483	0.916860
	O276	O	-0.072745	0.073256	0.031637
	H277	H	-0.078720	0.065346	0.034546
	H278	H	-0.068004	0.075312	0.024183
	O279	O	-0.320161	0.475438	-0.575255
	H280	H	-0.324659	0.484815	-0.572985
	H281	H	-0.326546	0.473657	-0.580151
	O282	O	1.012733	-0.080915	0.016360
	H283	H	1.017580	-0.082904	0.021777
	H284	H	1.003849	-0.081529	0.016074
	O285	O	-0.015704	1.115493	0.098855
	H286	H	-0.020401	1.120418	0.090164
	H287	H	-0.030669	1.116687	0.092631
	O288	O	0.532138	0.441786	0.457334
	H289	H	0.523161	0.438650	0.453206
	H290	H	0.524984	0.451866	0.465579
	O291	O	0.407623	0.588484	0.487762
	H292	H	0.404612	0.588736	0.504867
	H293	H	0.410970	0.594785	0.490194
	O294	O	0.956843	0.960018	0.999725
	H295	H	0.953589	0.958959	0.991358
	H296	H	0.963468	0.952098	0.999711
	O297	O	0.007473	-0.103207	0.108477
	H298	H	0.002909	-0.103255	0.113867
	H299	H	0.007994	-0.107779	0.107657
	O300	O	0.427391	0.344853	0.539120
	H301	H	0.419597	0.342375	0.544774
	H302	H	0.440435	0.332666	0.535615
	O303	O	-0.455107	0.557695	1.372404
	H304	H	-0.467881	0.556284	1.360982
	H305	H	-0.459902	0.566624	1.374650
	O306	O	0.509636	0.512319	0.540451
	H307	H	0.509883	0.517013	0.543414
	H308	H	0.513061	0.505345	0.536018
	O309	O	1.044744	0.139621	-0.077045
	H310	H	1.040632	0.144733	-0.088450
	H311	H	1.042710	0.144484	-0.066028
	O312	O	0.075142	-0.102270	1.019501
	H313	H	0.072312	-0.088335	1.017177
	H314	H	0.071602	-0.102979	1.015978
	O315	O	0.389190	1.472986	0.350334
	H316	H	0.375838	1.473707	0.349547
	H317	H	0.389835	1.487585	0.341562
	O318	O	0.534738	0.352010	0.630177
	H319	H	0.542444	0.348796	0.636198
	H320	H	0.533736	0.349587	0.615253
	O321	O	0.595504	0.545725	0.606309
	H322	H	0.603929	0.539338	0.611558
	H323	H	0.604230	0.556182	0.611515
	O324	O	0.407023	0.515187	0.515566
	H325	H	0.403115	0.516775	0.518420
	H326	H	0.396224	0.512693	0.509450
	O327	O	-0.675780	1.578896	1.440781
	H328	H	-0.682075	1.561307	1.436293
	H329	H	-0.687914	1.582023	1.449390
	O330	O	0.591118	0.649616	0.524596
	H331	H	0.601736	0.668415	0.533515
	H332	H	0.590706	0.655728	0.512936
	O333	O	0.616672	0.541366	0.632172
	H334	H	0.615071	0.542949	0.635556
	H335	H	0.620981	0.535905	0.619169
	O336	O	0.456955	0.365601	0.643643
	H337	H	0.456541	0.357553	0.639498
	H338	H	0.466631	0.371246	0.645327
	O339	O	1.088787	0.981696	-0.045979
	H340	H	1.096881	0.967996	-0.030288
	H341	H	1.080134	0.982189	-0.049296
	O342	O	1.009497	-0.140574	0.025532
	H343	H	1.022145	-0.138888	0.024328
	H344	H	1.005936	-0.145649	0.031892
	O345	O	0.434688	0.608819	0.359815
	H346	H	0.426329	0.602316	0.364145
	H347	H	0.423472	0.625804	0.346990
	O348	O	0.379692	0.598745	0.484625
	H349	H	0.392746	0.602744	0.492564
	H350	H	0.371509	0.580526	0.488398
	O351	O	0.914943	1.061150	0.075702
	H352	H	0.915723	1.065481	0.086662
	H353	H	0.913318	1.065206	0.076688
	O354	O	0.864326	-0.010115	1.040697
	H355	H	0.860196	-0.010743	1.042102
	H356	H	0.861017	-0.027368	1.042077
	O357	O	0.687037	0.362843	0.311194
	H358	H	0.675299	0.373020	0.312502
	H359	H	0.684002	0.360862	0.291224
	O360	O	0.021759	-0.048732	0.087564
	H361	H	0.025794	-0.047741	0.083082
	H362	H	0.023169	-0.036099	0.104134
	O363	O	0.510211	0.338691	0.471564
	H364	H	0.524279	0.339944	0.467021
	H365	H	0.515221	0.336178	0.462997
	O366	O	1.043005	0.971738	0.964137
	H367	H	1.044270	0.966129	0.957598
	H368	H	1.050465	0.986149	0.967767
	O369	O	1.057915	0.042301	-0.024872
	H370	H	1.061840	0.050035	-0.021890
	H371	H	1.061883	0.052589	-0.027975
	O372	O	0.474583	0.578461	0.459797
	H373	H	0.480244	0.559166	0.466165
	H374	H	0.464064	0.585694	0.466478
	O375	O	0.324943	0.488725	0.582355
	H376	H	0.319051	0.504334	0.577518
	H377	H	0.348567	0.484234	0.572410
	O378	O	0.638173	0.405506	0.594523
	H379	H	0.627711	0.406279	0.578556
	H380	H	0.657388	0.396680	0.595469
	O381	O	0.554643	0.340407	0.356376
	H382	H	0.561256	0.331507	0.346577
	H383	H	0.549836	0.354107	0.360502
	O384	O	-0.008291	0.998673	-0.161596
	H385	H	-0.004541	1.012824	-0.172547
	H386	H	-0.023616	0.983430	-0.166843
	O387	O	0.464116	0.556176	1.645511
	H388	H	0.464304	0.556338	1.660567
	H389	H	0.459554	0.552680	1.656101
	O390	O	-0.094855	1.034165	-0.079298
	H391	H	-0.098657	1.025845	-0.075821
	H392	H	-0.103964	1.037267	-0.080538
	O393	O	1.014020	1.094368	0.081166
	H394	H	1.028359	1.101071	0.077002
	H395	H	1.015166	1.113134	0.091475
	O396	O	0.476434	0.514652	0.418349
	H397	H	0.474213	0.498743	0.417023
	H398	H	0.481253	0.515111	0.430685
	O399	O	0.152441	1.125774	1.049012
	H400	H	0.154271	1.120342	1.032541
	H401	H	0.161230	1.117563	1.047056
	O402	O	1.048239	0.992938	0.933342
	H403	H	1.050894	0.980794	0.937052
	H404	H	1.047194	0.994812	0.924373
	O405	O	0.617089	0.557778	0.653293
	H406	H	0.613013	0.541634	0.652722
	H407	H	0.624722	0.554925	0.644567
