data_Molecule from HDF5

_cell_length_a		16.408889
_cell_length_b		16.182235
_cell_length_c		16.335639
_cell_angle_alpha	89.805825
_cell_angle_beta	90.205979
_cell_angle_gamma	89.630649
_symmetry_space_group_name_H-M	'P 1'
_symmetry_Int_Tables_number		1

loop_
	_symmetry_equiv_pos_as_xyz
	x,y,z

loop_
	_atom_site_label
	_atom_site_type_symbol
	_atom_site_fract_x
	_atom_site_fract_y
	_atom_site_fract_z
	H0	H	0.402472	0.836199	0.713362
	H1	H	0.599936	0.162875	0.711290
	H2	H	0.600745	0.835348	0.280951
	H3	H	0.399687	0.162593	0.280823
	H4	H	0.716255	0.397270	0.830335
	H5	H	0.718638	0.599815	0.153794
	H6	H	0.280127	0.604770	0.831198
	H7	H	0.281253	0.397785	0.153607
	H8	H	0.837585	0.715558	0.391507
	H9	H	0.161411	0.710637	0.592279
	H10	H	0.836196	0.284198	0.589222
	H11	H	0.162240	0.281875	0.395156
	H12	H	0.837489	0.395580	0.709640
	H13	H	0.159494	0.599572	0.712017
	H14	H	0.838315	0.600874	0.273614
	H15	H	0.161984	0.398623	0.276644
	H16	H	0.398529	0.718676	0.831966
	H17	H	0.596224	0.709354	0.158333
	H18	H	0.598974	0.282288	0.831450
	H19	H	0.402958	0.287545	0.157577
	H20	H	0.716026	0.834741	0.397145
	H21	H	0.717121	0.161781	0.597451
	H22	H	0.284863	0.835105	0.599904
	H23	H	0.282453	0.161469	0.394979
	H24	H	0.900064	0.335948	0.207928
	H25	H	0.100914	0.662147	0.209083
	H26	H	0.098573	0.333512	0.778726
	H27	H	0.895916	0.660700	0.772454
	H28	H	0.220973	0.894297	0.334524
	H29	H	0.215650	0.099291	0.657355
	H30	H	0.779747	0.100752	0.334191
	H31	H	0.785221	0.895104	0.657103
	H32	H	0.338849	0.217879	0.894924
	H33	H	0.662513	0.213935	0.094566
	H34	H	0.336713	0.784271	0.095444
	H35	H	0.661284	0.782040	0.897692
	H36	H	0.338273	0.898519	0.214683
	H37	H	0.661631	0.098758	0.213427
	H38	H	0.340400	0.107702	0.773661
	H39	H	0.660662	0.895801	0.779004
	H40	H	0.898654	0.213098	0.330878
	H41	H	0.096568	0.212738	0.656743
	H42	H	0.099891	0.783762	0.330438
	H43	H	0.903594	0.781602	0.656154
	H44	H	0.219719	0.336835	0.888445
	H45	H	0.213395	0.663587	0.090845
	H46	H	0.786398	0.335522	0.090929
	H47	H	0.779959	0.661666	0.887138
	H48	H	0.410676	0.115971	0.590305
	H49	H	0.600193	0.881142	0.586545
	H50	H	0.584674	0.115471	0.396685
	H51	H	0.401994	0.880879	0.409777
	H52	H	0.605819	0.410821	0.111038
	H53	H	0.582711	0.591068	0.881004
	H54	H	0.402531	0.593169	0.110222
	H55	H	0.412758	0.409270	0.879430
	H56	H	0.111237	0.583024	0.404888
	H57	H	0.883637	0.595445	0.579151
	H58	H	0.116341	0.402261	0.588686
	H59	H	0.886626	0.410085	0.400340
	H60	H	0.113046	0.404110	0.582722
	H61	H	0.888472	0.583389	0.578324
	H62	H	0.116076	0.586459	0.390884
	H63	H	0.883340	0.407326	0.393514
	H64	H	0.403386	0.586228	0.107404
	H65	H	0.592435	0.598184	0.874890
	H66	H	0.587696	0.417066	0.103429
	H67	H	0.406060	0.406343	0.875878
	H68	H	0.587783	0.111656	0.413816
	H69	H	0.590940	0.880769	0.595856
	H70	H	0.408718	0.111748	0.580363
	H71	H	0.410262	0.880193	0.396062
	H72	H	0.912692	0.612921	0.078752
	H73	H	0.091110	0.384206	0.080549
	H74	H	0.095587	0.616059	0.902175
	H75	H	0.908801	0.384563	0.907059
	H76	H	0.096106	0.905943	0.609539
	H77	H	0.089307	0.090326	0.379657
	H78	H	0.908805	0.085675	0.607791
	H79	H	0.911290	0.907077	0.379759
	H80	H	0.611434	0.086707	0.911180
	H81	H	0.386250	0.090418	0.087369
	H82	H	0.612140	0.906476	0.084220
	H83	H	0.385565	0.912049	0.904704
	H84	H	0.613778	0.909309	0.095082
	H85	H	0.384449	0.093267	0.093194
	H86	H	0.614651	0.084793	0.899050
	H87	H	0.386423	0.911489	0.904805
	H88	H	0.911557	0.094030	0.610929
	H89	H	0.095866	0.089500	0.377323
	H90	H	0.091060	0.907819	0.607903
	H91	H	0.903072	0.905808	0.377399
	H92	H	0.085020	0.615758	0.893058
	H93	H	0.093365	0.382053	0.082931
	H94	H	0.902049	0.617279	0.078546
	H95	H	0.900455	0.380202	0.898774
	H96	H	0.400501	0.117312	0.585957
	H97	H	0.588012	0.885507	0.583818
	H98	H	0.600411	0.118619	0.403600
	H99	H	0.417556	0.885843	0.409731
	H100	H	0.590327	0.397713	0.110023
	H101	H	0.594623	0.585582	0.877835
	H102	H	0.409087	0.590477	0.107774
	H103	H	0.405960	0.414322	0.878855
	H104	H	0.115689	0.597733	0.402043
	H105	H	0.882743	0.586809	0.589092
	H106	H	0.113060	0.407836	0.587864
	H107	H	0.883859	0.402347	0.399778
	H108	H	0.908118	0.616762	0.087968
	H109	H	0.090293	0.384108	0.084250
	H110	H	0.082805	0.610810	0.906353
	H111	H	0.912579	0.381909	0.895885
	H112	H	0.091474	0.901988	0.609614
	H113	H	0.092008	0.084615	0.380398
	H114	H	0.903518	0.090709	0.612204
	H115	H	0.905107	0.913430	0.380683
	H116	H	0.616609	0.096870	0.904295
	H117	H	0.383785	0.096665	0.087934
	H118	H	0.616520	0.898741	0.091313
	H119	H	0.385537	0.911897	0.904967
	C120	C	0.378524	0.007334	0.617180
	C121	C	0.622027	0.990713	0.617874
	C122	C	0.621106	0.007307	0.375320
	C123	C	0.379184	0.989900	0.374806
	C124	C	0.622766	0.377769	0.001459
	C125	C	0.619940	0.620254	0.985095
	C126	C	0.375754	0.621852	0.001714
	C127	C	0.378601	0.379665	0.984905
	C128	C	0.007870	0.620324	0.369473
	C129	C	0.991256	0.618423	0.613283
	C130	C	0.006770	0.375933	0.614465
	C131	C	0.991551	0.376429	0.369522
	C132	C	0.878752	0.507869	0.111730
	C133	C	0.120746	0.491318	0.112425
	C134	C	0.119513	0.506634	0.870610
	C135	C	0.876876	0.489712	0.869641
	C136	C	0.122949	0.875338	0.502421
	C137	C	0.120733	0.118337	0.486449
	C138	C	0.877435	0.120184	0.503203
	C139	C	0.878338	0.877294	0.486120
	C140	C	0.508007	0.121314	0.874079
	C141	C	0.492001	0.121875	0.118347
	C142	C	0.507524	0.876271	0.118947
	C143	C	0.491721	0.879385	0.875127
	C144	C	0.381147	0.884795	0.675095
	C145	C	0.620148	0.113833	0.673400
	C146	C	0.620394	0.884124	0.319172
	C147	C	0.379878	0.113373	0.318882
	C148	C	0.678213	0.377540	0.879225
	C149	C	0.678453	0.618948	0.106331
	C150	C	0.318797	0.623772	0.879829
	C151	C	0.320963	0.379391	0.105988
	C152	C	0.886396	0.678015	0.370835
	C153	C	0.113030	0.673289	0.612446
	C154	C	0.884844	0.321091	0.610707
	C155	C	0.113563	0.320228	0.373503
	C156	C	0.885445	0.377000	0.670416
	C157	C	0.111754	0.617888	0.672019
	C158	C	0.886538	0.620837	0.312265
	C159	C	0.113656	0.378159	0.314770
	C160	C	0.377759	0.680237	0.880357
	C161	C	0.617445	0.673380	0.108654
	C162	C	0.619916	0.320232	0.879881
	C163	C	0.381583	0.324510	0.107930
	C164	C	0.677665	0.883873	0.376868
	C165	C	0.678594	0.113054	0.617040
	C166	C	0.323133	0.884235	0.618278
	C167	C	0.321434	0.112759	0.375296
	C168	C	0.880274	0.384923	0.168986
	C169	C	0.119910	0.613870	0.169574
	C170	C	0.119392	0.383330	0.815264
	C171	C	0.876574	0.612311	0.811483
	C172	C	0.181256	0.875453	0.381941
	C173	C	0.176752	0.118313	0.608692
	C174	C	0.818913	0.120221	0.382090
	C175	C	0.823105	0.876244	0.608122
	C176	C	0.387189	0.179585	0.874374
	C177	C	0.613777	0.176631	0.115645
	C178	C	0.385479	0.821640	0.116545
	C179	C	0.612900	0.820913	0.877079
	C180	C	0.386299	0.878357	0.175782
	C181	C	0.613312	0.119361	0.174834
	C182	C	0.388186	0.124255	0.814299
	C183	C	0.612688	0.877617	0.818013
	C184	C	0.878298	0.175865	0.380371
	C185	C	0.117398	0.174877	0.608482
	C186	C	0.120885	0.820402	0.380019
	C187	C	0.882029	0.819750	0.607812
	C188	C	0.179642	0.384991	0.869810
	C189	C	0.176069	0.614392	0.111058
	C190	C	0.823695	0.384655	0.110767
	C191	C	0.818784	0.612652	0.868431
	C192	C	0.400415	0.092962	0.592699
	C193	C	0.599577	0.904633	0.595384
	C194	C	0.597899	0.093045	0.397988
	C195	C	0.402943	0.904349	0.398459
	C196	C	0.601074	0.401627	0.086258
	C197	C	0.596697	0.598047	0.899994
	C198	C	0.398307	0.597176	0.086428
	C199	C	0.401511	0.403134	0.900130
	C200	C	0.092422	0.596162	0.392471
	C201	C	0.906793	0.595374	0.589131
	C202	C	0.092068	0.398301	0.592696
	C203	C	0.906618	0.399737	0.391344
	C204	C	0.901162	0.593506	0.088455
	C205	C	0.097989	0.405706	0.089343
	C206	C	0.095011	0.592017	0.893860
	C207	C	0.900519	0.404534	0.893591
	C208	C	0.099649	0.898439	0.587148
	C209	C	0.098633	0.094995	0.401204
	C210	C	0.901016	0.096954	0.588293
	C211	C	0.900137	0.901704	0.401337
	C212	C	0.592353	0.096569	0.897967
	C213	C	0.406845	0.099854	0.096073
	C214	C	0.592118	0.898336	0.096713
	C215	C	0.407513	0.904508	0.898174
	Zn216	Zn	0.500406	-0.000015	0.744941
	Zn217	Zn	0.500170	-0.001031	0.247044
	Zn218	Zn	0.750293	0.499669	-0.008611
	Zn219	Zn	0.248174	0.499800	-0.008754
	Zn220	Zn	-0.000267	0.747688	0.492655
	Zn221	Zn	-0.000955	0.247663	0.492803
	Zn222	Zn	-0.001231	0.497855	0.742731
	Zn223	Zn	-0.000128	0.499182	0.240116
	Zn224	Zn	0.498485	0.749122	-0.004300
	Zn225	Zn	0.500201	0.250614	-0.005198
	Zn226	Zn	0.749610	-0.001483	0.496127
	Zn227	Zn	0.250806	-0.002427	0.495964
	N228	N	0.414578	0.962444	0.674687
	N229	N	0.585973	0.036610	0.674145
	N230	N	0.585982	0.961765	0.317986
	N231	N	0.415075	0.036074	0.318451
	N232	N	0.680222	0.412329	0.955747
	N233	N	0.680491	0.587101	0.028422
	N234	N	0.317457	0.588048	0.956239
	N235	N	0.318888	0.412957	0.028578
	N236	N	0.962986	0.677938	0.405384
	N237	N	0.037212	0.673625	0.576509
	N238	N	0.961392	0.320404	0.576861
	N239	N	0.036628	0.318733	0.406582
	N240	N	0.962513	0.410132	0.672921
	N241	N	0.034918	0.584456	0.672543
	N242	N	0.963015	0.585726	0.311207
	N243	N	0.036585	0.412105	0.312085
	N244	N	0.412350	0.679217	0.957132
	N245	N	0.581901	0.674384	0.032297
	N246	N	0.585972	0.320411	0.956809
	N247	N	0.416776	0.324695	0.031715
	N248	N	0.678224	0.961385	0.410964
	N249	N	0.679970	0.035221	0.583399
	N250	N	0.321438	0.961429	0.582789
	N251	N	0.320969	0.034914	0.409498
	N252	N	0.913665	0.462540	0.169865
	N253	N	0.086394	0.536139	0.170670
	N254	N	0.082714	0.459901	0.815725
	N255	N	0.911775	0.535022	0.811886
	N256	N	0.182803	0.908809	0.459265
	N257	N	0.178950	0.083943	0.531794
	N258	N	0.818096	0.086620	0.459593
	N259	N	0.820819	0.911418	0.531498
	N260	N	0.462631	0.177765	0.910818
	N261	N	0.537037	0.178542	0.081558
	N262	N	0.461823	0.819910	0.082394
	N263	N	0.536661	0.821821	0.911644
	N264	N	0.463336	0.911558	0.177578
	N265	N	0.536471	0.086168	0.176505
	N266	N	0.464567	0.088633	0.814121
	N267	N	0.536416	0.913578	0.816908
	N268	N	0.914141	0.175893	0.456507
	N269	N	0.083580	0.175229	0.531279
	N270	N	0.085215	0.820240	0.455996
	N271	N	0.915561	0.820071	0.530877
	N272	N	0.179773	0.462826	0.903590
	N273	N	0.176659	0.537072	0.076262
	N274	N	0.822629	0.462153	0.075809
	N275	N	0.818685	0.535515	0.903964
	O276	O	-0.054406	0.047257	-0.074913
	H277	H	-0.064829	0.045304	-0.069934
	H278	H	-0.049164	0.048191	-0.070049
	O279	O	0.337563	0.340051	0.336291
	H280	H	0.354184	0.341910	0.336109
	H281	H	0.341590	0.328404	0.333879
	O282	O	0.999080	-0.088779	-0.159698
	H283	H	1.000158	-0.087127	-0.160661
	H284	H	0.998177	-0.086821	-0.156866
	O285	O	-0.077242	0.849234	0.147328
	H286	H	-0.067760	0.842577	0.150229
	H287	H	-0.079239	0.861074	0.157860
	O288	O	0.450436	0.542917	0.587626
	H289	H	0.453255	0.551979	0.592442
	H290	H	0.445209	0.540865	0.591022
	O291	O	0.544268	0.464112	0.613461
	H292	H	0.546537	0.460014	0.613683
	H293	H	0.538186	0.469189	0.612910
	O294	O	1.127964	0.981484	1.094915
	H295	H	1.119826	0.983175	1.092268
	H296	H	1.116039	0.977192	1.099083
	O297	O	-0.078497	0.056755	-0.059054
	H298	H	-0.073544	0.063410	-0.063669
	H299	H	-0.058497	0.052950	-0.053712
	O300	O	0.610048	0.349968	0.328504
	H301	H	0.616509	0.358855	0.330436
	H302	H	0.626861	0.359288	0.329511
	O303	O	-0.160131	0.909899	1.066609
	H304	H	-0.155702	0.918887	1.066776
	H305	H	-0.167532	0.915121	1.066841
	O306	O	0.304001	0.589146	0.424422
	H307	H	0.302038	0.586754	0.424146
	H308	H	0.301480	0.583346	0.418295
	O309	O	1.031961	-0.054882	0.103834
	H310	H	1.047185	-0.058759	0.103771
	H311	H	1.020272	-0.050502	0.090980
	O312	O	0.025177	0.021210	1.087694
	H313	H	0.031451	0.015760	1.100881
	H314	H	0.014395	0.006896	1.085041
	O315	O	0.082044	1.098349	1.094960
	H316	H	0.086232	1.106983	1.116940
	H317	H	0.097889	1.088488	1.099461
	O318	O	0.586461	0.586402	0.575801
	H319	H	0.589995	0.585931	0.587734
	H320	H	0.585799	0.589250	0.577504
	O321	O	0.431067	0.682125	0.417855
	H322	H	0.420954	0.679968	0.417175
	H323	H	0.429774	0.691952	0.404585
	O324	O	0.446398	0.603167	0.523461
	H325	H	0.449044	0.607494	0.521886
	H326	H	0.445498	0.596911	0.508741
	O327	O	0.056239	1.028917	0.880308
	H328	H	0.062119	1.035542	0.872024
	H329	H	0.060743	1.029952	0.881430
	O330	O	0.508547	0.448895	0.459180
	H331	H	0.518004	0.440921	0.468190
	H332	H	0.504644	0.454099	0.456975
	O333	O	-0.059570	1.035230	0.959892
	H334	H	-0.058111	1.029826	0.957347
	H335	H	-0.058701	1.022243	0.947347
	O336	O	0.932804	0.950009	0.922324
	H337	H	0.913481	0.960954	0.926573
	H338	H	0.946975	0.935543	0.928186
	O339	O	0.485480	0.388247	0.467422
	H340	H	0.478227	0.391719	0.472147
	H341	H	0.496172	0.369804	0.473738
	O342	O	1.154865	0.085697	0.073679
	H343	H	1.170951	0.084732	0.082483
	H344	H	1.154326	0.090220	0.084017
	O345	O	0.595621	0.368473	0.551990
	H346	H	0.613064	0.368031	0.557480
	H347	H	0.580190	0.375991	0.545759
	O348	O	0.959365	1.055495	0.850017
	H349	H	0.955594	1.065633	0.838602
	H350	H	0.953409	1.044441	0.850305
	O351	O	0.961262	0.974595	0.058958
	H352	H	0.942612	0.982633	0.050334
	H353	H	0.952823	0.971726	0.066671
	O354	O	1.032741	0.034033	0.902272
	H355	H	1.038190	0.031913	0.891903
	H356	H	1.038748	0.044032	0.910827
	O357	O	0.647438	0.489607	0.488372
	H358	H	0.644084	0.487533	0.497241
	H359	H	0.646120	0.489390	0.492787
	O360	O	-0.090176	0.016889	0.026490
	H361	H	-0.084200	0.023763	0.004350
	H362	H	-0.088334	0.017630	0.027254
	O363	O	0.396769	0.351142	0.547347
	H364	H	0.403129	0.350157	0.568790
	H365	H	0.391089	0.354789	0.550225
	O366	O	0.483342	0.473355	0.498509
	H367	H	0.474702	0.468648	0.489622
	H368	H	0.486788	0.478078	0.500084
	O369	O	0.524123	0.440516	0.449904
	H370	H	0.536728	0.447957	0.441098
	H371	H	0.530417	0.434065	0.437789
	O372	O	0.505126	0.453283	0.478394
	H373	H	0.508121	0.465021	0.486482
	H374	H	0.509314	0.450694	0.477279
	O375	O	0.551854	0.545494	0.556533
	H376	H	0.543401	0.558977	0.550670
	H377	H	0.557826	0.549192	0.553828
	O378	O	0.571361	0.598965	0.455798
	H379	H	0.566200	0.597641	0.443772
	H380	H	0.560668	0.593036	0.466099
	O381	O	0.510215	0.572837	0.350766
	H382	H	0.518447	0.573074	0.364320
	H383	H	0.493085	0.567160	0.340770
	O384	O	-0.126991	0.889095	0.080967
	H385	H	-0.133903	0.891702	0.088038
	H386	H	-0.131655	0.888606	0.074854
	O387	O	1.034532	0.036469	0.889033
	H388	H	1.035178	0.014606	0.889448
	H389	H	1.030586	0.048123	0.897692
	O390	O	0.102595	1.093091	0.001929
	H391	H	0.099763	1.089848	-0.001057
	H392	H	0.101479	1.084751	0.008079
	O393	O	0.915807	1.043934	0.076975
	H394	H	0.924126	1.053989	0.075205
	H395	H	0.918177	1.054966	0.075498
	O396	O	0.395300	0.493069	0.360488
	H397	H	0.389384	0.481648	0.355146
	H398	H	0.404134	0.488495	0.369833
	O399	O	0.129054	0.882346	0.962645
	H400	H	0.141442	0.879857	0.944826
	H401	H	0.123959	0.886146	0.963481
	O402	O	1.088406	1.055116	0.904902
	H403	H	1.081869	1.059651	0.899622
	H404	H	1.092256	1.059573	0.910817
	O405	O	0.435388	0.456619	0.655019
	H406	H	0.441822	0.467255	0.661379
	H407	H	0.436904	0.459111	0.652717
