data_Molecule from HDF5

_cell_length_a		16.374340
_cell_length_b		16.507266
_cell_length_c		16.473560
_cell_angle_alpha	89.962646
_cell_angle_beta	90.133100
_cell_angle_gamma	90.170470
_symmetry_space_group_name_H-M	'P 1'
_symmetry_Int_Tables_number		1

loop_
	_symmetry_equiv_pos_as_xyz
	x,y,z

loop_
	_atom_site_label
	_atom_site_type_symbol
	_atom_site_fract_x
	_atom_site_fract_y
	_atom_site_fract_z
	H0	H	0.386777	0.840596	0.713276
	H1	H	0.599541	0.155996	0.716182
	H2	H	0.595123	0.840969	0.273778
	H3	H	0.388683	0.157224	0.272206
	H4	H	0.714393	0.391697	0.834372
	H5	H	0.712108	0.601202	0.150662
	H6	H	0.270847	0.604377	0.834172
	H7	H	0.275942	0.397746	0.152024
	H8	H	0.834272	0.719989	0.386391
	H9	H	0.150562	0.721049	0.598292
	H10	H	0.834322	0.277002	0.597666
	H11	H	0.152144	0.279097	0.386668
	H12	H	0.835261	0.388376	0.716761
	H13	H	0.150456	0.605412	0.714439
	H14	H	0.834167	0.602821	0.271216
	H15	H	0.153278	0.397437	0.273207
	H16	H	0.384057	0.723872	0.835564
	H17	H	0.598721	0.719474	0.150243
	H18	H	0.601069	0.273982	0.835625
	H19	H	0.385429	0.275543	0.149091
	H20	H	0.712294	0.840490	0.390277
	H21	H	0.714040	0.157623	0.598997
	H22	H	0.267878	0.842627	0.599379
	H23	H	0.274256	0.158895	0.389924
	H24	H	0.887162	0.341567	0.214214
	H25	H	0.100468	0.656174	0.213735
	H26	H	0.100443	0.342233	0.768443
	H27	H	0.883246	0.654826	0.767767
	H28	H	0.210643	0.899419	0.335039
	H29	H	0.217299	0.108956	0.650268
	H30	H	0.772973	0.102170	0.335954
	H31	H	0.770018	0.891412	0.650971
	H32	H	0.334868	0.222054	0.881867
	H33	H	0.650339	0.220708	0.098325
	H34	H	0.334310	0.777379	0.098950
	H35	H	0.650647	0.776257	0.886004
	H36	H	0.333551	0.893266	0.212859
	H37	H	0.649980	0.105319	0.215334
	H38	H	0.334266	0.104724	0.768457
	H39	H	0.650566	0.889548	0.768968
	H40	H	0.887238	0.219622	0.335892
	H41	H	0.104230	0.226944	0.648758
	H42	H	0.099246	0.778772	0.335720
	H43	H	0.880435	0.771577	0.647697
	H44	H	0.214696	0.341301	0.886778
	H45	H	0.216605	0.656142	0.098716
	H46	H	0.771100	0.340654	0.096617
	H47	H	0.768611	0.655883	0.884973
	H48	H	0.409241	0.110169	0.582491
	H49	H	0.579329	0.884620	0.587833
	H50	H	0.579305	0.114028	0.393171
	H51	H	0.402342	0.883991	0.397009
	H52	H	0.582358	0.417715	0.101834
	H53	H	0.577909	0.587904	0.880718
	H54	H	0.402891	0.585729	0.104366
	H55	H	0.402771	0.408848	0.878895
	H56	H	0.107506	0.587107	0.398972
	H57	H	0.879233	0.585003	0.580911
	H58	H	0.107019	0.411985	0.585491
	H59	H	0.881597	0.414576	0.403631
	H60	H	0.104713	0.409083	0.575164
	H61	H	0.878881	0.587483	0.578443
	H62	H	0.109412	0.595191	0.401613
	H63	H	0.878286	0.408622	0.398728
	H64	H	0.407950	0.588839	0.103925
	H65	H	0.580386	0.588773	0.879008
	H66	H	0.571502	0.405884	0.102481
	H67	H	0.404738	0.410710	0.879259
	H68	H	0.577032	0.106972	0.410720
	H69	H	0.576061	0.891347	0.576618
	H70	H	0.405169	0.109961	0.578999
	H71	H	0.406537	0.889071	0.405828
	H72	H	0.906313	0.610421	0.081052
	H73	H	0.087623	0.383360	0.086281
	H74	H	0.083779	0.610119	0.906481
	H75	H	0.904288	0.388638	0.908633
	H76	H	0.084699	0.906413	0.609391
	H77	H	0.081268	0.094746	0.379981
	H78	H	0.909761	0.089455	0.605681
	H79	H	0.909703	0.911735	0.383363
	H80	H	0.603479	0.085058	0.906638
	H81	H	0.377148	0.087036	0.085599
	H82	H	0.605651	0.913787	0.084210
	H83	H	0.378898	0.906763	0.902965
	H84	H	0.609380	0.907137	0.086098
	H85	H	0.377954	0.090883	0.078648
	H86	H	0.605191	0.085765	0.904943
	H87	H	0.381529	0.911208	0.908845
	H88	H	0.903632	0.091802	0.608045
	H89	H	0.085501	0.088361	0.379776
	H90	H	0.081431	0.918602	0.604014
	H91	H	0.902261	0.905257	0.378872
	H92	H	0.079061	0.611608	0.900062
	H93	H	0.077635	0.386453	0.085534
	H94	H	0.900985	0.611211	0.078608
	H95	H	0.901028	0.384596	0.902403
	H96	H	0.403913	0.111776	0.583767
	H97	H	0.588468	0.885909	0.578493
	H98	H	0.593967	0.115001	0.405904
	H99	H	0.395671	0.885249	0.406131
	H100	H	0.586400	0.403957	0.108499
	H101	H	0.579786	0.586477	0.879662
	H102	H	0.403389	0.591613	0.106039
	H103	H	0.405011	0.408471	0.878753
	H104	H	0.105382	0.589594	0.406866
	H105	H	0.880357	0.584559	0.577822
	H106	H	0.102243	0.418873	0.578713
	H107	H	0.880229	0.406818	0.406414
	H108	H	0.902321	0.613354	0.084779
	H109	H	0.083958	0.387250	0.077335
	H110	H	0.076234	0.608212	0.906596
	H111	H	0.908608	0.387672	0.902353
	H112	H	0.071409	0.908739	0.604232
	H113	H	0.078338	0.088213	0.382165
	H114	H	0.904318	0.085079	0.605753
	H115	H	0.899235	0.915669	0.381051
	H116	H	0.604021	0.087520	0.906853
	H117	H	0.380416	0.083489	0.079252
	H118	H	0.606138	0.907644	0.079257
	H119	H	0.380904	0.915055	0.901334
	C120	C	0.371360	0.007390	0.614751
	C121	C	0.614836	0.990783	0.615058
	C122	C	0.614931	0.007490	0.371526
	C123	C	0.370848	0.991046	0.371640
	C124	C	0.613474	0.376499	0.000423
	C125	C	0.612984	0.619699	0.983873
	C126	C	0.371078	0.621272	0.000673
	C127	C	0.371522	0.377334	0.983443
	C128	C	0.001898	0.621585	0.370400
	C129	C	0.983983	0.619467	0.612912
	C130	C	0.000915	0.378323	0.613554
	C131	C	0.985051	0.378829	0.371133
	C132	C	0.871291	0.507138	0.113483
	C133	C	0.115084	0.490562	0.113960
	C134	C	0.113466	0.506782	0.871166
	C135	C	0.870493	0.490141	0.870381
	C136	C	0.111968	0.879813	0.501649
	C137	C	0.115421	0.123542	0.484324
	C138	C	0.872966	0.120522	0.502290
	C139	C	0.870609	0.877002	0.484523
	C140	C	0.500357	0.119445	0.871226
	C141	C	0.483605	0.119530	0.113103
	C142	C	0.501607	0.877532	0.114562
	C143	C	0.484806	0.877601	0.871617
	C144	C	0.368090	0.888507	0.674287
	C145	C	0.617744	0.108875	0.675820
	C146	C	0.614722	0.888354	0.313262
	C147	C	0.370234	0.110099	0.312242
	C148	C	0.674954	0.373501	0.882072
	C149	C	0.673002	0.620605	0.103020
	C150	C	0.310501	0.623353	0.881782
	C151	C	0.313790	0.377346	0.103572
	C152	C	0.881928	0.680207	0.368277
	C153	C	0.103000	0.680714	0.616436
	C154	C	0.882069	0.316721	0.616317
	C155	C	0.104770	0.319682	0.369348
	C156	C	0.882503	0.372385	0.675558
	C157	C	0.102959	0.622892	0.674127
	C158	C	0.881986	0.622151	0.310800
	C159	C	0.105334	0.378286	0.312385
	C160	C	0.367321	0.682391	0.882230
	C161	C	0.616465	0.679335	0.102781
	C162	C	0.617787	0.315123	0.882522
	C163	C	0.368341	0.316737	0.102200
	C164	C	0.673165	0.888172	0.371126
	C165	C	0.674770	0.109712	0.617282
	C166	C	0.309046	0.889623	0.617383
	C167	C	0.313217	0.110955	0.370869
	C168	C	0.869097	0.388717	0.173741
	C169	C	0.118086	0.609080	0.173535
	C170	C	0.117182	0.389126	0.809530
	C171	C	0.865908	0.607866	0.808414
	C172	C	0.171540	0.879464	0.382532
	C173	C	0.177274	0.127067	0.602486
	C174	C	0.812989	0.121216	0.383363
	C175	C	0.809874	0.873485	0.603082
	C176	C	0.382249	0.181344	0.865414
	C177	C	0.602574	0.180764	0.116418
	C178	C	0.381933	0.817757	0.116561
	C179	C	0.603316	0.816342	0.868105
	C180	C	0.381773	0.875283	0.173839
	C181	C	0.602787	0.122975	0.174229
	C182	C	0.381899	0.122610	0.808906
	C183	C	0.603191	0.873034	0.809840
	C184	C	0.869722	0.179841	0.383370
	C185	C	0.120894	0.185924	0.601853
	C186	C	0.115996	0.819484	0.383036
	C187	C	0.865022	0.813624	0.601629
	C188	C	0.174587	0.388783	0.868341
	C189	C	0.176153	0.608865	0.116291
	C190	C	0.811415	0.388103	0.115112
	C191	C	0.808905	0.608241	0.867068
	C192	C	0.398176	0.089349	0.589055
	C193	C	0.588572	0.908520	0.588767
	C194	C	0.590409	0.090587	0.396073
	C195	C	0.394698	0.907895	0.396026
	C196	C	0.587524	0.401932	0.082872
	C197	C	0.586849	0.594866	0.901448
	C198	C	0.397178	0.596048	0.083067
	C199	C	0.396772	0.402141	0.900662
	C200	C	0.085598	0.597784	0.395320
	C201	C	0.900963	0.593209	0.586595
	C202	C	0.083236	0.405427	0.587321
	C203	C	0.901813	0.403208	0.395754
	C204	C	0.896105	0.590191	0.088631
	C205	C	0.090029	0.407397	0.089777
	C206	C	0.087161	0.588738	0.897036
	C207	C	0.897071	0.408353	0.896552
	C208	C	0.086554	0.904223	0.584214
	C209	C	0.089182	0.097793	0.402138
	C210	C	0.898720	0.095862	0.585070
	C211	C	0.896503	0.903277	0.402461
	C212	C	0.582951	0.093331	0.898403
	C213	C	0.400262	0.094306	0.088235
	C214	C	0.585109	0.902407	0.090281
	C215	C	0.402121	0.903478	0.897372
	Zn216	Zn	0.493181	-0.002223	0.743296
	Zn217	Zn	0.492302	-0.001248	0.242806
	Zn218	Zn	0.741615	0.498521	-0.008208
	Zn219	Zn	0.243130	0.498609	-0.007787
	Zn220	Zn	-0.007748	0.749416	0.492690
	Zn221	Zn	-0.007113	0.250228	0.492970
	Zn222	Zn	-0.008426	0.498909	0.741582
	Zn223	Zn	-0.006430	0.499507	0.242146
	Zn224	Zn	0.493266	0.749813	-0.007082
	Zn225	Zn	0.491823	0.248158	-0.008031
	Zn226	Zn	0.743598	-0.000719	0.494088
	Zn227	Zn	0.242355	0.000311	0.493166
	N228	N	0.406066	0.962830	0.672791
	N229	N	0.581476	0.033760	0.674652
	N230	N	0.579638	0.963786	0.313226
	N231	N	0.405260	0.034580	0.312581
	N232	N	0.672310	0.411168	0.956387
	N233	N	0.670882	0.584204	0.028233
	N234	N	0.312760	0.586086	0.956296
	N235	N	0.315561	0.414153	0.028711
	N236	N	0.957614	0.680150	0.404375
	N237	N	0.027739	0.678829	0.579245
	N238	N	0.956831	0.320257	0.578720
	N239	N	0.028933	0.319606	0.405208
	N240	N	0.957613	0.409863	0.674178
	N241	N	0.027777	0.585758	0.671987
	N242	N	0.957775	0.586677	0.311736
	N243	N	0.029982	0.414151	0.313417
	N244	N	0.404184	0.681273	0.957249
	N245	N	0.580066	0.679374	0.027486
	N246	N	0.580399	0.316753	0.957081
	N247	N	0.403227	0.316326	0.026391
	N248	N	0.673238	0.963485	0.406737
	N249	N	0.673156	0.035078	0.580318
	N250	N	0.310815	0.964790	0.581466
	N251	N	0.313480	0.035917	0.407241
	N252	N	0.905369	0.463831	0.172805
	N253	N	0.080878	0.534459	0.172158
	N254	N	0.080011	0.463671	0.811103
	N255	N	0.903556	0.533566	0.810402
	N256	N	0.169260	0.916252	0.457127
	N257	N	0.174142	0.088903	0.528384
	N258	N	0.814652	0.085066	0.458407
	N259	N	0.813166	0.912326	0.529401
	N260	N	0.457079	0.179574	0.903479
	N261	N	0.527463	0.178414	0.078992
	N262	N	0.457408	0.818872	0.080265
	N263	N	0.528652	0.819174	0.905803
	N264	N	0.457257	0.911829	0.172882
	N265	N	0.527842	0.085527	0.172485
	N266	N	0.456586	0.084829	0.812387
	N267	N	0.528311	0.910417	0.811728
	N268	N	0.906210	0.179465	0.458446
	N269	N	0.083287	0.183905	0.527358
	N270	N	0.079592	0.819535	0.458219
	N271	N	0.902068	0.815556	0.526802
	N272	N	0.172415	0.462969	0.905869
	N273	N	0.174218	0.534245	0.079660
	N274	N	0.812619	0.462779	0.078330
	N275	N	0.811628	0.534102	0.904777
	O276	O	0.652224	0.461564	0.461490
	H277	H	0.640087	0.456078	0.467567
	H278	H	0.646928	0.445585	0.462858
	O279	O	1.136851	0.069277	0.862727
	H280	H	1.121733	0.032062	0.865298
	H281	H	1.120536	0.076849	0.845531
	O282	O	0.481374	0.671165	0.285229
	H283	H	0.476715	0.680211	0.274915
	H284	H	0.467368	0.671062	0.278637
	O285	O	0.850172	1.188649	1.142015
	H286	H	0.863306	1.184921	1.142311
	H287	H	0.864810	1.175257	1.138813
	O288	O	0.864829	1.137613	0.049030
	H289	H	0.878867	1.135923	0.055883
	H290	H	0.862136	1.138151	0.059841
	O291	O	1.201648	-0.195091	-0.020059
	H292	H	1.210102	-0.210871	-0.020335
	H293	H	1.194502	-0.195575	-0.011333
	O294	O	-0.212261	0.107548	1.034817
	H295	H	-0.210805	0.097989	1.044674
	H296	H	-0.209490	0.105627	1.037541
	O297	O	0.482500	0.652338	0.682305
	H298	H	0.457497	0.648440	0.690233
	H299	H	0.476373	0.661097	0.689146
	O300	O	0.277356	0.499962	0.672217
	H301	H	0.263147	0.480779	0.684655
	H302	H	0.275546	0.462498	0.676117
	O303	O	0.685880	0.308547	0.299672
	H304	H	0.674621	0.295562	0.327779
	H305	H	0.697577	0.284241	0.302138
	O306	O	0.136060	0.864518	1.107497
	H307	H	0.123254	0.870869	1.104346
	H308	H	0.130135	0.856763	1.097201
	O309	O	0.302448	0.355638	0.680216
	H310	H	0.304752	0.343286	0.674575
	H311	H	0.328038	0.337170	0.664964
	O312	O	0.018729	1.212055	0.964987
	H313	H	0.019887	1.203248	0.974906
	H314	H	0.035557	1.213120	0.971548
	O315	O	0.679018	0.389321	0.532293
	H316	H	0.684445	0.395877	0.557986
	H317	H	0.665003	0.407401	0.539595
	O318	O	1.295732	0.634000	0.488034
	H319	H	1.286458	0.624515	0.502669
	H320	H	1.298449	0.634200	0.510707
	O321	O	-0.031183	-0.218195	0.209028
	H322	H	-0.063113	-0.224654	0.215463
	H323	H	-0.052452	-0.236766	0.221118
	O324	O	0.343001	0.418278	0.402293
	H325	H	0.357945	0.428246	0.400435
	H326	H	0.349064	0.430997	0.385364
	O327	O	0.543449	0.424310	0.695719
	H328	H	0.547199	0.437937	0.697150
	H329	H	0.563943	0.449771	0.689234
	O330	O	-0.026562	0.930580	0.081970
	H331	H	-0.030323	0.935412	0.077657
	H332	H	-0.025878	0.933624	0.083691
	O333	O	0.835722	0.871441	0.958882
	H334	H	0.828892	0.872458	0.954032
	H335	H	0.848178	0.865217	0.937698
	O336	O	0.066252	-0.050382	0.022961
	H337	H	0.070078	-0.044196	0.010738
	H338	H	0.044685	-0.046679	0.023160
	O339	O	0.194225	0.987065	0.990476
	H340	H	0.190768	0.983162	0.992617
	H341	H	0.183895	0.982164	0.974214
	O342	O	-0.223044	1.017269	0.781661
	H343	H	-0.217452	1.054479	0.798971
	H344	H	-0.257449	1.028014	0.750494
	O345	O	0.908518	0.862664	-0.010982
	H346	H	0.896525	0.855893	-0.017582
	H347	H	0.904627	0.865619	0.003559
	O348	O	1.205025	0.971072	0.777546
	H349	H	1.227781	0.971637	0.739036
	H350	H	1.170681	0.992719	0.774781
	O351	O	0.209210	1.218750	1.021834
	H352	H	0.212777	1.189611	1.015393
	H353	H	0.247112	1.242445	1.024943
	O354	O	-0.542416	0.684923	-0.465661
	H355	H	-0.543278	0.682553	-0.460899
	H356	H	-0.531833	0.687557	-0.469033
	O357	O	0.175439	0.191691	1.188230
	H358	H	0.193098	0.201535	1.171903
	H359	H	0.174105	0.160470	1.183790
	O360	O	0.710616	0.521338	0.706679
	H361	H	0.746933	0.527314	0.741133
	H362	H	0.696579	0.573741	0.695734
	O363	O	0.010731	0.208500	1.204396
	H364	H	0.027555	0.223524	1.210148
	H365	H	0.036995	0.204106	1.209452
	O366	O	0.349502	0.376745	0.491168
	H367	H	0.342969	0.394594	0.484999
	H368	H	0.367556	0.373689	0.472269
	O369	O	0.481750	0.483283	0.308989
	H370	H	0.501291	0.487471	0.305462
	H371	H	0.488932	0.464859	0.308298
	O372	O	1.013280	-0.223019	0.771780
	H373	H	1.025448	-0.240962	0.748200
	H374	H	1.045242	-0.221544	0.769110
	O375	O	0.301507	0.691342	0.316115
	H376	H	0.302792	0.705917	0.345977
	H377	H	0.282743	0.700183	0.311906
	O378	O	0.678838	0.472055	0.280789
	H379	H	0.676669	0.448642	0.273424
	H380	H	0.689270	0.444331	0.264719
	O381	O	0.811076	0.173827	0.807193
	H382	H	0.853568	0.182128	0.795363
	H383	H	0.804515	0.176062	0.851884
	O384	O	0.949672	0.912977	0.184717
	H385	H	0.946257	0.901961	0.180103
	H386	H	0.944979	0.930442	0.180180
	O387	O	-0.068422	-0.064269	0.789577
	H388	H	-0.077489	-0.079425	0.789818
	H389	H	-0.089439	-0.074128	0.782944
	O390	O	-0.190466	-0.034423	0.194682
	H391	H	-0.173271	-0.027318	0.192179
	H392	H	-0.200534	-0.038882	0.212676
	O393	O	0.664996	0.634476	0.380901
	H394	H	0.652403	0.614356	0.394601
	H395	H	0.655478	0.614111	0.371306
	O396	O	1.063191	-0.125883	-0.000946
	H397	H	1.064180	-0.130245	0.001140
	H398	H	1.045803	-0.131962	-0.005249
	O399	O	1.175406	-0.192215	0.804372
	H400	H	1.182633	-0.150740	0.802820
	H401	H	1.181487	-0.194192	0.846532
	O402	O	1.671968	0.677395	1.675013
	H403	H	1.634456	0.693232	1.680753
	H404	H	1.668534	0.689300	1.634349
	O405	O	0.787189	0.794302	0.118110
	H406	H	0.786161	0.803357	0.101361
	H407	H	0.764402	0.774092	0.132444
	O408	O	1.193658	0.027033	0.195196
	H409	H	1.200687	0.029812	0.184357
	H410	H	1.195431	0.010195	0.203296
	O411	O	0.976181	1.206554	-0.218779
	H412	H	0.994691	1.220134	-0.194421
	H413	H	0.977821	1.229446	-0.225772
	O414	O	0.691046	0.702282	0.507438
	H415	H	0.703023	0.695047	0.499394
	H416	H	0.699928	0.698388	0.494462
	O417	O	0.369236	0.533227	0.545554
	H418	H	0.352577	0.531682	0.547990
	H419	H	0.372189	0.524380	0.552112
	O420	O	-0.180759	-0.104375	-0.099674
	H421	H	-0.193637	-0.106347	-0.096066
	H422	H	-0.168867	-0.103845	-0.104858
	O423	O	0.545354	0.533486	0.480465
	H424	H	0.543170	0.542582	0.458670
	H425	H	0.521909	0.528283	0.489868
	O426	O	0.414477	0.595560	0.696817
	H427	H	0.389610	0.585197	0.696762
	H428	H	0.411393	0.581992	0.694883
	O429	O	0.553974	0.291649	0.484014
	H430	H	0.544637	0.277856	0.497345
	H431	H	0.550526	0.312911	0.495967
	O432	O	0.489651	0.327373	0.350911
	H433	H	0.497004	0.315033	0.359029
	H434	H	0.498030	0.323571	0.361152
	O435	O	0.292216	0.526299	0.297926
	H436	H	0.288562	0.527983	0.282146
	H437	H	0.297728	0.546633	0.293245
	O438	O	-0.109278	0.045264	0.034467
	H439	H	-0.111954	0.043947	0.038711
	H440	H	-0.103309	0.034397	0.022860
	O441	O	1.054396	0.097603	-0.169904
	H442	H	1.037143	0.081600	-0.169758
	H443	H	1.046166	0.108909	-0.157245
	O444	O	-0.444410	1.317798	1.409213
	H445	H	-0.448536	1.303090	1.408102
	H446	H	-0.440458	1.316171	1.426946
	O447	O	0.388857	0.357112	0.529439
	H448	H	0.393628	0.351712	0.520710
	H449	H	0.387832	0.366160	0.514808
	O450	O	0.459951	0.675523	0.409906
	H451	H	0.465980	0.667677	0.422759
	H452	H	0.450281	0.690823	0.406754
	O453	O	0.520666	0.306951	0.676058
	H454	H	0.540215	0.314799	0.682255
	H455	H	0.531674	0.309166	0.698781
