data_Molecule from HDF5

_cell_length_a		16.568941
_cell_length_b		16.496736
_cell_length_c		16.269020
_cell_angle_alpha	89.971135
_cell_angle_beta	90.059718
_cell_angle_gamma	90.099443
_symmetry_space_group_name_H-M	'P 1'
_symmetry_Int_Tables_number		1

loop_
	_symmetry_equiv_pos_as_xyz
	x,y,z

loop_
	_atom_site_label
	_atom_site_type_symbol
	_atom_site_fract_x
	_atom_site_fract_y
	_atom_site_fract_z
	H0	H	0.386766	0.848067	0.716110
	H1	H	0.598028	0.162819	0.712716
	H2	H	0.598587	0.848257	0.271434
	H3	H	0.389033	0.163090	0.269137
	H4	H	0.722573	0.394595	0.840006
	H5	H	0.716113	0.614156	0.154555
	H6	H	0.271547	0.612374	0.835446
	H7	H	0.273110	0.396365	0.153252
	H8	H	0.838487	0.729449	0.386087
	H9	H	0.149223	0.733486	0.606303
	H10	H	0.839854	0.279629	0.603891
	H11	H	0.150570	0.280016	0.385098
	H12	H	0.838703	0.398493	0.718038
	H13	H	0.152592	0.610799	0.716629
	H14	H	0.837972	0.610585	0.272002
	H15	H	0.153281	0.400256	0.273797
	H16	H	0.387477	0.727834	0.834467
	H17	H	0.599578	0.727440	0.153563
	H18	H	0.604121	0.281428	0.837137
	H19	H	0.386491	0.280595	0.151421
	H20	H	0.721457	0.851593	0.378909
	H21	H	0.718459	0.160845	0.600682
	H22	H	0.267557	0.851936	0.603485
	H23	H	0.269523	0.162926	0.381713
	H24	H	0.889265	0.346884	0.217627
	H25	H	0.098796	0.662876	0.214225
	H26	H	0.100071	0.347609	0.771632
	H27	H	0.891495	0.664365	0.774955
	H28	H	0.215719	0.899801	0.336376
	H29	H	0.220691	0.117942	0.651460
	H30	H	0.771530	0.114061	0.335342
	H31	H	0.769805	0.897437	0.651351
	H32	H	0.341464	0.234601	0.878825
	H33	H	0.649138	0.231315	0.104689
	H34	H	0.339050	0.781227	0.100315
	H35	H	0.650203	0.779493	0.882254
	H36	H	0.338342	0.900561	0.214698
	H37	H	0.650873	0.112478	0.217338
	H38	H	0.338025	0.112193	0.769051
	H39	H	0.650405	0.898069	0.769003
	H40	H	0.886159	0.229541	0.336793
	H41	H	0.100755	0.227537	0.654048
	H42	H	0.100371	0.783702	0.337252
	H43	H	0.884850	0.783189	0.653016
	H44	H	0.221019	0.349090	0.882502
	H45	H	0.218092	0.660575	0.101557
	H46	H	0.767701	0.350579	0.107891
	H47	H	0.772337	0.662689	0.887972
	H48	H	0.405639	0.119733	0.585128
	H49	H	0.580518	0.892430	0.580853
	H50	H	0.587944	0.120102	0.406910
	H51	H	0.407009	0.894565	0.402933
	H52	H	0.581332	0.416742	0.109230
	H53	H	0.586840	0.596730	0.877937
	H54	H	0.410551	0.596451	0.106864
	H55	H	0.406492	0.422014	0.881525
	H56	H	0.106407	0.593730	0.405869
	H57	H	0.881810	0.593937	0.585979
	H58	H	0.105569	0.415110	0.579152
	H59	H	0.881057	0.410268	0.405475
	H60	H	0.105246	0.420442	0.581747
	H61	H	0.881454	0.598725	0.583348
	H62	H	0.107783	0.598163	0.406282
	H63	H	0.886871	0.417796	0.414360
	H64	H	0.401389	0.595246	0.110340
	H65	H	0.586409	0.585698	0.882590
	H66	H	0.581873	0.420432	0.107698
	H67	H	0.410679	0.419748	0.881855
	H68	H	0.581304	0.118539	0.402843
	H69	H	0.583417	0.893297	0.576373
	H70	H	0.412400	0.115738	0.578520
	H71	H	0.405231	0.896219	0.411250
	H72	H	0.902921	0.616764	0.078865
	H73	H	0.086049	0.391478	0.081667
	H74	H	0.081593	0.615914	0.907270
	H75	H	0.904340	0.392933	0.910691
	H76	H	0.080648	0.924073	0.606908
	H77	H	0.082748	0.095751	0.379506
	H78	H	0.907373	0.093610	0.607683
	H79	H	0.910112	0.914820	0.380189
	H80	H	0.606090	0.089836	0.901101
	H81	H	0.381715	0.093952	0.084835
	H82	H	0.607841	0.917462	0.083528
	H83	H	0.380653	0.911380	0.903925
	H84	H	0.609116	0.912304	0.083164
	H85	H	0.383457	0.096877	0.073547
	H86	H	0.608086	0.099495	0.905040
	H87	H	0.384353	0.915294	0.910162
	H88	H	0.905022	0.090294	0.608305
	H89	H	0.083721	0.091609	0.381349
	H90	H	0.079238	0.919061	0.608516
	H91	H	0.902997	0.917521	0.378899
	H92	H	0.086488	0.616438	0.911976
	H93	H	0.085489	0.390119	0.084544
	H94	H	0.904246	0.619358	0.086683
	H95	H	0.907897	0.393640	0.906404
	H96	H	0.403116	0.117647	0.575425
	H97	H	0.585957	0.891368	0.580718
	H98	H	0.582300	0.116277	0.410450
	H99	H	0.399600	0.892964	0.405938
	H100	H	0.578498	0.418410	0.107069
	H101	H	0.576743	0.592630	0.882982
	H102	H	0.406227	0.588268	0.105824
	H103	H	0.407628	0.417105	0.879906
	H104	H	0.105104	0.596191	0.409912
	H105	H	0.884043	0.594469	0.581055
	H106	H	0.108157	0.416154	0.584581
	H107	H	0.884445	0.422627	0.402517
	H108	H	0.910201	0.615158	0.082667
	H109	H	0.083018	0.392300	0.082698
	H110	H	0.087289	0.618401	0.905691
	H111	H	0.908909	0.395530	0.911484
	H112	H	0.084022	0.920525	0.609537
	H113	H	0.079711	0.093772	0.381818
	H114	H	0.908163	0.090148	0.605587
	H115	H	0.908757	0.922055	0.382709
	H116	H	0.603052	0.092077	0.911310
	H117	H	0.386276	0.086015	0.077459
	H118	H	0.607260	0.914795	0.078672
	H119	H	0.383212	0.918956	0.902911
	C120	C	0.372636	0.014779	0.614688
	C121	C	0.615969	0.995932	0.613356
	C122	C	0.616515	0.014941	0.371911
	C123	C	0.371981	0.998308	0.371940
	C124	C	0.615926	0.384219	0.004159
	C125	C	0.615402	0.625708	0.986597
	C126	C	0.373448	0.626065	0.002211
	C127	C	0.374241	0.384419	0.985447
	C128	C	0.002932	0.628133	0.373639
	C129	C	0.985814	0.628809	0.617565
	C130	C	0.003111	0.383794	0.615887
	C131	C	0.987063	0.383553	0.373524
	C132	C	0.872856	0.513597	0.117217
	C133	C	0.116847	0.495324	0.115824
	C134	C	0.117485	0.513203	0.873488
	C135	C	0.873978	0.497691	0.875263
	C136	C	0.114389	0.887211	0.503618
	C137	C	0.116094	0.127723	0.485541
	C138	C	0.873468	0.125768	0.502649
	C139	C	0.872790	0.884535	0.485406
	C140	C	0.503328	0.127938	0.870987
	C141	C	0.486453	0.126272	0.113828
	C142	C	0.504206	0.882637	0.114865
	C143	C	0.486030	0.882329	0.871323
	C144	C	0.368674	0.896250	0.676471
	C145	C	0.617525	0.114987	0.673765
	C146	C	0.618119	0.896282	0.310635
	C147	C	0.369992	0.115813	0.309164
	C148	C	0.680101	0.378719	0.886471
	C149	C	0.675666	0.630312	0.106657
	C150	C	0.311845	0.630004	0.882980
	C151	C	0.313050	0.379267	0.104904
	C152	C	0.885249	0.688657	0.369424
	C153	C	0.102934	0.691530	0.622778
	C154	C	0.886357	0.321106	0.620893
	C155	C	0.104109	0.321546	0.368690
	C156	C	0.885633	0.380361	0.677651
	C157	C	0.104499	0.630377	0.677769
	C158	C	0.885348	0.629599	0.312178
	C159	C	0.105388	0.381336	0.312886
	C160	C	0.369983	0.687257	0.882500
	C161	C	0.617702	0.687036	0.106042
	C162	C	0.621103	0.322308	0.885006
	C163	C	0.369522	0.321369	0.104085
	C164	C	0.679253	0.897955	0.364514
	C165	C	0.677442	0.114199	0.618032
	C166	C	0.309146	0.897855	0.620464
	C167	C	0.310500	0.115697	0.365598
	C168	C	0.870878	0.394903	0.178167
	C169	C	0.118170	0.614908	0.175178
	C170	C	0.119013	0.395024	0.811709
	C171	C	0.872475	0.616602	0.814653
	C172	C	0.175384	0.882547	0.384009
	C173	C	0.179001	0.133605	0.604347
	C174	C	0.812085	0.130822	0.383326
	C175	C	0.810193	0.880180	0.603803
	C176	C	0.387336	0.191958	0.863832
	C177	C	0.602987	0.189267	0.119990
	C178	C	0.386024	0.822060	0.118048
	C179	C	0.603166	0.820474	0.865764
	C180	C	0.385526	0.881432	0.174901
	C181	C	0.603910	0.130182	0.176530
	C182	C	0.385568	0.130872	0.808955
	C183	C	0.603292	0.879426	0.809006
	C184	C	0.869127	0.188599	0.384089
	C185	C	0.119283	0.188189	0.605835
	C186	C	0.117931	0.824787	0.384656
	C187	C	0.867805	0.823246	0.604755
	C188	C	0.179379	0.395758	0.866757
	C189	C	0.177704	0.613631	0.119232
	C190	C	0.810212	0.396526	0.123240
	C191	C	0.812890	0.615523	0.870764
	C192	C	0.399209	0.096346	0.587535
	C193	C	0.590684	0.914008	0.586945
	C194	C	0.591002	0.096653	0.398946
	C195	C	0.396774	0.916079	0.398937
	C196	C	0.588495	0.410825	0.086524
	C197	C	0.590395	0.599315	0.903102
	C198	C	0.398793	0.600444	0.085817
	C199	C	0.400641	0.411691	0.902690
	C200	C	0.085102	0.603347	0.400118
	C201	C	0.903860	0.603220	0.591190
	C202	C	0.084867	0.409776	0.589395
	C203	C	0.905327	0.409459	0.399816
	C204	C	0.898394	0.595784	0.090289
	C205	C	0.091927	0.412987	0.090436
	C206	C	0.092425	0.595398	0.900630
	C207	C	0.899536	0.415504	0.901713
	C208	C	0.088701	0.913732	0.586716
	C209	C	0.089692	0.101261	0.402728
	C210	C	0.899477	0.099074	0.585679
	C211	C	0.899586	0.910631	0.402178
	C212	C	0.584609	0.101388	0.898141
	C213	C	0.405212	0.099826	0.086454
	C214	C	0.586573	0.907560	0.089180
	C215	C	0.404275	0.907757	0.897938
	Zn216	Zn	0.494294	0.004996	0.742693
	Zn217	Zn	0.494857	0.005610	0.243473
	Zn218	Zn	0.743923	0.506035	-0.003403
	Zn219	Zn	0.246314	0.504134	-0.005655
	Zn220	Zn	-0.005873	0.757736	0.495665
	Zn221	Zn	-0.005386	0.254357	0.494845
	Zn222	Zn	-0.005121	0.505435	0.745490
	Zn223	Zn	-0.004314	0.504869	0.244740
	Zn224	Zn	0.495326	0.753839	-0.007060
	Zn225	Zn	0.494219	0.256209	-0.006033
	Zn226	Zn	0.745266	0.005359	0.492766
	Zn227	Zn	0.243429	0.007435	0.493918
	N228	N	0.407393	0.969915	0.673065
	N229	N	0.580057	0.040703	0.671156
	N230	N	0.579619	0.969842	0.315136
	N231	N	0.407430	0.041749	0.312955
	N232	N	0.676984	0.416462	0.961557
	N233	N	0.674287	0.592787	0.031018
	N234	N	0.314337	0.592535	0.958333
	N235	N	0.315658	0.417516	0.029916
	N236	N	0.959501	0.687811	0.407133
	N237	N	0.027957	0.690834	0.586189
	N238	N	0.960589	0.323302	0.583304
	N239	N	0.029338	0.322317	0.405266
	N240	N	0.959099	0.418775	0.674661
	N241	N	0.030700	0.592177	0.674654
	N242	N	0.959476	0.592470	0.314733
	N243	N	0.031524	0.419209	0.315750
	N244	N	0.407458	0.685131	0.958008
	N245	N	0.580989	0.684268	0.030439
	N246	N	0.582013	0.325410	0.959342
	N247	N	0.406560	0.324260	0.028558
	N248	N	0.678492	0.972761	0.401946
	N249	N	0.676927	0.039178	0.581539
	N250	N	0.311331	0.972514	0.582941
	N251	N	0.311744	0.041418	0.404110
	N252	N	0.909086	0.468976	0.174721
	N253	N	0.081319	0.540451	0.173524
	N254	N	0.081442	0.469264	0.815401
	N255	N	0.909345	0.542087	0.816887
	N256	N	0.173332	0.920633	0.459133
	N257	N	0.177266	0.096884	0.528430
	N258	N	0.814670	0.092442	0.458112
	N259	N	0.813023	0.917280	0.528139
	N260	N	0.461611	0.190487	0.901593
	N261	N	0.529080	0.186848	0.081603
	N262	N	0.460907	0.822632	0.081593
	N263	N	0.529085	0.822106	0.903698
	N264	N	0.459957	0.918240	0.173190
	N265	N	0.530478	0.091542	0.172736
	N266	N	0.458846	0.092037	0.813068
	N267	N	0.529518	0.917191	0.812131
	N268	N	0.906844	0.185558	0.459365
	N269	N	0.080999	0.184928	0.530977
	N270	N	0.080811	0.827496	0.460055
	N271	N	0.906079	0.825910	0.529998
	N272	N	0.178436	0.470328	0.904435
	N273	N	0.177241	0.538287	0.083080
	N274	N	0.811582	0.471344	0.086190
	N275	N	0.813448	0.540369	0.907605
	O276	O	0.499288	0.319399	0.415804
	H277	H	0.504555	0.324143	0.400742
	H278	H	0.501923	0.335489	0.432858
	O279	O	1.127126	-0.007673	1.199571
	H280	H	1.154647	-0.005114	1.213590
	H281	H	1.113572	-0.015467	1.185180
	O282	O	0.613243	0.297886	0.605479
	H283	H	0.599222	0.323260	0.603716
	H284	H	0.602488	0.299849	0.603054
	O285	O	0.672343	0.676509	0.670043
	H286	H	0.620007	0.690788	0.682280
	H287	H	0.678865	0.685314	0.617532
	O288	O	1.019589	1.219512	0.208565
	H289	H	1.006787	1.237066	0.212249
	H290	H	1.004812	1.214621	0.228494
	O291	O	1.183637	-0.159905	0.146463
	H292	H	1.169807	-0.170420	0.122170
	H293	H	1.170422	-0.143269	0.149586
	O294	O	-0.220777	-0.010252	0.851766
	H295	H	-0.215440	0.033420	0.856377
	H296	H	-0.240498	-0.001738	0.824057
	O297	O	0.448833	0.496124	0.469631
	H298	H	0.468682	0.483166	0.469646
	H299	H	0.443295	0.498322	0.471655
	O300	O	0.715856	0.451571	0.554676
	H301	H	0.719008	0.468944	0.592545
	H302	H	0.717454	0.455847	0.548374
	O303	O	0.317298	0.334678	0.666256
	H304	H	0.306725	0.354444	0.644159
	H305	H	0.368658	0.321563	0.677228
	O306	O	0.115253	0.948070	1.070393
	H307	H	0.094304	0.935110	1.079910
	H308	H	0.118230	0.945981	1.060715
	O309	O	0.423870	0.483747	0.321775
	H310	H	0.418623	0.490837	0.321862
	H311	H	0.424869	0.469010	0.332252
	O312	O	-0.010138	1.216659	0.822863
	H313	H	0.000289	1.224145	0.816489
	H314	H	-0.002945	1.205380	0.812614
	O315	O	0.346699	0.539131	0.532282
	H316	H	0.339357	0.536641	0.545878
	H317	H	0.348264	0.527826	0.513965
	O318	O	1.295595	0.701355	0.301986
	H319	H	1.308539	0.721738	0.282672
	H320	H	1.298595	0.696699	0.302291
	O321	O	0.187818	0.224288	-0.007288
	H322	H	0.209023	0.225801	-0.018120
	H323	H	0.199546	0.229100	0.014149
	O324	O	0.332426	0.394011	0.414485
	H325	H	0.313203	0.404031	0.405845
	H326	H	0.342463	0.370698	0.436976
	O327	O	0.717826	0.525800	0.718493
	H328	H	0.709589	0.572578	0.709375
	H329	H	0.748737	0.539144	0.751444
	O330	O	0.186220	0.795964	-0.019797
	H331	H	0.186917	0.800323	-0.043231
	H332	H	0.193499	0.788879	-0.019284
	O333	O	0.789420	0.795473	1.013001
	H334	H	0.773815	0.820398	0.999427
	H335	H	0.768236	0.790208	1.011105
	O336	O	0.179131	-0.173833	-0.184394
	H337	H	0.185606	-0.155226	-0.166237
	H338	H	0.145418	-0.167784	-0.195946
	O339	O	-0.208586	0.990000	1.194853
	H340	H	-0.211582	0.981772	1.189322
	H341	H	-0.216492	0.992688	1.210525
	O342	O	0.213266	1.101751	0.935558
	H343	H	0.210733	1.080623	0.943623
	H344	H	0.214835	1.107954	0.947576
	O345	O	1.036524	1.093115	-0.207403
	H346	H	1.031752	1.081002	-0.195211
	H347	H	1.047988	1.087524	-0.205839
	O348	O	1.206976	0.985906	0.781158
	H349	H	1.215078	0.991773	0.769171
	H350	H	1.219281	0.992002	0.778530
	O351	O	0.175621	1.179254	1.165233
	H352	H	0.182411	1.159120	1.148234
	H353	H	0.127404	1.192435	1.175655
	O354	O	-0.326278	0.330789	-0.682894
	H355	H	-0.316116	0.317703	-0.630287
	H356	H	-0.366234	0.332089	-0.693745
	O357	O	-0.054993	-0.067704	0.813881
	H358	H	-0.066589	-0.056055	0.834768
	H359	H	-0.073283	-0.058454	0.810277
	O360	O	0.503246	0.591232	0.415175
	H361	H	0.492654	0.578161	0.421552
	H362	H	0.499908	0.603542	0.414248
	O363	O	-0.033591	-0.082988	0.914968
	H364	H	-0.053875	-0.085300	0.916763
	H365	H	-0.028537	-0.094406	0.915601
	O366	O	0.384504	0.651429	0.582813
	H367	H	0.369726	0.651096	0.566793
	H368	H	0.370787	0.646230	0.558988
	O369	O	0.701803	0.488667	0.286759
	H370	H	0.707898	0.476619	0.267849
	H371	H	0.709833	0.462670	0.287697
	O372	O	1.019490	-0.207735	0.779100
	H373	H	1.021582	-0.231935	0.744508
	H374	H	1.007241	-0.177381	0.770730
	O375	O	0.282825	0.723142	0.473803
	H376	H	0.263636	0.736135	0.448635
	H377	H	0.270247	0.709068	0.468946
	O378	O	0.587388	0.652467	0.345630
	H379	H	0.589077	0.665055	0.362291
	H380	H	0.577657	0.638225	0.346961
	O381	O	0.804370	0.190800	0.804992
	H382	H	0.844697	0.203060	0.809260
	H383	H	0.783035	0.214036	0.818944
	O384	O	0.287927	0.527496	0.281008
	H385	H	0.277269	0.548411	0.267399
	H386	H	0.280944	0.527176	0.279052
	O387	O	-0.215770	-0.018484	0.860568
	H388	H	-0.231281	0.004232	0.857680
	H389	H	-0.212012	0.015393	0.847741
	O390	O	-0.182560	-0.171639	0.175155
	H391	H	-0.158772	-0.161720	0.178843
	H392	H	-0.198659	-0.177526	0.149735
	O393	O	0.514616	0.717321	0.704599
	H394	H	0.493339	0.726753	0.683204
	H395	H	0.506911	0.744149	0.719012
	O396	O	0.805209	0.045034	0.031687
	H397	H	0.801468	0.058956	0.042477
	H398	H	0.814416	0.052604	0.040965
	O399	O	1.030849	-0.194398	1.016633
	H400	H	1.027968	-0.203717	1.003602
	H401	H	1.022685	-0.202030	1.002071
	O402	O	1.489784	0.719174	1.330046
	H403	H	1.491337	0.724312	1.326055
	H404	H	1.513617	0.715333	1.322668
	O405	O	0.982266	0.800446	0.198679
	H406	H	0.972738	0.801804	0.176281
	H407	H	0.978628	0.788153	0.217747
	O408	O	1.147266	-0.015754	0.077884
	H409	H	1.154396	-0.003131	0.077513
	H410	H	1.128442	-0.001754	0.081945
	O411	O	0.983988	1.016857	0.093424
	H412	H	0.980731	1.003830	0.090995
	H413	H	0.983916	1.009174	0.081999
	O414	O	0.666547	0.545962	0.457959
	H415	H	0.671213	0.542098	0.458186
	H416	H	0.665903	0.536148	0.432857
	O417	O	0.706120	0.725207	0.512726
	H418	H	0.707391	0.720266	0.503656
	H419	H	0.726239	0.741027	0.504287
	O420	O	-0.104542	0.148615	0.049691
	H421	H	-0.111636	0.136488	0.047492
	H422	H	-0.080810	0.161946	0.040140
	O423	O	0.696076	0.299043	0.482844
	H424	H	0.696352	0.311718	0.500085
	H425	H	0.692402	0.288664	0.491411
	O426	O	0.279511	0.290485	0.509893
	H427	H	0.279321	0.283299	0.533494
	H428	H	0.279226	0.266164	0.501031
	O429	O	0.475978	0.296017	0.704042
	H430	H	0.476466	0.269504	0.742301
	H431	H	0.503917	0.335684	0.710556
	O432	O	0.513471	0.673295	0.427208
	H433	H	0.510332	0.671837	0.429868
	H434	H	0.509230	0.666908	0.417512
	O435	O	0.479927	0.300804	0.351673
	H436	H	0.482570	0.297512	0.345168
	H437	H	0.468478	0.302877	0.351345
	O438	O	-0.003794	0.226615	-0.006872
	H439	H	0.007747	0.222866	-0.010870
	H440	H	0.026898	0.229588	-0.002432
	O441	O	0.779705	0.219949	-0.029271
	H442	H	0.801555	0.233832	-0.010160
	H443	H	0.762534	0.240869	-0.037565
	O444	O	-0.021838	1.055374	1.134010
	H445	H	-0.024443	1.038446	1.138777
	H446	H	-0.028630	1.047353	1.129039
	O447	O	0.563359	0.441066	0.713987
	H448	H	0.601560	0.464239	0.722056
	H449	H	0.539967	0.474418	0.708378
	O450	O	0.448899	0.554263	0.704025
	H451	H	0.417648	0.554096	0.701343
	H452	H	0.447726	0.578704	0.702383
	O453	O	0.287761	0.518967	0.673862
	H454	H	0.277816	0.496966	0.678969
	H455	H	0.281063	0.525090	0.665252
