data_Molecule from HDF5

_cell_length_a		16.263300
_cell_length_b		16.296727
_cell_length_c		16.229558
_cell_angle_alpha	89.775193
_cell_angle_beta	89.590672
_cell_angle_gamma	90.355292
_symmetry_space_group_name_H-M	'P 1'
_symmetry_Int_Tables_number		1

loop_
	_symmetry_equiv_pos_as_xyz
	x,y,z

loop_
	_atom_site_label
	_atom_site_type_symbol
	_atom_site_fract_x
	_atom_site_fract_y
	_atom_site_fract_z
	H0	H	0.407853	0.827997	0.715347
	H1	H	0.606677	0.155302	0.711293
	H2	H	0.608679	0.827328	0.284922
	H3	H	0.412138	0.154198	0.283835
	H4	H	0.723420	0.393108	0.834901
	H5	H	0.720619	0.589041	0.162234
	H6	H	0.296924	0.588071	0.833289
	H7	H	0.291518	0.389421	0.161961
	H8	H	0.845892	0.706297	0.400228
	H9	H	0.173354	0.706402	0.596611
	H10	H	0.845682	0.274530	0.600397
	H11	H	0.173264	0.278470	0.399868
	H12	H	0.844871	0.391608	0.715123
	H13	H	0.172988	0.589116	0.711301
	H14	H	0.844844	0.590194	0.285301
	H15	H	0.172351	0.395139	0.283905
	H16	H	0.410116	0.706825	0.835359
	H17	H	0.606756	0.703840	0.162923
	H18	H	0.607038	0.277595	0.834355
	H19	H	0.407011	0.275092	0.162446
	H20	H	0.724501	0.828108	0.400276
	H21	H	0.725121	0.154311	0.598182
	H22	H	0.290395	0.829341	0.602225
	H23	H	0.295957	0.154783	0.400855
	H24	H	0.907897	0.328096	0.214993
	H25	H	0.109660	0.654686	0.211841
	H26	H	0.105558	0.326522	0.785321
	H27	H	0.912475	0.654920	0.785065
	H28	H	0.225676	0.892271	0.336831
	H29	H	0.221867	0.091277	0.664017
	H30	H	0.797179	0.090911	0.335000
	H31	H	0.792365	0.891193	0.663028
	H32	H	0.344314	0.203901	0.900695
	H33	H	0.671042	0.208023	0.097533
	H34	H	0.344968	0.774531	0.099822
	H35	H	0.673056	0.777897	0.898368
	H36	H	0.345412	0.889950	0.216472
	H37	H	0.673380	0.089471	0.211305
	H38	H	0.344698	0.089663	0.784977
	H39	H	0.672646	0.895035	0.783640
	H40	H	0.910095	0.207352	0.336263
	H41	H	0.107037	0.206005	0.663198
	H42	H	0.110912	0.776856	0.335906
	H43	H	0.907887	0.774686	0.662917
	H44	H	0.222100	0.326443	0.899569
	H45	H	0.225094	0.652695	0.095853
	H46	H	0.790982	0.327634	0.099557
	H47	H	0.795853	0.654956	0.899748
	H48	H	0.421270	0.106762	0.592074
	H49	H	0.608341	0.872936	0.592980
	H50	H	0.597966	0.106250	0.404938
	H51	H	0.422608	0.873403	0.398626
	H52	H	0.595950	0.387918	0.118154
	H53	H	0.605051	0.582799	0.881447
	H54	H	0.413961	0.575668	0.113292
	H55	H	0.421998	0.390165	0.881278
	H56	H	0.126260	0.588195	0.404823
	H57	H	0.892999	0.588858	0.586459
	H58	H	0.127577	0.398001	0.599679
	H59	H	0.892296	0.401193	0.406825
	H60	H	0.126139	0.391612	0.587323
	H61	H	0.894322	0.576679	0.591669
	H62	H	0.124005	0.584562	0.407647
	H63	H	0.890606	0.394549	0.406499
	H64	H	0.420904	0.583014	0.113359
	H65	H	0.598986	0.584062	0.882535
	H66	H	0.608080	0.402214	0.116546
	H67	H	0.407263	0.393456	0.878351
	H68	H	0.606542	0.106979	0.408820
	H69	H	0.595374	0.874231	0.598556
	H70	H	0.412370	0.107884	0.588166
	H71	H	0.422316	0.880611	0.420488
	H72	H	0.921317	0.605131	0.090269
	H73	H	0.090381	0.375790	0.096072
	H74	H	0.105261	0.607187	0.904826
	H75	H	0.916957	0.378708	0.918770
	H76	H	0.098579	0.899749	0.616146
	H77	H	0.108622	0.076246	0.383422
	H78	H	0.914304	0.079343	0.615306
	H79	H	0.913358	0.895729	0.380327
	H80	H	0.627663	0.090329	0.901392
	H81	H	0.394354	0.071692	0.093537
	H82	H	0.626503	0.897980	0.094695
	H83	H	0.389003	0.887427	0.906532
	H84	H	0.625948	0.893664	0.090094
	H85	H	0.388575	0.086219	0.099692
	H86	H	0.623031	0.085692	0.912327
	H87	H	0.396082	0.899512	0.916741
	H88	H	0.919964	0.082534	0.614494
	H89	H	0.092100	0.085538	0.385135
	H90	H	0.098590	0.899121	0.615639
	H91	H	0.916245	0.906450	0.385371
	H92	H	0.102178	0.607229	0.903870
	H93	H	0.099933	0.376861	0.082853
	H94	H	0.909595	0.607553	0.087023
	H95	H	0.904307	0.370884	0.904794
	H96	H	0.413476	0.109925	0.597768
	H97	H	0.598606	0.878028	0.584260
	H98	H	0.605834	0.110286	0.400027
	H99	H	0.404045	0.872167	0.410247
	H100	H	0.590297	0.404391	0.110707
	H101	H	0.603098	0.588402	0.880063
	H102	H	0.412622	0.584903	0.117210
	H103	H	0.416751	0.404996	0.883383
	H104	H	0.125930	0.583511	0.403672
	H105	H	0.889544	0.586777	0.599466
	H106	H	0.122947	0.404820	0.588236
	H107	H	0.893451	0.396903	0.412206
	H108	H	0.912722	0.609899	0.098924
	H109	H	0.105313	0.370336	0.096365
	H110	H	0.102571	0.606480	0.906827
	H111	H	0.923791	0.375590	0.899491
	H112	H	0.099349	0.898989	0.616352
	H113	H	0.108582	0.093993	0.378753
	H114	H	0.914505	0.085965	0.617626
	H115	H	0.924186	0.897703	0.384425
	H116	H	0.623458	0.078842	0.901650
	H117	H	0.393821	0.085337	0.083365
	H118	H	0.623354	0.899512	0.088701
	H119	H	0.391174	0.904022	0.899821
	C120	C	0.386266	-0.000005	0.622100
	C121	C	0.630155	0.982895	0.620443
	C122	C	0.631890	-0.000196	0.376617
	C123	C	0.388162	0.983057	0.379403
	C124	C	0.627982	0.370166	0.006998
	C125	C	0.630228	0.612775	0.989858
	C126	C	0.387455	0.610858	0.006467
	C127	C	0.385569	0.367406	0.989573
	C128	C	0.017550	0.613958	0.376858
	C129	C	1.000571	0.612713	0.620364
	C130	C	0.017320	0.369189	0.621185
	C131	C	1.000156	0.369386	0.378177
	C132	C	0.885110	0.499671	0.121308
	C133	C	0.129301	0.482083	0.119895
	C134	C	0.130848	0.498644	0.876443
	C135	C	0.887093	0.483000	0.877870
	C136	C	0.129552	0.870596	0.508115
	C137	C	0.130907	0.113791	0.490889
	C138	C	0.887722	0.112569	0.507960
	C139	C	0.887140	0.869547	0.490811
	C140	C	0.516416	0.112631	0.877137
	C141	C	0.500475	0.110931	0.120152
	C142	C	0.517274	0.867924	0.121289
	C143	C	0.500545	0.869471	0.877777
	C144	C	0.387560	0.877058	0.677734
	C145	C	0.627777	0.106068	0.674618
	C146	C	0.629230	0.876304	0.322429
	C147	C	0.391312	0.105599	0.322482
	C148	C	0.684940	0.372688	0.883629
	C149	C	0.683926	0.609758	0.113423
	C150	C	0.333639	0.608788	0.882819
	C151	C	0.329515	0.369424	0.112954
	C152	C	0.894473	0.668643	0.379832
	C153	C	0.124184	0.668573	0.617463
	C154	C	0.894394	0.312923	0.620126
	C155	C	0.123845	0.315485	0.379484
	C156	C	0.893918	0.371185	0.676941
	C157	C	0.124167	0.610213	0.674330
	C158	C	0.893985	0.610658	0.322773
	C159	C	0.123518	0.373468	0.322008
	C160	C	0.389780	0.667947	0.883849
	C161	C	0.627152	0.666764	0.113644
	C162	C	0.627182	0.315359	0.883305
	C163	C	0.387052	0.312633	0.113302
	C164	C	0.686707	0.876757	0.379779
	C165	C	0.686338	0.105690	0.618178
	C166	C	0.328913	0.877803	0.621521
	C167	C	0.333661	0.105895	0.380765
	C168	C	0.887054	0.376787	0.177122
	C169	C	0.128553	0.605504	0.174143
	C170	C	0.126826	0.375656	0.822012
	C171	C	0.890845	0.605937	0.822146
	C172	C	0.187043	0.872390	0.385362
	C173	C	0.184950	0.111368	0.614637
	C174	C	0.833598	0.111262	0.384630
	C175	C	0.830272	0.870586	0.613863
	C176	C	0.393437	0.166916	0.880126
	C177	C	0.622792	0.168778	0.117666
	C178	C	0.394041	0.812193	0.120050
	C179	C	0.623849	0.815210	0.878707
	C180	C	0.394194	0.869794	0.177885
	C181	C	0.624159	0.109594	0.173885
	C182	C	0.393395	0.109615	0.822882
	C183	C	0.623785	0.873706	0.821652
	C184	C	0.889979	0.169343	0.385083
	C185	C	0.127598	0.168234	0.614525
	C186	C	0.130082	0.814676	0.385055
	C187	C	0.887781	0.812810	0.613979
	C188	C	0.184580	0.375390	0.879201
	C189	C	0.186309	0.604520	0.116633
	C190	C	0.829057	0.376758	0.119578
	C191	C	0.833029	0.605978	0.879439
	C192	C	0.409262	0.085974	0.599294
	C193	C	0.607493	0.897196	0.598447
	C194	C	0.610063	0.085572	0.398351
	C195	C	0.410097	0.897466	0.402792
	C196	C	0.604991	0.391741	0.092862
	C197	C	0.608874	0.591412	0.903590
	C198	C	0.409221	0.587868	0.092501
	C199	C	0.408491	0.389610	0.903381
	C200	C	0.103172	0.591944	0.398817
	C201	C	0.914620	0.590472	0.598858
	C202	C	0.103382	0.391631	0.598432
	C203	C	0.914430	0.391183	0.401466
	C204	C	0.907742	0.585252	0.098624
	C205	C	0.105501	0.396609	0.098181
	C206	C	0.109592	0.584726	0.898485
	C207	C	0.908741	0.397204	0.900886
	C208	C	0.105809	0.892905	0.593981
	C209	C	0.109535	0.091840	0.404733
	C210	C	0.909686	0.089316	0.593835
	C211	C	0.910922	0.892855	0.405366
	C212	C	0.602588	0.091131	0.898793
	C213	C	0.414477	0.087693	0.098669
	C214	C	0.603243	0.890422	0.097834
	C215	C	0.414386	0.890882	0.901032
	Zn216	Zn	0.508003	-0.008504	0.749232
	Zn217	Zn	0.509611	-0.009951	0.249420
	Zn218	Zn	0.757155	0.491636	-0.001411
	Zn219	Zn	0.258515	0.489169	-0.001899
	Zn220	Zn	0.009327	0.741501	0.498902
	Zn221	Zn	0.009509	0.240438	0.499561
	Zn222	Zn	0.008706	0.490969	0.748810
	Zn223	Zn	0.008146	0.491662	0.249153
	Zn224	Zn	0.509085	0.740061	-0.000961
	Zn225	Zn	0.507407	0.240506	-0.001406
	Zn226	Zn	0.759079	-0.008223	0.499077
	Zn227	Zn	0.258148	-0.008275	0.500523
	N228	N	0.422479	0.954053	0.677997
	N229	N	0.593435	0.028648	0.676251
	N230	N	0.596043	0.953658	0.320165
	N231	N	0.424537	0.028056	0.321672
	N232	N	0.685592	0.406047	0.961352
	N233	N	0.686006	0.576932	0.035542
	N234	N	0.331911	0.573901	0.960326
	N235	N	0.328740	0.402963	0.035001
	N236	N	0.972208	0.670862	0.412617
	N237	N	0.046296	0.670197	0.584453
	N238	N	0.972080	0.311619	0.585948
	N239	N	0.046194	0.312799	0.413822
	N240	N	0.971454	0.405197	0.677851
	N241	N	0.046484	0.576345	0.676300
	N242	N	0.971615	0.577474	0.320731
	N243	N	0.045693	0.406151	0.320861
	N244	N	0.422677	0.669122	0.961514
	N245	N	0.594381	0.668850	0.035804
	N246	N	0.592422	0.313536	0.960889
	N247	N	0.420966	0.310957	0.035542
	N248	N	0.688467	0.954584	0.412687
	N249	N	0.687963	0.028097	0.585131
	N250	N	0.327943	0.955407	0.587739
	N251	N	0.331611	0.028709	0.415189
	N252	N	0.921175	0.454189	0.178568
	N253	N	0.093896	0.528123	0.176469
	N254	N	0.094044	0.453242	0.820325
	N255	N	0.923784	0.528377	0.821176
	N256	N	0.186617	0.906656	0.462795
	N257	N	0.187121	0.078035	0.536758
	N258	N	0.832121	0.076402	0.461983
	N259	N	0.829841	0.905299	0.536535
	N260	N	0.471067	0.168866	0.913168
	N261	N	0.544787	0.169742	0.084880
	N262	N	0.471508	0.811090	0.085437
	N263	N	0.546234	0.812540	0.913195
	N264	N	0.471993	0.903396	0.179032
	N265	N	0.547076	0.074577	0.175644
	N266	N	0.471017	0.076723	0.820776
	N267	N	0.546078	0.906482	0.820977
	N268	N	0.923256	0.169899	0.462733
	N269	N	0.094878	0.169916	0.536669
	N270	N	0.095046	0.813409	0.462374
	N271	N	0.922370	0.811743	0.536434
	N272	N	0.187352	0.452957	0.912264
	N273	N	0.186998	0.526936	0.083734
	N274	N	0.827692	0.454280	0.085552
	N275	N	0.830425	0.528352	0.913304
	O276	O	-0.045382	0.018345	0.149913
	H277	H	-0.047019	0.016382	0.145731
	H278	H	-0.031820	0.022519	0.152827
	O279	O	0.492218	0.499387	0.506418
	H280	H	0.483493	0.497933	0.497469
	H281	H	0.488187	0.496507	0.510788
	O282	O	0.531334	0.488289	0.446482
	H283	H	0.529197	0.494657	0.442113
	H284	H	0.533414	0.491020	0.446812
	O285	O	0.959273	-0.011065	1.003338
	H286	H	0.972541	-0.016449	0.999910
	H287	H	0.953713	-0.013682	1.013178
	O288	O	0.948708	-0.039780	-0.045101
	H289	H	0.954000	-0.024864	-0.049804
	H290	H	0.948097	-0.036030	-0.034411
	O291	O	-0.001582	0.902991	0.059954
	H292	H	-0.002764	0.908236	0.068684
	H293	H	-0.001397	0.907146	0.060616
	O294	O	1.582191	0.508618	1.538230
	H295	H	1.589420	0.511778	1.542903
	H296	H	1.575440	0.513395	1.544167
	O297	O	0.061604	-0.074452	-0.014558
	H298	H	0.065101	-0.078450	-0.020521
	H299	H	0.053800	-0.083653	-0.015389
	O300	O	0.459892	0.506364	0.467028
	H301	H	0.453522	0.501689	0.465734
	H302	H	0.467630	0.503376	0.458893
	O303	O	0.477106	0.490602	0.501632
	H304	H	0.488525	0.496107	0.503305
	H305	H	0.478269	0.478497	0.502003
	O306	O	0.993603	0.039539	0.046134
	H307	H	0.992775	0.049784	0.048645
	H308	H	0.987931	0.038458	0.052815
	O309	O	0.054048	0.024482	0.927332
	H310	H	0.054833	0.013533	0.916447
	H311	H	0.049176	0.008438	0.922862
	O312	O	1.006723	1.069193	0.971801
	H313	H	1.007035	1.071479	0.971017
	H314	H	1.004638	1.073822	0.968927
	O315	O	0.497979	0.500081	0.490818
	H316	H	0.495242	0.500449	0.489042
	H317	H	0.503061	0.503605	0.478847
	O318	O	0.478150	0.518973	0.468984
	H319	H	0.468777	0.513539	0.468129
	H320	H	0.470731	0.520009	0.476353
	O321	O	-0.057945	0.947670	1.115857
	H322	H	-0.055916	0.966332	1.116924
	H323	H	-0.056346	0.943099	1.118540
	O324	O	0.523782	0.539740	0.531880
	H325	H	0.516991	0.542874	0.545730
	H326	H	0.520448	0.536799	0.525690
	O327	O	1.030594	1.039833	0.026821
	H328	H	1.032909	1.036433	0.029493
	H329	H	1.024350	1.035668	0.031568
	O330	O	-0.070558	0.987687	0.022382
	H331	H	-0.077059	0.984683	0.038564
	H332	H	-0.062138	1.001023	0.017465
	O333	O	0.053421	0.952896	0.973267
	H334	H	0.053510	0.959201	0.973437
	H335	H	0.043996	0.948039	0.972456
	O336	O	0.484559	0.564501	0.406353
	H337	H	0.481556	0.572464	0.404398
	H338	H	0.486610	0.562621	0.407853
	O339	O	1.020799	1.006668	0.038577
	H340	H	1.011761	1.009541	0.032002
	H341	H	1.030710	1.003140	0.027702
	O342	O	0.498106	0.456351	0.501307
	H343	H	0.493597	0.454005	0.496423
	H344	H	0.504644	0.459649	0.497881
	O345	O	0.478201	0.466377	0.468594
	H346	H	0.489581	0.462637	0.458767
	H347	H	0.478698	0.465411	0.478539
	O348	O	0.031368	-0.000667	0.036765
	H349	H	0.029882	-0.007360	0.039132
	H350	H	0.036722	0.002411	0.038987
	O351	O	0.062314	0.908173	0.999290
	H352	H	0.051341	0.898071	0.992986
	H353	H	0.066634	0.910644	0.997997
	O354	O	0.557091	0.473241	0.513182
	H355	H	0.573604	0.475760	0.516796
	H356	H	0.545907	0.474258	0.512582
	O357	O	-0.053176	0.907135	0.937660
	H358	H	-0.070353	0.903059	0.948540
	H359	H	-0.050358	0.906703	0.934290
