data_Molecule from HDF5

_cell_length_a		16.319415
_cell_length_b		16.258838
_cell_length_c		16.353278
_cell_angle_alpha	90.030726
_cell_angle_beta	89.925409
_cell_angle_gamma	89.905614
_symmetry_space_group_name_H-M	'P 1'
_symmetry_Int_Tables_number		1

loop_
	_symmetry_equiv_pos_as_xyz
	x,y,z

loop_
	_atom_site_label
	_atom_site_type_symbol
	_atom_site_fract_x
	_atom_site_fract_y
	_atom_site_fract_z
	H0	H	0.404990	0.842823	0.709299
	H1	H	0.599838	0.170690	0.708088
	H2	H	0.601561	0.843003	0.280540
	H3	H	0.403946	0.170343	0.281621
	H4	H	0.718636	0.407285	0.832160
	H5	H	0.716339	0.604428	0.157733
	H6	H	0.287381	0.604971	0.832126
	H7	H	0.287594	0.408367	0.158031
	H8	H	0.838378	0.720416	0.398619
	H9	H	0.166124	0.720143	0.592923
	H10	H	0.838756	0.292085	0.592971
	H11	H	0.166472	0.293238	0.398016
	H12	H	0.838636	0.408191	0.709765
	H13	H	0.166164	0.603716	0.709209
	H14	H	0.839136	0.605531	0.280447
	H15	H	0.164801	0.406131	0.279233
	H16	H	0.404697	0.720493	0.831526
	H17	H	0.599231	0.720405	0.158018
	H18	H	0.600754	0.291999	0.830997
	H19	H	0.404645	0.292895	0.157810
	H20	H	0.716757	0.842219	0.396784
	H21	H	0.716425	0.170262	0.592612
	H22	H	0.291001	0.841121	0.591551
	H23	H	0.288917	0.170591	0.397819
	H24	H	0.903628	0.342280	0.209657
	H25	H	0.100806	0.669470	0.210199
	H26	H	0.100491	0.342407	0.780898
	H27	H	0.902602	0.670053	0.780614
	H28	H	0.218429	0.905279	0.332034
	H29	H	0.216781	0.104058	0.657742
	H30	H	0.788261	0.104724	0.331318
	H31	H	0.786642	0.908340	0.657534
	H32	H	0.338994	0.220912	0.896607
	H33	H	0.666896	0.219841	0.091014
	H34	H	0.338736	0.793348	0.092329
	H35	H	0.665925	0.791472	0.896053
	H36	H	0.339713	0.907942	0.210407
	H37	H	0.665997	0.105644	0.210181
	H38	H	0.339529	0.105520	0.780604
	H39	H	0.666528	0.908004	0.780167
	H40	H	0.904514	0.221383	0.331527
	H41	H	0.099824	0.220336	0.658053
	H42	H	0.100396	0.790940	0.332136
	H43	H	0.904383	0.793606	0.659358
	H44	H	0.216822	0.342605	0.896751
	H45	H	0.214272	0.670652	0.092253
	H46	H	0.787900	0.342365	0.093272
	H47	H	0.789092	0.671164	0.898677
	H48	H	0.406642	0.124234	0.590049
	H49	H	0.588482	0.894156	0.580254
	H50	H	0.603034	0.125608	0.401274
	H51	H	0.411585	0.891878	0.406744
	H52	H	0.595564	0.400809	0.114041
	H53	H	0.593728	0.600001	0.879436
	H54	H	0.411398	0.599105	0.110172
	H55	H	0.412051	0.405377	0.876982
	H56	H	0.122113	0.603837	0.392848
	H57	H	0.886958	0.596663	0.588337
	H58	H	0.118201	0.418299	0.594227
	H59	H	0.891200	0.421094	0.411948
	H60	H	0.120526	0.404961	0.589587
	H61	H	0.884833	0.600991	0.592809
	H62	H	0.116406	0.603637	0.411796
	H63	H	0.884159	0.418934	0.389470
	H64	H	0.408231	0.604265	0.112246
	H65	H	0.597734	0.601745	0.877196
	H66	H	0.606381	0.419647	0.112242
	H67	H	0.400059	0.416338	0.876605
	H68	H	0.590583	0.123595	0.396398
	H69	H	0.605397	0.887905	0.584612
	H70	H	0.411591	0.122222	0.589786
	H71	H	0.405140	0.887734	0.401348
	H72	H	0.909129	0.622282	0.087988
	H73	H	0.089956	0.387778	0.099208
	H74	H	0.097411	0.624486	0.900188
	H75	H	0.901666	0.387197	0.898787
	H76	H	0.093611	0.911931	0.610502
	H77	H	0.095204	0.106101	0.377091
	H78	H	0.902617	0.105410	0.613752
	H79	H	0.900381	0.915046	0.377218
	H80	H	0.615688	0.092331	0.903814
	H81	H	0.386470	0.105398	0.081743
	H82	H	0.620284	0.907235	0.088123
	H83	H	0.385352	0.904545	0.903574
	H84	H	0.616374	0.916200	0.083797
	H85	H	0.389253	0.091502	0.087978
	H86	H	0.621231	0.100052	0.894031
	H87	H	0.390360	0.919592	0.908894
	H88	H	0.906643	0.090681	0.608949
	H89	H	0.103012	0.096216	0.377554
	H90	H	0.098772	0.910393	0.611988
	H91	H	0.914905	0.918777	0.382775
	H92	H	0.092519	0.622333	0.899704
	H93	H	0.087921	0.393889	0.078922
	H94	H	0.908895	0.622822	0.088220
	H95	H	0.915339	0.390066	0.895897
	H96	H	0.408479	0.122081	0.585163
	H97	H	0.592103	0.887595	0.597388
	H98	H	0.593305	0.119886	0.409118
	H99	H	0.413719	0.890154	0.398147
	H100	H	0.585201	0.418615	0.105458
	H101	H	0.597845	0.597200	0.879087
	H102	H	0.404709	0.598410	0.110552
	H103	H	0.414237	0.420467	0.882891
	H104	H	0.115136	0.587531	0.400912
	H105	H	0.886422	0.602911	0.586937
	H106	H	0.115721	0.414579	0.580656
	H107	H	0.882586	0.400512	0.403792
	H108	H	0.909339	0.622340	0.088242
	H109	H	0.107058	0.386553	0.085922
	H110	H	0.094856	0.621993	0.904290
	H111	H	0.910090	0.392096	0.909325
	H112	H	0.097691	0.915564	0.610797
	H113	H	0.090836	0.094652	0.381628
	H114	H	0.917415	0.102183	0.608029
	H115	H	0.911738	0.904130	0.377452
	H116	H	0.618799	0.105376	0.906481
	H117	H	0.383708	0.103160	0.097001
	H118	H	0.619786	0.915851	0.093494
	H119	H	0.385010	0.917609	0.892722
	C120	C	0.380590	0.014534	0.616614
	C121	C	0.623598	0.998143	0.615726
	C122	C	0.624448	0.015053	0.373510
	C123	C	0.381348	0.998196	0.373738
	C124	C	0.624244	0.384710	0.002884
	C125	C	0.624029	0.628055	0.986315
	C126	C	0.380103	0.628625	0.003124
	C127	C	0.380649	0.385297	0.986848
	C128	C	0.010038	0.627372	0.373791
	C129	C	0.994299	0.628158	0.617259
	C130	C	0.010107	0.384333	0.616680
	C131	C	0.993984	0.384606	0.373202
	C132	C	0.880662	0.514267	0.116645
	C133	C	0.122911	0.497847	0.116284
	C134	C	0.123707	0.514784	0.873194
	C135	C	0.880479	0.498339	0.873488
	C136	C	0.124559	0.884047	0.503279
	C137	C	0.123974	0.127489	0.486320
	C138	C	0.880917	0.127809	0.502426
	C139	C	0.880814	0.884773	0.487100
	C140	C	0.510739	0.128152	0.873003
	C141	C	0.494910	0.128076	0.116453
	C142	C	0.510922	0.884886	0.116662
	C143	C	0.494845	0.885298	0.873087
	C144	C	0.384198	0.891438	0.671383
	C145	C	0.620582	0.121744	0.670285
	C146	C	0.621702	0.891537	0.318584
	C147	C	0.383474	0.121344	0.319028
	C148	C	0.679923	0.386834	0.880396
	C149	C	0.678480	0.625294	0.109360
	C150	C	0.325404	0.625728	0.880496
	C151	C	0.325735	0.388179	0.109388
	C152	C	0.887179	0.682502	0.377596
	C153	C	0.117300	0.682585	0.613746
	C154	C	0.887268	0.330104	0.613726
	C155	C	0.117140	0.330002	0.376586
	C156	C	0.887424	0.387637	0.671730
	C157	C	0.117250	0.625015	0.671723
	C158	C	0.887532	0.625731	0.318707
	C159	C	0.116443	0.386362	0.317860
	C160	C	0.383924	0.682910	0.880312
	C161	C	0.620322	0.682597	0.109450
	C162	C	0.621302	0.330019	0.879717
	C163	C	0.383784	0.330575	0.109316
	C164	C	0.679088	0.891196	0.376152
	C165	C	0.678542	0.121489	0.612922
	C166	C	0.327079	0.890860	0.613166
	C167	C	0.326125	0.121398	0.376809
	C168	C	0.882954	0.391137	0.171855
	C169	C	0.120677	0.621035	0.171615
	C170	C	0.121159	0.391436	0.818522
	C171	C	0.882379	0.621414	0.818711
	C172	C	0.179781	0.886098	0.380468
	C173	C	0.178559	0.124770	0.609313
	C174	C	0.826188	0.125170	0.379926
	C175	C	0.825262	0.887844	0.609510
	C176	C	0.387880	0.183143	0.876110
	C177	C	0.617930	0.182606	0.112457
	C178	C	0.387753	0.830608	0.113385
	C179	C	0.617431	0.829694	0.875655
	C180	C	0.388271	0.887551	0.171930
	C181	C	0.617651	0.125863	0.171512
	C182	C	0.388148	0.125984	0.818163
	C183	C	0.617585	0.887455	0.817718
	C184	C	0.883713	0.183236	0.380078
	C185	C	0.120272	0.181994	0.609494
	C186	C	0.121267	0.829009	0.380469
	C187	C	0.883811	0.830981	0.610206
	C188	C	0.178880	0.391568	0.876123
	C189	C	0.177397	0.621494	0.113349
	C190	C	0.825461	0.391198	0.114188
	C191	C	0.825752	0.621647	0.877285
	C192	C	0.402374	0.100772	0.594688
	C193	C	0.601613	0.912186	0.594112
	C194	C	0.602148	0.100885	0.395760
	C195	C	0.403682	0.912149	0.395646
	C196	C	0.602263	0.406458	0.088521
	C197	C	0.602714	0.606284	0.900719
	C198	C	0.401591	0.606863	0.088872
	C199	C	0.402350	0.407472	0.901007
	C200	C	0.095678	0.605037	0.395458
	C201	C	0.908241	0.606482	0.595773
	C202	C	0.096200	0.406161	0.594706
	C203	C	0.908067	0.406954	0.395244
	C204	C	0.902639	0.600333	0.094679
	C205	C	0.101451	0.411807	0.094496
	C206	C	0.101287	0.600775	0.894978
	C207	C	0.902719	0.411963	0.894833
	C208	C	0.103028	0.906004	0.588903
	C209	C	0.102659	0.105537	0.400957
	C210	C	0.902632	0.106056	0.588173
	C211	C	0.902670	0.906343	0.401205
	C212	C	0.596448	0.105659	0.894858
	C213	C	0.408835	0.106387	0.095212
	C214	C	0.596584	0.906714	0.095011
	C215	C	0.409010	0.907551	0.895048
	Zn216	Zn	0.502792	0.006692	0.744417
	Zn217	Zn	0.502853	0.006744	0.245454
	Zn218	Zn	0.752171	0.506023	-0.004783
	Zn219	Zn	0.251222	0.506652	-0.004804
	Zn220	Zn	0.002412	0.756291	0.495501
	Zn221	Zn	0.002080	0.256629	0.494584
	Zn222	Zn	0.002255	0.506418	0.745195
	Zn223	Zn	0.002028	0.505737	0.244994
	Zn224	Zn	0.502366	0.756980	-0.005570
	Zn225	Zn	0.502659	0.256273	-0.005603
	Zn226	Zn	0.752146	0.006253	0.494511
	Zn227	Zn	0.252480	0.005999	0.494685
	N228	N	0.416846	0.969267	0.673463
	N229	N	0.587259	0.044143	0.672129
	N230	N	0.588435	0.969467	0.316769
	N231	N	0.416810	0.043683	0.316857
	N232	N	0.681757	0.420020	0.957674
	N233	N	0.680819	0.591922	0.032126
	N234	N	0.322930	0.592634	0.957811
	N235	N	0.323834	0.421631	0.032179
	N236	N	0.964379	0.683727	0.410915
	N237	N	0.039824	0.684570	0.580603
	N238	N	0.964550	0.328158	0.580214
	N239	N	0.039852	0.328973	0.410418
	N240	N	0.965134	0.420789	0.673533
	N241	N	0.039775	0.592020	0.673973
	N242	N	0.964902	0.591905	0.316385
	N243	N	0.038952	0.419481	0.315703
	N244	N	0.417270	0.684738	0.957488
	N245	N	0.587094	0.684475	0.032143
	N246	N	0.587179	0.328758	0.956710
	N247	N	0.417283	0.328795	0.032178
	N248	N	0.680924	0.968747	0.409485
	N249	N	0.680236	0.043842	0.579499
	N250	N	0.324899	0.968486	0.579738
	N251	N	0.324739	0.043767	0.410325
	N252	N	0.916738	0.468572	0.173435
	N253	N	0.087619	0.543320	0.173659
	N254	N	0.087480	0.468962	0.816763
	N255	N	0.915794	0.543725	0.816325
	N256	N	0.182008	0.919387	0.457741
	N257	N	0.180872	0.091439	0.532162
	N258	N	0.824246	0.091449	0.457182
	N259	N	0.823289	0.920465	0.531957
	N260	N	0.465131	0.184510	0.909574
	N261	N	0.540515	0.184240	0.079193
	N262	N	0.465019	0.828933	0.079638
	N263	N	0.540236	0.828371	0.909265
	N264	N	0.465832	0.920539	0.174252
	N265	N	0.540208	0.092610	0.173905
	N266	N	0.465512	0.092454	0.816195
	N267	N	0.540211	0.921191	0.816006
	N268	N	0.917121	0.184721	0.457075
	N269	N	0.086819	0.183773	0.532164
	N270	N	0.087872	0.827466	0.457723
	N271	N	0.917659	0.829132	0.533097
	N272	N	0.180564	0.469292	0.909453
	N273	N	0.178850	0.544005	0.079494
	N274	N	0.824173	0.468582	0.080485
	N275	N	0.824634	0.543934	0.910653
	O276	O	1.019544	0.018481	0.980377
	H277	H	1.021096	0.018569	0.980282
	H278	H	1.018484	0.017095	0.982412
	O279	O	0.039105	-0.009863	0.975784
	H280	H	0.044205	-0.019731	0.979139
	H281	H	0.040437	-0.005772	0.977154
	O282	O	1.060124	0.991757	-0.010723
	H283	H	1.053183	0.989618	-0.015252
	H284	H	1.066866	0.986772	-0.011183
	O285	O	0.035859	-0.016035	0.972737
	H286	H	0.030818	-0.014499	0.967924
	H287	H	0.042675	-0.013865	0.970198
