data_Molecule from HDF5

_cell_length_a		16.417283
_cell_length_b		16.184599
_cell_length_c		16.245631
_cell_angle_alpha	90.219214
_cell_angle_beta	89.986007
_cell_angle_gamma	90.370895
_symmetry_space_group_name_H-M	'P 1'
_symmetry_Int_Tables_number		1

loop_
	_symmetry_equiv_pos_as_xyz
	x,y,z

loop_
	_atom_site_label
	_atom_site_type_symbol
	_atom_site_fract_x
	_atom_site_fract_y
	_atom_site_fract_z
	H0	H	0.400043	0.841056	0.712877
	H1	H	0.599469	0.169230	0.718546
	H2	H	0.600557	0.841695	0.286106
	H3	H	0.404258	0.169399	0.287701
	H4	H	0.715144	0.397187	0.839960
	H5	H	0.714311	0.605687	0.163559
	H6	H	0.281636	0.601757	0.838033
	H7	H	0.277434	0.399196	0.164076
	H8	H	0.837205	0.722974	0.402012
	H9	H	0.160912	0.723269	0.602921
	H10	H	0.838374	0.288038	0.601930
	H11	H	0.161040	0.292218	0.400494
	H12	H	0.835906	0.404468	0.715752
	H13	H	0.158609	0.609425	0.721582
	H14	H	0.835869	0.604491	0.285303
	H15	H	0.158831	0.404918	0.282371
	H16	H	0.398144	0.716618	0.837229
	H17	H	0.596736	0.718871	0.164590
	H18	H	0.593052	0.289015	0.837235
	H19	H	0.397070	0.287562	0.165784
	H20	H	0.717012	0.843391	0.399824
	H21	H	0.715716	0.169919	0.603895
	H22	H	0.278799	0.844675	0.605051
	H23	H	0.284825	0.169671	0.400136
	H24	H	0.896321	0.339709	0.216759
	H25	H	0.095696	0.668326	0.214324
	H26	H	0.093326	0.339892	0.785753
	H27	H	0.898069	0.668553	0.789023
	H28	H	0.217342	0.905314	0.340928
	H29	H	0.217555	0.112101	0.664634
	H30	H	0.782613	0.110217	0.340149
	H31	H	0.782310	0.905955	0.664380
	H32	H	0.335091	0.215851	0.902923
	H33	H	0.659270	0.223664	0.101779
	H34	H	0.335632	0.788778	0.100716
	H35	H	0.659612	0.787224	0.900875
	H36	H	0.338512	0.902887	0.220314
	H37	H	0.661077	0.107438	0.217351
	H38	H	0.336550	0.102937	0.784315
	H39	H	0.659925	0.903076	0.783646
	H40	H	0.904484	0.218161	0.337583
	H41	H	0.098419	0.222887	0.665936
	H42	H	0.100680	0.791117	0.339687
	H43	H	0.900624	0.792551	0.665765
	H44	H	0.211273	0.340167	0.898770
	H45	H	0.216721	0.665197	0.105459
	H46	H	0.779148	0.339734	0.102130
	H47	H	0.779716	0.665476	0.899717
	H48	H	0.405283	0.126145	0.597077
	H49	H	0.588311	0.888462	0.596561
	H50	H	0.598040	0.123953	0.409387
	H51	H	0.408941	0.890337	0.411155
	H52	H	0.592384	0.419029	0.117381
	H53	H	0.588604	0.596312	0.884546
	H54	H	0.408744	0.595435	0.115653
	H55	H	0.404478	0.405993	0.884593
	H56	H	0.112838	0.596276	0.406042
	H57	H	0.883265	0.594151	0.599569
	H58	H	0.112663	0.417058	0.592842
	H59	H	0.882168	0.412520	0.406300
	H60	H	0.113811	0.418736	0.596143
	H61	H	0.881263	0.605590	0.595309
	H62	H	0.113683	0.600041	0.405580
	H63	H	0.883187	0.410069	0.411118
	H64	H	0.403149	0.598354	0.119172
	H65	H	0.590553	0.593274	0.884872
	H66	H	0.581464	0.414831	0.114241
	H67	H	0.398724	0.412461	0.885502
	H68	H	0.589491	0.122338	0.407596
	H69	H	0.589029	0.891696	0.586170
	H70	H	0.413433	0.121829	0.596114
	H71	H	0.406799	0.890610	0.415316
	H72	H	0.905897	0.618973	0.090403
	H73	H	0.082285	0.388617	0.092219
	H74	H	0.088785	0.618501	0.918408
	H75	H	0.897346	0.387484	0.917301
	H76	H	0.090556	0.921704	0.617606
	H77	H	0.098748	0.098494	0.383984
	H78	H	0.906320	0.100385	0.618936
	H79	H	0.905109	0.919022	0.386612
	H80	H	0.617904	0.105350	0.901033
	H81	H	0.384882	0.094621	0.089198
	H82	H	0.611316	0.927221	0.100068
	H83	H	0.383479	0.912055	0.907176
	H84	H	0.620156	0.899070	0.102495
	H85	H	0.384809	0.088638	0.098702
	H86	H	0.609908	0.100620	0.922987
	H87	H	0.382815	0.909059	0.905400
	H88	H	0.906733	0.095741	0.617662
	H89	H	0.091890	0.095144	0.387659
	H90	H	0.087489	0.913871	0.618088
	H91	H	0.911905	0.917462	0.387591
	H92	H	0.096798	0.622356	0.910853
	H93	H	0.089110	0.387025	0.086814
	H94	H	0.902256	0.620993	0.092750
	H95	H	0.901091	0.382491	0.898721
	H96	H	0.407214	0.122040	0.588802
	H97	H	0.597762	0.888286	0.591506
	H98	H	0.591963	0.120840	0.415325
	H99	H	0.404667	0.889109	0.411458
	H100	H	0.589321	0.407680	0.119819
	H101	H	0.587679	0.592272	0.886034
	H102	H	0.402472	0.590942	0.117847
	H103	H	0.406606	0.413367	0.887642
	H104	H	0.112873	0.599516	0.409776
	H105	H	0.885500	0.597255	0.588261
	H106	H	0.114941	0.413982	0.594652
	H107	H	0.884738	0.415249	0.410647
	H108	H	0.906288	0.620545	0.095036
	H109	H	0.089186	0.384558	0.095668
	H110	H	0.085934	0.621024	0.907048
	H111	H	0.915597	0.391031	0.910793
	H112	H	0.095154	0.915829	0.620889
	H113	H	0.091777	0.102393	0.384754
	H114	H	0.910551	0.098685	0.618480
	H115	H	0.907878	0.912340	0.384775
	H116	H	0.609863	0.083439	0.906238
	H117	H	0.381612	0.098984	0.099064
	H118	H	0.609742	0.908612	0.077019
	H119	H	0.383489	0.908884	0.908451
	C120	C	0.378164	0.014939	0.622977
	C121	C	0.621337	0.997436	0.622473
	C122	C	0.622438	0.014502	0.380383
	C123	C	0.378806	0.997717	0.381859
	C124	C	0.617298	0.382716	0.009583
	C125	C	0.619017	0.624645	0.992418
	C126	C	0.375847	0.623840	0.009546
	C127	C	0.373932	0.380283	0.993507
	C128	C	0.006727	0.628388	0.378146
	C129	C	0.990154	0.628775	0.624229
	C130	C	0.006921	0.385609	0.623455
	C131	C	0.990058	0.383849	0.379171
	C132	C	0.874785	0.512106	0.122401
	C133	C	0.117467	0.494922	0.121777
	C134	C	0.118311	0.512295	0.880882
	C135	C	0.875280	0.494718	0.879596
	C136	C	0.121015	0.886586	0.511570
	C137	C	0.122832	0.129227	0.493226
	C138	C	0.879098	0.127916	0.510544
	C139	C	0.878226	0.885715	0.493575
	C140	C	0.505954	0.124942	0.880073
	C141	C	0.490393	0.125795	0.124096
	C142	C	0.507160	0.881927	0.123404
	C143	C	0.489956	0.881004	0.878105
	C144	C	0.379294	0.890787	0.676565
	C145	C	0.619634	0.120319	0.680110
	C146	C	0.620550	0.891130	0.323930
	C147	C	0.382942	0.120786	0.325769
	C148	C	0.675008	0.380343	0.887894
	C149	C	0.675938	0.624917	0.114866
	C150	C	0.319885	0.621793	0.886850
	C151	C	0.316667	0.380154	0.115595
	C152	C	0.885360	0.684447	0.381229
	C153	C	0.112138	0.685203	0.622877
	C154	C	0.886196	0.327143	0.621693
	C155	C	0.111994	0.329100	0.380276
	C156	C	0.884946	0.385107	0.678581
	C157	C	0.111084	0.628299	0.681889
	C158	C	0.884699	0.625885	0.322850
	C159	C	0.111008	0.385350	0.321543
	C160	C	0.378015	0.679177	0.886514
	C161	C	0.617382	0.681452	0.115348
	C162	C	0.614361	0.326282	0.886639
	C163	C	0.376289	0.324948	0.116649
	C164	C	0.678938	0.892087	0.380297
	C165	C	0.677777	0.120631	0.623261
	C166	C	0.319021	0.892813	0.623145
	C167	C	0.323331	0.120727	0.381444
	C168	C	0.875727	0.388707	0.179076
	C169	C	0.116327	0.618811	0.177349
	C170	C	0.114356	0.389097	0.823980
	C171	C	0.877448	0.618663	0.825342
	C172	C	0.178230	0.886433	0.389127
	C173	C	0.178985	0.130234	0.616006
	C174	C	0.822104	0.127944	0.388398
	C175	C	0.821165	0.886271	0.615734
	C176	C	0.383780	0.179100	0.882080
	C177	C	0.611268	0.184636	0.122115
	C178	C	0.384682	0.826473	0.121425
	C179	C	0.611511	0.825502	0.880682
	C180	C	0.386198	0.883028	0.180988
	C181	C	0.612389	0.126354	0.179390
	C182	C	0.384546	0.122361	0.823474
	C183	C	0.611554	0.883099	0.822190
	C184	C	0.882620	0.181988	0.387094
	C185	C	0.119925	0.185840	0.616509
	C186	C	0.120039	0.829784	0.388404
	C187	C	0.879950	0.829918	0.616360
	C188	C	0.172980	0.389054	0.880274
	C189	C	0.176428	0.616994	0.122917
	C190	C	0.817825	0.388606	0.121957
	C191	C	0.818538	0.617212	0.880615
	C192	C	0.401785	0.101003	0.600486
	C193	C	0.598368	0.911667	0.598347
	C194	C	0.599920	0.100189	0.403843
	C195	C	0.400527	0.912234	0.405663
	C196	C	0.594409	0.406904	0.095103
	C197	C	0.595861	0.600852	0.907123
	C198	C	0.398088	0.601380	0.095203
	C199	C	0.396668	0.403602	0.908014
	C200	C	0.091309	0.605446	0.400547
	C201	C	0.905492	0.605895	0.601021
	C202	C	0.091791	0.409625	0.601067
	C203	C	0.905364	0.406083	0.402554
	C204	C	0.897809	0.597545	0.099365
	C205	C	0.093648	0.409048	0.098563
	C206	C	0.096719	0.598428	0.905120
	C207	C	0.897903	0.409111	0.902288
	C208	C	0.097932	0.910144	0.596715
	C209	C	0.100805	0.105563	0.407657
	C210	C	0.901385	0.104872	0.596251
	C211	C	0.901543	0.909373	0.408322
	C212	C	0.590696	0.102915	0.903348
	C213	C	0.405538	0.101236	0.102133
	C214	C	0.592006	0.905011	0.100160
	C215	C	0.405097	0.903517	0.900492
	Zn216	Zn	0.498810	0.004957	0.749827
	Zn217	Zn	0.500106	0.004555	0.253095
	Zn218	Zn	0.747059	0.502724	0.000861
	Zn219	Zn	0.246563	0.502399	0.002011
	Zn220	Zn	0.000223	0.757744	0.502109
	Zn221	Zn	0.000305	0.256475	0.501653
	Zn222	Zn	-0.002782	0.505779	0.752901
	Zn223	Zn	-0.003023	0.504176	0.249735
	Zn224	Zn	0.497362	0.752844	0.001043
	Zn225	Zn	0.496722	0.254039	0.001741
	Zn226	Zn	0.749952	0.007119	0.501627
	Zn227	Zn	0.249863	0.007522	0.502949
	N228	N	0.415376	0.967705	0.676592
	N229	N	0.585355	0.042635	0.679861
	N230	N	0.586200	0.968292	0.323803
	N231	N	0.416644	0.043160	0.325777
	N232	N	0.676970	0.414630	0.965394
	N233	N	0.677018	0.590252	0.037498
	N234	N	0.318273	0.588269	0.964541
	N235	N	0.315007	0.413893	0.038029
	N236	N	0.962288	0.686261	0.414669
	N237	N	0.035978	0.685491	0.587725
	N238	N	0.963073	0.327304	0.588111
	N239	N	0.035887	0.328128	0.415689
	N240	N	0.961110	0.420876	0.679726
	N241	N	0.034306	0.593964	0.683003
	N242	N	0.961232	0.591770	0.320833
	N243	N	0.034226	0.418425	0.320581
	N244	N	0.412348	0.680490	0.963740
	N245	N	0.582711	0.681486	0.038221
	N246	N	0.579022	0.327660	0.963353
	N247	N	0.411099	0.324789	0.039737
	N248	N	0.680194	0.969872	0.414516
	N249	N	0.678969	0.043101	0.588250
	N250	N	0.318314	0.971105	0.590424
	N251	N	0.320921	0.043400	0.415886
	N252	N	0.910481	0.466430	0.179703
	N253	N	0.080216	0.541984	0.176588
	N254	N	0.081081	0.466850	0.824384
	N255	N	0.912044	0.541582	0.824570
	N256	N	0.178930	0.921059	0.466529
	N257	N	0.180903	0.095847	0.538545
	N258	N	0.819749	0.095076	0.466301
	N259	N	0.819884	0.920265	0.538195
	N260	N	0.460089	0.180704	0.916624
	N261	N	0.534335	0.184262	0.088374
	N262	N	0.461034	0.825830	0.086445
	N263	N	0.534851	0.824106	0.914610
	N264	N	0.463336	0.916826	0.182256
	N265	N	0.536328	0.090449	0.180551
	N266	N	0.461555	0.089364	0.822145
	N267	N	0.534957	0.916906	0.820455
	N268	N	0.917347	0.182187	0.464003
	N269	N	0.085790	0.185648	0.539124
	N270	N	0.085315	0.829632	0.465431
	N271	N	0.914791	0.829628	0.539429
	N272	N	0.175307	0.466674	0.915107
	N273	N	0.177114	0.538798	0.089353
	N274	N	0.816936	0.466184	0.087715
	N275	N	0.816869	0.539030	0.913532
	O276	O	1.515667	0.485152	0.492184
	H277	H	1.529914	0.481553	0.492405
	H278	H	1.518920	0.477735	0.482354
	O279	O	0.630738	0.658725	0.660957
	H280	H	0.633239	0.677059	0.663330
	H281	H	0.625521	0.666586	0.658794
	O282	O	0.410859	0.609449	0.517336
	H283	H	0.413678	0.618248	0.516659
	H284	H	0.415848	0.601262	0.508575
	O285	O	0.385911	0.504034	0.581362
	H286	H	0.386171	0.499680	0.589246
	H287	H	0.389050	0.510207	0.586537
	O288	O	0.496535	0.565387	0.400212
	H289	H	0.491498	0.556918	0.403144
	H290	H	0.500085	0.555586	0.398719
	O291	O	0.114407	-0.061752	0.914149
	H292	H	0.123577	-0.073764	0.908475
	H293	H	0.120910	-0.059040	0.920633
	O294	O	0.988784	1.099787	0.014124
	H295	H	0.990498	1.102529	0.023365
	H296	H	0.993151	1.110110	0.016726
	O297	O	0.986486	0.941571	-0.034363
	H298	H	0.980729	0.940317	-0.044571
	H299	H	0.986362	0.940916	-0.035470
	O300	O	0.463515	0.617183	0.545259
	H301	H	0.452993	0.612555	0.536530
	H302	H	0.453017	0.627810	0.546402
	O303	O	0.568313	0.366139	0.437659
	H304	H	0.574909	0.371979	0.435756
	H305	H	0.557643	0.362921	0.439148
	O306	O	0.450335	0.588446	0.333983
	H307	H	0.445521	0.598415	0.330543
	H308	H	0.452450	0.595335	0.336992
	O309	O	0.652771	0.432178	0.415243
	H310	H	0.646198	0.436729	0.430079
	H311	H	0.661083	0.424083	0.410036
	O312	O	1.147228	1.097403	1.093275
	H313	H	1.154676	1.103841	1.095912
	H314	H	1.147078	1.087005	1.086394
	O315	O	1.022929	1.076630	0.051375
	H316	H	1.009206	1.073052	0.063428
	H317	H	1.019509	1.084348	0.054444
	O318	O	0.612414	0.482569	0.602434
	H319	H	0.605619	0.478675	0.605238
	H320	H	0.615405	0.489134	0.613155
	O321	O	0.491224	0.480029	0.364360
	H322	H	0.499254	0.487716	0.376522
	H323	H	0.493367	0.470737	0.357328
	O324	O	-0.407746	1.633054	0.515567
	H325	H	-0.410074	1.631358	0.507791
	H326	H	-0.414952	1.636696	0.518570
	O327	O	-0.094479	0.944996	1.068424
	H328	H	-0.094672	0.938674	1.072183
	H329	H	-0.104894	0.941204	1.071310
	O330	O	-0.031329	0.058204	-0.082783
	H331	H	-0.023960	0.058727	-0.075903
	H332	H	-0.034278	0.055033	-0.087351
	O333	O	0.388960	0.536744	0.489326
	H334	H	0.402868	0.537846	0.500797
	H335	H	0.389637	0.537227	0.496671
	O336	O	-0.464047	-0.570392	-0.503850
	H337	H	-0.471031	-0.567170	-0.509246
	H338	H	-0.461317	-0.585195	-0.506606
	O339	O	-0.056069	0.054184	-0.047347
	H340	H	-0.076860	0.049164	-0.062270
	H341	H	-0.056066	0.054058	-0.044887
	O342	O	0.372523	0.500896	0.486925
	H343	H	0.363507	0.493715	0.485847
	H344	H	0.369804	0.491896	0.497509
	O345	O	0.043476	0.849989	1.104828
	H346	H	0.066383	0.861657	1.102922
	H347	H	0.047930	0.832755	1.092742
	O348	O	0.548748	0.596968	0.491715
	H349	H	0.543836	0.590036	0.493518
	H350	H	0.550839	0.601969	0.492062
	O351	O	0.397124	0.572549	0.541987
	H352	H	0.389457	0.583462	0.535774
	H353	H	0.389922	0.563583	0.549734
	O354	O	0.005721	0.858350	-0.018784
	H355	H	0.001165	0.875930	-0.021699
	H356	H	-0.007634	0.852146	-0.014780
	O357	O	-0.116038	-0.091334	1.163596
	H358	H	-0.105076	-0.114503	1.165853
	H359	H	-0.120066	-0.091344	1.174653
	O360	O	0.931979	-0.141910	0.899600
	H361	H	0.939520	-0.149926	0.914219
	H362	H	0.922560	-0.145289	0.905972
	O363	O	0.434091	0.456278	0.469140
	H364	H	0.446370	0.464896	0.470150
	H365	H	0.442094	0.444587	0.465790
	O366	O	0.480692	0.451472	0.626985
	H367	H	0.493328	0.460155	0.633581
	H368	H	0.489897	0.442696	0.625763
	O369	O	0.871726	-0.038964	0.106562
	H370	H	0.868283	-0.038386	0.107660
	H371	H	0.859165	-0.043392	0.120294
	O372	O	0.450789	0.422041	0.500436
	H373	H	0.459260	0.413990	0.493071
	H374	H	0.446924	0.408549	0.477734
	O375	O	0.933950	0.010189	0.862796
	H376	H	0.943706	0.006931	0.861997
	H377	H	0.933836	0.025826	0.854611
	O378	O	-0.060041	1.020902	0.111107
	H379	H	-0.050381	1.021178	0.112287
	H380	H	-0.054490	1.022675	0.114299
	O381	O	1.037646	-0.046495	0.982217
	H382	H	1.046385	-0.040862	0.972731
	H383	H	1.036861	-0.053784	0.993848
	O384	O	1.065040	1.024962	0.095248
	H385	H	1.065158	1.012488	0.085390
	H386	H	1.049856	1.024914	0.096705
	O387	O	1.053186	0.076814	0.917792
	H388	H	1.045993	0.073039	0.923083
	H389	H	1.052618	0.074375	0.910247
	O390	O	1.073939	1.077071	-0.015459
	H391	H	1.071566	1.076904	-0.019266
	H392	H	1.084565	1.104843	-0.003339
	O393	O	0.608117	0.439826	0.641729
	H394	H	0.615675	0.448456	0.657633
	H395	H	0.601298	0.465404	0.646098
