data_Molecule from HDF5

_cell_length_a		16.450968
_cell_length_b		16.471194
_cell_length_c		16.469624
_cell_angle_alpha	89.903545
_cell_angle_beta	90.021475
_cell_angle_gamma	89.897804
_symmetry_space_group_name_H-M	'P 1'
_symmetry_Int_Tables_number		1

loop_
	_symmetry_equiv_pos_as_xyz
	x,y,z

loop_
	_atom_site_label
	_atom_site_type_symbol
	_atom_site_fract_x
	_atom_site_fract_y
	_atom_site_fract_z
	H0	H	0.387842	0.851249	0.721981
	H1	H	0.605285	0.163962	0.717922
	H2	H	0.604357	0.847116	0.274836
	H3	H	0.393232	0.164082	0.273565
	H4	H	0.718026	0.402038	0.836996
	H5	H	0.717892	0.611161	0.153786
	H6	H	0.274694	0.612641	0.838938
	H7	H	0.273942	0.398532	0.154176
	H8	H	0.839720	0.726683	0.393998
	H9	H	0.155902	0.729210	0.605330
	H10	H	0.840175	0.283632	0.603609
	H11	H	0.155802	0.282185	0.388592
	H12	H	0.839226	0.400699	0.717011
	H13	H	0.155699	0.612432	0.720385
	H14	H	0.840232	0.613207	0.275446
	H15	H	0.154701	0.397307	0.271922
	H16	H	0.388495	0.730392	0.839792
	H17	H	0.603813	0.729122	0.152895
	H18	H	0.601028	0.286210	0.837307
	H19	H	0.391321	0.282968	0.154065
	H20	H	0.720026	0.847543	0.392026
	H21	H	0.719295	0.164029	0.600118
	H22	H	0.272043	0.850668	0.606231
	H23	H	0.273212	0.162481	0.385737
	H24	H	0.895199	0.349571	0.217701
	H25	H	0.107951	0.663257	0.221575
	H26	H	0.105272	0.349446	0.773829
	H27	H	0.887286	0.661776	0.770739
	H28	H	0.223106	0.896187	0.338837
	H29	H	0.225936	0.114912	0.651266
	H30	H	0.779662	0.109565	0.337860
	H31	H	0.772269	0.895817	0.652047
	H32	H	0.341365	0.232723	0.884400
	H33	H	0.653080	0.228618	0.102506
	H34	H	0.339805	0.781348	0.105811
	H35	H	0.652834	0.782930	0.889904
	H36	H	0.341529	0.894236	0.223417
	H37	H	0.654576	0.110259	0.216457
	H38	H	0.341825	0.116224	0.769825
	H39	H	0.652429	0.897273	0.771966
	H40	H	0.894896	0.227365	0.339324
	H41	H	0.110114	0.231208	0.652693
	H42	H	0.107973	0.779321	0.340868
	H43	H	0.890895	0.781248	0.653046
	H44	H	0.222700	0.350749	0.888683
	H45	H	0.222638	0.663303	0.105611
	H46	H	0.775022	0.350302	0.104467
	H47	H	0.773379	0.662830	0.889079
	H48	H	0.413500	0.115643	0.579778
	H49	H	0.585082	0.893173	0.585985
	H50	H	0.590092	0.120543	0.403716
	H51	H	0.408681	0.894982	0.412553
	H52	H	0.588652	0.425770	0.106998
	H53	H	0.586819	0.592315	0.883601
	H54	H	0.407986	0.599009	0.111960
	H55	H	0.407902	0.422460	0.885596
	H56	H	0.110579	0.597659	0.415693
	H57	H	0.886050	0.593455	0.586328
	H58	H	0.112491	0.414463	0.587128
	H59	H	0.885694	0.426570	0.400428
	H60	H	0.109377	0.418547	0.582018
	H61	H	0.885856	0.595622	0.583032
	H62	H	0.108191	0.585332	0.409252
	H63	H	0.881555	0.406762	0.405983
	H64	H	0.405446	0.588098	0.108291
	H65	H	0.582063	0.594451	0.884035
	H66	H	0.577498	0.414467	0.106205
	H67	H	0.412993	0.418641	0.885413
	H68	H	0.586675	0.119579	0.402817
	H69	H	0.584018	0.895117	0.583078
	H70	H	0.410470	0.117239	0.579977
	H71	H	0.408412	0.892276	0.405008
	H72	H	0.910752	0.617423	0.079686
	H73	H	0.080062	0.396331	0.086730
	H74	H	0.084859	0.619225	0.907547
	H75	H	0.908961	0.392428	0.903976
	H76	H	0.082867	0.914872	0.607212
	H77	H	0.080625	0.101914	0.384209
	H78	H	0.907208	0.090902	0.608922
	H79	H	0.908296	0.920241	0.384930
	H80	H	0.607576	0.093478	0.912596
	H81	H	0.385705	0.085721	0.083969
	H82	H	0.607030	0.920502	0.082958
	H83	H	0.388270	0.927416	0.912672
	H84	H	0.611202	0.916201	0.088714
	H85	H	0.381955	0.096274	0.088568
	H86	H	0.609191	0.090664	0.903789
	H87	H	0.381778	0.920833	0.900960
	H88	H	0.913400	0.096827	0.609707
	H89	H	0.093150	0.094351	0.382033
	H90	H	0.089452	0.921942	0.607332
	H91	H	0.914716	0.917797	0.385439
	H92	H	0.080569	0.617145	0.910052
	H93	H	0.086055	0.397813	0.078965
	H94	H	0.902093	0.622650	0.085644
	H95	H	0.912384	0.395615	0.909943
	H96	H	0.412559	0.117383	0.582619
	H97	H	0.587486	0.893159	0.583532
	H98	H	0.588082	0.118453	0.406258
	H99	H	0.415558	0.894570	0.407803
	H100	H	0.591733	0.411107	0.112435
	H101	H	0.586176	0.597112	0.882135
	H102	H	0.416528	0.593089	0.105593
	H103	H	0.407228	0.416378	0.882757
	H104	H	0.113724	0.596181	0.402619
	H105	H	0.888347	0.591991	0.583472
	H106	H	0.110394	0.421417	0.588637
	H107	H	0.890873	0.420160	0.419415
	H108	H	0.912260	0.620701	0.091181
	H109	H	0.089050	0.393009	0.087248
	H110	H	0.085433	0.617858	0.912164
	H111	H	0.905387	0.393083	0.910229
	H112	H	0.080974	0.923614	0.604067
	H113	H	0.081593	0.087746	0.387985
	H114	H	0.905528	0.098281	0.612444
	H115	H	0.909914	0.913983	0.382797
	H116	H	0.612144	0.099123	0.906037
	H117	H	0.385537	0.095545	0.076605
	H118	H	0.608995	0.912522	0.081532
	H119	H	0.383466	0.912941	0.913790
	C120	C	0.377049	0.014217	0.616313
	C121	C	0.618832	0.997582	0.616937
	C122	C	0.620043	0.014199	0.373382
	C123	C	0.377170	0.997499	0.374138
	C124	C	0.618623	0.384460	0.004384
	C125	C	0.618182	0.627465	0.987328
	C126	C	0.375946	0.627264	0.004878
	C127	C	0.375784	0.384951	0.988402
	C128	C	0.006628	0.626676	0.376509
	C129	C	0.990161	0.627427	0.618612
	C130	C	0.006550	0.384701	0.618683
	C131	C	0.990076	0.384888	0.375245
	C132	C	0.876340	0.516066	0.118131
	C133	C	0.119959	0.498664	0.118812
	C134	C	0.117606	0.514871	0.876281
	C135	C	0.875205	0.497523	0.874711
	C136	C	0.119985	0.884493	0.504134
	C137	C	0.120230	0.128150	0.487900
	C138	C	0.877343	0.127289	0.505722
	C139	C	0.877290	0.884489	0.488253
	C140	C	0.506105	0.128752	0.873673
	C141	C	0.488577	0.125049	0.115524
	C142	C	0.505444	0.882829	0.118664
	C143	C	0.487791	0.886143	0.875490
	C144	C	0.371184	0.897875	0.680349
	C145	C	0.622665	0.116489	0.677520
	C146	C	0.622648	0.894883	0.314437
	C147	C	0.374659	0.116461	0.313241
	C148	C	0.678727	0.382862	0.885209
	C149	C	0.678877	0.630149	0.105971
	C150	C	0.314377	0.631077	0.886640
	C151	C	0.314229	0.380862	0.106559
	C152	C	0.887263	0.687077	0.374794
	C153	C	0.108487	0.688767	0.622763
	C154	C	0.887823	0.323531	0.621402
	C155	C	0.108467	0.323330	0.371453
	C156	C	0.887001	0.382174	0.677761
	C157	C	0.108321	0.630745	0.680305
	C158	C	0.887543	0.630260	0.316134
	C159	C	0.107812	0.380476	0.312897
	C160	C	0.371290	0.689565	0.886908
	C161	C	0.621543	0.688591	0.105650
	C162	C	0.620384	0.325322	0.885044
	C163	C	0.372717	0.323394	0.106781
	C164	C	0.680437	0.895096	0.372519
	C165	C	0.679437	0.116491	0.618852
	C166	C	0.313634	0.897455	0.622338
	C167	C	0.314835	0.115714	0.369003
	C168	C	0.875201	0.397216	0.178450
	C169	C	0.124393	0.616292	0.180607
	C170	C	0.122782	0.396918	0.814076
	C171	C	0.870522	0.614916	0.812048
	C172	C	0.182470	0.879359	0.386432
	C173	C	0.184010	0.132063	0.604855
	C174	C	0.818991	0.128437	0.385927
	C175	C	0.814444	0.879502	0.605591
	C176	C	0.388439	0.191383	0.868098
	C177	C	0.606496	0.187105	0.119370
	C178	C	0.387416	0.821240	0.123173
	C179	C	0.605842	0.823641	0.871796
	C180	C	0.388342	0.877582	0.181950
	C181	C	0.607034	0.128273	0.176317
	C182	C	0.388521	0.133269	0.810916
	C183	C	0.605572	0.880773	0.813284
	C184	C	0.876108	0.187208	0.386529
	C185	C	0.126356	0.190208	0.605419
	C186	C	0.125447	0.820692	0.387391
	C187	C	0.873289	0.822265	0.606181
	C188	C	0.180965	0.397401	0.871569
	C189	C	0.182233	0.616199	0.123195
	C190	C	0.815888	0.397434	0.121802
	C191	C	0.813887	0.615611	0.871012
	C192	C	0.404316	0.095622	0.588709
	C193	C	0.592847	0.915467	0.591640
	C194	C	0.595485	0.097543	0.397263
	C195	C	0.403302	0.915453	0.400802
	C196	C	0.593205	0.409796	0.086929
	C197	C	0.592299	0.601883	0.904964
	C198	C	0.402360	0.601064	0.087230
	C199	C	0.402020	0.411300	0.906151
	C200	C	0.089196	0.600765	0.401888
	C201	C	0.908066	0.601323	0.591908
	C202	C	0.089073	0.410410	0.593270
	C203	C	0.907534	0.410580	0.401198
	C204	C	0.901302	0.598798	0.092714
	C205	C	0.092893	0.416813	0.091888
	C206	C	0.091042	0.596497	0.902435
	C207	C	0.901340	0.415241	0.900780
	C208	C	0.092489	0.912387	0.585056
	C209	C	0.092877	0.102037	0.406141
	C210	C	0.901891	0.102469	0.588683
	C211	C	0.903689	0.910105	0.405832
	C212	C	0.588192	0.102198	0.900173
	C213	C	0.405920	0.099858	0.090216
	C214	C	0.587546	0.908934	0.091982
	C215	C	0.405843	0.912729	0.901719
	Zn216	Zn	0.497570	0.006979	0.745885
	Zn217	Zn	0.497416	0.004620	0.245505
	Zn218	Zn	0.747252	0.506133	-0.003839
	Zn219	Zn	0.247178	0.507093	-0.003116
	Zn220	Zn	-0.001267	0.755607	0.496790
	Zn221	Zn	-0.001260	0.256981	0.497333
	Zn222	Zn	-0.002684	0.505794	0.746919
	Zn223	Zn	-0.001359	0.507267	0.246920
	Zn224	Zn	0.496190	0.755773	-0.003993
	Zn225	Zn	0.496488	0.255722	-0.004188
	Zn226	Zn	0.747845	0.005744	0.496031
	Zn227	Zn	0.248438	0.005843	0.494677
	N228	N	0.409797	0.971679	0.676814
	N229	N	0.585857	0.041438	0.676881
	N230	N	0.586193	0.970079	0.314457
	N231	N	0.412347	0.041817	0.316252
	N232	N	0.677913	0.418760	0.960586
	N233	N	0.677169	0.593200	0.031283
	N234	N	0.317120	0.593226	0.961052
	N235	N	0.316025	0.418422	0.031916
	N236	N	0.962288	0.684843	0.411677
	N237	N	0.033835	0.686905	0.585214
	N238	N	0.963459	0.324591	0.585662
	N239	N	0.034302	0.326118	0.409879
	N240	N	0.961789	0.419253	0.676619
	N241	N	0.033536	0.593629	0.678106
	N242	N	0.962805	0.593845	0.316837
	N243	N	0.033336	0.418273	0.315354
	N244	N	0.408341	0.687644	0.961773
	N245	N	0.584774	0.687357	0.030724
	N246	N	0.584036	0.325982	0.960210
	N247	N	0.409753	0.325560	0.032057
	N248	N	0.679026	0.970344	0.408252
	N249	N	0.677601	0.041632	0.582266
	N250	N	0.317130	0.971138	0.583184
	N251	N	0.316059	0.040794	0.405938
	N252	N	0.911875	0.471948	0.176385
	N253	N	0.086433	0.542016	0.177976
	N254	N	0.083879	0.470855	0.816804
	N255	N	0.908056	0.540305	0.814172
	N256	N	0.179165	0.918301	0.460111
	N257	N	0.180336	0.094267	0.530666
	N258	N	0.819343	0.092029	0.461082
	N259	N	0.817055	0.917602	0.531275
	N260	N	0.462499	0.188551	0.906523
	N261	N	0.531813	0.185133	0.082107
	N262	N	0.461342	0.824286	0.084447
	N263	N	0.531603	0.826804	0.909814
	N264	N	0.462845	0.915009	0.179337
	N265	N	0.532950	0.090135	0.173785
	N266	N	0.462789	0.095080	0.814053
	N267	N	0.531379	0.918877	0.815356
	N268	N	0.911651	0.186713	0.462080
	N269	N	0.087472	0.187908	0.531615
	N270	N	0.087254	0.823660	0.461558
	N271	N	0.911989	0.825672	0.532387
	N272	N	0.177729	0.471471	0.909614
	N273	N	0.179202	0.542094	0.085258
	N274	N	0.816320	0.472402	0.085130
	N275	N	0.816954	0.541786	0.909396
	O276	O	0.529901	0.627288	0.698718
	H277	H	0.523217	0.639774	0.684564
	H278	H	0.517312	0.651572	0.703826
	O279	O	1.212226	-0.206438	0.972872
	H280	H	1.234487	-0.199903	0.989560
	H281	H	1.220225	-0.212663	0.993713
	O282	O	0.478390	0.715122	0.431319
	H283	H	0.468746	0.734224	0.416251
	H284	H	0.492484	0.701272	0.431791
	O285	O	0.689659	0.307025	0.300232
	H286	H	0.693315	0.330968	0.290693
	H287	H	0.712041	0.285453	0.288005
	O288	O	1.060254	0.828342	0.095972
	H289	H	1.066844	0.829542	0.102389
	H290	H	1.045258	0.824152	0.069775
	O291	O	0.785747	0.040932	0.053789
	H292	H	0.777022	0.045497	0.050091
	H293	H	0.790466	0.030038	0.046429
	O294	O	-0.191540	0.190193	1.179871
	H295	H	-0.175070	0.168459	1.166925
	H296	H	-0.177077	0.179748	1.153561
	O297	O	0.619359	0.596039	0.637140
	H298	H	0.587995	0.591272	0.649071
	H299	H	0.618946	0.569701	0.638476
	O300	O	0.718481	0.329904	0.459747
	H301	H	0.734906	0.310987	0.456637
	H302	H	0.719720	0.326724	0.423163
	O303	O	0.305757	0.424289	0.676327
	H304	H	0.322296	0.417805	0.666445
	H305	H	0.292424	0.407234	0.667345
	O306	O	0.166812	0.834309	0.818146
	H307	H	0.183008	0.820276	0.869586
	H308	H	0.169710	0.882632	0.812977
	O309	O	0.413685	0.443534	0.309258
	H310	H	0.417256	0.440360	0.321695
	H311	H	0.425224	0.428433	0.306879
	O312	O	0.217297	1.225018	1.017978
	H313	H	0.213863	1.232405	1.030446
	H314	H	0.232914	1.250270	1.024813
	O315	O	0.556447	0.430824	0.571376
	H316	H	0.573684	0.423251	0.549274
	H317	H	0.549467	0.439438	0.583923
	O318	O	1.189056	0.123313	0.190756
	H319	H	1.174710	0.119174	0.174574
	H320	H	1.173069	0.129495	0.211953
	O321	O	0.047550	0.072122	-0.227155
	H322	H	0.089448	0.056535	-0.227018
	H323	H	0.022364	0.033678	-0.227327
	O324	O	0.555248	0.466573	0.309515
	H325	H	0.575608	0.465433	0.288619
	H326	H	0.536568	0.491398	0.322138
	O327	O	0.284658	0.722174	0.479095
	H328	H	0.255181	0.749167	0.470701
	H329	H	0.294813	0.713940	0.438846
	O330	O	-0.186554	0.817384	0.183303
	H331	H	-0.165616	0.836686	0.188730
	H332	H	-0.192973	0.809078	0.136492
	O333	O	0.884857	0.827769	0.977269
	H334	H	0.878471	0.835296	0.968408
	H335	H	0.893559	0.831541	0.967587
	O336	O	-0.004507	0.222135	-0.000898
	H337	H	-0.007517	0.217153	-0.021448
	H338	H	-0.027382	0.230019	-0.009016
	O339	O	-0.063318	0.943617	0.778526
	H340	H	-0.080778	0.924969	0.786865
	H341	H	-0.052076	0.916932	0.770446
	O342	O	0.024884	1.198433	0.969309
	H343	H	0.025273	1.191750	0.960642
	H344	H	0.021462	1.209977	0.954153
	O345	O	1.207081	0.939224	0.064150
	H346	H	1.215008	0.962679	0.100500
	H347	H	1.183445	0.942011	0.065326
	O348	O	0.700065	0.708401	0.518430
	H349	H	0.707356	0.707148	0.544410
	H350	H	0.711864	0.707956	0.529140
	O351	O	-0.051349	0.945194	1.110263
	H352	H	-0.035281	0.944642	1.101770
	H353	H	-0.061562	0.928843	1.108403
	O354	O	-0.179948	0.774514	-0.191261
	H355	H	-0.181090	0.777326	-0.200944
	H356	H	-0.182825	0.767092	-0.197942
	O357	O	-0.213936	0.021408	0.783319
	H358	H	-0.228097	0.029127	0.775311
	H359	H	-0.204935	0.017980	0.774345
	O360	O	0.599269	0.357394	0.540813
	H361	H	0.606851	0.362885	0.538803
	H362	H	0.600076	0.357653	0.535664
	O363	O	-0.101752	-0.188025	1.117782
	H364	H	-0.088758	-0.194917	1.087368
	H365	H	-0.101385	-0.207525	1.125131
	O366	O	0.573932	0.462943	0.510772
	H367	H	0.573539	0.460117	0.505846
	H368	H	0.569506	0.470478	0.505460
	O369	O	0.560110	0.413923	0.680246
	H370	H	0.581334	0.414766	0.686250
	H371	H	0.549702	0.420708	0.685779
	O372	O	1.036803	0.109724	1.137382
	H373	H	1.017001	0.099470	1.138520
	H374	H	1.047176	0.123159	1.148845
	O375	O	0.495612	0.408983	0.485782
	H376	H	0.487299	0.405849	0.494045
	H377	H	0.514785	0.407492	0.481396
	O378	O	0.400999	0.307742	0.690787
	H379	H	0.418301	0.314589	0.681341
	H380	H	0.422193	0.307271	0.706114
	O381	O	0.812971	-0.013732	0.960428
	H382	H	0.820848	-0.007261	0.945954
	H383	H	0.810355	-0.028934	0.967680
	O384	O	0.567810	0.646939	0.467173
	H385	H	0.561464	0.643602	0.469468
	H386	H	0.565225	0.643396	0.460587
	O387	O	-0.178646	0.179548	0.822530
	H388	H	-0.153446	0.168477	0.809050
	H389	H	-0.155181	0.170261	0.829432
	O390	O	0.070337	0.188084	0.174396
	H391	H	0.042215	0.169449	0.181148
	H392	H	0.064806	0.171588	0.162352
	O393	O	0.915991	0.793011	0.912127
	H394	H	0.921199	0.794731	0.901272
	H395	H	0.929821	0.789831	0.899927
	O396	O	0.981417	0.039600	-0.031715
	H397	H	0.983043	0.049663	-0.033475
	H398	H	0.993866	0.040025	-0.044338
	O399	O	0.780860	0.229545	0.974639
	H400	H	0.771994	0.234701	0.940678
	H401	H	0.765844	0.238158	0.959730
	O402	O	1.471254	0.562507	1.690545
	H403	H	1.449474	0.560598	1.690565
	H404	H	1.466026	0.582376	1.693452
	O405	O	1.165556	0.997498	0.214732
	H406	H	1.138072	1.021889	0.206631
	H407	H	1.175537	1.001542	0.239956
	O408	O	0.977572	-0.089131	0.222557
	H409	H	0.968996	-0.111009	0.236415
	H410	H	0.947205	-0.076815	0.214174
	O411	O	1.195863	1.087205	-0.094181
	H412	H	1.195959	1.113718	-0.086430
	H413	H	1.183389	1.092321	-0.074446
	O414	O	0.512347	0.637389	0.287620
	H415	H	0.508285	0.637461	0.287058
	H416	H	0.505809	0.646577	0.290617
	O417	O	0.307055	0.496027	0.595177
	H418	H	0.290682	0.513755	0.577828
	H419	H	0.313522	0.479417	0.596935
	O420	O	-0.217579	-0.021808	0.211038
	H421	H	-0.246821	-0.020153	0.240103
	H422	H	-0.215946	-0.038079	0.191649
	O423	O	0.672326	0.509245	0.371378
	H424	H	0.677891	0.505699	0.359003
	H425	H	0.665465	0.497673	0.371714
	O426	O	0.518509	0.630253	0.553667
	H427	H	0.519245	0.626078	0.547914
	H428	H	0.506204	0.631155	0.561588
	O429	O	0.288645	0.296068	0.528723
	H430	H	0.285248	0.296357	0.523265
	H431	H	0.282047	0.274986	0.517796
	O432	O	0.574301	0.669674	0.416071
	H433	H	0.583095	0.672845	0.425101
	H434	H	0.576842	0.667009	0.427458
	O435	O	0.321173	0.685471	0.323346
	H436	H	0.339347	0.659395	0.312377
	H437	H	0.339515	0.668510	0.318084
	O438	O	0.204098	-0.004778	-0.209815
	H439	H	0.208843	0.011543	-0.168252
	H440	H	0.240027	-0.001355	-0.239109
	O441	O	0.975583	0.224498	-0.221442
	H442	H	0.987060	0.214137	-0.245827
	H443	H	0.988479	0.221663	-0.247385
	O444	O	0.016146	0.790330	0.776586
	H445	H	0.056716	0.797163	0.789249
	H446	H	0.029617	0.760498	0.747547
	O447	O	0.302342	0.570351	0.568309
	H448	H	0.307773	0.578962	0.561711
	H449	H	0.290427	0.591758	0.572190
	O450	O	0.483593	0.297279	0.335515
	H451	H	0.499197	0.299647	0.348587
	H452	H	0.501416	0.288549	0.314733
	O453	O	0.313122	0.517420	0.343636
	H454	H	0.319136	0.491758	0.340663
	H455	H	0.299747	0.515763	0.331623
