data_Molecule from HDF5

_cell_length_a		16.276733
_cell_length_b		16.469528
_cell_length_c		16.256730
_cell_angle_alpha	90.230312
_cell_angle_beta	90.258253
_cell_angle_gamma	90.417897
_symmetry_space_group_name_H-M	'P 1'
_symmetry_Int_Tables_number		1

loop_
	_symmetry_equiv_pos_as_xyz
	x,y,z

loop_
	_atom_site_label
	_atom_site_type_symbol
	_atom_site_fract_x
	_atom_site_fract_y
	_atom_site_fract_z
	H0	H	0.378962	0.817862	0.714295
	H1	H	0.586089	0.138684	0.718096
	H2	H	0.582458	0.818598	0.279432
	H3	H	0.383273	0.141322	0.280993
	H4	H	0.697861	0.376289	0.836403
	H5	H	0.700322	0.580798	0.160535
	H6	H	0.267211	0.577942	0.834967
	H7	H	0.267021	0.379731	0.160974
	H8	H	0.823063	0.698203	0.391826
	H9	H	0.144802	0.699406	0.601314
	H10	H	0.825030	0.258475	0.602208
	H11	H	0.145331	0.261599	0.393461
	H12	H	0.822016	0.376618	0.713436
	H13	H	0.145708	0.582631	0.715407
	H14	H	0.821516	0.580343	0.278771
	H15	H	0.146436	0.381464	0.281445
	H16	H	0.378703	0.695274	0.835862
	H17	H	0.586397	0.698577	0.158858
	H18	H	0.586064	0.257606	0.838683
	H19	H	0.377653	0.260513	0.160066
	H20	H	0.701049	0.818481	0.394868
	H21	H	0.704505	0.138124	0.602802
	H22	H	0.262055	0.819719	0.598545
	H23	H	0.265893	0.141315	0.396750
	H24	H	0.881137	0.319214	0.216181
	H25	H	0.088002	0.640349	0.216413
	H26	H	0.083871	0.319125	0.777179
	H27	H	0.881779	0.639752	0.779572
	H28	H	0.197708	0.880778	0.334809
	H29	H	0.201784	0.083614	0.659741
	H30	H	0.764854	0.080424	0.336717
	H31	H	0.765393	0.875187	0.659333
	H32	H	0.321075	0.196448	0.893551
	H33	H	0.641966	0.200558	0.105937
	H34	H	0.320330	0.760430	0.098950
	H35	H	0.642515	0.759662	0.892237
	H36	H	0.319715	0.878420	0.213536
	H37	H	0.645356	0.080876	0.215114
	H38	H	0.319966	0.076483	0.780721
	H39	H	0.643582	0.875919	0.779359
	H40	H	0.879286	0.198957	0.337330
	H41	H	0.092677	0.203158	0.657277
	H42	H	0.087386	0.760359	0.336496
	H43	H	0.877594	0.759087	0.657239
	H44	H	0.200271	0.317834	0.894452
	H45	H	0.203186	0.640205	0.098876
	H46	H	0.762455	0.319320	0.100419
	H47	H	0.763936	0.639138	0.894784
	H48	H	0.394651	0.090923	0.587616
	H49	H	0.580090	0.864382	0.583572
	H50	H	0.576702	0.092794	0.408950
	H51	H	0.397336	0.865439	0.398144
	H52	H	0.573484	0.385530	0.115138
	H53	H	0.572386	0.565308	0.883693
	H54	H	0.396658	0.572603	0.114021
	H55	H	0.395601	0.380068	0.882130
	H56	H	0.099358	0.570039	0.403053
	H57	H	0.866229	0.569566	0.593811
	H58	H	0.097063	0.389948	0.578884
	H59	H	0.868237	0.385771	0.407504
	H60	H	0.097367	0.398813	0.590319
	H61	H	0.866851	0.576515	0.584769
	H62	H	0.099571	0.576632	0.410251
	H63	H	0.870253	0.389364	0.408861
	H64	H	0.390844	0.570650	0.114311
	H65	H	0.568517	0.572098	0.882821
	H66	H	0.574367	0.393571	0.113255
	H67	H	0.385889	0.386538	0.881213
	H68	H	0.574052	0.092900	0.407406
	H69	H	0.573454	0.862694	0.595733
	H70	H	0.390259	0.094481	0.590098
	H71	H	0.391725	0.869758	0.416012
	H72	H	0.893874	0.591564	0.084598
	H73	H	0.070276	0.368026	0.087818
	H74	H	0.073573	0.591805	0.907652
	H75	H	0.892852	0.366169	0.905039
	H76	H	0.073653	0.887933	0.613784
	H77	H	0.068567	0.075567	0.382502
	H78	H	0.896017	0.066098	0.611893
	H79	H	0.896675	0.897243	0.386348
	H80	H	0.600239	0.074739	0.908466
	H81	H	0.366810	0.068016	0.090887
	H82	H	0.595798	0.896284	0.090965
	H83	H	0.365633	0.878468	0.910779
	H84	H	0.600804	0.882486	0.093861
	H85	H	0.365387	0.072595	0.090063
	H86	H	0.593859	0.069586	0.917464
	H87	H	0.371152	0.892472	0.912994
	H88	H	0.899832	0.071682	0.612312
	H89	H	0.079445	0.073936	0.379233
	H90	H	0.073870	0.890865	0.613395
	H91	H	0.899970	0.881807	0.382639
	H92	H	0.078108	0.592208	0.908124
	H93	H	0.077471	0.365932	0.085868
	H94	H	0.891992	0.592711	0.089597
	H95	H	0.889332	0.365782	0.908027
	H96	H	0.395360	0.093219	0.592758
	H97	H	0.566596	0.868395	0.584987
	H98	H	0.574526	0.091358	0.410046
	H99	H	0.379214	0.862951	0.403497
	H100	H	0.567336	0.389640	0.112385
	H101	H	0.575727	0.571263	0.880604
	H102	H	0.394835	0.567136	0.111777
	H103	H	0.395633	0.390525	0.885551
	H104	H	0.095870	0.567997	0.412199
	H105	H	0.870414	0.565222	0.583434
	H106	H	0.103020	0.385157	0.591381
	H107	H	0.868928	0.388853	0.405080
	H108	H	0.896217	0.591084	0.088562
	H109	H	0.074106	0.364047	0.092837
	H110	H	0.075605	0.592822	0.904560
	H111	H	0.888950	0.364522	0.903841
	H112	H	0.071735	0.888939	0.612008
	H113	H	0.073306	0.064964	0.384434
	H114	H	0.893867	0.071503	0.613711
	H115	H	0.885058	0.887115	0.379721
	H116	H	0.596292	0.063439	0.907653
	H117	H	0.368046	0.070258	0.086563
	H118	H	0.596311	0.885922	0.079898
	H119	H	0.364762	0.888687	0.899219
	C120	C	0.361154	-0.012606	0.620074
	C121	C	0.605691	0.970148	0.620578
	C122	C	0.605232	-0.012821	0.376821
	C123	C	0.360671	0.972340	0.376148
	C124	C	0.602591	0.357619	0.007501
	C125	C	0.603724	0.600536	0.989300
	C126	C	0.362903	0.599704	0.005909
	C127	C	0.361350	0.356393	0.990070
	C128	C	-0.008225	0.601408	0.376743
	C129	C	0.974890	0.601644	0.618822
	C130	C	-0.007297	0.359091	0.617918
	C131	C	0.975794	0.358225	0.376409
	C132	C	0.862188	0.486866	0.118782
	C133	C	0.105885	0.471511	0.119764
	C134	C	0.105363	0.486990	0.875263
	C135	C	0.860363	0.471029	0.875019
	C136	C	0.103707	0.858815	0.506074
	C137	C	0.105106	0.102307	0.488968
	C138	C	0.864171	0.100358	0.506418
	C139	C	0.862047	0.857621	0.489126
	C140	C	0.490222	0.099116	0.878689
	C141	C	0.473471	0.101319	0.120686
	C142	C	0.490631	0.857675	0.118844
	C143	C	0.473343	0.856348	0.876258
	C144	C	0.360102	0.866624	0.676460
	C145	C	0.606137	0.090491	0.679394
	C146	C	0.603096	0.866664	0.318340
	C147	C	0.362916	0.093130	0.319381
	C148	C	0.659609	0.356908	0.885255
	C149	C	0.661823	0.600469	0.111487
	C150	C	0.305652	0.597683	0.883712
	C151	C	0.304352	0.358536	0.112107
	C152	C	0.870871	0.658859	0.374043
	C153	C	0.096330	0.660436	0.620078
	C154	C	0.872452	0.298558	0.620151
	C155	C	0.097187	0.300919	0.375132
	C156	C	0.870972	0.357694	0.675308
	C157	C	0.096827	0.601787	0.676704
	C158	C	0.870161	0.600277	0.317631
	C159	C	0.097869	0.360327	0.319532
	C160	C	0.361073	0.656535	0.884288
	C161	C	0.605454	0.659184	0.110607
	C162	C	0.604108	0.297653	0.886484
	C163	C	0.359882	0.299514	0.111783
	C164	C	0.662036	0.866484	0.375835
	C165	C	0.664651	0.090415	0.621739
	C166	C	0.301593	0.867418	0.618779
	C167	C	0.304327	0.093090	0.376934
	C168	C	0.861582	0.367022	0.177063
	C169	C	0.106732	0.592200	0.177271
	C170	C	0.103805	0.366661	0.816665
	C171	C	0.861311	0.591440	0.817619
	C172	C	0.159924	0.860368	0.383647
	C173	C	0.163610	0.103134	0.610925
	C174	C	0.804350	0.099946	0.385123
	C175	C	0.803990	0.856400	0.610452
	C176	C	0.369149	0.156949	0.875973
	C177	C	0.594451	0.160298	0.123069
	C178	C	0.368960	0.799398	0.118688
	C179	C	0.594507	0.798763	0.874479
	C180	C	0.368449	0.858556	0.175144
	C181	C	0.595835	0.101093	0.177945
	C182	C	0.368527	0.097409	0.819711
	C183	C	0.595027	0.856795	0.818206
	C184	C	0.861222	0.158973	0.385430
	C185	C	0.109009	0.162440	0.609763
	C186	C	0.105178	0.800184	0.384778
	C187	C	0.859788	0.798459	0.609573
	C188	C	0.161546	0.365952	0.875229
	C189	C	0.164425	0.592017	0.119073
	C190	C	0.802431	0.367067	0.119632
	C191	C	0.802905	0.591330	0.875337
	C192	C	0.386200	0.071164	0.596756
	C193	C	0.580658	0.886643	0.595470
	C194	C	0.582063	0.070671	0.401512
	C195	C	0.382994	0.888006	0.399148
	C196	C	0.578700	0.382337	0.091790
	C197	C	0.579410	0.576420	0.904367
	C198	C	0.387255	0.576941	0.091351
	C199	C	0.385339	0.379012	0.905174
	C200	C	0.076378	0.578343	0.401283
	C201	C	0.889757	0.577638	0.594347
	C202	C	0.077143	0.384174	0.593909
	C203	C	0.891295	0.381156	0.400263
	C204	C	0.886894	0.570200	0.094479
	C205	C	0.081076	0.387621	0.095831
	C206	C	0.082579	0.570502	0.899570
	C207	C	0.883413	0.387493	0.898593
	C208	C	0.079934	0.882485	0.591086
	C209	C	0.080774	0.078376	0.404135
	C210	C	0.889348	0.076741	0.590742
	C211	C	0.886652	0.881889	0.404705
	C212	C	0.574842	0.075980	0.903866
	C213	C	0.388628	0.077210	0.096288
	C214	C	0.575549	0.881196	0.095150
	C215	C	0.389059	0.879663	0.900579
	Zn216	Zn	0.483005	-0.021692	0.749277
	Zn217	Zn	0.482740	-0.019972	0.247165
	Zn218	Zn	0.731029	0.479059	-0.002628
	Zn219	Zn	0.234773	0.478452	-0.002554
	Zn220	Zn	-0.017409	0.730219	0.497645
	Zn221	Zn	-0.014908	0.230317	0.497980
	Zn222	Zn	-0.017205	0.479256	0.746339
	Zn223	Zn	-0.015965	0.480119	0.248966
	Zn224	Zn	0.482505	0.728599	-0.002806
	Zn225	Zn	0.482023	0.228484	-0.000483
	Zn226	Zn	0.734881	-0.021691	0.498647
	Zn227	Zn	0.231664	-0.019414	0.497940
	N228	N	0.396354	0.942280	0.677288
	N229	N	0.570423	0.014545	0.678932
	N230	N	0.568524	0.942594	0.318873
	N231	N	0.396796	0.016920	0.318567
	N232	N	0.659228	0.393302	0.961460
	N233	N	0.661009	0.564874	0.034731
	N234	N	0.306651	0.562961	0.960477
	N235	N	0.305040	0.393109	0.035314
	N236	N	0.947512	0.659858	0.409948
	N237	N	0.019451	0.660249	0.584767
	N238	N	0.949081	0.299481	0.584955
	N239	N	0.020043	0.299446	0.409571
	N240	N	0.946780	0.394639	0.674003
	N241	N	0.020173	0.565990	0.676104
	N242	N	0.946404	0.565219	0.319412
	N243	N	0.021564	0.395195	0.319997
	N244	N	0.396202	0.657534	0.961473
	N245	N	0.570309	0.659510	0.033590
	N246	N	0.569452	0.297908	0.963471
	N247	N	0.394455	0.297922	0.034811
	N248	N	0.663694	0.942430	0.411317
	N249	N	0.664704	0.014440	0.586284
	N250	N	0.301914	0.943599	0.584678
	N251	N	0.302554	0.016874	0.411260
	N252	N	0.897974	0.442460	0.176656
	N253	N	0.071157	0.516202	0.178070
	N254	N	0.069816	0.442831	0.816288
	N255	N	0.896244	0.515689	0.817148
	N256	N	0.159263	0.896120	0.460178
	N257	N	0.161509	0.066397	0.534900
	N258	N	0.806031	0.064257	0.461319
	N259	N	0.805423	0.892603	0.534557
	N260	N	0.445801	0.157865	0.912055
	N261	N	0.517322	0.160676	0.088221
	N262	N	0.446052	0.798892	0.084333
	N263	N	0.517910	0.798199	0.909750
	N264	N	0.445214	0.894005	0.175626
	N265	N	0.519512	0.065005	0.176447
	N266	N	0.444770	0.062038	0.821409
	N267	N	0.518773	0.891885	0.818998
	N268	N	0.897697	0.159376	0.461891
	N269	N	0.073523	0.162164	0.532825
	N270	N	0.071002	0.799164	0.462025
	N271	N	0.895226	0.799073	0.532817
	N272	N	0.162743	0.441740	0.910938
	N273	N	0.163972	0.515892	0.084036
	N274	N	0.802678	0.442634	0.083935
	N275	N	0.801843	0.515395	0.910155
	O276	O	0.315874	0.421955	0.566039
	H277	H	0.309466	0.420282	0.567671
	H278	H	0.327732	0.412367	0.562230
	O279	O	0.673982	0.378188	0.382954
	H280	H	0.683054	0.362470	0.369738
	H281	H	0.677906	0.370268	0.381873
	O282	O	1.149367	-0.032135	1.139786
	H283	H	1.171054	-0.021271	1.154641
	H284	H	1.133068	-0.009550	1.143458
	O285	O	0.488400	0.450446	0.365988
	H286	H	0.489379	0.455795	0.356965
	H287	H	0.489681	0.450649	0.365260
	O288	O	0.805308	1.040167	1.034583
	H289	H	0.810471	1.033373	1.033736
	H290	H	0.807314	1.028750	1.050787
	O291	O	0.052043	1.155793	-0.093789
	H292	H	0.052338	1.169084	-0.106316
	H293	H	0.042250	1.155177	-0.060639
	O294	O	0.461448	0.427363	0.489095
	H295	H	0.464502	0.428447	0.475750
	H296	H	0.464665	0.424596	0.492276
	O297	O	0.330224	0.418332	0.484278
	H298	H	0.322072	0.415665	0.472306
	H299	H	0.330955	0.423534	0.485169
	O300	O	0.536673	0.578659	0.588256
	H301	H	0.534224	0.579911	0.598566
	H302	H	0.533703	0.574227	0.588161
	O303	O	0.339256	0.614270	0.474839
	H304	H	0.342886	0.608239	0.477522
	H305	H	0.339800	0.620999	0.456991
	O306	O	0.428164	0.607270	0.382869
	H307	H	0.439987	0.621239	0.384708
	H308	H	0.423670	0.600158	0.381032
	O309	O	1.031843	0.951563	0.114576
	H310	H	1.024387	0.953386	0.100543
	H311	H	1.022983	0.954899	0.117180
	O312	O	-0.088507	-0.092979	0.097389
	H313	H	-0.084820	-0.094821	0.104246
	H314	H	-0.099987	-0.100207	0.103367
	O315	O	0.625079	0.490810	0.518719
	H316	H	0.635418	0.482606	0.512385
	H317	H	0.618914	0.502183	0.511661
	O318	O	0.003168	1.029556	0.827210
	H319	H	-0.001318	1.033841	0.820225
	H320	H	-0.008457	1.017226	0.823625
	O321	O	0.553357	0.384797	0.404774
	H322	H	0.555040	0.385630	0.414131
	H323	H	0.553336	0.376383	0.403708
	O324	O	0.102827	0.997313	0.006962
	H325	H	0.105587	0.987020	0.002557
	H326	H	0.110755	1.007751	0.011407
	O327	O	0.596520	0.404486	0.495369
	H328	H	0.587352	0.415477	0.490099
	H329	H	0.609702	0.401628	0.506128
	O330	O	-1.150474	0.899726	2.064861
	H331	H	-1.153024	0.902014	2.075395
	H332	H	-1.155410	0.893024	2.063037
	O333	O	-0.173448	-0.067639	0.964850
	H334	H	-0.170101	-0.053683	0.956581
	H335	H	-0.186461	-0.056818	0.960651
	O336	O	0.603936	0.342760	0.443765
	H337	H	0.585716	0.342083	0.449186
	H338	H	0.602673	0.333737	0.439314
	O339	O	0.962398	0.133307	0.085464
	H340	H	0.966360	0.121419	0.087708
	H341	H	0.963567	0.130919	0.088381
	O342	O	0.108299	-0.134324	-0.031472
	H343	H	0.098684	-0.124365	-0.040969
	H344	H	0.114703	-0.133212	-0.029831
	O345	O	1.414861	0.499839	0.455161
	H346	H	1.425379	0.506916	0.456122
	H347	H	1.415134	0.496230	0.455261
	O348	O	1.436568	1.506027	0.574055
	H349	H	1.440292	1.504254	0.573611
	H350	H	1.441236	1.508229	0.580000
	O351	O	0.467266	0.579511	0.641698
	H352	H	0.446981	0.585614	0.649376
	H353	H	0.466698	0.583365	0.623319
	O354	O	0.796483	0.175926	0.932887
	H355	H	0.791373	0.194293	0.943040
	H356	H	0.797103	0.166431	0.932266
	O357	O	1.048344	0.034824	0.920611
	H358	H	1.057310	0.041451	0.909941
	H359	H	1.051313	0.041971	0.939524
	O360	O	0.337238	0.569005	0.418060
	H361	H	0.335667	0.566925	0.419244
	H362	H	0.355416	0.575622	0.416812
	O363	O	0.036539	0.806326	0.914027
	H364	H	0.038113	0.798550	0.906840
	H365	H	0.050301	0.812016	0.919498
	O366	O	0.895503	0.831613	0.091167
	H367	H	0.898380	0.831887	0.079721
	H368	H	0.893247	0.831539	0.093402
	O369	O	-0.193209	0.966639	-0.113353
	H370	H	-0.187441	0.951602	-0.113771
	H371	H	-0.199772	0.970950	-0.127931
	O372	O	0.829678	0.014939	-0.140542
	H373	H	0.827010	-0.002462	-0.123159
	H374	H	0.827369	0.024193	-0.142219
	O375	O	0.458214	0.519120	0.584475
	H376	H	0.454586	0.512258	0.580726
	H377	H	0.459618	0.512751	0.588294
	O378	O	1.492773	1.384865	0.429705
	H379	H	1.490646	1.392746	0.430103
	H380	H	1.500048	1.391703	0.421428
	O381	O	1.157054	0.160216	0.161900
	H382	H	1.152822	0.159355	0.150087
	H383	H	1.138428	0.165566	0.157580
	O384	O	1.099488	0.956529	-0.144606
	H385	H	1.096166	0.950531	-0.153021
	H386	H	1.112468	0.949531	-0.164687
	O387	O	0.106046	-0.003794	-0.086417
	H388	H	0.108523	-0.015335	-0.104055
	H389	H	0.116891	0.018937	-0.091556
	O390	O	-0.093299	0.809058	0.150011
	H391	H	-0.102388	0.790697	0.140838
	H392	H	-0.091331	0.812240	0.150821
	O393	O	1.065669	1.088020	1.110846
	H394	H	1.069839	1.090129	1.124720
	H395	H	1.064928	1.071329	1.099566
	O396	O	0.495033	0.563954	0.451608
	H397	H	0.493988	0.567105	0.451742
	H398	H	0.503218	0.574578	0.459132
	O399	O	0.063318	0.896552	1.028536
	H400	H	0.046609	0.883678	1.034752
	H401	H	0.078457	0.919464	1.030428
	O402	O	0.507551	0.592641	0.652330
	H403	H	0.500092	0.576850	0.652959
	H404	H	0.500517	0.596718	0.643456
	O405	O	0.945407	0.934922	-0.055854
	H406	H	0.953635	0.928380	-0.054558
	H407	H	0.936514	0.924255	-0.053639
	O408	O	1.628763	0.486908	0.615732
	H409	H	1.618753	0.489298	0.611150
	H410	H	1.639625	0.484350	0.627878
	O411	O	0.900133	-0.006981	0.973529
	H412	H	0.888693	-0.022034	0.967730
	H413	H	0.903077	-0.008626	0.975039
	O414	O	0.550261	0.444963	0.523897
	H415	H	0.545372	0.441168	0.520267
	H416	H	0.545953	0.446074	0.524583
	O417	O	0.525367	0.484838	0.558967
	H418	H	0.514726	0.477964	0.569183
	H419	H	0.516181	0.496918	0.567055
