data_Molecule from HDF5

_cell_length_a		16.502384
_cell_length_b		16.181034
_cell_length_c		16.195700
_cell_angle_alpha	90.212763
_cell_angle_beta	89.529551
_cell_angle_gamma	89.674098
_symmetry_space_group_name_H-M	'P 1'
_symmetry_Int_Tables_number		1

loop_
	_symmetry_equiv_pos_as_xyz
	x,y,z

loop_
	_atom_site_label
	_atom_site_type_symbol
	_atom_site_fract_x
	_atom_site_fract_y
	_atom_site_fract_z
	H0	H	0.396657	0.839072	0.716219
	H1	H	0.589704	0.167748	0.714710
	H2	H	0.594404	0.839147	0.287687
	H3	H	0.395424	0.167612	0.289004
	H4	H	0.715401	0.399613	0.837876
	H5	H	0.712390	0.607491	0.163282
	H6	H	0.278651	0.607757	0.837972
	H7	H	0.276170	0.402757	0.162676
	H8	H	0.833819	0.721730	0.403074
	H9	H	0.156241	0.721159	0.601014
	H10	H	0.833229	0.291041	0.602272
	H11	H	0.155600	0.284789	0.398635
	H12	H	0.835308	0.405456	0.720183
	H13	H	0.156026	0.604750	0.716976
	H14	H	0.833517	0.603760	0.285179
	H15	H	0.156832	0.401704	0.282796
	H16	H	0.399766	0.717561	0.836414
	H17	H	0.590381	0.717198	0.166033
	H18	H	0.596069	0.288055	0.836631
	H19	H	0.396529	0.291236	0.165346
	H20	H	0.714515	0.841447	0.397999
	H21	H	0.709600	0.166056	0.605738
	H22	H	0.276340	0.841194	0.606786
	H23	H	0.276591	0.166104	0.401420
	H24	H	0.899235	0.338632	0.212347
	H25	H	0.093079	0.667418	0.215553
	H26	H	0.095847	0.339977	0.784336
	H27	H	0.899771	0.669497	0.790658
	H28	H	0.215218	0.899183	0.340433
	H29	H	0.210190	0.108276	0.665536
	H30	H	0.777432	0.107297	0.339598
	H31	H	0.776303	0.902138	0.665117
	H32	H	0.335842	0.223529	0.900702
	H33	H	0.656685	0.220635	0.101321
	H34	H	0.333885	0.787804	0.103362
	H35	H	0.656833	0.787390	0.901434
	H36	H	0.334324	0.904172	0.220810
	H37	H	0.656151	0.105023	0.218998
	H38	H	0.334245	0.107380	0.785425
	H39	H	0.656062	0.902607	0.783568
	H40	H	0.898254	0.217681	0.337072
	H41	H	0.089637	0.219117	0.666006
	H42	H	0.095509	0.789628	0.337735
	H43	H	0.894958	0.789895	0.666146
	H44	H	0.217194	0.342160	0.892635
	H45	H	0.210267	0.666371	0.103746
	H46	H	0.778575	0.341427	0.103228
	H47	H	0.777562	0.666279	0.897242
	H48	H	0.403452	0.120581	0.599963
	H49	H	0.583165	0.889278	0.585137
	H50	H	0.588657	0.121694	0.409681
	H51	H	0.403207	0.887129	0.414427
	H52	H	0.587494	0.424172	0.113498
	H53	H	0.587519	0.589143	0.887097
	H54	H	0.406201	0.604811	0.119122
	H55	H	0.396308	0.418639	0.883544
	H56	H	0.110303	0.594565	0.404079
	H57	H	0.880040	0.609940	0.585694
	H58	H	0.109108	0.407454	0.584697
	H59	H	0.880884	0.411161	0.410884
	H60	H	0.107153	0.419202	0.592291
	H61	H	0.886242	0.584573	0.589432
	H62	H	0.108982	0.598455	0.408004
	H63	H	0.882121	0.414332	0.405611
	H64	H	0.388880	0.593814	0.120720
	H65	H	0.587057	0.599621	0.882568
	H66	H	0.580478	0.407758	0.116273
	H67	H	0.413734	0.419684	0.888870
	H68	H	0.584311	0.119146	0.411141
	H69	H	0.596261	0.883836	0.590814
	H70	H	0.403798	0.117436	0.588100
	H71	H	0.404365	0.886677	0.411007
	H72	H	0.907878	0.617937	0.087503
	H73	H	0.086831	0.386505	0.091857
	H74	H	0.090317	0.621489	0.908778
	H75	H	0.907276	0.386380	0.903973
	H76	H	0.091021	0.919389	0.618991
	H77	H	0.088002	0.099415	0.383305
	H78	H	0.904543	0.089728	0.615206
	H79	H	0.897445	0.918719	0.385356
	H80	H	0.610393	0.095427	0.907269
	H81	H	0.381863	0.103047	0.090665
	H82	H	0.609461	0.901911	0.087809
	H83	H	0.382302	0.918091	0.909620
	H84	H	0.605421	0.919110	0.088774
	H85	H	0.384158	0.089877	0.093445
	H86	H	0.609255	0.094702	0.909065
	H87	H	0.378594	0.907952	0.904560
	H88	H	0.903801	0.105808	0.620423
	H89	H	0.093523	0.086926	0.385992
	H90	H	0.079702	0.914568	0.616335
	H91	H	0.910222	0.918567	0.389727
	H92	H	0.086553	0.620219	0.908593
	H93	H	0.087245	0.388075	0.086384
	H94	H	0.895019	0.621763	0.089079
	H95	H	0.908480	0.390288	0.915061
	H96	H	0.393541	0.122930	0.592812
	H97	H	0.584294	0.884450	0.599745
	H98	H	0.587879	0.120066	0.414504
	H99	H	0.406882	0.888697	0.413392
	H100	H	0.596926	0.410860	0.120085
	H101	H	0.596249	0.593661	0.882669
	H102	H	0.405558	0.585003	0.112687
	H103	H	0.407146	0.403270	0.881619
	H104	H	0.107424	0.592509	0.409321
	H105	H	0.875979	0.598648	0.609432
	H106	H	0.112375	0.408011	0.597835
	H107	H	0.879882	0.409469	0.405582
	H108	H	0.903823	0.621761	0.099204
	H109	H	0.091959	0.386478	0.089060
	H110	H	0.088762	0.620611	0.911850
	H111	H	0.897667	0.385032	0.911193
	H112	H	0.089509	0.906077	0.620857
	H113	H	0.081101	0.090290	0.390195
	H114	H	0.890559	0.095737	0.621504
	H115	H	0.904643	0.906754	0.383587
	H116	H	0.609299	0.093510	0.907581
	H117	H	0.378912	0.098650	0.103068
	H118	H	0.611851	0.910867	0.103064
	H119	H	0.381396	0.907930	0.916043
	C120	C	0.371612	0.012440	0.624308
	C121	C	0.615116	0.994493	0.622029
	C122	C	0.617109	0.012273	0.380850
	C123	C	0.374244	0.995217	0.382739
	C124	C	0.618563	0.382694	0.008794
	C125	C	0.617443	0.624341	0.992564
	C126	C	0.373147	0.624749	0.009233
	C127	C	0.374885	0.383593	0.992367
	C128	C	0.003026	0.625921	0.377990
	C129	C	0.986959	0.626926	0.623491
	C130	C	0.003449	0.383024	0.622367
	C131	C	0.987322	0.381095	0.377740
	C132	C	0.873654	0.512571	0.121796
	C133	C	0.116907	0.495183	0.120389
	C134	C	0.118399	0.512735	0.878457
	C135	C	0.875346	0.495629	0.880461
	C136	C	0.116914	0.882467	0.510794
	C137	C	0.115668	0.123991	0.493977
	C138	C	0.871563	0.126578	0.510795
	C139	C	0.874210	0.884355	0.494286
	C140	C	0.503483	0.125352	0.879561
	C141	C	0.487484	0.126670	0.124839
	C142	C	0.503066	0.881466	0.124023
	C143	C	0.486926	0.881235	0.879493
	C144	C	0.374957	0.888582	0.679525
	C145	C	0.611157	0.118416	0.677521
	C146	C	0.615524	0.888806	0.324460
	C147	C	0.375353	0.118410	0.326699
	C148	C	0.676376	0.381233	0.886520
	C149	C	0.673043	0.625549	0.115113
	C150	C	0.317587	0.626093	0.886484
	C151	C	0.315917	0.383913	0.114315
	C152	C	0.881923	0.683081	0.381407
	C153	C	0.108126	0.682872	0.621170
	C154	C	0.881711	0.328468	0.621707
	C155	C	0.107915	0.323871	0.379230
	C156	C	0.882770	0.385311	0.680623
	C157	C	0.108048	0.625035	0.678923
	C158	C	0.881864	0.624496	0.322844
	C159	C	0.108325	0.381884	0.321000
	C160	C	0.377622	0.680705	0.885865
	C161	C	0.612320	0.679848	0.116593
	C162	C	0.616976	0.325606	0.885867
	C163	C	0.375777	0.328411	0.115775
	C164	C	0.674909	0.889845	0.379526
	C165	C	0.670871	0.117337	0.623353
	C166	C	0.315254	0.889633	0.624910
	C167	C	0.316174	0.117624	0.382604
	C168	C	0.877199	0.388377	0.176308
	C169	C	0.113613	0.618207	0.177316
	C170	C	0.116811	0.389400	0.821923
	C171	C	0.878334	0.619948	0.826569
	C172	C	0.175942	0.880782	0.388759
	C173	C	0.171442	0.126002	0.616781
	C174	C	0.815725	0.126360	0.388356
	C175	C	0.815748	0.883719	0.616430
	C176	C	0.383320	0.183935	0.881260
	C177	C	0.608288	0.182544	0.122147
	C178	C	0.382224	0.825408	0.123837
	C179	C	0.608223	0.825133	0.880804
	C180	C	0.382353	0.883566	0.181786
	C181	C	0.608049	0.124957	0.180680
	C182	C	0.382697	0.125917	0.823842
	C183	C	0.607847	0.882501	0.822065
	C184	C	0.875964	0.181356	0.386941
	C185	C	0.111757	0.181560	0.617065
	C186	C	0.115717	0.826634	0.387244
	C187	C	0.875112	0.827970	0.617109
	C188	C	0.176756	0.390428	0.876081
	C189	C	0.172151	0.617659	0.121617
	C190	C	0.817744	0.389547	0.121589
	C191	C	0.817868	0.618337	0.880268
	C192	C	0.393692	0.097965	0.600725
	C193	C	0.594017	0.908356	0.598752
	C194	C	0.593587	0.098035	0.404765
	C195	C	0.397974	0.909614	0.406134
	C196	C	0.595254	0.407341	0.094616
	C197	C	0.596464	0.600966	0.906516
	C198	C	0.393982	0.601549	0.095173
	C199	C	0.398788	0.406889	0.906817
	C200	C	0.087049	0.602109	0.400461
	C201	C	0.902821	0.604400	0.601342
	C202	C	0.087525	0.405037	0.598566
	C203	C	0.902827	0.404920	0.400730
	C204	C	0.895633	0.598230	0.098799
	C205	C	0.094885	0.409091	0.096166
	C206	C	0.095253	0.598506	0.902715
	C207	C	0.897951	0.409612	0.903314
	C208	C	0.093529	0.906397	0.596325
	C209	C	0.093821	0.099438	0.408679
	C210	C	0.893206	0.103747	0.596811
	C211	C	0.897472	0.907879	0.408545
	C212	C	0.587686	0.101475	0.901581
	C213	C	0.403419	0.103834	0.102221
	C214	C	0.587154	0.904030	0.100124
	C215	C	0.402670	0.904557	0.903243
	Zn216	Zn	0.494517	0.003465	0.750108
	Zn217	Zn	0.495335	0.003915	0.253876
	Zn218	Zn	0.746903	0.503975	0.000792
	Zn219	Zn	0.245265	0.504156	-0.000438
	Zn220	Zn	-0.004499	0.755665	0.501654
	Zn221	Zn	-0.005356	0.253027	0.501220
	Zn222	Zn	-0.003998	0.504405	0.752390
	Zn223	Zn	-0.004302	0.503015	0.248057
	Zn224	Zn	0.494792	0.751933	0.001372
	Zn225	Zn	0.496442	0.255373	0.001138
	Zn226	Zn	0.744155	0.003860	0.502126
	Zn227	Zn	0.244735	0.003478	0.503027
	N228	N	0.409072	0.965912	0.679587
	N229	N	0.577248	0.040952	0.677075
	N230	N	0.580349	0.966153	0.324901
	N231	N	0.410832	0.041418	0.326682
	N232	N	0.677480	0.416021	0.964273
	N233	N	0.676393	0.591784	0.036981
	N234	N	0.314566	0.592271	0.964206
	N235	N	0.315406	0.417562	0.036458
	N236	N	0.958258	0.684148	0.414862
	N237	N	0.032062	0.683972	0.587389
	N238	N	0.957773	0.326812	0.586186
	N239	N	0.031579	0.323428	0.413901
	N240	N	0.959164	0.418581	0.681219
	N241	N	0.031749	0.590941	0.680702
	N242	N	0.958097	0.589613	0.320730
	N243	N	0.032241	0.416879	0.320099
	N244	N	0.411456	0.679998	0.963176
	N245	N	0.578540	0.679287	0.039308
	N246	N	0.581475	0.326622	0.962887
	N247	N	0.411711	0.328145	0.038871
	N248	N	0.676079	0.967662	0.413601
	N249	N	0.673257	0.039258	0.589569
	N250	N	0.312896	0.967638	0.591489
	N251	N	0.315459	0.039864	0.416665
	N252	N	0.911358	0.465709	0.176622
	N253	N	0.079926	0.540828	0.176504
	N254	N	0.081033	0.466436	0.823375
	N255	N	0.913565	0.542625	0.826672
	N256	N	0.176870	0.914899	0.466701
	N257	N	0.173978	0.090941	0.539320
	N258	N	0.812814	0.093312	0.466434
	N259	N	0.815033	0.918089	0.538866
	N260	N	0.459489	0.183880	0.915221
	N261	N	0.532239	0.183805	0.088150
	N262	N	0.458212	0.824087	0.088357
	N263	N	0.531989	0.824193	0.915638
	N264	N	0.458573	0.917418	0.182252
	N265	N	0.531869	0.091033	0.182540
	N266	N	0.458320	0.089913	0.822793
	N267	N	0.531248	0.916711	0.821063
	N268	N	0.909842	0.181836	0.464282
	N269	N	0.077745	0.180487	0.539756
	N270	N	0.079806	0.827460	0.464068
	N271	N	0.910772	0.828300	0.540007
	N272	N	0.177946	0.468287	0.910346
	N273	N	0.174194	0.539969	0.086779
	N274	N	0.815298	0.467784	0.088503
	N275	N	0.815965	0.540110	0.913013
	O276	O	0.968381	-0.073920	1.060651
	H277	H	0.985542	-0.067204	1.052397
	H278	H	0.967549	-0.076543	1.063282
	O279	O	0.367369	0.580425	0.371571
	H280	H	0.379634	0.575019	0.372093
	H281	H	0.357298	0.583611	0.365458
	O282	O	0.467711	0.444507	0.515354
	H283	H	0.474808	0.441765	0.509356
	H284	H	0.463665	0.452517	0.519384
	O285	O	0.532561	0.518402	0.336474
	H286	H	0.533426	0.507509	0.317024
	H287	H	0.534519	0.517924	0.359271
	O288	O	0.551101	0.405227	0.545353
	H289	H	0.551590	0.390115	0.546179
	H290	H	0.553965	0.408564	0.522769
	O291	O	0.101973	0.004875	1.126902
	H292	H	0.083962	0.007663	1.133189
	H293	H	0.104141	0.010271	1.118346
	O294	O	1.032391	1.095233	0.112067
	H295	H	1.023449	1.093492	0.111480
	H296	H	1.041652	1.105379	0.114704
	O297	O	1.039459	1.083131	-0.003946
	H298	H	1.039988	1.074032	0.009091
	H299	H	1.042027	1.091198	-0.001742
	O300	O	0.577865	0.536643	0.488475
	H301	H	0.586679	0.541256	0.502172
	H302	H	0.579868	0.544113	0.488390
	O303	O	0.428424	0.466726	0.495537
	H304	H	0.434483	0.468307	0.497183
	H305	H	0.438788	0.465977	0.490194
	O306	O	0.520530	0.420839	0.482566
	H307	H	0.518039	0.426628	0.487616
	H308	H	0.524567	0.414890	0.477020
	O309	O	0.478735	0.555468	0.584796
	H310	H	0.478346	0.551569	0.586155
	H311	H	0.471868	0.565313	0.581136
	O312	O	1.045581	0.909285	0.986621
	H313	H	1.032402	0.898342	0.992183
	H314	H	1.041959	0.923416	0.980007
	O315	O	0.969208	1.045853	-0.050229
	H316	H	0.965062	1.038935	-0.061240
	H317	H	0.981863	1.037883	-0.040052
	O318	O	0.444520	0.536670	0.573839
	H319	H	0.444044	0.536844	0.568047
	H320	H	0.441062	0.533544	0.585539
	O321	O	0.472081	0.405181	0.394487
	H322	H	0.470620	0.415295	0.391579
	H323	H	0.468335	0.396407	0.386429
	O324	O	0.097282	0.870607	0.991137
	H325	H	0.104057	0.861725	0.993836
	H326	H	0.085363	0.870344	0.992594
	O327	O	-0.043398	0.967060	1.063697
	H328	H	-0.037637	0.961296	1.051126
	H329	H	-0.038532	0.966140	1.051296
	O330	O	-0.008956	0.075641	0.065680
	H331	H	0.006522	0.080776	0.065682
	H332	H	-0.013418	0.094426	0.069132
	O333	O	0.459409	0.595927	0.454163
	H334	H	0.454929	0.593343	0.446413
	H335	H	0.456489	0.604446	0.454460
	O336	O	-0.064092	0.073140	0.075936
	H337	H	-0.066552	0.074886	0.082196
	H338	H	-0.063587	0.068076	0.070690
	O339	O	0.102834	-0.034505	0.020799
	H340	H	0.102274	-0.032628	0.022101
	H341	H	0.111885	-0.046266	0.009959
	O342	O	0.468023	0.368659	0.462637
	H343	H	0.448003	0.367658	0.475825
	H344	H	0.479284	0.363551	0.452871
	O345	O	-0.046773	0.946104	1.073649
	H346	H	-0.045246	0.937046	1.064275
	H347	H	-0.057200	0.945476	1.083590
	O348	O	0.533362	0.526759	0.460837
	H349	H	0.536633	0.532013	0.457464
	H350	H	0.522141	0.523259	0.466175
	O351	O	0.534687	0.497559	0.478117
	H352	H	0.520647	0.510006	0.483541
	H353	H	0.535806	0.479724	0.465351
	O354	O	-0.084365	0.883995	0.045529
	H355	H	-0.091470	0.879388	0.048304
	H356	H	-0.078302	0.870224	0.052578
	O357	O	0.395139	0.595035	0.375559
	H358	H	0.411570	0.595379	0.370827
	H359	H	0.395171	0.597744	0.386890
	O360	O	1.079149	-0.069257	0.890812
	H361	H	1.080380	-0.057320	0.911132
	H362	H	1.078938	-0.073078	0.881297
	O363	O	0.381782	0.410118	0.557501
	H364	H	0.381740	0.414334	0.553084
	H365	H	0.384934	0.407248	0.556730
	O366	O	0.531730	0.629409	0.590998
	H367	H	0.522621	0.637358	0.590841
	H368	H	0.537473	0.626768	0.584928
	O369	O	0.889228	-0.033459	-0.076930
	H370	H	0.881043	-0.037308	-0.072286
	H371	H	0.894872	-0.017110	-0.079846
	O372	O	0.542880	0.476231	0.465057
	H373	H	0.558895	0.469836	0.464060
	H374	H	0.531101	0.477424	0.478632
	O375	O	1.008033	0.128655	0.928521
	H376	H	1.005862	0.127694	0.926369
	H377	H	1.026053	0.122897	0.910437
	O378	O	-0.018686	0.932706	-0.135509
	H379	H	-0.025822	0.940861	-0.136176
	H380	H	-0.019618	0.921936	-0.140135
	O381	O	0.571240	0.372865	0.520090
	H382	H	0.576098	0.381539	0.506686
	H383	H	0.574395	0.374233	0.516953
	O384	O	1.168710	0.988957	-0.106097
	H385	H	1.179755	0.983514	-0.097534
	H386	H	1.181534	1.004839	-0.101307
	O387	O	0.811836	-0.014433	1.107155
	H388	H	0.811985	-0.021031	1.088099
	H389	H	0.807850	-0.015428	1.113053
	O390	O	0.923958	1.113689	0.000191
	H391	H	0.921331	1.120816	0.003385
	H392	H	0.931785	1.109225	0.001698
	O393	O	0.644529	0.556828	0.510342
	H394	H	0.653598	0.554696	0.494615
	H395	H	0.636193	0.558177	0.519882
