data_Molecule from HDF5

_cell_length_a		16.287056
_cell_length_b		16.255840
_cell_length_c		16.310644
_cell_angle_alpha	89.967835
_cell_angle_beta	89.922553
_cell_angle_gamma	90.228364
_symmetry_space_group_name_H-M	'P 1'
_symmetry_Int_Tables_number		1

loop_
	_symmetry_equiv_pos_as_xyz
	x,y,z

loop_
	_atom_site_label
	_atom_site_type_symbol
	_atom_site_fract_x
	_atom_site_fract_y
	_atom_site_fract_z
	H0	H	0.400061	0.827073	0.707529
	H1	H	0.599820	0.154682	0.709201
	H2	H	0.599453	0.827552	0.278133
	H3	H	0.402236	0.154652	0.279775
	H4	H	0.713976	0.391402	0.830478
	H5	H	0.712271	0.590040	0.157382
	H6	H	0.284655	0.588953	0.829547
	H7	H	0.282889	0.392638	0.157445
	H8	H	0.835720	0.705296	0.394706
	H9	H	0.163266	0.706231	0.591375
	H10	H	0.835884	0.274380	0.592926
	H11	H	0.163264	0.279150	0.395253
	H12	H	0.835078	0.391190	0.708340
	H13	H	0.162065	0.590128	0.707734
	H14	H	0.835717	0.590844	0.278070
	H15	H	0.161570	0.392615	0.276859
	H16	H	0.400995	0.705792	0.829937
	H17	H	0.596674	0.705049	0.156842
	H18	H	0.596440	0.276742	0.829618
	H19	H	0.399569	0.276642	0.157978
	H20	H	0.711347	0.825969	0.396554
	H21	H	0.715931	0.154135	0.593113
	H22	H	0.283777	0.827499	0.592790
	H23	H	0.285311	0.154293	0.394092
	H24	H	0.896761	0.327993	0.209402
	H25	H	0.096511	0.655386	0.207235
	H26	H	0.096307	0.327295	0.778749
	H27	H	0.899249	0.654576	0.776997
	H28	H	0.214457	0.892249	0.329903
	H29	H	0.214821	0.089191	0.656459
	H30	H	0.784709	0.088343	0.330011
	H31	H	0.782966	0.889413	0.655474
	H32	H	0.335022	0.204149	0.895592
	H33	H	0.662238	0.207456	0.092018
	H34	H	0.335016	0.776466	0.092727
	H35	H	0.662789	0.777062	0.895138
	H36	H	0.335911	0.892243	0.209091
	H37	H	0.662743	0.091432	0.209093
	H38	H	0.336135	0.090265	0.778256
	H39	H	0.662433	0.892057	0.778630
	H40	H	0.901369	0.204523	0.329681
	H41	H	0.098522	0.205396	0.656760
	H42	H	0.097820	0.777097	0.329375
	H43	H	0.901025	0.775941	0.655935
	H44	H	0.210289	0.326437	0.896375
	H45	H	0.212440	0.655037	0.091613
	H46	H	0.782001	0.327376	0.092677
	H47	H	0.785040	0.655571	0.895443
	H48	H	0.409592	0.104434	0.578541
	H49	H	0.587986	0.875962	0.585917
	H50	H	0.595257	0.105564	0.408737
	H51	H	0.399564	0.870777	0.397257
	H52	H	0.587840	0.388335	0.111656
	H53	H	0.593239	0.588628	0.875486
	H54	H	0.409996	0.587661	0.109203
	H55	H	0.399909	0.392917	0.874577
	H56	H	0.115172	0.579641	0.393924
	H57	H	0.887243	0.576541	0.577046
	H58	H	0.112591	0.405713	0.587176
	H59	H	0.883483	0.397404	0.402134
	H60	H	0.117904	0.395486	0.591959
	H61	H	0.881576	0.578554	0.595691
	H62	H	0.117033	0.590429	0.399983
	H63	H	0.882330	0.397403	0.399817
	H64	H	0.398627	0.586731	0.112044
	H65	H	0.595251	0.580293	0.876988
	H66	H	0.600188	0.403588	0.110464
	H67	H	0.402368	0.403517	0.879339
	H68	H	0.598119	0.109999	0.395654
	H69	H	0.594869	0.874059	0.585311
	H70	H	0.399849	0.110398	0.588322
	H71	H	0.413924	0.874853	0.396993
	H72	H	0.894085	0.610832	0.082761
	H73	H	0.085696	0.377403	0.080729
	H74	H	0.086944	0.604219	0.905592
	H75	H	0.911837	0.378425	0.905904
	H76	H	0.095533	0.905862	0.608213
	H77	H	0.090778	0.083232	0.378676
	H78	H	0.908144	0.090102	0.611584
	H79	H	0.902388	0.904527	0.377127
	H80	H	0.617121	0.082513	0.892527
	H81	H	0.385389	0.084785	0.077463
	H82	H	0.618044	0.899151	0.097185
	H83	H	0.379877	0.898156	0.891898
	H84	H	0.617180	0.888350	0.083864
	H85	H	0.384566	0.073478	0.091976
	H86	H	0.615897	0.092056	0.906250
	H87	H	0.381458	0.889780	0.903440
	H88	H	0.900291	0.078830	0.609544
	H89	H	0.093549	0.088311	0.375443
	H90	H	0.083447	0.898746	0.605849
	H91	H	0.912531	0.895381	0.377407
	H92	H	0.099001	0.609653	0.901957
	H93	H	0.096696	0.373195	0.085019
	H94	H	0.909140	0.610087	0.097748
	H95	H	0.897506	0.374358	0.904184
	H96	H	0.414204	0.107231	0.592590
	H97	H	0.591286	0.873289	0.591922
	H98	H	0.585321	0.106334	0.399221
	H99	H	0.406012	0.876926	0.409527
	H100	H	0.581820	0.405425	0.104076
	H101	H	0.587371	0.583485	0.878615
	H102	H	0.404725	0.577299	0.108073
	H103	H	0.410338	0.395187	0.878835
	H104	H	0.112950	0.580921	0.406369
	H105	H	0.880177	0.593581	0.583684
	H106	H	0.114303	0.395257	0.580765
	H107	H	0.882024	0.395756	0.401691
	H108	H	0.913370	0.603010	0.077508
	H109	H	0.086688	0.373529	0.093034
	H110	H	0.089158	0.609216	0.892101
	H111	H	0.906804	0.372862	0.892242
	H112	H	0.094769	0.892030	0.612179
	H113	H	0.096726	0.082301	0.376238
	H114	H	0.913545	0.078671	0.605483
	H115	H	0.900432	0.891588	0.373147
	H116	H	0.611127	0.075832	0.906064
	H117	H	0.378325	0.090853	0.093429
	H118	H	0.612507	0.904593	0.081626
	H119	H	0.385399	0.903385	0.904293
	C120	C	0.378245	-0.000666	0.614983
	C121	C	0.621219	0.982258	0.616254
	C122	C	0.621231	-0.001009	0.372558
	C123	C	0.378340	0.982226	0.372244
	C124	C	0.619004	0.369826	0.001172
	C125	C	0.619990	0.612669	0.985391
	C126	C	0.376689	0.612582	0.001382
	C127	C	0.375757	0.368571	0.985710
	C128	C	0.007075	0.612242	0.371591
	C129	C	0.990850	0.612786	0.614337
	C130	C	0.007114	0.369221	0.615332
	C131	C	0.990527	0.369085	0.371584
	C132	C	0.875968	0.499759	0.115421
	C133	C	0.118765	0.482939	0.114694
	C134	C	0.120084	0.499460	0.871531
	C135	C	0.876885	0.483049	0.871753
	C136	C	0.120282	0.870227	0.500860
	C137	C	0.122265	0.113383	0.484755
	C138	C	0.878275	0.111660	0.501384
	C139	C	0.877294	0.868507	0.484176
	C140	C	0.507282	0.112158	0.872357
	C141	C	0.490666	0.112635	0.115729
	C142	C	0.507578	0.868876	0.116320
	C143	C	0.490628	0.869116	0.871712
	C144	C	0.379746	0.876223	0.670146
	C145	C	0.620156	0.105564	0.671538
	C146	C	0.619027	0.876019	0.316935
	C147	C	0.381225	0.105715	0.317043
	C148	C	0.675433	0.371411	0.878762
	C149	C	0.674886	0.610590	0.108388
	C150	C	0.322341	0.609640	0.878406
	C151	C	0.320816	0.371700	0.108563
	C152	C	0.884426	0.667309	0.374331
	C153	C	0.113848	0.668752	0.612036
	C154	C	0.884494	0.312833	0.613448
	C155	C	0.113984	0.315773	0.374180
	C156	C	0.884106	0.370781	0.670632
	C157	C	0.113490	0.611064	0.669974
	C158	C	0.884514	0.610469	0.316327
	C159	C	0.113006	0.372375	0.315309
	C160	C	0.380233	0.667543	0.878413
	C161	C	0.617387	0.667935	0.107924
	C162	C	0.617215	0.314257	0.878533
	C163	C	0.378622	0.313877	0.108696
	C164	C	0.674978	0.875365	0.375441
	C165	C	0.677949	0.105249	0.613939
	C166	C	0.321975	0.876274	0.612980
	C167	C	0.323325	0.105463	0.374026
	C168	C	0.877159	0.376769	0.171043
	C169	C	0.116835	0.606401	0.169712
	C170	C	0.117088	0.376023	0.816579
	C171	C	0.879264	0.606072	0.815880
	C172	C	0.176356	0.872173	0.378569
	C173	C	0.177193	0.110398	0.607683
	C174	C	0.822898	0.108868	0.378685
	C175	C	0.821543	0.870143	0.606938
	C176	C	0.383960	0.166728	0.874996
	C177	C	0.613547	0.169091	0.112786
	C178	C	0.384220	0.814209	0.113261
	C179	C	0.613757	0.814554	0.874658
	C180	C	0.384697	0.871543	0.171465
	C181	C	0.613827	0.111458	0.170997
	C182	C	0.384570	0.110033	0.816780
	C183	C	0.613652	0.871917	0.816756
	C184	C	0.880993	0.166492	0.378448
	C185	C	0.119521	0.168212	0.607801
	C186	C	0.118067	0.815330	0.378064
	C187	C	0.880022	0.813459	0.607132
	C188	C	0.173798	0.375756	0.874929
	C189	C	0.174091	0.606335	0.111961
	C190	C	0.820105	0.376384	0.112984
	C191	C	0.822808	0.606661	0.874752
	C192	C	0.401113	0.085109	0.592932
	C193	C	0.598108	0.896644	0.594179
	C194	C	0.599338	0.084853	0.394748
	C195	C	0.400162	0.896411	0.394649
	C196	C	0.596626	0.392480	0.086661
	C197	C	0.598459	0.590561	0.899427
	C198	C	0.398202	0.590501	0.087578
	C199	C	0.397923	0.390594	0.899697
	C200	C	0.092992	0.590183	0.393660
	C201	C	0.905154	0.589892	0.591882
	C202	C	0.092722	0.392135	0.593179
	C203	C	0.904621	0.390476	0.394527
	C204	C	0.898791	0.585728	0.092695
	C205	C	0.096132	0.397099	0.092902
	C206	C	0.098162	0.585399	0.893586
	C207	C	0.898976	0.397303	0.894218
	C208	C	0.097841	0.892441	0.586677
	C209	C	0.100296	0.091172	0.398890
	C210	C	0.900915	0.089222	0.586863
	C211	C	0.898976	0.890587	0.398265
	C212	C	0.592655	0.090086	0.895011
	C213	C	0.404874	0.089621	0.094112
	C214	C	0.593629	0.890956	0.094109
	C215	C	0.404428	0.890560	0.893586
	Zn216	Zn	0.499162	-0.009120	0.744210
	Zn217	Zn	0.499929	-0.009317	0.244378
	Zn218	Zn	0.748327	0.491500	-0.006680
	Zn219	Zn	0.247716	0.490971	-0.006459
	Zn220	Zn	-0.000736	0.741287	0.492377
	Zn221	Zn	-0.000241	0.240698	0.493586
	Zn222	Zn	-0.001398	0.491176	0.743494
	Zn223	Zn	-0.002175	0.491187	0.243081
	Zn224	Zn	0.498712	0.741142	-0.006223
	Zn225	Zn	0.497902	0.240634	-0.006317
	Zn226	Zn	0.749143	-0.009996	0.493430
	Zn227	Zn	0.250112	-0.009037	0.493033
	N228	N	0.414047	0.953723	0.671461
	N229	N	0.585839	0.028103	0.673334
	N230	N	0.586304	0.953839	0.314995
	N231	N	0.414785	0.028124	0.315919
	N232	N	0.676880	0.405296	0.956131
	N233	N	0.676763	0.576883	0.031030
	N234	N	0.319997	0.576154	0.955936
	N235	N	0.318883	0.404887	0.030891
	N236	N	0.961849	0.668609	0.408148
	N237	N	0.036427	0.669827	0.578342
	N238	N	0.961841	0.311665	0.579706
	N239	N	0.036799	0.313674	0.408528
	N240	N	0.961389	0.405433	0.671779
	N241	N	0.036100	0.576844	0.671311
	N242	N	0.961841	0.576755	0.314854
	N243	N	0.035062	0.404724	0.313597
	N244	N	0.413189	0.669330	0.956009
	N245	N	0.584252	0.669485	0.030342
	N246	N	0.582864	0.313244	0.955616
	N247	N	0.411884	0.311853	0.031162
	N248	N	0.676486	0.952788	0.409336
	N249	N	0.678948	0.027563	0.580464
	N250	N	0.320971	0.953839	0.579164
	N251	N	0.321307	0.027821	0.407492
	N252	N	0.910986	0.454439	0.172623
	N253	N	0.083071	0.528652	0.171359
	N254	N	0.084518	0.453850	0.814248
	N255	N	0.912113	0.528166	0.814071
	N256	N	0.177474	0.905965	0.456037
	N257	N	0.179040	0.077045	0.530188
	N258	N	0.821174	0.075462	0.456180
	N259	N	0.819891	0.903725	0.529512
	N260	N	0.461207	0.168304	0.908930
	N261	N	0.536226	0.169551	0.078927
	N262	N	0.461656	0.812769	0.079504
	N263	N	0.536128	0.812737	0.908125
	N264	N	0.462498	0.904751	0.173338
	N265	N	0.536419	0.077018	0.172810
	N266	N	0.462177	0.077003	0.814893
	N267	N	0.536207	0.905350	0.815203
	N268	N	0.914764	0.168047	0.455695
	N269	N	0.086054	0.169936	0.530378
	N270	N	0.084079	0.813953	0.455156
	N271	N	0.913933	0.812658	0.529921
	N272	N	0.175728	0.453414	0.908360
	N273	N	0.175702	0.528623	0.078680
	N274	N	0.819259	0.454021	0.079027
	N275	N	0.821076	0.529164	0.908729
	O276	O	0.537729	0.478349	0.528877
	H277	H	0.548278	0.478409	0.538232
	H278	H	0.534402	0.484671	0.537044
	O279	O	0.468049	0.472234	0.499561
	H280	H	0.454226	0.475054	0.508853
	H281	H	0.469852	0.465193	0.492168
	O282	O	0.518651	0.459903	0.470474
	H283	H	0.501597	0.458650	0.471653
	H284	H	0.527694	0.457846	0.458394
	O285	O	0.315323	1.376013	0.673006
	H286	H	0.311605	1.372629	0.676603
	H287	H	0.317710	1.377160	0.666998
	O288	O	0.470054	0.480827	0.515457
	H289	H	0.478692	0.478051	0.512604
	H290	H	0.471314	0.483941	0.503603
	O291	O	0.006951	0.054158	1.005918
	H292	H	0.011094	0.053007	1.006515
	H293	H	0.008102	0.056800	1.012047
	O294	O	0.490801	0.428811	0.445506
	H295	H	0.484371	0.431108	0.444212
	H296	H	0.487798	0.421842	0.442792
	O297	O	0.430118	0.463087	0.508803
	H298	H	0.431918	0.465462	0.519478
	H299	H	0.430698	0.464702	0.511107
	O300	O	1.018940	0.987284	0.954438
	H301	H	1.018709	0.975044	0.954559
	H302	H	1.014531	0.976438	0.949495
	O303	O	0.478283	0.472373	0.531189
	H304	H	0.477798	0.466837	0.538177
	H305	H	0.472594	0.475057	0.522250
	O306	O	0.969165	0.073444	0.947247
	H307	H	0.973157	0.067049	0.948582
	H308	H	0.971166	0.081551	0.948631
	O309	O	0.490926	0.525986	0.521760
	H310	H	0.491832	0.532551	0.522617
	H311	H	0.507101	0.522111	0.522285
	O312	O	-0.028835	0.971196	0.903312
	H313	H	-0.027193	0.987182	0.910612
	H314	H	-0.036313	0.980169	0.893204
	O315	O	1.024643	-0.040765	0.955198
	H316	H	1.021198	-0.050138	0.951633
	H317	H	1.024922	-0.036502	0.958830
	O318	O	-0.015089	0.026895	-0.035452
	H319	H	-0.012971	0.034918	-0.038649
	H320	H	-0.022470	0.024947	-0.033864
	O321	O	0.555542	0.464452	0.490213
	H322	H	0.552260	0.472401	0.490573
	H323	H	0.552341	0.463381	0.500030
	O324	O	0.553417	0.529019	0.479328
	H325	H	0.540445	0.532337	0.475559
	H326	H	0.568783	0.524020	0.484399
	O327	O	0.948555	1.094562	-0.079102
	H328	H	0.953750	1.096580	-0.068591
	H329	H	0.948799	1.095950	-0.084444
	O330	O	0.542834	0.477118	0.413329
	H331	H	0.546104	0.473622	0.408271
	H332	H	0.534888	0.471959	0.416441
	O333	O	0.458113	0.454047	0.509739
	H334	H	0.463717	0.451862	0.510614
	H335	H	0.450339	0.454998	0.514070
