data_Molecule from HDF5

_cell_length_a		16.468291
_cell_length_b		16.353090
_cell_length_c		16.409720
_cell_angle_alpha	90.093989
_cell_angle_beta	90.072049
_cell_angle_gamma	89.845537
_symmetry_space_group_name_H-M	'P 1'
_symmetry_Int_Tables_number		1

loop_
	_symmetry_equiv_pos_as_xyz
	x,y,z

loop_
	_atom_site_label
	_atom_site_type_symbol
	_atom_site_fract_x
	_atom_site_fract_y
	_atom_site_fract_z
	H0	H	0.399750	0.830361	0.721692
	H1	H	0.607005	0.150163	0.726739
	H2	H	0.609166	0.832205	0.282467
	H3	H	0.395149	0.149187	0.281563
	H4	H	0.724499	0.384196	0.844119
	H5	H	0.725319	0.596911	0.161527
	H6	H	0.280326	0.597397	0.845473
	H7	H	0.278448	0.382758	0.161683
	H8	H	0.844136	0.713771	0.399417
	H9	H	0.161672	0.711143	0.606439
	H10	H	0.842589	0.272056	0.608861
	H11	H	0.159482	0.267198	0.397107
	H12	H	0.842422	0.389948	0.723789
	H13	H	0.163315	0.592909	0.720773
	H14	H	0.844981	0.599232	0.280852
	H15	H	0.159407	0.382474	0.280107
	H16	H	0.399778	0.709779	0.843713
	H17	H	0.608955	0.712086	0.161624
	H18	H	0.606774	0.269973	0.844374
	H19	H	0.397179	0.268966	0.163225
	H20	H	0.724648	0.832908	0.398914
	H21	H	0.724423	0.150642	0.612838
	H22	H	0.280884	0.832462	0.608970
	H23	H	0.278272	0.149213	0.394870
	H24	H	0.894579	0.333842	0.228566
	H25	H	0.111086	0.649224	0.228342
	H26	H	0.106391	0.332133	0.782398
	H27	H	0.901527	0.653505	0.788237
	H28	H	0.228039	0.880420	0.346802
	H29	H	0.220783	0.094771	0.662917
	H30	H	0.775786	0.101574	0.346941
	H31	H	0.782405	0.887607	0.662598
	H32	H	0.344746	0.212371	0.898414
	H33	H	0.660278	0.211964	0.109938
	H34	H	0.343253	0.770860	0.105357
	H35	H	0.662003	0.769729	0.899680
	H36	H	0.343794	0.884344	0.224964
	H37	H	0.658710	0.098321	0.228522
	H38	H	0.343133	0.092217	0.785263
	H39	H	0.661596	0.884408	0.781272
	H40	H	0.893829	0.214721	0.345677
	H41	H	0.102713	0.209316	0.663919
	H42	H	0.110927	0.766621	0.346035
	H43	H	0.902245	0.776063	0.664444
	H44	H	0.224836	0.332646	0.896800
	H45	H	0.224186	0.650267	0.109745
	H46	H	0.780084	0.332588	0.111121
	H47	H	0.782842	0.651154	0.901067
	H48	H	0.412020	0.106153	0.595396
	H49	H	0.593948	0.876863	0.593189
	H50	H	0.589983	0.104815	0.415776
	H51	H	0.412130	0.879173	0.422906
	H52	H	0.592623	0.398499	0.117197
	H53	H	0.592830	0.576370	0.890841
	H54	H	0.417000	0.582245	0.117406
	H55	H	0.408095	0.406955	0.891947
	H56	H	0.112181	0.573784	0.415684
	H57	H	0.888844	0.580158	0.597446
	H58	H	0.116362	0.398293	0.594983
	H59	H	0.894278	0.410486	0.418791
	H60	H	0.113904	0.401286	0.589808
	H61	H	0.886329	0.587341	0.599922
	H62	H	0.116902	0.581349	0.412133
	H63	H	0.889127	0.406052	0.411040
	H64	H	0.410032	0.579697	0.118334
	H65	H	0.591155	0.581502	0.889557
	H66	H	0.595381	0.404664	0.117058
	H67	H	0.420000	0.405773	0.894675
	H68	H	0.586091	0.103491	0.416131
	H69	H	0.591533	0.878425	0.592270
	H70	H	0.412618	0.105395	0.592767
	H71	H	0.409828	0.875212	0.411495
	H72	H	0.913198	0.601913	0.085226
	H73	H	0.090114	0.381194	0.083286
	H74	H	0.088612	0.601951	0.920840
	H75	H	0.919835	0.380381	0.916619
	H76	H	0.103057	0.903863	0.619751
	H77	H	0.088197	0.080556	0.391072
	H78	H	0.904297	0.081258	0.619334
	H79	H	0.918636	0.898542	0.390169
	H80	H	0.616697	0.082032	0.914047
	H81	H	0.389956	0.084048	0.086105
	H82	H	0.615332	0.896174	0.090231
	H83	H	0.388084	0.898894	0.910158
	H84	H	0.613111	0.906161	0.091302
	H85	H	0.393176	0.072262	0.088979
	H86	H	0.614544	0.077853	0.916619
	H87	H	0.390038	0.898864	0.913734
	H88	H	0.915546	0.074955	0.613746
	H89	H	0.092231	0.080774	0.388274
	H90	H	0.087432	0.912676	0.610580
	H91	H	0.906335	0.903409	0.388366
	H92	H	0.103247	0.608924	0.914509
	H93	H	0.094062	0.376157	0.093253
	H94	H	0.909234	0.606699	0.093899
	H95	H	0.906423	0.375428	0.916588
	H96	H	0.410073	0.105315	0.593349
	H97	H	0.593737	0.878225	0.590682
	H98	H	0.588588	0.103444	0.419288
	H99	H	0.420903	0.879548	0.414047
	H100	H	0.589512	0.403961	0.114716
	H101	H	0.596053	0.580063	0.888874
	H102	H	0.414969	0.575634	0.114456
	H103	H	0.414029	0.396151	0.889373
	H104	H	0.113684	0.581650	0.421566
	H105	H	0.889018	0.586783	0.592591
	H106	H	0.113845	0.404333	0.595160
	H107	H	0.890157	0.400983	0.420397
	H108	H	0.919463	0.602759	0.094286
	H109	H	0.083275	0.380621	0.092884
	H110	H	0.089282	0.607854	0.904605
	H111	H	0.914269	0.374656	0.904693
	H112	H	0.086179	0.894079	0.617367
	H113	H	0.091085	0.076410	0.390997
	H114	H	0.916026	0.088288	0.618254
	H115	H	0.916113	0.910910	0.394492
	H116	H	0.616315	0.077032	0.911481
	H117	H	0.386920	0.079804	0.097673
	H118	H	0.617447	0.901637	0.099479
	H119	H	0.390280	0.901792	0.911763
	C120	C	0.380995	-0.000500	0.624580
	C121	C	0.624329	0.983019	0.625337
	C122	C	0.622541	-0.000519	0.383284
	C123	C	0.380464	0.982360	0.382640
	C124	C	0.624639	0.369559	0.011470
	C125	C	0.625172	0.611895	0.994709
	C126	C	0.382203	0.611493	0.011561
	C127	C	0.381118	0.369546	0.996087
	C128	C	0.010446	0.612984	0.383156
	C129	C	0.993726	0.614591	0.626514
	C130	C	0.009771	0.370516	0.625191
	C131	C	0.994486	0.370743	0.382799
	C132	C	0.881019	0.499533	0.124843
	C133	C	0.122719	0.483552	0.123993
	C134	C	0.124939	0.500402	0.881457
	C135	C	0.882171	0.483040	0.882572
	C136	C	0.124936	0.869682	0.511587
	C137	C	0.122091	0.111410	0.495284
	C138	C	0.879060	0.114456	0.512683
	C139	C	0.881969	0.872139	0.495776
	C140	C	0.511216	0.111538	0.881728
	C141	C	0.493948	0.111579	0.124567
	C142	C	0.510893	0.868571	0.125466
	C143	C	0.494572	0.868020	0.880702
	C144	C	0.380799	0.878685	0.682673
	C145	C	0.625657	0.102639	0.686485
	C146	C	0.626607	0.880277	0.322436
	C147	C	0.377390	0.101673	0.321835
	C148	C	0.684459	0.366352	0.891970
	C149	C	0.684951	0.614757	0.113960
	C150	C	0.321401	0.614416	0.892677
	C151	C	0.319422	0.365463	0.114665
	C152	C	0.891648	0.674044	0.380698
	C153	C	0.114031	0.671896	0.625949
	C154	C	0.890058	0.312129	0.626848
	C155	C	0.112221	0.308059	0.379036
	C156	C	0.890254	0.370424	0.684499
	C157	C	0.114726	0.613407	0.683080
	C158	C	0.892166	0.617239	0.321601
	C159	C	0.112155	0.365490	0.320457
	C160	C	0.380526	0.670727	0.891647
	C161	C	0.627152	0.672191	0.114036
	C162	C	0.625759	0.309331	0.892169
	C163	C	0.378348	0.308504	0.115303
	C164	C	0.684543	0.880746	0.380282
	C165	C	0.684312	0.102699	0.629870
	C166	C	0.321521	0.879741	0.626540
	C167	C	0.318910	0.101486	0.378287
	C168	C	0.877453	0.381138	0.187393
	C169	C	0.127691	0.602146	0.186679
	C170	C	0.125763	0.380023	0.821870
	C171	C	0.881725	0.604608	0.826102
	C172	C	0.187096	0.863970	0.393828
	C173	C	0.180994	0.113149	0.615475
	C174	C	0.817307	0.118575	0.393946
	C175	C	0.822499	0.869936	0.615193
	C176	C	0.392030	0.172071	0.879859
	C177	C	0.612736	0.172258	0.128112
	C178	C	0.391065	0.809862	0.125270
	C179	C	0.614428	0.809108	0.880602
	C180	C	0.391212	0.866670	0.184490
	C181	C	0.611954	0.115395	0.186880
	C182	C	0.391351	0.112409	0.823527
	C183	C	0.614279	0.866136	0.821743
	C184	C	0.875919	0.175155	0.393352
	C185	C	0.122551	0.170276	0.615800
	C186	C	0.128399	0.807295	0.393614
	C187	C	0.882092	0.814152	0.616094
	C188	C	0.184724	0.380452	0.878836
	C189	C	0.184352	0.602514	0.128055
	C190	C	0.820194	0.380377	0.128913
	C191	C	0.822479	0.603344	0.881930
	C192	C	0.404825	0.083663	0.600629
	C193	C	0.600100	0.899563	0.599399
	C194	C	0.595818	0.082484	0.409522
	C195	C	0.406770	0.899424	0.408775
	C196	C	0.599779	0.395150	0.094728
	C197	C	0.600207	0.586620	0.911293
	C198	C	0.407067	0.586456	0.094915
	C199	C	0.406980	0.395401	0.913523
	C200	C	0.092903	0.586663	0.408954
	C201	C	0.909791	0.591409	0.603291
	C202	C	0.093032	0.394390	0.600439
	C203	C	0.912540	0.398151	0.409110
	C204	C	0.906712	0.582274	0.098667
	C205	C	0.096400	0.400985	0.097444
	C206	C	0.100456	0.584386	0.906024
	C207	C	0.906447	0.398941	0.906017
	C208	C	0.099366	0.896242	0.594527
	C209	C	0.097670	0.086425	0.412058
	C210	C	0.904582	0.088862	0.595469
	C211	C	0.906519	0.897168	0.412606
	C212	C	0.594334	0.086239	0.906769
	C213	C	0.411828	0.085962	0.098313
	C214	C	0.593649	0.893934	0.100896
	C215	C	0.411192	0.892823	0.904817
	Zn216	Zn	0.502890	-0.009973	0.752666
	Zn217	Zn	0.501236	-0.009065	0.254044
	Zn218	Zn	0.753118	0.490433	0.003084
	Zn219	Zn	0.252203	0.490959	0.004192
	Zn220	Zn	0.002341	0.742391	0.504102
	Zn221	Zn	0.001330	0.241225	0.503849
	Zn222	Zn	0.002599	0.492416	0.753962
	Zn223	Zn	0.002756	0.492166	0.253464
	Zn224	Zn	0.502945	0.739756	0.003155
	Zn225	Zn	0.502740	0.240379	0.003836
	Zn226	Zn	0.752189	-0.007479	0.503983
	Zn227	Zn	0.252488	-0.008466	0.503439
	N228	N	0.417173	0.954322	0.681734
	N229	N	0.589019	0.027241	0.683814
	N230	N	0.588868	0.955186	0.324261
	N231	N	0.414862	0.026550	0.324272
	N232	N	0.683896	0.402738	0.967412
	N233	N	0.683729	0.577836	0.038776
	N234	N	0.322376	0.578227	0.968210
	N235	N	0.320653	0.402255	0.039463
	N236	N	0.966281	0.671638	0.418016
	N237	N	0.037838	0.672818	0.591575
	N238	N	0.965344	0.311949	0.590790
	N239	N	0.038027	0.311084	0.416932
	N240	N	0.965835	0.405818	0.683838
	N241	N	0.038902	0.578543	0.683597
	N242	N	0.967063	0.579993	0.323130
	N243	N	0.037920	0.404027	0.323037
	N244	N	0.417662	0.668974	0.966630
	N245	N	0.590602	0.670556	0.038774
	N246	N	0.589471	0.310958	0.967639
	N247	N	0.415944	0.310716	0.040481
	N248	N	0.682110	0.956037	0.417569
	N249	N	0.683297	0.027440	0.592334
	N250	N	0.321592	0.955829	0.591176
	N251	N	0.320611	0.026099	0.415224
	N252	N	0.914456	0.456366	0.185104
	N253	N	0.090161	0.527235	0.184315
	N254	N	0.089513	0.455845	0.823227
	N255	N	0.918133	0.528905	0.826204
	N256	N	0.185010	0.902021	0.468504
	N257	N	0.181178	0.077721	0.539498
	N258	N	0.818790	0.081822	0.469168
	N259	N	0.822171	0.905323	0.539236
	N260	N	0.467742	0.171870	0.915236
	N261	N	0.538455	0.169989	0.089765
	N262	N	0.466565	0.810735	0.089557
	N263	N	0.539078	0.810205	0.916509
	N264	N	0.466746	0.902322	0.184958
	N265	N	0.537244	0.078541	0.184738
	N266	N	0.466452	0.075676	0.824654
	N267	N	0.538664	0.902084	0.821660
	N268	N	0.913432	0.172777	0.468191
	N269	N	0.086674	0.169569	0.540060
	N270	N	0.090474	0.810671	0.468008
	N271	N	0.918465	0.815570	0.540974
	N272	N	0.184270	0.456278	0.915021
	N273	N	0.181385	0.527695	0.089808
	N274	N	0.822335	0.454974	0.090764
	N275	N	0.822498	0.526539	0.916287
	O276	O	0.301936	0.573292	0.635087
	H277	H	0.314974	0.565509	0.645877
	H278	H	0.300848	0.568892	0.644510
	O279	O	0.315413	0.311377	0.500406
	H280	H	0.321973	0.325537	0.521995
	H281	H	0.297328	0.294681	0.503302
	O282	O	0.512851	0.288289	0.316523
	H283	H	0.539184	0.293202	0.317661
	H284	H	0.524453	0.274699	0.293085
	O285	O	0.812075	1.024287	0.174419
	H286	H	0.795315	1.017633	0.171631
	H287	H	0.806697	1.030589	0.167614
	O288	O	0.479047	0.366990	0.702713
	H289	H	0.500971	0.379694	0.702712
	H290	H	0.494750	0.369199	0.707814
	O291	O	0.369367	0.513423	0.520737
	H292	H	0.355235	0.508118	0.531443
	H293	H	0.364021	0.506081	0.501472
	O294	O	0.972864	1.166892	0.820064
	H295	H	0.976568	1.163512	0.817789
	H296	H	0.998016	1.167528	0.831289
	O297	O	0.345733	0.670607	0.512416
	H298	H	0.336501	0.655568	0.527164
	H299	H	0.360854	0.659628	0.514314
	O300	O	0.694787	0.491236	0.560705
	H301	H	0.703177	0.494578	0.558449
	H302	H	0.687265	0.484232	0.550204
	O303	O	0.558771	0.326465	0.612744
	H304	H	0.567237	0.324429	0.608133
	H305	H	0.562399	0.321657	0.614281
	O306	O	-0.164030	0.112471	0.824268
	H307	H	-0.167724	0.094084	0.816575
	H308	H	-0.143511	0.116493	0.822290
	O309	O	1.058696	-0.095268	0.151155
	H310	H	1.035004	-0.118390	0.157331
	H311	H	1.048020	-0.088066	0.139246
	O312	O	0.494812	0.518476	0.395945
	H313	H	0.468501	0.519693	0.396054
	H314	H	0.494890	0.517182	0.411821
	O315	O	0.689921	0.654158	0.462265
	H316	H	0.670060	0.648382	0.450992
	H317	H	0.694725	0.671397	0.453145
	O318	O	-0.217036	0.206431	-0.019335
	H319	H	-0.253492	0.243851	-0.028189
	H320	H	-0.199133	0.191689	-0.067437
	O321	O	0.462318	0.315596	0.478294
	H322	H	0.473559	0.313423	0.462458
	H323	H	0.452307	0.310847	0.489438
	O324	O	0.371180	0.397388	0.577617
	H325	H	0.366296	0.383731	0.580908
	H326	H	0.367294	0.394079	0.594315
	O327	O	0.464006	0.620622	0.658212
	H328	H	0.469869	0.641722	0.672567
	H329	H	0.475807	0.623091	0.659890
	O330	O	0.063063	1.032856	0.820185
	H331	H	0.076334	1.029450	0.842574
	H332	H	0.082613	1.054414	0.816847
	O333	O	0.018036	1.158608	-0.022822
	H334	H	0.045562	1.165639	-0.000353
	H335	H	0.006573	1.157985	-0.002361
	O336	O	1.015304	1.198296	0.209594
	H337	H	0.991930	1.186748	0.206402
	H338	H	1.007446	1.213957	0.226515
	O339	O	0.048819	0.784596	0.900668
	H340	H	0.054037	0.778959	0.890505
	H341	H	0.047879	0.781410	0.903651
	O342	O	0.186467	0.928260	-0.071044
	H343	H	0.183904	0.937339	-0.075193
	H344	H	0.182067	0.944632	-0.050402
	O345	O	-0.099960	0.037577	0.802891
	H346	H	-0.083899	0.020969	0.803690
	H347	H	-0.085556	0.036055	0.786808
	O348	O	0.703863	0.481394	0.508817
	H349	H	0.719725	0.485479	0.505897
	H350	H	0.695253	0.504093	0.510101
	O351	O	0.969578	1.030091	0.151351
	H352	H	0.951423	1.014884	0.141337
	H353	H	0.973316	1.013216	0.143570
	O354	O	0.801204	0.847097	1.012199
	H355	H	0.788832	0.859519	1.006085
	H356	H	0.811503	0.850043	0.997884
	O357	O	-0.039943	-0.193478	-0.157712
	H358	H	-0.006513	-0.189980	-0.147355
	H359	H	-0.038951	-0.200803	-0.163625
	O360	O	0.308854	0.297877	0.699136
	H361	H	0.340894	0.282464	0.711250
	H362	H	0.318651	0.319218	0.689743
	O363	O	0.948643	-0.214487	0.201959
	H364	H	0.930159	-0.227252	0.212210
	H365	H	0.936649	-0.224682	0.194793
	O366	O	-0.203628	-0.022804	1.033215
	H367	H	-0.194416	-0.015255	1.034693
	H368	H	-0.206139	0.001804	1.025646
	O369	O	1.117611	0.011700	0.921431
	H370	H	1.121941	0.023149	0.923930
	H371	H	1.118146	0.013035	0.930847
	O372	O	0.647196	0.444134	0.389794
	H373	H	0.653707	0.434330	0.387313
	H374	H	0.624278	0.445923	0.395585
	O375	O	0.168504	-0.108475	0.805037
	H376	H	0.170336	-0.103420	0.793643
	H377	H	0.177718	-0.092535	0.806106
	O378	O	0.542756	0.570126	0.419793
	H379	H	0.533747	0.557843	0.407376
	H380	H	0.542348	0.560580	0.415847
	O381	O	-0.182261	0.846776	0.191986
	H382	H	-0.188723	0.842909	0.175055
	H383	H	-0.186310	0.853357	0.181426
	O384	O	0.695098	0.429159	0.415495
	H385	H	0.698564	0.437970	0.429694
	H386	H	0.699595	0.449930	0.404283
	O387	O	0.532293	0.488854	0.679461
	H388	H	0.547994	0.497148	0.666817
	H389	H	0.512509	0.493992	0.677773
	O390	O	1.038345	0.896483	0.003539
	H391	H	1.027154	0.908527	-0.006526
	H392	H	1.036721	0.876478	0.001764
	O393	O	1.067192	-0.043979	1.175344
	H394	H	1.059478	-0.045650	1.161995
	H395	H	1.062214	-0.048684	1.175932
	O396	O	0.618803	0.490679	0.679029
	H397	H	0.609145	0.493282	0.668072
	H398	H	0.634857	0.509429	0.671605
	O399	O	0.677144	0.377137	0.429151
	H400	H	0.682590	0.365738	0.444287
	H401	H	0.683227	0.393533	0.450827
	O402	O	1.123170	0.905734	0.056584
	H403	H	1.122026	0.903576	0.074031
	H404	H	1.117157	0.901151	0.050388
	O405	O	0.339060	0.591892	0.462454
	H406	H	0.333971	0.591536	0.480942
	H407	H	0.325674	0.581303	0.468274
	O408	O	0.296048	0.495823	0.320764
	H409	H	0.288068	0.490632	0.317852
	H410	H	0.293911	0.469332	0.318911
	O411	O	1.213467	1.011918	1.215524
	H412	H	1.218578	1.002362	1.235141
	H413	H	1.200540	0.997329	1.230994
	O414	O	0.477337	0.707863	0.283356
	H415	H	0.431746	0.700631	0.292578
	H416	H	0.466148	0.739212	0.251058
	O417	O	0.212828	1.190346	1.014099
	H418	H	0.238316	1.199683	1.024491
	H419	H	0.206209	1.188223	1.062551
	O420	O	-0.054921	1.187943	1.012018
	H421	H	-0.060042	1.183472	1.012983
	H422	H	-0.061910	1.179879	1.013286
	O423	O	0.181249	1.170658	0.167989
	H424	H	0.191351	1.119180	0.182385
	H425	H	0.129612	1.180084	0.179822
	O426	O	0.584710	0.621149	0.393477
	H427	H	0.573747	0.636135	0.376134
	H428	H	0.567616	0.621403	0.399645
	O429	O	0.496319	0.425482	0.393135
	H430	H	0.498548	0.410716	0.392923
	H431	H	0.496490	0.414793	0.382650
	O432	O	0.604603	0.631313	0.563230
	H433	H	0.612782	0.628021	0.540359
	H434	H	0.610961	0.627800	0.553582
	O435	O	0.145395	-0.193276	-0.073776
	H436	H	0.165742	-0.194889	-0.084561
	H437	H	0.151633	-0.175546	-0.059100
	O438	O	-0.136633	0.947699	0.893048
	H439	H	-0.140350	0.960960	0.870058
	H440	H	-0.142139	0.957481	0.909873
	O441	O	0.358734	0.670337	0.525599
	H442	H	0.371700	0.648462	0.536281
	H443	H	0.364962	0.689296	0.546388
