data_Molecule from HDF5

_cell_length_a		16.252847
_cell_length_b		16.349901
_cell_length_c		16.327990
_cell_angle_alpha	89.974719
_cell_angle_beta	90.038299
_cell_angle_gamma	90.030848
_symmetry_space_group_name_H-M	'P 1'
_symmetry_Int_Tables_number		1

loop_
	_symmetry_equiv_pos_as_xyz
	x,y,z

loop_
	_atom_site_label
	_atom_site_type_symbol
	_atom_site_fract_x
	_atom_site_fract_y
	_atom_site_fract_z
	H0	H	0.401725	0.837357	0.714980
	H1	H	0.599296	0.162773	0.715488
	H2	H	0.597519	0.836557	0.285426
	H3	H	0.400207	0.162780	0.283072
	H4	H	0.713918	0.402368	0.836579
	H5	H	0.712869	0.596564	0.164204
	H6	H	0.286389	0.597236	0.837100
	H7	H	0.287215	0.402973	0.164121
	H8	H	0.835490	0.713604	0.401985
	H9	H	0.163751	0.714774	0.598423
	H10	H	0.836301	0.286101	0.597704
	H11	H	0.163920	0.286272	0.401433
	H12	H	0.835563	0.402133	0.713879
	H13	H	0.163870	0.598547	0.715090
	H14	H	0.835956	0.598474	0.285189
	H15	H	0.164400	0.403189	0.286687
	H16	H	0.400064	0.715561	0.837334
	H17	H	0.598890	0.715066	0.162731
	H18	H	0.597840	0.285338	0.836628
	H19	H	0.401769	0.284648	0.162939
	H20	H	0.713421	0.836489	0.402855
	H21	H	0.713200	0.163376	0.596787
	H22	H	0.287464	0.836546	0.595980
	H23	H	0.286326	0.163903	0.402415
	H24	H	0.901289	0.336820	0.214931
	H25	H	0.098889	0.663463	0.214299
	H26	H	0.098176	0.336880	0.785835
	H27	H	0.900614	0.662607	0.784575
	H28	H	0.213405	0.902764	0.335797
	H29	H	0.213901	0.097730	0.663334
	H30	H	0.784827	0.098139	0.336108
	H31	H	0.785861	0.902185	0.663574
	H32	H	0.336197	0.213145	0.901761
	H33	H	0.663748	0.213155	0.097726
	H34	H	0.335794	0.785341	0.097441
	H35	H	0.663875	0.785504	0.902467
	H36	H	0.335742	0.900959	0.213611
	H37	H	0.663619	0.096849	0.213696
	H38	H	0.335754	0.097208	0.786420
	H39	H	0.664439	0.902139	0.786757
	H40	H	0.900563	0.215454	0.337391
	H41	H	0.099830	0.215481	0.662739
	H42	H	0.098295	0.785095	0.336987
	H43	H	0.901137	0.784818	0.662677
	H44	H	0.213498	0.336492	0.903284
	H45	H	0.215043	0.662816	0.097307
	H46	H	0.786586	0.336559	0.097119
	H47	H	0.785707	0.663568	0.901603
	H48	H	0.406690	0.112510	0.579904
	H49	H	0.600340	0.880228	0.600423
	H50	H	0.595819	0.116282	0.405428
	H51	H	0.415647	0.885581	0.401438
	H52	H	0.598495	0.407550	0.116794
	H53	H	0.592741	0.602199	0.881336
	H54	H	0.406340	0.590093	0.116402
	H55	H	0.411920	0.406130	0.885141
	H56	H	0.116811	0.588572	0.400841
	H57	H	0.887325	0.585245	0.587900
	H58	H	0.112295	0.412973	0.584990
	H59	H	0.886486	0.413167	0.409993
	H60	H	0.118338	0.411661	0.603544
	H61	H	0.880705	0.591965	0.603124
	H62	H	0.119084	0.600773	0.406015
	H63	H	0.882005	0.406610	0.400015
	H64	H	0.411149	0.593052	0.114693
	H65	H	0.600944	0.589371	0.882753
	H66	H	0.589247	0.409405	0.114445
	H67	H	0.404778	0.401638	0.881725
	H68	H	0.590356	0.115094	0.404278
	H69	H	0.582990	0.885527	0.598031
	H70	H	0.394783	0.121705	0.600785
	H71	H	0.404954	0.887113	0.415471
	H72	H	0.905678	0.615107	0.089896
	H73	H	0.086557	0.387097	0.090883
	H74	H	0.095941	0.617488	0.902681
	H75	H	0.906254	0.385207	0.910898
	H76	H	0.094292	0.908735	0.615958
	H77	H	0.092938	0.094233	0.383638
	H78	H	0.900989	0.087230	0.615795
	H79	H	0.909263	0.893413	0.380838
	H80	H	0.617104	0.092726	0.908245
	H81	H	0.380681	0.107234	0.086856
	H82	H	0.613039	0.913149	0.090098
	H83	H	0.381980	0.900907	0.908488
	H84	H	0.617916	0.907723	0.100198
	H85	H	0.388937	0.082158	0.084026
	H86	H	0.616381	0.092956	0.906336
	H87	H	0.385890	0.910980	0.911931
	H88	H	0.914860	0.092013	0.612202
	H89	H	0.093386	0.094078	0.383654
	H90	H	0.091208	0.905916	0.615020
	H91	H	0.894677	0.910500	0.381529
	H92	H	0.088400	0.614852	0.905934
	H93	H	0.101061	0.382674	0.090063
	H94	H	0.904328	0.617523	0.096021
	H95	H	0.903537	0.382715	0.905064
	H96	H	0.419232	0.114995	0.601747
	H97	H	0.594848	0.886108	0.583886
	H98	H	0.591847	0.115257	0.409449
	H99	H	0.398426	0.880368	0.400514
	H100	H	0.591945	0.400215	0.117211
	H101	H	0.586019	0.589782	0.887165
	H102	H	0.406427	0.595424	0.117723
	H103	H	0.404110	0.410286	0.884445
	H104	H	0.113208	0.591202	0.413882
	H105	H	0.882069	0.601938	0.588809
	H106	H	0.119420	0.396417	0.592074
	H107	H	0.882873	0.401202	0.411382
	H108	H	0.910480	0.614637	0.094434
	H109	H	0.093763	0.380907	0.103049
	H110	H	0.095131	0.614666	0.911512
	H111	H	0.910262	0.384933	0.905251
	H112	H	0.094897	0.904627	0.617136
	H113	H	0.092812	0.093883	0.383843
	H114	H	0.904885	0.101508	0.619138
	H115	H	0.915811	0.913696	0.388842
	H116	H	0.617315	0.094527	0.906861
	H117	H	0.379171	0.090456	0.107314
	H118	H	0.617179	0.901541	0.089196
	H119	H	0.383430	0.909997	0.900745
	C120	C	0.378521	0.008485	0.622042
	C121	C	0.621653	0.991789	0.622268
	C122	C	0.621086	0.007848	0.378141
	C123	C	0.377956	0.992005	0.377867
	C124	C	0.621561	0.378075	0.008278
	C125	C	0.621720	0.621626	0.991594
	C126	C	0.379186	0.621176	0.008141
	C127	C	0.378473	0.377987	0.991780
	C128	C	0.008025	0.621733	0.378418
	C129	C	0.991832	0.621338	0.621370
	C130	C	0.008339	0.378553	0.621528
	C131	C	0.992099	0.378986	0.378605
	C132	C	0.878414	0.507949	0.121843
	C133	C	0.122191	0.491579	0.122264
	C134	C	0.121859	0.508219	0.878691
	C135	C	0.878073	0.492058	0.878238
	C136	C	0.121516	0.878777	0.507796
	C137	C	0.121671	0.122184	0.491602
	C138	C	0.878514	0.121676	0.507882
	C139	C	0.877959	0.878025	0.491395
	C140	C	0.508581	0.121631	0.878463
	C141	C	0.491321	0.121291	0.121026
	C142	C	0.507912	0.878177	0.121813
	C143	C	0.492029	0.878621	0.878514
	C144	C	0.381099	0.885727	0.676826
	C145	C	0.619500	0.114213	0.677310
	C146	C	0.618447	0.885380	0.323116
	C147	C	0.380601	0.114703	0.322365
	C148	C	0.676059	0.381630	0.885216
	C149	C	0.676088	0.618378	0.114940
	C150	C	0.323959	0.618223	0.885662
	C151	C	0.324479	0.381623	0.115170
	C152	C	0.884570	0.676070	0.381283
	C153	C	0.114858	0.676581	0.618983
	C154	C	0.884942	0.323647	0.618637
	C155	C	0.115211	0.324348	0.381185
	C156	C	0.884895	0.381043	0.676495
	C157	C	0.115174	0.618872	0.676790
	C158	C	0.884726	0.618779	0.323356
	C159	C	0.115427	0.382581	0.324299
	C160	C	0.380478	0.677005	0.885964
	C161	C	0.619441	0.677084	0.114269
	C162	C	0.618761	0.323130	0.885389
	C163	C	0.381264	0.322944	0.114496
	C164	C	0.676162	0.885172	0.381198
	C165	C	0.676038	0.114580	0.618302
	C166	C	0.324182	0.885569	0.617886
	C167	C	0.323742	0.115177	0.381118
	C168	C	0.880764	0.385468	0.177052
	C169	C	0.119341	0.614620	0.176549
	C170	C	0.118886	0.385393	0.824160
	C171	C	0.880576	0.614274	0.822798
	C172	C	0.175798	0.882207	0.384709
	C173	C	0.176365	0.118978	0.614326
	C174	C	0.823017	0.118671	0.385030
	C175	C	0.823442	0.881084	0.614530
	C176	C	0.384999	0.175631	0.881233
	C177	C	0.614944	0.175622	0.118355
	C178	C	0.385084	0.822712	0.118717
	C179	C	0.615061	0.823333	0.881283
	C180	C	0.384930	0.880165	0.176421
	C181	C	0.614869	0.117931	0.175673
	C182	C	0.384932	0.117786	0.824169
	C183	C	0.615446	0.881354	0.824039
	C184	C	0.880509	0.176955	0.385401
	C185	C	0.119295	0.177202	0.614364
	C186	C	0.118827	0.823430	0.385331
	C187	C	0.880915	0.823233	0.614419
	C188	C	0.176151	0.385204	0.882246
	C189	C	0.177231	0.614358	0.118644
	C190	C	0.823701	0.385276	0.118720
	C191	C	0.823492	0.614659	0.881209
	C192	C	0.400341	0.094268	0.600486
	C193	C	0.599361	0.906203	0.600627
	C194	C	0.599057	0.093488	0.400117
	C195	C	0.399843	0.906563	0.399483
	C196	C	0.599511	0.399467	0.094164
	C197	C	0.599693	0.600075	0.905953
	C198	C	0.401430	0.599252	0.094215
	C199	C	0.400380	0.399615	0.905904
	C200	C	0.094258	0.600040	0.400506
	C201	C	0.905687	0.599521	0.599717
	C202	C	0.094289	0.400578	0.599960
	C203	C	0.905958	0.400558	0.400754
	C204	C	0.900306	0.593561	0.100030
	C205	C	0.100242	0.405920	0.100756
	C206	C	0.099766	0.593693	0.900451
	C207	C	0.900180	0.406260	0.900382
	C208	C	0.099748	0.900104	0.593856
	C209	C	0.099495	0.100488	0.405909
	C210	C	0.900445	0.099884	0.593603
	C211	C	0.899893	0.899515	0.405826
	C212	C	0.594801	0.099938	0.900580
	C213	C	0.405256	0.099793	0.099093
	C214	C	0.593925	0.900934	0.099488
	C215	C	0.406019	0.900875	0.900519
	Zn216	Zn	0.500176	0.000146	0.750693
	Zn217	Zn	0.499297	-0.000013	0.249383
	Zn218	Zn	0.750007	0.500128	0.000241
	Zn219	Zn	0.250538	0.499749	0.000203
	Zn220	Zn	-0.000117	0.750058	0.499836
	Zn221	Zn	0.000222	0.250774	0.499807
	Zn222	Zn	0.000133	0.499952	0.749997
	Zn223	Zn	-0.000118	0.500169	0.250383
	Zn224	Zn	0.500128	0.749921	-0.000195
	Zn225	Zn	0.499789	0.249251	-0.000053
	Zn226	Zn	0.749750	-0.000252	0.499979
	Zn227	Zn	0.249966	0.000608	0.499412
	N228	N	0.414349	0.962979	0.679362
	N229	N	0.586321	0.036871	0.679604
	N230	N	0.585085	0.962605	0.321108
	N231	N	0.413628	0.037299	0.320273
	N232	N	0.677986	0.414930	0.962544
	N233	N	0.677797	0.584713	0.037750
	N234	N	0.323144	0.584258	0.962680
	N235	N	0.322805	0.415161	0.037875
	N236	N	0.962220	0.678091	0.414849
	N237	N	0.037337	0.678156	0.585222
	N238	N	0.962567	0.321916	0.585263
	N239	N	0.037534	0.322134	0.414371
	N240	N	0.962527	0.414462	0.678464
	N241	N	0.037668	0.585261	0.678397
	N242	N	0.962425	0.585685	0.321697
	N243	N	0.037845	0.415770	0.322588
	N244	N	0.414083	0.678715	0.963169
	N245	N	0.586390	0.679159	0.036755
	N246	N	0.585744	0.320799	0.962881
	N247	N	0.413908	0.320432	0.036871
	N248	N	0.677996	0.962365	0.414597
	N249	N	0.677512	0.037598	0.584807
	N250	N	0.322704	0.962852	0.584420
	N251	N	0.321998	0.038230	0.414800
	N252	N	0.913997	0.462773	0.179112
	N253	N	0.085759	0.537507	0.178785
	N254	N	0.085789	0.462613	0.821760
	N255	N	0.913856	0.536991	0.820991
	N256	N	0.177441	0.915890	0.461857
	N257	N	0.178087	0.085728	0.537166
	N258	N	0.821741	0.084892	0.462081
	N259	N	0.821689	0.914732	0.537406
	N260	N	0.462720	0.177848	0.914503
	N261	N	0.537254	0.177827	0.085160
	N262	N	0.462778	0.821494	0.085318
	N263	N	0.537547	0.821657	0.914617
	N264	N	0.462253	0.914097	0.178232
	N265	N	0.537111	0.084780	0.177487
	N266	N	0.462893	0.085100	0.822140
	N267	N	0.537971	0.915139	0.822540
	N268	N	0.914418	0.178729	0.462551
	N269	N	0.085815	0.179268	0.536868
	N270	N	0.085824	0.821366	0.462849
	N271	N	0.914092	0.821152	0.537039
	N272	N	0.178102	0.462489	0.915441
	N273	N	0.179186	0.537016	0.085714
	N274	N	0.822366	0.462226	0.084892
	N275	N	0.821949	0.537499	0.914979
