data_Molecule from HDF5

_cell_length_a		16.313290
_cell_length_b		16.292291
_cell_length_c		16.329366
_cell_angle_alpha	89.823317
_cell_angle_beta	89.930986
_cell_angle_gamma	89.984499
_symmetry_space_group_name_H-M	'P 1'
_symmetry_Int_Tables_number		1

loop_
	_symmetry_equiv_pos_as_xyz
	x,y,z

loop_
	_atom_site_label
	_atom_site_type_symbol
	_atom_site_fract_x
	_atom_site_fract_y
	_atom_site_fract_z
	H0	H	0.406785	0.839004	0.709938
	H1	H	0.602876	0.166283	0.709822
	H2	H	0.602032	0.837816	0.282952
	H3	H	0.406376	0.165421	0.281180
	H4	H	0.720516	0.404000	0.832976
	H5	H	0.717468	0.600161	0.160053
	H6	H	0.290334	0.600861	0.831885
	H7	H	0.290023	0.404011	0.160168
	H8	H	0.840602	0.718220	0.397893
	H9	H	0.167990	0.714809	0.592214
	H10	H	0.839943	0.287678	0.594638
	H11	H	0.168556	0.290126	0.399540
	H12	H	0.839940	0.404643	0.711436
	H13	H	0.167664	0.599669	0.708986
	H14	H	0.840041	0.601209	0.282004
	H15	H	0.167707	0.404875	0.281458
	H16	H	0.406587	0.717235	0.832380
	H17	H	0.601224	0.715794	0.159193
	H18	H	0.601813	0.289609	0.831280
	H19	H	0.406339	0.286788	0.158639
	H20	H	0.718776	0.838356	0.398569
	H21	H	0.718646	0.166755	0.592592
	H22	H	0.291769	0.838575	0.593098
	H23	H	0.290307	0.165970	0.397175
	H24	H	0.905481	0.339361	0.212234
	H25	H	0.102168	0.667341	0.209357
	H26	H	0.102132	0.339935	0.782332
	H27	H	0.905283	0.666640	0.781089
	H28	H	0.217204	0.905630	0.332205
	H29	H	0.220026	0.100777	0.659150
	H30	H	0.789817	0.102299	0.331803
	H31	H	0.789599	0.904007	0.658590
	H32	H	0.340602	0.217199	0.896751
	H33	H	0.668879	0.216675	0.093563
	H34	H	0.340713	0.788802	0.092632
	H35	H	0.668297	0.788363	0.897743
	H36	H	0.340726	0.902942	0.210623
	H37	H	0.668170	0.099154	0.209608
	H38	H	0.340423	0.101001	0.780400
	H39	H	0.667858	0.904065	0.780599
	H40	H	0.907730	0.217440	0.331733
	H41	H	0.101813	0.216069	0.660007
	H42	H	0.101657	0.788741	0.333175
	H43	H	0.906772	0.788732	0.659643
	H44	H	0.217426	0.339092	0.898944
	H45	H	0.218820	0.667153	0.093774
	H46	H	0.789607	0.339203	0.096312
	H47	H	0.790402	0.666861	0.898631
	H48	H	0.414747	0.117798	0.587010
	H49	H	0.597272	0.884363	0.596293
	H50	H	0.595506	0.116853	0.403835
	H51	H	0.425390	0.891538	0.406452
	H52	H	0.604430	0.406000	0.114496
	H53	H	0.595936	0.596345	0.880147
	H54	H	0.416671	0.596139	0.110386
	H55	H	0.418464	0.411732	0.882364
	H56	H	0.119592	0.591940	0.398322
	H57	H	0.888815	0.595511	0.585699
	H58	H	0.125409	0.396285	0.596168
	H59	H	0.886578	0.416992	0.389991
	H60	H	0.115522	0.409253	0.576989
	H61	H	0.887512	0.593203	0.592537
	H62	H	0.121942	0.600886	0.401211
	H63	H	0.884440	0.395135	0.404660
	H64	H	0.406949	0.600188	0.114125
	H65	H	0.598660	0.597387	0.879017
	H66	H	0.596200	0.416103	0.109528
	H67	H	0.408134	0.400328	0.876976
	H68	H	0.601344	0.119234	0.402604
	H69	H	0.591635	0.889525	0.585833
	H70	H	0.409245	0.118357	0.585859
	H71	H	0.400225	0.885051	0.414319
	H72	H	0.906833	0.624094	0.101746
	H73	H	0.089420	0.388921	0.089933
	H74	H	0.093949	0.620825	0.895061
	H75	H	0.911707	0.387690	0.904519
	H76	H	0.099266	0.908630	0.613039
	H77	H	0.097235	0.105306	0.378125
	H78	H	0.910591	0.097012	0.612162
	H79	H	0.907854	0.912252	0.379841
	H80	H	0.617634	0.091420	0.904878
	H81	H	0.387115	0.094191	0.093471
	H82	H	0.622892	0.910171	0.098262
	H83	H	0.389812	0.915643	0.900451
	H84	H	0.622234	0.900450	0.086488
	H85	H	0.388781	0.099300	0.086223
	H86	H	0.620366	0.093915	0.898212
	H87	H	0.386003	0.905628	0.897557
	H88	H	0.909344	0.093993	0.610588
	H89	H	0.105779	0.091117	0.379479
	H90	H	0.097826	0.909537	0.612135
	H91	H	0.914861	0.910644	0.380784
	H92	H	0.094662	0.617152	0.908338
	H93	H	0.100768	0.387634	0.082916
	H94	H	0.923974	0.614923	0.087391
	H95	H	0.912820	0.386602	0.903646
	H96	H	0.411051	0.120003	0.591400
	H97	H	0.604542	0.885917	0.584910
	H98	H	0.596691	0.119156	0.397632
	H99	H	0.407559	0.880138	0.388231
	H100	H	0.591426	0.403972	0.110988
	H101	H	0.598704	0.594186	0.880539
	H102	H	0.407379	0.589306	0.110747
	H103	H	0.403410	0.415804	0.880022
	H104	H	0.118423	0.594474	0.407453
	H105	H	0.886088	0.599918	0.590645
	H106	H	0.118983	0.420375	0.599269
	H107	H	0.894238	0.417323	0.415023
	H108	H	0.901643	0.618707	0.078921
	H109	H	0.100581	0.384521	0.095930
	H110	H	0.105858	0.622405	0.901624
	H111	H	0.913658	0.387252	0.905206
	H112	H	0.097591	0.908116	0.612078
	H113	H	0.089766	0.091270	0.384187
	H114	H	0.912805	0.094795	0.610182
	H115	H	0.910351	0.905507	0.377974
	H116	H	0.620518	0.098981	0.904092
	H117	H	0.391199	0.091277	0.086251
	H118	H	0.617818	0.914325	0.084748
	H119	H	0.389480	0.907059	0.908638
	C120	C	0.383239	0.010793	0.616790
	C121	C	0.626181	0.994776	0.616968
	C122	C	0.626184	0.010497	0.373770
	C123	C	0.382846	0.993687	0.374091
	C124	C	0.626145	0.380514	0.003867
	C125	C	0.625421	0.623620	0.988218
	C126	C	0.382460	0.624026	0.003669
	C127	C	0.381976	0.380875	0.987676
	C128	C	0.012117	0.624695	0.374184
	C129	C	0.995968	0.624075	0.617442
	C130	C	0.011784	0.380497	0.618809
	C131	C	0.996384	0.381487	0.374645
	C132	C	0.882681	0.510972	0.118031
	C133	C	0.125441	0.495366	0.117328
	C134	C	0.126131	0.511751	0.874025
	C135	C	0.883151	0.494987	0.875291
	C136	C	0.126122	0.881085	0.504520
	C137	C	0.126179	0.124146	0.488196
	C138	C	0.882830	0.124467	0.503233
	C139	C	0.882794	0.880957	0.487668
	C140	C	0.511870	0.124025	0.873427
	C141	C	0.496858	0.123508	0.117224
	C142	C	0.512664	0.880176	0.117767
	C143	C	0.496369	0.880849	0.874235
	C144	C	0.386089	0.887712	0.671985
	C145	C	0.623430	0.117648	0.671791
	C146	C	0.623120	0.886670	0.320403
	C147	C	0.385667	0.116653	0.318747
	C148	C	0.681803	0.383466	0.881212
	C149	C	0.679920	0.620479	0.111026
	C150	C	0.328076	0.621539	0.880751
	C151	C	0.327363	0.383443	0.111031
	C152	C	0.889134	0.679822	0.377423
	C153	C	0.119009	0.677854	0.613771
	C154	C	0.888753	0.326011	0.615416
	C155	C	0.119535	0.327461	0.378318
	C156	C	0.888739	0.383977	0.673487
	C157	C	0.118773	0.620622	0.671822
	C158	C	0.888810	0.622032	0.319746
	C159	C	0.119180	0.384338	0.319752
	C160	C	0.385953	0.679256	0.880911
	C161	C	0.622103	0.678090	0.110820
	C162	C	0.623043	0.326522	0.880485
	C163	C	0.385272	0.325374	0.110563
	C164	C	0.680871	0.886986	0.377725
	C165	C	0.680879	0.117863	0.613571
	C166	C	0.328835	0.887576	0.614196
	C167	C	0.328005	0.117018	0.376510
	C168	C	0.885208	0.388125	0.173974
	C169	C	0.122608	0.618653	0.171391
	C170	C	0.122616	0.388400	0.820301
	C171	C	0.884743	0.618028	0.819480
	C172	C	0.180267	0.884484	0.381359
	C173	C	0.181317	0.121082	0.610843
	C174	C	0.827674	0.122471	0.380521
	C175	C	0.827661	0.883808	0.610228
	C176	C	0.389293	0.179165	0.876379
	C177	C	0.619959	0.178502	0.113941
	C178	C	0.389388	0.826310	0.113727
	C179	C	0.619362	0.826171	0.877201
	C180	C	0.389687	0.882951	0.172543
	C181	C	0.619728	0.120076	0.171700
	C182	C	0.389230	0.121769	0.818188
	C183	C	0.619430	0.883894	0.819354
	C184	C	0.886148	0.179798	0.380450
	C185	C	0.122800	0.178380	0.611158
	C186	C	0.122947	0.826420	0.381642
	C187	C	0.886153	0.826613	0.610803
	C188	C	0.180238	0.388178	0.877954
	C189	C	0.180288	0.618674	0.113725
	C190	C	0.827612	0.388034	0.116436
	C191	C	0.827871	0.618116	0.877884
	C192	C	0.405442	0.096684	0.594617
	C193	C	0.604265	0.908724	0.595410
	C194	C	0.604181	0.096225	0.394807
	C195	C	0.404426	0.907791	0.396514
	C196	C	0.603876	0.402030	0.089519
	C197	C	0.604107	0.602138	0.902041
	C198	C	0.404045	0.601821	0.089495
	C199	C	0.403602	0.402927	0.902050
	C200	C	0.097838	0.602353	0.395863
	C201	C	0.909620	0.602475	0.596017
	C202	C	0.097894	0.402218	0.597277
	C203	C	0.910575	0.403298	0.396693
	C204	C	0.904442	0.597079	0.095793
	C205	C	0.103336	0.409334	0.095990
	C206	C	0.104491	0.597835	0.895501
	C207	C	0.905982	0.409488	0.897742
	C208	C	0.104658	0.902442	0.590297
	C209	C	0.104262	0.102451	0.402661
	C210	C	0.904520	0.101860	0.588841
	C211	C	0.904563	0.902949	0.401726
	C212	C	0.597424	0.101292	0.895669
	C213	C	0.411241	0.101459	0.095182
	C214	C	0.598782	0.901786	0.096258
	C215	C	0.410477	0.902884	0.895909
	Zn216	Zn	0.504324	0.002339	0.745612
	Zn217	Zn	0.504499	0.001398	0.246069
	Zn218	Zn	0.754603	0.502572	-0.003695
	Zn219	Zn	0.253535	0.503186	-0.004096
	Zn220	Zn	0.004268	0.752648	0.496276
	Zn221	Zn	0.004335	0.252776	0.496053
	Zn222	Zn	0.003857	0.503402	0.746603
	Zn223	Zn	0.004324	0.503393	0.246066
	Zn224	Zn	0.504562	0.752502	-0.003923
	Zn225	Zn	0.504361	0.252189	-0.004763
	Zn226	Zn	0.754376	0.002724	0.495027
	Zn227	Zn	0.254958	0.002190	0.495900
	N228	N	0.419493	0.965373	0.673455
	N229	N	0.590020	0.040089	0.673829
	N230	N	0.589841	0.964305	0.317936
	N231	N	0.419110	0.039087	0.317363
	N232	N	0.683888	0.416334	0.958738
	N233	N	0.681729	0.586973	0.033711
	N234	N	0.325954	0.587866	0.958078
	N235	N	0.325317	0.417238	0.033716
	N236	N	0.966687	0.681650	0.410464
	N237	N	0.041509	0.679859	0.580687
	N238	N	0.966264	0.323846	0.582203
	N239	N	0.042172	0.325868	0.411888
	N240	N	0.966400	0.417001	0.675700
	N241	N	0.041014	0.587839	0.673939
	N242	N	0.966204	0.588382	0.317710
	N243	N	0.041704	0.417350	0.317441
	N244	N	0.418940	0.681020	0.958539
	N245	N	0.588887	0.679936	0.033555
	N246	N	0.589102	0.324832	0.957655
	N247	N	0.418354	0.323468	0.033134
	N248	N	0.682832	0.964816	0.410306
	N249	N	0.682720	0.040389	0.580401
	N250	N	0.327002	0.965056	0.580738
	N251	N	0.326155	0.039557	0.410113
	N252	N	0.918793	0.465673	0.175053
	N253	N	0.089255	0.541004	0.173570
	N254	N	0.089784	0.466060	0.817726
	N255	N	0.918346	0.540583	0.817786
	N256	N	0.182206	0.917869	0.458572
	N257	N	0.183342	0.087963	0.533475
	N258	N	0.825454	0.088778	0.458130
	N259	N	0.825574	0.916930	0.532606
	N260	N	0.466520	0.180643	0.909984
	N261	N	0.542531	0.180697	0.080809
	N262	N	0.466876	0.824736	0.080312
	N263	N	0.541982	0.824617	0.910891
	N264	N	0.467433	0.915596	0.175128
	N265	N	0.542290	0.086769	0.173762
	N266	N	0.466551	0.088249	0.816361
	N267	N	0.541913	0.917018	0.817283
	N268	N	0.919618	0.180936	0.457517
	N269	N	0.089211	0.180409	0.533841
	N270	N	0.090108	0.824065	0.459212
	N271	N	0.919679	0.824908	0.533507
	N272	N	0.182200	0.465882	0.910900
	N273	N	0.182165	0.540987	0.080892
	N274	N	0.825996	0.465337	0.082383
	N275	N	0.826723	0.540631	0.911863
	O276	O	0.996259	0.140797	0.896999
	H277	H	0.998883	0.154754	0.894907
	H278	H	1.000916	0.144341	0.897076
	O279	O	-0.051168	0.107573	0.941232
	H280	H	-0.053117	0.109858	0.930962
	H281	H	-0.036165	0.109697	0.926124
	O282	O	0.932267	1.140992	-0.011670
	H283	H	0.924473	1.139817	-0.003252
	H284	H	0.929862	1.130673	-0.019244
	O285	O	-0.018866	0.166644	0.941440
	H286	H	-0.023517	0.180484	0.946374
	H287	H	-0.027745	0.160774	0.954415
