data_Molecule from HDF5

_cell_length_a		16.497332
_cell_length_b		16.418902
_cell_length_c		16.601276
_cell_angle_alpha	90.001182
_cell_angle_beta	90.164602
_cell_angle_gamma	89.936335
_symmetry_space_group_name_H-M	'P 1'
_symmetry_Int_Tables_number		1

loop_
	_symmetry_equiv_pos_as_xyz
	x,y,z

loop_
	_atom_site_label
	_atom_site_type_symbol
	_atom_site_fract_x
	_atom_site_fract_y
	_atom_site_fract_z
	H0	H	0.405539	0.844293	0.735877
	H1	H	0.621166	0.158904	0.737930
	H2	H	0.619921	0.845956	0.290420
	H3	H	0.403116	0.158314	0.289859
	H4	H	0.737738	0.391003	0.857724
	H5	H	0.735013	0.606327	0.169433
	H6	H	0.287507	0.609681	0.859635
	H7	H	0.289203	0.392552	0.169705
	H8	H	0.856056	0.723417	0.407247
	H9	H	0.170722	0.721396	0.617923
	H10	H	0.856400	0.277812	0.619910
	H11	H	0.169265	0.277416	0.407173
	H12	H	0.856417	0.391903	0.737907
	H13	H	0.168518	0.609605	0.738330
	H14	H	0.857770	0.610146	0.288690
	H15	H	0.169905	0.392337	0.290941
	H16	H	0.405995	0.723805	0.858134
	H17	H	0.618397	0.723186	0.170112
	H18	H	0.621007	0.275573	0.857328
	H19	H	0.406486	0.277515	0.168836
	H20	H	0.734259	0.844732	0.408209
	H21	H	0.734717	0.159719	0.620864
	H22	H	0.291036	0.843854	0.618824
	H23	H	0.289286	0.158831	0.406756
	H24	H	0.904927	0.345579	0.237893
	H25	H	0.119916	0.658786	0.236415
	H26	H	0.119862	0.344168	0.791333
	H27	H	0.903300	0.658218	0.789999
	H28	H	0.234824	0.894000	0.357572
	H29	H	0.238479	0.110448	0.668385
	H30	H	0.790115	0.107250	0.358274
	H31	H	0.789642	0.893261	0.670679
	H32	H	0.354912	0.223478	0.907329
	H33	H	0.669254	0.222481	0.118894
	H34	H	0.354219	0.781663	0.117068
	H35	H	0.669766	0.778601	0.908609
	H36	H	0.354903	0.895512	0.235891
	H37	H	0.667428	0.110443	0.238363
	H38	H	0.357301	0.112734	0.787199
	H39	H	0.668376	0.891313	0.789165
	H40	H	0.906283	0.223230	0.358096
	H41	H	0.122080	0.226148	0.669042
	H42	H	0.118123	0.778602	0.357700
	H43	H	0.906791	0.777760	0.670474
	H44	H	0.234446	0.343606	0.909095
	H45	H	0.234890	0.658993	0.121378
	H46	H	0.790811	0.343518	0.119691
	H47	H	0.789027	0.658875	0.906614
	H48	H	0.420651	0.114481	0.598454
	H49	H	0.604116	0.889519	0.598612
	H50	H	0.602726	0.116096	0.425348
	H51	H	0.425198	0.889656	0.427270
	H52	H	0.602205	0.412234	0.123899
	H53	H	0.599730	0.591110	0.901947
	H54	H	0.427072	0.591060	0.125489
	H55	H	0.423656	0.412972	0.902714
	H56	H	0.122055	0.582286	0.429823
	H57	H	0.899849	0.590634	0.601328
	H58	H	0.123504	0.412038	0.599333
	H59	H	0.902568	0.414964	0.427247
	H60	H	0.122307	0.418830	0.601790
	H61	H	0.901289	0.587308	0.601109
	H62	H	0.128171	0.588176	0.416915
	H63	H	0.901500	0.417201	0.423727
	H64	H	0.421746	0.593429	0.127648
	H65	H	0.602852	0.590638	0.900775
	H66	H	0.601258	0.414030	0.123568
	H67	H	0.423295	0.416229	0.903468
	H68	H	0.598310	0.114890	0.424467
	H69	H	0.601083	0.887452	0.606407
	H70	H	0.428120	0.114479	0.606096
	H71	H	0.422491	0.888536	0.424759
	H72	H	0.926565	0.614727	0.105839
	H73	H	0.105809	0.386577	0.105095
	H74	H	0.093413	0.615485	0.915781
	H75	H	0.922707	0.387196	0.922595
	H76	H	0.094405	0.912422	0.622641
	H77	H	0.099082	0.092501	0.401328
	H78	H	0.930294	0.087205	0.623307
	H79	H	0.927482	0.915141	0.406120
	H80	H	0.622061	0.083763	0.925813
	H81	H	0.400580	0.088539	0.098796
	H82	H	0.623306	0.916912	0.104115
	H83	H	0.398913	0.914231	0.919011
	H84	H	0.626503	0.912139	0.108035
	H85	H	0.400240	0.085190	0.103739
	H86	H	0.624990	0.088225	0.923592
	H87	H	0.400495	0.909558	0.926731
	H88	H	0.924015	0.096378	0.628794
	H89	H	0.103975	0.086499	0.402126
	H90	H	0.105695	0.907467	0.628214
	H91	H	0.922877	0.906262	0.400692
	H92	H	0.092706	0.608507	0.935365
	H93	H	0.096084	0.389240	0.105752
	H94	H	0.928838	0.610987	0.098091
	H95	H	0.928601	0.389791	0.924243
	H96	H	0.430297	0.110626	0.596289
	H97	H	0.596031	0.891441	0.600868
	H98	H	0.599856	0.114069	0.428642
	H99	H	0.426010	0.889066	0.423683
	H100	H	0.600447	0.412254	0.123470
	H101	H	0.601070	0.588005	0.902740
	H102	H	0.421935	0.587730	0.125314
	H103	H	0.426379	0.414848	0.903679
	H104	H	0.126633	0.596930	0.429295
	H105	H	0.899684	0.588414	0.603608
	H106	H	0.126023	0.414481	0.605946
	H107	H	0.900269	0.412872	0.423838
	H108	H	0.920142	0.614107	0.099185
	H109	H	0.100956	0.390573	0.097654
	H110	H	0.110338	0.616803	0.927839
	H111	H	0.924088	0.390056	0.928238
	H112	H	0.105031	0.920245	0.623933
	H113	H	0.096890	0.085943	0.405380
	H114	H	0.918044	0.085281	0.626718
	H115	H	0.916964	0.916030	0.401826
	H116	H	0.622925	0.088502	0.929048
	H117	H	0.398364	0.091065	0.103459
	H118	H	0.624971	0.910510	0.101569
	H119	H	0.402426	0.918554	0.926015
	C120	C	0.392337	0.009778	0.634214
	C121	C	0.633997	0.993373	0.635756
	C122	C	0.632988	0.010812	0.393345
	C123	C	0.390932	0.992962	0.392359
	C124	C	0.634660	0.378771	0.021036
	C125	C	0.633715	0.622376	1.005236
	C126	C	0.390299	0.623683	0.023308
	C127	C	0.391524	0.380596	1.005971
	C128	C	0.021971	0.622440	0.392248
	C129	C	1.004176	0.622312	0.634827
	C130	C	0.021014	0.380327	0.635519
	C131	C	1.004915	0.380505	0.392093
	C132	C	0.891948	0.509641	0.134179
	C133	C	0.134450	0.492668	0.135805
	C134	C	0.132808	0.509894	0.893210
	C135	C	0.890728	0.492616	0.891515
	C136	C	0.134228	0.880110	0.521866
	C137	C	0.134751	0.123048	0.505056
	C138	C	0.890939	0.123082	0.523058
	C139	C	0.890153	0.879243	0.505993
	C140	C	0.520789	0.121996	0.891939
	C141	C	0.503195	0.122146	0.134982
	C142	C	0.520734	0.880729	0.135732
	C143	C	0.504113	0.879859	0.891480
	C144	C	0.388303	0.891519	0.695317
	C145	C	0.637954	0.111625	0.697273
	C146	C	0.637081	0.892924	0.331511
	C147	C	0.386395	0.111210	0.330809
	C148	C	0.696822	0.374106	0.904353
	C149	C	0.694596	0.624515	0.122760
	C150	C	0.328588	0.627093	0.906160
	C151	C	0.330047	0.375791	0.122697
	C152	C	0.903521	0.683249	0.389168
	C153	C	0.122939	0.682251	0.637028
	C154	C	0.903480	0.318024	0.638634
	C155	C	0.122486	0.318373	0.389594
	C156	C	0.903415	0.375075	0.697159
	C157	C	0.121829	0.626586	0.696856
	C158	C	0.904316	0.626904	0.330065
	C159	C	0.122551	0.375801	0.331494
	C160	C	0.387588	0.684034	0.905517
	C161	C	0.636538	0.682694	0.123017
	C162	C	0.638367	0.316698	0.904111
	C163	C	0.388525	0.318262	0.122409
	C164	C	0.694063	0.892117	0.390121
	C165	C	0.694886	0.112093	0.639225
	C166	C	0.331262	0.891219	0.636988
	C167	C	0.329506	0.111505	0.388724
	C168	C	0.887893	0.391918	0.196344
	C169	C	0.137923	0.611328	0.196415
	C170	C	0.137057	0.391373	0.832056
	C171	C	0.886103	0.610974	0.830475
	C172	C	0.194550	0.876539	0.404482
	C173	C	0.197436	0.127824	0.621738
	C174	C	0.830292	0.125398	0.405455
	C175	C	0.829631	0.875542	0.623588
	C176	C	0.402766	0.183766	0.888520
	C177	C	0.621569	0.182940	0.137467
	C178	C	0.401761	0.821093	0.136451
	C179	C	0.622474	0.818840	0.889796
	C180	C	0.402296	0.877519	0.195787
	C181	C	0.620751	0.127115	0.196901
	C182	C	0.403665	0.128198	0.828942
	C183	C	0.621791	0.875161	0.830415
	C184	C	0.888151	0.183549	0.405437
	C185	C	0.139305	0.185522	0.621797
	C186	C	0.136426	0.818970	0.404513
	C187	C	0.888144	0.818094	0.623580
	C188	C	0.194008	0.391165	0.890738
	C189	C	0.195303	0.611264	0.139156
	C190	C	0.831200	0.391061	0.137437
	C191	C	0.829175	0.611083	0.888530
	C192	C	0.418785	0.091981	0.607859
	C193	C	0.607899	0.911081	0.609614
	C194	C	0.607461	0.093362	0.418959
	C195	C	0.417085	0.910625	0.418058
	C196	C	0.608616	0.405309	0.102472
	C197	C	0.608311	0.597237	0.923060
	C198	C	0.416169	0.598048	0.104984
	C199	C	0.417074	0.407244	0.924641
	C200	C	0.103891	0.596595	0.417830
	C201	C	0.921654	0.596215	0.609352
	C202	C	0.102611	0.407337	0.609817
	C203	C	0.922813	0.407620	0.417669
	C204	C	0.917805	0.591747	0.108412
	C205	C	0.108359	0.410408	0.110228
	C206	C	0.106255	0.592210	0.918854
	C207	C	0.917570	0.410519	0.917354
	C208	C	0.109003	0.905970	0.603492
	C209	C	0.107800	0.096124	0.424093
	C210	C	0.916902	0.097192	0.605012
	C211	C	0.915215	0.904883	0.424339
	C212	C	0.602302	0.094646	0.918645
	C213	C	0.421251	0.095585	0.109476
	C214	C	0.603249	0.905826	0.111486
	C215	C	0.422053	0.906310	0.916784
	Zn216	Zn	0.512623	0.001794	0.763108
	Zn217	Zn	0.511413	0.002428	0.264833
	Zn218	Zn	0.763345	0.500799	0.012849
	Zn219	Zn	0.261690	0.501639	0.014264
	Zn220	Zn	0.012960	0.750719	0.513894
	Zn221	Zn	0.012919	0.251775	0.513892
	Zn222	Zn	0.012004	0.501733	0.763955
	Zn223	Zn	0.013663	0.501423	0.263208
	Zn224	Zn	0.512788	0.752128	0.013858
	Zn225	Zn	0.512278	0.250128	0.012977
	Zn226	Zn	0.761741	0.001730	0.515077
	Zn227	Zn	0.263443	0.001234	0.513060
	N228	N	0.425488	0.966304	0.693752
	N229	N	0.600953	0.036608	0.695299
	N230	N	0.599855	0.967769	0.333357
	N231	N	0.423829	0.036448	0.332850
	N232	N	0.694870	0.411798	0.978267
	N233	N	0.693112	0.587960	0.048275
	N234	N	0.329819	0.590662	0.980483
	N235	N	0.331860	0.414068	0.049150
	N236	N	0.977560	0.680707	0.427127
	N237	N	0.048660	0.679784	0.599410
	N238	N	0.977441	0.321201	0.601107
	N239	N	0.048065	0.321161	0.426533
	N240	N	0.977708	0.412908	0.695631
	N241	N	0.046764	0.590232	0.695769
	N242	N	0.978827	0.589558	0.332000
	N243	N	0.048283	0.413791	0.332938
	N244	N	0.425247	0.682192	0.979357
	N245	N	0.599514	0.681543	0.048803
	N246	N	0.600433	0.319304	0.977730
	N247	N	0.425988	0.321064	0.048841
	N248	N	0.691818	0.966576	0.427803
	N249	N	0.692549	0.037623	0.601532
	N250	N	0.333437	0.966031	0.599832
	N251	N	0.332227	0.036990	0.426377
	N252	N	0.924988	0.466667	0.194702
	N253	N	0.100940	0.536549	0.194665
	N254	N	0.099698	0.466253	0.833477
	N255	N	0.923642	0.536386	0.832165
	N256	N	0.193287	0.913859	0.478428
	N257	N	0.194826	0.089736	0.548173
	N258	N	0.831844	0.088568	0.479701
	N259	N	0.830655	0.912761	0.549476
	N260	N	0.476474	0.180099	0.927029
	N261	N	0.547351	0.180181	0.099776
	N262	N	0.476439	0.822677	0.100071
	N263	N	0.548264	0.821541	0.926988
	N264	N	0.477393	0.913720	0.195678
	N265	N	0.546056	0.090247	0.195710
	N266	N	0.478182	0.090631	0.830754
	N267	N	0.547131	0.912452	0.831332
	N268	N	0.924961	0.182282	0.479697
	N269	N	0.100796	0.182669	0.548336
	N270	N	0.099415	0.821057	0.478508
	N271	N	0.925073	0.820016	0.549466
	N272	N	0.191666	0.465858	0.927961
	N273	N	0.193332	0.536440	0.102126
	N274	N	0.833476	0.465368	0.099688
	N275	N	0.831936	0.536364	0.925924
	O276	O	0.597337	0.545539	0.296914
	H277	H	0.579041	0.557228	0.295615
	H278	H	0.600713	0.554948	0.294525
	O279	O	0.450653	0.408489	0.322389
	H280	H	0.467187	0.379434	0.328469
	H281	H	0.460747	0.417438	0.330621
	O282	O	0.425723	0.684720	0.643528
	H283	H	0.441913	0.674757	0.627997
	H284	H	0.425369	0.682758	0.638140
	O285	O	0.688700	0.318438	0.349174
	H286	H	0.697424	0.363514	0.343524
	H287	H	0.674849	0.314997	0.372249
	O288	O	-0.098668	0.124790	0.089120
	H289	H	-0.100447	0.131349	0.094387
	H290	H	-0.104377	0.140038	0.079546
	O291	O	1.067240	0.952841	0.122375
	H292	H	1.073666	0.960737	0.118826
	H293	H	1.053027	0.956496	0.119448
	O294	O	0.021090	1.175083	0.229139
	H295	H	0.027293	1.196222	0.252030
	H296	H	0.040265	1.153871	0.230264
	O297	O	0.809407	0.900007	0.219701
	H298	H	0.802840	0.895273	0.236257
	H299	H	0.814372	0.916726	0.203340
	O300	O	0.731429	0.288466	0.486919
	H301	H	0.733942	0.287209	0.494869
	H302	H	0.749044	0.279319	0.474029
	O303	O	0.394819	0.557582	0.639429
	H304	H	0.416851	0.540853	0.629421
	H305	H	0.397942	0.560138	0.649418
	O306	O	0.217436	0.853755	0.889270
	H307	H	0.211388	0.830414	0.904981
	H308	H	0.228398	0.836410	0.889315
	O309	O	0.553533	0.390494	0.377031
	H310	H	0.567146	0.370373	0.371129
	H311	H	0.579060	0.390502	0.371753
	O312	O	0.216104	0.206692	0.225636
	H313	H	0.207480	0.184596	0.226408
	H314	H	0.227281	0.188617	0.209604
	O315	O	-0.085919	0.049878	1.061732
	H316	H	-0.080601	0.045869	1.078785
	H317	H	-0.099873	0.043827	1.056638
	O318	O	-0.312422	1.663080	0.385006
	H319	H	-0.327974	1.666251	0.386954
	H320	H	-0.312406	1.661141	0.391555
	O321	O	0.051995	1.025612	-0.131622
	H322	H	0.061168	1.035025	-0.112097
	H323	H	0.030877	1.013466	-0.131970
	O324	O	1.018560	0.212953	1.051689
	H325	H	1.021895	0.207815	1.049891
	H326	H	1.016792	0.214533	1.059589
	O327	O	0.868522	0.169324	1.012473
	H328	H	0.864499	0.190315	1.022029
	H329	H	0.878553	0.181235	1.025039
	O330	O	1.025086	-0.199156	0.004866
	H331	H	1.002147	-0.185714	0.008128
	H332	H	1.024685	-0.201877	-0.004038
	O333	O	0.679693	0.680021	0.688433
	H334	H	0.686144	0.648890	0.689053
	H335	H	0.643905	0.676645	0.697412
	O336	O	1.214686	-0.107957	0.955206
	H337	H	1.216478	-0.119896	0.942893
	H338	H	1.211033	-0.097453	0.960478
	O339	O	0.150734	-0.071201	-0.060789
	H340	H	0.144508	-0.076797	-0.069121
	H341	H	0.128392	-0.075474	-0.057758
	O342	O	0.326304	0.316736	0.701785
	H343	H	0.314262	0.300989	0.665392
	H344	H	0.338095	0.332387	0.698830
	O345	O	-0.071484	0.201807	-0.186004
	H346	H	-0.072042	0.202452	-0.211248
	H347	H	-0.032443	0.192301	-0.183681
	O348	O	1.017195	-0.114035	0.816245
	H349	H	1.005454	-0.122101	0.803245
	H350	H	1.013719	-0.117884	0.821919
	O351	O	1.062159	1.085114	-0.016686
	H352	H	1.072027	1.073307	-0.022887
	H353	H	1.062544	1.084384	-0.010614
	O354	O	0.464931	0.593234	0.499173
	H355	H	0.460887	0.585337	0.485282
	H356	H	0.479036	0.598701	0.503081
	O357	O	0.815256	1.191106	0.891689
	H358	H	0.811306	1.213348	0.905529
	H359	H	0.839649	1.191718	0.882166
	O360	O	0.309606	0.704661	0.457065
	H361	H	0.311075	0.682942	0.479122
	H362	H	0.298148	0.710863	0.464980
	O363	O	0.489486	0.335179	0.339849
	H364	H	0.489849	0.326146	0.334906
	H365	H	0.489204	0.316815	0.342530
	O366	O	0.894422	-0.203668	1.215125
	H367	H	0.908016	-0.228403	1.232398
	H368	H	0.888652	-0.173617	1.206896
	O369	O	0.039137	0.854793	0.208460
	H370	H	0.042268	0.852823	0.193840
	H371	H	0.035017	0.849645	0.222201
	O372	O	0.310254	0.706642	0.309913
	H373	H	0.301150	0.714105	0.357456
	H374	H	0.299660	0.658592	0.302729
	O375	O	-0.147841	0.897038	0.899985
	H376	H	-0.157904	0.899620	0.878922
	H377	H	-0.155000	0.910477	0.912352
	O378	O	0.652948	0.560231	0.441937
	H379	H	0.645378	0.586947	0.430196
	H380	H	0.661340	0.567522	0.458842
	O381	O	1.008235	0.168954	-0.039917
	H382	H	1.020297	0.155486	-0.034685
	H383	H	1.023271	0.165145	-0.055849
	O384	O	-0.479717	0.331175	1.552308
	H385	H	-0.474124	0.324899	1.558060
	H386	H	-0.450676	0.330022	1.550797
	O387	O	-0.148520	0.827714	1.034051
	H388	H	-0.158729	0.828827	1.033580
	H389	H	-0.158586	0.825006	1.053103
	O390	O	0.723855	0.564078	0.682081
	H391	H	0.710043	0.553036	0.667481
	H392	H	0.748120	0.576877	0.704575
	O393	O	1.213069	1.027199	0.222840
	H394	H	1.217860	1.009462	0.229998
	H395	H	1.214562	1.009449	0.219231
	O396	O	0.513910	0.642987	0.513755
	H397	H	0.524144	0.651087	0.535558
	H398	H	0.522091	0.638155	0.502287
	O399	O	0.526591	0.673390	0.679170
	H400	H	0.526746	0.682876	0.699019
	H401	H	0.504503	0.663846	0.672473
	O402	O	-0.204796	0.019966	0.798056
	H403	H	-0.234198	0.016166	0.786437
	H404	H	-0.197327	0.047811	0.802023
	O405	O	0.236038	-0.002390	-0.148893
	H406	H	0.249115	0.001913	-0.176160
	H407	H	0.227507	-0.024745	-0.152086
	O408	O	0.534245	0.413823	0.664957
	H409	H	0.539624	0.419368	0.666234
	H410	H	0.520108	0.394035	0.662870
	O411	O	0.170808	0.853952	0.013663
	H412	H	0.166614	0.862916	0.026725
	H413	H	0.188067	0.843043	0.020243
	O414	O	0.492377	0.289376	0.730423
	H415	H	0.489276	0.265776	0.740764
	H416	H	0.469192	0.286521	0.729410
	O417	O	1.014859	-0.095029	0.962462
	H418	H	1.012258	-0.099309	0.945724
	H419	H	1.017956	-0.103683	0.969140
	O420	O	0.531146	0.544132	0.712875
	H421	H	0.531030	0.545676	0.717595
	H422	H	0.535589	0.528060	0.705921
	O423	O	-0.173229	1.018156	0.139713
	H424	H	-0.173713	1.015228	0.130755
	H425	H	-0.174612	1.023435	0.142519
	O426	O	1.034451	0.893454	1.099937
	H427	H	1.034505	0.884013	1.105509
	H428	H	1.013666	0.889132	1.086415
	O429	O	0.695457	0.717785	0.525149
	H430	H	0.686628	0.721058	0.554122
	H431	H	0.701247	0.734920	0.534736
	O432	O	0.512670	0.391639	0.562689
	H433	H	0.504894	0.389125	0.570317
	H434	H	0.509018	0.393949	0.574214
	O435	O	0.012951	-0.104156	-0.124292
	H436	H	-0.012040	-0.122406	-0.118807
	H437	H	0.019663	-0.111533	-0.136546
	O438	O	1.494929	0.500517	0.477865
	H439	H	1.492860	0.520005	0.472876
	H440	H	1.503161	0.510623	0.463891
	O441	O	-0.044538	0.051351	-0.061402
	H442	H	-0.040968	0.040891	-0.054098
	H443	H	-0.043868	0.059014	-0.066046
	O444	O	0.723426	0.451580	0.304090
	H445	H	0.720438	0.473755	0.319817
	H446	H	0.737535	0.458849	0.283414
	O447	O	0.669880	0.409095	0.562847
	H448	H	0.675064	0.426410	0.552590
	H449	H	0.674488	0.395783	0.546147
	O450	O	0.485721	0.722875	0.290393
	H451	H	0.471786	0.753028	0.264513
	H452	H	0.452404	0.722740	0.298618
	O453	O	0.303075	0.290641	0.537824
	H454	H	0.298938	0.304508	0.514839
	H455	H	0.290054	0.274367	0.526801
	O456	O	0.306207	0.507592	0.520076
	H457	H	0.320810	0.502828	0.525015
	H458	H	0.300428	0.496892	0.499851
	O459	O	0.220877	0.210892	0.062623
	H460	H	0.227423	0.212613	0.053813
	H461	H	0.225383	0.210510	0.076726
	O462	O	0.293566	0.477221	0.732122
	H463	H	0.281772	0.482111	0.761498
	H464	H	0.295436	0.451757	0.730917
	O465	O	1.296956	-0.474596	-0.702845
	H466	H	1.338803	-0.501663	-0.709365
	H467	H	1.267146	-0.477552	-0.741717
