data_Molecule from HDF5

_cell_length_a		16.301596
_cell_length_b		16.341004
_cell_length_c		16.282929
_cell_angle_alpha	90.049416
_cell_angle_beta	90.019650
_cell_angle_gamma	89.977179
_symmetry_space_group_name_H-M	'P 1'
_symmetry_Int_Tables_number		1

loop_
	_symmetry_equiv_pos_as_xyz
	x,y,z

loop_
	_atom_site_label
	_atom_site_type_symbol
	_atom_site_fract_x
	_atom_site_fract_y
	_atom_site_fract_z
	H0	H	0.402144	0.836056	0.713522
	H1	H	0.598159	0.162831	0.714062
	H2	H	0.598109	0.836265	0.285444
	H3	H	0.402490	0.163565	0.285930
	H4	H	0.713580	0.401897	0.836343
	H5	H	0.714925	0.597672	0.163842
	H6	H	0.285087	0.598101	0.836298
	H7	H	0.285830	0.403012	0.163588
	H8	H	0.835950	0.714061	0.402277
	H9	H	0.162985	0.715394	0.599368
	H10	H	0.835900	0.286340	0.597437
	H11	H	0.164300	0.286780	0.403021
	H12	H	0.835881	0.402732	0.713670
	H13	H	0.164345	0.597646	0.713925
	H14	H	0.836640	0.598752	0.284685
	H15	H	0.164224	0.402514	0.286034
	H16	H	0.402939	0.713430	0.836291
	H17	H	0.597741	0.713382	0.164597
	H18	H	0.598850	0.285266	0.836547
	H19	H	0.402382	0.285802	0.163700
	H20	H	0.714668	0.836810	0.401336
	H21	H	0.714550	0.162977	0.597956
	H22	H	0.284565	0.836548	0.597620
	H23	H	0.284227	0.163169	0.401399
	H24	H	0.902163	0.336959	0.214302
	H25	H	0.096409	0.663621	0.213687
	H26	H	0.097679	0.337295	0.785762
	H27	H	0.902297	0.663927	0.786139
	H28	H	0.213153	0.902599	0.336245
	H29	H	0.213307	0.097545	0.664068
	H30	H	0.785820	0.097446	0.336085
	H31	H	0.785670	0.902540	0.663973
	H32	H	0.336886	0.215501	0.901428
	H33	H	0.663584	0.215065	0.099060
	H34	H	0.336346	0.785830	0.097814
	H35	H	0.663874	0.785964	0.902440
	H36	H	0.336593	0.902118	0.214224
	H37	H	0.664170	0.097300	0.213266
	H38	H	0.336463	0.098525	0.785487
	H39	H	0.664681	0.902954	0.786865
	H40	H	0.901106	0.215041	0.336458
	H41	H	0.098013	0.213355	0.663822
	H42	H	0.098625	0.785142	0.337113
	H43	H	0.901896	0.786218	0.663993
	H44	H	0.214235	0.337150	0.901569
	H45	H	0.214116	0.663692	0.098630
	H46	H	0.786785	0.336113	0.096902
	H47	H	0.785580	0.663383	0.902773
	H48	H	0.401437	0.118150	0.596080
	H49	H	0.595488	0.879490	0.604942
	H50	H	0.593092	0.119471	0.394426
	H51	H	0.409353	0.886382	0.411500
	H52	H	0.595843	0.414912	0.115224
	H53	H	0.592211	0.587083	0.886885
	H54	H	0.410355	0.591203	0.115345
	H55	H	0.414159	0.411280	0.886940
	H56	H	0.116125	0.591656	0.405799
	H57	H	0.884214	0.596316	0.589219
	H58	H	0.115854	0.406791	0.593166
	H59	H	0.878627	0.399959	0.394033
	H60	H	0.116825	0.406205	0.595186
	H61	H	0.885570	0.588307	0.593645
	H62	H	0.116406	0.594887	0.407501
	H63	H	0.885014	0.398341	0.419479
	H64	H	0.407191	0.597332	0.117596
	H65	H	0.588968	0.598882	0.883493
	H66	H	0.585258	0.403287	0.115273
	H67	H	0.407190	0.398471	0.881420
	H68	H	0.582277	0.110666	0.411095
	H69	H	0.582406	0.887794	0.590115
	H70	H	0.411166	0.115492	0.595933
	H71	H	0.400431	0.882977	0.406729
	H72	H	0.918236	0.615682	0.101450
	H73	H	0.094056	0.383529	0.093844
	H74	H	0.098118	0.615609	0.915653
	H75	H	0.906561	0.383518	0.903596
	H76	H	0.095107	0.904140	0.618271
	H77	H	0.085858	0.093313	0.385182
	H78	H	0.908798	0.099210	0.617646
	H79	H	0.904569	0.900852	0.381591
	H80	H	0.615945	0.096190	0.909771
	H81	H	0.383991	0.093427	0.092536
	H82	H	0.616856	0.896990	0.086009
	H83	H	0.382116	0.900574	0.905845
	H84	H	0.612152	0.916890	0.088810
	H85	H	0.384747	0.093840	0.092743
	H86	H	0.614632	0.089503	0.907133
	H87	H	0.386402	0.907903	0.913210
	H88	H	0.900293	0.090787	0.616996
	H89	H	0.095804	0.099587	0.380980
	H90	H	0.094406	0.911743	0.616185
	H91	H	0.903113	0.911334	0.384041
	H92	H	0.098525	0.620136	0.898825
	H93	H	0.090825	0.385019	0.093077
	H94	H	0.908311	0.611745	0.079355
	H95	H	0.908963	0.385427	0.907907
	H96	H	0.405785	0.113984	0.587582
	H97	H	0.602680	0.883125	0.584974
	H98	H	0.603413	0.116681	0.413901
	H99	H	0.409731	0.883585	0.401398
	H100	H	0.600239	0.400335	0.120528
	H101	H	0.600388	0.595048	0.881215
	H102	H	0.403254	0.591358	0.117142
	H103	H	0.399384	0.411897	0.882409
	H104	H	0.115195	0.592068	0.409000
	H105	H	0.882266	0.595734	0.598354
	H106	H	0.116518	0.404705	0.593658
	H107	H	0.888665	0.421254	0.406359
	H108	H	0.894286	0.620607	0.097700
	H109	H	0.093345	0.385358	0.090432
	H110	H	0.083993	0.614124	0.905593
	H111	H	0.903708	0.384024	0.907961
	H112	H	0.088772	0.906708	0.615505
	H113	H	0.096770	0.087784	0.384386
	H114	H	0.911401	0.088603	0.613506
	H115	H	0.912844	0.906458	0.385342
	H116	H	0.618275	0.094579	0.902859
	H117	H	0.383350	0.093731	0.092274
	H118	H	0.620171	0.905954	0.104428
	H119	H	0.384025	0.911039	0.902179
	C120	C	0.377946	0.007877	0.621375
	C121	C	0.621643	0.991248	0.621554
	C122	C	0.621630	0.008053	0.378119
	C123	C	0.378096	0.991942	0.378162
	C124	C	0.621540	0.378393	0.008417
	C125	C	0.621755	0.621584	0.992151
	C126	C	0.378782	0.621206	0.008338
	C127	C	0.378701	0.378677	0.991728
	C128	C	0.007748	0.621170	0.378683
	C129	C	0.992110	0.621636	0.621792
	C130	C	0.007995	0.377875	0.621903
	C131	C	0.992217	0.378606	0.378654
	C132	C	0.878362	0.508272	0.121358
	C133	C	0.121667	0.492181	0.121562
	C134	C	0.121667	0.508529	0.878276
	C135	C	0.878161	0.492005	0.878318
	C136	C	0.120961	0.879151	0.508271
	C137	C	0.121385	0.121528	0.491641
	C138	C	0.878385	0.121637	0.508086
	C139	C	0.878266	0.878310	0.491983
	C140	C	0.508304	0.121775	0.878200
	C141	C	0.492124	0.121721	0.121178
	C142	C	0.508581	0.878260	0.121777
	C143	C	0.492208	0.877921	0.878216
	C144	C	0.380913	0.884833	0.675904
	C145	C	0.618634	0.114242	0.676167
	C146	C	0.618719	0.885082	0.323481
	C147	C	0.381232	0.114861	0.323327
	C148	C	0.675836	0.381394	0.885029
	C149	C	0.676913	0.618403	0.115321
	C150	C	0.323242	0.618772	0.885050
	C151	C	0.323405	0.381526	0.114733
	C152	C	0.884954	0.676233	0.381540
	C153	C	0.114808	0.676821	0.619355
	C154	C	0.884946	0.323573	0.618578
	C155	C	0.115400	0.324266	0.381943
	C156	C	0.884611	0.381587	0.676057
	C157	C	0.115326	0.618292	0.676280
	C158	C	0.884846	0.618624	0.323471
	C159	C	0.115324	0.381746	0.323808
	C160	C	0.381523	0.675984	0.885026
	C161	C	0.618740	0.675868	0.115499
	C162	C	0.618920	0.323474	0.885268
	C163	C	0.381149	0.323451	0.114670
	C164	C	0.676824	0.885428	0.380903
	C165	C	0.676545	0.114218	0.618694
	C166	C	0.322766	0.884992	0.618327
	C167	C	0.323105	0.114717	0.380956
	C168	C	0.881495	0.385408	0.176219
	C169	C	0.118352	0.614881	0.176561
	C170	C	0.118802	0.385871	0.823522
	C171	C	0.881279	0.615049	0.823835
	C172	C	0.176083	0.881222	0.385365
	C173	C	0.175843	0.118294	0.615078
	C174	C	0.823890	0.118025	0.384746
	C175	C	0.823813	0.882008	0.615356
	C176	C	0.385356	0.177084	0.881172
	C177	C	0.615110	0.176638	0.118961
	C178	C	0.385341	0.823441	0.118823
	C179	C	0.614831	0.822870	0.880835
	C180	C	0.385344	0.881283	0.176383
	C181	C	0.614899	0.118663	0.176166
	C182	C	0.385174	0.119004	0.823533
	C183	C	0.615419	0.881359	0.823719
	C184	C	0.880773	0.176826	0.385085
	C185	C	0.118156	0.175549	0.615206
	C186	C	0.118685	0.823406	0.385636
	C187	C	0.881064	0.823849	0.615308
	C188	C	0.176553	0.385936	0.881052
	C189	C	0.176572	0.614961	0.119205
	C190	C	0.823914	0.385073	0.118178
	C191	C	0.823404	0.614921	0.881583
	C192	C	0.399664	0.093708	0.599654
	C193	C	0.600040	0.905519	0.599796
	C194	C	0.599437	0.093672	0.399946
	C195	C	0.399898	0.906359	0.400171
	C196	C	0.600260	0.399984	0.094729
	C197	C	0.600289	0.599847	0.906042
	C198	C	0.400574	0.599644	0.094443
	C199	C	0.400530	0.400628	0.905648
	C200	C	0.093747	0.599313	0.400987
	C201	C	0.906140	0.599905	0.600077
	C202	C	0.094265	0.399442	0.600406
	C203	C	0.906218	0.400304	0.400331
	C204	C	0.900383	0.593866	0.099360
	C205	C	0.099364	0.406597	0.098995
	C206	C	0.099903	0.594466	0.900075
	C207	C	0.899972	0.406443	0.899999
	C208	C	0.099062	0.901153	0.594460
	C209	C	0.099377	0.099924	0.405734
	C210	C	0.900574	0.099639	0.593936
	C211	C	0.900293	0.900054	0.405779
	C212	C	0.594069	0.099946	0.900131
	C213	C	0.406165	0.099990	0.098997
	C214	C	0.594371	0.900161	0.099671
	C215	C	0.406248	0.900134	0.900487
	Zn216	Zn	0.499776	-0.000337	0.749657
	Zn217	Zn	0.499994	-0.000107	0.249559
	Zn218	Zn	0.749924	0.499546	-0.000220
	Zn219	Zn	0.250044	0.500526	0.000097
	Zn220	Zn	-0.000336	0.750206	0.500626
	Zn221	Zn	0.000434	0.249932	0.500163
	Zn222	Zn	-0.000073	0.499891	0.750034
	Zn223	Zn	-0.000038	0.499925	0.249783
	Zn224	Zn	0.500284	0.749821	0.000321
	Zn225	Zn	0.501006	0.250358	-0.000048
	Zn226	Zn	0.749952	-0.000166	0.499842
	Zn227	Zn	0.249263	0.000094	0.499895
	N228	N	0.414527	0.962081	0.677703
	N229	N	0.585282	0.036920	0.678102
	N230	N	0.585115	0.962250	0.321715
	N231	N	0.414793	0.037576	0.321611
	N232	N	0.677777	0.414744	0.962706
	N233	N	0.678868	0.585255	0.037482
	N234	N	0.321461	0.585588	0.962702
	N235	N	0.321906	0.415147	0.037379
	N236	N	0.962469	0.677884	0.415381
	N237	N	0.037124	0.679133	0.586357
	N238	N	0.962779	0.321179	0.585918
	N239	N	0.037776	0.321892	0.415038
	N240	N	0.962212	0.414561	0.678217
	N241	N	0.037910	0.584756	0.677990
	N242	N	0.962346	0.585375	0.321651
	N243	N	0.037766	0.415042	0.321970
	N244	N	0.415214	0.677664	0.962553
	N245	N	0.585295	0.677816	0.038010
	N246	N	0.585894	0.321698	0.962915
	N247	N	0.414836	0.321556	0.037079
	N248	N	0.678493	0.962850	0.414496
	N249	N	0.678443	0.036888	0.585313
	N250	N	0.320883	0.962426	0.585066
	N251	N	0.321131	0.037420	0.414383
	N252	N	0.914430	0.462898	0.178273
	N253	N	0.084861	0.537582	0.177907
	N254	N	0.085234	0.463119	0.821758
	N255	N	0.914452	0.537581	0.821541
	N256	N	0.177346	0.915358	0.462659
	N257	N	0.178042	0.085336	0.537354
	N258	N	0.822230	0.084598	0.462164
	N259	N	0.822125	0.915158	0.537610
	N260	N	0.463062	0.178827	0.914518
	N261	N	0.537648	0.178818	0.085487
	N262	N	0.462981	0.821533	0.085418
	N263	N	0.537251	0.820846	0.914106
	N264	N	0.462784	0.914517	0.178246
	N265	N	0.537502	0.085175	0.177572
	N266	N	0.462411	0.085240	0.821619
	N267	N	0.537931	0.914934	0.822049
	N268	N	0.913924	0.179165	0.462898
	N269	N	0.085179	0.177755	0.537497
	N270	N	0.085114	0.822028	0.463182
	N271	N	0.914284	0.821540	0.537544
	N272	N	0.178258	0.463321	0.914433
	N273	N	0.178321	0.537684	0.085481
	N274	N	0.821701	0.462431	0.084986
	N275	N	0.821455	0.537546	0.914770
