data_Molecule from HDF5

_cell_length_a		16.455670
_cell_length_b		16.409752
_cell_length_c		16.354851
_cell_angle_alpha	90.152131
_cell_angle_beta	89.973974
_cell_angle_gamma	89.897872
_symmetry_space_group_name_H-M	'P 1'
_symmetry_Int_Tables_number		1

loop_
	_symmetry_equiv_pos_as_xyz
	x,y,z

loop_
	_atom_site_label
	_atom_site_type_symbol
	_atom_site_fract_x
	_atom_site_fract_y
	_atom_site_fract_z
	H0	H	0.388675	0.832900	0.730277
	H1	H	0.597232	0.150504	0.729263
	H2	H	0.599210	0.832985	0.286184
	H3	H	0.386588	0.149658	0.286721
	H4	H	0.716050	0.384671	0.851276
	H5	H	0.715297	0.600749	0.166855
	H6	H	0.270316	0.597192	0.849516
	H7	H	0.269189	0.383144	0.166681
	H8	H	0.833771	0.712469	0.404558
	H9	H	0.150578	0.714551	0.616257
	H10	H	0.834661	0.270157	0.615515
	H11	H	0.150785	0.268364	0.402168
	H12	H	0.834739	0.387481	0.731099
	H13	H	0.150286	0.600161	0.733526
	H14	H	0.834518	0.597698	0.287903
	H15	H	0.150513	0.383732	0.285254
	H16	H	0.387221	0.711954	0.848101
	H17	H	0.599756	0.716139	0.166539
	H18	H	0.599029	0.270344	0.850383
	H19	H	0.386433	0.269248	0.166794
	H20	H	0.716753	0.834501	0.400225
	H21	H	0.714751	0.149656	0.615816
	H22	H	0.271749	0.832289	0.615624
	H23	H	0.269390	0.148948	0.402234
	H24	H	0.886969	0.334449	0.230723
	H25	H	0.098916	0.650895	0.231486
	H26	H	0.098886	0.333274	0.786576
	H27	H	0.887506	0.651088	0.788897
	H28	H	0.215412	0.883975	0.350140
	H29	H	0.214038	0.097196	0.667337
	H30	H	0.768495	0.100676	0.350811
	H31	H	0.770244	0.886260	0.667355
	H32	H	0.334232	0.212179	0.905057
	H33	H	0.650197	0.215859	0.117137
	H34	H	0.335692	0.769760	0.114386
	H35	H	0.650938	0.769771	0.901238
	H36	H	0.334352	0.885697	0.229234
	H37	H	0.650343	0.097302	0.230947
	H38	H	0.334556	0.096941	0.788126
	H39	H	0.651912	0.889169	0.788365
	H40	H	0.883953	0.216495	0.351226
	H41	H	0.096348	0.212480	0.668055
	H42	H	0.100215	0.767642	0.350371
	H43	H	0.887745	0.771998	0.668717
	H44	H	0.215037	0.333130	0.901849
	H45	H	0.216979	0.649238	0.118031
	H46	H	0.768928	0.335470	0.118114
	H47	H	0.768205	0.649474	0.900898
	H48	H	0.400012	0.105713	0.597679
	H49	H	0.585662	0.877540	0.596107
	H50	H	0.580180	0.103929	0.420077
	H51	H	0.401040	0.877884	0.420456
	H52	H	0.581425	0.406847	0.121943
	H53	H	0.579085	0.581885	0.894865
	H54	H	0.403816	0.579861	0.121613
	H55	H	0.409164	0.399213	0.896026
	H56	H	0.107836	0.585707	0.421509
	H57	H	0.880765	0.577104	0.601231
	H58	H	0.105906	0.397750	0.592599
	H59	H	0.882369	0.402845	0.425715
	H60	H	0.101617	0.409032	0.593779
	H61	H	0.877663	0.585576	0.600866
	H62	H	0.102591	0.576799	0.425096
	H63	H	0.880929	0.407344	0.417242
	H64	H	0.405867	0.578975	0.119953
	H65	H	0.583651	0.578486	0.894623
	H66	H	0.578724	0.402661	0.122414
	H67	H	0.399155	0.400290	0.892537
	H68	H	0.580381	0.104268	0.421609
	H69	H	0.580348	0.878512	0.599025
	H70	H	0.404440	0.104255	0.599008
	H71	H	0.404045	0.877014	0.416283
	H72	H	0.903700	0.605865	0.096687
	H73	H	0.082780	0.375282	0.104854
	H74	H	0.080687	0.604065	0.920555
	H75	H	0.907638	0.382130	0.925723
	H76	H	0.078827	0.902248	0.621578
	H77	H	0.082185	0.080277	0.393843
	H78	H	0.907104	0.075827	0.619311
	H79	H	0.905189	0.902585	0.395686
	H80	H	0.604005	0.079826	0.924337
	H81	H	0.380284	0.075075	0.102301
	H82	H	0.607748	0.904561	0.102379
	H83	H	0.380393	0.901114	0.921779
	H84	H	0.606229	0.898268	0.092375
	H85	H	0.377359	0.088060	0.098794
	H86	H	0.607358	0.077219	0.914243
	H87	H	0.381195	0.905802	0.919174
	H88	H	0.906416	0.085044	0.622164
	H89	H	0.081097	0.077106	0.396778
	H90	H	0.083113	0.901543	0.622865
	H91	H	0.904429	0.902578	0.395641
	H92	H	0.081624	0.604752	0.923276
	H93	H	0.072733	0.383454	0.094141
	H94	H	0.904021	0.606051	0.098564
	H95	H	0.897784	0.376864	0.922432
	H96	H	0.402911	0.103733	0.594613
	H97	H	0.581328	0.879992	0.593619
	H98	H	0.581262	0.104079	0.421181
	H99	H	0.405808	0.878833	0.420600
	H100	H	0.583466	0.403234	0.123798
	H101	H	0.578914	0.576590	0.897115
	H102	H	0.406280	0.581062	0.120666
	H103	H	0.404080	0.408326	0.896737
	H104	H	0.106312	0.576868	0.415482
	H105	H	0.881925	0.582333	0.593550
	H106	H	0.107003	0.403504	0.603481
	H107	H	0.877900	0.398394	0.417805
	H108	H	0.905287	0.604543	0.097092
	H109	H	0.088059	0.379195	0.090072
	H110	H	0.083040	0.605445	0.921182
	H111	H	0.906890	0.377743	0.915407
	H112	H	0.082054	0.905706	0.621682
	H113	H	0.078494	0.080136	0.395779
	H114	H	0.898295	0.079438	0.623487
	H115	H	0.905388	0.903438	0.394914
	H116	H	0.609120	0.087450	0.918062
	H117	H	0.382927	0.079678	0.089351
	H118	H	0.602907	0.909609	0.092768
	H119	H	0.378543	0.901648	0.916275
	C120	C	0.371109	-0.000406	0.629991
	C121	C	0.614377	0.983248	0.629623
	C122	C	0.614305	-0.000201	0.386887
	C123	C	0.370787	0.982754	0.386666
	C124	C	0.614202	0.371104	0.017890
	C125	C	0.613688	0.613423	1.000048
	C126	C	0.371789	0.612843	0.016129
	C127	C	0.371356	0.370155	0.999921
	C128	C	0.000826	0.612612	0.388416
	C129	C	0.984222	0.614319	0.631625
	C130	C	0.000701	0.371347	0.629671
	C131	C	0.984254	0.369261	0.386273
	C132	C	0.871431	0.501235	0.130541
	C133	C	0.114249	0.483881	0.130320
	C134	C	0.114584	0.500074	0.887929
	C135	C	0.871090	0.483498	0.888011
	C136	C	0.114648	0.869368	0.517538
	C137	C	0.113233	0.111975	0.500298
	C138	C	0.870598	0.113361	0.517355
	C139	C	0.872243	0.871042	0.500620
	C140	C	0.501842	0.113564	0.887075
	C141	C	0.484174	0.113948	0.130369
	C142	C	0.501588	0.870766	0.128803
	C143	C	0.484333	0.870392	0.886317
	C144	C	0.369556	0.880372	0.690503
	C145	C	0.615793	0.102700	0.689697
	C146	C	0.617077	0.880737	0.326235
	C147	C	0.368321	0.101942	0.326460
	C148	C	0.675700	0.366913	0.899017
	C149	C	0.674880	0.617719	0.119227
	C150	C	0.310709	0.615366	0.897053
	C151	C	0.309794	0.366260	0.119013
	C152	C	0.881583	0.672985	0.386041
	C153	C	0.103145	0.674620	0.634320
	C154	C	0.881772	0.310985	0.632842
	C155	C	0.103155	0.308322	0.383551
	C156	C	0.881935	0.369314	0.690499
	C157	C	0.102733	0.617648	0.692892
	C158	C	0.881736	0.615490	0.328145
	C159	C	0.103149	0.366276	0.325820
	C160	C	0.369115	0.672509	0.896308
	C161	C	0.617543	0.675574	0.118933
	C162	C	0.617117	0.310101	0.898314
	C163	C	0.368403	0.309526	0.119194
	C164	C	0.676013	0.881678	0.382814
	C165	C	0.674533	0.102295	0.633256
	C166	C	0.311614	0.880066	0.633038
	C167	C	0.309904	0.101641	0.384015
	C168	C	0.868639	0.382159	0.191178
	C169	C	0.117112	0.602887	0.191770
	C170	C	0.116952	0.380919	0.826989
	C171	C	0.868906	0.603082	0.828246
	C172	C	0.175456	0.865889	0.398064
	C173	C	0.173901	0.115204	0.619931
	C174	C	0.808818	0.117829	0.398417
	C175	C	0.811104	0.868724	0.619938
	C176	C	0.382107	0.172814	0.885869
	C177	C	0.602582	0.175211	0.134633
	C178	C	0.382552	0.810147	0.131867
	C179	C	0.603666	0.810270	0.883442
	C180	C	0.381984	0.868214	0.188917
	C181	C	0.602897	0.116280	0.191309
	C182	C	0.382260	0.115189	0.827937
	C183	C	0.604073	0.869508	0.827003
	C184	C	0.866732	0.175415	0.398657
	C185	C	0.115170	0.172302	0.620273
	C186	C	0.118134	0.807835	0.398121
	C187	C	0.869596	0.811793	0.620846
	C188	C	0.174977	0.380645	0.884239
	C189	C	0.175790	0.602193	0.135019
	C190	C	0.809522	0.382903	0.134988
	C191	C	0.809402	0.602231	0.883877
	C192	C	0.395415	0.082757	0.604508
	C193	C	0.589567	0.900249	0.603785
	C194	C	0.588070	0.082592	0.413218
	C195	C	0.396327	0.899539	0.411950
	C196	C	0.588416	0.396872	0.101008
	C197	C	0.587877	0.586810	0.917240
	C198	C	0.397817	0.587268	0.099092
	C199	C	0.396678	0.395543	0.916709
	C200	C	0.083827	0.587152	0.413624
	C201	C	0.901553	0.588914	0.605947
	C202	C	0.083360	0.396281	0.603813
	C203	C	0.901683	0.395333	0.412482
	C204	C	0.897116	0.583844	0.104696
	C205	C	0.088584	0.401009	0.104028
	C206	C	0.089246	0.583086	0.914438
	C207	C	0.896566	0.400707	0.913828
	C208	C	0.088876	0.895621	0.600541
	C209	C	0.087931	0.086326	0.417120
	C210	C	0.896513	0.087391	0.600130
	C211	C	0.897688	0.895848	0.417201
	C212	C	0.585056	0.088784	0.911842
	C213	C	0.401669	0.088386	0.104274
	C214	C	0.583934	0.896736	0.103231
	C215	C	0.401692	0.895558	0.911817
	Zn216	Zn	0.493117	-0.007954	0.757659
	Zn217	Zn	0.492661	-0.008934	0.258074
	Zn218	Zn	0.742624	0.493026	0.009227
	Zn219	Zn	0.242870	0.491666	0.009035
	Zn220	Zn	-0.007502	0.742010	0.509068
	Zn221	Zn	-0.007477	0.241502	0.508873
	Zn222	Zn	-0.006979	0.492019	0.759660
	Zn223	Zn	-0.007132	0.492523	0.258874
	Zn224	Zn	0.492812	0.742044	0.007929
	Zn225	Zn	0.492985	0.242064	0.008616
	Zn226	Zn	0.742783	-0.008137	0.508714
	Zn227	Zn	0.242477	-0.009131	0.508897
	N228	N	0.405954	0.955536	0.688530
	N229	N	0.579069	0.027737	0.687307
	N230	N	0.579330	0.955524	0.328732
	N231	N	0.405348	0.026874	0.327958
	N232	N	0.674297	0.403922	0.974456
	N233	N	0.672608	0.579688	0.044217
	N234	N	0.312258	0.578997	0.972513
	N235	N	0.311485	0.403191	0.043743
	N236	N	0.956843	0.671444	0.422627
	N237	N	0.028414	0.672794	0.597020
	N238	N	0.956634	0.312323	0.595498
	N239	N	0.027997	0.309965	0.420314
	N240	N	0.956759	0.406092	0.688634
	N241	N	0.027833	0.580813	0.691296
	N242	N	0.956855	0.578835	0.329408
	N243	N	0.028036	0.403126	0.327140
	N244	N	0.406392	0.671247	0.971553
	N245	N	0.580242	0.672948	0.043846
	N246	N	0.579845	0.312227	0.973431
	N247	N	0.406069	0.311803	0.044328
	N248	N	0.674353	0.956890	0.419674
	N249	N	0.673942	0.026880	0.596636
	N250	N	0.312355	0.955327	0.596257
	N251	N	0.311557	0.026509	0.420689
	N252	N	0.906303	0.456672	0.188591
	N253	N	0.079779	0.527961	0.189078
	N254	N	0.080423	0.456368	0.828842
	N255	N	0.906585	0.528175	0.830667
	N256	N	0.173537	0.903398	0.473310
	N257	N	0.172881	0.078496	0.544364
	N258	N	0.811159	0.079873	0.473270
	N259	N	0.812630	0.904862	0.544163
	N260	N	0.457576	0.171973	0.921812
	N261	N	0.527607	0.173909	0.097547
	N262	N	0.457762	0.811512	0.095403
	N263	N	0.528100	0.810237	0.919161
	N264	N	0.457005	0.905018	0.187456
	N265	N	0.528232	0.079039	0.188985
	N266	N	0.457709	0.079163	0.828414
	N267	N	0.528973	0.906075	0.828558
	N268	N	0.904244	0.172986	0.473558
	N269	N	0.078339	0.170533	0.544936
	N270	N	0.080737	0.810145	0.473347
	N271	N	0.906935	0.813248	0.545719
	N272	N	0.173771	0.455996	0.921103
	N273	N	0.174282	0.527137	0.097685
	N274	N	0.811158	0.457875	0.097734
	N275	N	0.810526	0.526876	0.920427
	O276	O	0.563435	0.292809	0.589508
	H277	H	0.561553	0.299241	0.585242
	H278	H	0.566125	0.298307	0.590769
	O279	O	0.466469	0.316122	0.723165
	H280	H	0.475905	0.320771	0.709981
	H281	H	0.466580	0.296958	0.747126
	O282	O	-0.043406	1.062781	-0.119593
	H283	H	-0.018846	1.041943	-0.126305
	H284	H	-0.071565	1.059730	-0.105252
	O285	O	0.997669	1.008416	0.072412
	H286	H	0.996460	1.005269	0.071007
	H287	H	1.002403	0.988809	0.081291
	O288	O	0.828805	1.005248	1.210848
	H289	H	0.818005	1.013166	1.237456
	H290	H	0.856653	1.017977	1.223403
	O291	O	0.324983	0.549031	0.669220
	H292	H	0.317476	0.543679	0.683291
	H293	H	0.329792	0.514914	0.681315
	O294	O	1.146797	1.073734	1.191178
	H295	H	1.166979	1.048239	1.200507
	H296	H	1.125921	1.078819	1.189917
	O297	O	-0.200246	0.788692	0.014827
	H298	H	-0.213186	0.780868	0.015454
	H299	H	-0.206019	0.796522	0.021700
	O300	O	0.474831	0.592152	0.546972
	H301	H	0.477459	0.603805	0.551510
	H302	H	0.462868	0.584711	0.545654
	O303	O	0.468866	0.694181	0.315631
	H304	H	0.474028	0.706316	0.301319
	H305	H	0.489639	0.674290	0.319214
	O306	O	0.200752	-0.031601	0.807739
	H307	H	0.207522	-0.027251	0.813008
	H308	H	0.215662	-0.026669	0.802631
	O309	O	1.201382	0.051654	0.067868
	H310	H	1.198033	0.062880	0.070347
	H311	H	1.203952	0.030717	0.048113
	O312	O	0.683979	0.459489	0.341860
	H313	H	0.675105	0.419278	0.354479
	H314	H	0.707627	0.449295	0.310733
	O315	O	0.314905	0.394032	0.664878
	H316	H	0.310824	0.395893	0.628192
	H317	H	0.352453	0.376626	0.678650
	O318	O	0.296858	0.505829	0.292322
	H319	H	0.281548	0.531213	0.282565
	H320	H	0.287259	0.537581	0.283958
	O321	O	0.526686	0.282149	0.298905
	H322	H	0.504909	0.305091	0.283544
	H323	H	0.529074	0.268988	0.267289
	O324	O	0.695914	0.288935	0.488959
	H325	H	0.711177	0.265499	0.496400
	H326	H	0.700593	0.319311	0.506753
	O327	O	0.628259	0.682229	0.696188
	H328	H	0.635841	0.687791	0.699564
	H329	H	0.606371	0.677725	0.683732
	O330	O	-0.075220	0.952367	0.840667
	H331	H	-0.067818	0.960965	0.843190
	H332	H	-0.061548	0.941518	0.843693
	O333	O	-0.617693	1.378177	0.589022
	H334	H	-0.627785	1.382892	0.586317
	H335	H	-0.608773	1.378952	0.573744
	O336	O	0.860038	0.869400	0.154624
	H337	H	0.852320	0.873778	0.136282
	H338	H	0.858486	0.892642	0.163044
	O339	O	-0.019576	0.825549	0.838902
	H340	H	-0.034342	0.830344	0.866366
	H341	H	-0.018023	0.809678	0.837057
	O342	O	0.060390	1.000420	0.015889
	H343	H	0.075135	1.010871	0.022270
	H344	H	0.069591	1.000220	-0.006916
	O345	O	-0.151988	0.160868	0.827348
	H346	H	-0.161432	0.140507	0.851257
	H347	H	-0.158935	0.153041	0.839042
	O348	O	0.494429	0.396084	0.437155
	H349	H	0.501949	0.394002	0.422676
	H350	H	0.509880	0.418231	0.439095
	O351	O	1.008743	0.864545	-0.005453
	H352	H	0.980124	0.861637	0.008331
	H353	H	1.022107	0.863668	0.004562
	O354	O	0.808737	1.153440	1.018835
	H355	H	0.810420	1.159563	1.025400
	H356	H	0.812128	1.162914	1.021895
	O357	O	-0.126231	0.029526	0.062411
	H358	H	-0.109378	0.029653	0.066882
	H359	H	-0.121015	0.050566	0.059610
	O360	O	0.453232	0.449221	0.296256
	H361	H	0.459621	0.475496	0.305415
	H362	H	0.425462	0.466768	0.288459
	O363	O	0.783452	-0.068241	0.040312
	H364	H	0.777781	-0.047321	0.039467
	H365	H	0.791996	-0.061673	0.061241
	O366	O	-0.026091	-0.209146	1.203390
	H367	H	-0.044827	-0.209243	1.194211
	H368	H	-0.022618	-0.220341	1.223497
	O369	O	0.983151	-0.051042	1.034721
	H370	H	0.982330	-0.050255	1.025207
	H371	H	0.975708	-0.058106	1.042923
	O372	O	0.918587	0.156607	0.096614
	H373	H	0.940321	0.161641	0.094296
	H374	H	0.919614	0.137789	0.096529
	O375	O	0.180228	-0.957944	0.063009
	H376	H	0.190642	-0.965735	0.051480
	H377	H	0.171694	-0.959121	0.071715
	O378	O	0.489688	0.662996	0.706886
	H379	H	0.494605	0.649569	0.707366
	H380	H	0.481418	0.671652	0.711234
	O381	O	-0.067294	1.195120	-0.194434
	H382	H	-0.078918	1.205611	-0.206818
	H383	H	-0.085239	1.186886	-0.195381
	O384	O	0.321262	0.410112	0.536813
	H385	H	0.317514	0.410000	0.523084
	H386	H	0.322960	0.395319	0.520418
	O387	O	0.607523	0.485316	0.663392
	H388	H	0.618604	0.499046	0.674481
	H389	H	0.587103	0.491978	0.673055
	O390	O	0.890669	0.897438	-0.183182
	H391	H	0.896889	0.896493	-0.191908
	H392	H	0.890319	0.898368	-0.199440
	O393	O	1.314245	0.652478	0.328825
	H394	H	1.361641	0.664707	0.322419
	H395	H	1.303711	0.662346	0.376406
	O396	O	0.522409	0.486415	0.491131
	H397	H	0.546233	0.480632	0.487536
	H398	H	0.505691	0.495410	0.502498
	O399	O	0.674743	0.332050	0.332471
	H400	H	0.677008	0.320748	0.373669
	H401	H	0.641613	0.313798	0.324449
	O402	O	1.188061	0.778439	-0.003124
	H403	H	1.193615	0.777356	-0.028795
	H404	H	1.195689	0.764386	-0.019530
	O405	O	0.576170	0.544915	0.333037
	H406	H	0.603416	0.525372	0.329790
	H407	H	0.582271	0.539373	0.349606
	O408	O	0.498726	0.495385	0.684564
	H409	H	0.476707	0.490303	0.691572
	H410	H	0.486624	0.485235	0.668947
	O411	O	1.018493	1.206870	1.226560
	H412	H	1.021736	1.244745	1.258224
	H413	H	1.040101	1.207421	1.203750
	O414	O	1.004715	0.145084	1.049685
	H415	H	1.012505	0.153083	1.073271
	H416	H	1.015901	0.149313	1.032036
	O417	O	0.695428	0.457068	0.588616
	H418	H	0.703246	0.472608	0.597151
	H419	H	0.689361	0.469323	0.593397
	O420	O	0.145964	1.140479	0.936959
	H421	H	0.131947	1.149555	0.931046
	H422	H	0.151893	1.133041	0.940095
	O423	O	0.316905	0.621237	0.465424
	H424	H	0.298476	0.640735	0.478804
	H425	H	0.307320	0.599053	0.480012
	O426	O	0.692803	0.615402	0.639830
	H427	H	0.712903	0.605840	0.656490
	H428	H	0.669969	0.630652	0.629957
	O429	O	0.633935	0.666624	0.466770
	H430	H	0.628960	0.647072	0.484715
	H431	H	0.637392	0.680988	0.459819
	O432	O	0.300267	0.435284	0.489674
	H433	H	0.312881	0.421605	0.490469
	H434	H	0.305557	0.447545	0.467569
	O435	O	0.093357	0.014236	0.198029
	H436	H	0.123379	0.014830	0.209455
	H437	H	0.089292	0.010722	0.187007
	O438	O	0.160516	0.820453	0.844547
	H439	H	0.155461	0.858512	0.843725
	H440	H	0.122798	0.804368	0.832332
	O441	O	0.286992	0.468911	0.555531
	H442	H	0.283564	0.449073	0.546979
	H443	H	0.289873	0.449059	0.577300
