data_Molecule from HDF5

_cell_length_a		16.280081
_cell_length_b		16.328105
_cell_length_c		16.299697
_cell_angle_alpha	89.923704
_cell_angle_beta	89.901538
_cell_angle_gamma	90.154030
_symmetry_space_group_name_H-M	'P 1'
_symmetry_Int_Tables_number		1

loop_
	_symmetry_equiv_pos_as_xyz
	x,y,z

loop_
	_atom_site_label
	_atom_site_type_symbol
	_atom_site_fract_x
	_atom_site_fract_y
	_atom_site_fract_z
	H0	H	0.400963	0.850923	0.714583
	H1	H	0.600935	0.176978	0.713622
	H2	H	0.598249	0.850246	0.285072
	H3	H	0.403083	0.177291	0.283885
	H4	H	0.715160	0.416557	0.836287
	H5	H	0.712777	0.611411	0.163735
	H6	H	0.285400	0.614670	0.836073
	H7	H	0.286541	0.416164	0.162689
	H8	H	0.836381	0.728165	0.401883
	H9	H	0.163510	0.729447	0.597969
	H10	H	0.837257	0.297577	0.599057
	H11	H	0.164317	0.300760	0.400440
	H12	H	0.835607	0.415271	0.713955
	H13	H	0.163580	0.613263	0.713843
	H14	H	0.836509	0.612059	0.285783
	H15	H	0.164060	0.417518	0.285238
	H16	H	0.403908	0.728473	0.835796
	H17	H	0.597892	0.728075	0.163337
	H18	H	0.599994	0.299794	0.836677
	H19	H	0.400986	0.299410	0.162519
	H20	H	0.714508	0.850296	0.400928
	H21	H	0.714776	0.177824	0.595688
	H22	H	0.284364	0.850981	0.598553
	H23	H	0.286030	0.177611	0.399308
	H24	H	0.902198	0.350732	0.213867
	H25	H	0.097693	0.678024	0.211671
	H26	H	0.097732	0.351266	0.784090
	H27	H	0.902069	0.677572	0.785095
	H28	H	0.214734	0.916733	0.335579
	H29	H	0.214892	0.112450	0.663252
	H30	H	0.787336	0.112326	0.335639
	H31	H	0.785304	0.915419	0.662126
	H32	H	0.336629	0.229228	0.900928
	H33	H	0.664106	0.229658	0.098080
	H34	H	0.336466	0.799564	0.097044
	H35	H	0.664585	0.800881	0.901948
	H36	H	0.336312	0.915925	0.212727
	H37	H	0.664774	0.110836	0.211983
	H38	H	0.337111	0.111917	0.784301
	H39	H	0.665027	0.916247	0.785169
	H40	H	0.903201	0.228677	0.335899
	H41	H	0.099474	0.229699	0.662992
	H42	H	0.099846	0.799706	0.335973
	H43	H	0.901090	0.799598	0.662197
	H44	H	0.215198	0.351050	0.899782
	H45	H	0.213785	0.677758	0.096112
	H46	H	0.785271	0.351203	0.098009
	H47	H	0.786077	0.677446	0.901467
	H48	H	0.405676	0.131210	0.594765
	H49	H	0.590088	0.897957	0.595957
	H50	H	0.585667	0.124669	0.415812
	H51	H	0.411537	0.897144	0.398376
	H52	H	0.592884	0.417755	0.117158
	H53	H	0.590073	0.606249	0.884880
	H54	H	0.397721	0.597833	0.115697
	H55	H	0.409716	0.416780	0.882356
	H56	H	0.116412	0.602024	0.402201
	H57	H	0.887414	0.607878	0.579882
	H58	H	0.117599	0.417912	0.592539
	H59	H	0.881991	0.416294	0.404050
	H60	H	0.113948	0.424243	0.588251
	H61	H	0.884000	0.596671	0.600376
	H62	H	0.119309	0.613950	0.402817
	H63	H	0.885393	0.420355	0.413004
	H64	H	0.418695	0.604527	0.111511
	H65	H	0.594199	0.611557	0.882250
	H66	H	0.596464	0.422111	0.116887
	H67	H	0.403129	0.423181	0.881326
	H68	H	0.608889	0.133206	0.407874
	H69	H	0.592571	0.899615	0.586820
	H70	H	0.414207	0.128765	0.593153
	H71	H	0.411348	0.902094	0.413867
	H72	H	0.906914	0.628545	0.087351
	H73	H	0.094991	0.395713	0.098583
	H74	H	0.094783	0.630027	0.907189
	H75	H	0.901460	0.398392	0.911654
	H76	H	0.087008	0.924073	0.613150
	H77	H	0.090191	0.107208	0.384937
	H78	H	0.911500	0.111580	0.615945
	H79	H	0.911595	0.927169	0.385373
	H80	H	0.618737	0.102953	0.895379
	H81	H	0.388281	0.104473	0.080718
	H82	H	0.617811	0.919854	0.093902
	H83	H	0.382950	0.913481	0.910996
	H84	H	0.617331	0.919721	0.092065
	H85	H	0.383819	0.098097	0.101403
	H86	H	0.619487	0.119148	0.908059
	H87	H	0.387083	0.927728	0.910393
	H88	H	0.901843	0.107050	0.617434
	H89	H	0.094976	0.111492	0.381395
	H90	H	0.093367	0.915825	0.616925
	H91	H	0.911787	0.913440	0.381393
	H92	H	0.094172	0.630334	0.904453
	H93	H	0.086774	0.400208	0.091758
	H94	H	0.901202	0.633169	0.095600
	H95	H	0.904875	0.395184	0.899027
	H96	H	0.408036	0.127835	0.586348
	H97	H	0.598261	0.896088	0.593030
	H98	H	0.589305	0.132089	0.391395
	H99	H	0.398098	0.895566	0.407450
	H100	H	0.590935	0.422728	0.114483
	H101	H	0.597027	0.604995	0.883086
	H102	H	0.403500	0.619101	0.120477
	H103	H	0.411651	0.425513	0.885822
	H104	H	0.115036	0.607796	0.412251
	H105	H	0.878081	0.619757	0.598414
	H106	H	0.116716	0.424840	0.596274
	H107	H	0.884873	0.426066	0.404558
	H108	H	0.911557	0.630582	0.096614
	H109	H	0.097566	0.398270	0.087560
	H110	H	0.092555	0.629630	0.906041
	H111	H	0.913699	0.400906	0.907250
	H112	H	0.097949	0.925989	0.615612
	H113	H	0.096560	0.105237	0.383234
	H114	H	0.909992	0.101391	0.613663
	H115	H	0.899273	0.920703	0.379963
	H116	H	0.612426	0.101381	0.915272
	H117	H	0.379351	0.119060	0.095149
	H118	H	0.616828	0.920898	0.092763
	H119	H	0.382976	0.921391	0.898372
	C120	C	0.379646	0.021834	0.620642
	C121	C	0.622447	1.005937	0.620403
	C122	C	0.622496	0.022119	0.377016
	C123	C	0.378905	1.006050	0.377697
	C124	C	0.622024	0.392834	0.008237
	C125	C	0.621714	0.635648	0.991528
	C126	C	0.378672	0.635886	0.007616
	C127	C	0.378982	0.393005	0.990941
	C128	C	0.008616	0.636137	0.377718
	C129	C	0.991412	0.636366	0.621106
	C130	C	0.008391	0.392816	0.621408
	C131	C	0.992334	0.392930	0.378395
	C132	C	0.878170	0.522513	0.121509
	C133	C	0.121659	0.505972	0.120615
	C134	C	0.121984	0.522334	0.877193
	C135	C	0.878624	0.505910	0.878012
	C136	C	0.121820	0.893117	0.507382
	C137	C	0.122458	0.136375	0.491151
	C138	C	0.879564	0.135334	0.507612
	C139	C	0.878622	0.892367	0.490506
	C140	C	0.508935	0.136268	0.877547
	C141	C	0.492223	0.135448	0.120232
	C142	C	0.508746	0.892080	0.120840
	C143	C	0.492825	0.892932	0.878104
	C144	C	0.380898	0.899488	0.676346
	C145	C	0.620641	0.128367	0.675542
	C146	C	0.619275	0.899032	0.322511
	C147	C	0.382429	0.128776	0.322312
	C148	C	0.676975	0.395986	0.885049
	C149	C	0.675666	0.632355	0.114800
	C150	C	0.323494	0.634523	0.884811
	C151	C	0.323936	0.395380	0.113844
	C152	C	0.885319	0.690599	0.381134
	C153	C	0.114812	0.691285	0.618175
	C154	C	0.885702	0.336326	0.619492
	C155	C	0.115344	0.338228	0.380372
	C156	C	0.884889	0.394986	0.676292
	C157	C	0.114764	0.633573	0.675952
	C158	C	0.885320	0.632943	0.323398
	C159	C	0.115221	0.396253	0.322997
	C160	C	0.382407	0.691181	0.884660
	C161	C	0.618882	0.690559	0.114469
	C162	C	0.619779	0.338019	0.885115
	C163	C	0.380978	0.337563	0.113762
	C164	C	0.677119	0.899128	0.380206
	C165	C	0.677460	0.128761	0.617193
	C166	C	0.322923	0.899568	0.618799
	C167	C	0.324419	0.128942	0.379705
	C168	C	0.881219	0.399612	0.176296
	C169	C	0.118624	0.629115	0.174345
	C170	C	0.118663	0.399486	0.822248
	C171	C	0.881211	0.629026	0.822989
	C172	C	0.176604	0.896353	0.384305
	C173	C	0.177341	0.133372	0.614401
	C174	C	0.825691	0.132369	0.384160
	C175	C	0.823473	0.895348	0.613474
	C176	C	0.385738	0.191457	0.879850
	C177	C	0.615440	0.190867	0.117832
	C178	C	0.385436	0.837148	0.118153
	C179	C	0.616027	0.838832	0.881303
	C180	C	0.385425	0.894788	0.175539
	C181	C	0.615831	0.132037	0.174598
	C182	C	0.385781	0.133299	0.822300
	C183	C	0.616102	0.896300	0.823533
	C184	C	0.882818	0.190583	0.384573
	C185	C	0.120231	0.191749	0.614161
	C186	C	0.119604	0.838162	0.384485
	C187	C	0.880922	0.837900	0.613607
	C188	C	0.177012	0.399562	0.879690
	C189	C	0.176365	0.628952	0.116937
	C190	C	0.823243	0.399845	0.118808
	C191	C	0.823743	0.628831	0.880735
	C192	C	0.402591	0.107344	0.597964
	C193	C	0.600227	0.920051	0.598528
	C194	C	0.600938	0.107764	0.398625
	C195	C	0.400730	0.920369	0.399961
	C196	C	0.599955	0.414420	0.093834
	C197	C	0.599998	0.614117	0.905635
	C198	C	0.400290	0.613594	0.093602
	C199	C	0.401613	0.415327	0.905214
	C200	C	0.094546	0.614431	0.399340
	C201	C	0.905459	0.614590	0.599382
	C202	C	0.093925	0.415629	0.599048
	C203	C	0.906338	0.414431	0.400737
	C204	C	0.900106	0.608629	0.099460
	C205	C	0.099591	0.420100	0.098937
	C206	C	0.100169	0.607797	0.899263
	C207	C	0.900325	0.420165	0.899706
	C208	C	0.099343	0.915194	0.593217
	C209	C	0.100497	0.114588	0.405417
	C210	C	0.901306	0.113197	0.593599
	C211	C	0.900872	0.914162	0.404269
	C212	C	0.594556	0.114265	0.899689
	C213	C	0.406169	0.113595	0.098717
	C214	C	0.595022	0.913820	0.099102
	C215	C	0.406549	0.914310	0.900207
	Zn216	Zn	0.500935	0.014153	0.749331
	Zn217	Zn	0.500313	0.013719	0.248844
	Zn218	Zn	0.750154	0.514498	-0.000474
	Zn219	Zn	0.250650	0.513896	-0.001099
	Zn220	Zn	0.000596	0.764781	0.499443
	Zn221	Zn	0.000470	0.264298	0.499484
	Zn222	Zn	-0.000460	0.514609	0.749406
	Zn223	Zn	0.000077	0.514437	0.249534
	Zn224	Zn	0.500526	0.763966	-0.000645
	Zn225	Zn	0.500256	0.264711	-0.000625
	Zn226	Zn	0.750785	0.013691	0.498871
	Zn227	Zn	0.250809	0.014224	0.499325
	N228	N	0.415479	0.976558	0.677489
	N229	N	0.587131	0.050878	0.677646
	N230	N	0.586156	0.976522	0.320219
	N231	N	0.415699	0.051421	0.320901
	N232	N	0.678640	0.429294	0.962527
	N233	N	0.677892	0.599103	0.037294
	N234	N	0.321130	0.600857	0.962195
	N235	N	0.322564	0.429223	0.036493
	N236	N	0.963113	0.692775	0.414205
	N237	N	0.037246	0.693147	0.584988
	N238	N	0.963262	0.334949	0.586007
	N239	N	0.037819	0.336261	0.414152
	N240	N	0.962103	0.429776	0.677428
	N241	N	0.037124	0.599987	0.677806
	N242	N	0.962780	0.599671	0.321382
	N243	N	0.037709	0.429591	0.321716
	N244	N	0.416044	0.691902	0.962058
	N245	N	0.586011	0.692540	0.036911
	N246	N	0.586105	0.336059	0.962473
	N247	N	0.414652	0.336176	0.036306
	N248	N	0.678947	0.976370	0.413576
	N249	N	0.678467	0.051761	0.583374
	N250	N	0.322101	0.976736	0.584796
	N251	N	0.322244	0.051611	0.413431
	N252	N	0.914806	0.477012	0.177810
	N253	N	0.085375	0.551732	0.176933
	N254	N	0.085393	0.476727	0.820620
	N255	N	0.914522	0.551693	0.821223
	N256	N	0.178053	0.929845	0.461656
	N257	N	0.178931	0.099785	0.536922
	N258	N	0.823288	0.098956	0.461632
	N259	N	0.822092	0.928592	0.535811
	N260	N	0.463164	0.193348	0.913598
	N261	N	0.537670	0.192995	0.084783
	N262	N	0.463113	0.835381	0.084797
	N263	N	0.538231	0.836471	0.914366
	N264	N	0.463102	0.928219	0.177308
	N265	N	0.538227	0.098307	0.176190
	N266	N	0.463301	0.099991	0.820597
	N267	N	0.538407	0.929221	0.821598
	N268	N	0.915642	0.192278	0.462331
	N269	N	0.086944	0.193789	0.536726
	N270	N	0.086075	0.836318	0.462070
	N271	N	0.914441	0.836011	0.536092
	N272	N	0.179262	0.477000	0.913038
	N273	N	0.178224	0.551269	0.084140
	N274	N	0.821453	0.477198	0.085439
	N275	N	0.822050	0.551373	0.914213
	O276	O	-0.549719	-0.590860	1.538933
	H277	H	-0.547652	-0.596321	1.536924
	H278	H	-0.539547	-0.588091	1.536202
	O279	O	0.452359	0.432670	0.505189
	H280	H	0.444243	0.433105	0.511311
	H281	H	0.458272	0.431198	0.514771
	O282	O	0.453277	0.468756	0.535359
	H283	H	0.446619	0.468382	0.537857
	H284	H	0.443533	0.469290	0.542641
	O285	O	0.443162	0.496764	0.592216
	H286	H	0.443079	0.494398	0.586983
	H287	H	0.436048	0.503918	0.596168
	O288	O	0.431018	0.433029	0.611483
	H289	H	0.424664	0.433844	0.615946
	H290	H	0.430838	0.430056	0.608445
	O291	O	0.454362	0.510268	0.515176
	H292	H	0.455489	0.503436	0.516231
	H293	H	0.456116	0.506175	0.516943
	O294	O	0.486768	0.467297	0.600807
	H295	H	0.475348	0.476254	0.602741
	H296	H	0.479162	0.455281	0.608083
	O297	O	1.426271	-0.570180	-0.496365
	H298	H	1.425193	-0.566748	-0.502438
	H299	H	1.443248	-0.566544	-0.496791
