data_Molecule from HDF5

_cell_length_a		16.690715
_cell_length_b		16.567279
_cell_length_c		16.518225
_cell_angle_alpha	90.014575
_cell_angle_beta	89.858406
_cell_angle_gamma	90.011025
_symmetry_space_group_name_H-M	'P 1'
_symmetry_Int_Tables_number		1

loop_
	_symmetry_equiv_pos_as_xyz
	x,y,z

loop_
	_atom_site_label
	_atom_site_type_symbol
	_atom_site_fract_x
	_atom_site_fract_y
	_atom_site_fract_z
	H0	H	0.422707	0.832106	0.709889
	H1	H	0.627916	0.146696	0.710559
	H2	H	0.626060	0.832417	0.272156
	H3	H	0.420655	0.146862	0.270852
	H4	H	0.750687	0.382119	0.838071
	H5	H	0.742083	0.593443	0.149941
	H6	H	0.305280	0.595046	0.832857
	H7	H	0.304655	0.386005	0.147038
	H8	H	0.870085	0.710882	0.387079
	H9	H	0.178309	0.715599	0.600336
	H10	H	0.870312	0.266657	0.598625
	H11	H	0.180771	0.269062	0.387016
	H12	H	0.871101	0.381209	0.717598
	H13	H	0.179154	0.596940	0.715413
	H14	H	0.869986	0.593049	0.271967
	H15	H	0.181057	0.385877	0.270019
	H16	H	0.422369	0.709329	0.831745
	H17	H	0.624381	0.707868	0.149155
	H18	H	0.633835	0.268446	0.835986
	H19	H	0.420747	0.269365	0.146412
	H20	H	0.746007	0.834611	0.384147
	H21	H	0.745245	0.145789	0.593650
	H22	H	0.302562	0.834102	0.598053
	H23	H	0.302980	0.146445	0.386307
	H24	H	0.921233	0.333447	0.212076
	H25	H	0.127395	0.648330	0.209909
	H26	H	0.127294	0.333629	0.772459
	H27	H	0.919281	0.645976	0.769997
	H28	H	0.244901	0.886876	0.335031
	H29	H	0.245360	0.096822	0.648930
	H30	H	0.802853	0.097270	0.335281
	H31	H	0.801081	0.883344	0.646281
	H32	H	0.373363	0.216086	0.881305
	H33	H	0.680246	0.211285	0.095464
	H34	H	0.367515	0.771199	0.093199
	H35	H	0.680946	0.768646	0.886444
	H36	H	0.368570	0.886578	0.210785
	H37	H	0.680703	0.093951	0.211585
	H38	H	0.371593	0.095941	0.767748
	H39	H	0.681583	0.885591	0.769953
	H40	H	0.920610	0.211856	0.334682
	H41	H	0.128403	0.212017	0.649063
	H42	H	0.126788	0.772571	0.333919
	H43	H	0.918254	0.768657	0.647131
	H44	H	0.245440	0.334666	0.886944
	H45	H	0.244856	0.648091	0.094755
	H46	H	0.800983	0.335701	0.100437
	H47	H	0.804118	0.646432	0.887125
	H48	H	0.436753	0.103517	0.587056
	H49	H	0.616993	0.875432	0.582016
	H50	H	0.613666	0.101208	0.403943
	H51	H	0.435035	0.878667	0.403424
	H52	H	0.609740	0.400496	0.103235
	H53	H	0.613559	0.578781	0.879001
	H54	H	0.437978	0.579360	0.101799
	H55	H	0.440748	0.400719	0.878800
	H56	H	0.137943	0.584009	0.402819
	H57	H	0.914644	0.582979	0.576869
	H58	H	0.134597	0.404604	0.580029
	H59	H	0.914563	0.395234	0.407148
	H60	H	0.136311	0.401200	0.581823
	H61	H	0.917856	0.573733	0.577657
	H62	H	0.136227	0.578208	0.403399
	H63	H	0.915533	0.406836	0.401977
	H64	H	0.432641	0.585286	0.104985
	H65	H	0.616671	0.582176	0.877354
	H66	H	0.614706	0.402154	0.104652
	H67	H	0.432779	0.399789	0.875688
	H68	H	0.617462	0.103515	0.401312
	H69	H	0.610106	0.878228	0.580717
	H70	H	0.439387	0.098821	0.574793
	H71	H	0.432942	0.877897	0.403362
	H72	H	0.931574	0.602350	0.079815
	H73	H	0.117404	0.378090	0.078417
	H74	H	0.114416	0.601697	0.905390
	H75	H	0.934936	0.377388	0.901664
	H76	H	0.114760	0.903917	0.604850
	H77	H	0.112970	0.078495	0.381083
	H78	H	0.933074	0.077473	0.603286
	H79	H	0.932078	0.905179	0.378532
	H80	H	0.640532	0.086182	0.897618
	H81	H	0.414545	0.079169	0.078481
	H82	H	0.637337	0.901657	0.084373
	H83	H	0.414524	0.901404	0.901902
	H84	H	0.637996	0.894132	0.082693
	H85	H	0.413986	0.078443	0.082068
	H86	H	0.633484	0.079720	0.911402
	H87	H	0.414143	0.900234	0.900476
	H88	H	0.937013	0.074989	0.601702
	H89	H	0.115339	0.079999	0.379005
	H90	H	0.111288	0.901579	0.603904
	H91	H	0.940094	0.903628	0.380282
	H92	H	0.117725	0.604637	0.902657
	H93	H	0.117564	0.377264	0.082635
	H94	H	0.935573	0.603244	0.084471
	H95	H	0.943086	0.381197	0.904976
	H96	H	0.428140	0.103384	0.578081
	H97	H	0.615930	0.878742	0.575029
	H98	H	0.612996	0.102555	0.399257
	H99	H	0.434265	0.877847	0.401447
	H100	H	0.611778	0.405486	0.102033
	H101	H	0.618488	0.577357	0.878774
	H102	H	0.429497	0.577217	0.103463
	H103	H	0.435086	0.407787	0.879417
	H104	H	0.137930	0.580346	0.398106
	H105	H	0.912707	0.577606	0.585629
	H106	H	0.134211	0.400979	0.577925
	H107	H	0.911019	0.397198	0.394955
	H108	H	0.937469	0.601003	0.078851
	H109	H	0.113841	0.379226	0.081138
	H110	H	0.113336	0.603569	0.900391
	H111	H	0.934988	0.380444	0.911014
	H112	H	0.114691	0.899407	0.605806
	H113	H	0.115789	0.076959	0.380764
	H114	H	0.937757	0.079606	0.602918
	H115	H	0.935476	0.897326	0.377121
	H116	H	0.635407	0.069992	0.897480
	H117	H	0.413037	0.081569	0.080638
	H118	H	0.635325	0.899265	0.077585
	H119	H	0.414642	0.899879	0.901469
	C120	C	0.403200	-0.001602	0.612943
	C121	C	0.645782	0.981433	0.611066
	C122	C	0.645868	-0.001179	0.369177
	C123	C	0.402812	0.982057	0.370385
	C124	C	0.646287	0.369606	0.000504
	C125	C	0.645798	0.610900	0.982774
	C126	C	0.402956	0.612006	-0.001290
	C127	C	0.404150	0.370015	0.981688
	C128	C	0.033955	0.611472	0.370502
	C129	C	1.016655	0.611898	0.613690
	C130	C	0.032862	0.369292	0.612892
	C131	C	1.016789	0.368138	0.369463
	C132	C	0.903339	0.498746	0.113399
	C133	C	0.146742	0.482264	0.112133
	C134	C	0.146623	0.499525	0.870211
	C135	C	0.904188	0.482170	0.872174
	C136	C	0.145117	0.869847	0.500421
	C137	C	0.146418	0.111445	0.483887
	C138	C	0.903976	0.110907	0.499482
	C139	C	0.902774	0.868936	0.481936
	C140	C	0.534509	0.112073	0.868692
	C141	C	0.516427	0.111416	0.112196
	C142	C	0.533095	0.867645	0.112661
	C143	C	0.517105	0.868206	0.869008
	C144	C	0.402682	0.879841	0.671469
	C145	C	0.646919	0.099686	0.670524
	C146	C	0.646137	0.880158	0.310642
	C147	C	0.401345	0.099626	0.310250
	C148	C	0.708974	0.365419	0.884145
	C149	C	0.702799	0.612048	0.102199
	C150	C	0.344928	0.613222	0.880088
	C151	C	0.344577	0.367574	0.099831
	C152	C	0.916846	0.670832	0.368710
	C153	C	0.132208	0.674249	0.617806
	C154	C	0.916855	0.307287	0.616915
	C155	C	0.134036	0.308695	0.367826
	C156	C	0.917112	0.364560	0.675820
	C157	C	0.132786	0.615363	0.675074
	C158	C	0.916665	0.612311	0.311410
	C159	C	0.134160	0.366740	0.309742
	C160	C	0.403201	0.670132	0.879731
	C161	C	0.644373	0.668955	0.101930
	C162	C	0.650814	0.308788	0.883175
	C163	C	0.402068	0.309573	0.099551
	C164	C	0.705426	0.881190	0.366542
	C165	C	0.705019	0.099399	0.612755
	C166	C	0.343164	0.880709	0.615613
	C167	C	0.343173	0.099600	0.367988
	C168	C	0.902243	0.380650	0.172749
	C169	C	0.146890	0.600869	0.170887
	C170	C	0.146718	0.380925	0.811575
	C171	C	0.901253	0.599285	0.810777
	C172	C	0.204592	0.868315	0.382107
	C173	C	0.205389	0.114454	0.602029
	C174	C	0.843408	0.114851	0.381849
	C175	C	0.841325	0.865410	0.599225
	C176	C	0.419103	0.174377	0.864131
	C177	C	0.633718	0.171023	0.113858
	C178	C	0.414890	0.810380	0.112329
	C179	C	0.634283	0.808597	0.867470
	C180	C	0.415189	0.867769	0.170883
	C181	C	0.633735	0.112928	0.171727
	C182	C	0.418411	0.115049	0.807421
	C183	C	0.634673	0.866978	0.809850
	C184	C	0.901775	0.171870	0.381818
	C185	C	0.147253	0.171643	0.602005
	C186	C	0.146099	0.811474	0.381560
	C187	C	0.899872	0.808678	0.599936
	C188	C	0.205544	0.381374	0.867999
	C189	C	0.205040	0.600769	0.113363
	C190	C	0.842462	0.381797	0.117237
	C191	C	0.844008	0.599428	0.869118
	C192	C	0.427684	0.080524	0.587389
	C193	C	0.621480	0.898943	0.586307
	C194	C	0.621463	0.081016	0.394198
	C195	C	0.427240	0.899702	0.395614
	C196	C	0.619649	0.395432	0.082034
	C197	C	0.622827	0.586503	0.900009
	C198	C	0.426611	0.587654	0.081700
	C199	C	0.429139	0.395482	0.899523
	C200	C	0.116032	0.587417	0.394594
	C201	C	0.936024	0.585576	0.587601
	C202	C	0.113882	0.395042	0.587085
	C203	C	0.934825	0.392694	0.394320
	C204	C	0.927920	0.580832	0.088297
	C205	C	0.123105	0.399679	0.087719
	C206	C	0.122427	0.581826	0.895514
	C207	C	0.930112	0.400655	0.898454
	C208	C	0.120558	0.894402	0.583186
	C209	C	0.121802	0.085741	0.401736
	C210	C	0.928822	0.084812	0.581258
	C211	C	0.928517	0.894602	0.400038
	C212	C	0.615512	0.086108	0.894856
	C213	C	0.435041	0.086973	0.087424
	C214	C	0.615442	0.891557	0.088538
	C215	C	0.435612	0.893315	0.894230
	Zn216	Zn	0.525604	-0.010597	0.740155
	Zn217	Zn	0.524230	-0.009968	0.241260
	Zn218	Zn	0.774693	0.490428	-0.007441
	Zn219	Zn	0.275125	0.490895	-0.009577
	Zn220	Zn	0.024296	0.740848	0.491793
	Zn221	Zn	0.024833	0.239528	0.491910
	Zn222	Zn	0.024773	0.490137	0.743049
	Zn223	Zn	0.025446	0.490236	0.240996
	Zn224	Zn	0.524634	0.739525	-0.009627
	Zn225	Zn	0.525562	0.240846	-0.009479
	Zn226	Zn	0.774723	-0.009851	0.490073
	Zn227	Zn	0.274423	-0.009329	0.492691
	N228	N	0.439272	0.954038	0.669994
	N229	N	0.610882	0.025164	0.669511
	N230	N	0.609861	0.954350	0.312113
	N231	N	0.437830	0.025367	0.311642
	N232	N	0.706230	0.402670	0.958229
	N233	N	0.704127	0.576741	0.026987
	N234	N	0.344693	0.577815	0.955213
	N235	N	0.345587	0.404345	0.025473
	N236	N	0.990853	0.670612	0.404616
	N237	N	0.058778	0.672255	0.580421
	N238	N	0.989738	0.310137	0.578482
	N239	N	0.059910	0.309439	0.404218
	N240	N	0.990186	0.402585	0.673403
	N241	N	0.059913	0.577124	0.672548
	N242	N	0.990709	0.576311	0.312197
	N243	N	0.060122	0.402736	0.310473
	N244	N	0.438590	0.669500	0.954704
	N245	N	0.609964	0.668697	0.026627
	N246	N	0.612226	0.311322	0.956457
	N247	N	0.438469	0.310879	0.025007
	N248	N	0.705774	0.956134	0.402045
	N249	N	0.704347	0.024795	0.576667
	N250	N	0.343109	0.955745	0.580213
	N251	N	0.343669	0.025121	0.404352
	N252	N	0.939530	0.454504	0.170609
	N253	N	0.111196	0.526188	0.170217
	N254	N	0.111093	0.455600	0.812612
	N255	N	0.938143	0.525187	0.812541
	N256	N	0.204320	0.903787	0.457360
	N257	N	0.204868	0.077660	0.527585
	N258	N	0.844297	0.077682	0.456290
	N259	N	0.842904	0.902089	0.524721
	N260	N	0.492392	0.172615	0.901461
	N261	N	0.559755	0.170631	0.077816
	N262	N	0.489437	0.810084	0.076987
	N263	N	0.560140	0.809367	0.903560
	N264	N	0.489792	0.902695	0.171211
	N265	N	0.559817	0.076613	0.170992
	N266	N	0.491283	0.076908	0.810175
	N267	N	0.560752	0.903265	0.810540
	N268	N	0.938869	0.169427	0.455785
	N269	N	0.111258	0.170035	0.527422
	N270	N	0.110191	0.811952	0.456491
	N271	N	0.937236	0.810513	0.525870
	N272	N	0.205488	0.456155	0.903775
	N273	N	0.205342	0.525861	0.077836
	N274	N	0.842984	0.456205	0.081141
	N275	N	0.845670	0.525464	0.906353
	O276	O	0.031765	0.804160	0.022658
	H277	H	0.061841	0.796713	0.022773
	H278	H	0.025481	0.802200	0.029632
	O279	O	0.347458	0.501989	0.273908
	H280	H	0.352161	0.482495	0.279594
	H281	H	0.341040	0.499349	0.260302
	O282	O	1.047545	-0.224632	0.775443
	H283	H	1.045790	-0.230207	0.783842
	H284	H	1.059101	-0.238014	0.758455
	O285	O	0.033373	1.002367	0.936841
	H286	H	0.042906	1.002565	0.931584
	H287	H	0.034167	0.994803	0.946796
	O288	O	0.547361	0.441225	0.713659
	H289	H	0.537442	0.442435	0.716284
	H290	H	0.550588	0.460434	0.717459
	O291	O	0.494416	0.690157	0.278191
	H292	H	0.467524	0.697729	0.271838
	H293	H	0.472690	0.702417	0.261011
	O294	O	0.586890	0.284789	0.539657
	H295	H	0.578407	0.282614	0.530109
	H296	H	0.565575	0.291870	0.538203
	O297	O	0.292536	0.557293	0.548018
	H298	H	0.301251	0.531165	0.535110
	H299	H	0.284795	0.556516	0.543532
	O300	O	-0.432303	0.681225	0.452816
	H301	H	-0.435377	0.674377	0.467274
	H302	H	-0.434812	0.689170	0.433970
	O303	O	0.312856	0.280251	0.511242
	H304	H	0.335972	0.279314	0.536783
	H305	H	0.288419	0.266378	0.514068
	O306	O	0.730121	0.688380	0.694571
	H307	H	0.720263	0.669800	0.678178
	H308	H	0.712336	0.677044	0.684823
	O309	O	0.568455	0.483173	0.288969
	H310	H	0.567836	0.501783	0.290361
	H311	H	0.565308	0.489944	0.296956
	O312	O	0.525880	0.648066	0.526870
	H313	H	0.534126	0.635148	0.525058
	H314	H	0.516774	0.648486	0.529331
	O315	O	0.815910	1.027126	0.777630
	H316	H	0.813876	1.007824	0.768176
	H317	H	0.812810	1.015586	0.791076
	O318	O	0.384859	0.305347	0.575480
	H319	H	0.372804	0.294757	0.572590
	H320	H	0.367941	0.302362	0.573062
	O321	O	-0.206407	1.009300	0.993041
	H322	H	-0.206131	0.986373	1.014803
	H323	H	-0.205733	1.002180	0.990830
	O324	O	0.959584	0.971649	-0.081883
	H325	H	0.956424	0.971436	-0.085410
	H326	H	0.933888	0.967249	-0.082571
	O327	O	-0.179589	-0.216731	1.196520
	H328	H	-0.178061	-0.188726	1.183176
	H329	H	-0.211908	-0.247081	1.222556
	O330	O	0.899808	0.872703	0.779032
	H331	H	0.903144	0.868542	0.764668
	H332	H	0.906183	0.869368	0.781180
	O333	O	0.232672	0.877388	0.788199
	H334	H	0.221159	0.867139	0.779718
	H335	H	0.237880	0.885014	0.772121
	O336	O	0.594871	0.483891	0.457598
	H337	H	0.598564	0.483520	0.450246
	H338	H	0.586173	0.489222	0.464063
	O339	O	1.087270	-0.057532	1.127940
	H340	H	1.072235	-0.052313	1.121400
	H341	H	1.071674	-0.055535	1.139385
	O342	O	0.056387	0.206989	0.207854
	H343	H	0.048646	0.232970	0.211224
	H344	H	0.041014	0.214182	0.200668
	O345	O	0.255173	1.052811	0.927361
	H346	H	0.258020	1.034386	0.919770
	H347	H	0.253061	1.048614	0.927916
	O348	O	0.423854	0.361598	0.387777
	H349	H	0.432971	0.357737	0.380797
	H350	H	0.426645	0.353178	0.385999
	O351	O	0.459260	0.690473	0.693039
	H352	H	0.452818	0.675391	0.695663
	H353	H	0.456691	0.687249	0.683431
	O354	O	0.197540	-0.150801	1.116935
	H355	H	0.193070	-0.141231	1.120838
	H356	H	0.174990	-0.136204	1.104491
	O357	O	0.737057	0.283814	0.460012
	H358	H	0.715069	0.283387	0.469536
	H359	H	0.751642	0.261020	0.445370
	O360	O	0.556485	0.461966	0.298442
	H361	H	0.563308	0.463599	0.283589
	H362	H	0.550748	0.461576	0.302655
	O363	O	-0.003777	0.182022	-0.204937
	H364	H	-0.033789	0.181570	-0.188128
	H365	H	-0.030870	0.198825	-0.225942
	O366	O	0.581323	0.551910	0.432646
	H367	H	0.585058	0.548927	0.422905
	H368	H	0.578195	0.547836	0.442788
	O369	O	1.015218	0.051110	0.189182
	H370	H	1.008272	0.051097	0.199858
	H371	H	1.012065	0.058376	0.181224
	O372	O	0.926342	0.933362	0.190511
	H373	H	0.908146	0.920173	0.212636
	H374	H	0.932489	0.936562	0.173214
	O375	O	0.986087	0.219537	0.043684
	H376	H	0.973312	0.218871	0.023016
	H377	H	0.996937	0.220485	0.024704
	O378	O	-0.225135	0.236756	0.741255
	H379	H	-0.251817	0.260393	0.723554
	H380	H	-0.238035	0.205753	0.729263
	O381	O	-0.010093	0.930669	0.999758
	H382	H	0.004783	0.924114	1.008149
	H383	H	-0.017120	0.937680	1.016312
	O384	O	0.818596	0.204908	0.973482
	H385	H	0.815165	0.205729	0.937956
	H386	H	0.793353	0.202942	0.976238
	O387	O	0.931394	0.784952	-0.115211
	H388	H	0.906023	0.776398	-0.119054
	H389	H	0.955710	0.782584	-0.108866
	O390	O	0.743120	0.554607	0.477233
	H391	H	0.738929	0.550064	0.481073
	H392	H	0.753698	0.545858	0.473880
	O393	O	0.304389	0.461777	0.397388
	H394	H	0.309180	0.447770	0.386275
	H395	H	0.308267	0.445925	0.395444
	O396	O	0.247905	1.205033	1.020376
	H397	H	0.254592	1.192076	1.009575
	H398	H	0.263404	1.221992	1.031521
	O399	O	-0.007827	-0.225370	1.209128
	H400	H	-0.046030	-0.222496	1.204171
	H401	H	-0.008379	-0.252977	1.231787
	O402	O	0.824294	0.198912	0.196336
	H403	H	0.842296	0.201371	0.178737
	H404	H	0.833415	0.180231	0.186269
	O405	O	0.803672	-0.232893	1.030541
	H406	H	0.791504	-0.248869	1.038072
	H407	H	0.802394	-0.239503	1.038386
	O408	O	0.172040	0.129421	-0.175795
	H409	H	0.134944	0.117227	-0.170423
	H410	H	0.169766	0.116104	-0.161316
	O411	O	0.569328	0.462332	0.472646
	H412	H	0.573270	0.445350	0.474394
	H413	H	0.571695	0.456593	0.455595
	O414	O	0.475207	0.564823	0.679509
	H415	H	0.456637	0.564558	0.669064
	H416	H	0.469339	0.566586	0.666214
	O417	O	-0.271350	0.354162	0.632827
	H418	H	-0.282224	0.361167	0.619573
	H419	H	-0.292189	0.358129	0.623203
	O420	O	0.153092	0.873241	0.889495
	H421	H	0.161897	0.858627	0.875685
	H422	H	0.159389	0.859600	0.909845
	O423	O	0.279466	0.246846	0.738234
	H424	H	0.304454	0.245397	0.752835
	H425	H	0.255434	0.214152	0.764474
	O426	O	0.641176	0.449260	0.499661
	H427	H	0.652539	0.447395	0.492323
	H428	H	0.637681	0.451085	0.507194
	O429	O	1.238517	0.916921	1.060277
	H430	H	1.236221	0.929410	1.065412
	H431	H	1.238234	0.907970	1.050495
	O432	O	0.335959	0.302568	0.301722
	H433	H	0.336447	0.303359	0.304482
	H434	H	0.318513	0.282332	0.286921
	O435	O	-0.281376	0.679678	0.303873
	H436	H	-0.305379	0.661692	0.317630
	H437	H	-0.288905	0.661767	0.331664
	O438	O	-0.279241	0.509800	-0.299011
	H439	H	-0.267286	0.509698	-0.284787
	H440	H	-0.271372	0.508825	-0.320125
	O441	O	0.238879	0.026350	0.197043
	H442	H	0.233586	0.021409	0.199630
	H443	H	0.242250	0.031182	0.210816
	O444	O	0.319778	0.694393	0.291238
	H445	H	0.305614	0.693297	0.309900
	H446	H	0.306956	0.673605	0.288988
	O447	O	0.151970	1.037796	0.801428
	H448	H	0.136816	1.034242	0.805947
	H449	H	0.148503	1.051230	0.785105
	O450	O	-0.063744	1.122650	0.820608
	H451	H	-0.083238	1.138095	0.800771
	H452	H	-0.077452	1.091775	0.818468
	O453	O	-0.172796	0.020715	1.164700
	H454	H	-0.159805	0.020980	1.160750
	H455	H	-0.178993	0.010656	1.166339
	O456	O	0.080188	0.158902	0.964799
	H457	H	0.082747	0.169786	0.956060
	H458	H	0.085980	0.148154	0.959603
	O459	O	0.709877	0.349751	0.277406
	H460	H	0.734783	0.322778	0.251093
	H461	H	0.703080	0.344585	0.268961
	O462	O	0.448523	0.669494	0.560449
	H463	H	0.440225	0.670794	0.560933
	H464	H	0.454630	0.661820	0.541462
	O465	O	1.241727	-0.224940	-0.039364
	H466	H	1.239966	-0.204402	-0.050595
	H467	H	1.265791	-0.248385	-0.035992
	O468	O	0.303838	0.463615	0.704820
	H469	H	0.297363	0.451654	0.687851
	H470	H	0.279510	0.449497	0.724313
	O471	O	0.506679	0.275502	0.676371
	H472	H	0.507097	0.265027	0.689775
	H473	H	0.499595	0.289399	0.674853
	O474	O	0.299429	0.711563	0.460475
	H475	H	0.288216	0.727185	0.459044
	H476	H	0.287764	0.706354	0.469003
	O477	O	0.231503	0.199836	1.199442
	H478	H	0.200658	0.197939	1.182913
	H479	H	0.223456	0.173081	1.187579
	O480	O	0.613226	0.277312	0.307477
	H481	H	0.622872	0.259518	0.285788
	H482	H	0.609376	0.281722	0.321124
	O483	O	0.511152	0.493214	0.571800
	H484	H	0.500448	0.507696	0.572909
	H485	H	0.504347	0.492395	0.574556
	O486	O	0.745305	0.704661	0.516522
	H487	H	0.726806	0.701117	0.516866
	H488	H	0.766871	0.730783	0.520584
	O489	O	0.841349	0.904828	-0.035919
	H490	H	0.845094	0.887616	-0.056918
	H491	H	0.836496	0.887973	-0.033751
