data_Molecule from HDF5

_cell_length_a		16.637607
_cell_length_b		16.712002
_cell_length_c		16.611512
_cell_angle_alpha	89.942801
_cell_angle_beta	90.169745
_cell_angle_gamma	90.045038
_symmetry_space_group_name_H-M	'P 1'
_symmetry_Int_Tables_number		1

loop_
	_symmetry_equiv_pos_as_xyz
	x,y,z

loop_
	_atom_site_label
	_atom_site_type_symbol
	_atom_site_fract_x
	_atom_site_fract_y
	_atom_site_fract_z
	H0	H	0.400297	0.842047	0.717316
	H1	H	0.614350	0.148597	0.719792
	H2	H	0.616226	0.843911	0.269550
	H3	H	0.396897	0.146766	0.268690
	H4	H	0.729832	0.386460	0.842071
	H5	H	0.727944	0.601067	0.149486
	H6	H	0.282232	0.601361	0.840517
	H7	H	0.284082	0.387281	0.149179
	H8	H	0.851255	0.717638	0.389673
	H9	H	0.161847	0.714185	0.600227
	H10	H	0.851005	0.272040	0.602030
	H11	H	0.160254	0.274019	0.389894
	H12	H	0.849326	0.390428	0.715156
	H13	H	0.162059	0.596530	0.714982
	H14	H	0.851556	0.600777	0.273865
	H15	H	0.161176	0.391758	0.275506
	H16	H	0.397531	0.717496	0.840041
	H17	H	0.612277	0.716722	0.149057
	H18	H	0.615628	0.268758	0.843732
	H19	H	0.397637	0.270043	0.147842
	H20	H	0.731473	0.843215	0.387073
	H21	H	0.730215	0.148846	0.603351
	H22	H	0.283110	0.842537	0.601991
	H23	H	0.281487	0.148106	0.385139
	H24	H	0.900662	0.340844	0.217613
	H25	H	0.111065	0.649933	0.217221
	H26	H	0.107179	0.339255	0.777908
	H27	H	0.898952	0.649262	0.772984
	H28	H	0.224051	0.892700	0.338804
	H29	H	0.226507	0.097747	0.650790
	H30	H	0.784744	0.100946	0.340101
	H31	H	0.786823	0.892219	0.651910
	H32	H	0.353372	0.220359	0.885133
	H33	H	0.657092	0.221220	0.105651
	H34	H	0.350442	0.774588	0.099395
	H35	H	0.660482	0.774133	0.889890
	H36	H	0.352140	0.889178	0.216215
	H37	H	0.658494	0.103046	0.219627
	H38	H	0.352048	0.101415	0.771864
	H39	H	0.660955	0.890869	0.774891
	H40	H	0.900118	0.217562	0.340569
	H41	H	0.111284	0.214521	0.651372
	H42	H	0.109173	0.775038	0.339787
	H43	H	0.902367	0.775645	0.651787
	H44	H	0.226060	0.340986	0.892189
	H45	H	0.228612	0.648475	0.101952
	H46	H	0.783263	0.341758	0.102190
	H47	H	0.783734	0.649197	0.889564
	H48	H	0.413790	0.109391	0.587021
	H49	H	0.597789	0.886565	0.578057
	H50	H	0.591401	0.107415	0.401980
	H51	H	0.418283	0.884217	0.402847
	H52	H	0.595061	0.411249	0.105294
	H53	H	0.596293	0.582213	0.882575
	H54	H	0.418943	0.584925	0.106266
	H55	H	0.416292	0.411915	0.885625
	H56	H	0.113653	0.584723	0.415440
	H57	H	0.892405	0.586093	0.587522
	H58	H	0.120159	0.398925	0.587494
	H59	H	0.895182	0.406728	0.407883
	H60	H	0.115266	0.405456	0.580695
	H61	H	0.893787	0.588451	0.583500
	H62	H	0.118195	0.579457	0.401566
	H63	H	0.895529	0.407501	0.409108
	H64	H	0.416291	0.585343	0.107134
	H65	H	0.591860	0.583136	0.883913
	H66	H	0.589364	0.409601	0.104042
	H67	H	0.422901	0.409241	0.886945
	H68	H	0.590100	0.101598	0.411433
	H69	H	0.598258	0.882923	0.588966
	H70	H	0.423242	0.105076	0.584290
	H71	H	0.420109	0.886545	0.409095
	H72	H	0.912404	0.607403	0.082023
	H73	H	0.095142	0.382565	0.088317
	H74	H	0.093804	0.607531	0.901866
	H75	H	0.909972	0.380694	0.904827
	H76	H	0.093156	0.906070	0.606435
	H77	H	0.097715	0.086830	0.381940
	H78	H	0.919978	0.084716	0.606036
	H79	H	0.915241	0.908875	0.384383
	H80	H	0.614746	0.079450	0.910724
	H81	H	0.396692	0.080610	0.076025
	H82	H	0.619038	0.905331	0.085885
	H83	H	0.394924	0.903310	0.909595
	H84	H	0.617604	0.902757	0.078537
	H85	H	0.395820	0.077741	0.082663
	H86	H	0.617723	0.082750	0.904939
	H87	H	0.393784	0.909181	0.903218
	H88	H	0.917364	0.083356	0.606888
	H89	H	0.094005	0.081126	0.384560
	H90	H	0.096955	0.900747	0.609205
	H91	H	0.921214	0.908062	0.385494
	H92	H	0.091130	0.604766	0.908761
	H93	H	0.091757	0.385720	0.084020
	H94	H	0.918671	0.607446	0.089098
	H95	H	0.921830	0.384277	0.901935
	H96	H	0.415120	0.105138	0.577099
	H97	H	0.588813	0.887021	0.584100
	H98	H	0.599713	0.106742	0.409701
	H99	H	0.413695	0.883924	0.408295
	H100	H	0.593389	0.405651	0.106606
	H101	H	0.595041	0.586470	0.881996
	H102	H	0.417295	0.582840	0.106148
	H103	H	0.417832	0.405849	0.883028
	H104	H	0.121006	0.593664	0.405487
	H105	H	0.894567	0.583773	0.583470
	H106	H	0.117542	0.408657	0.590910
	H107	H	0.895339	0.408150	0.407502
	H108	H	0.920734	0.603223	0.080377
	H109	H	0.098068	0.384536	0.083562
	H110	H	0.098941	0.607342	0.908016
	H111	H	0.917595	0.386706	0.913368
	H112	H	0.099745	0.907259	0.608422
	H113	H	0.090419	0.087854	0.383427
	H114	H	0.920137	0.081800	0.605755
	H115	H	0.917451	0.903935	0.383505
	H116	H	0.616301	0.086293	0.911292
	H117	H	0.393111	0.084619	0.081272
	H118	H	0.614193	0.909884	0.081070
	H119	H	0.390561	0.901446	0.902279
	C120	C	0.385123	0.004324	0.615781
	C121	C	0.628172	0.987078	0.617174
	C122	C	0.627842	0.004334	0.373679
	C123	C	0.384153	0.986425	0.373162
	C124	C	0.626658	0.374338	0.003900
	C125	C	0.627110	0.616121	0.985639
	C126	C	0.384219	0.616702	0.003790
	C127	C	0.385390	0.374699	0.986559
	C128	C	0.014490	0.617335	0.374851
	C129	C	0.996995	0.616386	0.616966
	C130	C	0.014110	0.373018	0.617478
	C131	C	0.997672	0.375350	0.375591
	C132	C	0.884672	0.503990	0.116753
	C133	C	0.127621	0.486575	0.117698
	C134	C	0.126172	0.503777	0.874756
	C135	C	0.883835	0.486307	0.874087
	C136	C	0.127395	0.873912	0.504240
	C137	C	0.127108	0.116685	0.486280
	C138	C	0.885703	0.116147	0.503877
	C139	C	0.885504	0.874861	0.487509
	C140	C	0.514475	0.116146	0.874681
	C141	C	0.496606	0.115682	0.115563
	C142	C	0.514708	0.873793	0.115206
	C143	C	0.496429	0.873249	0.873311
	C144	C	0.382025	0.888528	0.676911
	C145	C	0.632086	0.102514	0.678995
	C146	C	0.633091	0.889607	0.311011
	C147	C	0.379653	0.101249	0.310160
	C148	C	0.689238	0.369173	0.888445
	C149	C	0.687621	0.618888	0.102641
	C150	C	0.322800	0.619428	0.887022
	C151	C	0.324260	0.369930	0.102681
	C152	C	0.897805	0.677400	0.371439
	C153	C	0.114880	0.674589	0.618876
	C154	C	0.897358	0.312884	0.619519
	C155	C	0.114153	0.314847	0.372491
	C156	C	0.896504	0.371580	0.675939
	C157	C	0.114994	0.616196	0.675750
	C158	C	0.897918	0.619477	0.313978
	C159	C	0.114524	0.373105	0.315400
	C160	C	0.380258	0.677081	0.886913
	C161	C	0.630116	0.676515	0.102387
	C162	C	0.632529	0.310680	0.889268
	C163	C	0.380845	0.311778	0.102072
	C164	C	0.690372	0.889361	0.369345
	C165	C	0.689443	0.102754	0.620951
	C166	C	0.323983	0.888564	0.619416
	C167	C	0.322450	0.101976	0.368212
	C168	C	0.882072	0.387587	0.177562
	C169	C	0.129660	0.603266	0.177119
	C170	C	0.126725	0.386305	0.816688
	C171	C	0.880912	0.602707	0.813276
	C172	C	0.184984	0.873529	0.385920
	C173	C	0.186765	0.117137	0.604022
	C174	C	0.824971	0.119010	0.386691
	C175	C	0.826413	0.873529	0.604833
	C176	C	0.399133	0.178675	0.868656
	C177	C	0.611577	0.179075	0.122030
	C178	C	0.397923	0.813848	0.118123
	C179	C	0.613720	0.814005	0.871314
	C180	C	0.398420	0.870872	0.176313
	C181	C	0.612180	0.120630	0.178694
	C182	C	0.398563	0.119764	0.812377
	C183	C	0.613892	0.872062	0.814245
	C184	C	0.882131	0.177039	0.387019
	C185	C	0.129417	0.174889	0.604240
	C186	C	0.128162	0.815089	0.386499
	C187	C	0.883816	0.815658	0.605045
	C188	C	0.185590	0.387123	0.873573
	C189	C	0.188023	0.602650	0.119926
	C190	C	0.823812	0.387903	0.120178
	C191	C	0.823601	0.602783	0.871166
	C192	C	0.410402	0.085272	0.590154
	C193	C	0.602190	0.906374	0.591155
	C194	C	0.601136	0.084410	0.400113
	C195	C	0.410176	0.905824	0.399450
	C196	C	0.599990	0.401271	0.084432
	C197	C	0.601671	0.591086	0.904012
	C198	C	0.410053	0.591450	0.085310
	C199	C	0.411427	0.401432	0.906161
	C200	C	0.096376	0.592923	0.400140
	C201	C	0.915004	0.592895	0.592136
	C202	C	0.096267	0.397436	0.593383
	C203	C	0.916431	0.400322	0.400905
	C204	C	0.910078	0.584963	0.091173
	C205	C	0.102171	0.405377	0.092455
	C206	C	0.101541	0.585296	0.899190
	C207	C	0.909188	0.405048	0.899472
	C208	C	0.103521	0.897991	0.586573
	C209	C	0.101538	0.092306	0.404670
	C210	C	0.911655	0.090592	0.584967
	C211	C	0.910819	0.899669	0.405670
	C212	C	0.595274	0.090206	0.901450
	C213	C	0.416241	0.088640	0.087837
	C214	C	0.595835	0.898971	0.089395
	C215	C	0.414454	0.897595	0.897908
	Zn216	Zn	0.506273	-0.004175	0.745459
	Zn217	Zn	0.505657	-0.005052	0.244348
	Zn218	Zn	0.755714	0.495024	-0.005077
	Zn219	Zn	0.256003	0.495067	-0.003868
	Zn220	Zn	0.005974	0.745911	0.496178
	Zn221	Zn	0.006196	0.245184	0.495455
	Zn222	Zn	0.004920	0.494640	0.745347
	Zn223	Zn	0.005735	0.495629	0.246159
	Zn224	Zn	0.505631	0.744708	-0.005715
	Zn225	Zn	0.505403	0.244898	-0.004831
	Zn226	Zn	0.756339	-0.003917	0.495872
	Zn227	Zn	0.255741	-0.004355	0.494253
	N228	N	0.419432	0.961507	0.674753
	N229	N	0.594880	0.029348	0.677062
	N230	N	0.594611	0.962146	0.313507
	N231	N	0.417299	0.028363	0.312910
	N232	N	0.685842	0.407994	0.961087
	N233	N	0.685774	0.581881	0.029060
	N234	N	0.325020	0.582512	0.960889
	N235	N	0.326888	0.408690	0.029930
	N236	N	0.971463	0.676280	0.408745
	N237	N	0.040469	0.674916	0.582963
	N238	N	0.971683	0.313574	0.583793
	N239	N	0.040450	0.315851	0.409093
	N240	N	0.970149	0.408430	0.674713
	N241	N	0.040537	0.580826	0.675088
	N242	N	0.971681	0.582874	0.315998
	N243	N	0.041144	0.410222	0.317152
	N244	N	0.417771	0.675535	0.960587
	N245	N	0.592968	0.675069	0.028525
	N246	N	0.594019	0.313813	0.962009
	N247	N	0.418248	0.314433	0.028733
	N248	N	0.687223	0.961860	0.407668
	N249	N	0.687113	0.029922	0.583085
	N250	N	0.325650	0.961794	0.581842
	N251	N	0.324825	0.029397	0.406587
	N252	N	0.919019	0.461034	0.175924
	N253	N	0.092894	0.529899	0.176103
	N254	N	0.090578	0.459959	0.817185
	N255	N	0.917665	0.529188	0.814712
	N256	N	0.184963	0.909180	0.460270
	N257	N	0.185701	0.081768	0.529439
	N258	N	0.826954	0.081891	0.460286
	N259	N	0.827034	0.909431	0.530530
	N260	N	0.472382	0.176584	0.906507
	N261	N	0.538639	0.176167	0.083457
	N262	N	0.471340	0.815206	0.081059
	N263	N	0.539434	0.814307	0.907049
	N264	N	0.472344	0.907268	0.175008
	N265	N	0.539545	0.081778	0.174704
	N266	N	0.471310	0.081400	0.815990
	N267	N	0.539731	0.908062	0.815116
	N268	N	0.919208	0.175574	0.460865
	N269	N	0.093332	0.175075	0.529941
	N270	N	0.093545	0.814752	0.461399
	N271	N	0.919616	0.815985	0.530629
	N272	N	0.185635	0.461289	0.908815
	N273	N	0.186935	0.529085	0.083769
	N274	N	0.825271	0.461268	0.083087
	N275	N	0.825348	0.529360	0.908139
	O276	O	-0.212669	0.963306	0.208490
	H277	H	-0.204432	0.968625	0.200112
	H278	H	-0.234710	0.963469	0.228682
	O279	O	0.437427	0.421770	0.551284
	H280	H	0.444495	0.416619	0.542294
	H281	H	0.439087	0.419388	0.559152
	O282	O	0.950960	0.231515	1.051686
	H283	H	0.932642	0.231242	1.053607
	H284	H	0.952346	0.237081	1.048913
	O285	O	0.360750	0.473242	0.283653
	H286	H	0.351357	0.497757	0.281046
	H287	H	0.354000	0.477260	0.281662
	O288	O	0.341422	0.574578	0.566086
	H289	H	0.347943	0.580942	0.584151
	H290	H	0.340162	0.555552	0.552574
	O291	O	0.574409	0.463807	0.375817
	H292	H	0.565821	0.471656	0.374248
	H293	H	0.586519	0.451449	0.367643
	O294	O	0.952176	0.050225	0.964159
	H295	H	0.938203	0.032459	0.963746
	H296	H	0.948908	0.052591	0.954788
	O297	O	0.423234	0.555412	0.268423
	H298	H	0.404170	0.574677	0.265145
	H299	H	0.405912	0.552055	0.259132
	O300	O	-0.158052	0.071115	0.833959
	H301	H	-0.171410	0.075831	0.842649
	H302	H	-0.170738	0.076678	0.819052
	O303	O	0.717054	0.508243	0.592312
	H304	H	0.723532	0.496895	0.566050
	H305	H	0.728464	0.501873	0.607370
	O306	O	0.721973	0.360927	0.498094
	H307	H	0.731540	0.350511	0.477084
	H308	H	0.719039	0.359317	0.481381
	O309	O	0.320439	0.687600	0.684155
	H310	H	0.302377	0.702217	0.694938
	H311	H	0.316787	0.695133	0.667386
	O312	O	0.534598	0.716857	0.717916
	H313	H	0.548696	0.730035	0.734176
	H314	H	0.530271	0.727382	0.719279
	O315	O	1.023235	0.929935	0.989320
	H316	H	0.997770	0.922580	1.001813
	H317	H	1.023568	0.951423	0.986589
	O318	O	0.576080	0.264432	0.453994
	H319	H	0.579472	0.264755	0.443806
	H320	H	0.579915	0.257849	0.445063
	O321	O	-0.178195	0.804140	0.809742
	H322	H	-0.202235	0.782626	0.803329
	H323	H	-0.186316	0.795699	0.824319
	O324	O	0.966498	0.805498	0.195924
	H325	H	0.962916	0.793779	0.195551
	H326	H	0.955543	0.808082	0.204097
	O327	O	0.028248	-0.043285	0.899926
	H328	H	0.021426	-0.052364	0.897257
	H329	H	0.024886	-0.064580	0.897016
	O330	O	0.712593	0.486291	0.484054
	H331	H	0.709481	0.474882	0.475049
	H332	H	0.712432	0.493118	0.470032
	O333	O	0.508859	0.381683	0.633018
	H334	H	0.493962	0.372564	0.635984
	H335	H	0.507048	0.375187	0.645299
	O336	O	0.494562	0.532691	0.270599
	H337	H	0.493425	0.524294	0.256073
	H338	H	0.479368	0.527968	0.278147
	O339	O	0.933879	0.115935	0.782677
	H340	H	0.925798	0.096488	0.770250
	H341	H	0.923697	0.111913	0.781397
	O342	O	0.169446	-0.056691	0.070206
	H343	H	0.170060	-0.042434	0.064807
	H344	H	0.166629	-0.054648	0.060914
	O345	O	0.062098	0.806084	1.089486
	H346	H	0.068424	0.811446	1.085259
	H347	H	0.056737	0.799170	1.102367
	O348	O	0.209889	0.202135	0.198038
	H349	H	0.240748	0.228053	0.231142
	H350	H	0.181360	0.192217	0.193305
	O351	O	0.294380	0.262258	0.518764
	H352	H	0.288698	0.255489	0.549307
	H353	H	0.278334	0.242210	0.542762
	O354	O	0.047062	-0.224043	0.827552
	H355	H	0.047359	-0.229882	0.818984
	H356	H	0.049103	-0.240918	0.826815
	O357	O	0.610612	0.596193	0.469354
	H358	H	0.612720	0.583849	0.472519
	H359	H	0.586370	0.593264	0.466074
	O360	O	0.404938	0.386347	0.475218
	H361	H	0.403345	0.392533	0.479302
	H362	H	0.400750	0.373242	0.490501
	O363	O	-0.182365	0.181983	0.178478
	H364	H	-0.176783	0.159328	0.155749
	H365	H	-0.165275	0.169623	0.169748
	O366	O	0.315660	0.301742	0.302871
	H367	H	0.325217	0.319523	0.330704
	H368	H	0.346518	0.318330	0.308286
	O369	O	0.712726	0.281923	0.287423
	H370	H	0.723626	0.285136	0.278328
	H371	H	0.717008	0.285606	0.274309
	O372	O	1.160710	1.108609	-0.042528
	H373	H	1.151178	1.110846	-0.052174
	H374	H	1.160577	1.130727	-0.040333
	O375	O	0.940434	0.043481	0.217208
	H376	H	0.948231	0.031206	0.219647
	H377	H	0.937362	0.033674	0.215369
	O378	O	0.501077	0.679654	0.357911
	H379	H	0.499950	0.687046	0.342277
	H380	H	0.504018	0.688632	0.364216
	O381	O	-0.175508	0.996851	0.984644
	H382	H	-0.179582	0.995253	0.981390
	H383	H	-0.175130	0.973413	0.979481
	O384	O	0.783965	0.185443	0.949426
	H385	H	0.786687	0.176393	0.937027
	H386	H	0.763775	0.201496	0.937923
	O387	O	1.195981	1.186460	-0.190812
	H388	H	1.183675	1.164206	-0.172890
	H389	H	1.171850	1.175610	-0.168974
	O390	O	0.532751	0.286570	0.279263
	H391	H	0.538078	0.266288	0.265580
	H392	H	0.544190	0.280754	0.286548
	O393	O	0.483005	0.275634	0.709420
	H394	H	0.450301	0.262909	0.724179
	H395	H	0.466480	0.276795	0.716542
	O396	O	0.216496	0.787553	0.783357
	H397	H	0.194251	0.796083	0.799964
	H398	H	0.219539	0.813890	0.799820
	O399	O	0.198949	-0.022450	0.779602
	H400	H	0.210461	-0.015351	0.771137
	H401	H	0.194746	-0.018225	0.792503
	O402	O	0.291059	0.490125	0.462939
	H403	H	0.295440	0.487109	0.451643
	H404	H	0.291070	0.474663	0.463090
	O405	O	0.785583	-0.229781	1.217101
	H406	H	0.755372	-0.258488	1.246270
	H407	H	0.791941	-0.205879	1.226501
	O408	O	0.225387	0.206569	0.017858
	H409	H	0.208823	0.213283	0.040059
	H410	H	0.237241	0.232373	0.031573
	O411	O	0.713203	0.706832	0.707931
	H412	H	0.707124	0.708570	0.663596
	H413	H	0.696316	0.673758	0.708867
	O414	O	0.730764	0.271196	0.721144
	H415	H	0.709803	0.284788	0.700887
	H416	H	0.714074	0.271912	0.713070
	O417	O	0.643984	0.593157	0.341187
	H418	H	0.621904	0.591501	0.340675
	H419	H	0.638560	0.593951	0.332046
	O420	O	0.678958	0.398984	0.383670
	H421	H	0.669283	0.396176	0.374469
	H422	H	0.669246	0.405512	0.380913
	O423	O	0.082516	-0.024601	1.127783
	H424	H	0.078082	-0.026981	1.134949
	H425	H	0.090647	-0.006734	1.118187
	O426	O	0.287794	0.723634	0.465535
	H427	H	0.264293	0.738803	0.456934
	H428	H	0.277464	0.704813	0.471351
	O429	O	0.819143	0.782089	1.009954
	H430	H	0.820931	0.771641	1.035090
	H431	H	0.812217	0.769352	1.023926
	O432	O	0.516627	0.726948	0.493728
	H433	H	0.511687	0.714787	0.490190
	H434	H	0.501139	0.731905	0.503854
	O435	O	-0.022488	0.904582	0.022412
	H436	H	-0.030924	0.909502	0.017380
	H437	H	-0.036536	0.907409	0.016760
	O438	O	0.225403	0.022429	0.209236
	H439	H	0.222765	0.045308	0.208418
	H440	H	0.241553	0.027451	0.226473
	O441	O	0.042049	0.207874	0.208482
	H442	H	0.050891	0.213977	0.213885
	H443	H	0.031105	0.204967	0.215046
	O444	O	0.443638	0.648072	0.513613
	H445	H	0.445947	0.651849	0.519347
	H446	H	0.427725	0.644040	0.520936
	O447	O	0.009633	0.800990	0.866737
	H448	H	0.002232	0.798016	0.863585
	H449	H	0.011111	0.805066	0.877629
	O450	O	-0.073711	0.945855	0.795865
	H451	H	-0.082439	0.913422	0.780717
	H452	H	-0.072101	0.943972	0.791642
	O453	O	0.284717	0.448525	0.712287
	H454	H	0.302477	0.470338	0.712160
	H455	H	0.271128	0.464354	0.733805
	O456	O	0.292903	0.281018	0.704750
	H457	H	0.259644	0.252282	0.740016
	H458	H	0.285702	0.334006	0.713063
	O459	O	0.678827	0.664087	0.298937
	H460	H	0.652908	0.644040	0.303143
	H461	H	0.661999	0.649868	0.324930
	O462	O	0.549534	0.515280	0.617561
	H463	H	0.547910	0.519716	0.626075
	H464	H	0.545708	0.522892	0.612407
	O465	O	1.024095	0.201056	-0.102934
	H466	H	1.006096	0.205238	-0.121831
	H467	H	1.002292	0.200949	-0.102154
	O468	O	0.298386	0.701925	0.283377
	H469	H	0.273841	0.731147	0.258036
	H470	H	0.314707	0.705650	0.305503
	O471	O	0.366375	0.532344	0.444939
	H472	H	0.346192	0.522789	0.454310
	H473	H	0.356074	0.513609	0.447056
	O474	O	0.201310	0.801064	0.188829
	H475	H	0.186855	0.820298	0.170813
	H476	H	0.191681	0.812483	0.176000
	O477	O	0.451671	0.555258	1.698681
	H478	H	0.456374	0.571920	1.694378
	H479	H	0.455042	0.558050	1.698171
	O480	O	0.525373	0.269018	0.568250
	H481	H	0.513878	0.268571	0.602481
	H482	H	0.541956	0.275228	0.567191
	O483	O	0.698739	0.452596	0.699645
	H484	H	0.696459	0.455518	0.697395
	H485	H	0.696172	0.455312	0.697237
	O486	O	0.883290	0.160306	0.820139
	H487	H	0.893506	0.155266	0.824875
	H488	H	0.855495	0.174930	0.795663
	O489	O	1.219940	0.772001	-0.033806
	H490	H	1.227641	0.780369	-0.031976
	H491	H	1.231046	0.764113	-0.032602
	O492	O	0.070898	0.028929	0.126725
	H493	H	0.076972	0.031923	0.133122
	H494	H	0.076114	0.036381	0.121187
	O495	O	-0.212690	0.983354	0.999346
	H496	H	-0.213688	0.988349	0.997559
	H497	H	-0.206831	0.964205	0.995012
	O498	O	1.077265	0.993998	0.884580
	H499	H	1.074386	0.982421	0.895083
	H500	H	1.074184	0.999808	0.894361
	O501	O	0.724170	0.716622	0.531343
	H502	H	0.704859	0.711499	0.514805
	H503	H	0.745666	0.740632	0.526754
