data_Molecule from HDF5

_cell_length_a		16.324708
_cell_length_b		16.240617
_cell_length_c		16.219839
_cell_angle_alpha	89.565502
_cell_angle_beta	90.418006
_cell_angle_gamma	89.509055
_symmetry_space_group_name_H-M	'P 1'
_symmetry_Int_Tables_number		1

loop_
	_symmetry_equiv_pos_as_xyz
	x,y,z

loop_
	_atom_site_label
	_atom_site_type_symbol
	_atom_site_fract_x
	_atom_site_fract_y
	_atom_site_fract_z
	H0	H	0.410023	0.840891	0.713207
	H1	H	0.604209	0.168571	0.713005
	H2	H	0.606232	0.840719	0.287760
	H3	H	0.405083	0.168468	0.280919
	H4	H	0.717436	0.405386	0.832022
	H5	H	0.722438	0.602905	0.158867
	H6	H	0.289451	0.604594	0.831652
	H7	H	0.290889	0.404300	0.160139
	H8	H	0.844648	0.726060	0.392281
	H9	H	0.169813	0.714545	0.594960
	H10	H	0.841779	0.291541	0.594084
	H11	H	0.168801	0.288695	0.399318
	H12	H	0.841367	0.406404	0.709118
	H13	H	0.167936	0.600365	0.712430
	H14	H	0.842658	0.606960	0.279305
	H15	H	0.169276	0.406568	0.284036
	H16	H	0.402603	0.723343	0.833803
	H17	H	0.602629	0.713761	0.162457
	H18	H	0.603083	0.289372	0.833852
	H19	H	0.409497	0.291429	0.162312
	H20	H	0.723968	0.842276	0.400557
	H21	H	0.720378	0.169039	0.598559
	H22	H	0.292808	0.841495	0.599262
	H23	H	0.288831	0.168063	0.396332
	H24	H	0.908526	0.341169	0.211482
	H25	H	0.103138	0.669237	0.209529
	H26	H	0.101284	0.339257	0.786170
	H27	H	0.904088	0.668940	0.779939
	H28	H	0.221831	0.906553	0.333503
	H29	H	0.221182	0.103360	0.661739
	H30	H	0.787746	0.107739	0.334630
	H31	H	0.794294	0.904587	0.662121
	H32	H	0.342273	0.221851	0.896561
	H33	H	0.668592	0.217641	0.098049
	H34	H	0.342010	0.790676	0.097369
	H35	H	0.667990	0.787761	0.901764
	H36	H	0.342691	0.906407	0.213216
	H37	H	0.669227	0.100850	0.213230
	H38	H	0.343515	0.106269	0.780279
	H39	H	0.669754	0.904619	0.786455
	H40	H	0.906244	0.220386	0.332783
	H41	H	0.103016	0.217022	0.661959
	H42	H	0.107149	0.791552	0.332390
	H43	H	0.910942	0.788209	0.660345
	H44	H	0.221648	0.341176	0.897342
	H45	H	0.219050	0.669568	0.094009
	H46	H	0.793684	0.340268	0.093950
	H47	H	0.785700	0.667487	0.893023
	H48	H	0.412679	0.122520	0.592369
	H49	H	0.596535	0.890264	0.589901
	H50	H	0.599542	0.123266	0.404488
	H51	H	0.417573	0.890136	0.411040
	H52	H	0.603088	0.415957	0.114749
	H53	H	0.593549	0.590851	0.882864
	H54	H	0.417077	0.595141	0.111579
	H55	H	0.410099	0.405013	0.877004
	H56	H	0.128171	0.606755	0.391643
	H57	H	0.888827	0.590409	0.598200
	H58	H	0.120199	0.417034	0.595412
	H59	H	0.891203	0.416761	0.404536
	H60	H	0.124360	0.402882	0.594950
	H61	H	0.885423	0.612527	0.586231
	H62	H	0.119985	0.603283	0.416905
	H63	H	0.887641	0.413571	0.398097
	H64	H	0.410526	0.602222	0.115418
	H65	H	0.588435	0.602091	0.879812
	H66	H	0.594983	0.408914	0.112674
	H67	H	0.406421	0.419999	0.880014
	H68	H	0.593538	0.122627	0.403509
	H69	H	0.606858	0.887630	0.589475
	H70	H	0.416216	0.119862	0.587595
	H71	H	0.408053	0.887097	0.407115
	H72	H	0.914589	0.618389	0.077809
	H73	H	0.098804	0.387568	0.093688
	H74	H	0.088774	0.619015	0.903576
	H75	H	0.905397	0.384149	0.896183
	H76	H	0.094507	0.901126	0.614007
	H77	H	0.097565	0.094324	0.381689
	H78	H	0.922325	0.100668	0.612559
	H79	H	0.911433	0.916757	0.380110
	H80	H	0.623506	0.103093	0.907504
	H81	H	0.392447	0.094592	0.083878
	H82	H	0.621780	0.897193	0.082818
	H83	H	0.390477	0.920762	0.902380
	H84	H	0.616862	0.923233	0.090026
	H85	H	0.388521	0.094393	0.095639
	H86	H	0.619062	0.093874	0.911214
	H87	H	0.386413	0.909099	0.900697
	H88	H	0.907025	0.103722	0.618298
	H89	H	0.094885	0.099200	0.380429
	H90	H	0.111156	0.908365	0.616954
	H91	H	0.914961	0.919408	0.382907
	H92	H	0.101587	0.621525	0.908163
	H93	H	0.096083	0.390245	0.088051
	H94	H	0.903530	0.623663	0.086222
	H95	H	0.918089	0.389203	0.900229
	H96	H	0.410161	0.121692	0.586046
	H97	H	0.601904	0.886329	0.598537
	H98	H	0.596606	0.120547	0.409084
	H99	H	0.416569	0.886640	0.401209
	H100	H	0.603599	0.405203	0.116206
	H101	H	0.601647	0.599494	0.877469
	H102	H	0.407463	0.592138	0.113512
	H103	H	0.420380	0.414678	0.883072
	H104	H	0.118092	0.582650	0.399653
	H105	H	0.894194	0.592651	0.573358
	H106	H	0.119483	0.409911	0.582716
	H107	H	0.889163	0.409353	0.403928
	H108	H	0.917000	0.621416	0.092278
	H109	H	0.102482	0.387978	0.088224
	H110	H	0.098028	0.624204	0.895938
	H111	H	0.907102	0.388852	0.909693
	H112	H	0.096574	0.918537	0.610175
	H113	H	0.100027	0.097958	0.379679
	H114	H	0.910842	0.088553	0.612673
	H115	H	0.916520	0.914535	0.381138
	H116	H	0.622902	0.094289	0.901140
	H117	H	0.388151	0.103821	0.089321
	H118	H	0.626945	0.904724	0.108611
	H119	H	0.391456	0.912957	0.911460
	C120	C	0.385251	0.013213	0.618935
	C121	C	0.629374	0.996155	0.620983
	C122	C	0.626834	0.013913	0.378112
	C123	C	0.384209	0.996097	0.376247
	C124	C	0.627091	0.382606	0.005417
	C125	C	0.624757	0.625071	0.988383
	C126	C	0.382211	0.626844	0.005192
	C127	C	0.384465	0.384048	0.988619
	C128	C	0.014716	0.628422	0.372590
	C129	C	0.997238	0.625472	0.616378
	C130	C	0.013323	0.382303	0.618774
	C131	C	0.997202	0.383704	0.374652
	C132	C	0.884292	0.513042	0.115642
	C133	C	0.127195	0.496822	0.117910
	C134	C	0.125603	0.513004	0.874869
	C135	C	0.880763	0.495759	0.872332
	C136	C	0.129751	0.881716	0.505279
	C137	C	0.126370	0.125397	0.489178
	C138	C	0.883757	0.127480	0.506305
	C139	C	0.886232	0.885565	0.489313
	C140	C	0.514111	0.127162	0.875993
	C141	C	0.497517	0.125376	0.119229
	C142	C	0.513791	0.881441	0.121288
	C143	C	0.497191	0.883778	0.877207
	C144	C	0.389087	0.889992	0.675267
	C145	C	0.625130	0.119750	0.675456
	C146	C	0.626408	0.889970	0.324276
	C147	C	0.385455	0.119345	0.319388
	C148	C	0.680270	0.385111	0.881473
	C149	C	0.682801	0.622612	0.110740
	C150	C	0.326674	0.625681	0.881162
	C151	C	0.329245	0.384811	0.111693
	C152	C	0.892806	0.686678	0.372867
	C153	C	0.120423	0.678163	0.615285
	C154	C	0.890626	0.328502	0.615125
	C155	C	0.119991	0.327169	0.378498
	C156	C	0.890419	0.385821	0.672364
	C157	C	0.119494	0.621215	0.673499
	C158	C	0.891783	0.627252	0.316813
	C159	C	0.120414	0.385865	0.321287
	C160	C	0.383252	0.684241	0.882317
	C161	C	0.623042	0.677721	0.112482
	C162	C	0.623495	0.327421	0.882379
	C163	C	0.388207	0.328690	0.112649
	C164	C	0.684828	0.890837	0.380545
	C165	C	0.683154	0.119830	0.618799
	C166	C	0.330644	0.890166	0.618591
	C167	C	0.327295	0.119238	0.376391
	C168	C	0.887688	0.390057	0.172890
	C169	C	0.124056	0.620320	0.172035
	C170	C	0.122919	0.389069	0.821674
	C171	C	0.882766	0.619464	0.816813
	C172	C	0.184720	0.885392	0.382406
	C173	C	0.182573	0.123233	0.612803
	C174	C	0.826639	0.127313	0.383211
	C175	C	0.832010	0.885330	0.612771
	C176	C	0.391324	0.183634	0.876724
	C177	C	0.620129	0.179498	0.117601
	C178	C	0.390867	0.827854	0.117932
	C179	C	0.619589	0.826346	0.880711
	C180	C	0.391246	0.885343	0.175726
	C181	C	0.620703	0.121208	0.174584
	C182	C	0.391918	0.126286	0.818782
	C183	C	0.620355	0.884608	0.823473
	C184	C	0.885510	0.183165	0.382354
	C185	C	0.123918	0.179666	0.612966
	C186	C	0.127512	0.828256	0.381785
	C187	C	0.889898	0.827308	0.611753
	C188	C	0.182222	0.389729	0.877576
	C189	C	0.181905	0.620162	0.114988
	C190	C	0.830414	0.389621	0.114656
	C191	C	0.824325	0.618803	0.873377
	C192	C	0.406710	0.099108	0.595469
	C193	C	0.608463	0.910233	0.598937
	C194	C	0.603301	0.099844	0.399378
	C195	C	0.407271	0.910203	0.399700
	C196	C	0.606678	0.403907	0.092105
	C197	C	0.601233	0.603708	0.902256
	C198	C	0.404920	0.603374	0.091136
	C199	C	0.405981	0.406764	0.902244
	C200	C	0.100065	0.604591	0.395901
	C201	C	0.911515	0.604680	0.592813
	C202	C	0.099101	0.403697	0.597451
	C203	C	0.911433	0.406531	0.395889
	C204	C	0.905437	0.598917	0.092268
	C205	C	0.105517	0.410842	0.096282
	C206	C	0.102928	0.599325	0.896365
	C207	C	0.903504	0.409617	0.895367
	C208	C	0.107413	0.903090	0.591458
	C209	C	0.104026	0.103492	0.403089
	C210	C	0.906608	0.104350	0.592335
	C211	C	0.908006	0.909818	0.403535
	C212	C	0.599716	0.103909	0.899605
	C213	C	0.411817	0.103932	0.096369
	C214	C	0.599623	0.902274	0.100071
	C215	C	0.411500	0.907471	0.898524
	Zn216	Zn	0.507049	0.005035	0.747901
	Zn217	Zn	0.506627	0.004097	0.249118
	Zn218	Zn	0.753890	0.504440	-0.004748
	Zn219	Zn	0.254927	0.504677	-0.003864
	Zn220	Zn	0.007359	0.755337	0.495396
	Zn221	Zn	0.005501	0.254475	0.497493
	Zn222	Zn	0.004159	0.504639	0.746060
	Zn223	Zn	0.005489	0.505552	0.245550
	Zn224	Zn	0.504484	0.754445	-0.001433
	Zn225	Zn	0.505598	0.254807	-0.002052
	Zn226	Zn	0.756027	0.005973	0.498170
	Zn227	Zn	0.255920	0.004608	0.497989
	N228	N	0.422320	0.967508	0.675557
	N229	N	0.592595	0.041984	0.677110
	N230	N	0.591148	0.967304	0.322543
	N231	N	0.420015	0.041591	0.318992
	N232	N	0.682627	0.418849	0.959061
	N233	N	0.683913	0.590648	0.032489
	N234	N	0.325903	0.590492	0.958633
	N235	N	0.326649	0.418349	0.033561
	N236	N	0.970308	0.687193	0.406894
	N237	N	0.043386	0.680955	0.580222
	N238	N	0.968105	0.326164	0.582474
	N239	N	0.042401	0.325838	0.411051
	N240	N	0.967732	0.418864	0.674491
	N241	N	0.041788	0.589370	0.674370
	N242	N	0.968722	0.592108	0.316470
	N243	N	0.043178	0.420347	0.318905
	N244	N	0.416910	0.685198	0.960297
	N245	N	0.587929	0.679473	0.035173
	N246	N	0.591171	0.325744	0.960426
	N247	N	0.421770	0.327951	0.034988
	N248	N	0.685039	0.968782	0.413259
	N249	N	0.686055	0.042102	0.585689
	N250	N	0.328043	0.967895	0.584249
	N251	N	0.326354	0.041733	0.411125
	N252	N	0.920437	0.467951	0.173801
	N253	N	0.090894	0.542647	0.174198
	N254	N	0.088317	0.466816	0.819956
	N255	N	0.917119	0.541894	0.815856
	N256	N	0.186159	0.918003	0.460450
	N257	N	0.184204	0.090165	0.534854
	N258	N	0.825340	0.093540	0.461013
	N259	N	0.829839	0.920912	0.535565
	N260	N	0.468351	0.184168	0.911682
	N261	N	0.542613	0.182185	0.084046
	N262	N	0.468215	0.825345	0.084850
	N263	N	0.541992	0.825584	0.913278
	N264	N	0.468761	0.917668	0.178157
	N265	N	0.543318	0.088068	0.175650
	N266	N	0.469313	0.092082	0.818162
	N267	N	0.543177	0.919456	0.821142
	N268	N	0.920357	0.183447	0.460000
	N269	N	0.089820	0.181356	0.535200
	N270	N	0.094038	0.825824	0.459370
	N271	N	0.922897	0.827353	0.533967
	N272	N	0.184043	0.467800	0.909745
	N273	N	0.183895	0.542365	0.081961
	N274	N	0.828161	0.467027	0.079648
	N275	N	0.822725	0.540748	0.906891
	O276	O	0.008915	0.012062	0.016603
	H277	H	0.010118	0.009213	0.005718
	H278	H	0.010951	0.008822	0.019402
	O279	O	0.541360	0.434502	0.484194
	H280	H	0.541932	0.434371	0.492319
	H281	H	0.556843	0.426239	0.489296
	O282	O	0.462108	0.578323	0.466298
	H283	H	0.459605	0.577869	0.471468
	H284	H	0.455231	0.583751	0.455075
	O285	O	0.985199	-0.033467	1.021411
	H286	H	0.976839	-0.028881	1.024760
	H287	H	0.983508	-0.025962	1.018521
	O288	O	1.033418	-0.088352	-0.001639
	H289	H	1.039363	-0.084502	0.004518
	H290	H	1.027392	-0.081144	-0.000611
	O291	O	0.465652	0.497500	0.562573
	H292	H	0.465256	0.495887	0.562947
	H293	H	0.462578	0.499702	0.566585
	O294	O	1.006512	-0.078957	0.995187
	H295	H	1.000404	-0.082494	0.993855
	H296	H	1.010519	-0.086681	0.992390
	O297	O	0.067586	-0.040171	-0.059072
	H298	H	0.076080	-0.044356	-0.052279
	H299	H	0.068190	-0.048553	-0.061971
	O300	O	0.572758	0.514621	0.534948
	H301	H	0.574120	0.521467	0.540645
	H302	H	0.579824	0.514393	0.542042
	O303	O	0.437646	0.528343	0.514333
	H304	H	0.438579	0.533966	0.510877
	H305	H	0.440629	0.522567	0.506088
	O306	O	0.918401	-0.023893	0.038555
	H307	H	0.924308	-0.027249	0.050615
	H308	H	0.910164	-0.008541	0.030996
	O309	O	-0.053914	0.008327	1.003479
	H310	H	-0.049217	0.012571	1.002237
	H311	H	-0.047434	0.022585	0.998207
	O312	O	1.058897	1.030527	1.092706
	H313	H	1.050227	1.038415	1.098560
	H314	H	1.059352	1.028989	1.096584
	O315	O	0.449306	0.529019	0.537761
	H316	H	0.451448	0.537902	0.544016
	H317	H	0.441417	0.535272	0.530045
	O318	O	0.529020	0.534876	0.443686
	H319	H	0.520631	0.544330	0.439014
	H320	H	0.529409	0.542524	0.450431
	O321	O	0.027757	0.971766	1.014086
	H322	H	0.028587	0.962613	1.011625
	H323	H	0.031063	0.967843	1.002125
	O324	O	0.490962	0.489952	0.436737
	H325	H	0.485811	0.486590	0.441113
	H326	H	0.487017	0.493978	0.427446
	O327	O	0.530040	0.495488	0.460816
	H328	H	0.531627	0.499144	0.454721
	H329	H	0.541898	0.490755	0.449338
	O330	O	0.464731	0.636601	0.458168
	H331	H	0.462414	0.639907	0.462837
	H332	H	0.465869	0.632608	0.463916
	O333	O	0.492570	0.484735	0.467695
	H334	H	0.489146	0.484923	0.463974
	H335	H	0.494501	0.478938	0.476568
	O336	O	0.468987	0.599661	0.488045
	H337	H	0.473245	0.601796	0.489128
	H338	H	0.454079	0.604198	0.495981
	O339	O	1.039268	0.988173	-0.025943
	H340	H	1.047092	0.982503	-0.024063
	H341	H	1.042522	0.979281	-0.022858
	O342	O	0.469908	0.462313	0.540975
	H343	H	0.466880	0.469481	0.547697
	H344	H	0.467111	0.459081	0.537281
	O345	O	0.558919	0.550723	0.506384
	H346	H	0.562754	0.546295	0.500605
	H347	H	0.553130	0.550432	0.498118
	O348	O	-0.065058	-0.081070	-0.094094
	H349	H	-0.063982	-0.073226	-0.092067
	H350	H	-0.066541	-0.082456	-0.106540
	O351	O	-0.029741	0.997751	1.052520
	H352	H	-0.029250	0.992450	1.058296
	H353	H	-0.038513	1.000876	1.043482
	O354	O	0.546213	0.543129	0.479484
	H355	H	0.547645	0.543858	0.484807
	H356	H	0.549855	0.550437	0.478816
	O357	O	0.032147	1.050070	0.963060
	H358	H	0.024524	1.058239	0.963541
	H359	H	0.046267	1.053110	0.960084
