data_Molecule from HDF5

_cell_length_a		16.383549
_cell_length_b		16.292976
_cell_length_c		16.263455
_cell_angle_alpha	89.953210
_cell_angle_beta	89.966909
_cell_angle_gamma	90.116052
_symmetry_space_group_name_H-M	'P 1'
_symmetry_Int_Tables_number		1

loop_
	_symmetry_equiv_pos_as_xyz
	x,y,z

loop_
	_atom_site_label
	_atom_site_type_symbol
	_atom_site_fract_x
	_atom_site_fract_y
	_atom_site_fract_z
	H0	H	0.400866	0.848721	0.713562
	H1	H	0.595452	0.176736	0.714492
	H2	H	0.595921	0.848552	0.288089
	H3	H	0.400833	0.176036	0.285340
	H4	H	0.712478	0.414055	0.836568
	H5	H	0.713929	0.611597	0.163651
	H6	H	0.284059	0.612345	0.837002
	H7	H	0.283101	0.413111	0.163788
	H8	H	0.835514	0.729279	0.400012
	H9	H	0.160683	0.728924	0.597954
	H10	H	0.835188	0.296858	0.599834
	H11	H	0.160940	0.298758	0.400699
	H12	H	0.835065	0.415737	0.714560
	H13	H	0.161184	0.612813	0.714497
	H14	H	0.835067	0.611761	0.284864
	H15	H	0.161655	0.417545	0.286683
	H16	H	0.401146	0.726412	0.836760
	H17	H	0.594907	0.724710	0.165279
	H18	H	0.596843	0.298181	0.836611
	H19	H	0.400038	0.298189	0.164408
	H20	H	0.714351	0.850523	0.400734
	H21	H	0.714423	0.176134	0.601340
	H22	H	0.282468	0.850150	0.600110
	H23	H	0.284244	0.176565	0.400983
	H24	H	0.900853	0.348865	0.213350
	H25	H	0.094708	0.677478	0.212251
	H26	H	0.094493	0.348953	0.785667
	H27	H	0.902279	0.677873	0.787228
	H28	H	0.212859	0.915262	0.336897
	H29	H	0.212690	0.111918	0.664238
	H30	H	0.782782	0.113142	0.336732
	H31	H	0.783603	0.913958	0.663292
	H32	H	0.335686	0.226899	0.902019
	H33	H	0.661047	0.227284	0.098283
	H34	H	0.335212	0.797368	0.099413
	H35	H	0.661759	0.800172	0.904252
	H36	H	0.335490	0.913989	0.215953
	H37	H	0.661331	0.110794	0.214799
	H38	H	0.334950	0.109318	0.786834
	H39	H	0.660890	0.914999	0.786104
	H40	H	0.901621	0.226586	0.335949
	H41	H	0.094772	0.225863	0.664407
	H42	H	0.095291	0.801259	0.335950
	H43	H	0.900319	0.799279	0.664272
	H44	H	0.211818	0.348595	0.902156
	H45	H	0.212892	0.676493	0.098079
	H46	H	0.782672	0.349810	0.099112
	H47	H	0.784196	0.676719	0.901627
	H48	H	0.400231	0.128745	0.586815
	H49	H	0.584301	0.898520	0.594144
	H50	H	0.587708	0.131682	0.394153
	H51	H	0.402826	0.895925	0.407339
	H52	H	0.592154	0.416291	0.118217
	H53	H	0.596519	0.596973	0.885321
	H54	H	0.402425	0.607899	0.119596
	H55	H	0.400848	0.419128	0.883004
	H56	H	0.113967	0.607431	0.404247
	H57	H	0.880743	0.604379	0.602081
	H58	H	0.114741	0.417363	0.594791
	H59	H	0.885543	0.423692	0.411615
	H60	H	0.111804	0.420116	0.589693
	H61	H	0.881716	0.614517	0.589369
	H62	H	0.114482	0.610637	0.405864
	H63	H	0.880802	0.421535	0.399854
	H64	H	0.403628	0.600053	0.116165
	H65	H	0.582571	0.607838	0.886041
	H66	H	0.594388	0.424239	0.116744
	H67	H	0.406510	0.423772	0.885569
	H68	H	0.580744	0.123501	0.416889
	H69	H	0.593904	0.898346	0.587006
	H70	H	0.401441	0.132362	0.600501
	H71	H	0.405976	0.896627	0.407484
	H72	H	0.906080	0.626831	0.087548
	H73	H	0.098406	0.395116	0.092682
	H74	H	0.093886	0.627841	0.912224
	H75	H	0.902705	0.399669	0.915180
	H76	H	0.088711	0.923899	0.615228
	H77	H	0.092733	0.109149	0.383536
	H78	H	0.905823	0.108121	0.617503
	H79	H	0.915995	0.913782	0.384132
	H80	H	0.610812	0.104337	0.916500
	H81	H	0.384677	0.102650	0.089117
	H82	H	0.614699	0.916318	0.091867
	H83	H	0.381242	0.917261	0.905103
	H84	H	0.613610	0.921258	0.094148
	H85	H	0.382267	0.102694	0.097494
	H86	H	0.613619	0.099438	0.899224
	H87	H	0.382312	0.916810	0.909875
	H88	H	0.902493	0.104154	0.617022
	H89	H	0.094842	0.106839	0.382856
	H90	H	0.089318	0.916551	0.617167
	H91	H	0.893469	0.915656	0.378623
	H92	H	0.095160	0.630456	0.904146
	H93	H	0.090259	0.395338	0.098958
	H94	H	0.899085	0.631699	0.093393
	H95	H	0.897970	0.393612	0.902620
	H96	H	0.413044	0.127078	0.593933
	H97	H	0.595288	0.894495	0.598260
	H98	H	0.604150	0.131498	0.413446
	H99	H	0.404395	0.897578	0.410280
	H100	H	0.586273	0.421514	0.115169
	H101	H	0.597764	0.614277	0.880236
	H102	H	0.409633	0.605858	0.116195
	H103	H	0.407755	0.416763	0.883650
	H104	H	0.113134	0.607916	0.407878
	H105	H	0.885731	0.599164	0.587828
	H106	H	0.112880	0.423564	0.594987
	H107	H	0.880919	0.412629	0.408389
	H108	H	0.908993	0.629952	0.097231
	H109	H	0.088631	0.398525	0.089502
	H110	H	0.087733	0.628438	0.906196
	H111	H	0.911341	0.398240	0.904069
	H112	H	0.095558	0.921307	0.618091
	H113	H	0.091544	0.105725	0.383453
	H114	H	0.906950	0.103103	0.615003
	H115	H	0.905457	0.934157	0.387730
	H116	H	0.617962	0.115807	0.903544
	H117	H	0.381465	0.109902	0.092900
	H118	H	0.614770	0.917366	0.097628
	H119	H	0.383112	0.920961	0.906958
	C120	C	0.376739	0.021266	0.622134
	C121	C	0.620021	1.004756	0.622482
	C122	C	0.619653	0.021264	0.379348
	C123	C	0.376732	1.004708	0.379236
	C124	C	0.619316	0.391858	0.008388
	C125	C	0.620175	0.634191	0.992296
	C126	C	0.377040	0.633616	0.009245
	C127	C	0.376793	0.391274	0.992094
	C128	C	0.006137	0.636284	0.377489
	C129	C	0.990168	0.634796	0.621454
	C130	C	0.005764	0.391588	0.621767
	C131	C	0.990301	0.391401	0.378407
	C132	C	0.876623	0.521125	0.121344
	C133	C	0.120323	0.504629	0.121485
	C134	C	0.120157	0.520811	0.878545
	C135	C	0.876261	0.505312	0.878512
	C136	C	0.119443	0.892388	0.508763
	C137	C	0.120536	0.135242	0.491813
	C138	C	0.876935	0.134176	0.508326
	C139	C	0.876793	0.892106	0.491853
	C140	C	0.506746	0.134388	0.878576
	C141	C	0.490242	0.134070	0.121903
	C142	C	0.506477	0.890128	0.122985
	C143	C	0.490009	0.890510	0.879000
	C144	C	0.379576	0.898022	0.676836
	C145	C	0.616961	0.127667	0.677255
	C146	C	0.616858	0.898064	0.324787
	C147	C	0.379841	0.127355	0.323440
	C148	C	0.674667	0.393856	0.885475
	C149	C	0.675337	0.631681	0.115164
	C150	C	0.322023	0.632032	0.885747
	C151	C	0.320978	0.392668	0.115103
	C152	C	0.883991	0.691135	0.379995
	C153	C	0.112283	0.690712	0.618372
	C154	C	0.883687	0.335727	0.619746
	C155	C	0.112453	0.336960	0.380752
	C156	C	0.883664	0.394447	0.677082
	C157	C	0.112313	0.633413	0.676809
	C158	C	0.883805	0.632946	0.322394
	C159	C	0.112689	0.395649	0.323752
	C160	C	0.380309	0.688608	0.885548
	C161	C	0.616363	0.687881	0.115985
	C162	C	0.617230	0.336260	0.885481
	C163	C	0.379197	0.335739	0.115489
	C164	C	0.675516	0.898759	0.381030
	C165	C	0.675734	0.127470	0.620708
	C166	C	0.320865	0.898640	0.620179
	C167	C	0.322077	0.127655	0.380945
	C168	C	0.879481	0.397921	0.176190
	C169	C	0.116283	0.628416	0.175323
	C170	C	0.116259	0.397744	0.823510
	C171	C	0.880960	0.628781	0.824741
	C172	C	0.174329	0.895214	0.385347
	C173	C	0.175181	0.132537	0.615110
	C174	C	0.821454	0.132912	0.385301
	C175	C	0.821710	0.893948	0.614865
	C176	C	0.384032	0.189017	0.881502
	C177	C	0.612754	0.189262	0.118988
	C178	C	0.383908	0.835207	0.120323
	C179	C	0.612888	0.836701	0.882388
	C180	C	0.384012	0.893018	0.178226
	C181	C	0.612672	0.131470	0.177075
	C182	C	0.383836	0.131116	0.824034
	C183	C	0.612438	0.894117	0.824094
	C184	C	0.880290	0.189135	0.384901
	C185	C	0.116319	0.188908	0.615414
	C186	C	0.116196	0.838343	0.385112
	C187	C	0.879615	0.836775	0.615184
	C188	C	0.174401	0.397717	0.881092
	C189	C	0.175005	0.627790	0.118622
	C190	C	0.821154	0.398277	0.119193
	C191	C	0.822164	0.628221	0.881248
	C192	C	0.398536	0.107279	0.600111
	C193	C	0.597747	0.919130	0.599753
	C194	C	0.597478	0.106786	0.401644
	C195	C	0.398132	0.918853	0.401758
	C196	C	0.597322	0.414033	0.094521
	C197	C	0.598672	0.612740	0.906081
	C198	C	0.398658	0.611269	0.094941
	C199	C	0.398767	0.413425	0.906385
	C200	C	0.091792	0.614801	0.399334
	C201	C	0.904776	0.612531	0.599689
	C202	C	0.090944	0.413873	0.599561
	C203	C	0.904592	0.412922	0.400296
	C204	C	0.898262	0.607174	0.099259
	C205	C	0.098668	0.418596	0.100144
	C206	C	0.098529	0.606706	0.900950
	C207	C	0.897774	0.419235	0.900524
	C208	C	0.097733	0.914068	0.594564
	C209	C	0.099206	0.113696	0.405493
	C210	C	0.898641	0.111624	0.594272
	C211	C	0.898531	0.914499	0.405767
	C212	C	0.591936	0.113018	0.900137
	C213	C	0.404948	0.111688	0.099525
	C214	C	0.592253	0.911965	0.100966
	C215	C	0.404399	0.912097	0.900767
	Zn216	Zn	0.498053	0.012545	0.750302
	Zn217	Zn	0.498467	0.012282	0.250793
	Zn218	Zn	0.747816	0.512871	-0.000225
	Zn219	Zn	0.249083	0.512540	0.000221
	Zn220	Zn	-0.002242	0.764297	0.500038
	Zn221	Zn	-0.001656	0.262501	0.500175
	Zn222	Zn	-0.001736	0.513609	0.750790
	Zn223	Zn	-0.001749	0.513418	0.249392
	Zn224	Zn	0.498300	0.761752	0.000707
	Zn225	Zn	0.498278	0.263114	0.000350
	Zn226	Zn	0.748215	0.013460	0.500120
	Zn227	Zn	0.248272	0.013098	0.500495
	N228	N	0.413667	0.975251	0.677935
	N229	N	0.583202	0.050444	0.678387
	N230	N	0.582567	0.975152	0.323786
	N231	N	0.413129	0.050010	0.322339
	N232	N	0.676222	0.427645	0.963146
	N233	N	0.677835	0.599216	0.037263
	N234	N	0.320133	0.598290	0.963355
	N235	N	0.319208	0.426273	0.037437
	N236	N	0.961096	0.693299	0.413582
	N237	N	0.035256	0.691650	0.584673
	N238	N	0.960681	0.333909	0.585965
	N239	N	0.035275	0.334402	0.414045
	N240	N	0.960457	0.428588	0.678350
	N241	N	0.035601	0.599040	0.678589
	N242	N	0.960786	0.599318	0.320993
	N243	N	0.035550	0.429027	0.322307
	N244	N	0.413724	0.689892	0.963156
	N245	N	0.582639	0.689464	0.038519
	N246	N	0.583544	0.334954	0.962983
	N247	N	0.413325	0.334784	0.038186
	N248	N	0.677360	0.976317	0.414373
	N249	N	0.677765	0.049816	0.587049
	N250	N	0.319009	0.976261	0.586876
	N251	N	0.319974	0.050319	0.414970
	N252	N	0.913489	0.475134	0.177544
	N253	N	0.082705	0.551049	0.176993
	N254	N	0.083436	0.475343	0.821841
	N255	N	0.913918	0.551147	0.823112
	N256	N	0.176424	0.928241	0.463193
	N257	N	0.177880	0.099910	0.537035
	N258	N	0.819491	0.099161	0.462977
	N259	N	0.819597	0.927533	0.537217
	N260	N	0.461232	0.191180	0.914942
	N261	N	0.535667	0.190830	0.085419
	N262	N	0.461082	0.833331	0.086633
	N263	N	0.535731	0.834176	0.915650
	N264	N	0.461261	0.926395	0.179737
	N265	N	0.535540	0.097857	0.178883
	N266	N	0.460994	0.098034	0.821912
	N267	N	0.535157	0.927124	0.822292
	N268	N	0.913980	0.189967	0.462389
	N269	N	0.083158	0.190537	0.537890
	N270	N	0.082666	0.836491	0.462677
	N271	N	0.913023	0.835660	0.537611
	N272	N	0.176840	0.475271	0.914596
	N273	N	0.177680	0.549920	0.085946
	N274	N	0.819355	0.476017	0.085771
	N275	N	0.819410	0.550416	0.913931
	O276	O	-0.503958	-0.552541	1.485833
	H277	H	-0.509879	-0.552662	1.483303
	H278	H	-0.510264	-0.555396	1.495856
	O279	O	0.512802	0.463484	0.463868
	H280	H	0.520345	0.458291	0.463009
	H281	H	0.518272	0.456034	0.461826
	O282	O	0.523596	0.506199	0.527851
	H283	H	0.517316	0.511381	0.527277
	H284	H	0.528254	0.510251	0.521619
	O285	O	0.500772	0.467917	0.494124
	H286	H	0.506857	0.467373	0.489605
	H287	H	0.491005	0.473027	0.507018
	O288	O	0.440630	0.466600	0.604195
	H289	H	0.440040	0.454234	0.604490
	H290	H	0.441267	0.465202	0.616508
	O291	O	0.480375	0.537388	0.556857
	H292	H	0.470441	0.539631	0.553911
	H293	H	0.478271	0.531221	0.568620
	O294	O	0.500101	0.490249	0.510003
	H295	H	0.502984	0.494984	0.517933
	H296	H	0.503805	0.494182	0.503111
	O297	O	1.472674	-0.537317	-0.392031
	H298	H	1.474097	-0.537379	-0.409061
	H299	H	1.477836	-0.538641	-0.391903
