data_Molecule from HDF5

_cell_length_a		16.183816
_cell_length_b		16.242891
_cell_length_c		16.307294
_cell_angle_alpha	90.306211
_cell_angle_beta	89.305273
_cell_angle_gamma	90.470919
_symmetry_space_group_name_H-M	'P 1'
_symmetry_Int_Tables_number		1

loop_
	_symmetry_equiv_pos_as_xyz
	x,y,z

loop_
	_atom_site_label
	_atom_site_type_symbol
	_atom_site_fract_x
	_atom_site_fract_y
	_atom_site_fract_z
	H0	H	0.386779	0.835235	0.716380
	H1	H	0.591475	0.162826	0.717592
	H2	H	0.591337	0.836703	0.282794
	H3	H	0.393632	0.163161	0.287630
	H4	H	0.708429	0.401276	0.838997
	H5	H	0.703165	0.599788	0.166008
	H6	H	0.280974	0.596440	0.837179
	H7	H	0.271715	0.399644	0.163933
	H8	H	0.826383	0.713931	0.406551
	H9	H	0.156059	0.717730	0.596816
	H10	H	0.828035	0.285371	0.603310
	H11	H	0.156598	0.289150	0.399295
	H12	H	0.827965	0.402524	0.717188
	H13	H	0.156791	0.603439	0.713665
	H14	H	0.826271	0.599100	0.289927
	H15	H	0.153778	0.403054	0.282772
	H16	H	0.396143	0.712935	0.838263
	H17	H	0.590404	0.717831	0.163971
	H18	H	0.593328	0.283896	0.839269
	H19	H	0.389154	0.284971	0.164764
	H20	H	0.706485	0.836509	0.399783
	H21	H	0.704782	0.164831	0.598535
	H22	H	0.272433	0.837082	0.599226
	H23	H	0.282131	0.166170	0.406946
	H24	H	0.886116	0.338872	0.219883
	H25	H	0.092072	0.664640	0.216785
	H26	H	0.091163	0.337754	0.781811
	H27	H	0.894219	0.665302	0.788834
	H28	H	0.206723	0.904509	0.337595
	H29	H	0.205560	0.102497	0.664993
	H30	H	0.781958	0.096819	0.336313
	H31	H	0.772520	0.901222	0.664102
	H32	H	0.327626	0.212800	0.903466
	H33	H	0.655490	0.216750	0.099056
	H34	H	0.327832	0.784849	0.100509
	H35	H	0.656703	0.787334	0.900149
	H36	H	0.327884	0.898147	0.218977
	H37	H	0.655749	0.101385	0.214569
	H38	H	0.326954	0.096231	0.790286
	H39	H	0.653665	0.897396	0.780862
	H40	H	0.894814	0.215314	0.338592
	H41	H	0.090835	0.219471	0.664058
	H42	H	0.093146	0.786814	0.337925
	H43	H	0.889884	0.787530	0.664807
	H44	H	0.204005	0.335336	0.899949
	H45	H	0.206721	0.663881	0.098396
	H46	H	0.773690	0.337425	0.102561
	H47	H	0.779556	0.665275	0.906981
	H48	H	0.400197	0.116808	0.599007
	H49	H	0.586094	0.880418	0.595043
	H50	H	0.585832	0.115278	0.413181
	H51	H	0.400324	0.885354	0.413001
	H52	H	0.575294	0.401757	0.118235
	H53	H	0.580519	0.589547	0.888816
	H54	H	0.392606	0.593605	0.119899
	H55	H	0.398986	0.404606	0.884887
	H56	H	0.107508	0.598482	0.414907
	H57	H	0.873536	0.591604	0.601129
	H58	H	0.109105	0.416717	0.597923
	H59	H	0.872550	0.408809	0.406652
	H60	H	0.112470	0.402470	0.592465
	H61	H	0.872333	0.598853	0.598993
	H62	H	0.105961	0.586375	0.406169
	H63	H	0.872614	0.402406	0.412178
	H64	H	0.398962	0.586850	0.115380
	H65	H	0.587437	0.599889	0.882633
	H66	H	0.588849	0.405693	0.121348
	H67	H	0.399514	0.403880	0.884551
	H68	H	0.591708	0.119768	0.405371
	H69	H	0.573693	0.884882	0.593346
	H70	H	0.400150	0.116321	0.596106
	H71	H	0.395211	0.881894	0.408281
	H72	H	0.890986	0.619866	0.096609
	H73	H	0.080603	0.384514	0.091631
	H74	H	0.076804	0.619018	0.893553
	H75	H	0.903153	0.385283	0.908175
	H76	H	0.084665	0.911444	0.618277
	H77	H	0.092305	0.094407	0.383753
	H78	H	0.895351	0.092040	0.617135
	H79	H	0.898177	0.904333	0.382965
	H80	H	0.611385	0.095753	0.901607
	H81	H	0.376019	0.085478	0.094938
	H82	H	0.607818	0.906375	0.084213
	H83	H	0.374062	0.904262	0.906944
	H84	H	0.606654	0.917039	0.094370
	H85	H	0.372903	0.092779	0.100547
	H86	H	0.606830	0.094652	0.915869
	H87	H	0.373018	0.902620	0.910786
	H88	H	0.900862	0.093214	0.616863
	H89	H	0.085148	0.092783	0.385930
	H90	H	0.078677	0.911714	0.615785
	H91	H	0.898306	0.909685	0.385537
	H92	H	0.079847	0.610595	0.923137
	H93	H	0.081136	0.383023	0.094069
	H94	H	0.902047	0.619429	0.103324
	H95	H	0.899549	0.384900	0.911236
	H96	H	0.398031	0.117287	0.597612
	H97	H	0.582421	0.885392	0.584012
	H98	H	0.581121	0.116308	0.403831
	H99	H	0.402255	0.884026	0.406080
	H100	H	0.580763	0.415057	0.115806
	H101	H	0.593605	0.587422	0.884614
	H102	H	0.402256	0.596656	0.117353
	H103	H	0.398813	0.404067	0.884430
	H104	H	0.111503	0.599086	0.400258
	H105	H	0.875455	0.593480	0.593502
	H106	H	0.104788	0.414186	0.583299
	H107	H	0.875400	0.409970	0.413965
	H108	H	0.902649	0.615063	0.090265
	H109	H	0.078606	0.384322	0.094000
	H110	H	0.104507	0.622819	0.907311
	H111	H	0.898891	0.384293	0.907201
	H112	H	0.081003	0.906322	0.617547
	H113	H	0.086862	0.100328	0.384230
	H114	H	0.897102	0.096668	0.617611
	H115	H	0.903649	0.906032	0.386208
	H116	H	0.606401	0.082649	0.906241
	H117	H	0.374910	0.093533	0.091882
	H118	H	0.612778	0.903291	0.098427
	H119	H	0.374802	0.905539	0.910559
	C120	C	0.368160	0.008420	0.625284
	C121	C	0.611246	0.991459	0.621122
	C122	C	0.614537	0.008888	0.377799
	C123	C	0.371544	0.992259	0.381482
	C124	C	0.612334	0.378609	0.010480
	C125	C	0.614213	0.622236	0.993119
	C126	C	0.371254	0.620355	0.009478
	C127	C	0.368486	0.376219	0.992561
	C128	C	-0.000536	0.622504	0.380398
	C129	C	0.982933	0.624000	0.623925
	C130	C	0.000554	0.381049	0.621950
	C131	C	0.982440	0.379473	0.380054
	C132	C	0.868462	0.509834	0.125401
	C133	C	0.110784	0.492148	0.121718
	C134	C	0.114682	0.509127	0.877946
	C135	C	0.871461	0.492953	0.881007
	C136	C	0.112203	0.880794	0.509593
	C137	C	0.115017	0.124780	0.492805
	C138	C	0.870795	0.122202	0.509413
	C139	C	0.868834	0.878485	0.492699
	C140	C	0.499901	0.119674	0.880368
	C141	C	0.482864	0.121452	0.123453
	C142	C	0.500661	0.878776	0.122443
	C143	C	0.482472	0.876100	0.878683
	C144	C	0.367589	0.885070	0.679256
	C145	C	0.610876	0.114237	0.678523
	C146	C	0.612016	0.885718	0.321084
	C147	C	0.373891	0.114972	0.326218
	C148	C	0.669909	0.380810	0.887826
	C149	C	0.666896	0.620698	0.116593
	C150	C	0.318139	0.616758	0.886069
	C151	C	0.311060	0.379517	0.115348
	C152	C	0.875373	0.676493	0.385077
	C153	C	0.106928	0.680345	0.618743
	C154	C	0.876770	0.324287	0.622028
	C155	C	0.106455	0.325609	0.379897
	C156	C	0.876795	0.382209	0.678886
	C157	C	0.107441	0.623420	0.676561
	C158	C	0.875312	0.619495	0.327241
	C159	C	0.105408	0.382257	0.321698
	C160	C	0.374989	0.675220	0.886664
	C161	C	0.611129	0.679645	0.115313
	C162	C	0.612585	0.322574	0.887735
	C163	C	0.369201	0.322175	0.115668
	C164	C	0.669371	0.885717	0.379149
	C165	C	0.667184	0.115268	0.619521
	C166	C	0.310721	0.885626	0.620990
	C167	C	0.318527	0.116419	0.385481
	C168	C	0.868085	0.387077	0.180862
	C169	C	0.111217	0.615530	0.177893
	C170	C	0.111846	0.386467	0.820292
	C171	C	0.873835	0.616250	0.826582
	C172	C	0.169119	0.883493	0.386600
	C173	C	0.168203	0.122882	0.616017
	C174	C	0.818178	0.117997	0.385762
	C175	C	0.811065	0.880974	0.615128
	C176	C	0.376538	0.174878	0.883495
	C177	C	0.606545	0.178144	0.119513
	C178	C	0.376787	0.822734	0.120988
	C179	C	0.606605	0.822913	0.879459
	C180	C	0.376836	0.878863	0.179818
	C181	C	0.606547	0.121195	0.177311
	C182	C	0.376113	0.116571	0.827049
	C183	C	0.605271	0.878034	0.820245
	C184	C	0.874624	0.176727	0.386677
	C185	C	0.111358	0.180973	0.615517
	C186	C	0.112286	0.824916	0.386700
	C187	C	0.869757	0.824583	0.615722
	C188	C	0.167631	0.385026	0.879489
	C189	C	0.168119	0.615208	0.118936
	C190	C	0.811753	0.386544	0.122780
	C191	C	0.816889	0.616200	0.885419
	C192	C	0.392239	0.094516	0.603896
	C193	C	0.587475	0.905765	0.597614
	C194	C	0.592644	0.094981	0.400710
	C195	C	0.392934	0.906100	0.403044
	C196	C	0.588444	0.400919	0.096226
	C197	C	0.593328	0.599178	0.907607
	C198	C	0.392050	0.598650	0.095235
	C199	C	0.392104	0.397895	0.906763
	C200	C	0.085810	0.601022	0.400870
	C201	C	0.896400	0.601288	0.603939
	C202	C	0.086582	0.404370	0.598176
	C203	C	0.895992	0.400782	0.403825
	C204	C	0.891867	0.595938	0.103330
	C205	C	0.087005	0.406246	0.099547
	C206	C	0.093225	0.595280	0.901180
	C207	C	0.894012	0.406939	0.902408
	C208	C	0.088448	0.903301	0.595181
	C209	C	0.094205	0.102185	0.407111
	C210	C	0.891659	0.100446	0.595071
	C211	C	0.892941	0.900346	0.406936
	C212	C	0.586166	0.097591	0.901668
	C213	C	0.396891	0.097586	0.101970
	C214	C	0.586648	0.902108	0.099119
	C215	C	0.396182	0.897696	0.902530
	Zn216	Zn	0.491021	-0.001432	0.751814
	Zn217	Zn	0.491459	0.000270	0.251195
	Zn218	Zn	0.741969	0.500476	0.003071
	Zn219	Zn	0.241645	0.499302	0.000399
	Zn220	Zn	-0.008762	0.750946	0.501350
	Zn221	Zn	-0.008112	0.251966	0.501416
	Zn222	Zn	-0.007252	0.502005	0.750494
	Zn223	Zn	-0.009960	0.501322	0.252230
	Zn224	Zn	0.492386	0.750282	0.001271
	Zn225	Zn	0.491017	0.248606	0.001489
	Zn226	Zn	0.741316	0.000664	0.500592
	Zn227	Zn	0.242182	0.001888	0.501867
	N228	N	0.402583	0.962683	0.681996
	N229	N	0.576939	0.036195	0.679906
	N230	N	0.578745	0.963458	0.319998
	N231	N	0.406145	0.036850	0.323692
	N232	N	0.669839	0.415112	0.965248
	N233	N	0.669266	0.585870	0.039643
	N234	N	0.315762	0.583330	0.963413
	N235	N	0.310385	0.412146	0.037687
	N236	N	0.953436	0.678317	0.417261
	N237	N	0.028563	0.680993	0.586956
	N238	N	0.954749	0.323434	0.587432
	N239	N	0.028843	0.323776	0.415322
	N240	N	0.954586	0.416814	0.678901
	N241	N	0.029551	0.589160	0.679927
	N242	N	0.953522	0.586650	0.324239
	N243	N	0.027305	0.414967	0.321619
	N244	N	0.407142	0.677799	0.964332
	N245	N	0.579249	0.680865	0.037438
	N246	N	0.577434	0.321144	0.964927
	N247	N	0.404249	0.320084	0.038301
	N248	N	0.670992	0.963255	0.413627
	N249	N	0.667341	0.038114	0.584291
	N250	N	0.310937	0.963372	0.588257
	N251	N	0.317053	0.038958	0.419295
	N252	N	0.902464	0.464866	0.182655
	N253	N	0.076283	0.538049	0.179744
	N254	N	0.079679	0.464740	0.819133
	N255	N	0.907164	0.538533	0.823894
	N256	N	0.168994	0.917652	0.463969
	N257	N	0.170736	0.088635	0.538782
	N258	N	0.815566	0.084686	0.463063
	N259	N	0.810416	0.913703	0.537510
	N260	N	0.454755	0.177138	0.915770
	N261	N	0.528571	0.178329	0.086710
	N262	N	0.454510	0.822641	0.085978
	N263	N	0.529152	0.821726	0.915227
	N264	N	0.454847	0.913047	0.180912
	N265	N	0.528630	0.086783	0.180003
	N266	N	0.453725	0.082975	0.825076
	N267	N	0.527011	0.910093	0.819622
	N268	N	0.906767	0.179349	0.464374
	N269	N	0.078999	0.182407	0.537902
	N270	N	0.077637	0.823062	0.464140
	N271	N	0.905033	0.822882	0.538533
	N272	N	0.169680	0.462258	0.914523
	N273	N	0.168018	0.537541	0.084791
	N274	N	0.811905	0.463869	0.089056
	N275	N	0.815488	0.538541	0.918753
	O276	O	-0.103392	-0.079299	0.061346
	H277	H	-0.105802	-0.093638	0.059699
	H278	H	-0.089606	-0.082667	0.046340
	O279	O	0.511648	0.594275	0.584437
	H280	H	0.521434	0.598174	0.589121
	H281	H	0.512039	0.602631	0.588857
	O282	O	0.465573	0.508590	0.414742
	H283	H	0.464157	0.510826	0.409043
	H284	H	0.466005	0.507777	0.408612
	O285	O	0.009896	1.010639	1.020292
	H286	H	-0.002656	1.010325	1.016732
	H287	H	0.012560	1.010144	1.026686
	O288	O	0.502876	0.439035	0.472491
	H289	H	0.507888	0.441672	0.470098
	H290	H	0.506695	0.432523	0.475694
	O291	O	1.012361	0.969653	1.004580
	H292	H	1.018762	0.978925	1.003915
	H293	H	1.011574	0.968086	1.027655
	O294	O	1.039311	1.045700	1.026439
	H295	H	1.036179	1.054950	1.015702
	H296	H	1.036066	1.047025	1.023649
	O297	O	1.027256	0.110512	1.171624
	H298	H	1.024483	0.112360	1.173988
	H299	H	1.023499	0.118413	1.162748
	O300	O	0.370938	0.453212	0.557151
	H301	H	0.359911	0.436487	0.576631
	H302	H	0.384042	0.449998	0.556943
	O303	O	1.161863	-0.087053	-0.019085
	H304	H	1.157877	-0.075163	-0.016460
	H305	H	1.173222	-0.090111	-0.012945
	O306	O	0.089845	1.028837	1.021481
	H307	H	0.096556	1.031167	1.026988
	H308	H	0.088995	1.030620	1.022907
	O309	O	0.560016	0.553833	0.532180
	H310	H	0.552583	0.559786	0.543604
	H311	H	0.559016	0.558577	0.517444
	O312	O	1.003024	0.042265	0.985320
	H313	H	1.002275	0.049481	0.988137
	H314	H	1.002958	0.048398	0.987178
	O315	O	0.456496	0.464086	0.514967
	H316	H	0.463650	0.454764	0.500719
	H317	H	0.446944	0.460349	0.515703
	O318	O	0.428589	0.507297	0.476594
	H319	H	0.429197	0.519275	0.481296
	H320	H	0.434336	0.504029	0.477907
	O321	O	0.962670	0.960553	1.045296
	H322	H	0.957141	0.958392	1.045359
	H323	H	0.964357	0.965762	1.052892
	O324	O	0.412163	0.532029	0.463849
	H325	H	0.412199	0.527760	0.470979
	H326	H	0.400581	0.522423	0.462964
	O327	O	0.422740	0.463622	0.466266
	H328	H	0.413879	0.465312	0.468391
	H329	H	0.425364	0.456955	0.467586
	O330	O	1.014177	0.087224	0.964298
	H331	H	1.007844	0.079271	0.966915
	H332	H	1.025722	0.091555	0.953397
	O333	O	1.002004	1.053733	0.034242
	H334	H	0.991185	1.064487	0.037571
	H335	H	1.006095	1.055213	0.034731
	O336	O	0.552592	0.536869	0.581852
	H337	H	0.552083	0.542499	0.581862
	H338	H	0.547109	0.530829	0.581434
	O339	O	0.505160	0.497354	0.508903
	H340	H	0.514040	0.493089	0.509636
	H341	H	0.511738	0.496150	0.510716
	O342	O	-0.019566	0.958638	0.023955
	H343	H	-0.026927	0.943235	0.023656
	H344	H	-0.017807	0.954613	0.029098
	O345	O	-0.020511	0.041695	-0.027670
	H346	H	-0.019351	0.038009	-0.025205
	H347	H	-0.013580	0.032981	-0.033741
	O348	O	0.479708	0.558541	0.435396
	H349	H	0.477465	0.562333	0.442083
	H350	H	0.471864	0.566947	0.433551
	O351	O	0.509069	0.482963	0.468555
	H352	H	0.511506	0.481685	0.466816
	H353	H	0.509378	0.472112	0.464907
	O354	O	0.984655	0.984047	-0.074429
	H355	H	0.979911	0.984380	-0.070633
	H356	H	1.004697	0.989751	-0.079225
	O357	O	-0.001338	-0.089011	0.924945
	H358	H	0.016244	-0.094881	0.924658
	H359	H	-0.004857	-0.099608	0.917867
	O360	O	0.013406	-0.034474	-0.087643
	H361	H	0.006805	-0.028883	-0.085287
	H362	H	0.003860	-0.055933	-0.094016
	O363	O	0.486816	0.599902	0.531715
	H364	H	0.476917	0.598358	0.531604
	H365	H	0.493900	0.604303	0.540592
	O366	O	-0.101097	0.099670	1.015836
	H367	H	-0.105760	0.088871	1.007262
	H368	H	-0.104219	0.104925	1.022121
	O369	O	1.525902	0.458559	-0.434225
	H370	H	1.520373	0.462369	-0.440865
	H371	H	1.527576	0.460195	-0.434548
