data_Molecule from HDF5

_cell_length_a		16.309991
_cell_length_b		16.321051
_cell_length_c		16.213025
_cell_angle_alpha	90.025311
_cell_angle_beta	89.896300
_cell_angle_gamma	89.771286
_symmetry_space_group_name_H-M	'P 1'
_symmetry_Int_Tables_number		1

loop_
	_symmetry_equiv_pos_as_xyz
	x,y,z

loop_
	_atom_site_label
	_atom_site_type_symbol
	_atom_site_fract_x
	_atom_site_fract_y
	_atom_site_fract_z
	H0	H	0.405046	0.845231	0.718276
	H1	H	0.600630	0.171556	0.716981
	H2	H	0.603456	0.845923	0.287478
	H3	H	0.404786	0.171505	0.288690
	H4	H	0.720117	0.409597	0.839551
	H5	H	0.720249	0.609008	0.166523
	H6	H	0.287953	0.609328	0.840264
	H7	H	0.289817	0.409425	0.166874
	H8	H	0.840104	0.723534	0.402679
	H9	H	0.167048	0.722062	0.601729
	H10	H	0.840008	0.292342	0.603708
	H11	H	0.165165	0.288956	0.401772
	H12	H	0.840871	0.408410	0.719532
	H13	H	0.167586	0.604430	0.716336
	H14	H	0.838818	0.603586	0.290633
	H15	H	0.166122	0.405592	0.287055
	H16	H	0.404079	0.723476	0.839214
	H17	H	0.603822	0.724013	0.166305
	H18	H	0.604725	0.293708	0.839788
	H19	H	0.404854	0.293625	0.166754
	H20	H	0.721008	0.846582	0.399860
	H21	H	0.718102	0.170963	0.602110
	H22	H	0.288241	0.844819	0.603546
	H23	H	0.286064	0.170777	0.403013
	H24	H	0.903760	0.343410	0.216597
	H25	H	0.102647	0.668997	0.220519
	H26	H	0.106197	0.345063	0.785728
	H27	H	0.904553	0.670140	0.786548
	H28	H	0.219809	0.906656	0.339194
	H29	H	0.217917	0.107629	0.666572
	H30	H	0.787911	0.109062	0.338854
	H31	H	0.786654	0.906996	0.666017
	H32	H	0.342012	0.227310	0.902274
	H33	H	0.667032	0.224236	0.105026
	H34	H	0.342080	0.790683	0.106247
	H35	H	0.666164	0.791758	0.900254
	H36	H	0.341062	0.909267	0.218842
	H37	H	0.665942	0.107932	0.219557
	H38	H	0.340645	0.110484	0.786844
	H39	H	0.665711	0.908130	0.785329
	H40	H	0.900504	0.224675	0.340065
	H41	H	0.102521	0.223412	0.666401
	H42	H	0.104676	0.790908	0.339045
	H43	H	0.902484	0.790950	0.665927
	H44	H	0.222861	0.345706	0.901596
	H45	H	0.221431	0.669185	0.108053
	H46	H	0.786424	0.345953	0.104431
	H47	H	0.786070	0.670015	0.899073
	H48	H	0.416628	0.121683	0.596600
	H49	H	0.589934	0.893565	0.596835
	H50	H	0.593957	0.123462	0.412170
	H51	H	0.407486	0.891718	0.411259
	H52	H	0.600092	0.414665	0.121624
	H53	H	0.591678	0.592028	0.890573
	H54	H	0.415379	0.590870	0.116351
	H55	H	0.413989	0.414075	0.885706
	H56	H	0.118478	0.590761	0.403039
	H57	H	0.888003	0.603838	0.591556
	H58	H	0.116702	0.417708	0.592004
	H59	H	0.886721	0.407806	0.413598
	H60	H	0.120275	0.413527	0.597402
	H61	H	0.889230	0.596176	0.594155
	H62	H	0.122629	0.608655	0.409001
	H63	H	0.889765	0.420486	0.413608
	H64	H	0.418779	0.607131	0.119692
	H65	H	0.591239	0.608677	0.885319
	H66	H	0.596926	0.421026	0.118068
	H67	H	0.410087	0.418373	0.885309
	H68	H	0.598249	0.124901	0.411847
	H69	H	0.596570	0.894562	0.587393
	H70	H	0.407244	0.122283	0.586402
	H71	H	0.412858	0.892267	0.406986
	H72	H	0.915681	0.622805	0.097908
	H73	H	0.096657	0.388630	0.102850
	H74	H	0.096913	0.623777	0.909775
	H75	H	0.916149	0.389808	0.901645
	H76	H	0.092122	0.923273	0.615528
	H77	H	0.092962	0.091782	0.388570
	H78	H	0.914444	0.111378	0.621696
	H79	H	0.912891	0.913152	0.384587
	H80	H	0.622563	0.106596	0.906879
	H81	H	0.391915	0.095488	0.089354
	H82	H	0.619295	0.917043	0.092941
	H83	H	0.387707	0.922381	0.904908
	H84	H	0.620003	0.915111	0.095407
	H85	H	0.385957	0.100108	0.102911
	H86	H	0.616712	0.100594	0.917172
	H87	H	0.385333	0.909092	0.910740
	H88	H	0.897892	0.095266	0.621674
	H89	H	0.089266	0.102004	0.387511
	H90	H	0.088487	0.907718	0.619443
	H91	H	0.909241	0.916382	0.385686
	H92	H	0.095232	0.623118	0.910019
	H93	H	0.089215	0.396063	0.088882
	H94	H	0.910505	0.622198	0.091257
	H95	H	0.920964	0.397918	0.919516
	H96	H	0.403511	0.127734	0.600012
	H97	H	0.600942	0.889788	0.598092
	H98	H	0.595908	0.125353	0.408659
	H99	H	0.414271	0.893827	0.413353
	H100	H	0.592228	0.415011	0.119709
	H101	H	0.605755	0.599736	0.883091
	H102	H	0.403213	0.602092	0.122838
	H103	H	0.414859	0.418561	0.887952
	H104	H	0.114775	0.595783	0.420739
	H105	H	0.886341	0.602606	0.599014
	H106	H	0.118853	0.410629	0.590230
	H107	H	0.885068	0.415010	0.402882
	H108	H	0.907765	0.624756	0.098468
	H109	H	0.105787	0.391681	0.088423
	H110	H	0.096339	0.622091	0.911414
	H111	H	0.902032	0.390548	0.916057
	H112	H	0.103768	0.913450	0.622259
	H113	H	0.099678	0.100058	0.384851
	H114	H	0.918646	0.091366	0.613670
	H115	H	0.914288	0.916715	0.387302
	H116	H	0.618716	0.094544	0.906236
	H117	H	0.387134	0.109101	0.091080
	H118	H	0.619178	0.913736	0.092527
	H119	H	0.390931	0.919932	0.919236
	C120	C	0.380668	0.016564	0.624345
	C121	C	0.624443	1.000330	0.623266
	C122	C	0.625656	0.017225	0.380837
	C123	C	0.381553	1.000120	0.381113
	C124	C	0.626206	0.387238	0.011864
	C125	C	0.625464	0.629577	0.994615
	C126	C	0.382758	0.629986	0.011715
	C127	C	0.383694	0.387813	0.994730
	C128	C	0.011226	0.628020	0.381525
	C129	C	0.995526	0.629260	0.624058
	C130	C	0.011307	0.385515	0.623590
	C131	C	0.994468	0.384332	0.380300
	C132	C	0.881933	0.515689	0.124709
	C133	C	0.125905	0.499196	0.124488
	C134	C	0.126767	0.515948	0.880590
	C135	C	0.882963	0.499796	0.881655
	C136	C	0.125099	0.885331	0.511168
	C137	C	0.123340	0.127972	0.494824
	C138	C	0.881226	0.129299	0.511051
	C139	C	0.882011	0.886121	0.493931
	C140	C	0.511878	0.130666	0.881136
	C141	C	0.495933	0.130182	0.124219
	C142	C	0.512219	0.886195	0.124524
	C143	C	0.495355	0.887121	0.881248
	C144	C	0.383677	0.893957	0.680629
	C145	C	0.621524	0.122765	0.679113
	C146	C	0.623680	0.894765	0.324922
	C147	C	0.383421	0.122719	0.325908
	C148	C	0.681939	0.389158	0.888405
	C149	C	0.681616	0.628470	0.117594
	C150	C	0.326210	0.628995	0.888930
	C151	C	0.327771	0.389433	0.118111
	C152	C	0.888797	0.684900	0.382808
	C153	C	0.118429	0.683856	0.621810
	C154	C	0.888793	0.330534	0.622982
	C155	C	0.116664	0.327525	0.381818
	C156	C	0.889232	0.388006	0.680770
	C157	C	0.118518	0.625750	0.679203
	C158	C	0.888124	0.625065	0.327168
	C159	C	0.117264	0.385568	0.324838
	C160	C	0.383848	0.686069	0.888386
	C161	C	0.624036	0.685941	0.117468
	C162	C	0.624711	0.331356	0.888754
	C163	C	0.384904	0.331878	0.117935
	C164	C	0.682219	0.895007	0.381070
	C165	C	0.679896	0.122543	0.622047
	C166	C	0.325867	0.893695	0.623377
	C167	C	0.324918	0.122336	0.383054
	C168	C	0.884032	0.392700	0.179238
	C169	C	0.123450	0.620727	0.182140
	C170	C	0.126361	0.393790	0.823786
	C171	C	0.884224	0.621594	0.824652
	C172	C	0.181613	0.886755	0.388094
	C173	C	0.179626	0.127229	0.617747
	C174	C	0.825459	0.128663	0.388238
	C175	C	0.825076	0.887078	0.616911
	C176	C	0.390316	0.188355	0.882255
	C177	C	0.618029	0.186392	0.124324
	C178	C	0.390443	0.829500	0.124962
	C179	C	0.617208	0.829973	0.880926
	C180	C	0.389920	0.888695	0.181153
	C181	C	0.617855	0.128183	0.180964
	C182	C	0.389585	0.130193	0.824905
	C183	C	0.617152	0.888160	0.823928
	C184	C	0.881794	0.186106	0.388612
	C185	C	0.122251	0.184765	0.617735
	C186	C	0.124308	0.829318	0.387995
	C187	C	0.883148	0.829691	0.617140
	C188	C	0.184270	0.394194	0.881588
	C189	C	0.182423	0.620764	0.125842
	C190	C	0.825520	0.393907	0.123160
	C191	C	0.825424	0.621601	0.881071
	C192	C	0.402674	0.101780	0.601128
	C193	C	0.602362	0.914938	0.600608
	C194	C	0.602627	0.102550	0.404158
	C195	C	0.404870	0.914678	0.403727
	C196	C	0.603256	0.410214	0.097646
	C197	C	0.602798	0.606866	0.908695
	C198	C	0.405803	0.606991	0.097311
	C199	C	0.406398	0.410243	0.908792
	C200	C	0.096537	0.605107	0.404312
	C201	C	0.909962	0.607243	0.601545
	C202	C	0.096668	0.407465	0.600104
	C203	C	0.909187	0.407591	0.403082
	C204	C	0.904650	0.601046	0.102487
	C205	C	0.103782	0.414161	0.100429
	C206	C	0.103128	0.601181	0.903715
	C207	C	0.906288	0.414809	0.905354
	C208	C	0.101576	0.908220	0.596665
	C209	C	0.100571	0.104647	0.409258
	C210	C	0.903834	0.106146	0.596783
	C211	C	0.905336	0.908761	0.408173
	C212	C	0.597152	0.107273	0.903501
	C213	C	0.410793	0.107889	0.101009
	C214	C	0.597295	0.908771	0.100742
	C215	C	0.410232	0.910397	0.904941
	Zn216	Zn	0.502614	0.008773	0.752631
	Zn217	Zn	0.504056	0.008790	0.252880
	Zn218	Zn	0.754247	0.508400	0.002958
	Zn219	Zn	0.254920	0.508140	0.003247
	Zn220	Zn	0.003710	0.757618	0.502470
	Zn221	Zn	0.002099	0.256594	0.502669
	Zn222	Zn	0.004265	0.507021	0.752557
	Zn223	Zn	0.003366	0.506251	0.252801
	Zn224	Zn	0.503903	0.757939	0.002433
	Zn225	Zn	0.504777	0.259131	0.003612
	Zn226	Zn	0.753859	0.008224	0.502186
	Zn227	Zn	0.252358	0.007176	0.503078
	N228	N	0.416898	0.971149	0.681321
	N229	N	0.587761	0.045740	0.680121
	N230	N	0.589169	0.971827	0.324633
	N231	N	0.417869	0.045733	0.324627
	N232	N	0.682901	0.423074	0.965916
	N233	N	0.682770	0.594234	0.040034
	N234	N	0.325155	0.595047	0.966528
	N235	N	0.327058	0.423514	0.040452
	N236	N	0.966405	0.686816	0.415957
	N237	N	0.040998	0.686162	0.588420
	N238	N	0.965770	0.328931	0.588234
	N239	N	0.039277	0.326388	0.415408
	N240	N	0.966474	0.421417	0.681452
	N241	N	0.041059	0.592535	0.680704
	N242	N	0.965290	0.590469	0.326160
	N243	N	0.040326	0.420137	0.323782
	N244	N	0.418094	0.686922	0.965800
	N245	N	0.589945	0.686688	0.040035
	N246	N	0.590976	0.329876	0.966662
	N247	N	0.418956	0.330718	0.040447
	N248	N	0.683541	0.972182	0.415087
	N249	N	0.681754	0.045287	0.588056
	N250	N	0.323605	0.970919	0.589340
	N251	N	0.323573	0.044884	0.416502
	N252	N	0.918400	0.469479	0.180378
	N253	N	0.088834	0.544022	0.181317
	N254	N	0.091246	0.470480	0.823206
	N255	N	0.919372	0.544921	0.824933
	N256	N	0.182201	0.921007	0.465678
	N257	N	0.180399	0.092490	0.540500
	N258	N	0.824935	0.093758	0.465567
	N259	N	0.824264	0.921513	0.539362
	N260	N	0.467326	0.188711	0.916487
	N261	N	0.541078	0.187671	0.089703
	N262	N	0.467471	0.827738	0.090436
	N263	N	0.540304	0.829317	0.916201
	N264	N	0.466830	0.923279	0.181027
	N265	N	0.541007	0.093968	0.181177
	N266	N	0.466324	0.094916	0.824110
	N267	N	0.540391	0.922939	0.824017
	N268	N	0.915724	0.186649	0.466010
	N269	N	0.088073	0.185475	0.540201
	N270	N	0.089782	0.828377	0.465424
	N271	N	0.917833	0.828932	0.539671
	N272	N	0.184608	0.471206	0.915985
	N273	N	0.183943	0.544193	0.090591
	N274	N	0.824089	0.471458	0.089892
	N275	N	0.824515	0.544713	0.915817
	O276	O	0.084590	-0.128844	0.881684
	H277	H	0.093290	-0.128469	0.873633
	H278	H	0.084215	-0.130649	0.884512
	O279	O	0.440031	0.557224	0.492218
	H280	H	0.437014	0.556512	0.493819
	H281	H	0.441937	0.558859	0.494308
	O282	O	1.026775	1.044136	-0.024543
	H283	H	1.031651	1.053646	-0.013874
	H284	H	1.030023	1.030023	-0.031680
	O285	O	1.041334	0.111130	1.001737
	H286	H	1.043823	0.098022	1.000706
	H287	H	1.050486	0.112883	0.989974
	O288	O	0.535815	0.493713	0.575931
	H289	H	0.536894	0.490616	0.574111
	H290	H	0.545737	0.485670	0.579786
	O291	O	0.497795	0.539077	0.569594
	H292	H	0.485514	0.546774	0.558024
	H293	H	0.498410	0.533333	0.564211
	O294	O	0.464115	0.514281	0.437756
	H295	H	0.465822	0.507319	0.447021
	H296	H	0.468262	0.524302	0.433100
	O297	O	-0.028764	-0.012721	1.061914
	H298	H	-0.015667	-0.016220	1.063118
	H299	H	-0.044753	-0.005057	1.058222
	O300	O	0.530393	0.492446	0.445588
	H301	H	0.528208	0.495644	0.445458
	H302	H	0.538085	0.492065	0.457722
	O303	O	0.434581	0.494931	0.488568
	H304	H	0.438502	0.510540	0.484349
	H305	H	0.435224	0.501155	0.477481
	O306	O	0.074816	1.083068	1.078057
	H307	H	0.079192	1.086446	1.077007
	H308	H	0.076296	1.081892	1.081505
	O309	O	0.419565	0.525713	0.550786
	H310	H	0.416987	0.515779	0.551082
	H311	H	0.425865	0.532585	0.557476
	O312	O	0.119172	0.015272	0.080221
	H313	H	0.120669	0.017484	0.075695
	H314	H	0.126860	-0.002068	0.064787
	O315	O	0.977519	-0.059511	-0.068464
	H316	H	0.979772	-0.063524	-0.073437
	H317	H	0.974231	-0.063830	-0.064197
	O318	O	0.894791	0.972881	1.025192
	H319	H	0.900239	0.961407	1.041815
	H320	H	0.892331	0.977665	1.025444
	O321	O	-0.008613	0.061071	1.074212
	H322	H	0.000130	0.062118	1.070948
	H323	H	-0.005324	0.068783	1.077459
	O324	O	0.501325	0.613614	0.438729
	H325	H	0.506223	0.608790	0.439285
	H326	H	0.489817	0.612427	0.428767
	O327	O	-0.001514	-0.033011	-0.120470
	H328	H	0.011429	-0.029716	-0.109111
	H329	H	-0.004258	-0.036629	-0.132288
	O330	O	1.024426	1.044593	0.072073
	H331	H	1.023174	1.044969	0.063952
	H332	H	1.012747	1.052511	0.079012
	O333	O	0.041695	1.024072	0.975000
	H334	H	0.027828	1.005408	0.983388
	H335	H	0.046700	1.039493	0.973127
	O336	O	0.035735	-0.027480	0.004571
	H337	H	0.033646	-0.030458	0.007541
	H338	H	0.034284	-0.040911	-0.014520
	O339	O	0.445972	0.481717	0.516048
	H340	H	0.443446	0.480488	0.519438
	H341	H	0.445575	0.481309	0.520012
	O342	O	1.030579	1.000715	1.021697
	H343	H	1.045953	1.011122	1.002313
	H344	H	1.018152	1.002350	1.035194
	O345	O	1.092339	1.116791	-0.016185
	H346	H	1.090134	1.106822	-0.017730
	H347	H	1.097914	1.110809	-0.019862
	O348	O	0.508345	0.468089	0.530854
	H349	H	0.506869	0.469284	0.519634
	H350	H	0.508985	0.468314	0.540535
	O351	O	1.033394	-0.049083	0.014469
	H352	H	1.030946	-0.033727	0.006380
	H353	H	1.022730	-0.050443	0.022088
	O354	O	0.474990	0.600505	0.425219
	H355	H	0.467511	0.608323	0.411616
	H356	H	0.478034	0.590388	0.433439
	O357	O	0.872348	0.065835	1.005308
	H358	H	0.874691	0.070435	0.999354
	H359	H	0.878497	0.065542	1.023128
	O360	O	-0.018666	-0.009660	0.093775
	H361	H	-0.000109	-0.009866	0.094159
	H362	H	-0.011699	0.002013	0.097024
	O363	O	0.596797	0.538654	0.531102
	H364	H	0.606313	0.545597	0.532751
	H365	H	0.591982	0.541814	0.541759
	O366	O	0.832966	0.914483	1.092859
	H367	H	0.845162	0.917690	1.100773
	H368	H	0.829633	0.911734	1.105559
	O369	O	1.043413	-0.060717	0.838272
	H370	H	1.038907	-0.050084	0.842620
	H371	H	1.030522	-0.058694	0.851574
	O372	O	0.081151	0.069535	0.015844
	H373	H	0.071114	0.060018	0.012757
	H374	H	0.083398	0.064973	0.016925
	O375	O	0.987084	-0.033441	-0.090833
	H376	H	0.979470	-0.029463	-0.095031
	H377	H	0.974826	-0.030881	-0.103076
	O378	O	0.537917	0.532452	0.419185
	H379	H	0.542674	0.531476	0.411910
	H380	H	0.534188	0.538711	0.416407
	O381	O	0.422751	0.469204	0.559237
	H382	H	0.420499	0.456900	0.568517
	H383	H	0.416109	0.475760	0.556117
