data_Molecule from HDF5

_cell_length_a		16.222577
_cell_length_b		16.258950
_cell_length_c		16.321359
_cell_angle_alpha	89.757914
_cell_angle_beta	90.584493
_cell_angle_gamma	89.507186
_symmetry_space_group_name_H-M	'P 1'
_symmetry_Int_Tables_number		1

loop_
	_symmetry_equiv_pos_as_xyz
	x,y,z

loop_
	_atom_site_label
	_atom_site_type_symbol
	_atom_site_fract_x
	_atom_site_fract_y
	_atom_site_fract_z
	H0	H	0.412542	0.830685	0.716984
	H1	H	0.611491	0.156352	0.719619
	H2	H	0.608872	0.829477	0.289583
	H3	H	0.407728	0.157501	0.285781
	H4	H	0.723622	0.394130	0.838712
	H5	H	0.724435	0.590355	0.165307
	H6	H	0.289988	0.594289	0.839350
	H7	H	0.298351	0.395380	0.166154
	H8	H	0.846716	0.712488	0.401355
	H9	H	0.173799	0.704484	0.603923
	H10	H	0.845377	0.279885	0.602059
	H11	H	0.173468	0.280153	0.409451
	H12	H	0.845367	0.394392	0.717610
	H13	H	0.172054	0.591691	0.722332
	H14	H	0.846113	0.596970	0.285923
	H15	H	0.172646	0.391993	0.290262
	H16	H	0.405920	0.711143	0.839248
	H17	H	0.609009	0.706657	0.165307
	H18	H	0.607937	0.278476	0.838302
	H19	H	0.411615	0.276467	0.164410
	H20	H	0.725830	0.830061	0.405571
	H21	H	0.724415	0.158020	0.601675
	H22	H	0.300318	0.829135	0.598134
	H23	H	0.291747	0.156535	0.400147
	H24	H	0.909009	0.330972	0.220809
	H25	H	0.106969	0.657329	0.217978
	H26	H	0.109260	0.330077	0.790406
	H27	H	0.903604	0.655589	0.785421
	H28	H	0.221449	0.895509	0.338151
	H29	H	0.227007	0.089694	0.665609
	H30	H	0.791637	0.095667	0.340398
	H31	H	0.797723	0.894632	0.666628
	H32	H	0.345635	0.210534	0.898987
	H33	H	0.673588	0.206368	0.101104
	H34	H	0.344319	0.782074	0.098036
	H35	H	0.673145	0.777393	0.905974
	H36	H	0.345184	0.895703	0.215023
	H37	H	0.673450	0.091759	0.218025
	H38	H	0.346923	0.095482	0.782760
	H39	H	0.673979	0.891435	0.789185
	H40	H	0.906971	0.212387	0.340666
	H41	H	0.111186	0.206770	0.666671
	H42	H	0.109965	0.776486	0.340557
	H43	H	0.913007	0.777788	0.665782
	H44	H	0.224242	0.330405	0.906696
	H45	H	0.222348	0.657202	0.102529
	H46	H	0.797875	0.328261	0.099879
	H47	H	0.790980	0.656179	0.901878
	H48	H	0.419926	0.108922	0.588364
	H49	H	0.606515	0.875177	0.601676
	H50	H	0.608194	0.115541	0.398821
	H51	H	0.420157	0.876310	0.404144
	H52	H	0.608958	0.402957	0.118052
	H53	H	0.608200	0.581095	0.884321
	H54	H	0.417936	0.584165	0.117359
	H55	H	0.413241	0.397236	0.883911
	H56	H	0.121303	0.582050	0.426094
	H57	H	0.897208	0.575347	0.588523
	H58	H	0.127911	0.402854	0.606814
	H59	H	0.890052	0.395803	0.412576
	H60	H	0.127247	0.393149	0.596391
	H61	H	0.887808	0.587303	0.607662
	H62	H	0.126645	0.572855	0.400062
	H63	H	0.895903	0.409398	0.416951
	H64	H	0.418823	0.591044	0.119164
	H65	H	0.590055	0.580336	0.890221
	H66	H	0.597606	0.401731	0.115559
	H67	H	0.410693	0.407391	0.886131
	H68	H	0.587598	0.107343	0.406547
	H69	H	0.598541	0.878737	0.595109
	H70	H	0.414028	0.111706	0.592334
	H71	H	0.418345	0.878027	0.410469
	H72	H	0.914101	0.608922	0.091196
	H73	H	0.093825	0.378431	0.102418
	H74	H	0.100170	0.609593	0.916571
	H75	H	0.928087	0.374013	0.895830
	H76	H	0.101265	0.899656	0.617482
	H77	H	0.097355	0.082843	0.388983
	H78	H	0.913807	0.090456	0.621118
	H79	H	0.923326	0.903435	0.389145
	H80	H	0.625820	0.086128	0.911483
	H81	H	0.392210	0.086578	0.094026
	H82	H	0.627344	0.894871	0.096796
	H83	H	0.391729	0.899952	0.906209
	H84	H	0.624625	0.901046	0.092706
	H85	H	0.393086	0.087202	0.091449
	H86	H	0.625509	0.083159	0.911632
	H87	H	0.394185	0.903784	0.910825
	H88	H	0.916899	0.081330	0.618180
	H89	H	0.096540	0.093227	0.385654
	H90	H	0.108635	0.892694	0.621733
	H91	H	0.915755	0.899257	0.385817
	H92	H	0.101425	0.611719	0.907614
	H93	H	0.105352	0.378799	0.088341
	H94	H	0.913301	0.611923	0.097977
	H95	H	0.924297	0.384014	0.926356
	H96	H	0.420873	0.110551	0.595447
	H97	H	0.608725	0.877636	0.591438
	H98	H	0.605412	0.108621	0.421550
	H99	H	0.413507	0.875525	0.406642
	H100	H	0.604029	0.392126	0.119852
	H101	H	0.597465	0.596372	0.884121
	H102	H	0.412263	0.588062	0.119293
	H103	H	0.421046	0.403820	0.887480
	H104	H	0.132140	0.599725	0.406958
	H105	H	0.891957	0.599000	0.586747
	H106	H	0.122188	0.405555	0.593907
	H107	H	0.890928	0.407129	0.402209
	H108	H	0.918909	0.608319	0.095200
	H109	H	0.110993	0.372667	0.104286
	H110	H	0.093126	0.608870	0.910491
	H111	H	0.899740	0.371326	0.909862
	H112	H	0.111762	0.902524	0.619023
	H113	H	0.106691	0.087919	0.384945
	H114	H	0.923536	0.089031	0.618656
	H115	H	0.915492	0.907588	0.388200
	H116	H	0.626643	0.085401	0.909623
	H117	H	0.393015	0.084391	0.092800
	H118	H	0.626522	0.901868	0.100617
	H119	H	0.392963	0.906724	0.905310
	C120	C	0.390090	0.002336	0.621575
	C121	C	0.633015	0.985184	0.624788
	C122	C	0.630468	0.001989	0.381389
	C123	C	0.387214	0.984830	0.378254
	C124	C	0.631693	0.370366	0.010171
	C125	C	0.629254	0.614176	0.994023
	C126	C	0.385563	0.616871	0.010715
	C127	C	0.387928	0.372966	0.993699
	C128	C	0.018567	0.615805	0.381172
	C129	C	1.000854	0.614567	0.624713
	C130	C	0.017646	0.371853	0.626486
	C131	C	1.000380	0.373305	0.382773
	C132	C	0.887512	0.501756	0.124076
	C133	C	0.131154	0.485015	0.126337
	C134	C	0.128427	0.502203	0.883487
	C135	C	0.886340	0.484300	0.880921
	C136	C	0.133877	0.870245	0.511105
	C137	C	0.130785	0.115240	0.494570
	C138	C	0.887627	0.116334	0.511659
	C139	C	0.890020	0.873356	0.495189
	C140	C	0.518083	0.115205	0.880015
	C141	C	0.500924	0.114951	0.122628
	C142	C	0.517469	0.871833	0.123738
	C143	C	0.501107	0.872569	0.880247
	C144	C	0.392874	0.879282	0.678181
	C145	C	0.631326	0.107940	0.681023
	C146	C	0.629660	0.878758	0.326448
	C147	C	0.387921	0.108136	0.323082
	C148	C	0.686179	0.373380	0.887498
	C149	C	0.685897	0.610767	0.116577
	C150	C	0.328337	0.614721	0.888228
	C151	C	0.335058	0.375184	0.117172
	C152	C	0.895364	0.673235	0.382117
	C153	C	0.124302	0.667923	0.624084
	C154	C	0.894462	0.317129	0.622755
	C155	C	0.124152	0.317304	0.387178
	C156	C	0.894388	0.373987	0.680345
	C157	C	0.123418	0.612018	0.683085
	C158	C	0.894953	0.616116	0.324519
	C159	C	0.123740	0.373072	0.328299
	C160	C	0.386175	0.672623	0.887979
	C161	C	0.628397	0.668622	0.116644
	C162	C	0.628503	0.316105	0.887038
	C163	C	0.391120	0.315808	0.116173
	C164	C	0.687827	0.879212	0.384347
	C165	C	0.687489	0.108683	0.622511
	C166	C	0.336800	0.878566	0.619295
	C167	C	0.330225	0.107766	0.380207
	C168	C	0.889526	0.379134	0.181572
	C169	C	0.127779	0.608121	0.180792
	C170	C	0.128110	0.379069	0.828533
	C171	C	0.885230	0.606884	0.824013
	C172	C	0.185593	0.874167	0.387592
	C173	C	0.188366	0.110851	0.616872
	C174	C	0.830322	0.115492	0.389132
	C175	C	0.835187	0.874656	0.617777
	C176	C	0.394874	0.172397	0.879892
	C177	C	0.624483	0.169133	0.121514
	C178	C	0.393457	0.818871	0.119232
	C179	C	0.624389	0.815509	0.884511
	C180	C	0.394168	0.875290	0.177540
	C181	C	0.624273	0.112262	0.179702
	C182	C	0.395250	0.115034	0.822114
	C183	C	0.624973	0.872720	0.826784
	C184	C	0.887685	0.173467	0.389170
	C185	C	0.130908	0.169263	0.617500
	C186	C	0.130063	0.814810	0.388893
	C187	C	0.892841	0.816748	0.617566
	C188	C	0.185623	0.379254	0.886050
	C189	C	0.185193	0.608182	0.123251
	C190	C	0.834150	0.377827	0.121261
	C191	C	0.829116	0.607216	0.882045
	C192	C	0.411932	0.088113	0.598872
	C193	C	0.610994	0.899460	0.602435
	C194	C	0.607131	0.088207	0.402677
	C195	C	0.410537	0.898738	0.400383
	C196	C	0.609843	0.392321	0.095922
	C197	C	0.605499	0.592254	0.908233
	C198	C	0.409524	0.594349	0.096494
	C199	C	0.408840	0.395969	0.908051
	C200	C	0.104348	0.591884	0.404287
	C201	C	0.914480	0.593528	0.601161
	C202	C	0.103655	0.393856	0.605208
	C203	C	0.914691	0.397084	0.404295
	C204	C	0.909158	0.587561	0.101312
	C205	C	0.109768	0.398836	0.104856
	C206	C	0.105063	0.587937	0.905200
	C207	C	0.910272	0.398626	0.903972
	C208	C	0.113372	0.891701	0.597231
	C209	C	0.107129	0.094159	0.408660
	C210	C	0.911227	0.093549	0.597244
	C211	C	0.911847	0.896610	0.409886
	C212	C	0.603810	0.091752	0.904135
	C213	C	0.414837	0.092705	0.099346
	C214	C	0.603898	0.892894	0.102619
	C215	C	0.415287	0.896389	0.901403
	Zn216	Zn	0.510608	-0.006116	0.751698
	Zn217	Zn	0.509171	-0.006490	0.251132
	Zn218	Zn	0.758879	0.492659	0.002033
	Zn219	Zn	0.258598	0.493811	0.003453
	Zn220	Zn	0.010587	0.743104	0.502914
	Zn221	Zn	0.008998	0.244944	0.503900
	Zn222	Zn	0.007783	0.493507	0.753925
	Zn223	Zn	0.009157	0.493839	0.253601
	Zn224	Zn	0.508446	0.744204	0.001925
	Zn225	Zn	0.509465	0.243587	0.001190
	Zn226	Zn	0.760296	-0.005725	0.503547
	Zn227	Zn	0.260514	-0.006673	0.501289
	N228	N	0.425099	0.957340	0.679925
	N229	N	0.598256	0.030226	0.682747
	N230	N	0.594698	0.956222	0.324537
	N231	N	0.422468	0.030747	0.321752
	N232	N	0.687995	0.406632	0.964942
	N233	N	0.686469	0.577730	0.039236
	N234	N	0.328043	0.580839	0.965769
	N235	N	0.333130	0.410122	0.040186
	N236	N	0.973078	0.673105	0.416594
	N237	N	0.047030	0.669764	0.588499
	N238	N	0.972220	0.315680	0.589915
	N239	N	0.046635	0.317506	0.420379
	N240	N	0.971932	0.407376	0.682789
	N241	N	0.045359	0.579568	0.683542
	N242	N	0.972426	0.580900	0.323851
	N243	N	0.045889	0.407435	0.325483
	N244	N	0.420869	0.674279	0.965287
	N245	N	0.593760	0.670836	0.039230
	N246	N	0.595443	0.314101	0.964382
	N247	N	0.423176	0.314445	0.038453
	N248	N	0.688383	0.956717	0.417812
	N249	N	0.688783	0.031370	0.588541
	N250	N	0.335183	0.955883	0.584470
	N251	N	0.329387	0.029902	0.413770
	N252	N	0.921925	0.457193	0.183451
	N253	N	0.094950	0.530447	0.182736
	N254	N	0.093278	0.456739	0.826655
	N255	N	0.920123	0.529364	0.823238
	N256	N	0.188255	0.907794	0.464713
	N257	N	0.188518	0.078279	0.539196
	N258	N	0.830400	0.080834	0.466208
	N259	N	0.833475	0.909133	0.540705
	N260	N	0.472444	0.172627	0.915031
	N261	N	0.546878	0.170827	0.086699
	N262	N	0.471393	0.816405	0.086602
	N263	N	0.546443	0.815209	0.916944
	N264	N	0.472188	0.907331	0.180378
	N265	N	0.546362	0.079400	0.180504
	N266	N	0.472620	0.080210	0.822178
	N267	N	0.547364	0.907559	0.824098
	N268	N	0.922824	0.174090	0.466365
	N269	N	0.095673	0.172135	0.540436
	N270	N	0.098327	0.812557	0.466700
	N271	N	0.926427	0.815903	0.540379
	N272	N	0.185817	0.456653	0.919595
	N273	N	0.187674	0.530439	0.090395
	N274	N	0.832779	0.454966	0.086355
	N275	N	0.829577	0.530051	0.916746
	O276	O	-0.024938	-0.014841	0.001406
	H277	H	-0.030987	-0.024412	0.001516
	H278	H	-0.026312	-0.014965	0.004054
	O279	O	0.558319	0.516540	0.468600
	H280	H	0.560517	0.528695	0.469875
	H281	H	0.554820	0.519950	0.469463
	O282	O	0.534256	0.487686	0.503509
	H283	H	0.526263	0.494806	0.516370
	H284	H	0.529473	0.486589	0.499421
	O285	O	1.074171	0.075138	0.983482
	H286	H	1.075689	0.076699	0.986696
	H287	H	1.077318	0.079980	0.985053
	O288	O	1.077938	-0.069826	-0.057431
	H289	H	1.093945	-0.073096	-0.057936
	H290	H	1.074918	-0.078400	-0.054622
	O291	O	0.140002	0.809081	0.142301
	H292	H	0.138739	0.811614	0.140794
	H293	H	0.120470	0.811204	0.151468
	O294	O	1.061056	0.046818	1.082450
	H295	H	1.051613	0.051999	1.080672
	H296	H	1.061025	0.045112	1.079804
	O297	O	0.124714	0.048813	0.056977
	H298	H	0.126269	0.042935	0.048819
	H299	H	0.124217	0.047268	0.055185
	O300	O	0.449510	0.489903	0.495182
	H301	H	0.438234	0.484438	0.494181
	H302	H	0.448320	0.495842	0.502398
	O303	O	0.479035	0.520659	0.486704
	H304	H	0.478322	0.537919	0.478993
	H305	H	0.478842	0.522676	0.481741
	O306	O	1.124069	-0.077704	-0.091314
	H307	H	1.120463	-0.068025	-0.094586
	H308	H	1.137183	-0.076248	-0.089795
	O309	O	-0.061795	0.023931	0.923893
	H310	H	-0.063879	0.015438	0.928713
	H311	H	-0.069947	0.015973	0.918264
	O312	O	1.054041	0.980923	1.072285
	H313	H	1.045303	0.994479	1.063264
	H314	H	1.054427	0.975595	1.073923
	O315	O	0.473129	0.537470	0.437621
	H316	H	0.475612	0.540497	0.439680
	H317	H	0.468163	0.531430	0.444430
	O318	O	0.480221	0.438470	0.510154
	H319	H	0.474449	0.442655	0.508120
	H320	H	0.486179	0.433067	0.503884
	O321	O	-0.092048	1.005165	1.025058
	H322	H	-0.095481	0.999025	1.030572
	H323	H	-0.096551	1.008705	1.035945
	O324	O	0.446464	0.487482	0.504234
	H325	H	0.450195	0.483757	0.513305
	H326	H	0.438073	0.496606	0.501781
	O327	O	0.989817	0.951802	0.013071
	H328	H	0.993495	0.953177	0.005785
	H329	H	0.993163	0.959699	0.012113
	O330	O	0.018884	0.987109	0.038574
	H331	H	0.021661	0.981911	0.037275
	H332	H	0.011134	0.984898	0.036943
	O333	O	-0.046505	1.044384	0.913516
	H334	H	-0.038209	1.043497	0.908488
	H335	H	-0.046824	1.036252	0.913981
	O336	O	0.503650	0.568863	0.514336
	H337	H	0.501864	0.566913	0.504266
	H338	H	0.504142	0.565947	0.503926
	O339	O	1.131223	0.987281	0.124778
	H340	H	1.124736	0.994427	0.128231
	H341	H	1.115107	0.992589	0.129558
	O342	O	0.460502	0.454474	0.486585
	H343	H	0.452619	0.455061	0.472823
	H344	H	0.462288	0.459560	0.484211
	O345	O	0.532889	0.555279	0.496777
	H346	H	0.547320	0.554829	0.503952
	H347	H	0.535209	0.543980	0.487181
	O348	O	-0.021156	-0.060944	0.034952
	H349	H	-0.016791	-0.071196	0.038158
	H350	H	-0.022602	-0.056073	0.022599
	O351	O	-0.020644	0.939388	0.974105
	H352	H	-0.020006	0.945008	0.972758
	H353	H	-0.019874	0.945794	0.976350
	O354	O	0.577238	0.462114	0.438212
	H355	H	0.579047	0.454429	0.422603
	H356	H	0.575421	0.470486	0.443393
	O357	O	-0.089624	1.084047	0.977905
	H358	H	-0.086235	1.087434	0.972427
	H359	H	-0.074414	1.083517	0.967827
