data_Molecule from HDF5

_cell_length_a		16.237935
_cell_length_b		16.231898
_cell_length_c		16.289258
_cell_angle_alpha	90.319798
_cell_angle_beta	89.410579
_cell_angle_gamma	89.554267
_symmetry_space_group_name_H-M	'P 1'
_symmetry_Int_Tables_number		1

loop_
	_symmetry_equiv_pos_as_xyz
	x,y,z

loop_
	_atom_site_label
	_atom_site_type_symbol
	_atom_site_fract_x
	_atom_site_fract_y
	_atom_site_fract_z
	H0	H	0.393978	0.836641	0.715344
	H1	H	0.590045	0.164741	0.720049
	H2	H	0.594479	0.838009	0.287235
	H3	H	0.391832	0.165466	0.287402
	H4	H	0.713057	0.397596	0.840620
	H5	H	0.700193	0.596872	0.167463
	H6	H	0.278962	0.598691	0.839710
	H7	H	0.275672	0.400853	0.165730
	H8	H	0.827368	0.717347	0.408806
	H9	H	0.156088	0.717396	0.600982
	H10	H	0.826454	0.291902	0.602776
	H11	H	0.155834	0.286171	0.402246
	H12	H	0.828387	0.406823	0.720964
	H13	H	0.156535	0.603492	0.717390
	H14	H	0.828529	0.603731	0.290744
	H15	H	0.156595	0.402764	0.286639
	H16	H	0.395844	0.713398	0.838825
	H17	H	0.589525	0.717349	0.164319
	H18	H	0.594859	0.284191	0.838381
	H19	H	0.393161	0.286469	0.165947
	H20	H	0.711857	0.840915	0.400239
	H21	H	0.699912	0.168725	0.599532
	H22	H	0.276818	0.838595	0.601939
	H23	H	0.279128	0.167101	0.407430
	H24	H	0.892615	0.338698	0.220882
	H25	H	0.088352	0.666789	0.215717
	H26	H	0.096118	0.339710	0.782901
	H27	H	0.893278	0.667137	0.793214
	H28	H	0.210848	0.900097	0.340207
	H29	H	0.205214	0.103142	0.666526
	H30	H	0.776633	0.105182	0.338841
	H31	H	0.775457	0.908254	0.666006
	H32	H	0.329550	0.217283	0.904864
	H33	H	0.656969	0.214253	0.100754
	H34	H	0.327444	0.789870	0.099664
	H35	H	0.656806	0.782993	0.900008
	H36	H	0.329142	0.902675	0.218369
	H37	H	0.656038	0.099624	0.215702
	H38	H	0.326587	0.098094	0.792571
	H39	H	0.655377	0.897213	0.782195
	H40	H	0.893580	0.218616	0.339284
	H41	H	0.087401	0.217892	0.666610
	H42	H	0.093976	0.785895	0.339626
	H43	H	0.891211	0.791183	0.667054
	H44	H	0.209016	0.336958	0.901599
	H45	H	0.203928	0.665442	0.101093
	H46	H	0.778684	0.336930	0.104390
	H47	H	0.776807	0.664903	0.907783
	H48	H	0.398573	0.118055	0.597098
	H49	H	0.587886	0.888505	0.581299
	H50	H	0.575952	0.117105	0.409853
	H51	H	0.402376	0.885328	0.407461
	H52	H	0.583064	0.397977	0.120743
	H53	H	0.577321	0.586263	0.889559
	H54	H	0.404057	0.602298	0.120094
	H55	H	0.406229	0.407419	0.887846
	H56	H	0.109993	0.594076	0.406999
	H57	H	0.873960	0.607757	0.594056
	H58	H	0.108906	0.411817	0.596452
	H59	H	0.872604	0.410625	0.403390
	H60	H	0.108980	0.406807	0.592618
	H61	H	0.879113	0.589244	0.593624
	H62	H	0.109951	0.596792	0.407825
	H63	H	0.875101	0.404982	0.415907
	H64	H	0.388546	0.597660	0.123279
	H65	H	0.586450	0.599541	0.882671
	H66	H	0.593299	0.409194	0.121405
	H67	H	0.400351	0.405839	0.884922
	H68	H	0.588460	0.120306	0.413023
	H69	H	0.593515	0.882103	0.597440
	H70	H	0.396121	0.118883	0.598265
	H71	H	0.401327	0.885893	0.411970
	H72	H	0.896927	0.616444	0.094425
	H73	H	0.075717	0.387857	0.092232
	H74	H	0.089548	0.622279	0.903042
	H75	H	0.911355	0.388302	0.912814
	H76	H	0.088944	0.910406	0.621122
	H77	H	0.084306	0.096230	0.387129
	H78	H	0.903062	0.099312	0.617332
	H79	H	0.888125	0.918069	0.384176
	H80	H	0.609488	0.090226	0.906101
	H81	H	0.374409	0.099111	0.098629
	H82	H	0.607666	0.906086	0.085742
	H83	H	0.374022	0.905587	0.907567
	H84	H	0.609207	0.913562	0.096594
	H85	H	0.377799	0.094696	0.089979
	H86	H	0.608515	0.091814	0.910482
	H87	H	0.376326	0.906862	0.910227
	H88	H	0.890525	0.103194	0.622140
	H89	H	0.087306	0.093856	0.386276
	H90	H	0.082733	0.916796	0.617310
	H91	H	0.914202	0.916667	0.392212
	H92	H	0.077559	0.615573	0.911099
	H93	H	0.091177	0.384755	0.089487
	H94	H	0.890921	0.620092	0.099069
	H95	H	0.899543	0.385315	0.917190
	H96	H	0.398839	0.119103	0.598733
	H97	H	0.575493	0.887088	0.595125
	H98	H	0.584341	0.122356	0.401249
	H99	H	0.398482	0.884257	0.408274
	H100	H	0.579164	0.411156	0.115508
	H101	H	0.594611	0.584292	0.885367
	H102	H	0.399398	0.586780	0.116532
	H103	H	0.401324	0.411607	0.887854
	H104	H	0.108416	0.594717	0.409637
	H105	H	0.872425	0.597566	0.610808
	H106	H	0.106106	0.412265	0.590189
	H107	H	0.878129	0.418102	0.413639
	H108	H	0.898179	0.619574	0.101632
	H109	H	0.085645	0.382443	0.103506
	H110	H	0.091319	0.617837	0.918038
	H111	H	0.903003	0.383074	0.904344
	H112	H	0.080125	0.907654	0.618510
	H113	H	0.084261	0.092822	0.387128
	H114	H	0.892692	0.090209	0.617552
	H115	H	0.901623	0.894924	0.381960
	H116	H	0.607550	0.087229	0.908571
	H117	H	0.376404	0.088723	0.097921
	H118	H	0.612212	0.900297	0.096848
	H119	H	0.375826	0.907661	0.907369
	C120	C	0.369831	0.010027	0.624572
	C121	C	0.612693	0.994341	0.622125
	C122	C	0.614056	0.011615	0.378996
	C123	C	0.371202	0.993646	0.381118
	C124	C	0.616223	0.376359	0.011374
	C125	C	0.613113	0.620128	0.993799
	C126	C	0.370244	0.623022	0.011600
	C127	C	0.371852	0.379006	0.994496
	C128	C	0.000965	0.624363	0.381867
	C129	C	0.983864	0.625923	0.626135
	C130	C	-0.000321	0.382408	0.623896
	C131	C	0.983653	0.381442	0.381043
	C132	C	0.868682	0.510068	0.127102
	C133	C	0.112366	0.493484	0.123622
	C134	C	0.115845	0.510640	0.880243
	C135	C	0.873140	0.493488	0.883801
	C136	C	0.114244	0.880980	0.511334
	C137	C	0.113030	0.124067	0.494777
	C138	C	0.868601	0.126290	0.510971
	C139	C	0.871014	0.882665	0.494475
	C140	C	0.500426	0.120364	0.881036
	C141	C	0.484352	0.122131	0.123449
	C142	C	0.501011	0.879150	0.122545
	C143	C	0.483971	0.876779	0.878224
	C144	C	0.373107	0.886034	0.678214
	C145	C	0.609582	0.116630	0.680266
	C146	C	0.614069	0.887818	0.324144
	C147	C	0.372233	0.116824	0.325838
	C148	C	0.674210	0.377456	0.888917
	C149	C	0.664929	0.618030	0.117659
	C150	C	0.316529	0.619450	0.888230
	C151	C	0.314629	0.381165	0.117034
	C152	C	0.876697	0.679852	0.386898
	C153	C	0.107328	0.679853	0.621848
	C154	C	0.876040	0.328622	0.623033
	C155	C	0.107021	0.324736	0.382300
	C156	C	0.876802	0.386094	0.681483
	C157	C	0.107380	0.623086	0.680010
	C158	C	0.877243	0.623433	0.328174
	C159	C	0.107297	0.382666	0.324726
	C160	C	0.374631	0.676254	0.887778
	C161	C	0.609818	0.677656	0.116161
	C162	C	0.615335	0.321198	0.887814
	C163	C	0.373097	0.324107	0.117190
	C164	C	0.672475	0.889013	0.380284
	C165	C	0.664653	0.118650	0.620465
	C166	C	0.315159	0.886947	0.621654
	C167	C	0.316034	0.117716	0.385244
	C168	C	0.872236	0.387468	0.182939
	C169	C	0.109185	0.617137	0.178787
	C170	C	0.115335	0.387940	0.822468
	C171	C	0.873295	0.617394	0.829959
	C172	C	0.171685	0.881185	0.388617
	C173	C	0.167491	0.122981	0.617560
	C174	C	0.814365	0.124839	0.387752
	C175	C	0.813758	0.886788	0.617200
	C176	C	0.377736	0.178168	0.884310
	C177	C	0.607756	0.176592	0.120529
	C178	C	0.377017	0.826333	0.120294
	C179	C	0.607194	0.820552	0.879647
	C180	C	0.378062	0.882127	0.179627
	C181	C	0.607260	0.119791	0.178043
	C182	C	0.376422	0.118512	0.828718
	C183	C	0.606780	0.877540	0.821093
	C184	C	0.872592	0.181116	0.387828
	C185	C	0.109138	0.180270	0.617581
	C186	C	0.113767	0.823883	0.388666
	C187	C	0.871348	0.828545	0.617693
	C188	C	0.171799	0.386708	0.881307
	C189	C	0.166443	0.616635	0.121471
	C190	C	0.815650	0.386343	0.124728
	C191	C	0.815140	0.616236	0.886813
	C192	C	0.391360	0.096286	0.603797
	C193	C	0.592005	0.908197	0.598222
	C194	C	0.590008	0.097602	0.401454
	C195	C	0.393964	0.907668	0.402955
	C196	C	0.592268	0.399263	0.097036
	C197	C	0.592336	0.596923	0.908045
	C198	C	0.391151	0.602009	0.097767
	C199	C	0.395636	0.401781	0.908948
	C200	C	0.087000	0.601934	0.402257
	C201	C	0.897408	0.604600	0.605405
	C202	C	0.085752	0.404031	0.600113
	C203	C	0.897510	0.404568	0.404033
	C204	C	0.889249	0.596339	0.104916
	C205	C	0.090756	0.407395	0.101379
	C206	C	0.092838	0.596426	0.903758
	C207	C	0.897490	0.407796	0.905203
	C208	C	0.090780	0.904798	0.596861
	C209	C	0.091744	0.100973	0.409009
	C210	C	0.889307	0.104139	0.596729
	C211	C	0.894542	0.903719	0.408534
	C212	C	0.586344	0.096744	0.902217
	C213	C	0.398532	0.100574	0.101800
	C214	C	0.587421	0.900288	0.099659
	C215	C	0.397575	0.899731	0.901542
	Zn216	Zn	0.491715	0.000124	0.751487
	Zn217	Zn	0.492760	0.001334	0.251824
	Zn218	Zn	0.742527	0.499805	0.003543
	Zn219	Zn	0.242543	0.501016	0.003354
	Zn220	Zn	-0.007904	0.753192	0.503460
	Zn221	Zn	-0.008819	0.252931	0.502450
	Zn222	Zn	-0.006839	0.503806	0.753837
	Zn223	Zn	-0.007901	0.503275	0.252852
	Zn224	Zn	0.492382	0.750201	0.001632
	Zn225	Zn	0.493178	0.249581	0.002050
	Zn226	Zn	0.741490	0.004665	0.500994
	Zn227	Zn	0.242450	0.002230	0.503063
	N228	N	0.406268	0.963626	0.680286
	N229	N	0.578188	0.038213	0.681496
	N230	N	0.578433	0.965148	0.323367
	N231	N	0.405895	0.038692	0.323287
	N232	N	0.675013	0.410772	0.966775
	N233	N	0.666891	0.582538	0.040579
	N234	N	0.313456	0.587242	0.966197
	N235	N	0.313789	0.414622	0.039632
	N236	N	0.954533	0.680753	0.419400
	N237	N	0.029548	0.681829	0.589266
	N238	N	0.953609	0.326348	0.587898
	N239	N	0.029221	0.323940	0.416592
	N240	N	0.954703	0.418759	0.682123
	N241	N	0.029487	0.590358	0.682888
	N242	N	0.955158	0.589575	0.324893
	N243	N	0.029595	0.417208	0.323843
	N244	N	0.407114	0.678707	0.965350
	N245	N	0.578704	0.679274	0.038115
	N246	N	0.580104	0.320115	0.965083
	N247	N	0.407962	0.322725	0.039890
	N248	N	0.672708	0.967063	0.413628
	N249	N	0.666509	0.041718	0.584635
	N250	N	0.312966	0.965055	0.589189
	N251	N	0.315255	0.040187	0.418864
	N252	N	0.904243	0.465715	0.184728
	N253	N	0.076100	0.539518	0.179879
	N254	N	0.081422	0.465845	0.821742
	N255	N	0.908588	0.540139	0.828053
	N256	N	0.172224	0.915917	0.465833
	N257	N	0.170073	0.088931	0.540092
	N258	N	0.811759	0.091376	0.465261
	N259	N	0.813507	0.919844	0.539566
	N260	N	0.455734	0.179150	0.916272
	N261	N	0.530101	0.178462	0.087325
	N262	N	0.454604	0.824352	0.085352
	N263	N	0.529605	0.820162	0.914410
	N264	N	0.456184	0.914368	0.180973
	N265	N	0.529671	0.086613	0.180004
	N266	N	0.453865	0.083287	0.826626
	N267	N	0.529002	0.911665	0.819948
	N268	N	0.905396	0.182294	0.465202
	N269	N	0.075947	0.180912	0.540199
	N270	N	0.078796	0.823688	0.465911
	N271	N	0.906396	0.826147	0.540509
	N272	N	0.172226	0.464023	0.916594
	N273	N	0.168736	0.538779	0.087811
	N274	N	0.813036	0.463673	0.090877
	N275	N	0.814883	0.538151	0.919723
	O276	O	-0.101117	-0.019594	0.032098
	H277	H	-0.095244	-0.016360	0.039141
	H278	H	-0.094098	-0.031097	0.031014
	O279	O	0.485959	0.484388	0.470103
	H280	H	0.495583	0.489486	0.465941
	H281	H	0.485737	0.477891	0.479731
	O282	O	0.438770	0.426498	0.450708
	H283	H	0.451344	0.436122	0.446211
	H284	H	0.455021	0.424779	0.453213
	O285	O	-0.105317	1.019836	0.935227
	H286	H	-0.110745	1.009827	0.941047
	H287	H	-0.093621	1.020338	0.923296
	O288	O	0.510077	0.488358	0.525036
	H289	H	0.515118	0.482567	0.530063
	H290	H	0.512988	0.481280	0.520792
	O291	O	1.141541	1.011988	0.983087
	H292	H	1.144578	1.024683	0.984119
	H293	H	1.144015	1.023668	0.979186
	O294	O	0.878724	1.055314	0.995318
	H295	H	0.887022	1.052690	0.992432
	H296	H	0.870142	1.056752	1.007042
	O297	O	1.038719	0.030393	0.998861
	H298	H	1.047068	0.032529	0.988508
	H299	H	1.042356	0.021720	1.008647
	O300	O	0.551750	0.506896	0.543604
	H301	H	0.551756	0.505329	0.542953
	H302	H	0.551501	0.493870	0.545652
	O303	O	0.987988	-0.088861	-0.113867
	H304	H	1.000181	-0.083779	-0.127622
	H305	H	0.995393	-0.087229	-0.100136
	O306	O	-0.100653	0.992331	0.931460
	H307	H	-0.098763	0.993848	0.927087
	H308	H	-0.104385	0.995111	0.932893
	O309	O	0.403706	0.495710	0.534540
	H310	H	0.413830	0.492083	0.541291
	H311	H	0.408370	0.482016	0.528299
	O312	O	1.008710	0.054926	1.005117
	H313	H	1.002152	0.050734	1.005724
	H314	H	1.002045	0.046593	1.005289
	O315	O	0.567694	0.454615	0.519983
	H316	H	0.575920	0.460011	0.523520
	H317	H	0.559963	0.466278	0.512512
	O318	O	0.441365	0.465814	0.564038
	H319	H	0.432585	0.462252	0.554539
	H320	H	0.450161	0.473871	0.558098
	O321	O	0.954282	1.042752	1.020742
	H322	H	0.947666	1.044132	1.022810
	H323	H	0.957829	1.023637	1.014898
	O324	O	0.435561	0.483154	0.582828
	H325	H	0.441915	0.483783	0.582860
	H326	H	0.437082	0.478685	0.581172
	O327	O	0.554151	0.530538	0.542934
	H328	H	0.547536	0.532812	0.549959
	H329	H	0.556702	0.535092	0.538488
	O330	O	1.083046	0.076925	0.980602
	H331	H	1.082322	0.084113	0.994660
	H332	H	1.078891	0.076654	0.987889
	O333	O	0.982636	0.918637	-0.044758
	H334	H	0.982630	0.918736	-0.035152
	H335	H	0.981469	0.917129	-0.049583
	O336	O	0.441378	0.508491	0.463666
	H337	H	0.439287	0.513342	0.462213
	H338	H	0.433503	0.497955	0.468980
	O339	O	0.578621	0.484264	0.392149
	H340	H	0.586885	0.501899	0.391370
	H341	H	0.586737	0.488056	0.392483
	O342	O	0.031020	1.065218	0.056224
	H343	H	0.025141	1.069098	0.055952
	H344	H	0.030313	1.063060	0.049425
	O345	O	-0.039526	-0.029316	0.031931
	H346	H	-0.032089	-0.037578	0.033584
	H347	H	-0.038007	-0.026161	0.032310
	O348	O	0.565875	0.576820	0.387449
	H349	H	0.558782	0.571076	0.391787
	H350	H	0.557401	0.573473	0.380537
	O351	O	0.404782	0.508004	0.534140
	H352	H	0.414458	0.494660	0.540166
	H353	H	0.395957	0.505846	0.523501
	O354	O	1.067210	0.998225	0.037750
	H355	H	1.069916	1.000086	0.040347
	H356	H	1.074152	1.007351	0.035607
	O357	O	-0.049765	0.007924	1.062849
	H358	H	-0.050213	0.018177	1.059454
	H359	H	-0.054454	0.004016	1.054484
	O360	O	0.048724	0.002155	0.011457
	H361	H	0.047613	0.012500	0.012629
	H362	H	0.059447	0.001800	0.012973
	O363	O	0.498646	0.398656	0.484824
	H364	H	0.498331	0.389126	0.493798
	H365	H	0.494755	0.410769	0.480112
	O366	O	0.021391	0.037859	1.046851
	H367	H	0.024937	0.037321	1.037452
	H368	H	0.019350	0.035811	1.045628
	O369	O	1.419209	0.567501	-0.490320
	H370	H	1.411642	0.567704	-0.485277
	H371	H	1.420276	0.569588	-0.482546
