data_Molecule from HDF5

_cell_length_a		16.442769
_cell_length_b		16.408159
_cell_length_c		16.375622
_cell_angle_alpha	89.923583
_cell_angle_beta	90.033360
_cell_angle_gamma	89.949664
_symmetry_space_group_name_H-M	'P 1'
_symmetry_Int_Tables_number		1

loop_
	_symmetry_equiv_pos_as_xyz
	x,y,z

loop_
	_atom_site_label
	_atom_site_type_symbol
	_atom_site_fract_x
	_atom_site_fract_y
	_atom_site_fract_z
	H0	H	0.390468	0.831210	0.728603
	H1	H	0.598452	0.150702	0.730104
	H2	H	0.601466	0.833160	0.286039
	H3	H	0.385561	0.148311	0.284061
	H4	H	0.714640	0.387025	0.851457
	H5	H	0.714649	0.600184	0.168434
	H6	H	0.268342	0.599888	0.851857
	H7	H	0.270694	0.384473	0.168098
	H8	H	0.835617	0.714273	0.403868
	H9	H	0.151287	0.714274	0.617634
	H10	H	0.834452	0.269705	0.616260
	H11	H	0.151180	0.271611	0.405323
	H12	H	0.833371	0.387911	0.729607
	H13	H	0.150128	0.599834	0.735539
	H14	H	0.834517	0.598237	0.288384
	H15	H	0.150901	0.387616	0.289237
	H16	H	0.385561	0.713123	0.850644
	H17	H	0.599320	0.716048	0.167497
	H18	H	0.600504	0.270445	0.850716
	H19	H	0.385254	0.267155	0.166372
	H20	H	0.716222	0.833103	0.402582
	H21	H	0.714150	0.150915	0.614928
	H22	H	0.270931	0.833411	0.616461
	H23	H	0.269682	0.148952	0.400400
	H24	H	0.887752	0.332846	0.231071
	H25	H	0.096825	0.650942	0.230636
	H26	H	0.100637	0.334387	0.787101
	H27	H	0.885783	0.649385	0.787436
	H28	H	0.215674	0.885445	0.350476
	H29	H	0.217877	0.099722	0.667151
	H30	H	0.772724	0.097364	0.350574
	H31	H	0.772902	0.884730	0.669237
	H32	H	0.334483	0.213854	0.901422
	H33	H	0.650546	0.214955	0.116655
	H34	H	0.334939	0.767906	0.118100
	H35	H	0.650359	0.768544	0.903013
	H36	H	0.335981	0.882400	0.234312
	H37	H	0.650398	0.099495	0.233141
	H38	H	0.334832	0.095978	0.787468
	H39	H	0.652133	0.885493	0.788679
	H40	H	0.890018	0.211549	0.350121
	H41	H	0.099663	0.212597	0.669215
	H42	H	0.100752	0.769114	0.350863
	H43	H	0.890269	0.770322	0.669275
	H44	H	0.217094	0.334785	0.901826
	H45	H	0.216994	0.649230	0.119392
	H46	H	0.767641	0.335792	0.120057
	H47	H	0.770468	0.650161	0.903015
	H48	H	0.399859	0.105896	0.595485
	H49	H	0.583191	0.879296	0.594594
	H50	H	0.587394	0.106973	0.417372
	H51	H	0.408318	0.879867	0.422892
	H52	H	0.573627	0.402989	0.119935
	H53	H	0.580236	0.582324	0.895842
	H54	H	0.409213	0.578378	0.119815
	H55	H	0.399895	0.403173	0.894758
	H56	H	0.107256	0.580870	0.418686
	H57	H	0.883874	0.578610	0.591515
	H58	H	0.106626	0.401258	0.600313
	H59	H	0.882388	0.403754	0.430178
	H60	H	0.105568	0.401490	0.598839
	H61	H	0.881190	0.576187	0.603030
	H62	H	0.106127	0.581297	0.422968
	H63	H	0.879286	0.408900	0.415014
	H64	H	0.403416	0.584873	0.125777
	H65	H	0.583921	0.577450	0.896965
	H66	H	0.582571	0.397381	0.126328
	H67	H	0.404282	0.409154	0.898286
	H68	H	0.575753	0.102982	0.418067
	H69	H	0.588369	0.876174	0.600017
	H70	H	0.408104	0.105543	0.602014
	H71	H	0.403869	0.879193	0.423922
	H72	H	0.909028	0.603397	0.099063
	H73	H	0.074253	0.381602	0.097909
	H74	H	0.082195	0.606114	0.920917
	H75	H	0.903978	0.378051	0.920803
	H76	H	0.077650	0.905789	0.620305
	H77	H	0.079803	0.075975	0.398890
	H78	H	0.909323	0.073849	0.620022
	H79	H	0.897809	0.906701	0.395073
	H80	H	0.605100	0.078659	0.922041
	H81	H	0.378852	0.082911	0.097910
	H82	H	0.603353	0.913633	0.102942
	H83	H	0.379373	0.902570	0.917442
	H84	H	0.608385	0.893914	0.098666
	H85	H	0.383755	0.078573	0.089943
	H86	H	0.607890	0.080626	0.914996
	H87	H	0.379376	0.902006	0.919785
	H88	H	0.907337	0.087529	0.624735
	H89	H	0.078018	0.085002	0.396778
	H90	H	0.082447	0.899421	0.624452
	H91	H	0.910614	0.906732	0.399691
	H92	H	0.074677	0.602047	0.921791
	H93	H	0.085785	0.379729	0.092812
	H94	H	0.898521	0.605153	0.093888
	H95	H	0.904789	0.379757	0.923665
	H96	H	0.408643	0.101461	0.592165
	H97	H	0.580990	0.877200	0.601604
	H98	H	0.583214	0.101940	0.428164
	H99	H	0.405232	0.877979	0.419604
	H100	H	0.583627	0.409143	0.122491
	H101	H	0.578071	0.577634	0.898497
	H102	H	0.399681	0.575286	0.123302
	H103	H	0.408274	0.402159	0.896564
	H104	H	0.105112	0.577461	0.420878
	H105	H	0.878765	0.587005	0.598194
	H106	H	0.106236	0.403539	0.599698
	H107	H	0.875502	0.393756	0.419584
	H108	H	0.900194	0.609502	0.105197
	H109	H	0.083562	0.376224	0.104912
	H110	H	0.079772	0.603785	0.928491
	H111	H	0.901814	0.378439	0.923182
	H112	H	0.086598	0.907681	0.622260
	H113	H	0.087002	0.081508	0.394347
	H114	H	0.896376	0.078072	0.625541
	H115	H	0.905219	0.895364	0.394240
	H116	H	0.607561	0.086190	0.921058
	H117	H	0.382096	0.073331	0.098362
	H118	H	0.599486	0.905803	0.083705
	H119	H	0.379621	0.903823	0.919733
	C120	C	0.372826	-0.000186	0.629707
	C121	C	0.615733	0.983049	0.630998
	C122	C	0.615045	-0.000515	0.387794
	C123	C	0.372000	0.982867	0.387748
	C124	C	0.613756	0.370620	0.018354
	C125	C	0.613684	0.613107	1.001268
	C126	C	0.370860	0.612919	0.018435
	C127	C	0.371219	0.370822	1.000855
	C128	C	0.001893	0.613485	0.387911
	C129	C	0.985245	0.613444	0.631348
	C130	C	0.001551	0.369511	0.632317
	C131	C	0.984005	0.370448	0.389124
	C132	C	0.870069	0.501449	0.132334
	C133	C	0.114123	0.483488	0.131860
	C134	C	0.113463	0.500168	0.889424
	C135	C	0.871254	0.483476	0.889649
	C136	C	0.114820	0.871210	0.517545
	C137	C	0.115443	0.113810	0.501248
	C138	C	0.872379	0.112460	0.518109
	C139	C	0.872627	0.870134	0.501294
	C140	C	0.501879	0.114008	0.886501
	C141	C	0.484970	0.112672	0.129963
	C142	C	0.500429	0.870403	0.130030
	C143	C	0.484158	0.869846	0.886863
	C144	C	0.371227	0.879630	0.689486
	C145	C	0.616975	0.102812	0.690726
	C146	C	0.618747	0.880894	0.326293
	C147	C	0.368120	0.101264	0.325376
	C148	C	0.675100	0.368307	0.899233
	C149	C	0.674292	0.617198	0.120678
	C150	C	0.309071	0.617059	0.899333
	C151	C	0.310693	0.366630	0.120320
	C152	C	0.883221	0.674687	0.385393
	C153	C	0.103862	0.674168	0.635163
	C154	C	0.882312	0.309338	0.634377
	C155	C	0.103698	0.311358	0.387151
	C156	C	0.881489	0.368446	0.690706
	C157	C	0.103133	0.616982	0.693921
	C158	C	0.882325	0.616488	0.328121
	C159	C	0.103123	0.368796	0.328913
	C160	C	0.367373	0.673777	0.898720
	C161	C	0.616855	0.675157	0.120210
	C162	C	0.617942	0.310262	0.898828
	C163	C	0.367818	0.308152	0.119234
	C164	C	0.676047	0.880729	0.384513
	C165	C	0.674978	0.102878	0.633501
	C166	C	0.311417	0.880703	0.633815
	C167	C	0.310114	0.101419	0.383041
	C168	C	0.868463	0.381357	0.192136
	C169	C	0.116039	0.602939	0.191857
	C170	C	0.118056	0.381754	0.827615
	C171	C	0.867975	0.602007	0.827893
	C172	C	0.175510	0.867736	0.398144
	C173	C	0.177293	0.117050	0.619842
	C174	C	0.812739	0.115073	0.398219
	C175	C	0.812663	0.867154	0.621297
	C176	C	0.382462	0.173680	0.883901
	C177	C	0.603101	0.174494	0.133945
	C178	C	0.382483	0.808367	0.135171
	C179	C	0.602957	0.808939	0.884957
	C180	C	0.382842	0.865683	0.193286
	C181	C	0.603165	0.117032	0.192195
	C182	C	0.382349	0.114829	0.826903
	C183	C	0.603977	0.867671	0.828041
	C184	C	0.871261	0.171891	0.397957
	C185	C	0.118220	0.173441	0.620775
	C186	C	0.117999	0.809776	0.398508
	C187	C	0.870942	0.809967	0.621342
	C188	C	0.176389	0.382119	0.884868
	C189	C	0.175670	0.602141	0.135859
	C190	C	0.808681	0.382667	0.136741
	C191	C	0.810574	0.602362	0.885880
	C192	C	0.398116	0.082584	0.603829
	C193	C	0.591268	0.899619	0.605986
	C194	C	0.589373	0.082283	0.413731
	C195	C	0.398181	0.900468	0.414373
	C196	C	0.587658	0.395828	0.101253
	C197	C	0.587977	0.586920	0.918652
	C198	C	0.396634	0.586937	0.101265
	C199	C	0.396935	0.397191	0.918130
	C200	C	0.084662	0.587359	0.413443
	C201	C	0.902825	0.587963	0.605116
	C202	C	0.084583	0.394839	0.606969
	C203	C	0.900733	0.394940	0.414238
	C204	C	0.895344	0.584267	0.106930
	C205	C	0.088600	0.400755	0.106074
	C206	C	0.086406	0.582440	0.916143
	C207	C	0.896271	0.400499	0.915368
	C208	C	0.089482	0.896813	0.600615
	C209	C	0.089187	0.088234	0.418215
	C210	C	0.897080	0.087063	0.601592
	C211	C	0.897424	0.895550	0.418238
	C212	C	0.585247	0.088917	0.911956
	C213	C	0.402901	0.085848	0.103223
	C214	C	0.582254	0.897041	0.103025
	C215	C	0.401175	0.895512	0.911929
	Zn216	Zn	0.493457	-0.008360	0.758449
	Zn217	Zn	0.493865	-0.008619	0.258979
	Zn218	Zn	0.742464	0.492227	0.010448
	Zn219	Zn	0.242383	0.492336	0.010274
	Zn220	Zn	-0.005983	0.742178	0.509809
	Zn221	Zn	-0.007066	0.241749	0.510241
	Zn222	Zn	-0.007756	0.491368	0.760172
	Zn223	Zn	-0.007941	0.491915	0.260138
	Zn224	Zn	0.491829	0.741262	0.008938
	Zn225	Zn	0.492693	0.242014	0.008480
	Zn226	Zn	0.743584	-0.008634	0.509458
	Zn227	Zn	0.243354	-0.008500	0.509338
	N228	N	0.408469	0.954632	0.687386
	N229	N	0.581139	0.027194	0.689614
	N230	N	0.581486	0.955911	0.328146
	N231	N	0.405387	0.026356	0.327710
	N232	N	0.672822	0.405129	0.974726
	N233	N	0.672669	0.579571	0.045816
	N234	N	0.310942	0.580136	0.974773
	N235	N	0.312388	0.404802	0.045590
	N236	N	0.958730	0.673038	0.421748
	N237	N	0.029641	0.671995	0.596879
	N238	N	0.958306	0.309554	0.599008
	N239	N	0.028573	0.312196	0.423848
	N240	N	0.956765	0.404649	0.689787
	N241	N	0.028101	0.579987	0.691784
	N242	N	0.957066	0.579216	0.329516
	N243	N	0.027668	0.404875	0.330099
	N244	N	0.404762	0.671613	0.973766
	N245	N	0.579613	0.672484	0.044969
	N246	N	0.580671	0.311398	0.973795
	N247	N	0.404646	0.310763	0.044033
	N248	N	0.674219	0.955584	0.421804
	N249	N	0.674553	0.027244	0.597268
	N250	N	0.312225	0.956347	0.597422
	N251	N	0.312378	0.026744	0.421075
	N252	N	0.906045	0.456124	0.189504
	N253	N	0.078451	0.528226	0.189420
	N254	N	0.079818	0.456226	0.830235
	N255	N	0.905412	0.527222	0.830223
	N256	N	0.173827	0.904934	0.473128
	N257	N	0.175615	0.080625	0.544297
	N258	N	0.813356	0.078741	0.473981
	N259	N	0.813514	0.903880	0.545720
	N260	N	0.457919	0.173244	0.920177
	N261	N	0.528485	0.171928	0.096033
	N262	N	0.456514	0.811234	0.096406
	N263	N	0.527400	0.810103	0.920843
	N264	N	0.457241	0.903562	0.190329
	N265	N	0.528620	0.079227	0.189824
	N266	N	0.457695	0.078590	0.828455
	N267	N	0.528898	0.904609	0.828905
	N268	N	0.907576	0.170528	0.473603
	N269	N	0.080630	0.171757	0.545809
	N270	N	0.081112	0.811742	0.473863
	N271	N	0.907418	0.811481	0.545944
	N272	N	0.173556	0.456881	0.922685
	N273	N	0.174796	0.526787	0.099302
	N274	N	0.809299	0.458188	0.100388
	N275	N	0.812573	0.527649	0.923669
	O276	O	0.363448	0.560197	0.636500
	H277	H	0.376871	0.586767	0.629515
	H278	H	0.362146	0.564710	0.620134
	O279	O	0.686862	0.311212	0.499409
	H280	H	0.697084	0.316296	0.506298
	H281	H	0.661264	0.294721	0.517678
	O282	O	0.164474	0.981893	-0.157640
	H283	H	0.170848	0.964436	-0.156663
	H284	H	0.168903	0.979006	-0.169607
	O285	O	0.812667	1.157393	-0.168647
	H286	H	0.830504	1.150054	-0.170382
	H287	H	0.820484	1.146359	-0.157443
	O288	O	0.814365	1.035296	1.041245
	H289	H	0.827861	1.021718	1.051499
	H290	H	0.828086	1.034166	1.053253
	O291	O	0.318998	0.487597	0.675768
	H292	H	0.331118	0.499019	0.682693
	H293	H	0.305632	0.509586	0.674242
	O294	O	1.173170	1.060919	0.975998
	H295	H	1.181920	1.075433	0.971074
	H296	H	1.177087	1.064634	0.958572
	O297	O	-0.157601	0.988306	-0.195460
	H298	H	-0.174379	0.977027	-0.199360
	H299	H	-0.152744	0.998090	-0.201064
	O300	O	0.628271	0.463153	0.636394
	H301	H	0.618459	0.458113	0.644129
	H302	H	0.625955	0.454676	0.654302
	O303	O	0.579154	0.664669	0.518261
	H304	H	0.573469	0.657087	0.551079
	H305	H	0.593033	0.663821	0.515159
	O306	O	0.186495	-0.196865	0.900916
	H307	H	0.159025	-0.187912	0.886785
	H308	H	0.202140	-0.206970	0.908534
	O309	O	1.148868	0.134018	-0.037803
	H310	H	1.150295	0.147631	-0.029809
	H311	H	1.148986	0.123742	-0.016093
	O312	O	0.286904	0.283196	0.566382
	H313	H	0.277619	0.264583	0.549189
	H314	H	0.291892	0.285390	0.556411
	O315	O	0.566253	0.493822	0.659353
	H316	H	0.550530	0.469168	0.661501
	H317	H	0.560736	0.502909	0.653496
	O318	O	0.306971	0.365012	0.679035
	H319	H	0.301626	0.367418	0.642491
	H320	H	0.297603	0.405359	0.686965
	O321	O	0.497081	0.650698	0.322820
	H322	H	0.503586	0.675505	0.308687
	H323	H	0.507103	0.654239	0.343270
	O324	O	0.362279	0.487953	0.297841
	H325	H	0.361635	0.472100	0.300147
	H326	H	0.370933	0.465074	0.282653
	O327	O	0.646228	0.629254	0.602819
	H328	H	0.644663	0.622371	0.592893
	H329	H	0.657014	0.615680	0.609688
	O330	O	-0.054519	0.813943	0.996489
	H331	H	-0.040402	0.817375	0.992388
	H332	H	-0.063675	0.831531	1.010626
	O333	O	-0.547674	1.278630	0.724254
	H334	H	-0.568560	1.269342	0.742379
	H335	H	-0.575044	1.271995	0.729734
	O336	O	1.170922	0.898744	0.080244
	H337	H	1.162723	0.919026	0.071024
	H338	H	1.173266	0.879139	0.062148
	O339	O	0.197846	1.020461	1.182894
	H340	H	0.205467	0.998117	1.171663
	H341	H	0.223726	1.027523	1.201574
	O342	O	0.100179	0.824809	-0.071857
	H343	H	0.102541	0.811003	-0.069718
	H344	H	0.095943	0.840009	-0.079017
	O345	O	0.027041	0.201990	0.894687
	H346	H	0.039443	0.204013	0.876784
	H347	H	0.029595	0.200455	0.881205
	O348	O	0.344790	0.430081	0.443486
	H349	H	0.339333	0.407738	0.453203
	H350	H	0.343091	0.439915	0.447407
	O351	O	1.115837	0.927532	-0.190019
	H352	H	1.112559	0.930645	-0.185975
	H353	H	1.103071	0.925070	-0.195956
	O354	O	1.040091	1.208420	1.069937
	H355	H	1.017063	1.220602	1.061036
	H356	H	1.057068	1.209091	1.066238
	O357	O	-0.050046	-0.002535	-0.071377
	H358	H	-0.034251	0.000727	-0.072154
	H359	H	-0.060162	-0.001811	-0.054515
	O360	O	0.566811	0.571937	0.299285
	H361	H	0.556705	0.585905	0.306343
	H362	H	0.555821	0.561927	0.294345
	O363	O	0.947926	-0.096743	0.005024
	H364	H	0.963293	-0.098658	0.027436
	H365	H	0.933544	-0.079302	0.015399
	O366	O	0.023254	0.117682	1.196019
	H367	H	0.010196	0.126696	1.174661
	H368	H	0.020887	0.132610	1.214673
	O369	O	1.024621	-0.107649	1.210169
	H370	H	1.033636	-0.093924	1.219520
	H371	H	1.037920	-0.105089	1.187949
	O372	O	1.000074	-0.220710	0.098483
	H373	H	1.020988	-0.205024	0.093820
	H374	H	0.994861	-0.234273	0.114681
	O375	O	-0.130063	-0.802926	0.067906
	H376	H	-0.138565	-0.818714	0.084273
	H377	H	-0.157083	-0.789952	0.050495
	O378	O	0.633580	0.601136	0.464686
	H379	H	0.644374	0.588232	0.460229
	H380	H	0.645468	0.596187	0.465393
	O381	O	-0.093345	1.200746	-0.141907
	H382	H	-0.087702	1.178731	-0.160148
	H383	H	-0.112004	1.224893	-0.162065
	O384	O	0.280302	0.704354	0.488611
	H385	H	0.285216	0.705269	0.455613
	H386	H	0.263947	0.729168	0.474135
	O387	O	0.330169	0.670906	0.331563
	H388	H	0.317841	0.624934	0.317897
	H389	H	0.364650	0.677572	0.327091
	O390	O	0.786089	0.973290	0.215498
	H391	H	0.778586	0.963707	0.230077
	H392	H	0.778603	0.965655	0.205726
	O393	O	1.486653	0.382878	0.545189
	H394	H	1.466600	0.384735	0.567347
	H395	H	1.478899	0.389064	0.529290
	O396	O	0.658600	0.487528	0.578948
	H397	H	0.644059	0.474025	0.565317
	H398	H	0.658253	0.478484	0.581016
	O399	O	0.657631	0.327220	0.351401
	H400	H	0.666734	0.318064	0.388033
	H401	H	0.666431	0.356627	0.350343
	O402	O	0.814273	0.815294	0.186711
	H403	H	0.829444	0.811085	0.165182
	H404	H	0.843318	0.829916	0.195433
	O405	O	0.445330	0.489724	0.410640
	H406	H	0.464778	0.509125	0.403037
	H407	H	0.449482	0.473950	0.401319
	O408	O	0.509038	0.540739	0.655234
	H409	H	0.495739	0.556404	0.668468
	H410	H	0.511965	0.546393	0.651663
	O411	O	1.110185	1.182323	1.130891
	H412	H	1.101279	1.166317	1.123093
	H413	H	1.092987	1.188104	1.130785
	O414	O	0.823675	-0.218847	1.012058
	H415	H	0.807127	-0.218859	1.018490
	H416	H	0.816823	-0.222507	1.028173
	O417	O	0.514615	0.695991	0.719079
	H418	H	0.536965	0.696184	0.715196
	H419	H	0.533727	0.715058	0.732469
	O420	O	-0.207516	0.937614	1.002659
	H421	H	-0.202969	0.964478	0.999962
	H422	H	-0.204603	0.936774	0.992349
	O423	O	0.408930	0.303377	0.475397
	H424	H	0.416937	0.313040	0.467802
	H425	H	0.403334	0.308590	0.464168
	O426	O	0.688532	0.472710	0.319083
	H427	H	0.659492	0.493510	0.316848
	H428	H	0.714562	0.470965	0.294083
	O429	O	0.408311	0.442990	0.427175
	H430	H	0.403367	0.425509	0.410239
	H431	H	0.390661	0.430195	0.438512
	O432	O	0.453762	0.626934	0.541364
	H433	H	0.460853	0.626065	0.532134
	H434	H	0.432281	0.628261	0.525367
	O435	O	0.046312	0.075897	0.217910
	H436	H	0.047160	0.056608	0.218586
	H437	H	0.026443	0.078165	0.221198
	O438	O	0.009664	0.897552	0.802214
	H439	H	0.003806	0.870017	0.807850
	H440	H	0.016261	0.888222	0.818246
	O441	O	0.506576	0.281279	0.303304
	H442	H	0.544284	0.286350	0.317813
	H443	H	0.513862	0.254173	0.280208
