data_Molecule from HDF5

_cell_length_a		16.239193
_cell_length_b		16.300521
_cell_length_c		16.323214
_cell_angle_alpha	90.199430
_cell_angle_beta	90.026930
_cell_angle_gamma	90.243612
_symmetry_space_group_name_H-M	'P 1'
_symmetry_Int_Tables_number		1

loop_
	_symmetry_equiv_pos_as_xyz
	x,y,z

loop_
	_atom_site_label
	_atom_site_type_symbol
	_atom_site_fract_x
	_atom_site_fract_y
	_atom_site_fract_z
	H0	H	0.401685	0.847576	0.718622
	H1	H	0.603207	0.173270	0.715820
	H2	H	0.601925	0.848318	0.282134
	H3	H	0.400157	0.172134	0.284979
	H4	H	0.719471	0.411900	0.837783
	H5	H	0.721266	0.611883	0.163363
	H6	H	0.290335	0.607605	0.837295
	H7	H	0.289105	0.411552	0.163940
	H8	H	0.839269	0.720730	0.400933
	H9	H	0.166512	0.725663	0.600569
	H10	H	0.840372	0.292769	0.600217
	H11	H	0.167789	0.291847	0.401068
	H12	H	0.840852	0.408245	0.716260
	H13	H	0.167876	0.608491	0.714901
	H14	H	0.841135	0.606005	0.284742
	H15	H	0.168196	0.407792	0.285732
	H16	H	0.406227	0.724553	0.837272
	H17	H	0.605226	0.727498	0.163842
	H18	H	0.604289	0.294417	0.838432
	H19	H	0.403515	0.294870	0.163391
	H20	H	0.713704	0.844455	0.401052
	H21	H	0.721763	0.170787	0.602791
	H22	H	0.288180	0.845301	0.599540
	H23	H	0.288292	0.172610	0.404208
	H24	H	0.903169	0.345801	0.215821
	H25	H	0.108068	0.669792	0.221053
	H26	H	0.106513	0.346467	0.782595
	H27	H	0.904608	0.671089	0.782795
	H28	H	0.219395	0.906225	0.338643
	H29	H	0.219199	0.109359	0.663320
	H30	H	0.786926	0.105019	0.338179
	H31	H	0.784917	0.906099	0.663279
	H32	H	0.341877	0.226607	0.900932
	H33	H	0.667168	0.227458	0.102199
	H34	H	0.342403	0.791204	0.102950
	H35	H	0.668587	0.796037	0.900289
	H36	H	0.340181	0.909529	0.215682
	H37	H	0.665270	0.115094	0.220955
	H38	H	0.340797	0.111427	0.786222
	H39	H	0.666530	0.910803	0.783677
	H40	H	0.901465	0.223084	0.338790
	H41	H	0.104643	0.224605	0.662776
	H42	H	0.101721	0.792867	0.337790
	H43	H	0.901436	0.791230	0.663124
	H44	H	0.220847	0.346406	0.900079
	H45	H	0.220526	0.672241	0.102008
	H46	H	0.786477	0.347422	0.100326
	H47	H	0.790858	0.673068	0.900510
	H48	H	0.403296	0.125688	0.588601
	H49	H	0.595013	0.894999	0.587098
	H50	H	0.594526	0.125007	0.410614
	H51	H	0.417273	0.895382	0.405923
	H52	H	0.594756	0.425652	0.113720
	H53	H	0.594748	0.608037	0.884620
	H54	H	0.403908	0.603726	0.119452
	H55	H	0.415675	0.419183	0.886956
	H56	H	0.120161	0.608723	0.416817
	H57	H	0.891164	0.593514	0.585002
	H58	H	0.119277	0.419705	0.591094
	H59	H	0.886804	0.406122	0.414791
	H60	H	0.122147	0.414821	0.597673
	H61	H	0.886527	0.594602	0.601618
	H62	H	0.116781	0.591816	0.413495
	H63	H	0.892593	0.424398	0.412197
	H64	H	0.416037	0.594182	0.112900
	H65	H	0.603996	0.604682	0.883436
	H66	H	0.591869	0.414405	0.116806
	H67	H	0.412572	0.414927	0.884967
	H68	H	0.595199	0.124476	0.411978
	H69	H	0.596469	0.890794	0.599171
	H70	H	0.409641	0.128413	0.602642
	H71	H	0.407704	0.894227	0.413172
	H72	H	0.906177	0.625079	0.088932
	H73	H	0.085291	0.398354	0.087291
	H74	H	0.097362	0.624832	0.908581
	H75	H	0.913547	0.395158	0.911259
	H76	H	0.100567	0.909858	0.620309
	H77	H	0.096997	0.096404	0.385546
	H78	H	0.911964	0.093506	0.614719
	H79	H	0.912870	0.902484	0.382923
	H80	H	0.624827	0.109962	0.902505
	H81	H	0.386414	0.100962	0.096343
	H82	H	0.617909	0.926460	0.092158
	H83	H	0.385484	0.914170	0.904460
	H84	H	0.621102	0.919513	0.096719
	H85	H	0.386490	0.107925	0.091968
	H86	H	0.619541	0.105311	0.917994
	H87	H	0.389019	0.914137	0.916288
	H88	H	0.916218	0.102109	0.614878
	H89	H	0.092008	0.099412	0.385697
	H90	H	0.096988	0.925019	0.614466
	H91	H	0.896839	0.913642	0.381202
	H92	H	0.096429	0.624737	0.908073
	H93	H	0.106825	0.392232	0.084753
	H94	H	0.915718	0.627621	0.104438
	H95	H	0.910333	0.392960	0.908374
	H96	H	0.418092	0.121912	0.591676
	H97	H	0.584979	0.895525	0.594929
	H98	H	0.595604	0.124858	0.410670
	H99	H	0.406477	0.890580	0.402534
	H100	H	0.602761	0.418294	0.118097
	H101	H	0.597098	0.598337	0.886652
	H102	H	0.419609	0.610589	0.116056
	H103	H	0.410240	0.419994	0.885073
	H104	H	0.123861	0.602048	0.400076
	H105	H	0.885224	0.608142	0.591576
	H106	H	0.121178	0.411649	0.589856
	H107	H	0.885423	0.414808	0.397512
	H108	H	0.924585	0.620556	0.089497
	H109	H	0.096467	0.389358	0.104358
	H110	H	0.096290	0.624341	0.908324
	H111	H	0.913726	0.394237	0.906387
	H112	H	0.085229	0.913645	0.614624
	H113	H	0.097048	0.101798	0.383900
	H114	H	0.907846	0.100898	0.618806
	H115	H	0.913663	0.921619	0.388590
	H116	H	0.618726	0.094361	0.905449
	H117	H	0.390034	0.100658	0.088762
	H118	H	0.619626	0.918294	0.087861
	H119	H	0.390526	0.924413	0.909298
	C120	C	0.380454	0.018018	0.623692
	C121	C	0.623556	1.000921	0.623133
	C122	C	0.623278	0.017350	0.380295
	C123	C	0.380879	1.001281	0.379184
	C124	C	0.626178	0.389529	0.008866
	C125	C	0.627698	0.633623	0.992196
	C126	C	0.383486	0.631930	0.008950
	C127	C	0.383022	0.388939	0.992938
	C128	C	0.012234	0.629029	0.380209
	C129	C	0.995283	0.629751	0.622077
	C130	C	0.012781	0.386184	0.622269
	C131	C	0.996425	0.385993	0.379065
	C132	C	0.883965	0.517222	0.122546
	C133	C	0.126419	0.500491	0.122664
	C134	C	0.126473	0.517275	0.878806
	C135	C	0.883433	0.501262	0.878934
	C136	C	0.123818	0.886861	0.508751
	C137	C	0.124804	0.128986	0.492430
	C138	C	0.881827	0.128221	0.509195
	C139	C	0.879289	0.884148	0.492137
	C140	C	0.512991	0.131985	0.880096
	C141	C	0.495070	0.133386	0.123090
	C142	C	0.511693	0.890555	0.121685
	C143	C	0.496097	0.888829	0.879683
	C144	C	0.381819	0.895748	0.680001
	C145	C	0.623380	0.123907	0.678773
	C146	C	0.621320	0.896081	0.321811
	C147	C	0.381544	0.123629	0.323797
	C148	C	0.681607	0.391442	0.886483
	C149	C	0.683523	0.632330	0.114744
	C150	C	0.327917	0.628884	0.886201
	C151	C	0.326881	0.391024	0.115127
	C152	C	0.888662	0.683585	0.381020
	C153	C	0.117971	0.686859	0.620517
	C154	C	0.889563	0.330503	0.620470
	C155	C	0.119070	0.329942	0.380899
	C156	C	0.889711	0.387865	0.678321
	C157	C	0.118738	0.628666	0.677380
	C158	C	0.889544	0.626319	0.323474
	C159	C	0.119336	0.387656	0.323591
	C160	C	0.385974	0.686732	0.886154
	C161	C	0.625776	0.689763	0.114938
	C162	C	0.624342	0.333034	0.886799
	C163	C	0.383798	0.333013	0.114898
	C164	C	0.677377	0.894354	0.380794
	C165	C	0.681958	0.122807	0.622125
	C166	C	0.325610	0.894557	0.620740
	C167	C	0.325618	0.123748	0.382782
	C168	C	0.883616	0.394686	0.177864
	C169	C	0.126717	0.621944	0.181244
	C170	C	0.125736	0.395082	0.821895
	C171	C	0.884581	0.622925	0.821524
	C172	C	0.180789	0.887132	0.387026
	C173	C	0.180985	0.128331	0.614823
	C174	C	0.825072	0.126069	0.386924
	C175	C	0.823081	0.886003	0.614578
	C176	C	0.390329	0.188427	0.881238
	C177	C	0.618133	0.189430	0.122186
	C178	C	0.390410	0.831401	0.121449
	C179	C	0.619295	0.833499	0.880413
	C180	C	0.389231	0.890556	0.177495
	C181	C	0.617116	0.133206	0.180901
	C182	C	0.389935	0.130945	0.824307
	C183	C	0.618242	0.890617	0.822325
	C184	C	0.881929	0.184729	0.387286
	C185	C	0.124036	0.185969	0.614415
	C186	C	0.122249	0.830583	0.386617
	C187	C	0.881007	0.828651	0.614403
	C188	C	0.182835	0.395083	0.880184
	C189	C	0.182554	0.623129	0.121803
	C190	C	0.825626	0.395682	0.120419
	C191	C	0.828303	0.623958	0.880392
	C192	C	0.403448	0.103162	0.601016
	C193	C	0.599167	0.915858	0.600256
	C194	C	0.601606	0.102841	0.404118
	C195	C	0.403832	0.915563	0.400911
	C196	C	0.603114	0.412688	0.094120
	C197	C	0.605151	0.610454	0.906979
	C198	C	0.406466	0.609443	0.094055
	C199	C	0.406310	0.411416	0.907611
	C200	C	0.098003	0.607219	0.403251
	C201	C	0.909936	0.605931	0.599476
	C202	C	0.098605	0.408839	0.599605
	C203	C	0.910523	0.408440	0.401700
	C204	C	0.908247	0.602470	0.100629
	C205	C	0.102942	0.415313	0.098947
	C206	C	0.103348	0.602546	0.901637
	C207	C	0.906122	0.416180	0.901830
	C208	C	0.101075	0.909665	0.594386
	C209	C	0.101907	0.106048	0.407051
	C210	C	0.905128	0.105482	0.593964
	C211	C	0.901291	0.906166	0.406475
	C212	C	0.598721	0.109781	0.902307
	C213	C	0.409743	0.110053	0.099400
	C214	C	0.597395	0.914612	0.099052
	C215	C	0.410546	0.911189	0.903174
	Zn216	Zn	0.502739	0.010813	0.752017
	Zn217	Zn	0.502450	0.011156	0.250940
	Zn218	Zn	0.755384	0.511166	0.000827
	Zn219	Zn	0.254283	0.509652	0.000754
	Zn220	Zn	0.002840	0.757862	0.500514
	Zn221	Zn	0.003913	0.257254	0.500484
	Zn222	Zn	0.004744	0.508444	0.750057
	Zn223	Zn	0.004883	0.507946	0.251646
	Zn224	Zn	0.505454	0.761019	0.000920
	Zn225	Zn	0.504542	0.260470	0.001142
	Zn226	Zn	0.752164	0.007365	0.501430
	Zn227	Zn	0.252580	0.008332	0.500676
	N228	N	0.415000	0.973519	0.682076
	N229	N	0.587843	0.047193	0.679410
	N230	N	0.588588	0.973783	0.321254
	N231	N	0.415075	0.046253	0.321431
	N232	N	0.682860	0.425631	0.963582
	N233	N	0.685124	0.598341	0.037375
	N234	N	0.326077	0.595674	0.963618
	N235	N	0.326429	0.425053	0.038241
	N236	N	0.965899	0.685218	0.415755
	N237	N	0.040264	0.688050	0.587299
	N238	N	0.966987	0.329204	0.586443
	N239	N	0.041404	0.328600	0.414552
	N240	N	0.967491	0.421743	0.679558
	N241	N	0.041420	0.593801	0.678527
	N242	N	0.967410	0.593291	0.322737
	N243	N	0.041966	0.421471	0.322228
	N244	N	0.419583	0.688867	0.963447
	N245	N	0.591945	0.690704	0.037768
	N246	N	0.590661	0.331796	0.964061
	N247	N	0.417825	0.331367	0.037734
	N248	N	0.678569	0.970834	0.416509
	N249	N	0.682326	0.045453	0.588204
	N250	N	0.324386	0.971507	0.586569
	N251	N	0.325165	0.046514	0.416511
	N252	N	0.919301	0.471267	0.179236
	N253	N	0.092393	0.544769	0.181891
	N254	N	0.091529	0.472143	0.820696
	N255	N	0.918317	0.545669	0.820503
	N256	N	0.181839	0.921459	0.464004
	N257	N	0.181426	0.093610	0.538053
	N258	N	0.825085	0.091346	0.463453
	N259	N	0.821741	0.919743	0.537399
	N260	N	0.467799	0.189171	0.915406
	N261	N	0.541352	0.189533	0.086842
	N262	N	0.467672	0.831573	0.087211
	N263	N	0.542198	0.832214	0.915164
	N264	N	0.465829	0.926846	0.177449
	N265	N	0.539309	0.099388	0.181862
	N266	N	0.467028	0.096476	0.823516
	N267	N	0.540821	0.924461	0.822000
	N268	N	0.916699	0.186088	0.464134
	N269	N	0.089548	0.186374	0.537287
	N270	N	0.087334	0.830511	0.463517
	N271	N	0.914907	0.827233	0.537336
	N272	N	0.183478	0.472207	0.914611
	N273	N	0.182468	0.546591	0.086122
	N274	N	0.825842	0.472889	0.086819
	N275	N	0.827504	0.547423	0.915388
	O276	O	-0.027702	-0.076833	1.155003
	H277	H	-0.024481	-0.081370	1.148423
	H278	H	-0.027655	-0.071098	1.161552
	O279	O	0.669264	0.265173	0.826389
	H280	H	0.663845	0.252892	0.819261
	H281	H	0.672596	0.266000	0.811786
	O282	O	1.061602	1.073307	-0.073264
	H283	H	1.053862	1.062509	-0.072640
	H284	H	1.048059	1.065198	-0.077657
	O285	O	0.966845	0.117655	0.864436
	H286	H	0.973788	0.128617	0.861575
	H287	H	0.956212	0.121410	0.869652
	O288	O	0.544080	0.479402	0.460934
	H289	H	0.542465	0.472029	0.446256
	H290	H	0.546960	0.464549	0.459069
	O291	O	0.461037	0.472158	0.576775
	H292	H	0.471510	0.465389	0.583115
	H293	H	0.463003	0.477477	0.570590
	O294	O	0.483908	0.605665	0.505733
	H295	H	0.482081	0.608688	0.509903
	H296	H	0.473941	0.606136	0.494249
	O297	O	-0.034393	-0.053389	1.026766
	H298	H	-0.036500	-0.046816	1.025121
	H299	H	-0.027378	-0.053081	1.025862
	O300	O	0.331880	0.227030	0.264691
	H301	H	0.327965	0.217726	0.291885
	H302	H	0.350092	0.234419	0.255671
	O303	O	0.614550	0.566085	0.561351
	H304	H	0.625812	0.570848	0.554843
	H305	H	0.614040	0.577331	0.569702
	O306	O	0.144014	0.959928	0.913663
	H307	H	0.156002	0.949090	0.923930
	H308	H	0.146096	0.959022	0.894597
	O309	O	0.543770	0.499937	0.429072
	H310	H	0.538194	0.492429	0.424141
	H311	H	0.546610	0.504779	0.428381
	O312	O	-0.025407	-0.060946	-0.006408
	H313	H	-0.020535	-0.073027	0.002925
	H314	H	-0.019228	-0.064367	-0.018331
	O315	O	0.863353	-0.074947	-0.045270
	H316	H	0.858474	-0.071652	-0.036827
	H317	H	0.866271	-0.069573	-0.029472
	O318	O	0.966705	0.905526	0.977968
	H319	H	0.960239	0.913329	0.966731
	H320	H	0.963629	0.913820	0.974509
	O321	O	-0.075468	0.018483	1.043107
	H322	H	-0.077965	0.022602	1.048672
	H323	H	-0.064748	0.025178	1.032421
	O324	O	0.548189	0.494576	0.485899
	H325	H	0.544503	0.503137	0.484819
	H326	H	0.547630	0.496029	0.496515
	O327	O	0.084679	0.046644	0.169480
	H328	H	0.092449	0.057039	0.177397
	H329	H	0.097565	0.044028	0.167066
	O330	O	1.146141	1.088195	0.083769
	H331	H	1.147942	1.081972	0.070859
	H332	H	1.155910	1.076819	0.077213
	O333	O	0.064159	1.083604	0.939241
	H334	H	0.070610	1.082852	0.928317
	H335	H	0.056066	1.087834	0.939388
	O336	O	0.034355	0.114282	-0.002182
	H337	H	0.051788	0.107185	-0.008285
	H338	H	0.042176	0.113026	-0.006222
	O339	O	0.541963	0.477932	0.405775
	H340	H	0.555282	0.478369	0.410714
	H341	H	0.543813	0.476636	0.400353
	O342	O	0.872345	1.028394	1.026533
	H343	H	0.871839	1.038840	1.031738
	H344	H	0.875434	1.024295	1.038791
	O345	O	0.996628	1.003011	0.033562
	H346	H	0.994913	1.002093	0.037620
	H347	H	0.992842	1.010946	0.046984
	O348	O	0.532577	0.489875	0.450924
	H349	H	0.535952	0.494057	0.458808
	H350	H	0.534129	0.495724	0.448347
	O351	O	0.895159	0.032075	0.020303
	H352	H	0.896222	0.044835	0.026521
	H353	H	0.893816	0.028657	0.010566
	O354	O	0.494261	0.487583	0.450965
	H355	H	0.495815	0.492053	0.457707
	H356	H	0.498938	0.490446	0.445409
	O357	O	0.563844	0.515140	1.538947
	H358	H	0.551165	0.504040	1.533466
	H359	H	0.563730	0.511084	1.548291
	O360	O	-0.144750	-0.056161	-0.029490
	H361	H	-0.156159	-0.060186	-0.013553
	H362	H	-0.150058	-0.057547	-0.010305
	O363	O	0.590305	0.508672	0.456524
	H364	H	0.590601	0.505454	0.447336
	H365	H	0.595465	0.514748	0.453365
	O366	O	1.123608	1.043216	1.046880
	H367	H	1.130615	1.039166	1.038034
	H368	H	1.127461	1.035003	1.056270
	O369	O	1.186282	-0.119107	0.915827
	H370	H	1.175242	-0.115974	0.903058
	H371	H	1.189457	-0.132801	0.909233
	O372	O	-0.021000	0.163586	0.022004
	H373	H	-0.026821	0.152961	0.018616
	H374	H	-0.021820	0.168506	0.014885
	O375	O	0.986338	-0.088206	-0.190186
	H376	H	0.975320	-0.087968	-0.194880
	H377	H	0.975612	-0.085793	-0.190631
	O378	O	0.520667	0.452879	0.512818
	H379	H	0.515805	0.442964	0.528469
	H380	H	0.512708	0.456009	0.506153
	O381	O	0.518260	0.534819	0.458065
	H382	H	0.527434	0.540396	0.464090
	H383	H	0.515125	0.532845	0.458861
