data_Molecule from HDF5

_cell_length_a		16.464052
_cell_length_b		16.317310
_cell_length_c		16.249412
_cell_angle_alpha	89.949591
_cell_angle_beta	89.879910
_cell_angle_gamma	90.117056
_symmetry_space_group_name_H-M	'P 1'
_symmetry_Int_Tables_number		1

loop_
	_symmetry_equiv_pos_as_xyz
	x,y,z

loop_
	_atom_site_label
	_atom_site_type_symbol
	_atom_site_fract_x
	_atom_site_fract_y
	_atom_site_fract_z
	H0	H	0.388152	0.819048	0.719002
	H1	H	0.588261	0.143393	0.718425
	H2	H	0.588746	0.817984	0.287163
	H3	H	0.387426	0.141930	0.282890
	H4	H	0.706742	0.376304	0.840766
	H5	H	0.707438	0.583416	0.163850
	H6	H	0.271257	0.584246	0.839980
	H7	H	0.266022	0.374419	0.161927
	H8	H	0.827650	0.701140	0.398736
	H9	H	0.148176	0.702384	0.603982
	H10	H	0.828781	0.262169	0.604949
	H11	H	0.146702	0.259161	0.392564
	H12	H	0.828775	0.379738	0.720327
	H13	H	0.149259	0.583592	0.718521
	H14	H	0.827816	0.584135	0.282643
	H15	H	0.147477	0.379090	0.279975
	H16	H	0.389718	0.698004	0.840191
	H17	H	0.590445	0.698179	0.164451
	H18	H	0.588252	0.265516	0.839794
	H19	H	0.385908	0.262741	0.164473
	H20	H	0.709336	0.820481	0.397976
	H21	H	0.707210	0.142896	0.605609
	H22	H	0.266705	0.821753	0.609646
	H23	H	0.269188	0.141686	0.396346
	H24	H	0.887052	0.320170	0.220258
	H25	H	0.090895	0.643638	0.217981
	H26	H	0.088304	0.318977	0.784944
	H27	H	0.888920	0.643560	0.785542
	H28	H	0.208300	0.877775	0.341390
	H29	H	0.206269	0.085986	0.664150
	H30	H	0.767700	0.087929	0.341580
	H31	H	0.771601	0.881333	0.665077
	H32	H	0.327381	0.199035	0.900715
	H33	H	0.648747	0.200075	0.104032
	H34	H	0.329446	0.759226	0.107676
	H35	H	0.649679	0.764366	0.901109
	H36	H	0.329261	0.875867	0.223732
	H37	H	0.649700	0.081901	0.219976
	H38	H	0.327502	0.082075	0.785077
	H39	H	0.650057	0.882637	0.785509
	H40	H	0.887520	0.198590	0.339018
	H41	H	0.088851	0.200606	0.663460
	H42	H	0.088820	0.766766	0.338848
	H43	H	0.887147	0.765442	0.664085
	H44	H	0.207372	0.320273	0.897064
	H45	H	0.209827	0.640947	0.105139
	H46	H	0.771058	0.318242	0.104045
	H47	H	0.768234	0.640706	0.897043
	H48	H	0.396833	0.097762	0.597358
	H49	H	0.581297	0.865739	0.594171
	H50	H	0.578207	0.096662	0.407533
	H51	H	0.402914	0.870977	0.422948
	H52	H	0.579949	0.392865	0.116763
	H53	H	0.587313	0.569938	0.884668
	H54	H	0.405049	0.574891	0.116895
	H55	H	0.389054	0.395516	0.885579
	H56	H	0.101805	0.575980	0.408658
	H57	H	0.873610	0.579574	0.588947
	H58	H	0.100542	0.398000	0.592883
	H59	H	0.873436	0.386635	0.408992
	H60	H	0.104156	0.387380	0.594076
	H61	H	0.877617	0.567941	0.590504
	H62	H	0.101155	0.575011	0.413685
	H63	H	0.877552	0.391131	0.418398
	H64	H	0.389173	0.569667	0.120004
	H65	H	0.575396	0.566328	0.890102
	H66	H	0.577751	0.390322	0.118054
	H67	H	0.405173	0.394842	0.891211
	H68	H	0.576796	0.093623	0.415050
	H69	H	0.579169	0.867325	0.593346
	H70	H	0.400911	0.094460	0.590959
	H71	H	0.388716	0.864334	0.416000
	H72	H	0.895904	0.597199	0.095828
	H73	H	0.071411	0.368757	0.091529
	H74	H	0.081762	0.598016	0.907231
	H75	H	0.903309	0.364103	0.901380
	H76	H	0.071951	0.892924	0.615150
	H77	H	0.075893	0.071403	0.388523
	H78	H	0.889892	0.065391	0.616955
	H79	H	0.896126	0.893187	0.385650
	H80	H	0.604849	0.078594	0.906014
	H81	H	0.374949	0.070249	0.095581
	H82	H	0.603641	0.889962	0.098614
	H83	H	0.374498	0.888148	0.911703
	H84	H	0.602646	0.884188	0.089547
	H85	H	0.375128	0.073875	0.091753
	H86	H	0.601253	0.076476	0.915714
	H87	H	0.375127	0.888768	0.911574
	H88	H	0.906401	0.070166	0.613657
	H89	H	0.081598	0.072715	0.384971
	H90	H	0.080365	0.887810	0.618806
	H91	H	0.897471	0.893081	0.387370
	H92	H	0.078359	0.594714	0.912006
	H93	H	0.078806	0.369419	0.084016
	H94	H	0.901139	0.593401	0.088633
	H95	H	0.900078	0.370532	0.920513
	H96	H	0.393269	0.096649	0.589832
	H97	H	0.581360	0.866134	0.591783
	H98	H	0.584429	0.096042	0.413441
	H99	H	0.402574	0.866168	0.406404
	H100	H	0.580593	0.389456	0.118350
	H101	H	0.577325	0.578659	0.885576
	H102	H	0.401176	0.559409	0.113119
	H103	H	0.398456	0.381239	0.884401
	H104	H	0.100719	0.571053	0.410232
	H105	H	0.872634	0.573890	0.599688
	H106	H	0.100523	0.390551	0.584306
	H107	H	0.876579	0.397746	0.409325
	H108	H	0.891971	0.596499	0.087199
	H109	H	0.080885	0.364832	0.093947
	H110	H	0.084283	0.596422	0.913169
	H111	H	0.884887	0.361591	0.909732
	H112	H	0.081311	0.898083	0.616962
	H113	H	0.080750	0.066388	0.387707
	H114	H	0.895359	0.081215	0.621082
	H115	H	0.897273	0.891831	0.386334
	H116	H	0.601866	0.068675	0.907980
	H117	H	0.376980	0.068692	0.090687
	H118	H	0.599545	0.894496	0.090439
	H119	H	0.374242	0.888360	0.910653
	C120	C	0.366523	-0.010057	0.624046
	C121	C	0.610051	0.973097	0.623255
	C122	C	0.610610	-0.010961	0.381263
	C123	C	0.367510	0.973052	0.382140
	C124	C	0.609034	0.360134	0.010575
	C125	C	0.610694	0.602213	0.993544
	C126	C	0.367984	0.600375	0.010314
	C127	C	0.366302	0.359007	0.993336
	C128	C	-0.003805	0.604762	0.379317
	C129	C	0.980203	0.604352	0.623454
	C130	C	-0.003134	0.360268	0.622493
	C131	C	0.980479	0.360242	0.379339
	C132	C	0.866293	0.489036	0.122115
	C133	C	0.109140	0.473428	0.121669
	C134	C	0.110676	0.489414	0.880075
	C135	C	0.866113	0.472101	0.879736
	C136	C	0.109076	0.861286	0.510261
	C137	C	0.109876	0.102684	0.493631
	C138	C	0.866776	0.103178	0.510301
	C139	C	0.866582	0.861586	0.493391
	C140	C	0.496429	0.103800	0.880060
	C141	C	0.481058	0.102140	0.123857
	C142	C	0.497105	0.857931	0.124743
	C143	C	0.480665	0.859347	0.880783
	C144	C	0.367408	0.868128	0.681678
	C145	C	0.608441	0.095117	0.679942
	C146	C	0.609469	0.866917	0.324558
	C147	C	0.367855	0.093766	0.322272
	C148	C	0.666864	0.358663	0.888899
	C149	C	0.668500	0.602431	0.115352
	C150	C	0.310343	0.602379	0.888484
	C151	C	0.306247	0.356534	0.114153
	C152	C	0.875597	0.662273	0.379330
	C153	C	0.100592	0.662660	0.623202
	C154	C	0.876802	0.301593	0.623559
	C155	C	0.099247	0.299855	0.375447
	C156	C	0.876775	0.359819	0.681273
	C157	C	0.100884	0.603973	0.680611
	C158	C	0.875731	0.604166	0.321486
	C159	C	0.099705	0.359448	0.319045
	C160	C	0.368984	0.659055	0.888425
	C161	C	0.610480	0.659684	0.115718
	C162	C	0.607920	0.303347	0.888496
	C163	C	0.366137	0.301320	0.115496
	C164	C	0.669304	0.868287	0.380038
	C165	C	0.667843	0.094605	0.624115
	C166	C	0.307221	0.869450	0.626804
	C167	C	0.308851	0.093533	0.378892
	C168	C	0.867255	0.368153	0.180771
	C169	C	0.110018	0.594859	0.179576
	C170	C	0.108669	0.367710	0.823002
	C171	C	0.868034	0.594405	0.823345
	C172	C	0.168548	0.859708	0.389387
	C173	C	0.167419	0.104622	0.615336
	C174	C	0.807989	0.105385	0.389196
	C175	C	0.809992	0.861732	0.616116
	C176	C	0.375707	0.160451	0.881181
	C177	C	0.601170	0.160760	0.123827
	C178	C	0.377256	0.798458	0.126538
	C179	C	0.601586	0.803001	0.881366
	C180	C	0.377036	0.856751	0.184098
	C181	C	0.601419	0.101772	0.181267
	C182	C	0.375590	0.102047	0.823577
	C183	C	0.601838	0.861794	0.823949
	C184	C	0.867478	0.160712	0.388085
	C185	C	0.108925	0.161377	0.615253
	C186	C	0.109128	0.804233	0.388042
	C187	C	0.867313	0.804075	0.615665
	C188	C	0.167877	0.368250	0.878822
	C189	C	0.169571	0.593377	0.123769
	C190	C	0.809523	0.367178	0.122992
	C191	C	0.807888	0.592884	0.878701
	C192	C	0.390346	0.074302	0.599766
	C193	C	0.587162	0.888355	0.599851
	C194	C	0.586719	0.073526	0.405016
	C195	C	0.391191	0.888954	0.407704
	C196	C	0.585975	0.383880	0.095709
	C197	C	0.587018	0.578556	0.908890
	C198	C	0.391475	0.575418	0.094580
	C199	C	0.390469	0.383486	0.908954
	C200	C	0.079573	0.580841	0.403689
	C201	C	0.896437	0.580755	0.599665
	C202	C	0.080241	0.385019	0.597685
	C203	C	0.897398	0.384880	0.404946
	C204	C	0.889517	0.573799	0.097592
	C205	C	0.084190	0.389563	0.096961
	C206	C	0.088073	0.574287	0.903989
	C207	C	0.889484	0.387397	0.903462
	C208	C	0.084746	0.885661	0.595024
	C209	C	0.086382	0.077589	0.409025
	C210	C	0.890473	0.079105	0.595224
	C211	C	0.890095	0.885791	0.408523
	C212	C	0.580880	0.081233	0.903108
	C213	C	0.397416	0.077948	0.099560
	C214	C	0.580223	0.882436	0.099935
	C215	C	0.396462	0.881817	0.904461
	Zn216	Zn	0.488478	-0.018526	0.751447
	Zn217	Zn	0.489045	-0.020455	0.252976
	Zn218	Zn	0.737190	0.479942	0.001487
	Zn219	Zn	0.238539	0.480121	0.001242
	Zn220	Zn	-0.012144	0.733657	0.501505
	Zn221	Zn	-0.011398	0.230531	0.500854
	Zn222	Zn	-0.010912	0.481655	0.752019
	Zn223	Zn	-0.011872	0.482539	0.250231
	Zn224	Zn	0.488769	0.729571	0.002506
	Zn225	Zn	0.488450	0.232162	0.002304
	Zn226	Zn	0.738733	-0.017728	0.502303
	Zn227	Zn	0.238006	-0.018296	0.502809
	N228	N	0.403654	0.944084	0.680194
	N229	N	0.573158	0.018744	0.679538
	N230	N	0.573777	0.943005	0.325229
	N231	N	0.403511	0.017688	0.324003
	N232	N	0.667609	0.393271	0.965826
	N233	N	0.668602	0.567412	0.038409
	N234	N	0.309703	0.566596	0.965152
	N235	N	0.306203	0.391613	0.037220
	N236	N	0.951547	0.662909	0.414479
	N237	N	0.024453	0.663102	0.588280
	N238	N	0.952452	0.301747	0.587521
	N239	N	0.024139	0.300215	0.412253
	N240	N	0.952297	0.395788	0.680425
	N241	N	0.025211	0.568369	0.680749
	N242	N	0.951746	0.569480	0.321023
	N243	N	0.024828	0.396376	0.321440
	N244	N	0.404152	0.658146	0.965135
	N245	N	0.575345	0.659846	0.039048
	N246	N	0.572575	0.304140	0.965221
	N247	N	0.402551	0.302536	0.039327
	N248	N	0.670148	0.945237	0.414515
	N249	N	0.668870	0.017840	0.589457
	N250	N	0.306450	0.946213	0.591923
	N251	N	0.308716	0.017606	0.415586
	N252	N	0.901760	0.444925	0.180399
	N253	N	0.073110	0.519246	0.178356
	N254	N	0.073976	0.444321	0.823395
	N255	N	0.903473	0.518197	0.823717
	N256	N	0.168669	0.894235	0.466534
	N257	N	0.167990	0.068842	0.538640
	N258	N	0.807376	0.070492	0.466101
	N259	N	0.809612	0.896703	0.539110
	N260	N	0.451964	0.161639	0.915474
	N261	N	0.525150	0.161257	0.089076
	N262	N	0.452794	0.798962	0.090402
	N263	N	0.525330	0.801275	0.915990
	N264	N	0.452394	0.892920	0.183237
	N265	N	0.525686	0.066144	0.181603
	N266	N	0.451733	0.067536	0.822778
	N267	N	0.525561	0.895859	0.823246
	N268	N	0.903446	0.159380	0.464479
	N269	N	0.074020	0.160300	0.538545
	N270	N	0.072909	0.805019	0.464283
	N271	N	0.901555	0.803591	0.538436
	N272	N	0.169185	0.444990	0.913497
	N273	N	0.169086	0.516923	0.088574
	N274	N	0.808800	0.443617	0.087374
	N275	N	0.806677	0.515977	0.913211
	O276	O	0.536018	0.323961	0.650924
	H277	H	0.542635	0.325275	0.648475
	H278	H	0.546723	0.320879	0.654631
	O279	O	0.317505	0.552982	0.498257
	H280	H	0.314366	0.552748	0.488538
	H281	H	0.304655	0.575756	0.501714
	O282	O	1.133011	-0.040286	1.186156
	H283	H	1.151553	-0.037423	1.182887
	H284	H	1.120760	-0.029575	1.187261
	O285	O	0.486909	0.484379	0.405747
	H286	H	0.494157	0.485132	0.406654
	H287	H	0.472750	0.479779	0.391324
	O288	O	0.961667	1.046799	0.911568
	H289	H	0.968230	1.044245	0.905349
	H290	H	0.951213	1.044212	0.905756
	O291	O	-0.185623	0.958710	0.171679
	H292	H	-0.187760	0.951675	0.187646
	H293	H	-0.190222	0.930662	0.172892
	O294	O	0.666179	0.342848	0.309673
	H295	H	0.646562	0.344489	0.303854
	H296	H	0.656208	0.335523	0.308564
	O297	O	0.652945	0.435090	0.383216
	H298	H	0.676279	0.414707	0.365047
	H299	H	0.646125	0.425335	0.389993
	O300	O	0.617915	0.338872	0.460044
	H301	H	0.619377	0.344293	0.455151
	H302	H	0.615166	0.329959	0.452141
	O303	O	0.330985	0.677500	0.456312
	H304	H	0.320206	0.693978	0.440766
	H305	H	0.343904	0.670232	0.432351
	O306	O	0.608868	0.461994	0.626902
	H307	H	0.598589	0.464721	0.616204
	H308	H	0.606601	0.466057	0.634771
	O309	O	0.854818	0.822054	0.143980
	H310	H	0.861526	0.813587	0.143522
	H311	H	0.872682	0.821320	0.144654
	O312	O	-0.056513	0.071610	0.161122
	H313	H	-0.053105	0.058350	0.162779
	H314	H	-0.057067	0.076890	0.162824
	O315	O	0.571419	0.562707	0.603020
	H316	H	0.571943	0.574465	0.599983
	H317	H	0.574379	0.561617	0.614376
	O318	O	0.155022	1.049321	1.035361
	H319	H	0.157652	1.047688	1.038900
	H320	H	0.154462	1.038971	1.015528
	O321	O	0.559823	0.539460	0.478239
	H322	H	0.580427	0.547207	0.474224
	H323	H	0.559707	0.523949	0.485502
	O324	O	-0.038779	1.104221	0.059385
	H325	H	-0.047266	1.104740	0.071728
	H326	H	-0.035262	1.101255	0.067953
	O327	O	0.363302	0.395025	0.353833
	H328	H	0.365711	0.392124	0.358511
	H329	H	0.353452	0.394230	0.362491
	O330	O	-0.693169	0.539260	1.679429
	H331	H	-0.693683	0.559642	1.665727
	H332	H	-0.700721	0.538105	1.675181
	O333	O	0.061061	-0.083937	1.093115
	H334	H	0.068176	-0.076370	1.082788
	H335	H	0.062649	-0.083788	1.094127
	O336	O	0.521338	0.568354	0.519363
	H337	H	0.519314	0.570351	0.529400
	H338	H	0.542487	0.556301	0.523764
	O339	O	1.001046	-0.117735	-0.102670
	H340	H	0.994611	-0.118696	-0.107449
	H341	H	1.008440	-0.111329	-0.105299
	O342	O	-0.084486	-0.023027	-0.087039
	H343	H	-0.099615	-0.023835	-0.087726
	H344	H	-0.076347	-0.034830	-0.092931
	O345	O	1.491593	0.412005	0.394785
	H346	H	1.482710	0.415345	0.398574
	H347	H	1.480032	0.418399	0.396007
	O348	O	1.369223	1.462724	0.384237
	H349	H	1.355648	1.459936	0.379508
	H350	H	1.381950	1.466287	0.400189
	O351	O	0.476577	0.377705	0.573404
	H352	H	0.475819	0.384069	0.571521
	H353	H	0.466272	0.375012	0.577426
	O354	O	1.055655	0.045235	0.938468
	H355	H	1.055192	0.048187	0.951374
	H356	H	1.063201	0.042644	0.935771
	O357	O	0.291957	0.299092	0.565395
	H358	H	0.301872	0.310049	0.598053
	H359	H	0.269219	0.274415	0.568585
	O360	O	0.415653	0.603348	0.518393
	H361	H	0.399118	0.612627	0.504608
	H362	H	0.418081	0.602885	0.510072
	O363	O	-0.114860	1.129901	0.969826
	H364	H	-0.122059	1.132663	0.972029
	H365	H	-0.112973	1.126055	0.976270
	O366	O	0.542069	0.469153	0.513144
	H367	H	0.543487	0.458432	0.524691
	H368	H	0.537401	0.455222	0.510112
	O369	O	0.118898	0.958698	-0.080961
	H370	H	0.118158	0.957748	-0.076680
	H371	H	0.102059	0.966103	-0.081845
	O372	O	1.022554	-0.012339	-0.132375
	H373	H	1.025849	-0.018300	-0.126490
	H374	H	1.010023	-0.015801	-0.136937
	O375	O	0.431308	0.573599	0.633601
	H376	H	0.415602	0.577321	0.634367
	H377	H	0.429429	0.564655	0.628338
	O378	O	1.308082	1.379637	0.609761
	H379	H	1.339582	1.382664	0.612531
	H380	H	1.309115	1.396715	0.624796
	O381	O	1.141596	0.141707	0.097364
	H382	H	1.132087	0.145792	0.091696
	H383	H	1.153008	0.122783	0.107831
	O384	O	1.029148	0.990328	0.033750
	H385	H	1.033634	0.993249	0.024058
	H386	H	1.025447	1.007547	0.032459
	O387	O	0.079387	-0.062921	-0.083894
	H388	H	0.084872	-0.068339	-0.080403
	H389	H	0.083880	-0.044971	-0.085482
	O390	O	-0.057067	0.857778	-0.067174
	H391	H	-0.066321	0.852820	-0.074156
	H392	H	-0.054234	0.868686	-0.066009
	O393	O	0.934224	0.992708	0.908498
	H394	H	0.930767	1.010682	0.915399
	H395	H	0.923564	0.988220	0.902697
	O396	O	0.641759	0.581478	0.537197
	H397	H	0.641909	0.562703	0.549928
	H398	H	0.651532	0.583482	0.541906
	O399	O	-0.074658	0.827107	1.162293
	H400	H	-0.057452	0.809766	1.163377
	H401	H	-0.070888	0.837564	1.164456
	O402	O	0.615051	0.589565	0.668316
	H403	H	0.619624	0.591620	0.683454
	H404	H	0.602899	0.597930	0.667048
	O405	O	0.932922	1.078839	-0.009149
	H406	H	0.925656	1.077857	-0.009083
	H407	H	0.931539	1.075773	0.004294
	O408	O	0.924125	0.852095	-0.086747
	H409	H	0.930683	0.840860	-0.080951
	H410	H	0.919730	0.845113	-0.082172
	O411	O	1.034420	-0.159333	1.011314
	H412	H	1.036249	-0.156898	1.027096
	H413	H	1.038308	-0.132392	1.009948
	O414	O	0.604554	0.481395	0.457171
	H415	H	0.620800	0.477656	0.463401
	H416	H	0.611070	0.480456	0.449160
	O417	O	0.364247	0.504374	0.332951
	H418	H	0.363447	0.505385	0.337581
	H419	H	0.364323	0.486183	0.335935
