data_Molecule from HDF5

_cell_length_a		16.189603
_cell_length_b		16.269182
_cell_length_c		16.401329
_cell_angle_alpha	89.950142
_cell_angle_beta	90.506538
_cell_angle_gamma	89.732036
_symmetry_space_group_name_H-M	'P 1'
_symmetry_Int_Tables_number		1

loop_
	_symmetry_equiv_pos_as_xyz
	x,y,z

loop_
	_atom_site_label
	_atom_site_type_symbol
	_atom_site_fract_x
	_atom_site_fract_y
	_atom_site_fract_z
	H0	H	0.408261	0.851826	0.713078
	H1	H	0.609201	0.176562	0.711205
	H2	H	0.608434	0.849790	0.280184
	H3	H	0.405910	0.176914	0.277816
	H4	H	0.725491	0.414551	0.832912
	H5	H	0.728733	0.612907	0.158329
	H6	H	0.291400	0.615116	0.834843
	H7	H	0.299730	0.414940	0.159684
	H8	H	0.845532	0.726403	0.396905
	H9	H	0.173489	0.726615	0.597689
	H10	H	0.845085	0.300014	0.593743
	H11	H	0.174239	0.296165	0.399914
	H12	H	0.846655	0.412577	0.711298
	H13	H	0.173236	0.612995	0.714143
	H14	H	0.849009	0.615880	0.276249
	H15	H	0.175235	0.410287	0.283804
	H16	H	0.408895	0.730554	0.833356
	H17	H	0.611740	0.730013	0.158317
	H18	H	0.610534	0.296798	0.834400
	H19	H	0.414623	0.298002	0.158386
	H20	H	0.723713	0.848560	0.397835
	H21	H	0.724321	0.175933	0.594728
	H22	H	0.299953	0.848452	0.590179
	H23	H	0.292119	0.177064	0.396654
	H24	H	0.911776	0.350447	0.213638
	H25	H	0.116610	0.674680	0.218375
	H26	H	0.114207	0.350807	0.780263
	H27	H	0.906059	0.674551	0.776034
	H28	H	0.225229	0.910246	0.333961
	H29	H	0.226242	0.111710	0.657951
	H30	H	0.790753	0.112203	0.333470
	H31	H	0.794808	0.912522	0.659107
	H32	H	0.347505	0.230209	0.896317
	H33	H	0.675513	0.225484	0.096514
	H34	H	0.345710	0.798398	0.093819
	H35	H	0.673774	0.797768	0.896861
	H36	H	0.345618	0.913655	0.209577
	H37	H	0.672244	0.114523	0.215418
	H38	H	0.347203	0.117882	0.777999
	H39	H	0.672129	0.910450	0.779323
	H40	H	0.903311	0.232499	0.334944
	H41	H	0.109950	0.227792	0.658063
	H42	H	0.108850	0.794020	0.335608
	H43	H	0.910033	0.796401	0.658729
	H44	H	0.225456	0.349909	0.901107
	H45	H	0.225867	0.678011	0.096277
	H46	H	0.799056	0.349081	0.094010
	H47	H	0.795309	0.676328	0.895375
	H48	H	0.411259	0.131607	0.585130
	H49	H	0.604631	0.896064	0.589155
	H50	H	0.606085	0.130514	0.405536
	H51	H	0.418586	0.896038	0.396430
	H52	H	0.613460	0.419346	0.113397
	H53	H	0.605152	0.601106	0.881864
	H54	H	0.423284	0.608338	0.110502
	H55	H	0.418390	0.427777	0.883277
	H56	H	0.124996	0.596926	0.406811
	H57	H	0.890739	0.600990	0.597081
	H58	H	0.128812	0.421485	0.596869
	H59	H	0.895613	0.424678	0.406309
	H60	H	0.127867	0.413104	0.588560
	H61	H	0.890251	0.613449	0.585995
	H62	H	0.129474	0.606496	0.402976
	H63	H	0.893957	0.424989	0.398830
	H64	H	0.417792	0.607630	0.111350
	H65	H	0.597602	0.608469	0.882704
	H66	H	0.603639	0.426855	0.108857
	H67	H	0.423730	0.418309	0.882269
	H68	H	0.595079	0.129292	0.397923
	H69	H	0.600225	0.895920	0.592529
	H70	H	0.419413	0.131104	0.593338
	H71	H	0.420371	0.898865	0.403277
	H72	H	0.924263	0.627499	0.087291
	H73	H	0.109415	0.396689	0.089876
	H74	H	0.089590	0.627753	0.898622
	H75	H	0.926646	0.397182	0.897354
	H76	H	0.108509	0.922248	0.611581
	H77	H	0.097281	0.099889	0.383012
	H78	H	0.912995	0.105917	0.611666
	H79	H	0.916386	0.919555	0.381756
	H80	H	0.624620	0.099859	0.906994
	H81	H	0.393962	0.108418	0.084533
	H82	H	0.621803	0.927376	0.080353
	H83	H	0.393302	0.924372	0.902873
	H84	H	0.627058	0.928339	0.098634
	H85	H	0.394295	0.104299	0.084709
	H86	H	0.628885	0.103247	0.897669
	H87	H	0.393421	0.923950	0.904324
	H88	H	0.919273	0.101938	0.609216
	H89	H	0.095536	0.108673	0.380574
	H90	H	0.100141	0.920536	0.610229
	H91	H	0.915346	0.920358	0.381864
	H92	H	0.099306	0.624926	0.915767
	H93	H	0.105388	0.396542	0.096102
	H94	H	0.920066	0.628009	0.085885
	H95	H	0.921026	0.399573	0.911822
	H96	H	0.421609	0.127211	0.583376
	H97	H	0.599109	0.897342	0.587435
	H98	H	0.595340	0.125549	0.410252
	H99	H	0.412945	0.896416	0.402118
	H100	H	0.601809	0.412922	0.111656
	H101	H	0.606292	0.611117	0.877897
	H102	H	0.421179	0.603870	0.109846
	H103	H	0.413255	0.419285	0.878883
	H104	H	0.126011	0.605482	0.414249
	H105	H	0.897296	0.598285	0.581205
	H106	H	0.124675	0.424198	0.586112
	H107	H	0.892292	0.419503	0.403293
	H108	H	0.921383	0.629010	0.090477
	H109	H	0.102728	0.398767	0.089711
	H110	H	0.109367	0.633161	0.900771
	H111	H	0.911068	0.393792	0.900200
	H112	H	0.105300	0.914252	0.612798
	H113	H	0.104158	0.104843	0.379898
	H114	H	0.920005	0.110175	0.610753
	H115	H	0.916582	0.920970	0.382098
	H116	H	0.628670	0.110273	0.905588
	H117	H	0.392996	0.106560	0.088118
	H118	H	0.628752	0.912460	0.088245
	H119	H	0.393971	0.925517	0.903828
	C120	C	0.388854	0.022122	0.616088
	C121	C	0.630858	1.004236	0.618353
	C122	C	0.629365	0.020711	0.375188
	C123	C	0.386627	1.005017	0.372096
	C124	C	0.634241	0.390946	0.004119
	C125	C	0.633266	0.636204	0.987752
	C126	C	0.389398	0.636505	0.003910
	C127	C	0.390830	0.392684	0.988653
	C128	C	0.019405	0.633638	0.376268
	C129	C	1.000829	0.633653	0.618499
	C130	C	0.018469	0.390886	0.618593
	C131	C	1.002220	0.391870	0.375419
	C132	C	0.891902	0.521011	0.117213
	C133	C	0.135203	0.504957	0.120770
	C134	C	0.130515	0.521193	0.876425
	C135	C	0.889417	0.504499	0.873457
	C136	C	0.132711	0.889484	0.504700
	C137	C	0.129576	0.133109	0.488078
	C138	C	0.886062	0.135469	0.504168
	C139	C	0.887889	0.891356	0.488874
	C140	C	0.519466	0.135377	0.873905
	C141	C	0.501813	0.135235	0.116993
	C142	C	0.517993	0.892713	0.117381
	C143	C	0.501462	0.893761	0.874770
	C144	C	0.389369	0.899941	0.673686
	C145	C	0.629875	0.127357	0.673776
	C146	C	0.628415	0.898346	0.318679
	C147	C	0.386160	0.128000	0.316058
	C148	C	0.687931	0.393991	0.881529
	C149	C	0.690058	0.633484	0.109715
	C150	C	0.330645	0.635259	0.882807
	C151	C	0.336744	0.394877	0.110839
	C152	C	0.895326	0.689789	0.376122
	C153	C	0.124275	0.689183	0.617622
	C154	C	0.894660	0.337057	0.614498
	C155	C	0.125263	0.334368	0.378937
	C156	C	0.895420	0.392918	0.673275
	C157	C	0.124209	0.632428	0.675364
	C158	C	0.896819	0.634401	0.316774
	C159	C	0.126106	0.391721	0.321761
	C160	C	0.389235	0.692635	0.882065
	C161	C	0.632079	0.691907	0.109785
	C162	C	0.631004	0.335399	0.882409
	C163	C	0.394077	0.336474	0.110161
	C164	C	0.685378	0.897615	0.377425
	C165	C	0.686663	0.127256	0.615351
	C166	C	0.335272	0.898157	0.612750
	C167	C	0.330084	0.128242	0.375437
	C168	C	0.892527	0.398889	0.174502
	C169	C	0.135158	0.626746	0.178572
	C170	C	0.131892	0.399259	0.819685
	C171	C	0.888332	0.626340	0.815564
	C172	C	0.187349	0.890653	0.382732
	C173	C	0.187285	0.131291	0.609678
	C174	C	0.828929	0.132924	0.382126
	C175	C	0.832780	0.893057	0.610535
	C176	C	0.396468	0.192271	0.875638
	C177	C	0.625758	0.189044	0.116477
	C178	C	0.394767	0.836536	0.114365
	C179	C	0.624686	0.836429	0.876938
	C180	C	0.394525	0.893630	0.172041
	C181	C	0.624131	0.133756	0.175599
	C182	C	0.396193	0.135968	0.817235
	C183	C	0.623870	0.892461	0.818404
	C184	C	0.884959	0.192817	0.382865
	C185	C	0.129467	0.189259	0.609629
	C186	C	0.129703	0.832616	0.383519
	C187	C	0.889855	0.834785	0.610424
	C188	C	0.187798	0.398957	0.879611
	C189	C	0.189549	0.628401	0.117877
	C190	C	0.835803	0.398378	0.115277
	C191	C	0.832946	0.627222	0.874768
	C192	C	0.410975	0.107690	0.593783
	C193	C	0.608014	0.918620	0.596290
	C194	C	0.605617	0.106273	0.397817
	C195	C	0.410345	0.919472	0.394182
	C196	C	0.612710	0.413236	0.089235
	C197	C	0.609650	0.613741	0.902778
	C198	C	0.413688	0.613419	0.088639
	C199	C	0.412064	0.415207	0.903539
	C200	C	0.104676	0.610008	0.400841
	C201	C	0.914891	0.610876	0.595070
	C202	C	0.104941	0.413103	0.596816
	C203	C	0.916336	0.415933	0.396581
	C204	C	0.915245	0.606107	0.094572
	C205	C	0.112555	0.419492	0.098279
	C206	C	0.106294	0.606652	0.898578
	C207	C	0.912841	0.418959	0.896339
	C208	C	0.110949	0.912350	0.589589
	C209	C	0.105724	0.110989	0.403115
	C210	C	0.910275	0.112514	0.588709
	C211	C	0.909795	0.913782	0.403839
	C212	C	0.605482	0.111250	0.896793
	C213	C	0.415965	0.112995	0.092704
	C214	C	0.603588	0.916120	0.095469
	C215	C	0.415817	0.917663	0.897229
	Zn216	Zn	0.509229	0.013944	0.745900
	Zn217	Zn	0.508960	0.013924	0.244808
	Zn218	Zn	0.762239	0.513098	-0.004566
	Zn219	Zn	0.260852	0.514369	-0.002610
	Zn220	Zn	0.009183	0.761599	0.497414
	Zn221	Zn	0.009048	0.263542	0.496061
	Zn222	Zn	0.010120	0.512535	0.745703
	Zn223	Zn	0.012549	0.513299	0.247744
	Zn224	Zn	0.510682	0.765578	-0.004115
	Zn225	Zn	0.511960	0.262436	-0.003757
	Zn226	Zn	0.758253	0.012132	0.496336
	Zn227	Zn	0.260227	0.012589	0.495201
	N228	N	0.421773	0.978050	0.676006
	N229	N	0.595940	0.050033	0.675732
	N230	N	0.594239	0.976085	0.317250
	N231	N	0.420422	0.050516	0.313725
	N232	N	0.689948	0.427842	0.958144
	N233	N	0.690909	0.599600	0.032855
	N234	N	0.330728	0.601138	0.959525
	N235	N	0.334581	0.429258	0.034159
	N236	N	0.972216	0.689442	0.412557
	N237	N	0.046552	0.690136	0.582863
	N238	N	0.972444	0.335663	0.581088
	N239	N	0.047272	0.334320	0.411463
	N240	N	0.973529	0.425394	0.675888
	N241	N	0.046623	0.598595	0.675800
	N242	N	0.974889	0.600552	0.316529
	N243	N	0.048633	0.426724	0.319334
	N244	N	0.425013	0.693476	0.958520
	N245	N	0.597529	0.693677	0.032951
	N246	N	0.598737	0.333093	0.959719
	N247	N	0.427041	0.335230	0.033354
	N248	N	0.686175	0.974822	0.411602
	N249	N	0.687844	0.049596	0.582113
	N250	N	0.334937	0.974895	0.577593
	N251	N	0.329958	0.050680	0.409244
	N252	N	0.926916	0.476038	0.175697
	N253	N	0.102170	0.548917	0.180770
	N254	N	0.097034	0.476494	0.817680
	N255	N	0.922748	0.548908	0.814721
	N256	N	0.189280	0.925216	0.459150
	N257	N	0.187650	0.097298	0.532793
	N258	N	0.829566	0.097920	0.458556
	N259	N	0.831559	0.927499	0.533970
	N260	N	0.474118	0.192064	0.910169
	N261	N	0.548750	0.189616	0.080512
	N262	N	0.472680	0.835442	0.081462
	N263	N	0.547609	0.837302	0.911456
	N264	N	0.472003	0.927812	0.173945
	N265	N	0.545998	0.101041	0.175983
	N266	N	0.473764	0.101259	0.816021
	N267	N	0.546382	0.927336	0.816928
	N268	N	0.919749	0.194652	0.459548
	N269	N	0.094186	0.190315	0.533198
	N270	N	0.096233	0.831806	0.460322
	N271	N	0.923678	0.833743	0.533780
	N272	N	0.186866	0.475857	0.914335
	N273	N	0.189581	0.551749	0.082785
	N274	N	0.835262	0.475323	0.080482
	N275	N	0.833389	0.550562	0.909982
	O276	O	-0.001005	-0.110785	0.876783
	H277	H	-0.005039	-0.096665	0.873293
	H278	H	-0.009233	-0.122318	0.874068
	O279	O	1.056477	0.078830	1.039099
	H280	H	1.063693	0.074127	1.043858
	H281	H	1.063181	0.055543	1.043948
	O282	O	0.967484	1.087386	-0.153125
	H283	H	0.958905	1.085158	-0.153924
	H284	H	0.952687	1.087621	-0.160016
	O285	O	1.009284	-0.082305	1.036777
	H286	H	1.008438	-0.086784	1.052004
	H287	H	1.000308	-0.081563	1.050041
	O288	O	0.458130	0.499582	0.481999
	H289	H	0.468287	0.514144	0.485539
	H290	H	0.446689	0.498546	0.478631
	O291	O	0.463126	0.544009	0.463752
	H292	H	0.464790	0.541946	0.450258
	H293	H	0.459094	0.553570	0.454878
	O294	O	0.463623	0.570970	0.386460
	H295	H	0.475661	0.568513	0.391965
	H296	H	0.464519	0.577546	0.377227
	O297	O	-0.007963	-0.128758	1.059729
	H298	H	-0.004155	-0.135949	1.068736
	H299	H	0.004079	-0.129184	1.064807
	O300	O	-0.149066	-0.072895	0.143551
	H301	H	-0.152246	-0.060955	0.149260
	H302	H	-0.144910	-0.071788	0.139025
	O303	O	0.444384	0.513169	0.490589
	H304	H	0.429401	0.513323	0.489491
	H305	H	0.455388	0.498473	0.492024
	O306	O	0.110191	0.976777	1.121800
	H307	H	0.107439	0.992417	1.119971
	H308	H	0.116623	0.989602	1.117186
	O309	O	0.432655	0.535574	0.453571
	H310	H	0.425307	0.534461	0.455673
	H311	H	0.421721	0.552679	0.452736
	O312	O	-0.333473	0.321452	0.319269
	H313	H	-0.337913	0.327210	0.324744
	H314	H	-0.322410	0.315617	0.310620
	O315	O	0.961672	0.108145	-0.084985
	H316	H	0.967472	0.112222	-0.089483
	H317	H	0.960424	0.109103	-0.080841
	O318	O	0.828972	1.172129	0.882441
	H319	H	0.818309	1.161415	0.883438
	H320	H	0.828938	1.170076	0.873340
	O321	O	0.029221	-0.007482	0.841985
	H322	H	0.033305	-0.017425	0.845230
	H323	H	0.045422	-0.018709	0.837510
	O324	O	0.459579	0.583007	0.477041
	H325	H	0.459365	0.586992	0.480865
	H326	H	0.462167	0.592443	0.469899
	O327	O	0.060858	0.107202	0.018971
	H328	H	0.064245	0.105705	0.008768
	H329	H	0.065950	0.103728	0.013876
	O330	O	1.093391	0.863754	-0.084753
	H331	H	1.088868	0.855508	-0.097659
	H332	H	1.103391	0.846872	-0.071934
	O333	O	0.057154	0.959270	1.000838
	H334	H	0.060827	0.967837	1.022101
	H335	H	0.065358	0.961646	1.010237
	O336	O	0.042896	-0.020143	0.189095
	H337	H	0.044075	-0.022465	0.182879
	H338	H	0.034629	-0.006670	0.193373
	O339	O	0.504245	0.462052	0.446682
	H340	H	0.496245	0.463223	0.436948
	H341	H	0.508258	0.449320	0.452045
	O342	O	0.874841	0.975417	1.054323
	H343	H	0.873970	0.969520	1.051825
	H344	H	0.871528	0.981901	1.049702
	O345	O	1.080906	0.884587	-0.046260
	H346	H	1.082833	0.879339	-0.040849
	H347	H	1.074372	0.879792	-0.048743
	O348	O	0.582305	0.433235	0.461635
	H349	H	0.586348	0.421360	0.451550
	H350	H	0.581366	0.431492	0.462150
	O351	O	0.978106	0.018190	-0.050867
	H352	H	0.970741	0.020000	-0.052861
	H353	H	0.974170	0.031204	-0.056690
	O354	O	0.531144	0.517681	0.456773
	H355	H	0.532846	0.508925	0.463980
	H356	H	0.530957	0.516270	0.480628
	O357	O	0.567804	0.510149	1.438966
	H358	H	0.560368	0.511440	1.440067
	H359	H	0.573148	0.511522	1.430842
	O360	O	0.046804	0.152818	-0.026572
	H361	H	0.052689	0.154213	-0.027747
	H362	H	0.049717	0.161258	-0.048250
	O363	O	0.554379	0.543878	0.445793
	H364	H	0.549073	0.537129	0.447311
	H365	H	0.558426	0.545410	0.450782
	O366	O	1.109517	1.078723	0.938775
	H367	H	1.096938	1.075937	0.926509
	H368	H	1.096602	1.069390	0.940351
	O369	O	1.110361	0.167717	1.108924
	H370	H	1.104871	0.172583	1.111273
	H371	H	1.106827	0.170824	1.110361
	O372	O	-0.047933	0.021091	-0.016970
	H373	H	-0.053473	0.012656	-0.014817
	H374	H	-0.052450	0.023933	-0.009100
	O375	O	0.507787	-0.498920	0.510560
	H376	H	0.507632	-0.492826	0.516259
	H377	H	0.502297	-0.498867	0.508806
	O378	O	0.735310	0.352527	0.805097
	H379	H	0.734622	0.345833	0.797518
	H380	H	0.739878	0.350182	0.819266
	O381	O	0.463510	0.505865	0.496335
	H382	H	0.459935	0.507044	0.493749
	H383	H	0.456743	0.505252	0.500943
