data_Molecule from HDF5

_cell_length_a		16.281951
_cell_length_b		16.319209
_cell_length_c		16.245079
_cell_angle_alpha	89.903446
_cell_angle_beta	90.072964
_cell_angle_gamma	90.086697
_symmetry_space_group_name_H-M	'P 1'
_symmetry_Int_Tables_number		1

loop_
	_symmetry_equiv_pos_as_xyz
	x,y,z

loop_
	_atom_site_label
	_atom_site_type_symbol
	_atom_site_fract_x
	_atom_site_fract_y
	_atom_site_fract_z
	H0	H	0.396994	0.832671	0.706399
	H1	H	0.594626	0.159734	0.706459
	H2	H	0.593541	0.832431	0.279331
	H3	H	0.396804	0.159570	0.275594
	H4	H	0.709729	0.398470	0.828372
	H5	H	0.709989	0.592584	0.156201
	H6	H	0.281676	0.594609	0.828142
	H7	H	0.281248	0.395769	0.156498
	H8	H	0.831357	0.710677	0.393774
	H9	H	0.158854	0.711717	0.591378
	H10	H	0.832466	0.281252	0.592895
	H11	H	0.159052	0.282179	0.393163
	H12	H	0.831828	0.398230	0.706580
	H13	H	0.158876	0.595336	0.706988
	H14	H	0.831365	0.595015	0.278247
	H15	H	0.158916	0.398993	0.278632
	H16	H	0.397891	0.709666	0.828083
	H17	H	0.596538	0.710685	0.156160
	H18	H	0.594375	0.282342	0.828160
	H19	H	0.397956	0.279971	0.156375
	H20	H	0.710806	0.832979	0.393891
	H21	H	0.710490	0.159621	0.591478
	H22	H	0.280644	0.833212	0.591197
	H23	H	0.281721	0.160810	0.393067
	H24	H	0.896664	0.333688	0.207750
	H25	H	0.094653	0.660723	0.206435
	H26	H	0.093624	0.333333	0.778044
	H27	H	0.897964	0.659760	0.778226
	H28	H	0.209116	0.898982	0.327867
	H29	H	0.211101	0.094380	0.656941
	H30	H	0.782012	0.094072	0.328851
	H31	H	0.781088	0.898306	0.656406
	H32	H	0.333463	0.211472	0.891131
	H33	H	0.660229	0.209903	0.090663
	H34	H	0.333167	0.779196	0.091683
	H35	H	0.660408	0.782019	0.893835
	H36	H	0.332290	0.895565	0.207393
	H37	H	0.660443	0.092391	0.205709
	H38	H	0.332980	0.093538	0.777916
	H39	H	0.659909	0.897674	0.777625
	H40	H	0.897247	0.211115	0.329028
	H41	H	0.095138	0.210579	0.657359
	H42	H	0.093539	0.782358	0.328204
	H43	H	0.895701	0.781515	0.655871
	H44	H	0.208414	0.332647	0.894956
	H45	H	0.212322	0.659475	0.091791
	H46	H	0.781940	0.333328	0.091169
	H47	H	0.781651	0.659249	0.893785
	H48	H	0.407413	0.109842	0.578496
	H49	H	0.601308	0.876534	0.584174
	H50	H	0.585448	0.113866	0.391155
	H51	H	0.401081	0.878414	0.394207
	H52	H	0.579741	0.399070	0.107043
	H53	H	0.591696	0.589349	0.874856
	H54	H	0.407442	0.596002	0.110621
	H55	H	0.395980	0.408745	0.875410
	H56	H	0.114882	0.601047	0.401324
	H57	H	0.883565	0.577747	0.581882
	H58	H	0.113336	0.398135	0.584193
	H59	H	0.879416	0.407364	0.399666
	H60	H	0.109389	0.407291	0.579607
	H61	H	0.874061	0.592096	0.597992
	H62	H	0.106742	0.584139	0.408695
	H63	H	0.877700	0.400488	0.396727
	H64	H	0.395943	0.586177	0.111067
	H65	H	0.587953	0.587878	0.876086
	H66	H	0.596137	0.394503	0.113750
	H67	H	0.410535	0.405645	0.879771
	H68	H	0.584281	0.109293	0.405077
	H69	H	0.584108	0.878252	0.595635
	H70	H	0.394882	0.114670	0.584700
	H71	H	0.407490	0.883504	0.402388
	H72	H	0.905204	0.611490	0.084576
	H73	H	0.081536	0.385419	0.078599
	H74	H	0.091407	0.613166	0.900204
	H75	H	0.906020	0.381853	0.901897
	H76	H	0.094492	0.905839	0.609756
	H77	H	0.082489	0.089950	0.378487
	H78	H	0.905392	0.083762	0.607016
	H79	H	0.906900	0.903936	0.376578
	H80	H	0.613292	0.088313	0.895973
	H81	H	0.381566	0.085590	0.081133
	H82	H	0.617327	0.888556	0.085895
	H83	H	0.380516	0.903187	0.900858
	H84	H	0.606514	0.908787	0.072431
	H85	H	0.379727	0.087312	0.087198
	H86	H	0.614437	0.093264	0.898532
	H87	H	0.379539	0.902829	0.898139
	H88	H	0.907139	0.095611	0.611118
	H89	H	0.090166	0.095815	0.374574
	H90	H	0.083407	0.906720	0.606821
	H91	H	0.900679	0.900414	0.373810
	H92	H	0.088480	0.612961	0.896948
	H93	H	0.098688	0.378994	0.083033
	H94	H	0.900905	0.613067	0.083841
	H95	H	0.896644	0.378736	0.900856
	H96	H	0.407600	0.113330	0.592666
	H97	H	0.584065	0.884404	0.575470
	H98	H	0.597601	0.114543	0.400176
	H99	H	0.397359	0.880532	0.404557
	H100	H	0.592894	0.411226	0.108035
	H101	H	0.588029	0.591768	0.874294
	H102	H	0.409307	0.581794	0.104999
	H103	H	0.402287	0.394843	0.873023
	H104	H	0.112691	0.584975	0.389830
	H105	H	0.878400	0.599423	0.576267
	H106	H	0.112434	0.406587	0.590748
	H107	H	0.879861	0.401771	0.403527
	H108	H	0.902416	0.614622	0.087513
	H109	H	0.085236	0.378567	0.096464
	H110	H	0.087552	0.611998	0.900733
	H111	H	0.903149	0.377965	0.893490
	H112	H	0.087226	0.897149	0.609941
	H113	H	0.092571	0.086026	0.376429
	H114	H	0.896103	0.090108	0.611589
	H115	H	0.900048	0.907612	0.375759
	H116	H	0.612395	0.088708	0.901363
	H117	H	0.379383	0.091793	0.082499
	H118	H	0.612632	0.911215	0.098454
	H119	H	0.379714	0.900779	0.900332
	C120	C	0.374455	0.004548	0.614060
	C121	C	0.617688	0.987865	0.613872
	C122	C	0.617654	0.004580	0.370750
	C123	C	0.373780	0.988713	0.370582
	C124	C	0.617710	0.374158	0.000970
	C125	C	0.617952	0.617541	0.983493
	C126	C	0.375401	0.616696	0.000482
	C127	C	0.374144	0.373513	0.984177
	C128	C	0.003578	0.618528	0.371129
	C129	C	0.986720	0.618555	0.614187
	C130	C	0.003892	0.374954	0.614207
	C131	C	0.987030	0.375166	0.371306
	C132	C	0.874547	0.504920	0.113987
	C133	C	0.117925	0.488678	0.114658
	C134	C	0.117549	0.504886	0.870803
	C135	C	0.873765	0.487658	0.870460
	C136	C	0.116966	0.875105	0.500341
	C137	C	0.117385	0.118402	0.484777
	C138	C	0.874335	0.118480	0.501595
	C139	C	0.874005	0.875445	0.483801
	C140	C	0.505144	0.117786	0.870065
	C141	C	0.488472	0.116728	0.113042
	C142	C	0.504299	0.873564	0.114348
	C143	C	0.488083	0.874034	0.870996
	C144	C	0.376628	0.881647	0.668841
	C145	C	0.614924	0.110990	0.668734
	C146	C	0.614597	0.881454	0.316378
	C147	C	0.376533	0.111146	0.314304
	C148	C	0.672235	0.377657	0.877387
	C149	C	0.672694	0.613950	0.107225
	C150	C	0.320045	0.614254	0.877104
	C151	C	0.318793	0.375268	0.107275
	C152	C	0.880304	0.673234	0.373198
	C153	C	0.109877	0.673880	0.611682
	C154	C	0.881091	0.319714	0.612449
	C155	C	0.110156	0.320159	0.373480
	C156	C	0.880985	0.377620	0.669335
	C157	C	0.110075	0.615911	0.669021
	C158	C	0.880385	0.615690	0.315919
	C159	C	0.110276	0.378221	0.316393
	C160	C	0.377571	0.671886	0.877153
	C161	C	0.616337	0.672460	0.107229
	C162	C	0.614752	0.320260	0.877070
	C163	C	0.376890	0.317799	0.107339
	C164	C	0.672610	0.881745	0.373649
	C165	C	0.672546	0.110910	0.611638
	C166	C	0.318653	0.881990	0.611559
	C167	C	0.319057	0.111591	0.372463
	C168	C	0.877029	0.382188	0.169224
	C169	C	0.115305	0.611544	0.169110
	C170	C	0.114403	0.381964	0.815973
	C171	C	0.877006	0.610924	0.816102
	C172	C	0.171834	0.878011	0.377054
	C173	C	0.173005	0.115071	0.608144
	C174	C	0.819354	0.115581	0.377825
	C175	C	0.819142	0.877843	0.607517
	C176	C	0.382160	0.173185	0.871830
	C177	C	0.611457	0.171691	0.111176
	C178	C	0.381944	0.817191	0.112244
	C179	C	0.611501	0.819606	0.873369
	C180	C	0.381410	0.875062	0.169729
	C181	C	0.611465	0.113303	0.168194
	C182	C	0.381818	0.114607	0.815432
	C183	C	0.611217	0.877167	0.815728
	C184	C	0.876587	0.173592	0.378000
	C185	C	0.115477	0.172943	0.608396
	C186	C	0.114063	0.820462	0.376988
	C187	C	0.876177	0.820150	0.607286
	C188	C	0.171593	0.381687	0.873833
	C189	C	0.173906	0.610983	0.112086
	C190	C	0.819892	0.381955	0.111296
	C191	C	0.819023	0.610528	0.873079
	C192	C	0.396723	0.090460	0.591762
	C193	C	0.596064	0.902104	0.591734
	C194	C	0.595670	0.090387	0.392432
	C195	C	0.395632	0.902966	0.393494
	C196	C	0.595894	0.395392	0.087189
	C197	C	0.595739	0.596160	0.897479
	C198	C	0.397664	0.594500	0.086585
	C199	C	0.396409	0.396315	0.898258
	C200	C	0.089385	0.596601	0.393571
	C201	C	0.900896	0.596365	0.591988
	C202	C	0.089573	0.397508	0.591550
	C203	C	0.901228	0.396886	0.393366
	C204	C	0.896531	0.590942	0.091953
	C205	C	0.095144	0.403018	0.092452
	C206	C	0.095591	0.590784	0.892794
	C207	C	0.895553	0.401766	0.892356
	C208	C	0.094839	0.896800	0.586640
	C209	C	0.094986	0.097022	0.398590
	C210	C	0.896227	0.096335	0.587531
	C211	C	0.895940	0.897552	0.397778
	C212	C	0.591171	0.096323	0.892173
	C213	C	0.402347	0.094720	0.090151
	C214	C	0.590183	0.896197	0.092090
	C215	C	0.402182	0.895769	0.893206
	Zn216	Zn	0.496763	-0.004284	0.742141
	Zn217	Zn	0.495665	-0.003835	0.242274
	Zn218	Zn	0.745694	0.495945	-0.007422
	Zn219	Zn	0.246011	0.495855	-0.007697
	Zn220	Zn	-0.005298	0.746878	0.492165
	Zn221	Zn	-0.004206	0.246813	0.493127
	Zn222	Zn	-0.004271	0.496717	0.742420
	Zn223	Zn	-0.004526	0.497048	0.243290
	Zn224	Zn	0.496935	0.745441	-0.007971
	Zn225	Zn	0.496874	0.245982	-0.008145
	Zn226	Zn	0.746039	-0.003489	0.492693
	Zn227	Zn	0.245607	-0.003072	0.492537
	N228	N	0.410447	0.958873	0.670521
	N229	N	0.581410	0.033551	0.670043
	N230	N	0.580826	0.958688	0.314707
	N231	N	0.409849	0.033572	0.313016
	N232	N	0.674253	0.410529	0.955346
	N233	N	0.673699	0.580455	0.029587
	N234	N	0.318544	0.580714	0.954841
	N235	N	0.317025	0.409191	0.029587
	N236	N	0.957791	0.674937	0.406998
	N237	N	0.032218	0.675652	0.578184
	N238	N	0.958621	0.317902	0.578889
	N239	N	0.032548	0.317901	0.406830
	N240	N	0.958432	0.411233	0.670515
	N241	N	0.032645	0.582198	0.670633
	N242	N	0.958099	0.582433	0.314379
	N243	N	0.032772	0.411545	0.314903
	N244	N	0.411416	0.673524	0.954830
	N245	N	0.582988	0.674736	0.029339
	N246	N	0.581812	0.317813	0.954902
	N247	N	0.410317	0.316320	0.029709
	N248	N	0.674870	0.959474	0.406493
	N249	N	0.674426	0.033572	0.578040
	N250	N	0.317323	0.959559	0.578038
	N251	N	0.317284	0.034418	0.406482
	N252	N	0.910530	0.459618	0.170646
	N253	N	0.081435	0.534270	0.171049
	N254	N	0.081430	0.459607	0.814082
	N255	N	0.910279	0.533634	0.814380
	N256	N	0.173672	0.911308	0.454826
	N257	N	0.174198	0.081946	0.530287
	N258	N	0.817907	0.081921	0.455419
	N259	N	0.817670	0.911571	0.529919
	N260	N	0.459959	0.175539	0.904876
	N261	N	0.533918	0.173748	0.077455
	N262	N	0.459575	0.815984	0.078920
	N263	N	0.534072	0.817600	0.906978
	N264	N	0.458487	0.909553	0.171078
	N265	N	0.533795	0.080013	0.169351
	N266	N	0.459088	0.080708	0.814383
	N267	N	0.533557	0.910473	0.814268
	N268	N	0.910183	0.175346	0.455835
	N269	N	0.081681	0.175286	0.530661
	N270	N	0.080592	0.818589	0.454654
	N271	N	0.909332	0.818246	0.529359
	N272	N	0.173766	0.459127	0.907068
	N273	N	0.175527	0.533465	0.078876
	N274	N	0.818263	0.459300	0.077518
	N275	N	0.816992	0.532845	0.906383
	O276	O	0.459287	0.475931	0.463090
	H277	H	0.452548	0.479599	0.469253
	H278	H	0.458943	0.473314	0.450417
	O279	O	0.417059	0.543248	0.463284
	H280	H	0.422133	0.539660	0.451856
	H281	H	0.422248	0.543038	0.470032
	O282	O	0.514576	0.510217	0.530534
	H283	H	0.521469	0.514541	0.534794
	H284	H	0.517861	0.511715	0.533883
	O285	O	0.061068	1.003691	1.035350
	H286	H	0.065505	1.010384	1.035874
	H287	H	0.064206	1.007993	1.037605
	O288	O	0.438819	0.469063	0.516408
	H289	H	0.444570	0.466596	0.503467
	H290	H	0.442034	0.464143	0.521538
	O291	O	0.035820	0.014484	0.996551
	H292	H	0.033118	0.011627	0.997950
	H293	H	0.039677	0.012653	0.996847
	O294	O	0.479860	0.434167	0.492297
	H295	H	0.490552	0.425086	0.491960
	H296	H	0.471864	0.435397	0.496471
	O297	O	0.429273	0.509926	0.451019
	H298	H	0.432564	0.503527	0.441787
	H299	H	0.433404	0.515132	0.453201
	O300	O	1.046296	1.031244	1.095950
	H301	H	1.048417	1.027406	1.101809
	H302	H	1.051529	1.040586	1.101462
	O303	O	0.516820	0.486153	0.552541
	H304	H	0.512730	0.487376	0.553518
	H305	H	0.512746	0.493419	0.552389
	O306	O	1.029582	0.035061	0.985061
	H307	H	1.025588	0.030996	0.978100
	H308	H	1.027512	0.034547	0.979833
	O309	O	0.500521	0.582375	0.492888
	H310	H	0.494365	0.585996	0.484263
	H311	H	0.502566	0.590901	0.486977
	O312	O	0.501771	0.524617	0.495471
	H313	H	0.500882	0.522673	0.499537
	H314	H	0.491982	0.531543	0.501180
	O315	O	1.099552	0.029861	1.051841
	H316	H	1.104594	0.035806	1.053115
	H317	H	1.107412	0.035736	1.054616
	O318	O	0.014769	-0.033894	-0.000379
	H319	H	0.021667	-0.037126	0.002439
	H320	H	0.014015	-0.039938	-0.008320
	O321	O	0.475559	0.408437	0.512405
	H322	H	0.477178	0.416861	0.519618
	H323	H	0.468081	0.401203	0.520515
	O324	O	0.588311	0.388705	0.368941
	H325	H	0.582503	0.383913	0.374139
	H326	H	0.581471	0.383141	0.372156
	O327	O	1.026393	1.018341	0.034992
	H328	H	1.021507	1.019394	0.040891
	H329	H	1.027030	1.021084	0.035471
	O330	O	0.466987	0.444353	0.450186
	H331	H	0.472775	0.435126	0.445927
	H332	H	0.465396	0.448087	0.436311
	O333	O	0.574786	0.562518	0.414718
	H334	H	0.572609	0.572687	0.409417
	H335	H	0.563987	0.557603	0.420754
