data_Molecule from HDF5

_cell_length_a		16.340835
_cell_length_b		16.259995
_cell_length_c		16.265684
_cell_angle_alpha	89.915820
_cell_angle_beta	89.857932
_cell_angle_gamma	90.168889
_symmetry_space_group_name_H-M	'P 1'
_symmetry_Int_Tables_number		1

loop_
	_symmetry_equiv_pos_as_xyz
	x,y,z

loop_
	_atom_site_label
	_atom_site_type_symbol
	_atom_site_fract_x
	_atom_site_fract_y
	_atom_site_fract_z
	H0	H	0.398349	0.835274	0.715227
	H1	H	0.596659	0.163082	0.713955
	H2	H	0.596014	0.835438	0.286814
	H3	H	0.399961	0.163376	0.286192
	H4	H	0.714591	0.400765	0.837095
	H5	H	0.713328	0.599361	0.164570
	H6	H	0.284176	0.599844	0.837033
	H7	H	0.282423	0.399308	0.163354
	H8	H	0.835132	0.714048	0.402671
	H9	H	0.162121	0.715687	0.598518
	H10	H	0.835658	0.283742	0.600884
	H11	H	0.161701	0.285019	0.401642
	H12	H	0.835564	0.400680	0.716307
	H13	H	0.162258	0.598636	0.715119
	H14	H	0.834639	0.598141	0.286947
	H15	H	0.161505	0.401984	0.285076
	H16	H	0.400101	0.714799	0.837140
	H17	H	0.596465	0.714178	0.164393
	H18	H	0.597419	0.286252	0.836687
	H19	H	0.399013	0.284658	0.164063
	H20	H	0.712606	0.835586	0.401393
	H21	H	0.714590	0.161923	0.599799
	H22	H	0.282854	0.835448	0.600067
	H23	H	0.283573	0.162587	0.401009
	H24	H	0.898944	0.336495	0.216088
	H25	H	0.096619	0.664943	0.213771
	H26	H	0.098670	0.336760	0.785697
	H27	H	0.900859	0.663605	0.786407
	H28	H	0.214524	0.900283	0.337080
	H29	H	0.212734	0.098165	0.664289
	H30	H	0.784730	0.098187	0.336855
	H31	H	0.781970	0.898171	0.663259
	H32	H	0.335543	0.215075	0.901329
	H33	H	0.662148	0.215082	0.099315
	H34	H	0.336141	0.782654	0.101183
	H35	H	0.662163	0.786130	0.902201
	H36	H	0.335557	0.899965	0.216278
	H37	H	0.661966	0.098494	0.215223
	H38	H	0.335409	0.098695	0.785253
	H39	H	0.661645	0.903025	0.786189
	H40	H	0.900800	0.213896	0.337088
	H41	H	0.096674	0.213360	0.665005
	H42	H	0.096175	0.787242	0.335990
	H43	H	0.900455	0.786009	0.664522
	H44	H	0.214195	0.336640	0.900359
	H45	H	0.214954	0.663308	0.099965
	H46	H	0.782957	0.336674	0.101257
	H47	H	0.784384	0.662681	0.901309
	H48	H	0.411565	0.112787	0.591257
	H49	H	0.589976	0.883937	0.587525
	H50	H	0.590535	0.114536	0.408821
	H51	H	0.400270	0.884677	0.419386
	H52	H	0.586931	0.407908	0.115553
	H53	H	0.588994	0.595203	0.884833
	H54	H	0.410638	0.588111	0.114888
	H55	H	0.397842	0.405908	0.881420
	H56	H	0.114265	0.599126	0.416280
	H57	H	0.884887	0.592150	0.588140
	H58	H	0.113361	0.406879	0.589450
	H59	H	0.883713	0.410448	0.404817
	H60	H	0.113846	0.410448	0.594380
	H61	H	0.883149	0.588602	0.598097
	H62	H	0.111388	0.583307	0.406201
	H63	H	0.880957	0.401911	0.406625
	H64	H	0.407003	0.596305	0.118376
	H65	H	0.597057	0.595021	0.882682
	H66	H	0.592486	0.404545	0.118356
	H67	H	0.407924	0.413884	0.886858
	H68	H	0.592734	0.115325	0.409678
	H69	H	0.596370	0.879913	0.595060
	H70	H	0.400282	0.115388	0.588516
	H71	H	0.398529	0.878495	0.399391
	H72	H	0.914835	0.612174	0.085028
	H73	H	0.095899	0.383053	0.088606
	H74	H	0.098605	0.616796	0.915981
	H75	H	0.904767	0.383528	0.911531
	H76	H	0.083772	0.909272	0.614326
	H77	H	0.086452	0.093236	0.385621
	H78	H	0.904572	0.082236	0.614165
	H79	H	0.908487	0.909971	0.386337
	H80	H	0.614546	0.096711	0.910013
	H81	H	0.384129	0.085834	0.095902
	H82	H	0.614959	0.904700	0.094503
	H83	H	0.383181	0.904549	0.913453
	H84	H	0.613843	0.907658	0.091820
	H85	H	0.380459	0.096417	0.098840
	H86	H	0.612594	0.089309	0.907931
	H87	H	0.383677	0.911339	0.906927
	H88	H	0.912970	0.096864	0.616718
	H89	H	0.094740	0.096187	0.382371
	H90	H	0.092284	0.900322	0.618308
	H91	H	0.906284	0.902067	0.382392
	H92	H	0.095396	0.619750	0.898790
	H93	H	0.090771	0.382439	0.100250
	H94	H	0.892480	0.618791	0.089897
	H95	H	0.905466	0.382729	0.906671
	H96	H	0.403870	0.118097	0.599418
	H97	H	0.585970	0.882430	0.597081
	H98	H	0.591987	0.115724	0.407895
	H99	H	0.416694	0.885735	0.406700
	H100	H	0.592755	0.411593	0.115680
	H101	H	0.592855	0.587272	0.885592
	H102	H	0.401206	0.588439	0.117163
	H103	H	0.410659	0.400558	0.882892
	H104	H	0.118307	0.598551	0.398150
	H105	H	0.880891	0.598194	0.595882
	H106	H	0.115406	0.404939	0.594239
	H107	H	0.883951	0.406707	0.413484
	H108	H	0.908327	0.619141	0.107153
	H109	H	0.084245	0.386646	0.091119
	H110	H	0.082753	0.613000	0.908921
	H111	H	0.908803	0.383798	0.909560
	H112	H	0.095693	0.912650	0.616955
	H113	H	0.093590	0.087490	0.385273
	H114	H	0.896903	0.095370	0.621204
	H115	H	0.899952	0.908728	0.382605
	H116	H	0.616125	0.093889	0.902677
	H117	H	0.383778	0.094266	0.087946
	H118	H	0.614600	0.908581	0.095455
	H119	H	0.380959	0.902617	0.904552
	C120	C	0.376276	0.007318	0.621889
	C121	C	0.620161	0.990277	0.622231
	C122	C	0.620098	0.007504	0.379429
	C123	C	0.376406	0.991002	0.379282
	C124	C	0.620432	0.378570	0.008915
	C125	C	0.620469	0.620978	0.992548
	C126	C	0.377564	0.620516	0.008809
	C127	C	0.376538	0.377758	0.991893
	C128	C	0.006675	0.621835	0.378764
	C129	C	0.990706	0.621717	0.622630
	C130	C	0.006691	0.378231	0.622199
	C131	C	0.990335	0.377729	0.378956
	C132	C	0.876351	0.508623	0.123138
	C133	C	0.119963	0.491974	0.122191
	C134	C	0.120510	0.508131	0.879386
	C135	C	0.877672	0.491514	0.879837
	C136	C	0.119625	0.878650	0.508340
	C137	C	0.120191	0.121090	0.492593
	C138	C	0.876748	0.120511	0.509275
	C139	C	0.876548	0.877857	0.491923
	C140	C	0.506583	0.121772	0.878400
	C141	C	0.490723	0.121315	0.122621
	C142	C	0.506734	0.877763	0.122445
	C143	C	0.490326	0.878030	0.879399
	C144	C	0.378190	0.883990	0.677426
	C145	C	0.617340	0.113811	0.676662
	C146	C	0.616517	0.884155	0.324726
	C147	C	0.379366	0.114260	0.324011
	C148	C	0.676681	0.380347	0.886185
	C149	C	0.675504	0.619259	0.115623
	C150	C	0.321901	0.619612	0.885865
	C151	C	0.320473	0.379264	0.114668
	C152	C	0.883825	0.676247	0.381965
	C153	C	0.113479	0.677542	0.619427
	C154	C	0.884277	0.322134	0.621071
	C155	C	0.112896	0.322658	0.380975
	C156	C	0.884433	0.380116	0.678671
	C157	C	0.113450	0.619565	0.677423
	C158	C	0.883438	0.618258	0.324652
	C159	C	0.112912	0.380948	0.323328
	C160	C	0.379797	0.676614	0.885839
	C161	C	0.617696	0.676312	0.115650
	C162	C	0.618089	0.323613	0.885669
	C163	C	0.378716	0.322564	0.115171
	C164	C	0.674667	0.884359	0.381449
	C165	C	0.676161	0.113149	0.620172
	C166	C	0.320323	0.884421	0.620416
	C167	C	0.321471	0.113970	0.381001
	C168	C	0.878614	0.385369	0.178318
	C169	C	0.117301	0.615542	0.176755
	C170	C	0.118286	0.385401	0.823893
	C171	C	0.880256	0.614483	0.823962
	C172	C	0.175871	0.880431	0.385621
	C173	C	0.175264	0.118837	0.615416
	C174	C	0.822487	0.118305	0.385794
	C175	C	0.820637	0.879085	0.614791
	C176	C	0.383911	0.176565	0.881290
	C177	C	0.613339	0.177044	0.119600
	C178	C	0.384520	0.821435	0.120878
	C179	C	0.613336	0.823777	0.881764
	C180	C	0.384277	0.879875	0.178044
	C181	C	0.613257	0.119271	0.177529
	C182	C	0.384194	0.119200	0.823062
	C183	C	0.613055	0.881347	0.823837
	C184	C	0.879768	0.175952	0.386040
	C185	C	0.117663	0.176385	0.615612
	C186	C	0.117410	0.824003	0.385277
	C187	C	0.879204	0.822775	0.615190
	C188	C	0.176037	0.385398	0.880859
	C189	C	0.176006	0.614888	0.120035
	C190	C	0.820761	0.385646	0.121559
	C191	C	0.822474	0.614297	0.881344
	C192	C	0.398814	0.093168	0.599702
	C193	C	0.597467	0.904241	0.599987
	C194	C	0.598224	0.093145	0.402272
	C195	C	0.398647	0.905028	0.401904
	C196	C	0.597436	0.401335	0.094340
	C197	C	0.598901	0.599192	0.906669
	C198	C	0.399702	0.597625	0.094452
	C199	C	0.398946	0.400093	0.906031
	C200	C	0.092437	0.600103	0.400335
	C201	C	0.905182	0.599398	0.600503
	C202	C	0.091997	0.400753	0.599213
	C203	C	0.905047	0.399759	0.401484
	C204	C	0.898649	0.594567	0.100550
	C205	C	0.097099	0.406277	0.099952
	C206	C	0.098652	0.594227	0.901714
	C207	C	0.899790	0.405650	0.902622
	C208	C	0.097237	0.901005	0.594317
	C209	C	0.098028	0.098730	0.406644
	C210	C	0.898469	0.098089	0.595087
	C211	C	0.898673	0.900293	0.405942
	C212	C	0.592221	0.099705	0.900311
	C213	C	0.404997	0.098881	0.100633
	C214	C	0.592463	0.900382	0.100385
	C215	C	0.404691	0.899710	0.901718
	Zn216	Zn	0.497685	-0.000975	0.750058
	Zn217	Zn	0.498381	-0.000361	0.251349
	Zn218	Zn	0.749202	0.499904	0.001039
	Zn219	Zn	0.248752	0.499878	0.000679
	Zn220	Zn	-0.001485	0.750265	0.500138
	Zn221	Zn	-0.001493	0.248766	0.501081
	Zn222	Zn	-0.001086	0.499575	0.751570
	Zn223	Zn	-0.001870	0.500158	0.250211
	Zn224	Zn	0.498839	0.748838	0.000717
	Zn225	Zn	0.498442	0.250264	0.000586
	Zn226	Zn	0.748512	-0.000843	0.500352
	Zn227	Zn	0.248520	-0.000341	0.500453
	N228	N	0.412398	0.961351	0.678414
	N229	N	0.583252	0.036288	0.678203
	N230	N	0.583160	0.961792	0.323269
	N231	N	0.412978	0.036786	0.322970
	N232	N	0.677861	0.414061	0.963672
	N233	N	0.677605	0.585690	0.038043
	N234	N	0.320506	0.585292	0.963367
	N235	N	0.319189	0.412956	0.037095
	N236	N	0.961200	0.678264	0.415008
	N237	N	0.036033	0.679071	0.586139
	N238	N	0.961271	0.320677	0.586814
	N239	N	0.035630	0.320533	0.414914
	N240	N	0.961517	0.414299	0.679532
	N241	N	0.036413	0.585505	0.679341
	N242	N	0.960901	0.585169	0.322327
	N243	N	0.035798	0.414355	0.321808
	N244	N	0.413730	0.677227	0.963056
	N245	N	0.584168	0.677454	0.038181
	N246	N	0.583900	0.322189	0.962956
	N247	N	0.412762	0.321286	0.037703
	N248	N	0.676844	0.962065	0.414826
	N249	N	0.677758	0.035442	0.586966
	N250	N	0.319136	0.962098	0.586592
	N251	N	0.319836	0.036318	0.414817
	N252	N	0.912641	0.462815	0.179295
	N253	N	0.083182	0.538000	0.178165
	N254	N	0.084575	0.462829	0.822729
	N255	N	0.913690	0.537027	0.822891
	N256	N	0.177246	0.913869	0.463444
	N257	N	0.177136	0.085528	0.537780
	N258	N	0.820373	0.084568	0.463412
	N259	N	0.819015	0.912549	0.537173
	N260	N	0.461074	0.178536	0.914731
	N261	N	0.535862	0.178436	0.086222
	N262	N	0.461691	0.820186	0.086864
	N263	N	0.535961	0.821672	0.915639
	N264	N	0.461311	0.914008	0.179381
	N265	N	0.536049	0.085540	0.179618
	N266	N	0.461407	0.085578	0.821301
	N267	N	0.535639	0.914267	0.822243
	N268	N	0.912744	0.177385	0.463681
	N269	N	0.083854	0.177592	0.538130
	N270	N	0.083210	0.822893	0.462429
	N271	N	0.913297	0.821715	0.537705
	N272	N	0.177697	0.462908	0.914387
	N273	N	0.177796	0.537177	0.086769
	N274	N	0.819192	0.463331	0.088072
	N275	N	0.821036	0.536829	0.915446
	O276	O	1.074422	1.028104	-0.045602
	H277	H	1.075348	1.028195	-0.046188
	H278	H	1.080620	1.024421	-0.056158
	O279	O	0.064144	0.010530	-0.025439
	H280	H	0.068530	0.016590	-0.025912
	H281	H	0.059337	0.004336	-0.025449
	O282	O	-0.028514	-0.003054	1.014182
	H283	H	-0.030480	-0.014060	1.018365
	H284	H	-0.032894	0.003644	1.021251
	O285	O	0.530976	0.435572	0.512127
	H286	H	0.538321	0.432793	0.507149
	H287	H	0.536548	0.443081	0.506338
	O288	O	0.486135	0.399856	0.564284
	H289	H	0.485210	0.393610	0.561387
	H290	H	0.485787	0.385106	0.563477
	O291	O	0.502986	0.452103	0.470378
	H292	H	0.500168	0.449156	0.474733
	H293	H	0.498484	0.451777	0.474240
	O294	O	-0.010288	0.005898	-0.004843
	H295	H	-0.007713	0.005787	-0.004936
	H296	H	-0.012644	0.020599	0.001739
	O297	O	0.512361	0.491080	0.512470
	H298	H	0.513373	0.493919	0.518996
	H299	H	0.512438	0.490528	0.506683
	O300	O	0.059017	0.993570	0.969734
	H301	H	0.062661	0.992891	0.967985
	H302	H	0.059518	0.993590	0.975984
	O303	O	0.483484	0.497047	0.516389
	H304	H	0.488989	0.506950	0.527724
	H305	H	0.474498	0.495983	0.520877
	O306	O	0.094300	-0.004187	0.943990
	H307	H	0.080559	-0.002418	0.946939
	H308	H	0.099434	0.004124	0.928133
	O309	O	1.003451	0.988935	1.041138
	H310	H	1.003622	0.986602	1.039250
	H311	H	1.008220	0.988803	1.043801
	O312	O	0.487801	0.478532	0.481582
	H313	H	0.489028	0.481232	0.474696
	H314	H	0.478226	0.478202	0.479133
	O315	O	0.521608	0.428238	0.505316
	H316	H	0.523736	0.430924	0.510939
	H317	H	0.520147	0.415161	0.508670
	O318	O	0.089666	0.937220	-0.057484
	H319	H	0.092728	0.929981	-0.052154
	H320	H	0.086338	0.933402	-0.061321
	O321	O	1.013854	1.064476	-0.054023
	H322	H	1.020169	1.058662	-0.062898
	H323	H	1.012114	1.060125	-0.052926
