data_Molecule from HDF5

_cell_length_a		16.252912
_cell_length_b		16.403478
_cell_length_c		16.599359
_cell_angle_alpha	90.139590
_cell_angle_beta	90.130315
_cell_angle_gamma	89.980691
_symmetry_space_group_name_H-M	'P 1'
_symmetry_Int_Tables_number		1

loop_
	_symmetry_equiv_pos_as_xyz
	x,y,z

loop_
	_atom_site_label
	_atom_site_type_symbol
	_atom_site_fract_x
	_atom_site_fract_y
	_atom_site_fract_z
	H0	H	0.395196	0.845405	0.723223
	H1	H	0.615055	0.157882	0.722315
	H2	H	0.614500	0.843473	0.275026
	H3	H	0.396162	0.157098	0.273639
	H4	H	0.728242	0.393687	0.843804
	H5	H	0.729079	0.608782	0.155583
	H6	H	0.282338	0.601734	0.843667
	H7	H	0.283553	0.395307	0.158736
	H8	H	0.845559	0.722470	0.395713
	H9	H	0.165962	0.718837	0.603465
	H10	H	0.845715	0.278441	0.606108
	H11	H	0.164535	0.279769	0.394177
	H12	H	0.846721	0.392829	0.723651
	H13	H	0.163159	0.608008	0.723646
	H14	H	0.846933	0.612795	0.276704
	H15	H	0.162358	0.392338	0.276332
	H16	H	0.396102	0.721997	0.843606
	H17	H	0.614418	0.727728	0.153696
	H18	H	0.610973	0.277553	0.843475
	H19	H	0.397771	0.275678	0.156533
	H20	H	0.725004	0.841158	0.395747
	H21	H	0.726009	0.159045	0.602277
	H22	H	0.288464	0.841244	0.599368
	H23	H	0.286531	0.160101	0.394447
	H24	H	0.890997	0.346352	0.228397
	H25	H	0.111770	0.659469	0.223406
	H26	H	0.115600	0.346424	0.773952
	H27	H	0.892969	0.658049	0.776371
	H28	H	0.225928	0.896301	0.340806
	H29	H	0.227580	0.104350	0.656573
	H30	H	0.783440	0.105875	0.341978
	H31	H	0.782286	0.893651	0.656270
	H32	H	0.344223	0.218123	0.897359
	H33	H	0.664237	0.223844	0.107010
	H34	H	0.344980	0.781971	0.102278
	H35	H	0.662867	0.776048	0.891154
	H36	H	0.348228	0.891736	0.222640
	H37	H	0.663400	0.110848	0.224123
	H38	H	0.346866	0.107064	0.776746
	H39	H	0.663767	0.892017	0.775954
	H40	H	0.895395	0.226813	0.344595
	H41	H	0.113573	0.223959	0.655889
	H42	H	0.112751	0.776562	0.343513
	H43	H	0.902126	0.780172	0.657408
	H44	H	0.220949	0.340953	0.899234
	H45	H	0.224056	0.660494	0.104102
	H46	H	0.782951	0.342641	0.105367
	H47	H	0.782681	0.659403	0.896521
	H48	H	0.418345	0.115540	0.588322
	H49	H	0.594326	0.886870	0.587875
	H50	H	0.594175	0.111428	0.417554
	H51	H	0.425073	0.889645	0.407788
	H52	H	0.587455	0.409235	0.110778
	H53	H	0.585345	0.591736	0.889076
	H54	H	0.416795	0.598018	0.114470
	H55	H	0.414329	0.402924	0.885718
	H56	H	0.120644	0.596119	0.416420
	H57	H	0.887554	0.590965	0.597058
	H58	H	0.118490	0.415582	0.590070
	H59	H	0.889511	0.408901	0.415213
	H60	H	0.119260	0.413949	0.588742
	H61	H	0.888372	0.595677	0.586410
	H62	H	0.114194	0.580038	0.419137
	H63	H	0.894904	0.419123	0.418119
	H64	H	0.410656	0.589031	0.113372
	H65	H	0.597343	0.590138	0.885812
	H66	H	0.596891	0.410954	0.112948
	H67	H	0.407607	0.412633	0.887375
	H68	H	0.598179	0.117574	0.405742
	H69	H	0.592352	0.886123	0.590149
	H70	H	0.419334	0.114277	0.589129
	H71	H	0.415252	0.888394	0.413580
	H72	H	0.927299	0.607165	0.082111
	H73	H	0.093806	0.385779	0.093338
	H74	H	0.096105	0.616116	0.913342
	H75	H	0.918363	0.387557	0.909040
	H76	H	0.096675	0.908039	0.612650
	H77	H	0.093729	0.091598	0.386963
	H78	H	0.921395	0.090914	0.609944
	H79	H	0.916820	0.908436	0.387719
	H80	H	0.619266	0.086816	0.909625
	H81	H	0.393244	0.087583	0.082751
	H82	H	0.616687	0.919124	0.083468
	H83	H	0.391256	0.917458	0.907466
	H84	H	0.621071	0.914609	0.091466
	H85	H	0.392848	0.082182	0.089413
	H86	H	0.621794	0.089713	0.908899
	H87	H	0.389722	0.910954	0.906966
	H88	H	0.915740	0.090630	0.611351
	H89	H	0.095581	0.091235	0.386605
	H90	H	0.100361	0.911334	0.611658
	H91	H	0.915482	0.912171	0.387786
	H92	H	0.090447	0.615930	0.906464
	H93	H	0.087983	0.387654	0.092980
	H94	H	0.907586	0.616019	0.084502
	H95	H	0.920345	0.389123	0.910561
	H96	H	0.418842	0.114328	0.587670
	H97	H	0.591722	0.888176	0.587919
	H98	H	0.585342	0.112855	0.406694
	H99	H	0.415411	0.884412	0.402787
	H100	H	0.590877	0.417797	0.109528
	H101	H	0.590873	0.581080	0.890961
	H102	H	0.421119	0.588554	0.109806
	H103	H	0.418268	0.412483	0.892146
	H104	H	0.120920	0.584447	0.403484
	H105	H	0.891672	0.584767	0.588377
	H106	H	0.117759	0.415173	0.587905
	H107	H	0.890065	0.417018	0.407483
	H108	H	0.921562	0.616603	0.100802
	H109	H	0.092059	0.388933	0.088167
	H110	H	0.087850	0.612609	0.914370
	H111	H	0.917888	0.387870	0.912156
	H112	H	0.095501	0.912810	0.610930
	H113	H	0.093993	0.090194	0.387658
	H114	H	0.918474	0.085646	0.609710
	H115	H	0.919709	0.911131	0.389135
	H116	H	0.620469	0.089434	0.911852
	H117	H	0.390213	0.090614	0.089570
	H118	H	0.619827	0.909162	0.082550
	H119	H	0.392256	0.913675	0.912781
	C120	C	0.385629	0.009853	0.619742
	C121	C	0.627231	0.991286	0.621122
	C122	C	0.625981	0.009158	0.377591
	C123	C	0.384846	0.991717	0.375917
	C124	C	0.625989	0.379036	0.008341
	C125	C	0.625913	0.622295	0.991002
	C126	C	0.382284	0.622859	0.009075
	C127	C	0.381907	0.377534	0.992421
	C128	C	0.013342	0.621187	0.380430
	C129	C	0.995228	0.622517	0.622371
	C130	C	0.013340	0.380977	0.621430
	C131	C	0.996311	0.381092	0.379425
	C132	C	0.883506	0.509879	0.122645
	C133	C	0.124974	0.492474	0.123339
	C134	C	0.124788	0.510225	0.879407
	C135	C	0.884170	0.492549	0.878740
	C136	C	0.128793	0.878481	0.507661
	C137	C	0.127756	0.123431	0.490708
	C138	C	0.884287	0.122174	0.507459
	C139	C	0.884898	0.878759	0.491817
	C140	C	0.514568	0.121245	0.878080
	C141	C	0.496610	0.121374	0.120887
	C142	C	0.514067	0.880832	0.118572
	C143	C	0.496220	0.879747	0.876511
	C144	C	0.379969	0.891824	0.681061
	C145	C	0.631854	0.110237	0.681647
	C146	C	0.631062	0.890613	0.316185
	C147	C	0.380009	0.110185	0.314728
	C148	C	0.687738	0.375423	0.890778
	C149	C	0.687956	0.626218	0.108546
	C150	C	0.321980	0.622173	0.890733
	C151	C	0.322941	0.376380	0.111165
	C152	C	0.893455	0.682547	0.377751
	C153	C	0.117175	0.680535	0.623012
	C154	C	0.893722	0.318955	0.624162
	C155	C	0.115959	0.319443	0.375691
	C156	C	0.894016	0.376081	0.682519
	C157	C	0.115846	0.624937	0.682281
	C158	C	0.894189	0.627548	0.318433
	C159	C	0.115075	0.376112	0.317392
	C160	C	0.378804	0.681843	0.890813
	C161	C	0.631242	0.685866	0.107524
	C162	C	0.629291	0.317711	0.890594
	C163	C	0.379664	0.316538	0.109766
	C164	C	0.686234	0.889505	0.376125
	C165	C	0.687470	0.110951	0.622188
	C166	C	0.326536	0.889658	0.619589
	C167	C	0.325101	0.111771	0.374852
	C168	C	0.876206	0.392648	0.186002
	C169	C	0.129098	0.611942	0.183237
	C170	C	0.130718	0.392431	0.816716
	C171	C	0.877531	0.610670	0.817196
	C172	C	0.187021	0.877252	0.388693
	C173	C	0.188128	0.124092	0.609141
	C174	C	0.823123	0.124480	0.389556
	C175	C	0.823632	0.876305	0.609548
	C176	C	0.393137	0.179657	0.877452
	C177	C	0.616282	0.183516	0.124736
	C178	C	0.393465	0.820570	0.121271
	C179	C	0.615346	0.816784	0.873329
	C180	C	0.395097	0.875653	0.180870
	C181	C	0.615959	0.126994	0.183119
	C182	C	0.394526	0.124357	0.817598
	C183	C	0.615872	0.874654	0.815965
	C184	C	0.878971	0.184902	0.390745
	C185	C	0.131382	0.183689	0.608846
	C186	C	0.130567	0.817485	0.390022
	C187	C	0.882954	0.819471	0.610310
	C188	C	0.183381	0.389804	0.878966
	C189	C	0.184841	0.612490	0.123817
	C190	C	0.822079	0.390934	0.124906
	C191	C	0.822486	0.611466	0.877153
	C192	C	0.411474	0.092894	0.595303
	C193	C	0.600479	0.908504	0.595989
	C194	C	0.599890	0.092048	0.402588
	C195	C	0.410921	0.908998	0.400780
	C196	C	0.599384	0.405125	0.089926
	C197	C	0.598881	0.595353	0.909709
	C198	C	0.408488	0.598717	0.091360
	C199	C	0.406352	0.402282	0.910002
	C200	C	0.096773	0.594611	0.405926
	C201	C	0.911240	0.597689	0.597871
	C202	C	0.096655	0.407425	0.596308
	C203	C	0.913120	0.407630	0.405930
	C204	C	0.910963	0.591863	0.096490
	C205	C	0.098867	0.409429	0.098701
	C206	C	0.098977	0.593201	0.904224
	C207	C	0.911094	0.409800	0.903507
	C208	C	0.104555	0.903446	0.590265
	C209	C	0.101820	0.098281	0.408554
	C210	C	0.910904	0.096387	0.588991
	C211	C	0.910239	0.903508	0.409729
	C212	C	0.598646	0.095944	0.903035
	C213	C	0.413535	0.094622	0.094748
	C214	C	0.597391	0.906852	0.093002
	C215	C	0.412801	0.906319	0.901701
	Zn216	Zn	0.506039	0.001126	0.748908
	Zn217	Zn	0.506192	0.000502	0.247693
	Zn218	Zn	0.755574	0.500590	-0.000202
	Zn219	Zn	0.252624	0.500119	0.001921
	Zn220	Zn	0.006115	0.749275	0.500099
	Zn221	Zn	0.005152	0.252711	0.500056
	Zn222	Zn	0.004535	0.501877	0.750273
	Zn223	Zn	0.003979	0.502082	0.251547
	Zn224	Zn	0.504245	0.752510	-0.001287
	Zn225	Zn	0.505232	0.249147	-0.000139
	Zn226	Zn	0.754575	-0.000131	0.498905
	Zn227	Zn	0.257541	0.001203	0.498448
	N228	N	0.416066	0.967434	0.681210
	N229	N	0.595444	0.034557	0.681339
	N230	N	0.594657	0.966159	0.316795
	N231	N	0.416107	0.034526	0.314934
	N232	N	0.685825	0.412657	0.965021
	N233	N	0.684682	0.587504	0.035179
	N234	N	0.323755	0.586467	0.965527
	N235	N	0.324106	0.413680	0.037067
	N236	N	0.968574	0.678670	0.415788
	N237	N	0.041298	0.679358	0.586559
	N238	N	0.969119	0.321918	0.586918
	N239	N	0.040988	0.322467	0.413704
	N240	N	0.969452	0.413731	0.681099
	N241	N	0.039000	0.590037	0.682324
	N242	N	0.969481	0.589722	0.320396
	N243	N	0.039289	0.413252	0.319275
	N244	N	0.415439	0.682380	0.965466
	N245	N	0.593295	0.683718	0.033424
	N246	N	0.591808	0.319760	0.964646
	N247	N	0.415391	0.317164	0.034945
	N248	N	0.683157	0.964158	0.413731
	N249	N	0.684789	0.035977	0.585263
	N250	N	0.329902	0.964165	0.581972
	N251	N	0.327849	0.037098	0.412267
	N252	N	0.913379	0.467891	0.184996
	N253	N	0.092900	0.536226	0.183174
	N254	N	0.095220	0.468471	0.816736
	N255	N	0.915052	0.535438	0.817930
	N256	N	0.186144	0.914402	0.462901
	N257	N	0.186078	0.087347	0.534662
	N258	N	0.826232	0.086155	0.463047
	N259	N	0.824456	0.912257	0.534776
	N260	N	0.468902	0.178075	0.914311
	N261	N	0.541113	0.180133	0.086648
	N262	N	0.468478	0.823571	0.083292
	N263	N	0.539635	0.819680	0.910233
	N264	N	0.471060	0.912361	0.179334
	N265	N	0.540587	0.089129	0.180651
	N266	N	0.471171	0.088882	0.818033
	N267	N	0.540898	0.912995	0.818012
	N268	N	0.916508	0.183530	0.464966
	N269	N	0.094703	0.183665	0.534047
	N270	N	0.095207	0.818142	0.465040
	N271	N	0.920285	0.820828	0.536213
	N272	N	0.180142	0.464081	0.917181
	N273	N	0.182739	0.537073	0.087696
	N274	N	0.826268	0.464792	0.086311
	N275	N	0.826405	0.537052	0.914594
	O276	O	0.574749	0.644824	0.463468
	H277	H	0.559421	0.631583	0.479697
	H278	H	0.570294	0.641490	0.447341
	O279	O	1.199212	0.200691	1.136344
	H280	H	1.207107	0.175246	1.121960
	H281	H	1.228978	0.199265	1.148346
	O282	O	0.312421	0.676615	0.485405
	H283	H	0.306483	0.699131	0.499828
	H284	H	0.330690	0.674872	0.479648
	O285	O	0.398102	0.353406	0.428915
	H286	H	0.379252	0.344104	0.426990
	H287	H	0.399757	0.366279	0.430018
	O288	O	0.795118	1.211209	-0.023996
	H289	H	0.780400	1.233774	-0.011811
	H290	H	0.811084	1.213427	-0.005733
	O291	O	0.695182	0.389968	0.578245
	H292	H	0.687220	0.397143	0.583034
	H293	H	0.715461	0.382271	0.595125
	O294	O	-0.004797	0.147793	0.821558
	H295	H	-0.033386	0.145946	0.825590
	H296	H	-0.025541	0.167897	0.800062
	O297	O	0.314712	0.310126	0.690641
	H298	H	0.318880	0.334735	0.685411
	H299	H	0.295240	0.317973	0.704977
	O300	O	0.509101	0.454983	0.348714
	H301	H	0.474511	0.446597	0.355073
	H302	H	0.512199	0.436384	0.353671
	O303	O	0.307075	0.296063	0.435782
	H304	H	0.309965	0.300704	0.454457
	H305	H	0.309699	0.288624	0.462654
	O306	O	0.417203	0.561202	0.610772
	H307	H	0.408105	0.550025	0.602903
	H308	H	0.421873	0.547943	0.602038
	O309	O	0.680082	0.674259	0.679582
	H310	H	0.673390	0.687847	0.656123
	H311	H	0.663055	0.658510	0.674839
	O312	O	-0.112387	1.077220	1.170606
	H313	H	-0.098016	1.082738	1.182248
	H314	H	-0.107797	1.075827	1.161660
	O315	O	0.167981	0.871709	1.120971
	H316	H	0.155954	0.874851	1.117799
	H317	H	0.158478	0.861179	1.111578
	O318	O	1.020687	-0.149444	0.203974
	H319	H	1.005656	-0.149766	0.208497
	H320	H	1.010919	-0.140663	0.215696
	O321	O	0.567753	-0.283639	-0.617368
	H322	H	0.592272	-0.306227	-0.622538
	H323	H	0.570721	-0.270614	-0.639833
	O324	O	0.632865	0.516050	0.688651
	H325	H	0.657116	0.531489	0.694382
	H326	H	0.620206	0.535432	0.676852
	O327	O	-0.055889	0.209122	1.062726
	H328	H	-0.048284	0.201321	1.072427
	H329	H	-0.045131	0.194526	1.090851
	O330	O	-0.031354	1.062239	-0.211467
	H331	H	-0.018770	1.059774	-0.197238
	H332	H	-0.020971	1.066816	-0.205775
	O333	O	0.433021	0.697777	0.569681
	H334	H	0.441639	0.688554	0.575108
	H335	H	0.444687	0.704106	0.579036
	O336	O	-0.327836	-0.428060	-0.421075
	H337	H	-0.306431	-0.416585	-0.428615
	H338	H	-0.357276	-0.421322	-0.439328
	O339	O	0.133508	0.797641	1.025839
	H340	H	0.142726	0.812894	1.000226
	H341	H	0.153121	0.777410	1.027040
	O342	O	0.032912	0.791778	0.783039
	H343	H	0.027955	0.777370	0.785664
	H344	H	0.026367	0.775169	0.778636
	O345	O	1.209216	1.161697	-0.008930
	H346	H	1.192027	1.169013	-0.012721
	H347	H	1.214926	1.172030	0.002770
	O348	O	0.696402	0.419426	0.309840
	H349	H	0.701918	0.430303	0.318103
	H350	H	0.698169	0.416624	0.305824
	O351	O	-0.003408	0.918475	0.949940
	H352	H	0.003249	0.924832	0.945252
	H353	H	-0.014300	0.901334	0.954798
	O354	O	0.214845	1.013328	0.169230
	H355	H	0.227827	1.005812	0.172137
	H356	H	0.215244	0.989438	0.160541
	O357	O	-0.180540	0.190700	0.813061
	H358	H	-0.192200	0.163089	0.823713
	H359	H	-0.181363	0.202985	0.842052
	O360	O	0.519481	0.292349	0.296749
	H361	H	0.528907	0.287284	0.304811
	H362	H	0.515736	0.274342	0.291099
	O363	O	0.037884	-0.020451	1.120988
	H364	H	0.045777	-0.023471	1.119105
	H365	H	0.020168	0.003143	1.120287
	O366	O	0.525470	0.598837	0.420635
	H367	H	0.532226	0.586750	0.420829
	H368	H	0.534587	0.598121	0.419245
	O369	O	0.304234	0.477268	0.701822
	H370	H	0.301595	0.494967	0.684850
	H371	H	0.291863	0.489905	0.707447
	O372	O	1.031666	-0.096992	1.109535
	H373	H	1.032186	-0.092658	1.115937
	H374	H	1.037227	-0.096870	1.122362
	O375	O	0.581935	0.619019	0.324013
	H376	H	0.589525	0.594561	0.325768
	H377	H	0.587288	0.598218	0.332442
	O378	O	-0.184190	0.860388	0.192672
	H379	H	-0.194907	0.848082	0.164443
	H380	H	-0.197387	0.876215	0.203365
	O381	O	0.521235	0.717889	0.711565
	H382	H	0.502993	0.708062	0.725446
	H383	H	0.539035	0.730812	0.729127
	O384	O	0.367434	0.493546	0.500746
	H385	H	0.385057	0.488193	0.493683
	H386	H	0.365943	0.505196	0.485621
	O387	O	0.036422	-0.007493	1.049923
	H388	H	0.044005	-0.008778	1.035840
	H389	H	0.010373	-0.008659	1.039529
	O390	O	-0.108511	0.068631	0.215040
	H391	H	-0.109374	0.085983	0.234738
	H392	H	-0.085766	0.072251	0.218258
	O393	O	1.094311	1.184652	1.202369
	H394	H	1.105563	1.181194	1.220622
	H395	H	1.124616	1.182250	1.175516
	O396	O	0.691168	-0.450250	0.374324
	H397	H	0.682410	-0.452159	0.375672
	H398	H	0.700620	-0.452485	0.369584
	O399	O	1.059572	0.208944	0.945852
	H400	H	1.052522	0.212274	0.943909
	H401	H	1.054820	0.208661	0.955057
	O402	O	0.794973	1.002870	1.027025
	H403	H	0.795704	1.026265	1.026580
	H404	H	0.795619	0.996950	1.042382
	O405	O	1.195951	0.811037	-0.189467
	H406	H	1.209871	0.833495	-0.196566
	H407	H	1.159907	0.810734	-0.190328
	O408	O	0.793496	0.025323	-0.218346
	H409	H	0.774299	0.040779	-0.246742
	H410	H	0.816027	0.019569	-0.230961
	O411	O	1.478639	1.285747	0.713370
	H412	H	1.444399	1.282537	0.715727
	H413	H	1.476204	1.274969	0.734757
	O414	O	0.473470	0.525648	0.699292
	H415	H	0.470116	0.502532	0.699721
	H416	H	0.488893	0.514482	0.694348
	O417	O	0.907123	0.797511	0.950033
	H418	H	0.927044	0.795722	0.969864
	H419	H	0.889243	0.798724	0.955724
	O420	O	0.204099	-0.083674	-0.143797
	H421	H	0.214068	-0.086096	-0.143920
	H422	H	0.198708	-0.080913	-0.146708
	O423	O	0.287448	0.526876	0.281868
	H424	H	0.277738	0.560523	0.274580
	H425	H	0.270836	0.549693	0.267092
	O426	O	0.322023	0.684846	0.314889
	H427	H	0.333755	0.693655	0.351428
	H428	H	0.351927	0.705386	0.296648
	O429	O	0.496143	0.469644	0.419716
	H430	H	0.503987	0.474488	0.405090
	H431	H	0.469592	0.464592	0.408207
	O432	O	0.678899	0.312547	0.411330
	H433	H	0.681211	0.325578	0.406386
	H434	H	0.671730	0.310466	0.425880
	O435	O	0.803004	0.804064	0.067071
	H436	H	0.789621	0.782266	0.062456
	H437	H	0.813151	0.823126	0.045380
	O438	O	-0.167254	-0.070144	-0.079931
	H439	H	-0.176066	-0.052185	-0.073484
	H440	H	-0.172934	-0.053789	-0.100321
	O441	O	1.201452	0.014857	-0.095574
	H442	H	1.189653	0.003065	-0.096298
	H443	H	1.199336	0.041457	-0.086873
	O444	O	0.126334	1.122527	0.802862
	H445	H	0.097943	1.131813	0.804645
	H446	H	0.116516	1.107195	0.815971
	O447	O	0.628660	0.366316	0.596106
	H448	H	0.625341	0.370955	0.608656
	H449	H	0.614963	0.344516	0.602826
	O450	O	0.640060	0.378117	0.539583
	H451	H	0.630562	0.383856	0.535946
	H452	H	0.637844	0.381472	0.565651
	O453	O	0.323381	0.431212	0.446412
	H454	H	0.311680	0.439816	0.420390
	H455	H	0.325330	0.434267	0.462592
