data_Molecule from HDF5

_cell_length_a		16.456855
_cell_length_b		16.359728
_cell_length_c		16.062164
_cell_angle_alpha	89.679463
_cell_angle_beta	89.889015
_cell_angle_gamma	90.070613
_symmetry_space_group_name_H-M	'P 1'
_symmetry_Int_Tables_number		1

loop_
	_symmetry_equiv_pos_as_xyz
	x,y,z

loop_
	_atom_site_label
	_atom_site_type_symbol
	_atom_site_fract_x
	_atom_site_fract_y
	_atom_site_fract_z
	H0	H	0.400412	0.828460	0.718552
	H1	H	0.595622	0.154691	0.716817
	H2	H	0.596990	0.828865	0.290213
	H3	H	0.399264	0.153495	0.286338
	H4	H	0.715652	0.389147	0.840507
	H5	H	0.715609	0.592154	0.167784
	H6	H	0.280452	0.595549	0.841572
	H7	H	0.278894	0.384456	0.166917
	H8	H	0.839162	0.712561	0.398041
	H9	H	0.159022	0.711677	0.605099
	H10	H	0.839450	0.270648	0.606989
	H11	H	0.158360	0.272017	0.395024
	H12	H	0.837336	0.392579	0.718342
	H13	H	0.160300	0.591077	0.718488
	H14	H	0.837312	0.589546	0.286958
	H15	H	0.161133	0.395468	0.287594
	H16	H	0.392127	0.712211	0.843425
	H17	H	0.597728	0.705266	0.169155
	H18	H	0.598394	0.277216	0.839601
	H19	H	0.398320	0.274235	0.168922
	H20	H	0.718471	0.830911	0.399755
	H21	H	0.719126	0.151514	0.608500
	H22	H	0.276587	0.832585	0.611908
	H23	H	0.280552	0.153407	0.399431
	H24	H	0.900343	0.328415	0.220476
	H25	H	0.096621	0.653949	0.215208
	H26	H	0.097756	0.328139	0.787662
	H27	H	0.900264	0.653406	0.786550
	H28	H	0.217729	0.891502	0.340499
	H29	H	0.216680	0.096871	0.665903
	H30	H	0.778045	0.097642	0.340612
	H31	H	0.782493	0.888184	0.667128
	H32	H	0.337811	0.211282	0.900703
	H33	H	0.658993	0.210070	0.106453
	H34	H	0.338634	0.767667	0.115829
	H35	H	0.656550	0.770410	0.902219
	H36	H	0.336536	0.890776	0.224107
	H37	H	0.660462	0.089305	0.218257
	H38	H	0.335888	0.090859	0.788988
	H39	H	0.659956	0.892826	0.790244
	H40	H	0.896681	0.209231	0.338149
	H41	H	0.100741	0.210023	0.664773
	H42	H	0.100846	0.779552	0.337339
	H43	H	0.897679	0.772831	0.665351
	H44	H	0.217507	0.329363	0.900494
	H45	H	0.221250	0.649087	0.110335
	H46	H	0.778796	0.329921	0.110093
	H47	H	0.777685	0.650229	0.897436
	H48	H	0.409929	0.107607	0.601999
	H49	H	0.591388	0.875702	0.597060
	H50	H	0.593335	0.105620	0.417442
	H51	H	0.401752	0.877141	0.419415
	H52	H	0.588213	0.398496	0.121563
	H53	H	0.581291	0.585302	0.888698
	H54	H	0.398355	0.577661	0.124685
	H55	H	0.407902	0.399394	0.887659
	H56	H	0.113078	0.585497	0.412240
	H57	H	0.887320	0.586376	0.582791
	H58	H	0.110062	0.403738	0.587512
	H59	H	0.886966	0.403884	0.415181
	H60	H	0.114520	0.402063	0.598591
	H61	H	0.887474	0.574802	0.594201
	H62	H	0.114355	0.585698	0.405311
	H63	H	0.884203	0.400155	0.407791
	H64	H	0.411991	0.568222	0.116187
	H65	H	0.593802	0.583719	0.884803
	H66	H	0.591780	0.397993	0.122995
	H67	H	0.406461	0.402479	0.886368
	H68	H	0.591524	0.107844	0.410142
	H69	H	0.591631	0.875512	0.595928
	H70	H	0.409190	0.104542	0.587811
	H71	H	0.406796	0.876424	0.411056
	H72	H	0.904017	0.605634	0.092610
	H73	H	0.095584	0.374344	0.092420
	H74	H	0.090994	0.605020	0.913064
	H75	H	0.908088	0.378817	0.919479
	H76	H	0.086748	0.910316	0.616843
	H77	H	0.076194	0.080423	0.390829
	H78	H	0.911829	0.076285	0.616903
	H79	H	0.913335	0.901235	0.386591
	H80	H	0.612370	0.086440	0.913854
	H81	H	0.387153	0.085713	0.084361
	H82	H	0.616470	0.889334	0.103133
	H83	H	0.383289	0.899631	0.912171
	H84	H	0.608999	0.893824	0.081863
	H85	H	0.385413	0.074223	0.097887
	H86	H	0.612218	0.083197	0.911929
	H87	H	0.382913	0.897435	0.916806
	H88	H	0.911505	0.085447	0.618594
	H89	H	0.094547	0.094149	0.380242
	H90	H	0.080622	0.896239	0.618706
	H91	H	0.902792	0.899755	0.382097
	H92	H	0.092513	0.605690	0.912504
	H93	H	0.088220	0.373643	0.098775
	H94	H	0.906488	0.605604	0.092720
	H95	H	0.899230	0.373466	0.913491
	H96	H	0.397505	0.109674	0.594731
	H97	H	0.592781	0.876018	0.596801
	H98	H	0.586444	0.104153	0.415070
	H99	H	0.410812	0.879779	0.419375
	H100	H	0.591175	0.401636	0.121489
	H101	H	0.587335	0.573516	0.889731
	H102	H	0.414243	0.585738	0.121817
	H103	H	0.409708	0.402341	0.887634
	H104	H	0.116104	0.591943	0.409349
	H105	H	0.881353	0.589522	0.597916
	H106	H	0.114364	0.393059	0.590259
	H107	H	0.883537	0.395057	0.415083
	H108	H	0.905071	0.605036	0.090336
	H109	H	0.086862	0.378221	0.089748
	H110	H	0.091185	0.605596	0.912098
	H111	H	0.910156	0.375470	0.908774
	H112	H	0.095625	0.898511	0.623871
	H113	H	0.098663	0.070662	0.386961
	H114	H	0.904280	0.080032	0.620392
	H115	H	0.905678	0.909429	0.387464
	H116	H	0.613332	0.085710	0.910652
	H117	H	0.380435	0.090558	0.100011
	H118	H	0.608475	0.909733	0.097496
	H119	H	0.384382	0.901873	0.915885
	C120	C	0.375583	0.000419	0.626221
	C121	C	0.621251	0.982410	0.626388
	C122	C	0.620189	-0.000493	0.383248
	C123	C	0.376982	0.983956	0.384020
	C124	C	0.619924	0.369696	0.013178
	C125	C	0.618139	0.610786	0.995810
	C126	C	0.376650	0.610526	0.013716
	C127	C	0.377454	0.369943	0.995423
	C128	C	0.008025	0.616034	0.379048
	C129	C	0.991041	0.613679	0.622874
	C130	C	0.007180	0.368839	0.623713
	C131	C	0.990930	0.370629	0.381108
	C132	C	0.875767	0.498984	0.124762
	C133	C	0.120230	0.482005	0.124116
	C134	C	0.121032	0.498722	0.881787
	C135	C	0.876490	0.482219	0.882163
	C136	C	0.119223	0.872087	0.511509
	C137	C	0.120282	0.113288	0.493619
	C138	C	0.877579	0.112534	0.510803
	C139	C	0.877189	0.871301	0.493420
	C140	C	0.505984	0.114659	0.881799
	C141	C	0.490584	0.112999	0.124727
	C142	C	0.505337	0.867784	0.127229
	C143	C	0.489223	0.869007	0.883738
	C144	C	0.378504	0.877891	0.682387
	C145	C	0.617622	0.105413	0.680619
	C146	C	0.618195	0.877697	0.327061
	C147	C	0.378813	0.105109	0.325043
	C148	C	0.676836	0.370177	0.889364
	C149	C	0.676135	0.610854	0.118922
	C150	C	0.319018	0.613340	0.890679
	C151	C	0.318897	0.367407	0.118282
	C152	C	0.886970	0.672849	0.379162
	C153	C	0.111402	0.671244	0.623281
	C154	C	0.886967	0.310690	0.625093
	C155	C	0.111134	0.312397	0.378150
	C156	C	0.885870	0.370982	0.680767
	C157	C	0.112027	0.611573	0.680117
	C158	C	0.885857	0.611925	0.323926
	C159	C	0.112420	0.373769	0.324586
	C160	C	0.374564	0.671657	0.891764
	C161	C	0.617445	0.666911	0.119871
	C162	C	0.618723	0.314419	0.888988
	C163	C	0.378159	0.312343	0.119230
	C164	C	0.678338	0.878581	0.381993
	C165	C	0.678909	0.103731	0.626607
	C166	C	0.317106	0.879873	0.628679
	C167	C	0.319651	0.105139	0.381337
	C168	C	0.878888	0.377199	0.182763
	C169	C	0.117901	0.604629	0.179020
	C170	C	0.118779	0.376858	0.825257
	C171	C	0.878890	0.604269	0.824392
	C172	C	0.178392	0.872331	0.388902
	C173	C	0.178023	0.115076	0.616570
	C174	C	0.818103	0.115099	0.388972
	C175	C	0.820862	0.869670	0.617570
	C176	C	0.385645	0.172155	0.881679
	C177	C	0.611300	0.170721	0.125275
	C178	C	0.385915	0.808546	0.131770
	C179	C	0.609272	0.810431	0.883173
	C180	C	0.385071	0.869705	0.186135
	C181	C	0.612107	0.110472	0.180711
	C182	C	0.384802	0.112121	0.825872
	C183	C	0.610917	0.871378	0.827573
	C184	C	0.877020	0.170897	0.387581
	C185	C	0.120154	0.171396	0.616106
	C186	C	0.119989	0.816699	0.387438
	C187	C	0.877892	0.812290	0.616807
	C188	C	0.178382	0.377603	0.881297
	C189	C	0.179771	0.602240	0.126431
	C190	C	0.818420	0.377846	0.127545
	C191	C	0.818053	0.602888	0.879663
	C192	C	0.398773	0.085183	0.601870
	C193	C	0.598602	0.897724	0.603382
	C194	C	0.597089	0.083773	0.407254
	C195	C	0.399712	0.899531	0.409481
	C196	C	0.597085	0.392627	0.099379
	C197	C	0.594363	0.587620	0.909998
	C198	C	0.401021	0.584615	0.098835
	C199	C	0.401097	0.394329	0.909482
	C200	C	0.092477	0.594377	0.402053
	C201	C	0.907163	0.590336	0.598644
	C202	C	0.091185	0.392531	0.599209
	C203	C	0.906908	0.393034	0.405732
	C204	C	0.898551	0.583549	0.099345
	C205	C	0.097080	0.397400	0.100544
	C206	C	0.098235	0.583302	0.905663
	C207	C	0.899210	0.397793	0.906856
	C208	C	0.094798	0.895005	0.597486
	C209	C	0.096723	0.088900	0.408123
	C210	C	0.902150	0.087905	0.596452
	C211	C	0.900489	0.896067	0.407760
	C212	C	0.590576	0.091875	0.905283
	C213	C	0.406426	0.090265	0.100975
	C214	C	0.589286	0.891117	0.101693
	C215	C	0.405204	0.892533	0.907847
	Zn216	Zn	0.497774	-0.008448	0.754078
	Zn217	Zn	0.498626	-0.008706	0.254615
	Zn218	Zn	0.746805	0.490256	0.003827
	Zn219	Zn	0.249407	0.490055	0.003903
	Zn220	Zn	-0.000775	0.744657	0.501473
	Zn221	Zn	-0.000824	0.240351	0.501126
	Zn222	Zn	-0.000730	0.490944	0.753075
	Zn223	Zn	-0.000771	0.491693	0.251917
	Zn224	Zn	0.496663	0.738679	0.005871
	Zn225	Zn	0.498685	0.243267	0.003796
	Zn226	Zn	0.749265	-0.008580	0.503598
	Zn227	Zn	0.247383	-0.007448	0.504448
	N228	N	0.414200	0.953891	0.680985
	N229	N	0.582707	0.028930	0.681088
	N230	N	0.582802	0.953845	0.327655
	N231	N	0.413645	0.028825	0.326486
	N232	N	0.677579	0.403943	0.967604
	N233	N	0.676684	0.576820	0.040859
	N234	N	0.320209	0.576064	0.967398
	N235	N	0.318325	0.402416	0.040293
	N236	N	0.963797	0.675589	0.412327
	N237	N	0.035128	0.672602	0.588453
	N238	N	0.963575	0.309277	0.590555
	N239	N	0.034624	0.310326	0.412688
	N240	N	0.961655	0.406293	0.680237
	N241	N	0.036250	0.576283	0.679954
	N242	N	0.962007	0.577406	0.323609
	N243	N	0.036700	0.409223	0.326270
	N244	N	0.409594	0.670176	0.969269
	N245	N	0.582065	0.667183	0.042339
	N246	N	0.584209	0.313914	0.966887
	N247	N	0.414120	0.313798	0.041837
	N248	N	0.679747	0.955349	0.416088
	N249	N	0.681431	0.026277	0.593748
	N250	N	0.315010	0.957228	0.594768
	N251	N	0.318374	0.028559	0.417265
	N252	N	0.913820	0.453578	0.181206
	N253	N	0.081582	0.528906	0.177746
	N254	N	0.083991	0.453196	0.825339
	N255	N	0.914459	0.528388	0.825699
	N256	N	0.178137	0.906130	0.467088
	N257	N	0.178117	0.079568	0.539361
	N258	N	0.818344	0.079612	0.466788
	N259	N	0.820237	0.905634	0.539896
	N260	N	0.462169	0.173890	0.915617
	N261	N	0.534569	0.172661	0.091404
	N262	N	0.461909	0.807173	0.095915
	N263	N	0.532559	0.809016	0.917333
	N264	N	0.460551	0.905666	0.183493
	N265	N	0.536033	0.075665	0.181047
	N266	N	0.460777	0.077152	0.825807
	N267	N	0.535246	0.906946	0.827683
	N268	N	0.913568	0.169230	0.464438
	N269	N	0.085002	0.170366	0.538664
	N270	N	0.083981	0.816489	0.464812
	N271	N	0.912212	0.813236	0.538844
	N272	N	0.180093	0.454536	0.915340
	N273	N	0.181376	0.524974	0.093146
	N274	N	0.816412	0.454619	0.092359
	N275	N	0.816368	0.526019	0.914751
	O276	O	0.421586	0.481940	0.591104
	H277	H	0.412654	0.464802	0.581457
	H278	H	0.417558	0.471285	0.592410
	O279	O	0.590009	0.352483	0.333692
	H280	H	0.606810	0.343905	0.324031
	H281	H	0.604040	0.353368	0.334724
	O282	O	0.842227	0.020949	1.176103
	H283	H	0.851925	0.028832	1.181469
	H284	H	0.837645	0.019784	1.170356
	O285	O	0.593028	0.375694	0.630820
	H286	H	0.588790	0.371767	0.629397
	H287	H	0.573472	0.380473	0.629451
	O288	O	1.024077	0.970423	1.107161
	H289	H	1.021352	0.968447	1.113151
	H290	H	1.027340	0.969850	1.112214
	O291	O	-0.048162	0.959670	-0.181755
	H292	H	-0.054510	0.950470	-0.179394
	H293	H	-0.051689	0.955182	-0.179882
	O294	O	0.561088	0.649504	0.566955
	H295	H	0.583415	0.638884	0.577726
	H296	H	0.551922	0.664687	0.571097
	O297	O	0.580440	0.569886	0.500306
	H298	H	0.573003	0.573015	0.507909
	H299	H	0.597107	0.567977	0.487486
	O300	O	0.363033	0.404156	0.472278
	H301	H	0.372436	0.395100	0.456638
	H302	H	0.334674	0.395789	0.470202
	O303	O	0.371287	0.441235	0.493788
	H304	H	0.375337	0.439766	0.504990
	H305	H	0.369211	0.450658	0.487304
	O306	O	0.670690	0.589672	0.519618
	H307	H	0.673429	0.585289	0.519340
	H308	H	0.658449	0.587760	0.543449
	O309	O	0.498814	0.511694	0.473943
	H310	H	0.508681	0.512115	0.472423
	H311	H	0.506014	0.518133	0.475647
	O312	O	0.174680	0.005946	0.065949
	H313	H	0.169396	-0.002724	0.073278
	H314	H	0.179515	0.015671	0.054658
	O315	O	0.672188	0.521519	0.503630
	H316	H	0.676061	0.523590	0.505824
	H317	H	0.671909	0.509351	0.493954
	O318	O	0.067701	0.899266	0.816666
	H319	H	0.050724	0.886424	0.825730
	H320	H	0.070524	0.887033	0.804098
	O321	O	0.332434	0.365608	0.486289
	H322	H	0.331544	0.375084	0.467163
	H323	H	0.335551	0.378533	0.477893
	O324	O	0.065047	1.095810	0.100684
	H325	H	0.071228	1.078631	0.094205
	H326	H	0.070788	1.105117	0.112329
	O327	O	0.431880	0.659667	0.476111
	H328	H	0.436264	0.667372	0.484969
	H329	H	0.416940	0.671664	0.479227
	O330	O	0.144028	-0.177022	0.873989
	H331	H	0.139981	-0.164037	0.866392
	H332	H	0.143590	-0.168077	0.873213
	O333	O	0.086048	0.129683	0.901650
	H334	H	0.069183	0.122854	0.901275
	H335	H	0.081429	0.135205	0.911151
	O336	O	0.502664	0.662719	0.445931
	H337	H	0.503419	0.674083	0.454423
	H338	H	0.513053	0.656099	0.444928
	O339	O	0.917337	-0.036002	-0.051319
	H340	H	0.901214	-0.041519	-0.043062
	H341	H	0.927915	-0.039005	-0.042096
	O342	O	-0.000042	-0.136749	0.144420
	H343	H	-0.014116	-0.131549	0.133164
	H344	H	0.018521	-0.145946	0.166892
	O345	O	0.801859	-0.040599	1.016674
	H346	H	0.786090	-0.028795	1.013728
	H347	H	0.812118	-0.016241	1.023232
	O348	O	0.845134	1.155870	-0.133134
	H349	H	0.844409	1.157360	-0.126147
	H350	H	0.829896	1.157669	-0.134454
	O351	O	0.378376	0.376927	0.562329
	H352	H	0.377185	0.361702	0.546092
	H353	H	0.368762	0.378607	0.567192
	O354	O	0.980347	0.146901	1.055297
	H355	H	0.981287	0.142267	1.049235
	H356	H	0.994795	0.161159	1.053022
	O357	O	0.444786	0.342185	0.549299
	H358	H	0.444160	0.336697	0.561580
	H359	H	0.430911	0.324378	0.551355
	O360	O	0.471516	0.586457	0.673624
	H361	H	0.467708	0.568398	0.683038
	H362	H	0.473066	0.585654	0.671030
	O363	O	-0.022954	1.138239	0.821701
	H364	H	-0.022306	1.153654	0.808809
	H365	H	-0.033270	1.116265	0.817915
	O366	O	0.539212	0.569291	0.601226
	H367	H	0.550040	0.568662	0.605647
	H368	H	0.538429	0.561863	0.588819
	O369	O	-0.028823	0.830271	-0.039289
	H370	H	-0.027512	0.835601	-0.053217
	H371	H	-0.013471	0.834476	-0.036569
	O372	O	0.490724	0.473497	0.417467
	H373	H	0.489734	0.458975	0.416676
	H374	H	0.487328	0.493439	0.420075
	O375	O	0.631662	0.363963	0.372173
	H376	H	0.632020	0.372564	0.389996
	H377	H	0.628622	0.375912	0.379529
	O378	O	0.864259	0.916600	0.054350
	H379	H	0.852493	0.902898	0.061399
	H380	H	0.867471	0.905516	0.074518
	O381	O	1.151137	0.001128	0.023597
	H382	H	1.149254	0.003723	0.035174
	H383	H	1.147058	-0.014554	0.022976
	O384	O	1.017418	0.968286	0.146397
	H385	H	1.008075	0.959555	0.148765
	H386	H	1.019030	0.967784	0.156220
	O387	O	-0.158026	0.161209	-0.005691
	H388	H	-0.163609	0.160461	-0.006808
	H389	H	-0.157084	0.149820	-0.012591
	O390	O	0.168836	1.021282	-0.148179
	H391	H	0.165367	1.024483	-0.152309
	H392	H	0.170827	1.019492	-0.156463
	O393	O	0.934575	0.935283	0.900313
	H394	H	0.950292	0.917943	0.908076
	H395	H	0.933852	0.953698	0.902057
	O396	O	0.526791	0.372547	0.627418
	H397	H	0.509303	0.375999	0.625792
	H398	H	0.525905	0.371472	0.639200
	O399	O	0.140151	0.814428	0.998131
	H400	H	0.145437	0.807405	0.980650
	H401	H	0.143472	0.812999	0.987831
	O402	O	0.389053	0.573552	0.356702
	H403	H	0.379989	0.589218	0.349802
	H404	H	0.385928	0.585881	0.356419
	O405	O	0.896304	0.791669	0.184932
	H406	H	0.905656	0.775313	0.190180
	H407	H	0.893620	0.806897	0.182841
	O408	O	0.866268	0.886926	-0.003998
	H409	H	0.855924	0.886200	0.016045
	H410	H	0.875390	0.880686	-0.021539
	O411	O	1.136305	0.105290	1.093219
	H412	H	1.143876	0.109103	1.073279
	H413	H	1.135473	0.109424	1.081517
	O414	O	0.674247	0.450999	0.553201
	H415	H	0.675290	0.446708	0.563712
	H416	H	0.667685	0.443716	0.553604
	O417	O	0.400793	0.599745	0.464693
	H418	H	0.393883	0.602265	0.467689
	H419	H	0.395065	0.572965	0.457536
