data_Molecule from HDF5

_cell_length_a		16.298490
_cell_length_b		16.255329
_cell_length_c		16.203558
_cell_angle_alpha	89.887508
_cell_angle_beta	90.034358
_cell_angle_gamma	90.068914
_symmetry_space_group_name_H-M	'P 1'
_symmetry_Int_Tables_number		1

loop_
	_symmetry_equiv_pos_as_xyz
	x,y,z

loop_
	_atom_site_label
	_atom_site_type_symbol
	_atom_site_fract_x
	_atom_site_fract_y
	_atom_site_fract_z
	H0	H	0.401137	0.833774	0.719051
	H1	H	0.596719	0.162019	0.721006
	H2	H	0.595834	0.834106	0.293406
	H3	H	0.400395	0.161665	0.292071
	H4	H	0.712167	0.399333	0.842503
	H5	H	0.710687	0.595411	0.170841
	H6	H	0.283558	0.596566	0.842566
	H7	H	0.282450	0.399118	0.170578
	H8	H	0.833956	0.714223	0.407507
	H9	H	0.160968	0.712384	0.604926
	H10	H	0.834159	0.283218	0.604871
	H11	H	0.162083	0.285671	0.408844
	H12	H	0.833443	0.401504	0.720037
	H13	H	0.160860	0.596864	0.720977
	H14	H	0.832937	0.595885	0.292322
	H15	H	0.161249	0.401748	0.293161
	H16	H	0.399474	0.711243	0.842065
	H17	H	0.595670	0.711648	0.170657
	H18	H	0.594863	0.284606	0.841805
	H19	H	0.399176	0.283978	0.171285
	H20	H	0.712919	0.835333	0.407244
	H21	H	0.712243	0.162398	0.605329
	H22	H	0.282767	0.835191	0.606095
	H23	H	0.284260	0.162332	0.407360
	H24	H	0.899876	0.333372	0.220039
	H25	H	0.094800	0.662799	0.219192
	H26	H	0.095212	0.334388	0.792417
	H27	H	0.899690	0.662770	0.792693
	H28	H	0.211272	0.901339	0.342244
	H29	H	0.211519	0.096780	0.671238
	H30	H	0.783247	0.098024	0.342170
	H31	H	0.782993	0.898462	0.670011
	H32	H	0.334226	0.212937	0.907749
	H33	H	0.660587	0.213556	0.105846
	H34	H	0.334232	0.783225	0.106029
	H35	H	0.661401	0.783732	0.908543
	H36	H	0.334252	0.899798	0.221164
	H37	H	0.661643	0.096802	0.220096
	H38	H	0.334021	0.096033	0.792459
	H39	H	0.661993	0.901780	0.794482
	H40	H	0.900298	0.212255	0.341637
	H41	H	0.093926	0.210690	0.671243
	H42	H	0.095610	0.785496	0.342200
	H43	H	0.900051	0.785412	0.671042
	H44	H	0.212226	0.334683	0.906758
	H45	H	0.212956	0.662038	0.105230
	H46	H	0.781793	0.334303	0.105844
	H47	H	0.784121	0.662798	0.908048
	H48	H	0.398083	0.119237	0.604601
	H49	H	0.592228	0.883341	0.592556
	H50	H	0.591198	0.114177	0.417762
	H51	H	0.405541	0.882057	0.415512
	H52	H	0.586930	0.407160	0.121743
	H53	H	0.586484	0.594063	0.889593
	H54	H	0.409623	0.597297	0.124765
	H55	H	0.410905	0.406017	0.891266
	H56	H	0.115095	0.596207	0.412196
	H57	H	0.875577	0.597441	0.610485
	H58	H	0.111212	0.415588	0.599435
	H59	H	0.879752	0.402017	0.410968
	H60	H	0.117951	0.400888	0.609286
	H61	H	0.882035	0.599378	0.587765
	H62	H	0.112876	0.592209	0.415433
	H63	H	0.880966	0.403507	0.416137
	H64	H	0.396561	0.589286	0.126211
	H65	H	0.594715	0.594206	0.886649
	H66	H	0.590210	0.401184	0.124694
	H67	H	0.402020	0.398235	0.886261
	H68	H	0.594513	0.117032	0.411365
	H69	H	0.596981	0.878458	0.603824
	H70	H	0.412043	0.114696	0.602955
	H71	H	0.401307	0.880098	0.415548
	H72	H	0.888256	0.619433	0.099038
	H73	H	0.099346	0.379874	0.097507
	H74	H	0.092234	0.616109	0.910858
	H75	H	0.904062	0.379306	0.906776
	H76	H	0.093861	0.906465	0.624932
	H77	H	0.090853	0.104290	0.385732
	H78	H	0.903772	0.100620	0.626632
	H79	H	0.913337	0.911849	0.393335
	H80	H	0.611908	0.083335	0.913261
	H81	H	0.383105	0.089497	0.094328
	H82	H	0.615546	0.898060	0.099055
	H83	H	0.381122	0.904201	0.913337
	H84	H	0.611342	0.908025	0.094255
	H85	H	0.380293	0.087630	0.103705
	H86	H	0.617451	0.096354	0.906452
	H87	H	0.379814	0.903780	0.911519
	H88	H	0.896284	0.085276	0.624249
	H89	H	0.102947	0.088039	0.387045
	H90	H	0.089195	0.905864	0.623720
	H91	H	0.906640	0.897514	0.386094
	H92	H	0.087723	0.614256	0.914126
	H93	H	0.087108	0.379992	0.107714
	H94	H	0.910833	0.617931	0.113802
	H95	H	0.910242	0.384207	0.917393
	H96	H	0.403073	0.113363	0.591400
	H97	H	0.584913	0.881956	0.603007
	H98	H	0.586992	0.115637	0.411047
	H99	H	0.403902	0.879970	0.411493
	H100	H	0.594135	0.408106	0.124603
	H101	H	0.590913	0.586864	0.889943
	H102	H	0.408916	0.583009	0.120457
	H103	H	0.398305	0.409749	0.889164
	H104	H	0.114319	0.591054	0.409741
	H105	H	0.884367	0.578790	0.598622
	H106	H	0.113453	0.398104	0.590644
	H107	H	0.881166	0.407722	0.411833
	H108	H	0.910815	0.609633	0.087073
	H109	H	0.084738	0.384831	0.092436
	H110	H	0.093166	0.614788	0.916572
	H111	H	0.897185	0.381120	0.917820
	H112	H	0.091861	0.901967	0.625146
	H113	H	0.083366	0.086569	0.392646
	H114	H	0.912794	0.087786	0.620715
	H115	H	0.897293	0.911650	0.388038
	H116	H	0.613675	0.096105	0.921114
	H117	H	0.379882	0.095949	0.099868
	H118	H	0.615227	0.907561	0.105369
	H119	H	0.380980	0.902280	0.913467
	C120	C	0.376374	0.007168	0.627949
	C121	C	0.619769	0.990012	0.628114
	C122	C	0.619326	0.007174	0.384976
	C123	C	0.375919	0.989489	0.385206
	C124	C	0.619006	0.376613	0.015176
	C125	C	0.619153	0.619969	0.997492
	C126	C	0.376325	0.618985	0.015259
	C127	C	0.375335	0.376124	0.997844
	C128	C	0.005592	0.620901	0.384093
	C129	C	0.988804	0.619959	0.627715
	C130	C	0.006021	0.376496	0.628318
	C131	C	0.989422	0.377084	0.385145
	C132	C	0.875379	0.506726	0.128171
	C133	C	0.118637	0.490013	0.127589
	C134	C	0.119275	0.506616	0.885130
	C135	C	0.875761	0.490194	0.885190
	C136	C	0.119625	0.876873	0.515615
	C137	C	0.119611	0.120204	0.497545
	C138	C	0.876066	0.119955	0.515004
	C139	C	0.876817	0.877810	0.497789
	C140	C	0.506068	0.120202	0.884780
	C141	C	0.489214	0.119701	0.128041
	C142	C	0.506202	0.875905	0.128455
	C143	C	0.489026	0.875600	0.884814
	C144	C	0.380310	0.883067	0.681962
	C145	C	0.617208	0.113139	0.683227
	C146	C	0.616465	0.883461	0.330700
	C147	C	0.379587	0.113026	0.330029
	C148	C	0.673812	0.379222	0.891215
	C149	C	0.673295	0.616407	0.121628
	C150	C	0.320919	0.617078	0.891583
	C151	C	0.320475	0.378837	0.121704
	C152	C	0.882551	0.676232	0.386261
	C153	C	0.112188	0.674690	0.625094
	C154	C	0.882714	0.321947	0.625069
	C155	C	0.112919	0.322791	0.388204
	C156	C	0.882408	0.380300	0.682470
	C157	C	0.112371	0.617168	0.682422
	C158	C	0.882038	0.617098	0.329778
	C159	C	0.112649	0.380585	0.330734
	C160	C	0.378592	0.673933	0.891279
	C161	C	0.616053	0.673974	0.121601
	C162	C	0.615709	0.322169	0.891107
	C163	C	0.378395	0.321715	0.122124
	C164	C	0.674303	0.883870	0.387517
	C165	C	0.674737	0.113157	0.625618
	C166	C	0.321543	0.883560	0.625748
	C167	C	0.321686	0.113100	0.387131
	C168	C	0.878872	0.382725	0.182766
	C169	C	0.115789	0.613712	0.182003
	C170	C	0.115830	0.383347	0.830260
	C171	C	0.878681	0.613717	0.830177
	C172	C	0.173745	0.880283	0.391491
	C173	C	0.173857	0.117373	0.621990
	C174	C	0.821295	0.118024	0.391117
	C175	C	0.820871	0.878936	0.621078
	C176	C	0.383064	0.174949	0.887239
	C177	C	0.611978	0.175641	0.125950
	C178	C	0.382918	0.820938	0.126376
	C179	C	0.612395	0.821292	0.887914
	C180	C	0.383010	0.878936	0.183514
	C181	C	0.612554	0.117109	0.182626
	C182	C	0.382920	0.116918	0.830046
	C183	C	0.612712	0.879752	0.831109
	C184	C	0.879565	0.174559	0.390794
	C185	C	0.115369	0.173784	0.622072
	C186	C	0.116365	0.822730	0.391438
	C187	C	0.878880	0.822346	0.621472
	C188	C	0.174018	0.383474	0.887052
	C189	C	0.174645	0.613192	0.125488
	C190	C	0.820509	0.382961	0.125756
	C191	C	0.821197	0.613703	0.887576
	C192	C	0.398132	0.093509	0.606124
	C193	C	0.597739	0.903397	0.606243
	C194	C	0.597228	0.093444	0.406905
	C195	C	0.397173	0.903073	0.407569
	C196	C	0.596890	0.398973	0.101417
	C197	C	0.597313	0.598057	0.910954
	C198	C	0.398578	0.596501	0.101578
	C199	C	0.397290	0.398030	0.911243
	C200	C	0.091754	0.599445	0.405964
	C201	C	0.902965	0.598229	0.605522
	C202	C	0.092024	0.398436	0.606361
	C203	C	0.902831	0.398077	0.406635
	C204	C	0.896824	0.593165	0.106387
	C205	C	0.096747	0.403864	0.105701
	C206	C	0.097459	0.592907	0.907447
	C207	C	0.897554	0.403877	0.907361
	C208	C	0.098047	0.898430	0.602224
	C209	C	0.098715	0.099052	0.410844
	C210	C	0.897981	0.097757	0.601550
	C211	C	0.899097	0.900421	0.411479
	C212	C	0.592295	0.098315	0.906965
	C213	C	0.403354	0.097503	0.105854
	C214	C	0.591750	0.897978	0.106180
	C215	C	0.402940	0.897052	0.906242
	Zn216	Zn	0.497885	-0.001830	0.756481
	Zn217	Zn	0.497935	-0.002228	0.256971
	Zn218	Zn	0.747154	0.498154	0.006271
	Zn219	Zn	0.247806	0.497984	0.006532
	Zn220	Zn	-0.002622	0.749235	0.506720
	Zn221	Zn	-0.002083	0.248185	0.506072
	Zn222	Zn	-0.002614	0.498973	0.756900
	Zn223	Zn	-0.002507	0.498123	0.256392
	Zn224	Zn	0.497185	0.747362	0.006493
	Zn225	Zn	0.497387	0.248608	0.006633
	Zn226	Zn	0.748087	-0.001410	0.505896
	Zn227	Zn	0.247718	-0.001443	0.506946
	N228	N	0.413688	0.960898	0.683510
	N229	N	0.583494	0.035429	0.684751
	N230	N	0.582904	0.961205	0.329059
	N231	N	0.412634	0.035159	0.328833
	N232	N	0.675851	0.412388	0.969265
	N233	N	0.675087	0.583499	0.043500
	N234	N	0.319599	0.583312	0.969493
	N235	N	0.318743	0.412103	0.043567
	N236	N	0.960218	0.678458	0.419572
	N237	N	0.034463	0.676479	0.591767
	N238	N	0.960528	0.319396	0.592471
	N239	N	0.035152	0.320798	0.421298
	N240	N	0.960164	0.413555	0.684549
	N241	N	0.034681	0.583881	0.684324
	N242	N	0.959589	0.583505	0.328245
	N243	N	0.034872	0.413388	0.328777
	N244	N	0.412316	0.675218	0.969232
	N245	N	0.582933	0.676206	0.043441
	N246	N	0.582409	0.320485	0.969014
	N247	N	0.411820	0.320050	0.044106
	N248	N	0.676177	0.961800	0.420390
	N249	N	0.676088	0.035489	0.592017
	N250	N	0.319109	0.961576	0.592877
	N251	N	0.319447	0.035201	0.420815
	N252	N	0.912351	0.460670	0.184335
	N253	N	0.081851	0.536151	0.183487
	N254	N	0.082483	0.461193	0.828863
	N255	N	0.911828	0.535991	0.828576
	N256	N	0.176152	0.912882	0.469711
	N257	N	0.176446	0.084683	0.543666
	N258	N	0.819143	0.084780	0.469250
	N259	N	0.819601	0.912791	0.543112
	N260	N	0.460602	0.176834	0.920663
	N261	N	0.534259	0.177470	0.092767
	N262	N	0.460412	0.818795	0.092816
	N263	N	0.534537	0.818865	0.920878
	N264	N	0.460514	0.912402	0.185104
	N265	N	0.535353	0.082832	0.183981
	N266	N	0.460574	0.083570	0.828411
	N267	N	0.535125	0.912882	0.829103
	N268	N	0.912975	0.175878	0.468833
	N269	N	0.082364	0.175695	0.543822
	N270	N	0.083098	0.820846	0.469613
	N271	N	0.913218	0.821750	0.543920
	N272	N	0.176075	0.461133	0.920428
	N273	N	0.176543	0.535347	0.092358
	N274	N	0.818165	0.460867	0.092671
	N275	N	0.819375	0.535736	0.921055
	O276	O	0.942541	0.051997	1.042684
	H277	H	0.938465	0.054999	1.043931
	H278	H	0.941739	0.055351	1.045829
	O279	O	0.959698	0.034381	0.010936
	H280	H	0.951411	0.036394	0.007473
	H281	H	0.958809	0.027348	0.011441
	O282	O	1.004574	1.062855	0.040823
	H283	H	1.013076	1.066931	0.044631
	H284	H	0.997902	1.064873	0.038784
	O285	O	-0.032102	1.053963	0.066267
	H286	H	-0.033500	1.054156	0.069441
	H287	H	-0.024076	1.051696	0.067817
