data_Molecule from HDF5

_cell_length_a		16.329309
_cell_length_b		16.645051
_cell_length_c		16.285249
_cell_angle_alpha	90.052279
_cell_angle_beta	90.006214
_cell_angle_gamma	90.071961
_symmetry_space_group_name_H-M	'P 1'
_symmetry_Int_Tables_number		1

loop_
	_symmetry_equiv_pos_as_xyz
	x,y,z

loop_
	_atom_site_label
	_atom_site_type_symbol
	_atom_site_fract_x
	_atom_site_fract_y
	_atom_site_fract_z
	H0	H	0.396974	0.845067	0.723230
	H1	H	0.610717	0.157447	0.722799
	H2	H	0.609767	0.844705	0.278171
	H3	H	0.397522	0.156856	0.276091
	H4	H	0.728450	0.395549	0.840196
	H5	H	0.723726	0.602100	0.160827
	H6	H	0.285630	0.606817	0.840793
	H7	H	0.288427	0.397944	0.159806
	H8	H	0.848841	0.724590	0.388138
	H9	H	0.162035	0.726681	0.610352
	H10	H	0.847679	0.278612	0.610452
	H11	H	0.161764	0.277474	0.393325
	H12	H	0.846104	0.398102	0.720652
	H13	H	0.165075	0.606314	0.720336
	H14	H	0.845828	0.602444	0.281034
	H15	H	0.165722	0.397270	0.282646
	H16	H	0.395088	0.726484	0.843061
	H17	H	0.616106	0.723954	0.156845
	H18	H	0.619206	0.275881	0.842060
	H19	H	0.399326	0.277361	0.156331
	H20	H	0.727245	0.845342	0.393878
	H21	H	0.729320	0.156212	0.607588
	H22	H	0.280453	0.844587	0.606256
	H23	H	0.283112	0.157716	0.395814
	H24	H	0.900424	0.343775	0.222740
	H25	H	0.112398	0.657999	0.223523
	H26	H	0.115190	0.346101	0.775014
	H27	H	0.898392	0.656009	0.776660
	H28	H	0.222535	0.898628	0.338371
	H29	H	0.223148	0.103171	0.660513
	H30	H	0.783575	0.106148	0.339881
	H31	H	0.783762	0.895328	0.658641
	H32	H	0.351663	0.227530	0.885913
	H33	H	0.663905	0.224108	0.110534
	H34	H	0.349813	0.774350	0.110366
	H35	H	0.664531	0.779517	0.891742
	H36	H	0.345349	0.896395	0.218282
	H37	H	0.664790	0.105692	0.222332
	H38	H	0.346010	0.104863	0.779762
	H39	H	0.665160	0.897341	0.778551
	H40	H	0.893681	0.226331	0.342918
	H41	H	0.113846	0.224055	0.658200
	H42	H	0.113782	0.777726	0.341089
	H43	H	0.893082	0.775770	0.655747
	H44	H	0.232977	0.346707	0.890616
	H45	H	0.231432	0.657683	0.108488
	H46	H	0.781296	0.345285	0.109372
	H47	H	0.781097	0.655847	0.891910
	H48	H	0.415699	0.111798	0.587532
	H49	H	0.599191	0.887935	0.587508
	H50	H	0.598526	0.114460	0.414251
	H51	H	0.411988	0.888163	0.410147
	H52	H	0.597216	0.409717	0.114841
	H53	H	0.600850	0.586429	0.883872
	H54	H	0.422054	0.592614	0.113648
	H55	H	0.422232	0.413671	0.886717
	H56	H	0.117400	0.588105	0.417641
	H57	H	0.891572	0.591593	0.585841
	H58	H	0.117399	0.412769	0.583526
	H59	H	0.892717	0.411740	0.417565
	H60	H	0.119457	0.413884	0.589162
	H61	H	0.892557	0.588042	0.586523
	H62	H	0.120707	0.588583	0.409571
	H63	H	0.890955	0.415374	0.408832
	H64	H	0.419187	0.588586	0.113308
	H65	H	0.586640	0.585751	0.888717
	H66	H	0.591946	0.415505	0.112209
	H67	H	0.422039	0.411381	0.885054
	H68	H	0.591520	0.113818	0.405819
	H69	H	0.589366	0.889682	0.593146
	H70	H	0.413797	0.112974	0.588026
	H71	H	0.412987	0.888133	0.407233
	H72	H	0.911940	0.613401	0.087969
	H73	H	0.092985	0.393211	0.084446
	H74	H	0.099267	0.614026	0.911255
	H75	H	0.923839	0.392702	0.913696
	H76	H	0.092504	0.911557	0.613903
	H77	H	0.091014	0.087063	0.386807
	H78	H	0.909495	0.086880	0.615733
	H79	H	0.912697	0.908148	0.382243
	H80	H	0.620802	0.083297	0.906561
	H81	H	0.394841	0.087819	0.081921
	H82	H	0.621629	0.903819	0.084808
	H83	H	0.391616	0.916304	0.906375
	H84	H	0.615406	0.917143	0.082423
	H85	H	0.392652	0.088073	0.088766
	H86	H	0.622358	0.096129	0.913108
	H87	H	0.390401	0.902824	0.912770
	H88	H	0.923309	0.085049	0.609884
	H89	H	0.087605	0.091752	0.385876
	H90	H	0.089950	0.913803	0.612594
	H91	H	0.916611	0.919945	0.387468
	H92	H	0.092501	0.612259	0.909436
	H93	H	0.104450	0.387656	0.088168
	H94	H	0.918999	0.613392	0.094777
	H95	H	0.914931	0.390148	0.917449
	H96	H	0.415153	0.112142	0.589890
	H97	H	0.590394	0.892496	0.582750
	H98	H	0.588521	0.109470	0.415712
	H99	H	0.414847	0.888838	0.409799
	H100	H	0.589653	0.408398	0.113323
	H101	H	0.592605	0.598496	0.883571
	H102	H	0.424023	0.588172	0.112301
	H103	H	0.420093	0.412883	0.885487
	H104	H	0.120147	0.595513	0.415186
	H105	H	0.891874	0.590023	0.589429
	H106	H	0.121164	0.408302	0.586543
	H107	H	0.887714	0.406769	0.410652
	H108	H	0.920668	0.609051	0.085370
	H109	H	0.094785	0.388146	0.096835
	H110	H	0.094934	0.610498	0.915751
	H111	H	0.917235	0.388001	0.908029
	H112	H	0.089087	0.910438	0.613311
	H113	H	0.093852	0.092081	0.385520
	H114	H	0.919504	0.098191	0.615506
	H115	H	0.925272	0.909507	0.386943
	H116	H	0.615578	0.085265	0.919665
	H117	H	0.391203	0.093989	0.084587
	H118	H	0.621536	0.913976	0.095995
	H119	H	0.395891	0.914007	0.920897
	C120	C	0.381976	0.009148	0.621719
	C121	C	0.626519	0.992673	0.621824
	C122	C	0.625544	0.009499	0.378687
	C123	C	0.381397	0.991976	0.377200
	C124	C	0.627735	0.378731	0.008448
	C125	C	0.627146	0.621817	0.990612
	C126	C	0.386477	0.622969	0.008690
	C127	C	0.387349	0.379898	0.990613
	C128	C	0.014289	0.621980	0.380307
	C129	C	0.996496	0.623171	0.621133
	C130	C	0.014497	0.379622	0.621051
	C131	C	0.995607	0.378923	0.379401
	C132	C	0.884433	0.508520	0.122158
	C133	C	0.129741	0.492992	0.123236
	C134	C	0.129567	0.509902	0.878033
	C135	C	0.884534	0.492636	0.879270
	C136	C	0.124594	0.879734	0.508108
	C137	C	0.124616	0.122078	0.491442
	C138	C	0.883418	0.122826	0.508941
	C139	C	0.884105	0.879502	0.490396
	C140	C	0.515456	0.121868	0.878496
	C141	C	0.497599	0.122100	0.120108
	C142	C	0.514488	0.879026	0.120908
	C143	C	0.497158	0.879126	0.879101
	C144	C	0.379060	0.891985	0.682898
	C145	C	0.628934	0.110279	0.682791
	C146	C	0.627886	0.891543	0.318385
	C147	C	0.379287	0.109946	0.316930
	C148	C	0.689183	0.376809	0.888643
	C149	C	0.686067	0.622303	0.111500
	C150	C	0.325002	0.625145	0.888816
	C151	C	0.327430	0.378418	0.111094
	C152	C	0.895636	0.682969	0.373530
	C153	C	0.114946	0.685215	0.626378
	C154	C	0.894964	0.319428	0.626287
	C155	C	0.114772	0.317958	0.375672
	C156	C	0.894490	0.378721	0.681735
	C157	C	0.116595	0.625306	0.681573
	C158	C	0.894159	0.622270	0.319861
	C159	C	0.116447	0.377708	0.320633
	C160	C	0.379580	0.684871	0.890156
	C161	C	0.632200	0.682870	0.109784
	C162	C	0.634388	0.317255	0.889355
	C163	C	0.382486	0.318244	0.109343
	C164	C	0.686708	0.892034	0.375667
	C165	C	0.687951	0.109775	0.625348
	C166	C	0.320907	0.891727	0.624381
	C167	C	0.322287	0.110468	0.376308
	C168	C	0.881932	0.391109	0.182898
	C169	C	0.131271	0.610825	0.183885
	C170	C	0.133152	0.393006	0.815870
	C171	C	0.880902	0.609409	0.817632
	C172	C	0.184313	0.878860	0.387270
	C173	C	0.184259	0.122833	0.612059
	C174	C	0.822725	0.124784	0.388463
	C175	C	0.823045	0.877035	0.610268
	C176	C	0.397910	0.185138	0.871446
	C177	C	0.616403	0.183356	0.126476
	C178	C	0.396292	0.816788	0.125936
	C179	C	0.616879	0.819143	0.874450
	C180	C	0.393960	0.877591	0.179815
	C181	C	0.616799	0.124166	0.182221
	C182	C	0.395107	0.124244	0.818227
	C183	C	0.616893	0.877767	0.818064
	C184	C	0.877858	0.184683	0.389915
	C185	C	0.129372	0.182706	0.610995
	C186	C	0.129712	0.818805	0.388628
	C187	C	0.877545	0.817206	0.608755
	C188	C	0.192168	0.393421	0.873411
	C189	C	0.190478	0.610733	0.126247
	C190	C	0.822493	0.391829	0.126345
	C191	C	0.822125	0.609066	0.874943
	C192	C	0.407644	0.091111	0.595916
	C193	C	0.600413	0.911192	0.595550
	C194	C	0.600132	0.091171	0.404442
	C195	C	0.406114	0.909820	0.402008
	C196	C	0.600504	0.403837	0.091677
	C197	C	0.600750	0.597259	0.906956
	C198	C	0.413961	0.597145	0.091559
	C199	C	0.413809	0.405306	0.907465
	C200	C	0.097553	0.597725	0.406682
	C201	C	0.913736	0.597385	0.594730
	C202	C	0.097579	0.404444	0.594273
	C203	C	0.912273	0.404056	0.405083
	C204	C	0.909930	0.590516	0.096543
	C205	C	0.104729	0.411010	0.097229
	C206	C	0.103041	0.591231	0.904572
	C207	C	0.911016	0.411336	0.905550
	C208	C	0.098070	0.904532	0.591499
	C209	C	0.098294	0.097442	0.407800
	C210	C	0.909913	0.097617	0.592110
	C211	C	0.910719	0.905137	0.407351
	C212	C	0.598029	0.095647	0.905531
	C213	C	0.414636	0.096956	0.092757
	C214	C	0.597767	0.904378	0.095284
	C215	C	0.414121	0.903775	0.905740
	Zn216	Zn	0.504628	0.000857	0.751530
	Zn217	Zn	0.504492	0.001031	0.248529
	Zn218	Zn	0.754545	0.500420	0.000636
	Zn219	Zn	0.259320	0.501960	0.000179
	Zn220	Zn	0.004506	0.751429	0.499505
	Zn221	Zn	0.004632	0.250917	0.500767
	Zn222	Zn	0.006108	0.501234	0.748882
	Zn223	Zn	0.006129	0.501006	0.251993
	Zn224	Zn	0.506679	0.750644	-0.000334
	Zn225	Zn	0.507765	0.250451	-0.001643
	Zn226	Zn	0.756298	0.001000	0.499562
	Zn227	Zn	0.252067	0.000868	0.499847
	N228	N	0.416396	0.966036	0.681179
	N229	N	0.591571	0.036281	0.680746
	N230	N	0.590813	0.965545	0.319936
	N231	N	0.415312	0.035368	0.317361
	N232	N	0.685079	0.414346	0.963647
	N233	N	0.682948	0.584983	0.036207
	N234	N	0.329158	0.587385	0.963772
	N235	N	0.330199	0.415906	0.036102
	N236	N	0.971346	0.682939	0.410350
	N237	N	0.039208	0.684216	0.589630
	N238	N	0.970638	0.319722	0.589420
	N239	N	0.038500	0.318318	0.411211
	N240	N	0.969939	0.415244	0.678937
	N241	N	0.041894	0.587385	0.678514
	N242	N	0.969071	0.584899	0.323852
	N243	N	0.041383	0.414810	0.322591
	N244	N	0.416902	0.683806	0.965769
	N245	N	0.596413	0.682996	0.033397
	N246	N	0.596841	0.318274	0.964961
	N247	N	0.418821	0.318939	0.033272
	N248	N	0.685369	0.966342	0.412562
	N249	N	0.686647	0.035639	0.588227
	N250	N	0.322504	0.965777	0.587293
	N251	N	0.323161	0.036085	0.412797
	N252	N	0.920341	0.464690	0.180034
	N253	N	0.094426	0.536516	0.182187
	N254	N	0.094929	0.466522	0.818553
	N255	N	0.919127	0.535910	0.820132
	N256	N	0.181391	0.915935	0.462685
	N257	N	0.181294	0.085824	0.536789
	N258	N	0.826162	0.086953	0.463483
	N259	N	0.826814	0.915140	0.535595
	N260	N	0.473752	0.183823	0.908188
	N261	N	0.541205	0.182312	0.088424
	N262	N	0.472232	0.817668	0.089860
	N263	N	0.541274	0.819665	0.911548
	N264	N	0.468560	0.915976	0.176574
	N265	N	0.541678	0.087035	0.178583
	N266	N	0.469258	0.085575	0.822460
	N267	N	0.541456	0.914213	0.820695
	N268	N	0.914673	0.183812	0.465745
	N269	N	0.092928	0.182376	0.534783
	N270	N	0.093483	0.819022	0.464864
	N271	N	0.914801	0.818500	0.533250
	N272	N	0.189933	0.467121	0.911355
	N273	N	0.189911	0.536407	0.089329
	N274	N	0.823981	0.465936	0.089224
	N275	N	0.824229	0.535324	0.912526
	O276	O	0.474884	0.509055	0.412134
	H277	H	0.489260	0.500777	0.398719
	H278	H	0.474814	0.521908	0.411774
	O279	O	1.226702	0.223785	1.020523
	H280	H	1.251934	0.245633	1.033678
	H281	H	1.223735	0.223430	1.045367
	O282	O	0.607088	0.310923	0.305504
	H283	H	0.623920	0.297183	0.317481
	H284	H	0.631892	0.344606	0.305016
	O285	O	0.491014	0.712278	0.602471
	H286	H	0.478519	0.713998	0.607067
	H287	H	0.471348	0.713497	0.602888
	O288	O	0.807422	1.021378	-0.192209
	H289	H	0.814403	1.014904	-0.208817
	H290	H	0.816822	1.006878	-0.184982
	O291	O	0.591957	0.703607	0.703371
	H292	H	0.581194	0.715464	0.702554
	H293	H	0.606197	0.694415	0.714289
	O294	O	-0.019741	0.216994	0.789362
	H295	H	-0.017593	0.247513	0.769930
	H296	H	0.004415	0.223633	0.814506
	O297	O	0.364432	0.299213	0.360284
	H298	H	0.395236	0.303389	0.375243
	H299	H	0.376415	0.310747	0.359271
	O300	O	0.475500	0.537101	0.476352
	H301	H	0.488694	0.541823	0.478297
	H302	H	0.472755	0.531147	0.489179
	O303	O	0.585548	0.434084	0.436861
	H304	H	0.596088	0.441361	0.456011
	H305	H	0.585404	0.428763	0.437283
	O306	O	0.321895	0.689073	0.312657
	H307	H	0.358768	0.702583	0.297417
	H308	H	0.312461	0.665682	0.332730
	O309	O	0.667700	0.530566	0.436650
	H310	H	0.670002	0.550716	0.453961
	H311	H	0.656203	0.521713	0.426564
	O312	O	-0.185011	0.811555	1.187629
	H313	H	-0.174467	0.801139	1.163434
	H314	H	-0.160625	0.829677	1.182535
	O315	O	0.054995	0.799620	0.791690
	H316	H	0.026124	0.809865	0.805907
	H317	H	0.054037	0.780592	0.761033
	O318	O	1.130501	-0.090995	0.111532
	H319	H	1.143556	-0.087382	0.120823
	H320	H	1.116627	-0.084746	0.104931
	O321	O	0.039830	-0.219163	0.034133
	H322	H	0.048750	-0.206570	0.035114
	H323	H	0.055532	-0.221717	0.005803
	O324	O	0.686980	0.424859	0.330939
	H325	H	0.696071	0.448683	0.317540
	H326	H	0.682588	0.426941	0.363676
	O327	O	0.323256	0.314252	0.686145
	H328	H	0.313242	0.303428	0.634621
	H329	H	0.319761	0.359042	0.693663
	O330	O	-0.185875	1.186757	-0.184573
	H331	H	-0.162715	1.166506	-0.194868
	H332	H	-0.167583	1.165226	-0.185765
	O333	O	0.297094	0.530633	0.288544
	H334	H	0.315619	0.543801	0.292145
	H335	H	0.270011	0.523757	0.263829
	O336	O	0.028328	0.213281	0.208205
	H337	H	0.016519	0.222532	0.229370
	H338	H	0.020220	0.214849	0.205846
	O339	O	-0.077494	0.823504	1.020356
	H340	H	-0.091004	0.826003	1.022911
	H341	H	-0.072918	0.820148	1.026723
	O342	O	0.086151	0.806727	0.829753
	H343	H	0.058597	0.799463	0.833662
	H344	H	0.079821	0.829222	0.828866
	O345	O	0.974902	0.847077	0.209574
	H346	H	0.989052	0.850463	0.197651
	H347	H	0.987309	0.821279	0.220425
	O348	O	0.385970	0.627798	0.594451
	H349	H	0.385291	0.624226	0.600053
	H350	H	0.371665	0.627267	0.582908
	O351	O	-0.041669	0.970409	0.788376
	H352	H	-0.023024	0.968347	0.790304
	H353	H	-0.029072	0.976039	0.796091
	O354	O	-0.197800	1.212191	-0.020401
	H355	H	-0.216156	1.226980	-0.025965
	H356	H	-0.196524	1.211790	-0.056241
	O357	O	-0.102188	0.067737	1.132499
	H358	H	-0.096194	0.054383	1.122035
	H359	H	-0.104936	0.062299	1.133668
	O360	O	0.495411	0.299858	0.710673
	H361	H	0.475174	0.279720	0.728009
	H362	H	0.477717	0.291062	0.701195
	O363	O	0.217121	-0.211186	0.985061
	H364	H	0.226416	-0.211995	0.960543
	H365	H	0.233502	-0.213287	0.973829
	O366	O	0.571876	0.421741	0.460240
	H367	H	0.575028	0.413599	0.462124
	H368	H	0.576015	0.419011	0.464212
	O369	O	0.295408	0.634428	0.496054
	H370	H	0.301365	0.630374	0.503972
	H371	H	0.279815	0.645771	0.494864
	O372	O	0.792652	-0.118692	1.109945
	H373	H	0.773367	-0.112394	1.118139
	H374	H	0.784038	-0.120901	1.104837
	O375	O	0.314413	0.336788	0.560621
	H376	H	0.307988	0.327099	0.549841
	H377	H	0.325497	0.337963	0.541465
	O378	O	0.443250	0.543478	0.673178
	H379	H	0.451001	0.555979	0.669809
	H380	H	0.448110	0.556601	0.661428
	O381	O	0.459634	0.281545	0.386603
	H382	H	0.492354	0.287290	0.385710
	H383	H	0.470494	0.260960	0.365393
	O384	O	0.612409	0.335884	0.590784
	H385	H	0.611460	0.336096	0.601414
	H386	H	0.609227	0.341388	0.610735
	O387	O	0.196944	0.099691	0.913378
	H388	H	0.203574	0.125485	0.915818
	H389	H	0.200599	0.091096	0.925195
	O390	O	0.194146	0.190943	0.183255
	H391	H	0.170713	0.182641	0.195529
	H392	H	0.193156	0.204929	0.192543
	O393	O	1.084156	1.006669	1.113133
	H394	H	1.096493	0.998563	1.112549
	H395	H	1.063662	1.007562	1.106790
	O396	O	1.188043	-0.041796	-0.134718
	H397	H	1.191915	-0.035158	-0.143531
	H398	H	1.196046	-0.018743	-0.120503
	O399	O	0.978825	0.044147	0.946017
	H400	H	0.966138	0.070980	0.954757
	H401	H	0.974346	0.064976	0.952571
	O402	O	0.959499	0.964758	1.112903
	H403	H	0.972031	0.963374	1.117026
	H404	H	0.950259	0.955044	1.109475
	O405	O	0.886605	1.051330	0.042397
	H406	H	0.881721	1.052499	0.044809
	H407	H	0.885092	1.063220	0.026007
	O408	O	0.849080	-0.115505	-0.064604
	H409	H	0.847465	-0.114300	-0.066550
	H410	H	0.840947	-0.104444	-0.067521
	O411	O	1.064691	1.212994	-0.058045
	H412	H	1.072797	1.212923	-0.048002
	H413	H	1.065490	1.213642	-0.033977
	O414	O	0.544888	0.538295	0.370242
	H415	H	0.537761	0.539312	0.376348
	H416	H	0.531950	0.530053	0.361620
	O417	O	0.677639	0.619367	0.671791
	H418	H	0.668302	0.602133	0.675686
	H419	H	0.678734	0.611551	0.664165
	O420	O	-0.088081	0.170327	0.036990
	H421	H	-0.093871	0.170888	0.051894
	H422	H	-0.104953	0.160843	0.042720
	O423	O	0.565416	0.448017	0.697689
	H424	H	0.544055	0.434104	0.696681
	H425	H	0.545491	0.438145	0.704960
	O426	O	0.711012	0.285492	0.478665
	H427	H	0.711226	0.302959	0.503344
	H428	H	0.731945	0.257638	0.486778
	O429	O	0.508662	0.701869	0.392064
	H430	H	0.497439	0.695220	0.385177
	H431	H	0.521050	0.713642	0.368522
	O432	O	0.710685	0.710112	0.510358
	H433	H	0.708079	0.721116	0.510847
	H434	H	0.720269	0.717254	0.524007
	O435	O	0.325927	0.498112	0.707614
	H436	H	0.345819	0.512750	0.706602
	H437	H	0.310299	0.503416	0.733211
	O438	O	0.063928	-0.038840	-0.029090
	H439	H	0.076450	-0.042725	-0.029014
	H440	H	0.062640	-0.041695	-0.018570
	O441	O	1.215486	0.027124	0.205074
	H442	H	1.221076	0.042323	0.201901
	H443	H	1.232482	0.023788	0.220597
	O444	O	0.036021	0.966037	0.901476
	H445	H	0.038512	0.962633	0.909612
	H446	H	0.045054	0.978528	0.910940
	O447	O	0.669459	0.541074	0.542521
	H448	H	0.652325	0.536118	0.569589
	H449	H	0.678800	0.554505	0.546910
	O450	O	0.490719	0.706142	0.297570
	H451	H	0.507726	0.717328	0.294701
	H452	H	0.492173	0.704925	0.297847
	O453	O	0.321784	0.491498	0.454576
	H454	H	0.323793	0.490905	0.444923
	H455	H	0.314428	0.514514	0.456695
