data_Molecule from HDF5

_cell_length_a		16.244392
_cell_length_b		16.061315
_cell_length_c		16.253340
_cell_angle_alpha	90.041541
_cell_angle_beta	89.339422
_cell_angle_gamma	90.439821
_symmetry_space_group_name_H-M	'P 1'
_symmetry_Int_Tables_number		1

loop_
	_symmetry_equiv_pos_as_xyz
	x,y,z

loop_
	_atom_site_label
	_atom_site_type_symbol
	_atom_site_fract_x
	_atom_site_fract_y
	_atom_site_fract_z
	H0	H	0.382423	0.831469	0.709245
	H1	H	0.584127	0.162851	0.707660
	H2	H	0.585566	0.832575	0.278906
	H3	H	0.384679	0.160639	0.277890
	H4	H	0.707077	0.396909	0.830655
	H5	H	0.702997	0.601511	0.155768
	H6	H	0.275824	0.596561	0.828739
	H7	H	0.267010	0.394283	0.155400
	H8	H	0.822099	0.709312	0.395697
	H9	H	0.149905	0.716134	0.588637
	H10	H	0.821743	0.284636	0.592030
	H11	H	0.151584	0.284630	0.391856
	H12	H	0.824936	0.395375	0.712681
	H13	H	0.152738	0.599866	0.703752
	H14	H	0.825861	0.602236	0.276496
	H15	H	0.151244	0.399878	0.276115
	H16	H	0.395678	0.708532	0.827632
	H17	H	0.587848	0.713288	0.156145
	H18	H	0.586775	0.284835	0.828410
	H19	H	0.386085	0.283439	0.157546
	H20	H	0.699819	0.833298	0.390447
	H21	H	0.699901	0.162662	0.592706
	H22	H	0.266076	0.833177	0.595836
	H23	H	0.275589	0.163800	0.397687
	H24	H	0.887524	0.333669	0.208604
	H25	H	0.087940	0.664304	0.204508
	H26	H	0.088852	0.332757	0.776603
	H27	H	0.893483	0.663491	0.780483
	H28	H	0.204771	0.897278	0.331249
	H29	H	0.197551	0.099912	0.657090
	H30	H	0.772799	0.097310	0.328768
	H31	H	0.764709	0.894563	0.654681
	H32	H	0.322140	0.209632	0.897571
	H33	H	0.651046	0.213415	0.092296
	H34	H	0.323365	0.780149	0.092155
	H35	H	0.653983	0.790000	0.896121
	H36	H	0.323370	0.892903	0.211969
	H37	H	0.649974	0.098096	0.209233
	H38	H	0.321214	0.093646	0.784267
	H39	H	0.648584	0.897024	0.773637
	H40	H	0.891409	0.210508	0.327829
	H41	H	0.080740	0.212012	0.657398
	H42	H	0.082340	0.788401	0.327013
	H43	H	0.883457	0.782560	0.655822
	H44	H	0.200180	0.331251	0.893392
	H45	H	0.201169	0.663364	0.087999
	H46	H	0.770212	0.334124	0.095652
	H47	H	0.778364	0.664407	0.895615
	H48	H	0.387301	0.120181	0.598111
	H49	H	0.578119	0.877350	0.585030
	H50	H	0.573987	0.114558	0.402450
	H51	H	0.385719	0.878664	0.409509
	H52	H	0.577805	0.398935	0.112369
	H53	H	0.585679	0.596639	0.873277
	H54	H	0.393823	0.584902	0.108413
	H55	H	0.396983	0.406630	0.877497
	H56	H	0.103172	0.592613	0.405406
	H57	H	0.872382	0.584752	0.585831
	H58	H	0.104632	0.413490	0.592599
	H59	H	0.871544	0.405548	0.405588
	H60	H	0.108269	0.394358	0.587253
	H61	H	0.869968	0.586458	0.593683
	H62	H	0.104817	0.586823	0.394128
	H63	H	0.871990	0.409162	0.398720
	H64	H	0.396610	0.589491	0.109289
	H65	H	0.590044	0.589457	0.874127
	H66	H	0.587360	0.409474	0.111419
	H67	H	0.396469	0.400233	0.874590
	H68	H	0.582259	0.116427	0.405264
	H69	H	0.571193	0.879376	0.587873
	H70	H	0.399385	0.113734	0.590559
	H71	H	0.393167	0.876299	0.396535
	H72	H	0.888383	0.619587	0.088043
	H73	H	0.077385	0.380138	0.084320
	H74	H	0.088508	0.620211	0.891706
	H75	H	0.897319	0.380029	0.901098
	H76	H	0.077137	0.905802	0.611449
	H77	H	0.081503	0.093446	0.374872
	H78	H	0.888326	0.090252	0.610643
	H79	H	0.897164	0.911030	0.378397
	H80	H	0.602398	0.086850	0.897658
	H81	H	0.368325	0.092370	0.088898
	H82	H	0.605137	0.909370	0.093605
	H83	H	0.370579	0.898602	0.908960
	H84	H	0.606198	0.899833	0.085816
	H85	H	0.371751	0.085840	0.083687
	H86	H	0.605045	0.092520	0.896605
	H87	H	0.369814	0.907831	0.900623
	H88	H	0.890531	0.087425	0.608939
	H89	H	0.085255	0.089157	0.375422
	H90	H	0.075206	0.910492	0.608168
	H91	H	0.895479	0.896552	0.373264
	H92	H	0.076615	0.615163	0.897910
	H93	H	0.079081	0.378423	0.085908
	H94	H	0.902222	0.618123	0.092731
	H95	H	0.898087	0.381138	0.903914
	H96	H	0.386445	0.115460	0.582895
	H97	H	0.573207	0.880733	0.580512
	H98	H	0.579406	0.118543	0.396596
	H99	H	0.401414	0.882401	0.408858
	H100	H	0.573931	0.411960	0.107002
	H101	H	0.581489	0.588774	0.877345
	H102	H	0.391539	0.589218	0.110407
	H103	H	0.391010	0.403692	0.874961
	H104	H	0.107424	0.598344	0.396016
	H105	H	0.868884	0.592269	0.587363
	H106	H	0.101621	0.407994	0.574055
	H107	H	0.868358	0.402097	0.399870
	H108	H	0.898656	0.614425	0.078886
	H109	H	0.077310	0.379821	0.085976
	H110	H	0.087749	0.615899	0.905094
	H111	H	0.895409	0.379586	0.903609
	H112	H	0.071911	0.905721	0.609007
	H113	H	0.079450	0.089213	0.376746
	H114	H	0.891322	0.091485	0.610236
	H115	H	0.882954	0.906145	0.372290
	H116	H	0.602400	0.089847	0.902611
	H117	H	0.369729	0.083744	0.092110
	H118	H	0.600422	0.910261	0.082196
	H119	H	0.367204	0.896124	0.898561
	C120	C	0.360958	0.006912	0.618732
	C121	C	0.604391	0.988752	0.613656
	C122	C	0.607237	0.007254	0.371895
	C123	C	0.364879	0.988113	0.375059
	C124	C	0.609816	0.376527	0.002168
	C125	C	0.611983	0.620282	0.983833
	C126	C	0.367454	0.617452	0.001111
	C127	C	0.364455	0.374349	0.983981
	C128	C	-0.003466	0.620419	0.370831
	C129	C	0.978540	0.619655	0.615402
	C130	C	-0.003707	0.375708	0.614987
	C131	C	0.978741	0.376835	0.371148
	C132	C	0.866366	0.507976	0.116076
	C133	C	0.107867	0.489191	0.113203
	C134	C	0.111617	0.507060	0.869849
	C135	C	0.869091	0.489610	0.873990
	C136	C	0.105727	0.877783	0.501597
	C137	C	0.108422	0.119957	0.484324
	C138	C	0.863373	0.118921	0.501335
	C139	C	0.861526	0.874723	0.482916
	C140	C	0.494981	0.118079	0.872580
	C141	C	0.478142	0.118322	0.116508
	C142	C	0.495789	0.874569	0.116756
	C143	C	0.478125	0.874631	0.872278
	C144	C	0.361959	0.881751	0.672814
	C145	C	0.603858	0.113291	0.669775
	C146	C	0.605294	0.882403	0.316084
	C147	C	0.365780	0.111891	0.317343
	C148	C	0.667376	0.377575	0.879132
	C149	C	0.665700	0.620153	0.106846
	C150	C	0.313623	0.615956	0.877645
	C151	C	0.306569	0.375229	0.106920
	C152	C	0.872071	0.673414	0.374569
	C153	C	0.101260	0.677790	0.610330
	C154	C	0.871770	0.321351	0.612848
	C155	C	0.102376	0.322250	0.372373
	C156	C	0.873343	0.376680	0.672771
	C157	C	0.102765	0.619567	0.667478
	C158	C	0.874104	0.620069	0.314896
	C159	C	0.102253	0.379550	0.314647
	C160	C	0.373411	0.671511	0.877140
	C161	C	0.608208	0.675813	0.106993
	C162	C	0.607753	0.321410	0.878316
	C163	C	0.365772	0.319860	0.107912
	C164	C	0.662240	0.882627	0.371789
	C165	C	0.661701	0.113001	0.612592
	C166	C	0.304198	0.882586	0.616238
	C167	C	0.311642	0.113598	0.377148
	C168	C	0.867209	0.383290	0.171383
	C169	C	0.107433	0.614397	0.167399
	C170	C	0.108876	0.382087	0.814530
	C171	C	0.872559	0.614435	0.818586
	C172	C	0.164520	0.878660	0.379235
	C173	C	0.160750	0.119108	0.608054
	C174	C	0.810244	0.117075	0.377771
	C175	C	0.803720	0.875584	0.605962
	C176	C	0.371095	0.172028	0.877097
	C177	C	0.601352	0.175507	0.113319
	C178	C	0.372579	0.817593	0.113754
	C179	C	0.603438	0.824281	0.874612
	C180	C	0.372601	0.873788	0.173343
	C181	C	0.601019	0.117965	0.171549
	C182	C	0.370557	0.114377	0.820637
	C183	C	0.600734	0.877626	0.813685
	C184	C	0.869240	0.173446	0.377389
	C185	C	0.102542	0.174836	0.608173
	C186	C	0.103775	0.824351	0.377065
	C187	C	0.862764	0.819580	0.606491
	C188	C	0.164392	0.381396	0.872310
	C189	C	0.163702	0.614028	0.109461
	C190	C	0.808924	0.383633	0.115060
	C191	C	0.815603	0.614722	0.875985
	C192	C	0.384219	0.093951	0.596937
	C193	C	0.581008	0.901760	0.591215
	C194	C	0.585137	0.093968	0.394779
	C195	C	0.386948	0.901603	0.398118
	C196	C	0.586378	0.399780	0.087923
	C197	C	0.591680	0.598106	0.897232
	C198	C	0.387828	0.594677	0.087219
	C199	C	0.388015	0.396872	0.898065
	C200	C	0.082642	0.598799	0.392243
	C201	C	0.892448	0.595175	0.594976
	C202	C	0.082364	0.398665	0.591668
	C203	C	0.892891	0.399131	0.394434
	C204	C	0.889497	0.594643	0.093363
	C205	C	0.084679	0.401995	0.091744
	C206	C	0.090696	0.594435	0.891697
	C207	C	0.890598	0.402780	0.896313
	C208	C	0.081676	0.900504	0.587273
	C209	C	0.088193	0.097178	0.398010
	C210	C	0.883818	0.096330	0.587625
	C211	C	0.885050	0.897627	0.396945
	C212	C	0.580931	0.096160	0.893016
	C213	C	0.392230	0.094483	0.094593
	C214	C	0.581937	0.899217	0.093973
	C215	C	0.391680	0.894862	0.895961
	Zn216	Zn	0.484749	-0.003503	0.744028
	Zn217	Zn	0.485856	-0.003085	0.246408
	Zn218	Zn	0.739150	0.499223	-0.006492
	Zn219	Zn	0.236943	0.496549	-0.007535
	Zn220	Zn	-0.014801	0.747598	0.491798
	Zn221	Zn	-0.013181	0.247343	0.492332
	Zn222	Zn	-0.010517	0.497741	0.744288
	Zn223	Zn	-0.011891	0.499611	0.242827
	Zn224	Zn	0.489349	0.746395	-0.006861
	Zn225	Zn	0.486682	0.247152	-0.006689
	Zn226	Zn	0.733543	-0.002714	0.492220
	Zn227	Zn	0.236290	-0.001226	0.494989
	N228	N	0.396694	0.960013	0.674424
	N229	N	0.569143	0.034817	0.670681
	N230	N	0.571805	0.960876	0.315872
	N231	N	0.398308	0.033011	0.316100
	N232	N	0.669050	0.410878	0.957224
	N233	N	0.668127	0.586146	0.029117
	N234	N	0.310032	0.582777	0.955663
	N235	N	0.305115	0.408011	0.028652
	N236	N	0.949034	0.673831	0.408834
	N237	N	0.022859	0.678022	0.578676
	N238	N	0.949176	0.320548	0.577614
	N239	N	0.024544	0.320207	0.406624
	N240	N	0.951893	0.409752	0.674364
	N241	N	0.025432	0.584188	0.670833
	N242	N	0.952465	0.587867	0.312183
	N243	N	0.024451	0.412947	0.313745
	N244	N	0.406092	0.672579	0.954922
	N245	N	0.575578	0.676372	0.029307
	N246	N	0.572659	0.320519	0.955849
	N247	N	0.401109	0.319365	0.030598
	N248	N	0.663601	0.961061	0.405832
	N249	N	0.662148	0.034494	0.578476
	N250	N	0.303445	0.961439	0.583345
	N251	N	0.310627	0.035525	0.412252
	N252	N	0.901863	0.461661	0.172422
	N253	N	0.073539	0.535647	0.169863
	N254	N	0.076847	0.461205	0.812610
	N255	N	0.905219	0.535554	0.817111
	N256	N	0.165950	0.911146	0.457649
	N257	N	0.164607	0.085739	0.530135
	N258	N	0.806479	0.083894	0.455824
	N259	N	0.802793	0.909125	0.528044
	N260	N	0.449239	0.174560	0.908731
	N261	N	0.523769	0.176027	0.080017
	N262	N	0.450439	0.817857	0.079321
	N263	N	0.526200	0.822142	0.910421
	N264	N	0.450177	0.908499	0.175142
	N265	N	0.523187	0.083293	0.173766
	N266	N	0.448450	0.081289	0.817748
	N267	N	0.521786	0.907992	0.812065
	N268	N	0.901452	0.174846	0.455321
	N269	N	0.070984	0.175754	0.530149
	N270	N	0.067943	0.823525	0.454288
	N271	N	0.897811	0.818727	0.529094
	N272	N	0.166417	0.460120	0.905864
	N273	N	0.164297	0.535116	0.076717
	N274	N	0.808176	0.462171	0.081456
	N275	N	0.813200	0.536134	0.909491
	O276	O	0.348567	0.429122	0.533155
	H277	H	0.359625	0.439914	0.513658
	H278	H	0.332994	0.427529	0.555541
	O279	O	0.422532	0.495513	0.563921
	H280	H	0.424976	0.500494	0.565575
	H281	H	0.420648	0.510726	0.561038
	O282	O	0.988891	1.071366	-0.056762
	H283	H	0.985162	1.095590	-0.054777
	H284	H	0.988794	1.076350	-0.030566
	O285	O	1.033533	0.097621	1.086152
	H286	H	1.044160	0.092443	1.084813
	H287	H	1.043142	0.088957	1.083105
	O288	O	0.551641	0.466365	0.427250
	H289	H	0.558022	0.466434	0.424825
	H290	H	0.561412	0.475279	0.433656
	O291	O	0.470512	0.453185	0.471654
	H292	H	0.477498	0.438832	0.467199
	H293	H	0.455375	0.456840	0.468017
	O294	O	0.396773	0.472569	0.516736
	H295	H	0.399134	0.466498	0.512610
	H296	H	0.407841	0.471774	0.527234
	O297	O	-0.069088	0.040396	0.932256
	H298	H	-0.065513	0.049887	0.929882
	H299	H	-0.062617	0.032128	0.934834
	O300	O	0.502231	0.445348	0.404498
	H301	H	0.510299	0.449809	0.392888
	H302	H	0.508734	0.437150	0.389766
	O303	O	0.959402	1.030004	-0.028723
	H304	H	0.959828	1.024978	-0.042004
	H305	H	0.969013	1.028492	-0.037791
	O306	O	-0.089738	0.930623	0.938379
	H307	H	-0.106943	0.938565	0.939933
	H308	H	-0.090617	0.933346	0.930800
	O309	O	0.465789	0.545304	0.520770
	H310	H	0.468198	0.542419	0.539802
	H311	H	0.467313	0.554062	0.520780
	O312	O	0.082465	-0.002428	-0.069626
	H313	H	0.080270	-0.009083	-0.065652
	H314	H	0.086008	-0.013985	-0.067170
	O315	O	0.933796	0.015766	-0.017222
	H316	H	0.931788	0.009293	-0.026319
	H317	H	0.926630	0.021413	0.000451
	O318	O	0.998652	0.992582	1.014080
	H319	H	1.015624	0.981978	1.008147
	H320	H	0.996064	1.004986	1.004814
	O321	O	-0.093301	0.006111	1.003702
	H322	H	-0.092167	0.012525	1.005730
	H323	H	-0.094358	0.025622	0.994155
	O324	O	0.616495	0.423874	0.545795
	H325	H	0.614885	0.424502	0.563817
	H326	H	0.620348	0.421965	0.551574
	O327	O	0.053954	0.003080	0.027173
	H328	H	0.051344	-0.003288	0.010860
	H329	H	0.043960	0.002440	0.035906
	O330	O	0.615653	0.499877	0.574685
	H331	H	0.622557	0.493072	0.577199
	H332	H	0.593211	0.501585	0.576135
	O333	O	0.521071	0.495371	1.359110
	H334	H	0.527612	0.483723	1.384430
	H335	H	0.516624	0.499652	1.349156
	O336	O	0.446116	-0.511444	0.359904
	H337	H	0.450084	-0.521651	0.368865
	H338	H	0.452587	-0.524459	0.344572
	O339	O	0.419568	0.490126	0.383378
	H340	H	0.427859	0.485542	0.381242
	H341	H	0.399975	0.486902	0.374968
	O342	O	0.918238	0.966467	0.928606
	H343	H	0.933321	0.973862	0.925472
	H344	H	0.928710	0.967631	0.924189
	O345	O	1.424551	1.544983	-0.521045
	H346	H	1.436176	1.558361	-0.528500
	H347	H	1.434398	1.533256	-0.520270
	O348	O	0.331166	0.505373	0.582289
	H349	H	0.340245	0.504610	0.581902
	H350	H	0.329980	0.520330	0.568682
	O351	O	0.873384	1.037279	0.938404
	H352	H	0.886540	1.041944	0.940185
	H353	H	0.866999	1.034507	0.939182
	O354	O	0.521526	0.415047	0.394349
	H355	H	0.514312	0.392137	0.394798
	H356	H	0.534166	0.417985	0.381335
	O357	O	1.110322	-0.104285	0.920398
	H358	H	1.108748	-0.104755	0.918525
	H359	H	1.097908	-0.093891	0.918157
	O360	O	1.061652	0.021504	-0.015074
	H361	H	1.067792	0.024273	-0.017899
	H362	H	1.058319	0.013197	-0.011370
	O363	O	0.425409	0.602634	0.401503
	H364	H	0.421281	0.608168	0.390429
	H365	H	0.433906	0.597654	0.405773
	O366	O	0.972964	1.012464	1.061176
	H367	H	0.963702	0.996815	1.067235
	H368	H	0.965028	1.001463	1.064077
	O369	O	0.643453	0.606259	1.535616
	H370	H	0.640321	0.607984	1.541508
	H371	H	0.634465	0.606310	1.538781
	O372	O	0.012807	0.014419	0.002777
	H373	H	0.010094	0.019381	0.004225
	H374	H	0.011924	0.011125	-0.005199
	O375	O	1.583396	0.605612	0.628459
	H376	H	1.580817	0.603595	0.615961
	H377	H	1.588039	0.611143	0.613869
	O378	O	0.545083	0.356437	0.576274
	H379	H	0.524947	0.366602	0.586726
	H380	H	0.536037	0.355732	0.588594
	O381	O	0.603857	0.503475	0.493541
	H382	H	0.610679	0.513934	0.470273
	H383	H	0.611318	0.512175	0.495521
