data_Molecule from HDF5

_cell_length_a		16.609337
_cell_length_b		16.622370
_cell_length_c		16.488218
_cell_angle_alpha	90.176960
_cell_angle_beta	89.922754
_cell_angle_gamma	90.024701
_symmetry_space_group_name_H-M	'P 1'
_symmetry_Int_Tables_number		1

loop_
	_symmetry_equiv_pos_as_xyz
	x,y,z

loop_
	_atom_site_label
	_atom_site_type_symbol
	_atom_site_fract_x
	_atom_site_fract_y
	_atom_site_fract_z
	H0	H	0.411361	0.834930	0.725070
	H1	H	0.617878	0.148740	0.725503
	H2	H	0.619294	0.835121	0.283095
	H3	H	0.411682	0.147760	0.285155
	H4	H	0.736599	0.384542	0.849022
	H5	H	0.735022	0.597227	0.161897
	H6	H	0.292731	0.596853	0.848333
	H7	H	0.294853	0.388723	0.163013
	H8	H	0.857536	0.712376	0.400687
	H9	H	0.167300	0.718079	0.616685
	H10	H	0.860574	0.267925	0.612058
	H11	H	0.172516	0.273476	0.402279
	H12	H	0.860668	0.384328	0.729127
	H13	H	0.168998	0.599132	0.728296
	H14	H	0.857443	0.594836	0.284536
	H15	H	0.173089	0.391922	0.288153
	H16	H	0.409296	0.711900	0.847911
	H17	H	0.622381	0.715841	0.159814
	H18	H	0.621079	0.268199	0.849562
	H19	H	0.411598	0.273783	0.163128
	H20	H	0.736238	0.835455	0.399696
	H21	H	0.734282	0.148674	0.608319
	H22	H	0.292688	0.835960	0.610734
	H23	H	0.292080	0.146036	0.398694
	H24	H	0.913917	0.332513	0.221770
	H25	H	0.115378	0.649678	0.223866
	H26	H	0.119661	0.336623	0.783017
	H27	H	0.906383	0.646114	0.781767
	H28	H	0.233777	0.886572	0.347891
	H29	H	0.234982	0.097057	0.661794
	H30	H	0.793834	0.096966	0.346747
	H31	H	0.791855	0.886941	0.662028
	H32	H	0.357844	0.210917	0.901940
	H33	H	0.668792	0.216194	0.113501
	H34	H	0.360238	0.768919	0.109808
	H35	H	0.670249	0.767105	0.895339
	H36	H	0.359288	0.887399	0.225396
	H37	H	0.670790	0.097782	0.227166
	H38	H	0.357972	0.093577	0.785675
	H39	H	0.671213	0.885944	0.782496
	H40	H	0.910686	0.211923	0.346460
	H41	H	0.119060	0.212947	0.661660
	H42	H	0.116885	0.770376	0.348360
	H43	H	0.904218	0.767781	0.660464
	H44	H	0.236820	0.337100	0.898837
	H45	H	0.234383	0.649149	0.108327
	H46	H	0.794282	0.334145	0.108686
	H47	H	0.789748	0.646125	0.897159
	H48	H	0.427910	0.104796	0.601539
	H49	H	0.603440	0.877814	0.599849
	H50	H	0.605745	0.102690	0.419100
	H51	H	0.428710	0.882139	0.420745
	H52	H	0.601806	0.398058	0.119090
	H53	H	0.604120	0.580720	0.891095
	H54	H	0.427207	0.580740	0.116924
	H55	H	0.423137	0.403685	0.892626
	H56	H	0.125601	0.580935	0.414885
	H57	H	0.906031	0.580182	0.583832
	H58	H	0.125881	0.404523	0.593289
	H59	H	0.902468	0.403624	0.411813
	H60	H	0.126783	0.401546	0.594736
	H61	H	0.905578	0.571577	0.595693
	H62	H	0.126523	0.583272	0.414761
	H63	H	0.900121	0.395589	0.411634
	H64	H	0.425882	0.582508	0.118082
	H65	H	0.603594	0.574098	0.893707
	H66	H	0.608262	0.405066	0.118496
	H67	H	0.427182	0.401393	0.892979
	H68	H	0.605222	0.104145	0.415266
	H69	H	0.598847	0.882649	0.589098
	H70	H	0.428467	0.100022	0.588430
	H71	H	0.418809	0.878194	0.417537
	H72	H	0.920335	0.602596	0.090760
	H73	H	0.106872	0.379329	0.095457
	H74	H	0.100989	0.602675	0.916448
	H75	H	0.925066	0.382565	0.923139
	H76	H	0.097781	0.911957	0.613608
	H77	H	0.106951	0.080059	0.391037
	H78	H	0.924234	0.082435	0.617335
	H79	H	0.927067	0.898514	0.391868
	H80	H	0.624706	0.072903	0.916092
	H81	H	0.402631	0.080999	0.096171
	H82	H	0.625747	0.906316	0.093108
	H83	H	0.403458	0.896741	0.918941
	H84	H	0.627674	0.900756	0.094170
	H85	H	0.403035	0.082387	0.093609
	H86	H	0.629203	0.084750	0.910065
	H87	H	0.406017	0.905545	0.917746
	H88	H	0.925211	0.078302	0.615820
	H89	H	0.102826	0.079019	0.392081
	H90	H	0.097228	0.896680	0.618617
	H91	H	0.922296	0.904917	0.392924
	H92	H	0.102035	0.601945	0.920337
	H93	H	0.106946	0.379127	0.096027
	H94	H	0.921676	0.605720	0.100198
	H95	H	0.923049	0.378005	0.914907
	H96	H	0.417002	0.105227	0.593595
	H97	H	0.611265	0.879112	0.589668
	H98	H	0.602014	0.101705	0.416455
	H99	H	0.427469	0.878344	0.410482
	H100	H	0.599205	0.406470	0.115488
	H101	H	0.598321	0.578079	0.894164
	H102	H	0.424921	0.579903	0.116907
	H103	H	0.423521	0.399620	0.890299
	H104	H	0.125785	0.582190	0.417139
	H105	H	0.899834	0.585291	0.596406
	H106	H	0.125281	0.402020	0.591473
	H107	H	0.903049	0.399010	0.418397
	H108	H	0.929595	0.601739	0.095139
	H109	H	0.106321	0.379375	0.095847
	H110	H	0.104782	0.603456	0.917927
	H111	H	0.931684	0.382712	0.916226
	H112	H	0.110628	0.904885	0.619965
	H113	H	0.104468	0.083279	0.391290
	H114	H	0.928153	0.081819	0.614764
	H115	H	0.930099	0.905007	0.395524
	H116	H	0.625547	0.084796	0.924085
	H117	H	0.404258	0.080012	0.093456
	H118	H	0.626445	0.902378	0.088125
	H119	H	0.401541	0.901112	0.910400
	C120	C	0.393044	0.000027	0.626130
	C121	C	0.636115	0.983508	0.625616
	C122	C	0.636805	0.000054	0.383268
	C123	C	0.393321	0.982831	0.383829
	C124	C	0.635488	0.369902	0.014266
	C125	C	0.635477	0.611710	0.996332
	C126	C	0.394060	0.612565	0.013014
	C127	C	0.393268	0.370448	0.996277
	C128	C	0.022146	0.613153	0.384003
	C129	C	1.005499	0.613154	0.626595
	C130	C	0.023668	0.370083	0.626103
	C131	C	1.006176	0.369644	0.383227
	C132	C	0.893175	0.499263	0.126478
	C133	C	0.136825	0.483269	0.127186
	C134	C	0.135537	0.500257	0.884612
	C135	C	0.893316	0.483323	0.884450
	C136	C	0.134201	0.870914	0.513831
	C137	C	0.136083	0.112722	0.495819
	C138	C	0.894395	0.112579	0.511882
	C139	C	0.893280	0.870761	0.496927
	C140	C	0.522934	0.112198	0.884967
	C141	C	0.506155	0.113328	0.127188
	C142	C	0.524007	0.870438	0.124821
	C143	C	0.506435	0.868610	0.882359
	C144	C	0.392196	0.881942	0.685230
	C145	C	0.637021	0.101521	0.685608
	C146	C	0.638370	0.882137	0.323058
	C147	C	0.392406	0.100441	0.324561
	C148	C	0.696534	0.366371	0.896272
	C149	C	0.695663	0.615496	0.114348
	C150	C	0.333338	0.614842	0.895151
	C151	C	0.334610	0.370112	0.115428
	C152	C	0.904451	0.672153	0.382365
	C153	C	0.121065	0.676522	0.632513
	C154	C	0.907051	0.308747	0.629829
	C155	C	0.125294	0.312814	0.383360
	C156	C	0.906984	0.366419	0.688132
	C157	C	0.122022	0.617078	0.688176
	C158	C	0.904243	0.613792	0.324708
	C159	C	0.125679	0.371727	0.326689
	C160	C	0.391370	0.672031	0.894972
	C161	C	0.639576	0.674452	0.113159
	C162	C	0.639092	0.308646	0.896344
	C163	C	0.392346	0.312594	0.115599
	C164	C	0.696240	0.882151	0.380901
	C165	C	0.694732	0.101633	0.627324
	C166	C	0.333165	0.882461	0.628543
	C167	C	0.332866	0.099653	0.380889
	C168	C	0.894195	0.380231	0.183442
	C169	C	0.135495	0.602530	0.184726
	C170	C	0.137801	0.383265	0.823697
	C171	C	0.889091	0.599619	0.822461
	C172	C	0.193683	0.868179	0.395155
	C173	C	0.195279	0.115031	0.614502
	C174	C	0.834246	0.114738	0.393850
	C175	C	0.832028	0.868670	0.614851
	C176	C	0.404933	0.171041	0.883245
	C177	C	0.622734	0.174818	0.130753
	C178	C	0.406557	0.809944	0.127745
	C179	C	0.623576	0.808124	0.878483
	C180	C	0.406189	0.868486	0.185140
	C181	C	0.623523	0.115885	0.187316
	C182	C	0.404921	0.112773	0.825507
	C183	C	0.624210	0.867084	0.822017
	C184	C	0.892184	0.172230	0.393677
	C185	C	0.137698	0.172786	0.614433
	C186	C	0.135849	0.810523	0.395431
	C187	C	0.888342	0.809836	0.614337
	C188	C	0.196062	0.383362	0.881102
	C189	C	0.194290	0.602180	0.127331
	C190	C	0.834712	0.381024	0.127191
	C191	C	0.830852	0.599521	0.879855
	C192	C	0.417442	0.081810	0.601694
	C193	C	0.611553	0.901288	0.600249
	C194	C	0.611609	0.081554	0.409379
	C195	C	0.418073	0.900978	0.409101
	C196	C	0.610263	0.395596	0.096425
	C197	C	0.609425	0.585083	0.914359
	C198	C	0.418936	0.588066	0.095867
	C199	C	0.417698	0.394424	0.913652
	C200	C	0.104560	0.588830	0.408677
	C201	C	0.924928	0.586446	0.599658
	C202	C	0.104844	0.395592	0.600518
	C203	C	0.923437	0.392769	0.407054
	C204	C	0.916989	0.581910	0.102231
	C205	C	0.113407	0.400688	0.102924
	C206	C	0.109878	0.581785	0.910953
	C207	C	0.919130	0.402165	0.910692
	C208	C	0.109120	0.897166	0.595925
	C209	C	0.111667	0.087943	0.413060
	C210	C	0.919078	0.087919	0.594389
	C211	C	0.919267	0.895677	0.414811
	C212	C	0.605008	0.087850	0.909672
	C213	C	0.424362	0.088134	0.101643
	C214	C	0.605394	0.895676	0.099292
	C215	C	0.424712	0.893896	0.908334
	Zn216	Zn	0.515239	-0.009006	0.755227
	Zn217	Zn	0.515338	-0.008922	0.255134
	Zn218	Zn	0.763794	0.490999	0.005326
	Zn219	Zn	0.265331	0.492384	0.004934
	Zn220	Zn	0.013410	0.741900	0.506294
	Zn221	Zn	0.015370	0.241046	0.504000
	Zn222	Zn	0.014523	0.491663	0.755260
	Zn223	Zn	0.014248	0.491288	0.255541
	Zn224	Zn	0.515439	0.740769	0.003736
	Zn225	Zn	0.514476	0.241805	0.005788
	Zn226	Zn	0.765503	-0.008203	0.504345
	Zn227	Zn	0.263982	-0.008989	0.504875
	N228	N	0.428654	0.956067	0.684255
	N229	N	0.601625	0.026704	0.684980
	N230	N	0.602532	0.956466	0.324131
	N231	N	0.429129	0.026512	0.326132
	N232	N	0.694318	0.404020	0.970506
	N233	N	0.693451	0.577248	0.040454
	N234	N	0.334904	0.578624	0.969851
	N235	N	0.334614	0.405272	0.040187
	N236	N	0.978901	0.671934	0.418318
	N237	N	0.047623	0.674135	0.594880
	N238	N	0.980533	0.310668	0.592051
	N239	N	0.049967	0.311304	0.417653
	N240	N	0.980454	0.403723	0.686045
	N241	N	0.049203	0.578183	0.684779
	N242	N	0.978590	0.577896	0.325371
	N243	N	0.050529	0.406001	0.326194
	N244	N	0.428427	0.670796	0.969397
	N245	N	0.603035	0.672163	0.038657
	N246	N	0.601853	0.310634	0.970719
	N247	N	0.428031	0.312561	0.040457
	N248	N	0.695771	0.956665	0.417209
	N249	N	0.694569	0.027117	0.591164
	N250	N	0.333235	0.956987	0.592794
	N251	N	0.333170	0.025266	0.416861
	N252	N	0.929711	0.454952	0.183199
	N253	N	0.100620	0.527501	0.184925
	N254	N	0.100747	0.457046	0.825841
	N255	N	0.927279	0.526399	0.825150
	N256	N	0.192922	0.904901	0.469828
	N257	N	0.194607	0.078581	0.539645
	N258	N	0.835431	0.078323	0.468481
	N259	N	0.834876	0.906020	0.540741
	N260	N	0.479346	0.171037	0.919138
	N261	N	0.548625	0.173412	0.094007
	N262	N	0.480742	0.810874	0.091213
	N263	N	0.549422	0.809158	0.915373
	N264	N	0.480103	0.905355	0.183681
	N265	N	0.550005	0.078268	0.185113
	N266	N	0.479360	0.076797	0.826416
	N267	N	0.550407	0.904153	0.824399
	N268	N	0.928743	0.171219	0.468229
	N269	N	0.101507	0.171360	0.539566
	N270	N	0.099861	0.811743	0.470368
	N271	N	0.925730	0.811086	0.540083
	N272	N	0.194652	0.457256	0.918327
	N273	N	0.195578	0.526973	0.092691
	N274	N	0.833648	0.456229	0.092870
	N275	N	0.833288	0.526128	0.917843
	O276	O	0.134757	0.783789	0.010814
	H277	H	0.146921	0.787986	0.010259
	H278	H	0.126666	0.788451	0.020629
	O279	O	0.306705	0.480938	0.297494
	H280	H	0.310292	0.484590	0.307900
	H281	H	0.297607	0.482528	0.294453
	O282	O	0.972719	0.060298	0.941296
	H283	H	0.967717	0.058329	0.939603
	H284	H	0.974474	0.056867	0.929709
	O285	O	0.567022	0.533673	0.467367
	H286	H	0.556530	0.542598	0.470592
	H287	H	0.565541	0.535228	0.463045
	O288	O	0.806253	0.196987	0.802612
	H289	H	0.785563	0.219572	0.798877
	H290	H	0.823715	0.169871	0.798287
	O291	O	0.296109	0.600084	0.598549
	H292	H	0.293594	0.609907	0.613122
	H293	H	0.301760	0.593481	0.603603
	O294	O	1.016996	-0.016801	1.220381
	H295	H	1.019721	-0.002555	1.213039
	H296	H	0.999845	-0.029498	1.218896
	O297	O	0.149805	1.089134	0.858448
	H298	H	0.146980	1.075261	0.855254
	H299	H	0.132472	1.081241	0.859697
	O300	O	-0.205567	0.039633	1.061780
	H301	H	-0.195980	0.038795	1.050968
	H302	H	-0.208643	0.040097	1.061302
	O303	O	0.522400	0.517899	0.280607
	H304	H	0.522399	0.509213	0.275964
	H305	H	0.531488	0.513955	0.282131
	O306	O	0.695572	0.435302	0.532405
	H307	H	0.690044	0.443849	0.540062
	H308	H	0.696166	0.438330	0.530891
	O309	O	0.738898	0.540089	0.434367
	H310	H	0.739087	0.531288	0.429675
	H311	H	0.740606	0.531485	0.410117
	O312	O	0.600109	0.553203	0.406220
	H313	H	0.598178	0.557447	0.399479
	H314	H	0.603719	0.544718	0.399276
	O315	O	1.220265	1.194849	1.174394
	H316	H	1.242331	1.218151	1.187115
	H317	H	1.218507	1.175692	1.156261
	O318	O	0.729971	0.515223	0.712969
	H319	H	0.740723	0.514882	0.731464
	H320	H	0.706208	0.514294	0.710565
	O321	O	0.382644	0.691644	0.640188
	H322	H	0.370289	0.707197	0.655776
	H323	H	0.387587	0.685322	0.648918
	O324	O	1.235317	0.956864	-0.213750
	H325	H	1.248536	0.946325	-0.238066
	H326	H	1.230537	0.949005	-0.213007
	O327	O	0.031087	-0.223392	0.787975
	H328	H	0.031823	-0.238221	0.766540
	H329	H	0.041193	-0.218168	0.799803
	O330	O	0.689746	0.665944	0.564066
	H331	H	0.671682	0.676062	0.554332
	H332	H	0.693286	0.673251	0.552359
	O333	O	0.481207	0.270187	0.726146
	H334	H	0.458178	0.257181	0.739591
	H335	H	0.460279	0.260652	0.732504
	O336	O	0.458770	0.514784	0.725939
	H337	H	0.478145	0.526566	0.719229
	H338	H	0.473657	0.513894	0.733614
	O339	O	1.141237	-0.115044	0.967758
	H340	H	1.140493	-0.112005	0.979929
	H341	H	1.134524	-0.108098	0.973809
	O342	O	0.230634	0.029073	0.217326
	H343	H	0.224765	0.045372	0.219639
	H344	H	0.235208	0.028163	0.239091
	O345	O	-0.512553	1.356538	1.572686
	H346	H	-0.506015	1.360823	1.568949
	H347	H	-0.512955	1.362628	1.568169
	O348	O	0.150159	-0.179821	-0.178306
	H349	H	0.145373	-0.162575	-0.169669
	H350	H	0.149680	-0.162008	-0.158120
	O351	O	0.462648	0.382055	0.522535
	H352	H	0.453015	0.377317	0.530198
	H353	H	0.462807	0.382866	0.527330
	O354	O	0.317373	0.276147	1.304527
	H355	H	0.338873	0.282270	1.302290
	H356	H	0.323358	0.308494	1.326522
	O357	O	-0.143903	0.154259	0.121709
	H358	H	-0.121962	0.146602	0.112857
	H359	H	-0.146819	0.148108	0.102762
	O360	O	0.218709	0.202129	0.801224
	H361	H	0.196451	0.181279	0.816342
	H362	H	0.202435	0.189553	0.813820
	O363	O	0.233714	-0.048937	0.063003
	H364	H	0.241863	-0.029177	0.073066
	H365	H	0.228020	-0.027250	0.069036
	O366	O	0.721589	0.339607	0.649760
	H367	H	0.702814	0.358521	0.642461
	H368	H	0.710139	0.354860	0.639773
	O369	O	0.982105	-0.227081	0.215765
	H370	H	0.956650	-0.231344	0.215554
	H371	H	0.966774	-0.239092	0.229563
	O372	O	1.191980	1.002009	-0.043911
	H373	H	1.194438	1.002462	-0.042482
	H374	H	1.178396	0.999470	-0.056754
	O375	O	0.976824	0.208710	-0.213359
	H376	H	0.964808	0.208573	-0.209169
	H377	H	0.976087	0.227530	-0.238265
	O378	O	0.401660	0.507034	0.670038
	H379	H	0.413336	0.514146	0.671206
	H380	H	0.404348	0.512546	0.676121
	O381	O	-0.204573	0.949508	1.180587
	H382	H	-0.220531	0.948806	1.193189
	H383	H	-0.186971	0.970893	1.181700
	O384	O	0.515352	0.545063	0.442155
	H385	H	0.512687	0.547811	0.451301
	H386	H	0.508691	0.541612	0.416535
	O387	O	0.717908	0.693871	-0.290767
	H388	H	0.724033	0.682513	-0.326309
	H389	H	0.717397	0.675763	-0.284031
	O390	O	0.480857	0.712776	0.288993
	H391	H	0.473970	0.718635	0.265865
	H392	H	0.455457	0.715654	0.279683
	O393	O	0.571111	0.279271	0.463138
	H394	H	0.567467	0.284748	0.457385
	H395	H	0.569162	0.266981	0.476142
	O396	O	0.187229	0.819447	1.187272
	H397	H	0.172906	0.830074	1.167343
	H398	H	0.167321	0.841869	1.184050
	O399	O	-0.170342	-0.144299	0.876211
	H400	H	-0.150906	-0.147724	0.863693
	H401	H	-0.182744	-0.160540	0.868825
	O402	O	0.639342	0.636518	0.371010
	H403	H	0.617520	0.636382	0.375164
	H404	H	0.643681	0.614345	0.377610
	O405	O	1.054639	0.210761	1.226037
	H406	H	1.093582	0.207470	1.226309
	H407	H	1.060692	0.236379	1.250350
	O408	O	-0.012726	-0.140761	-0.014238
	H409	H	-0.000681	-0.133578	-0.021869
	H410	H	-0.025981	-0.145859	-0.002992
	O411	O	0.729144	0.279730	0.476144
	H412	H	0.753715	0.273727	0.475656
	H413	H	0.730928	0.288175	0.482186
	O414	O	0.721167	0.287247	0.300017
	H415	H	0.738480	0.263379	0.301235
	H416	H	0.679779	0.281819	0.304926
	O417	O	0.486283	0.575283	0.601467
	H418	H	0.470299	0.570909	0.599028
	H419	H	0.469984	0.574157	0.604809
	O420	O	0.360480	0.574264	0.439827
	H421	H	0.362799	0.584134	0.443964
	H422	H	0.359412	0.583734	0.435052
	O423	O	0.310391	0.281778	0.683696
	H424	H	0.281861	0.261058	0.708813
	H425	H	0.312045	0.316141	0.677957
	O426	O	0.387076	0.480465	0.431555
	H427	H	0.371832	0.498065	0.429620
	H428	H	0.383985	0.487954	0.448277
	O429	O	1.570296	1.325721	0.635251
	H430	H	1.557898	1.317165	0.654387
	H431	H	1.578595	1.317948	0.628140
	O432	O	0.111663	0.814702	0.895574
	H433	H	0.077277	0.811794	0.901422
	H434	H	0.130075	0.811070	0.917067
	O435	O	0.006748	0.915557	-0.035695
	H436	H	0.000960	0.911830	-0.029618
	H437	H	-0.002181	0.902173	-0.034857
	O438	O	-0.199059	-0.227531	0.028614
	H439	H	-0.228168	-0.256410	0.034193
	H440	H	-0.194041	-0.212356	0.047059
	O441	O	-0.194808	0.199806	-0.019387
	H442	H	-0.177766	0.189763	-0.031184
	H443	H	-0.210731	0.223991	-0.025721
	O444	O	0.182221	0.188856	0.036713
	H445	H	0.164742	0.184041	0.041629
	H446	H	0.198863	0.201868	0.031858
	O447	O	-0.055094	1.029017	1.217763
	H448	H	-0.059392	1.026725	1.214247
	H449	H	-0.050332	1.047807	1.228349
	O450	O	-0.208618	1.027562	0.785077
	H451	H	-0.217203	1.013882	0.789096
	H452	H	-0.230742	1.043860	0.770435
	O453	O	0.295362	0.296581	0.517987
	H454	H	0.286539	0.289812	0.535613
	H455	H	0.287827	0.293423	0.534955
	O456	O	-0.107417	-0.072271	0.955147
	H457	H	-0.100653	-0.092620	0.961630
	H458	H	-0.114666	-0.077604	0.965831
	O459	O	0.770889	0.743844	0.250164
	H460	H	0.763730	0.773111	0.251887
	H461	H	0.745710	0.724062	0.266336
	O462	O	0.738146	0.453740	0.283295
	H463	H	0.737487	0.419957	0.279393
	H464	H	0.756255	0.438256	0.259161
	O465	O	1.010289	0.052923	-0.176408
	H466	H	1.001368	0.055704	-0.160547
	H467	H	0.994676	0.045067	-0.178147
	O468	O	0.005573	1.169123	-0.035237
	H469	H	-0.001062	1.159107	-0.030296
	H470	H	-0.016990	1.174215	-0.035632
	O471	O	0.375280	0.710922	0.511966
	H472	H	0.369694	0.710720	0.503062
	H473	H	0.366219	0.722515	0.505413
	O474	O	-0.464505	1.708944	-0.280369
	H475	H	-0.453768	1.722833	-0.273417
	H476	H	-0.444367	1.716271	-0.273434
	O477	O	0.309488	0.700431	1.299914
	H478	H	0.280733	0.725680	1.285433
	H479	H	0.315139	0.675633	1.308946
	O480	O	0.448873	0.371028	0.353275
	H481	H	0.456430	0.368727	0.365175
	H482	H	0.436295	0.384664	0.363483
	O483	O	0.394275	0.471746	0.502005
	H484	H	0.393082	0.467676	0.506484
	H485	H	0.394201	0.482692	0.504525
	O486	O	0.998902	0.124121	1.078351
	H487	H	1.001467	0.131921	1.089862
	H488	H	1.010780	0.126824	1.080121
	O489	O	0.911581	0.898018	0.119851
	H490	H	0.906389	0.892073	0.130704
	H491	H	0.912531	0.905267	0.124923
