data_Molecule from HDF5

_cell_length_a		16.410624
_cell_length_b		16.401233
_cell_length_c		15.825713
_cell_angle_alpha	89.710313
_cell_angle_beta	89.775304
_cell_angle_gamma	90.316793
_symmetry_space_group_name_H-M	'P 1'
_symmetry_Int_Tables_number		1

loop_
	_symmetry_equiv_pos_as_xyz
	x,y,z

loop_
	_atom_site_label
	_atom_site_type_symbol
	_atom_site_fract_x
	_atom_site_fract_y
	_atom_site_fract_z
	H0	H	0.417749	0.825196	0.702776
	H1	H	0.607273	0.154007	0.703598
	H2	H	0.605379	0.825305	0.282253
	H3	H	0.420752	0.154228	0.281673
	H4	H	0.722788	0.392073	0.823588
	H5	H	0.724502	0.591031	0.158082
	H6	H	0.299005	0.589848	0.823613
	H7	H	0.293095	0.387990	0.158230
	H8	H	0.850301	0.710201	0.386170
	H9	H	0.170840	0.709509	0.595843
	H10	H	0.850016	0.267571	0.595784
	H11	H	0.171119	0.271969	0.384113
	H12	H	0.845986	0.393133	0.703488
	H13	H	0.175126	0.583417	0.700097
	H14	H	0.846185	0.584092	0.279238
	H15	H	0.174074	0.397501	0.277947
	H16	H	0.409936	0.704747	0.825330
	H17	H	0.607390	0.701905	0.159625
	H18	H	0.608006	0.276639	0.824455
	H19	H	0.408527	0.274986	0.159707
	H20	H	0.730619	0.828502	0.389454
	H21	H	0.732210	0.150721	0.594365
	H22	H	0.288694	0.830593	0.601931
	H23	H	0.293765	0.149958	0.386040
	H24	H	0.913557	0.325992	0.204537
	H25	H	0.105034	0.653870	0.200818
	H26	H	0.101553	0.324297	0.781249
	H27	H	0.917357	0.654295	0.777175
	H28	H	0.226389	0.892371	0.325022
	H29	H	0.225266	0.090403	0.658653
	H30	H	0.800248	0.090249	0.324895
	H31	H	0.797039	0.887614	0.657963
	H32	H	0.348504	0.206517	0.888859
	H33	H	0.670304	0.210573	0.097467
	H34	H	0.348516	0.769061	0.099365
	H35	H	0.670093	0.771177	0.887625
	H36	H	0.347599	0.892528	0.209029
	H37	H	0.675782	0.083609	0.200916
	H38	H	0.346997	0.084494	0.778229
	H39	H	0.674816	0.897063	0.782141
	H40	H	0.912114	0.202063	0.323783
	H41	H	0.111388	0.204238	0.657611
	H42	H	0.113293	0.776603	0.324958
	H43	H	0.908984	0.773281	0.657157
	H44	H	0.228992	0.328435	0.886185
	H45	H	0.231436	0.649745	0.095032
	H46	H	0.787660	0.329586	0.098253
	H47	H	0.791861	0.651484	0.884688
	H48	H	0.416956	0.103833	0.576943
	H49	H	0.603709	0.875817	0.581419
	H50	H	0.614823	0.108091	0.397723
	H51	H	0.420854	0.877337	0.409426
	H52	H	0.600503	0.404130	0.109523
	H53	H	0.602159	0.581934	0.871848
	H54	H	0.422335	0.573006	0.108419
	H55	H	0.419751	0.397760	0.872776
	H56	H	0.128221	0.591431	0.396698
	H57	H	0.892284	0.582339	0.593741
	H58	H	0.127627	0.390789	0.584485
	H59	H	0.892024	0.389216	0.394699
	H60	H	0.124707	0.393834	0.578086
	H61	H	0.893266	0.594414	0.576319
	H62	H	0.123468	0.585110	0.405513
	H63	H	0.895175	0.389254	0.406639
	H64	H	0.421758	0.585815	0.112144
	H65	H	0.600898	0.581715	0.871902
	H66	H	0.594244	0.397091	0.110408
	H67	H	0.419616	0.395766	0.871725
	H68	H	0.605512	0.105914	0.396301
	H69	H	0.613463	0.873416	0.583447
	H70	H	0.414162	0.107709	0.584786
	H71	H	0.409946	0.871761	0.405130
	H72	H	0.916523	0.604525	0.079044
	H73	H	0.103128	0.373186	0.083326
	H74	H	0.109105	0.605434	0.899780
	H75	H	0.906090	0.373104	0.902241
	H76	H	0.098083	0.886183	0.614069
	H77	H	0.113129	0.085011	0.367824
	H78	H	0.931392	0.085847	0.610366
	H79	H	0.918563	0.896250	0.368893
	H80	H	0.628280	0.089115	0.894023
	H81	H	0.391809	0.093169	0.084167
	H82	H	0.623238	0.895092	0.075820
	H83	H	0.391643	0.892160	0.892484
	H84	H	0.625553	0.899389	0.087532
	H85	H	0.398473	0.078387	0.077582
	H86	H	0.624453	0.090149	0.907968
	H87	H	0.393389	0.886986	0.906153
	H88	H	0.912594	0.084628	0.616826
	H89	H	0.103849	0.070860	0.375037
	H90	H	0.111952	0.902762	0.613983
	H91	H	0.919650	0.904360	0.372515
	H92	H	0.107677	0.606532	0.895411
	H93	H	0.100020	0.376213	0.079287
	H94	H	0.912890	0.606279	0.080294
	H95	H	0.915584	0.373154	0.893189
	H96	H	0.422404	0.104885	0.585004
	H97	H	0.606169	0.872505	0.590312
	H98	H	0.610384	0.103997	0.405115
	H99	H	0.419932	0.872977	0.397069
	H100	H	0.603480	0.395700	0.113514
	H101	H	0.600326	0.582946	0.871715
	H102	H	0.411451	0.577949	0.112895
	H103	H	0.418176	0.397186	0.872234
	H104	H	0.125875	0.580943	0.394807
	H105	H	0.899376	0.574275	0.575164
	H106	H	0.125820	0.398077	0.583967
	H107	H	0.896043	0.399951	0.399612
	H108	H	0.916040	0.605798	0.083355
	H109	H	0.105606	0.374139	0.078765
	H110	H	0.105240	0.604694	0.898276
	H111	H	0.917830	0.377783	0.905857
	H112	H	0.091960	0.906244	0.606437
	H113	H	0.095888	0.087366	0.372171
	H114	H	0.922110	0.068896	0.607766
	H115	H	0.926347	0.898324	0.372819
	H116	H	0.623836	0.077650	0.901884
	H117	H	0.393213	0.078373	0.094260
	H118	H	0.627186	0.887539	0.084697
	H119	H	0.395311	0.900966	0.903462
	C120	C	0.388956	-0.001381	0.613960
	C121	C	0.635821	0.981307	0.614177
	C122	C	0.636735	-0.001562	0.369923
	C123	C	0.390105	0.981275	0.372362
	C124	C	0.629451	0.369481	0.000740
	C125	C	0.630254	0.611106	0.982465
	C126	C	0.389785	0.609070	0.000515
	C127	C	0.388624	0.367900	0.982896
	C128	C	0.018773	0.613546	0.368880
	C129	C	1.002080	0.611962	0.611975
	C130	C	0.018619	0.365455	0.612597
	C131	C	1.001696	0.366737	0.369313
	C132	C	0.886429	0.497998	0.112342
	C133	C	0.132177	0.481146	0.111154
	C134	C	0.133811	0.498049	0.868377
	C135	C	0.886407	0.481759	0.868895
	C136	C	0.131681	0.869293	0.501258
	C137	C	0.133424	0.111120	0.482066
	C138	C	0.892797	0.109321	0.500778
	C139	C	0.891561	0.869490	0.481774
	C140	C	0.518322	0.112831	0.870874
	C141	C	0.502079	0.111691	0.114425
	C142	C	0.518365	0.865535	0.114875
	C143	C	0.501022	0.866579	0.870856
	C144	C	0.394106	0.875176	0.668089
	C145	C	0.629783	0.104496	0.667271
	C146	C	0.629336	0.874806	0.317382
	C147	C	0.397129	0.104661	0.317605
	C148	C	0.685216	0.371549	0.874114
	C149	C	0.686313	0.609993	0.108332
	C150	C	0.335708	0.608726	0.874082
	C151	C	0.331652	0.368678	0.108515
	C152	C	0.897748	0.670030	0.368160
	C153	C	0.123190	0.669383	0.613357
	C154	C	0.897534	0.307953	0.613636
	C155	C	0.123356	0.311619	0.367241
	C156	C	0.895550	0.370284	0.667511
	C157	C	0.125345	0.606617	0.665365
	C158	C	0.895782	0.607652	0.314684
	C159	C	0.125003	0.373728	0.314176
	C160	C	0.390921	0.666265	0.875001
	C161	C	0.628180	0.665218	0.109163
	C162	C	0.628112	0.314216	0.874555
	C163	C	0.388737	0.312325	0.109172
	C164	C	0.691668	0.876570	0.370600
	C165	C	0.692394	0.102989	0.613472
	C166	C	0.330109	0.877773	0.617385
	C167	C	0.334062	0.102391	0.369791
	C168	C	0.890817	0.375362	0.168272
	C169	C	0.127984	0.604282	0.165483
	C170	C	0.126045	0.374042	0.815937
	C171	C	0.893156	0.604853	0.813308
	C172	C	0.188557	0.871752	0.375359
	C173	C	0.187957	0.110068	0.608255
	C174	C	0.837338	0.109130	0.374892
	C175	C	0.835145	0.869119	0.607989
	C176	C	0.396629	0.167554	0.870510
	C177	C	0.622891	0.169992	0.114832
	C178	C	0.396916	0.808767	0.116866
	C179	C	0.622549	0.810495	0.869762
	C180	C	0.396438	0.870072	0.171632
	C181	C	0.625697	0.106787	0.166545
	C182	C	0.395799	0.106967	0.815386
	C183	C	0.624951	0.873192	0.817383
	C184	C	0.892988	0.164959	0.374375
	C185	C	0.131267	0.166752	0.607731
	C186	C	0.132271	0.814276	0.375126
	C187	C	0.890870	0.812155	0.607475
	C188	C	0.189233	0.376232	0.868232
	C189	C	0.190344	0.602339	0.112177
	C190	C	0.828235	0.377238	0.115173
	C191	C	0.830886	0.603411	0.867078
	C192	C	0.411278	0.083736	0.589342
	C193	C	0.614379	0.896045	0.591667
	C194	C	0.616326	0.083946	0.392788
	C195	C	0.411010	0.896080	0.396620
	C196	C	0.606232	0.392314	0.088508
	C197	C	0.607813	0.588840	0.894568
	C198	C	0.412064	0.585757	0.088391
	C199	C	0.412143	0.390364	0.895045
	C200	C	0.103782	0.592216	0.392057
	C201	C	0.917146	0.590139	0.588544
	C202	C	0.103844	0.387680	0.589131
	C203	C	0.916562	0.386955	0.393231
	C204	C	0.908657	0.583379	0.088054
	C205	C	0.109388	0.396516	0.087613
	C206	C	0.113406	0.583352	0.890914
	C207	C	0.907013	0.396763	0.893161
	C208	C	0.107831	0.891851	0.588846
	C209	C	0.111106	0.088015	0.394426
	C210	C	0.915311	0.086320	0.588820
	C211	C	0.914885	0.892901	0.394110
	C212	C	0.603207	0.091860	0.894309
	C213	C	0.416594	0.089603	0.091966
	C214	C	0.603491	0.887466	0.089940
	C215	C	0.415829	0.887355	0.893701
	Zn216	Zn	0.510752	-0.010455	0.742287
	Zn217	Zn	0.511977	-0.010668	0.243209
	Zn218	Zn	0.756604	0.490590	-0.008741
	Zn219	Zn	0.262906	0.489234	-0.009582
	Zn220	Zn	0.010596	0.742639	0.491075
	Zn221	Zn	0.010992	0.236038	0.489732
	Zn222	Zn	0.010315	0.489518	0.740520
	Zn223	Zn	0.009947	0.489672	0.240372
	Zn224	Zn	0.508996	0.736885	-0.007642
	Zn225	Zn	0.509048	0.241500	-0.006901
	Zn226	Zn	0.766650	-0.010057	0.491641
	Zn227	Zn	0.259399	-0.010060	0.492809
	N228	N	0.430028	0.951329	0.666095
	N229	N	0.595548	0.027789	0.668185
	N230	N	0.596095	0.951533	0.316621
	N231	N	0.431461	0.028153	0.319121
	N232	N	0.686184	0.405241	0.953646
	N233	N	0.687519	0.576917	0.028577
	N234	N	0.334761	0.573810	0.953212
	N235	N	0.331460	0.402475	0.028898
	N236	N	0.975330	0.673917	0.400750
	N237	N	0.045467	0.672973	0.581043
	N238	N	0.974985	0.304947	0.580266
	N239	N	0.045843	0.307080	0.400425
	N240	N	0.971801	0.405504	0.666905
	N241	N	0.049161	0.571370	0.664668
	N242	N	0.971964	0.573027	0.315034
	N243	N	0.048455	0.407401	0.315095
	N244	N	0.424002	0.666509	0.954677
	N245	N	0.594336	0.666295	0.029812
	N246	N	0.594461	0.312577	0.954333
	N247	N	0.423504	0.311759	0.029996
	N248	N	0.696454	0.954500	0.402526
	N249	N	0.696455	0.025316	0.581215
	N250	N	0.326912	0.955610	0.584233
	N251	N	0.329394	0.024757	0.402866
	N252	N	0.926301	0.451675	0.166834
	N253	N	0.092388	0.528060	0.165015
	N254	N	0.092391	0.450723	0.815656
	N255	N	0.927152	0.528374	0.814501
	N256	N	0.188394	0.905122	0.454924
	N257	N	0.189449	0.076225	0.528984
	N258	N	0.836778	0.075274	0.454698
	N259	N	0.835368	0.904048	0.528804
	N260	N	0.473716	0.171163	0.904211
	N261	N	0.544766	0.173555	0.083541
	N262	N	0.474086	0.805914	0.082327
	N263	N	0.544721	0.806204	0.902298
	N264	N	0.472947	0.904821	0.170381
	N265	N	0.549587	0.071249	0.166616
	N266	N	0.472517	0.073557	0.815188
	N267	N	0.548619	0.907422	0.817781
	N268	N	0.926918	0.165045	0.453654
	N269	N	0.098155	0.167715	0.527970
	N270	N	0.097861	0.812360	0.454441
	N271	N	0.925143	0.812131	0.527976
	N272	N	0.194329	0.454327	0.899748
	N273	N	0.193066	0.524931	0.079304
	N274	N	0.825608	0.454627	0.081276
	N275	N	0.826636	0.526016	0.900986
	O276	O	0.875736	-0.010876	1.138750
	H277	H	0.884957	-0.005996	1.146823
	H278	H	0.871847	0.007778	1.121062
	O279	O	0.542067	0.487860	0.403962
	H280	H	0.540154	0.476782	0.396297
	H281	H	0.541301	0.496925	0.406457
	O282	O	0.441074	0.501868	0.500671
	H283	H	0.448377	0.500483	0.500621
	H284	H	0.430411	0.501900	0.501789
	O285	O	0.501724	0.478252	0.385728
	H286	H	0.507925	0.472724	0.386889
	H287	H	0.495278	0.490776	0.387410
	O288	O	0.573151	0.464973	0.575041
	H289	H	0.569043	0.470104	0.572312
	H290	H	0.576403	0.466106	0.578874
	O291	O	0.021653	-0.047961	1.020093
	H292	H	0.015742	-0.061067	1.030590
	H293	H	0.011965	-0.049679	1.015095
	O294	O	0.905188	1.064209	-0.045568
	H295	H	0.899158	1.054377	-0.060591
	H296	H	0.917246	1.057050	-0.051010
	O297	O	0.842528	0.833028	0.143148
	H298	H	0.839111	0.849431	0.141668
	H299	H	0.828541	0.828308	0.146938
	O300	O	0.464868	0.484048	0.587091
	H301	H	0.460226	0.485514	0.592957
	H302	H	0.466805	0.471391	0.580762
	O303	O	0.058352	1.050017	1.021387
	H304	H	0.065544	1.038963	1.019531
	H305	H	0.060977	1.046807	1.011761
	O306	O	0.504512	0.514832	0.573203
	H307	H	0.509452	0.524388	0.568246
	H308	H	0.492995	0.496445	0.570273
	O309	O	0.528881	0.387315	0.614395
	H310	H	0.532851	0.393926	0.604801
	H311	H	0.534213	0.380430	0.602209
	O312	O	1.436362	1.492707	1.476290
	H313	H	1.438306	1.494008	1.478210
	H314	H	1.432708	1.492521	1.461282
	O315	O	1.369023	1.510367	-0.517510
	H316	H	1.371491	1.511826	-0.504144
	H317	H	1.360492	1.495266	-0.520985
	O318	O	-0.078879	0.848759	1.135850
	H319	H	-0.084498	0.825369	1.153462
	H320	H	-0.104586	0.855799	1.143660
	O321	O	0.506306	0.565095	0.468112
	H322	H	0.489228	0.570573	0.471437
	H323	H	0.495416	0.573344	0.481327
	O324	O	0.078793	0.954615	1.041914
	H325	H	0.082483	0.959840	1.046874
	H326	H	0.076123	0.962732	1.042166
	O327	O	0.022079	1.067294	1.057716
	H328	H	0.030888	1.063662	1.059157
	H329	H	0.027255	1.075528	1.052922
	O330	O	-0.459565	0.498266	0.522779
	H331	H	-0.459654	0.502215	0.511185
	H332	H	-0.449163	0.512981	0.527626
	O333	O	0.430188	0.514942	0.432918
	H334	H	0.430762	0.518556	0.430228
	H335	H	0.435270	0.517414	0.431621
	O336	O	-0.893339	-0.935404	1.041384
	H337	H	-0.904955	-0.924811	1.035927
	H338	H	-0.886974	-0.932024	1.047540
	O339	O	0.102549	-0.074471	-0.116531
	H340	H	0.105525	-0.074751	-0.124179
	H341	H	0.110876	-0.076636	-0.109595
	O342	O	0.482640	0.403875	0.531277
	H343	H	0.496133	0.390757	0.534135
	H344	H	0.478606	0.414033	0.531029
	O345	O	0.127205	1.025829	0.972138
	H346	H	0.124865	1.025065	0.979769
	H347	H	0.142762	1.022590	0.971573
	O348	O	0.468259	0.549564	0.467894
	H349	H	0.458104	0.545923	0.464074
	H350	H	0.466717	0.540875	0.477145
	O351	O	0.654598	0.463327	-0.553947
	H352	H	0.648823	0.481988	-0.549384
	H353	H	0.665052	0.462678	-0.551952
	O354	O	0.099756	0.964908	-0.047304
	H355	H	0.086870	0.966542	-0.049026
	H356	H	0.104264	0.975656	-0.039324
	O357	O	0.500575	0.476505	0.490678
	H358	H	0.493838	0.460572	0.489664
	H359	H	0.504137	0.468471	0.486689
	O360	O	1.135691	-0.000698	0.958888
	H361	H	1.116826	-0.010973	0.966561
	H362	H	1.143524	-0.004419	0.960371
	O363	O	0.483704	0.553982	0.515770
	H364	H	0.486236	0.551268	0.514737
	H365	H	0.484036	0.548106	0.517115
	O366	O	0.570399	0.433864	0.553288
	H367	H	0.571013	0.439632	0.567411
	H368	H	0.568088	0.430458	0.552762
	O369	O	0.943764	0.050987	-0.043868
	H370	H	0.945515	0.052952	-0.042011
	H371	H	0.946510	0.046736	-0.049234
	O372	O	0.534307	0.454491	0.453675
	H373	H	0.528828	0.455082	0.467936
	H374	H	0.540207	0.452844	0.457580
	O375	O	1.151889	-0.109243	0.935138
	H376	H	1.149543	-0.109500	0.927833
	H377	H	1.144892	-0.121884	0.937616
	O378	O	-0.074689	0.994456	-0.073449
	H379	H	-0.078451	1.008487	-0.082636
	H380	H	-0.076666	0.988308	-0.073457
	O381	O	-0.135966	1.129523	0.972097
	H382	H	-0.129283	1.130222	0.969992
	H383	H	-0.143405	1.146246	0.972982
	O384	O	1.066085	1.036291	-0.103049
	H385	H	1.067968	1.033921	-0.098663
	H386	H	1.068210	1.025112	-0.113561
	O387	O	0.923457	0.088992	0.929072
	H388	H	0.926018	0.103011	0.925301
	H389	H	0.919832	0.085585	0.937062
	O390	O	0.968540	0.974050	-0.096518
	H391	H	0.976151	0.964545	-0.094278
	H392	H	0.963110	0.969341	-0.085536
	O393	O	-0.134737	0.831522	-0.001227
	H394	H	-0.141614	0.840675	-0.008222
	H395	H	-0.134043	0.831452	0.003350
