data_Molecule from HDF5

_cell_length_a		16.119502
_cell_length_b		16.311806
_cell_length_c		16.161607
_cell_angle_alpha	89.977445
_cell_angle_beta	89.916261
_cell_angle_gamma	89.722319
_symmetry_space_group_name_H-M	'P 1'
_symmetry_Int_Tables_number		1

loop_
	_symmetry_equiv_pos_as_xyz
	x,y,z

loop_
	_atom_site_label
	_atom_site_type_symbol
	_atom_site_fract_x
	_atom_site_fract_y
	_atom_site_fract_z
	H0	H	0.386455	0.835295	0.708759
	H1	H	0.584935	0.161421	0.705323
	H2	H	0.589385	0.836605	0.273799
	H3	H	0.387472	0.162604	0.277841
	H4	H	0.700167	0.402058	0.828241
	H5	H	0.700696	0.600467	0.156115
	H6	H	0.271787	0.598472	0.827485
	H7	H	0.273321	0.401793	0.157120
	H8	H	0.824813	0.715740	0.389499
	H9	H	0.151848	0.714105	0.594099
	H10	H	0.824457	0.281085	0.593819
	H11	H	0.151809	0.280576	0.391193
	H12	H	0.823462	0.398191	0.707118
	H13	H	0.153608	0.593963	0.704774
	H14	H	0.822493	0.596181	0.280276
	H15	H	0.151634	0.396797	0.277426
	H16	H	0.381459	0.717597	0.829698
	H17	H	0.585469	0.714105	0.156272
	H18	H	0.589865	0.283177	0.829256
	H19	H	0.384553	0.283515	0.155709
	H20	H	0.702808	0.835522	0.390870
	H21	H	0.701470	0.160517	0.590404
	H22	H	0.273827	0.834032	0.590818
	H23	H	0.270752	0.161217	0.393223
	H24	H	0.888563	0.333917	0.206118
	H25	H	0.086127	0.661509	0.208698
	H26	H	0.090493	0.334981	0.776853
	H27	H	0.887075	0.659912	0.775225
	H28	H	0.201245	0.899416	0.326645
	H29	H	0.198718	0.094054	0.656525
	H30	H	0.773879	0.095703	0.326870
	H31	H	0.774872	0.899916	0.655521
	H32	H	0.321828	0.215343	0.893421
	H33	H	0.651472	0.213985	0.092643
	H34	H	0.321371	0.785201	0.093045
	H35	H	0.649284	0.780916	0.888537
	H36	H	0.321061	0.904455	0.205568
	H37	H	0.652182	0.096188	0.204802
	H38	H	0.320731	0.097253	0.778958
	H39	H	0.651857	0.900300	0.779538
	H40	H	0.886184	0.212918	0.328416
	H41	H	0.088124	0.211036	0.655796
	H42	H	0.090841	0.780758	0.328189
	H43	H	0.888295	0.783526	0.655151
	H44	H	0.203234	0.335042	0.893565
	H45	H	0.200617	0.661628	0.091967
	H46	H	0.771652	0.335593	0.091460
	H47	H	0.772487	0.661840	0.892012
	H48	H	0.386253	0.114290	0.576107
	H49	H	0.588784	0.877396	0.588740
	H50	H	0.574523	0.114320	0.396001
	H51	H	0.394105	0.884160	0.405581
	H52	H	0.571405	0.406641	0.108381
	H53	H	0.579841	0.589048	0.875183
	H54	H	0.395131	0.589907	0.107760
	H55	H	0.391177	0.408104	0.873154
	H56	H	0.103220	0.587197	0.406271
	H57	H	0.870501	0.589507	0.583764
	H58	H	0.103709	0.405781	0.580566
	H59	H	0.867252	0.403556	0.394978
	H60	H	0.107821	0.403818	0.589538
	H61	H	0.870102	0.591743	0.582767
	H62	H	0.106534	0.584334	0.396283
	H63	H	0.868880	0.399394	0.403973
	H64	H	0.395998	0.596076	0.110201
	H65	H	0.574900	0.592704	0.874765
	H66	H	0.581016	0.400056	0.113817
	H67	H	0.398848	0.410207	0.876884
	H68	H	0.580882	0.114436	0.405708
	H69	H	0.574202	0.880870	0.590843
	H70	H	0.388887	0.118561	0.594773
	H71	H	0.388931	0.879255	0.393627
	H72	H	0.889390	0.614036	0.077996
	H73	H	0.077513	0.378778	0.096560
	H74	H	0.075728	0.615195	0.894056
	H75	H	0.886928	0.378760	0.898405
	H76	H	0.083360	0.904030	0.610805
	H77	H	0.077855	0.097330	0.372517
	H78	H	0.885690	0.093178	0.613331
	H79	H	0.895022	0.899618	0.371005
	H80	H	0.604441	0.091648	0.898162
	H81	H	0.368200	0.094439	0.086812
	H82	H	0.600862	0.905293	0.070849
	H83	H	0.371484	0.914831	0.904647
	H84	H	0.603631	0.915715	0.089105
	H85	H	0.368853	0.094974	0.083561
	H86	H	0.604730	0.093229	0.898781
	H87	H	0.366216	0.907922	0.893496
	H88	H	0.895681	0.079580	0.605942
	H89	H	0.086617	0.088103	0.371334
	H90	H	0.077766	0.907646	0.607900
	H91	H	0.892996	0.907834	0.373644
	H92	H	0.075745	0.612573	0.903273
	H93	H	0.074561	0.385967	0.077556
	H94	H	0.887985	0.618744	0.094476
	H95	H	0.900506	0.381013	0.893724
	H96	H	0.403414	0.111351	0.584311
	H97	H	0.580451	0.882336	0.577724
	H98	H	0.586325	0.118129	0.395304
	H99	H	0.401817	0.882017	0.394590
	H100	H	0.582408	0.411365	0.110054
	H101	H	0.580215	0.594216	0.873453
	H102	H	0.390683	0.593805	0.111248
	H103	H	0.397450	0.402151	0.873229
	H104	H	0.107564	0.594769	0.400052
	H105	H	0.871496	0.589561	0.582275
	H106	H	0.107771	0.397708	0.582499
	H107	H	0.871142	0.408139	0.402899
	H108	H	0.904295	0.612376	0.087759
	H109	H	0.092581	0.379517	0.082706
	H110	H	0.084361	0.616172	0.898644
	H111	H	0.896693	0.384171	0.908175
	H112	H	0.077616	0.899986	0.610434
	H113	H	0.074220	0.085351	0.376118
	H114	H	0.903265	0.097234	0.609596
	H115	H	0.900038	0.905165	0.374134
	H116	H	0.604509	0.091101	0.900132
	H117	H	0.369379	0.092533	0.084760
	H118	H	0.608459	0.894898	0.086905
	H119	H	0.367582	0.901172	0.905413
	C120	C	0.364651	0.006566	0.613930
	C121	C	0.608820	0.988678	0.613833
	C122	C	0.609445	0.007491	0.369599
	C123	C	0.365773	0.990009	0.369955
	C124	C	0.608424	0.377471	0.002100
	C125	C	0.607067	0.620815	0.983431
	C126	C	0.364051	0.621738	0.001239
	C127	C	0.366094	0.378117	0.983097
	C128	C	-0.002982	0.618477	0.371332
	C129	C	0.979483	0.618868	0.612977
	C130	C	-0.002717	0.374188	0.613854
	C131	C	0.978232	0.374952	0.371348
	C132	C	0.865068	0.506989	0.115154
	C133	C	0.109689	0.489376	0.115239
	C134	C	0.109034	0.506851	0.870272
	C135	C	0.865489	0.489299	0.870663
	C136	C	0.109635	0.875311	0.500707
	C137	C	0.108480	0.118509	0.482356
	C138	C	0.865734	0.118766	0.500799
	C139	C	0.866861	0.875759	0.481761
	C140	C	0.495307	0.120866	0.870452
	C141	C	0.478192	0.121594	0.113592
	C142	C	0.495317	0.878008	0.112305
	C143	C	0.477446	0.877544	0.871060
	C144	C	0.366564	0.883863	0.670312
	C145	C	0.605771	0.112056	0.668459
	C146	C	0.608375	0.885076	0.312783
	C147	C	0.367253	0.113591	0.315295
	C148	C	0.663682	0.380576	0.877875
	C149	C	0.662609	0.619353	0.107150
	C150	C	0.308397	0.619504	0.877236
	C151	C	0.310642	0.381023	0.107308
	C152	C	0.873603	0.676224	0.371356
	C153	C	0.102764	0.675183	0.612996
	C154	C	0.873506	0.319101	0.613138
	C155	C	0.102422	0.318653	0.371584
	C156	C	0.873100	0.377236	0.669837
	C157	C	0.103837	0.615463	0.668138
	C158	C	0.872311	0.616435	0.317060
	C159	C	0.102576	0.376824	0.315422
	C160	C	0.363597	0.678410	0.878248
	C161	C	0.605427	0.676170	0.107016
	C162	C	0.608790	0.321297	0.878420
	C163	C	0.366119	0.322245	0.106792
	C164	C	0.665182	0.884432	0.370772
	C165	C	0.663774	0.111689	0.610987
	C166	C	0.310250	0.883261	0.611711
	C167	C	0.309565	0.112837	0.372797
	C168	C	0.867637	0.383321	0.169393
	C169	C	0.106520	0.612416	0.170853
	C170	C	0.109323	0.383842	0.814817
	C171	C	0.867225	0.611501	0.813756
	C172	C	0.164737	0.878339	0.376355
	C173	C	0.162389	0.114915	0.606904
	C174	C	0.811303	0.115976	0.376408
	C175	C	0.811759	0.878644	0.606066
	C176	C	0.370892	0.176562	0.872911
	C177	C	0.602273	0.175906	0.111953
	C178	C	0.370972	0.822968	0.112376
	C179	C	0.600607	0.820044	0.870503
	C180	C	0.370486	0.882374	0.168136
	C181	C	0.602771	0.117601	0.167958
	C182	C	0.370660	0.118091	0.815890
	C183	C	0.601873	0.879636	0.816002
	C184	C	0.866691	0.174796	0.377359
	C185	C	0.107230	0.173259	0.606525
	C186	C	0.109362	0.819464	0.377010
	C187	C	0.867948	0.820683	0.605807
	C188	C	0.165676	0.383907	0.872582
	C189	C	0.163518	0.612683	0.112595
	C190	C	0.809311	0.384243	0.112409
	C191	C	0.810570	0.612482	0.872350
	C192	C	0.386433	0.092399	0.591471
	C193	C	0.587474	0.902511	0.592078
	C194	C	0.587137	0.093306	0.392266
	C195	C	0.388305	0.904234	0.391498
	C196	C	0.585077	0.399439	0.088449
	C197	C	0.584907	0.598438	0.896782
	C198	C	0.387204	0.599504	0.087572
	C199	C	0.389189	0.400327	0.896752
	C200	C	0.083530	0.595430	0.394154
	C201	C	0.892960	0.596676	0.589815
	C202	C	0.084050	0.395991	0.590954
	C203	C	0.891501	0.397040	0.393984
	C204	C	0.887324	0.592711	0.093165
	C205	C	0.088039	0.403680	0.092532
	C206	C	0.085527	0.592361	0.892189
	C207	C	0.888068	0.403515	0.893481
	C208	C	0.086612	0.897461	0.587429
	C209	C	0.086278	0.096720	0.395750
	C210	C	0.888289	0.096619	0.587413
	C211	C	0.889376	0.897767	0.395292
	C212	C	0.582305	0.098613	0.892569
	C213	C	0.391312	0.100238	0.091520
	C214	C	0.581883	0.899037	0.089284
	C215	C	0.390763	0.901029	0.894472
	Zn216	Zn	0.486640	-0.001876	0.742823
	Zn217	Zn	0.487170	-0.000278	0.241080
	Zn218	Zn	0.736087	0.499696	-0.007191
	Zn219	Zn	0.237542	0.498964	-0.008465
	Zn220	Zn	-0.011631	0.747682	0.491547
	Zn221	Zn	-0.012262	0.246653	0.492044
	Zn222	Zn	-0.011772	0.497014	0.741598
	Zn223	Zn	-0.012560	0.497269	0.243959
	Zn224	Zn	0.485877	0.748855	-0.008173
	Zn225	Zn	0.487251	0.249706	-0.007572
	Zn226	Zn	0.738085	-0.002696	0.491380
	Zn227	Zn	0.236421	-0.002613	0.491787
	N228	N	0.399599	0.961532	0.671983
	N229	N	0.572374	0.034554	0.670186
	N230	N	0.574501	0.962692	0.311772
	N231	N	0.401348	0.036159	0.313292
	N232	N	0.663823	0.414742	0.955788
	N233	N	0.663861	0.585613	0.029033
	N234	N	0.308507	0.584866	0.954880
	N235	N	0.310674	0.415134	0.029428
	N236	N	0.952223	0.677361	0.404584
	N237	N	0.024481	0.677143	0.579339
	N238	N	0.951850	0.317027	0.579270
	N239	N	0.024053	0.317444	0.405799
	N240	N	0.951234	0.410660	0.670400
	N241	N	0.025980	0.580893	0.668245
	N242	N	0.949972	0.581130	0.316939
	N243	N	0.024663	0.411134	0.315129
	N244	N	0.397299	0.680028	0.956340
	N245	N	0.571735	0.677246	0.028991
	N246	N	0.575022	0.319397	0.956630
	N247	N	0.399972	0.320298	0.028681
	N248	N	0.665999	0.961488	0.405417
	N249	N	0.666066	0.033926	0.577856
	N250	N	0.308841	0.960586	0.577338
	N251	N	0.308324	0.035035	0.405842
	N252	N	0.901289	0.460727	0.171586
	N253	N	0.073749	0.534670	0.172358
	N254	N	0.074853	0.461177	0.813042
	N255	N	0.900898	0.533934	0.812654
	N256	N	0.164948	0.912377	0.454414
	N257	N	0.163169	0.081301	0.528840
	N258	N	0.810428	0.081838	0.454282
	N259	N	0.810733	0.912143	0.527959
	N260	N	0.449464	0.178733	0.905747
	N261	N	0.523567	0.178634	0.079027
	N262	N	0.449468	0.820209	0.078454
	N263	N	0.522028	0.818750	0.904114
	N264	N	0.448684	0.915837	0.168504
	N265	N	0.524532	0.084571	0.169125
	N266	N	0.449089	0.084295	0.814224
	N267	N	0.524138	0.914684	0.816368
	N268	N	0.899858	0.176547	0.455657
	N269	N	0.074447	0.175709	0.527972
	N270	N	0.075903	0.817565	0.455338
	N271	N	0.901350	0.818811	0.527563
	N272	N	0.165824	0.461372	0.906353
	N273	N	0.165831	0.535249	0.078565
	N274	N	0.807589	0.462022	0.079321
	N275	N	0.809203	0.535367	0.907007
	O276	O	0.388521	0.480593	0.482546
	H277	H	0.405613	0.482893	0.488098
	H278	H	0.398506	0.472250	0.478916
	O279	O	0.500518	0.666496	0.371112
	H280	H	0.516338	0.676052	0.380789
	H281	H	0.497487	0.672401	0.374372
	O282	O	0.949496	1.103181	-0.051453
	H283	H	0.951113	1.106323	-0.060791
	H284	H	0.952772	1.100522	-0.047867
	O285	O	0.958187	-0.014657	0.943299
	H286	H	0.965622	-0.010700	0.952820
	H287	H	0.958196	-0.016942	0.928585
	O288	O	0.418047	0.472689	0.503762
	H289	H	0.422688	0.465541	0.491891
	H290	H	0.417146	0.457067	0.507424
	O291	O	0.412268	0.338818	0.476965
	H292	H	0.409628	0.326881	0.480692
	H293	H	0.412331	0.347218	0.465822
	O294	O	0.451225	0.498460	0.625325
	H295	H	0.445378	0.501516	0.631332
	H296	H	0.445821	0.497581	0.628348
	O297	O	0.098173	-0.020441	0.975098
	H298	H	0.099159	-0.021284	0.978509
	H299	H	0.096794	-0.034333	0.984299
	O300	O	0.605472	0.516536	0.439418
	H301	H	0.610302	0.522689	0.440411
	H302	H	0.597315	0.517660	0.435502
	O303	O	1.042225	0.959368	-0.049903
	H304	H	1.053796	0.959903	-0.060053
	H305	H	1.037272	0.966711	-0.054299
	O306	O	-0.114432	0.918236	0.987417
	H307	H	-0.115836	0.934939	0.984848
	H308	H	-0.118150	0.918628	0.996332
	O309	O	0.533058	0.487124	0.401501
	H310	H	0.539522	0.485212	0.395138
	H311	H	0.531706	0.479994	0.411586
	O312	O	-0.048854	-0.016854	-0.046783
	H313	H	-0.049010	-0.006860	-0.049471
	H314	H	-0.061942	-0.021365	-0.037716
	O315	O	0.986743	-0.046512	-0.016221
	H316	H	0.984811	-0.048809	-0.020514
	H317	H	0.981561	-0.048457	-0.014563
	O318	O	0.975763	1.121448	1.010347
	H319	H	0.973828	1.122387	1.013026
	H320	H	0.976770	1.128198	1.001331
	O321	O	-0.000081	-0.070722	0.941442
	H322	H	0.007460	-0.084779	0.940985
	H323	H	-0.004531	-0.077184	0.937504
	O324	O	0.561160	0.549445	0.490401
	H325	H	0.563666	0.540100	0.494902
	H326	H	0.564789	0.555252	0.493587
	O327	O	0.083789	-0.021518	-0.018526
	H328	H	0.095458	-0.022382	-0.028364
	H329	H	0.079587	-0.028864	-0.008123
	O330	O	0.595189	0.470091	0.549914
	H331	H	0.612007	0.475189	0.558718
	H332	H	0.589567	0.476664	0.538777
	O333	O	0.602714	0.618021	1.608220
	H334	H	0.579212	0.635035	1.610126
	H335	H	0.610748	0.613901	1.593967
	O336	O	0.543831	-0.574906	0.442988
	H337	H	0.543811	-0.564045	0.452083
	H338	H	0.530680	-0.589212	0.424432
	O339	O	0.506518	0.473055	0.478461
	H340	H	0.519768	0.476561	0.476326
	H341	H	0.504670	0.463303	0.483368
	O342	O	0.853656	1.027450	0.987568
	H343	H	0.852432	1.035194	0.990119
	H344	H	0.849276	1.024518	0.988401
	O345	O	1.373579	1.606922	-0.562335
	H346	H	1.374288	1.611129	-0.559606
	H347	H	1.372048	1.603735	-0.566466
	O348	O	0.599032	0.427785	0.463261
	H349	H	0.600678	0.432977	0.464464
	H350	H	0.597139	0.428688	0.478381
	O351	O	0.990749	1.084050	1.018014
	H352	H	0.999258	1.078765	1.018714
	H353	H	0.994152	1.089787	1.000890
	O354	O	0.542078	0.405843	0.488122
	H355	H	0.536652	0.390741	0.496542
	H356	H	0.520553	0.406469	0.480834
	O357	O	1.069506	-0.060452	1.017308
	H358	H	1.062738	-0.059127	1.013467
	H359	H	1.066736	-0.057532	1.014545
	O360	O	0.991390	0.038827	-0.042667
	H361	H	1.000152	0.039585	-0.043816
	H362	H	0.983973	0.035757	-0.029948
	O363	O	0.358160	0.555263	0.395229
	H364	H	0.339995	0.567959	0.384707
	H365	H	0.377590	0.565662	0.383059
	O366	O	0.898833	0.918589	1.059905
	H367	H	0.907582	0.927175	1.062996
	H368	H	0.890223	0.924470	1.059798
	O369	O	0.472323	0.524733	1.528355
	H370	H	0.476952	0.529716	1.535382
	H371	H	0.464155	0.531864	1.517059
	O372	O	-0.031491	0.008058	-0.024506
	H373	H	-0.036162	0.013843	-0.011625
	H374	H	-0.037226	0.008945	-0.025243
	O375	O	1.567071	0.477968	0.620822
	H376	H	1.571870	0.495344	0.622408
	H377	H	1.556731	0.467925	0.613206
	O378	O	0.367978	0.460106	0.584201
	H379	H	0.356490	0.441505	0.588020
	H380	H	0.373344	0.463086	0.586073
	O381	O	0.445320	0.513613	0.537689
	H382	H	0.446853	0.510726	0.531662
	H383	H	0.435897	0.513466	0.550460
