data_Molecule from HDF5

_cell_length_a		16.167475
_cell_length_b		16.262390
_cell_length_c		16.341610
_cell_angle_alpha	89.949758
_cell_angle_beta	89.936889
_cell_angle_gamma	90.166305
_symmetry_space_group_name_H-M	'P 1'
_symmetry_Int_Tables_number		1

loop_
	_symmetry_equiv_pos_as_xyz
	x,y,z

loop_
	_atom_site_label
	_atom_site_type_symbol
	_atom_site_fract_x
	_atom_site_fract_y
	_atom_site_fract_z
	H0	H	0.408120	0.820761	0.726632
	H1	H	0.614775	0.144111	0.726531
	H2	H	0.616390	0.820141	0.287971
	H3	H	0.409750	0.143963	0.292629
	H4	H	0.726793	0.383444	0.847004
	H5	H	0.726046	0.584068	0.171852
	H6	H	0.292191	0.581533	0.847170
	H7	H	0.291805	0.379201	0.171159
	H8	H	0.846662	0.698429	0.408364
	H9	H	0.172744	0.698556	0.614854
	H10	H	0.847041	0.263246	0.612075
	H11	H	0.174237	0.268034	0.410819
	H12	H	0.845605	0.379003	0.726550
	H13	H	0.170755	0.584043	0.730913
	H14	H	0.846390	0.583867	0.293252
	H15	H	0.170794	0.377717	0.291345
	H16	H	0.406766	0.699470	0.847378
	H17	H	0.613175	0.703091	0.169910
	H18	H	0.611540	0.265846	0.846437
	H19	H	0.406249	0.262298	0.169792
	H20	H	0.726526	0.817955	0.407441
	H21	H	0.727912	0.144004	0.607937
	H22	H	0.292825	0.820272	0.612084
	H23	H	0.295639	0.145057	0.409837
	H24	H	0.906000	0.318225	0.227312
	H25	H	0.112388	0.642296	0.229124
	H26	H	0.109478	0.319151	0.793876
	H27	H	0.902597	0.641667	0.790267
	H28	H	0.225457	0.882438	0.347509
	H29	H	0.226815	0.081816	0.672062
	H30	H	0.795797	0.080645	0.346417
	H31	H	0.791430	0.878838	0.671073
	H32	H	0.345263	0.196403	0.907409
	H33	H	0.672685	0.198567	0.107663
	H34	H	0.345441	0.767299	0.110215
	H35	H	0.672123	0.765618	0.906917
	H36	H	0.347164	0.879089	0.227646
	H37	H	0.673222	0.085358	0.225281
	H38	H	0.346706	0.084233	0.791948
	H39	H	0.672409	0.880116	0.791871
	H40	H	0.910839	0.198396	0.347749
	H41	H	0.113931	0.200028	0.671669
	H42	H	0.113561	0.763100	0.348886
	H43	H	0.907149	0.762674	0.672052
	H44	H	0.223477	0.317961	0.910352
	H45	H	0.226130	0.643702	0.112322
	H46	H	0.791058	0.318981	0.111032
	H47	H	0.795526	0.645081	0.911176
	H48	H	0.423882	0.095795	0.596820
	H49	H	0.604212	0.865317	0.597738
	H50	H	0.604144	0.097359	0.416699
	H51	H	0.416584	0.865097	0.417951
	H52	H	0.598810	0.400973	0.121040
	H53	H	0.599564	0.564636	0.898084
	H54	H	0.422210	0.576770	0.123537
	H55	H	0.414496	0.385900	0.891258
	H56	H	0.123167	0.572733	0.426142
	H57	H	0.894991	0.570340	0.598572
	H58	H	0.129578	0.388828	0.611129
	H59	H	0.889792	0.381564	0.416967
	H60	H	0.126222	0.386099	0.598290
	H61	H	0.893344	0.568730	0.601374
	H62	H	0.124492	0.563746	0.417310
	H63	H	0.895018	0.390872	0.427392
	H64	H	0.414511	0.577324	0.126941
	H65	H	0.592757	0.580864	0.895562
	H66	H	0.589104	0.384656	0.121826
	H67	H	0.413567	0.393395	0.893297
	H68	H	0.601189	0.096820	0.415043
	H69	H	0.599913	0.864367	0.606547
	H70	H	0.413623	0.101398	0.599800
	H71	H	0.420347	0.865639	0.415358
	H72	H	0.919128	0.596850	0.101246
	H73	H	0.098148	0.367009	0.098251
	H74	H	0.101689	0.598683	0.917215
	H75	H	0.925273	0.368756	0.923154
	H76	H	0.103805	0.888248	0.626294
	H77	H	0.103225	0.072200	0.395195
	H78	H	0.928083	0.079255	0.624641
	H79	H	0.922535	0.882886	0.393596
	H80	H	0.624519	0.066055	0.916536
	H81	H	0.396850	0.065486	0.096648
	H82	H	0.627726	0.883054	0.096214
	H83	H	0.389999	0.892391	0.907120
	H84	H	0.621419	0.898664	0.092346
	H85	H	0.391023	0.070306	0.109278
	H86	H	0.629017	0.078567	0.912090
	H87	H	0.390452	0.882511	0.921033
	H88	H	0.910091	0.074206	0.628028
	H89	H	0.099645	0.076749	0.393825
	H90	H	0.101335	0.892810	0.625707
	H91	H	0.914414	0.890337	0.393713
	H92	H	0.096595	0.597002	0.917457
	H93	H	0.102432	0.363766	0.102796
	H94	H	0.915931	0.598542	0.103809
	H95	H	0.911014	0.365057	0.924579
	H96	H	0.422369	0.100420	0.607233
	H97	H	0.594648	0.867978	0.599681
	H98	H	0.601725	0.095949	0.418336
	H99	H	0.419775	0.867403	0.419290
	H100	H	0.607149	0.385905	0.127693
	H101	H	0.609264	0.577617	0.891243
	H102	H	0.416826	0.569662	0.123233
	H103	H	0.420245	0.390565	0.893993
	H104	H	0.128335	0.575603	0.414905
	H105	H	0.893211	0.572254	0.600689
	H106	H	0.124485	0.398182	0.603315
	H107	H	0.892259	0.395572	0.414479
	H108	H	0.920199	0.597842	0.105214
	H109	H	0.095375	0.364675	0.103864
	H110	H	0.100202	0.596481	0.921788
	H111	H	0.917878	0.362592	0.912251
	H112	H	0.099065	0.888224	0.625248
	H113	H	0.106087	0.077495	0.393041
	H114	H	0.922511	0.062069	0.620462
	H115	H	0.924428	0.893019	0.397388
	H116	H	0.625241	0.077201	0.924831
	H117	H	0.391965	0.079716	0.097031
	H118	H	0.628024	0.895948	0.107489
	H119	H	0.396023	0.898507	0.922372
	C120	C	0.389185	-0.008440	0.631199
	C121	C	0.631696	0.972951	0.630982
	C122	C	0.632767	-0.010414	0.386537
	C123	C	0.389314	0.973406	0.388142
	C124	C	0.629832	0.360909	0.016827
	C125	C	0.631112	0.604895	1.001142
	C126	C	0.387361	0.603688	0.017692
	C127	C	0.386233	0.359583	1.000074
	C128	C	0.017663	0.601730	0.389226
	C129	C	1.000937	0.601700	0.631842
	C130	C	0.018584	0.359678	0.633125
	C131	C	1.000584	0.359926	0.389520
	C132	C	0.887223	0.489901	0.132787
	C133	C	0.129981	0.472355	0.132071
	C134	C	0.129447	0.489971	0.889071
	C135	C	0.887539	0.472794	0.889624
	C136	C	0.131915	0.859673	0.518716
	C137	C	0.132886	0.104868	0.501017
	C138	C	0.889698	0.102416	0.517660
	C139	C	0.888874	0.858409	0.501348
	C140	C	0.518172	0.103601	0.887595
	C141	C	0.501142	0.102894	0.130252
	C142	C	0.518258	0.861497	0.130178
	C143	C	0.500330	0.861164	0.886934
	C144	C	0.388606	0.869541	0.688544
	C145	C	0.633329	0.095337	0.687637
	C146	C	0.634156	0.868187	0.327836
	C147	C	0.390040	0.095533	0.331424
	C148	C	0.688009	0.362719	0.895192
	C149	C	0.688035	0.603957	0.123052
	C150	C	0.330558	0.601944	0.895679
	C151	C	0.329611	0.359780	0.122292
	C152	C	0.895389	0.659394	0.389333
	C153	C	0.123800	0.659452	0.632899
	C154	C	0.895813	0.301771	0.632095
	C155	C	0.124417	0.305031	0.390540
	C156	C	0.894914	0.359344	0.688832
	C157	C	0.122720	0.602529	0.690809
	C158	C	0.895246	0.602459	0.331820
	C159	C	0.122933	0.359580	0.331123
	C160	C	0.387447	0.660779	0.895778
	C161	C	0.631621	0.662974	0.122252
	C162	C	0.630521	0.304184	0.895155
	C163	C	0.386832	0.301649	0.121595
	C164	C	0.689262	0.866962	0.387276
	C165	C	0.689532	0.095483	0.628680
	C166	C	0.331383	0.869233	0.631228
	C167	C	0.333415	0.095980	0.389870
	C168	C	0.886582	0.367199	0.189257
	C169	C	0.131244	0.593873	0.190086
	C170	C	0.128922	0.367612	0.832305
	C171	C	0.885589	0.594094	0.830477
	C172	C	0.188024	0.861852	0.396450
	C173	C	0.188742	0.102207	0.623484
	C174	C	0.833690	0.101048	0.395337
	C175	C	0.830442	0.859175	0.622920
	C176	C	0.394679	0.159161	0.887908
	C177	C	0.623941	0.160340	0.128128
	C178	C	0.394952	0.804963	0.129863
	C179	C	0.623103	0.803806	0.887340
	C180	C	0.395751	0.860841	0.188229
	C181	C	0.624214	0.103779	0.186450
	C182	C	0.395560	0.103337	0.830168
	C183	C	0.623351	0.861070	0.830218
	C184	C	0.890799	0.159745	0.396134
	C185	C	0.132601	0.161144	0.623246
	C186	C	0.132172	0.802470	0.397109
	C187	C	0.888158	0.801323	0.623347
	C188	C	0.185754	0.367136	0.890248
	C189	C	0.187882	0.594499	0.131808
	C190	C	0.829610	0.367545	0.131175
	C191	C	0.831886	0.595669	0.890657
	C192	C	0.413018	0.076948	0.607965
	C193	C	0.606907	0.888165	0.607726
	C194	C	0.609365	0.074504	0.409878
	C195	C	0.412385	0.888089	0.410735
	C196	C	0.605437	0.383830	0.101540
	C197	C	0.607416	0.581311	0.916785
	C198	C	0.410920	0.581097	0.102551
	C199	C	0.409396	0.383266	0.915115
	C200	C	0.103281	0.577764	0.412612
	C201	C	0.915770	0.577366	0.607280
	C202	C	0.104401	0.383902	0.610689
	C203	C	0.914624	0.382804	0.412832
	C204	C	0.911386	0.575679	0.110147
	C205	C	0.105683	0.387279	0.108433
	C206	C	0.106318	0.575086	0.912238
	C207	C	0.911303	0.387600	0.912996
	C208	C	0.108279	0.882857	0.603645
	C209	C	0.109739	0.082343	0.416174
	C210	C	0.913244	0.078815	0.602311
	C211	C	0.913118	0.881852	0.416827
	C212	C	0.603939	0.080705	0.910946
	C213	C	0.415497	0.078875	0.107589
	C214	C	0.603655	0.885571	0.105879
	C215	C	0.414397	0.884298	0.910100
	Zn216	Zn	0.509854	-0.017122	0.759479
	Zn217	Zn	0.510754	-0.018407	0.258904
	Zn218	Zn	0.759848	0.482241	0.010024
	Zn219	Zn	0.258173	0.481580	0.009728
	Zn220	Zn	0.010694	0.729841	0.510296
	Zn221	Zn	0.010633	0.233036	0.510417
	Zn222	Zn	0.007632	0.481004	0.760982
	Zn223	Zn	0.008844	0.480136	0.260660
	Zn224	Zn	0.508841	0.734079	0.008910
	Zn225	Zn	0.508152	0.231019	0.008001
	Zn226	Zn	0.759788	-0.019442	0.508510
	Zn227	Zn	0.260520	-0.017882	0.509726
	N228	N	0.423831	0.946642	0.688606
	N229	N	0.598410	0.018167	0.689287
	N230	N	0.599472	0.945233	0.327354
	N231	N	0.424167	0.018277	0.330162
	N232	N	0.687658	0.397107	0.971864
	N233	N	0.687883	0.568338	0.046829
	N234	N	0.330391	0.567246	0.972399
	N235	N	0.329166	0.395104	0.045703
	N236	N	0.972741	0.659281	0.424149
	N237	N	0.047024	0.658873	0.596748
	N238	N	0.973600	0.301729	0.598338
	N239	N	0.047405	0.305392	0.426281
	N240	N	0.972290	0.394530	0.689684
	N241	N	0.045306	0.567301	0.690215
	N242	N	0.972256	0.566933	0.331942
	N243	N	0.044785	0.393015	0.330392
	N244	N	0.422218	0.662130	0.972642
	N245	N	0.597000	0.663958	0.045584
	N246	N	0.594939	0.303138	0.971656
	N247	N	0.421177	0.301314	0.044670
	N248	N	0.688491	0.943438	0.423136
	N249	N	0.688757	0.018296	0.594221
	N250	N	0.331480	0.946186	0.596316
	N251	N	0.332646	0.018914	0.424300
	N252	N	0.921260	0.444691	0.190735
	N253	N	0.096278	0.516796	0.190521
	N254	N	0.094684	0.444929	0.831349
	N255	N	0.919598	0.516573	0.829792
	N256	N	0.188111	0.896492	0.473171
	N257	N	0.188838	0.067706	0.546642
	N258	N	0.832804	0.065907	0.471945
	N259	N	0.830583	0.893807	0.546170
	N260	N	0.471835	0.159412	0.922977
	N261	N	0.546238	0.159959	0.093937
	N262	N	0.472055	0.805246	0.094369
	N263	N	0.545531	0.803837	0.922037
	N264	N	0.473645	0.895093	0.188693
	N265	N	0.546795	0.068818	0.187904
	N266	N	0.473364	0.069218	0.829980
	N267	N	0.546144	0.895983	0.829958
	N268	N	0.924790	0.160731	0.473219
	N269	N	0.098568	0.163135	0.546132
	N270	N	0.097987	0.800980	0.474250
	N271	N	0.923711	0.800705	0.546794
	N272	N	0.186069	0.444065	0.924975
	N273	N	0.187292	0.517782	0.096448
	N274	N	0.829926	0.444849	0.096873
	N275	N	0.833088	0.519373	0.926771
	O276	O	0.583524	0.335934	0.355216
	H277	H	0.582424	0.334906	0.357786
	H278	H	0.597467	0.333400	0.346543
	O279	O	0.551320	0.392314	0.526910
	H280	H	0.543010	0.408959	0.523196
	H281	H	0.539428	0.378302	0.537223
	O282	O	0.975172	0.039095	0.037608
	H283	H	0.984258	0.037102	0.036020
	H284	H	0.978748	0.041818	0.027827
	O285	O	-0.149658	0.932755	0.063367
	H286	H	-0.152663	0.928917	0.074389
	H287	H	-0.155743	0.935439	0.060204
	O288	O	0.328801	0.545079	0.347302
	H289	H	0.325832	0.536377	0.341237
	H290	H	0.333073	0.541261	0.348499
	O291	O	0.328752	0.576619	0.477889
	H292	H	0.324911	0.567439	0.469545
	H293	H	0.339093	0.587624	0.484628
	O294	O	1.106769	1.077652	1.125390
	H295	H	1.105728	1.066939	1.129507
	H296	H	1.114766	1.066413	1.130557
	O297	O	0.016426	0.074918	0.036276
	H298	H	0.020321	0.082856	0.024057
	H299	H	0.014912	0.075205	0.027829
	O300	O	1.008236	0.046205	-0.120760
	H301	H	1.001676	0.044871	-0.120620
	H302	H	0.992332	0.044407	-0.113777
	O303	O	-0.061324	0.881071	1.181629
	H304	H	-0.062736	0.868353	1.178980
	H305	H	-0.060926	0.903801	1.183100
	O306	O	0.377929	0.554240	0.462947
	H307	H	0.384393	0.561742	0.467416
	H308	H	0.380640	0.533165	0.452072
	O309	O	1.107310	-0.127325	-0.048649
	H310	H	1.109367	-0.110813	-0.049057
	H311	H	1.100044	-0.131453	-0.045487
	O312	O	-0.047846	-0.104839	0.996910
	H313	H	-0.048883	-0.105044	0.998339
	H314	H	-0.044198	-0.097809	1.007806
	O315	O	0.178116	0.905440	-0.065661
	H316	H	0.180655	0.892335	-0.073785
	H317	H	0.182476	0.897493	-0.065713
	O318	O	0.380717	0.633674	0.597058
	H319	H	0.366276	0.648330	0.589710
	H320	H	0.393335	0.630488	0.596733
	O321	O	1.038274	-0.057747	-0.033248
	H322	H	1.020185	-0.064911	-0.033257
	H323	H	1.041016	-0.054312	-0.021615
	O324	O	-0.010347	1.145742	0.018186
	H325	H	0.005312	1.151857	0.012797
	H326	H	-0.006135	1.152577	0.016616
	O327	O	-0.362046	1.444846	0.475876
	H328	H	-0.374205	1.443964	0.477123
	H329	H	-0.356313	1.475778	0.478214
	O330	O	0.500356	0.590635	0.497679
	H331	H	0.479305	0.581031	0.496168
	H332	H	0.526022	0.587549	0.487930
	O333	O	0.116638	0.972586	1.107928
	H334	H	0.115161	0.974550	1.100213
	H335	H	0.119158	0.967822	1.107522
	O336	O	0.947399	0.830103	0.888821
	H337	H	0.949543	0.816127	0.880740
	H338	H	0.956024	0.829643	0.895097
	O339	O	0.407624	0.423338	-0.601386
	H340	H	0.416147	0.426591	-0.615681
	H341	H	0.424084	0.421800	-0.603181
	O342	O	0.998682	0.074329	0.081278
	H343	H	0.989389	0.074379	0.079782
	H344	H	0.993238	0.068012	0.075835
	O345	O	0.589369	0.457768	0.580308
	H346	H	0.593435	0.465706	0.574363
	H347	H	0.587533	0.466198	0.580109
	O348	O	0.993031	2.038995	0.965083
	H349	H	0.985979	2.056857	0.961079
	H350	H	0.992509	2.039956	0.968047
	O351	O	0.029166	0.956546	0.001205
	H352	H	0.031392	0.946136	-0.001468
	H353	H	0.033141	0.954371	0.002787
	O354	O	-0.154998	1.014125	0.844922
	H355	H	-0.152157	1.010771	0.840910
	H356	H	-0.156088	1.014702	0.836536
	O357	O	0.453206	0.363296	0.492543
	H358	H	0.446760	0.375265	0.496030
	H359	H	0.449183	0.362202	0.485680
	O360	O	0.133352	0.077037	0.067999
	H361	H	0.142219	0.080401	0.073397
	H362	H	0.126547	0.085489	0.073328
	O363	O	0.466967	0.486924	0.423501
	H364	H	0.473643	0.493051	0.414012
	H365	H	0.464257	0.479064	0.418534
	O366	O	0.630380	0.512367	0.598144
	H367	H	0.630466	0.532348	0.610196
	H368	H	0.629950	0.491396	0.624385
	O369	O	0.521218	0.453113	0.617603
	H370	H	0.512015	0.433981	0.615072
	H371	H	0.531241	0.445777	0.612259
	O372	O	0.499759	0.466262	0.483138
	H373	H	0.501799	0.470083	0.499438
	H374	H	0.490322	0.468986	0.468031
	O375	O	0.425416	0.422036	0.564615
	H376	H	0.416073	0.438632	0.565725
	H377	H	0.417809	0.419855	0.559309
	O378	O	0.589632	0.473449	0.420578
	H379	H	0.595210	0.475310	0.413520
	H380	H	0.600257	0.479588	0.429803
	O381	O	0.684366	0.507281	0.526596
	H382	H	0.683770	0.501295	0.535016
	H383	H	0.704984	0.507967	0.516216
	O384	O	0.047731	0.838942	0.037296
	H385	H	0.032027	0.838521	0.026759
	H386	H	0.048193	0.836408	0.041132
	O387	O	0.605901	0.384610	1.375455
	H388	H	0.619391	0.383588	1.386806
	H389	H	0.615167	0.399770	1.374457
	O390	O	-0.131466	0.902600	0.035085
	H391	H	-0.134501	0.913393	0.037662
	H392	H	-0.130194	0.906937	0.025539
	O393	O	0.474638	0.448981	-0.438326
	H394	H	0.460209	0.447365	-0.452493
	H395	H	0.474713	0.454126	-0.440683
	O396	O	0.581157	0.597858	0.658327
	H397	H	0.579048	0.589777	0.670143
	H398	H	0.562584	0.603734	0.653765
	O399	O	0.479003	1.682494	1.414020
	H400	H	0.464676	1.685533	1.429821
	H401	H	0.495076	1.689029	1.415122
	O402	O	0.994303	1.115052	0.902103
	H403	H	1.001695	1.114796	0.902080
	H404	H	0.991770	1.116066	0.893804
	O405	O	0.566696	0.462594	0.652874
	H406	H	0.554973	0.441920	0.647112
	H407	H	0.566540	0.463828	0.644448
