data_Molecule from HDF5

_cell_length_a		16.486746
_cell_length_b		16.147193
_cell_length_c		16.203367
_cell_angle_alpha	90.341073
_cell_angle_beta	89.681247
_cell_angle_gamma	89.987662
_symmetry_space_group_name_H-M	'P 1'
_symmetry_Int_Tables_number		1

loop_
	_symmetry_equiv_pos_as_xyz
	x,y,z

loop_
	_atom_site_label
	_atom_site_type_symbol
	_atom_site_fract_x
	_atom_site_fract_y
	_atom_site_fract_z
	H0	H	0.400561	0.819119	0.692497
	H1	H	0.597197	0.147525	0.695964
	H2	H	0.598984	0.819485	0.263566
	H3	H	0.397844	0.148353	0.266413
	H4	H	0.719960	0.379740	0.820999
	H5	H	0.716607	0.592232	0.144330
	H6	H	0.280591	0.589419	0.821575
	H7	H	0.278076	0.379170	0.143340
	H8	H	0.836721	0.698659	0.387590
	H9	H	0.158993	0.703038	0.583035
	H10	H	0.838012	0.267235	0.586188
	H11	H	0.158241	0.264619	0.379002
	H12	H	0.838327	0.385125	0.701720
	H13	H	0.159950	0.588167	0.699972
	H14	H	0.838431	0.588360	0.266005
	H15	H	0.158164	0.380632	0.261405
	H16	H	0.402397	0.695506	0.816319
	H17	H	0.596828	0.703082	0.143974
	H18	H	0.600435	0.268763	0.818321
	H19	H	0.396632	0.267981	0.144899
	H20	H	0.718369	0.821018	0.375078
	H21	H	0.715460	0.146690	0.584989
	H22	H	0.278998	0.822860	0.585240
	H23	H	0.276823	0.145280	0.375993
	H24	H	0.897922	0.321177	0.197908
	H25	H	0.097896	0.649855	0.198117
	H26	H	0.098005	0.320486	0.767565
	H27	H	0.901918	0.649592	0.771555
	H28	H	0.217474	0.877646	0.320345
	H29	H	0.216362	0.090782	0.643586
	H30	H	0.780166	0.089548	0.319873
	H31	H	0.777370	0.879729	0.641753
	H32	H	0.338765	0.202683	0.881292
	H33	H	0.660256	0.202162	0.082957
	H34	H	0.337276	0.768713	0.079052
	H35	H	0.659112	0.766782	0.877766
	H36	H	0.339537	0.878373	0.201929
	H37	H	0.659170	0.086909	0.199317
	H38	H	0.337709	0.083486	0.765311
	H39	H	0.659033	0.881703	0.761453
	H40	H	0.896296	0.202493	0.320005
	H41	H	0.096488	0.200423	0.645764
	H42	H	0.095551	0.769325	0.318740
	H43	H	0.900765	0.775201	0.647549
	H44	H	0.219739	0.323031	0.875621
	H45	H	0.217842	0.647271	0.086417
	H46	H	0.778066	0.323815	0.088928
	H47	H	0.781639	0.646974	0.881561
	H48	H	0.402454	0.103855	0.576419
	H49	H	0.587494	0.864733	0.579829
	H50	H	0.593713	0.102208	0.387674
	H51	H	0.403040	0.868383	0.395250
	H52	H	0.589623	0.391439	0.099603
	H53	H	0.591164	0.561894	0.869175
	H54	H	0.401727	0.576592	0.100424
	H55	H	0.408716	0.402170	0.869400
	H56	H	0.111844	0.572466	0.394123
	H57	H	0.881390	0.587445	0.578159
	H58	H	0.116481	0.391163	0.582073
	H59	H	0.886069	0.393390	0.397095
	H60	H	0.112550	0.386698	0.566896
	H61	H	0.886684	0.573829	0.572058
	H62	H	0.114173	0.574209	0.386141
	H63	H	0.885536	0.399230	0.390412
	H64	H	0.410266	0.569916	0.095188
	H65	H	0.585074	0.580056	0.866432
	H66	H	0.593711	0.397949	0.098847
	H67	H	0.415622	0.390861	0.867044
	H68	H	0.585202	0.098033	0.390823
	H69	H	0.582264	0.871690	0.561350
	H70	H	0.412647	0.099735	0.573321
	H71	H	0.406238	0.865719	0.385595
	H72	H	0.898523	0.604544	0.074711
	H73	H	0.084075	0.369002	0.076546
	H74	H	0.090615	0.602243	0.890095
	H75	H	0.911383	0.369317	0.894589
	H76	H	0.094334	0.890643	0.601264
	H77	H	0.088786	0.079290	0.364220
	H78	H	0.900503	0.075266	0.599460
	H79	H	0.918202	0.901333	0.370680
	H80	H	0.613817	0.069616	0.881316
	H81	H	0.387926	0.071629	0.067852
	H82	H	0.616035	0.890061	0.078347
	H83	H	0.380681	0.882408	0.886439
	H84	H	0.611569	0.889635	0.062347
	H85	H	0.385968	0.071575	0.077701
	H86	H	0.615747	0.083205	0.887187
	H87	H	0.386094	0.894271	0.893684
	H88	H	0.905828	0.068965	0.596328
	H89	H	0.094694	0.067368	0.366413
	H90	H	0.094295	0.901216	0.598009
	H91	H	0.909938	0.876956	0.361504
	H92	H	0.091709	0.600964	0.896149
	H93	H	0.088194	0.372116	0.062896
	H94	H	0.912499	0.602347	0.081081
	H95	H	0.906569	0.368574	0.896637
	H96	H	0.403237	0.100530	0.565765
	H97	H	0.601025	0.865056	0.564903
	H98	H	0.593274	0.099091	0.396791
	H99	H	0.412334	0.870348	0.393252
	H100	H	0.586943	0.397248	0.096488
	H101	H	0.603636	0.575502	0.861956
	H102	H	0.412605	0.581344	0.099046
	H103	H	0.402930	0.391290	0.863027
	H104	H	0.113667	0.580687	0.392034
	H105	H	0.882692	0.574927	0.587101
	H106	H	0.109782	0.402321	0.571856
	H107	H	0.882764	0.391084	0.388901
	H108	H	0.910428	0.598485	0.065707
	H109	H	0.097266	0.365018	0.072377
	H110	H	0.096509	0.603423	0.892853
	H111	H	0.907835	0.367489	0.891662
	H112	H	0.085014	0.895534	0.598412
	H113	H	0.082541	0.068989	0.369496
	H114	H	0.908795	0.077682	0.598581
	H115	H	0.893021	0.898166	0.361940
	H116	H	0.610247	0.072249	0.895520
	H117	H	0.383676	0.080441	0.072547
	H118	H	0.609874	0.903150	0.071022
	H119	H	0.382337	0.895582	0.878521
	C120	C	0.376671	-0.006935	0.601976
	C121	C	0.619727	0.975048	0.600481
	C122	C	0.620884	-0.008077	0.359542
	C123	C	0.376372	0.975351	0.360096
	C124	C	0.621026	0.363868	-0.008967
	C125	C	0.621359	0.605802	0.973317
	C126	C	0.378540	0.605600	-0.009490
	C127	C	0.377658	0.363296	0.973845
	C128	C	0.007033	0.606109	0.361930
	C129	C	0.990057	0.608782	0.607306
	C130	C	0.007000	0.362770	0.605281
	C131	C	0.989967	0.362620	0.360481
	C132	C	0.876694	0.494398	0.104910
	C133	C	0.119865	0.476692	0.102444
	C134	C	0.122142	0.494045	0.861445
	C135	C	0.879218	0.476365	0.863984
	C136	C	0.120559	0.863232	0.491601
	C137	C	0.118755	0.104424	0.473671
	C138	C	0.876071	0.105158	0.490646
	C139	C	0.877221	0.863483	0.472774
	C140	C	0.507167	0.105682	0.858810
	C141	C	0.491160	0.106265	0.103373
	C142	C	0.506965	0.862672	0.101691
	C143	C	0.489597	0.860937	0.856580
	C144	C	0.379260	0.869090	0.656461
	C145	C	0.617644	0.098317	0.657970
	C146	C	0.619288	0.868698	0.301731
	C147	C	0.377270	0.098652	0.303648
	C148	C	0.680088	0.361564	0.869153
	C149	C	0.677782	0.609375	0.095296
	C150	C	0.320597	0.606367	0.868936
	C151	C	0.318323	0.361743	0.095111
	C152	C	0.885253	0.661601	0.365640
	C153	C	0.110996	0.664925	0.603828
	C154	C	0.886276	0.305784	0.605528
	C155	C	0.110366	0.304140	0.360057
	C156	C	0.886448	0.364184	0.663348
	C157	C	0.111456	0.607512	0.661983
	C158	C	0.886193	0.606392	0.305309
	C159	C	0.110256	0.361923	0.301360
	C160	C	0.381014	0.659641	0.866480
	C161	C	0.618382	0.664913	0.095282
	C162	C	0.620609	0.306283	0.867963
	C163	C	0.377282	0.306112	0.095983
	C164	C	0.678903	0.869534	0.357191
	C165	C	0.676706	0.097798	0.602672
	C166	C	0.319060	0.870858	0.602585
	C167	C	0.317332	0.097431	0.358485
	C168	C	0.877910	0.370768	0.160694
	C169	C	0.118410	0.600155	0.160282
	C170	C	0.119461	0.370268	0.804481
	C171	C	0.881427	0.600209	0.809109
	C172	C	0.177885	0.860324	0.369004
	C173	C	0.176815	0.107793	0.595163
	C174	C	0.819127	0.107199	0.368481
	C175	C	0.818270	0.862901	0.594470
	C176	C	0.386767	0.163543	0.860756
	C177	C	0.611705	0.163834	0.102895
	C178	C	0.385763	0.806059	0.100044
	C179	C	0.610912	0.804623	0.857514
	C180	C	0.387002	0.860893	0.161228
	C181	C	0.611136	0.106608	0.161092
	C182	C	0.386156	0.104415	0.802855
	C183	C	0.610838	0.861909	0.799602
	C184	C	0.877142	0.163456	0.368506
	C185	C	0.117007	0.162505	0.596490
	C186	C	0.117204	0.806505	0.368072
	C187	C	0.879598	0.810532	0.597259
	C188	C	0.179863	0.371382	0.858834
	C189	C	0.178081	0.599050	0.104828
	C190	C	0.817865	0.372073	0.106600
	C191	C	0.821486	0.598853	0.863344
	C192	C	0.399475	0.079097	0.578702
	C193	C	0.596881	0.889371	0.575778
	C194	C	0.597426	0.077508	0.384537
	C195	C	0.400038	0.890346	0.384291
	C196	C	0.596929	0.388496	0.076169
	C197	C	0.599599	0.579927	0.888010
	C198	C	0.401568	0.582488	0.075878
	C199	C	0.401932	0.387481	0.888681
	C200	C	0.091364	0.582758	0.384326
	C201	C	0.905405	0.585610	0.585462
	C202	C	0.091033	0.386229	0.580752
	C203	C	0.906434	0.387199	0.385088
	C204	C	0.900136	0.579685	0.080981
	C205	C	0.096724	0.391256	0.077856
	C206	C	0.099447	0.579946	0.885941
	C207	C	0.901996	0.390549	0.887385
	C208	C	0.097903	0.888441	0.577054
	C209	C	0.095484	0.079119	0.388713
	C210	C	0.898478	0.081121	0.575754
	C211	C	0.900394	0.885589	0.386972
	C212	C	0.591266	0.082068	0.881379
	C213	C	0.407461	0.081872	0.079515
	C214	C	0.590707	0.887042	0.077649
	C215	C	0.405099	0.883863	0.879467
	Zn216	Zn	0.498592	-0.016803	0.728581
	Zn217	Zn	0.498628	-0.015457	0.232427
	Zn218	Zn	0.749746	0.484371	-0.016724
	Zn219	Zn	0.250085	0.485065	-0.017556
	Zn220	Zn	-0.001880	0.736075	0.483354
	Zn221	Zn	-0.002233	0.232813	0.482585
	Zn222	Zn	-0.000232	0.485357	0.734961
	Zn223	Zn	-0.001617	0.485400	0.231133
	Zn224	Zn	0.499071	0.733216	-0.020598
	Zn225	Zn	0.499692	0.235776	-0.017738
	Zn226	Zn	0.748476	-0.016168	0.480839
	Zn227	Zn	0.248283	-0.015523	0.481631
	N228	N	0.414453	0.946243	0.656180
	N229	N	0.582884	0.021015	0.656736
	N230	N	0.584152	0.945941	0.303055
	N231	N	0.413413	0.021985	0.304579
	N232	N	0.680584	0.396500	0.946668
	N233	N	0.679790	0.573405	0.018247
	N234	N	0.318715	0.573643	0.947167
	N235	N	0.318525	0.396633	0.017967
	N236	N	0.961469	0.661770	0.399954
	N237	N	0.034380	0.666227	0.570942
	N238	N	0.962242	0.304805	0.570124
	N239	N	0.034584	0.304452	0.396105
	N240	N	0.962557	0.398941	0.663204
	N241	N	0.035095	0.573232	0.664280
	N242	N	0.962687	0.572475	0.303019
	N243	N	0.034427	0.397312	0.301305
	N244	N	0.416492	0.659107	0.942994
	N245	N	0.584038	0.662826	0.018367
	N246	N	0.584534	0.307600	0.944783
	N247	N	0.413425	0.306858	0.019366
	N248	N	0.680032	0.947311	0.392121
	N249	N	0.678060	0.020027	0.567672
	N250	N	0.317322	0.949089	0.569587
	N251	N	0.316453	0.019817	0.392801
	N252	N	0.913718	0.447730	0.159814
	N253	N	0.083013	0.523124	0.158904
	N254	N	0.084665	0.447682	0.805809
	N255	N	0.916687	0.523050	0.809324
	N256	N	0.180113	0.894741	0.446820
	N257	N	0.178091	0.072451	0.517726
	N258	N	0.818217	0.071581	0.445466
	N259	N	0.816571	0.895071	0.516262
	N260	N	0.463124	0.164718	0.894375
	N261	N	0.535820	0.163931	0.067955
	N262	N	0.461402	0.807135	0.063551
	N263	N	0.534581	0.803744	0.891784
	N264	N	0.463191	0.895428	0.162333
	N265	N	0.535299	0.071463	0.161370
	N266	N	0.462098	0.069155	0.801635
	N267	N	0.534286	0.895916	0.798623
	N268	N	0.911627	0.162589	0.445543
	N269	N	0.081618	0.160587	0.519873
	N270	N	0.082465	0.807848	0.445403
	N271	N	0.915561	0.810643	0.520381
	N272	N	0.181968	0.449477	0.893137
	N273	N	0.179202	0.521328	0.069577
	N274	N	0.816810	0.449910	0.072741
	N275	N	0.820135	0.520876	0.896918
	O276	O	0.348815	0.530810	0.464698
	H277	H	0.347645	0.519113	0.474246
	H278	H	0.364304	0.536489	0.472284
	O279	O	0.395119	0.316798	0.528865
	H280	H	0.380228	0.306697	0.498780
	H281	H	0.395116	0.336650	0.523088
	O282	O	1.041986	-0.119792	0.917657
	H283	H	1.031004	-0.121928	0.906600
	H284	H	1.047405	-0.128146	0.924174
	O285	O	0.345117	0.568841	0.428338
	H286	H	0.330773	0.583511	0.427211
	H287	H	0.338465	0.551303	0.444595
	O288	O	0.967829	1.110677	0.979090
	H289	H	0.966660	1.099141	0.965493
	H290	H	0.965851	1.107448	0.998742
	O291	O	0.075929	1.027351	-0.067063
	H292	H	0.076639	1.023674	-0.071041
	H293	H	0.068935	1.022792	-0.060115
	O294	O	0.296322	0.554596	0.312748
	H295	H	0.306547	0.540226	0.321699
	H296	H	0.277825	0.557191	0.307567
	O297	O	0.666549	0.507137	0.641234
	H298	H	0.666514	0.507202	0.641644
	H299	H	0.666695	0.517435	0.650989
	O300	O	0.560561	0.474512	0.532387
	H301	H	0.557205	0.469855	0.545526
	H302	H	0.563945	0.482931	0.512509
	O303	O	0.369539	0.307941	0.481427
	H304	H	0.379170	0.302991	0.478629
	H305	H	0.389987	0.294144	0.473880
	O306	O	0.602484	0.455260	0.381455
	H307	H	0.611220	0.444573	0.387506
	H308	H	0.601085	0.447993	0.387047
	O309	O	0.694814	0.442000	0.427594
	H310	H	0.686515	0.430198	0.441546
	H311	H	0.702768	0.429044	0.424897
	O312	O	-0.083465	-0.019834	0.048505
	H313	H	-0.085948	-0.022189	0.047460
	H314	H	-0.090428	-0.014587	0.045810
	O315	O	0.389449	0.425092	0.523975
	H316	H	0.390105	0.430459	0.550823
	H317	H	0.397565	0.425800	0.519575
	O318	O	0.155136	1.037718	1.144964
	H319	H	0.161209	1.028223	1.128950
	H320	H	0.152578	1.048744	1.151434
	O321	O	0.640277	0.398736	0.373625
	H322	H	0.632861	0.402313	0.367946
	H323	H	0.645279	0.407954	0.362976
	O324	O	0.008081	0.939777	-0.110151
	H325	H	0.017526	0.920998	-0.097110
	H326	H	0.018038	0.949851	-0.103904
	O327	O	0.496741	0.565683	0.360967
	H328	H	0.478246	0.565753	0.358402
	H329	H	0.474321	0.565580	0.360468
	O330	O	-0.086979	0.080768	0.971097
	H331	H	-0.105652	0.084436	0.970059
	H332	H	-0.098585	0.069169	0.976613
	O333	O	-0.074661	-0.168427	1.005515
	H334	H	-0.073171	-0.178064	1.007956
	H335	H	-0.075873	-0.163784	1.000576
	O336	O	0.504354	0.384804	0.431381
	H337	H	0.496586	0.417688	0.428746
	H338	H	0.515696	0.382056	0.434986
	O339	O	0.643453	0.293933	0.460975
	H340	H	0.643469	0.278908	0.451957
	H341	H	0.631982	0.309980	0.487995
	O342	O	0.413460	-0.462239	0.640213
	H343	H	0.410300	-0.483506	0.630348
	H344	H	0.412442	-0.455265	0.624532
	O345	O	1.341785	0.690342	1.579075
	H346	H	1.343291	0.673299	1.565504
	H347	H	1.347908	0.693838	1.587091
	O348	O	1.187265	0.914464	-0.135406
	H349	H	1.190026	0.905312	-0.121929
	H350	H	1.203070	0.920680	-0.134728
	O351	O	0.370084	0.518874	0.678772
	H352	H	0.368942	0.500338	0.678600
	H353	H	0.365494	0.531290	0.692495
	O354	O	0.845203	-0.090177	1.138744
	H355	H	0.827971	-0.087249	1.162464
	H356	H	0.843934	-0.116185	1.134552
	O357	O	0.681561	0.645441	0.537429
	H358	H	0.669018	0.641247	0.532204
	H359	H	0.700173	0.639132	0.532926
	O360	O	0.936376	0.938118	0.979380
	H361	H	0.951930	0.935083	0.979317
	H362	H	0.922273	0.931495	0.980852
	O363	O	0.024650	0.996719	0.907166
	H364	H	0.027684	0.998038	0.896639
	H365	H	0.030280	1.010582	0.899040
	O366	O	0.660363	0.662245	0.651467
	H367	H	0.675378	0.662282	0.653085
	H368	H	0.657941	0.669581	0.652598
	O369	O	-0.026449	1.033998	-0.019017
	H370	H	-0.030980	1.053347	-0.026444
	H371	H	-0.031233	1.048132	-0.022526
	O372	O	0.601372	0.383045	0.300939
	H373	H	0.592810	0.394374	0.305980
	H374	H	0.616076	0.379558	0.299484
	O375	O	0.479886	0.687075	0.424237
	H376	H	0.477458	0.688470	0.417267
	H377	H	0.485563	0.688946	0.429743
	O378	O	1.115826	1.134263	-0.060813
	H379	H	1.116336	1.138757	-0.059115
	H380	H	1.121196	1.117329	-0.074812
	O381	O	0.938075	-0.013043	0.108438
	H382	H	0.931536	0.007936	0.099559
	H383	H	0.943424	-0.019201	0.099395
	O384	O	0.981793	1.098402	-0.134445
	H385	H	0.971689	1.088665	-0.144730
	H386	H	0.987094	1.106554	-0.143982
	O387	O	-0.549780	0.364411	0.565467
	H388	H	-0.559528	0.363896	0.582898
	H389	H	-0.556731	0.372969	0.557638
	O390	O	0.020251	1.149907	0.028481
	H391	H	0.021708	1.149542	0.021362
	H392	H	0.010375	1.163959	0.029590
	O393	O	1.158722	1.048587	1.079563
	H394	H	1.149758	1.049478	1.069224
	H395	H	1.159908	1.029904	1.077886
	O396	O	0.477470	0.448332	0.301278
	H397	H	0.487579	0.459851	0.300413
	H398	H	0.478319	0.445251	0.293790
	O399	O	-0.101738	0.902707	0.887667
	H400	H	-0.086437	0.908948	0.887617
	H401	H	-0.100509	0.900833	0.896739
	O402	O	0.417698	0.667576	0.561175
	H403	H	0.433276	0.667829	0.539697
	H404	H	0.417905	0.687885	0.558606
	O405	O	1.122099	1.113683	0.124646
	H406	H	1.135336	1.123927	0.123888
	H407	H	1.126658	1.131542	0.144089
	O408	O	1.031968	0.812876	-0.179030
	H409	H	1.043607	0.803262	-0.193702
	H410	H	1.044419	0.809033	-0.170037
	O411	O	0.827512	-0.098968	1.908988
	H412	H	0.829382	-0.095077	1.915713
	H413	H	0.828532	-0.088578	1.917313
	O414	O	0.474176	0.397563	0.632227
	H415	H	0.458558	0.385220	0.630908
	H416	H	0.474599	0.397367	0.637979
	O417	O	-0.039824	-0.162581	1.123383
	H418	H	-0.052312	-0.149806	1.117727
	H419	H	-0.047118	-0.160996	1.130185
