data_Molecule from HDF5

_cell_length_a		16.437857
_cell_length_b		16.435265
_cell_length_c		16.535777
_cell_angle_alpha	89.953615
_cell_angle_beta	89.908483
_cell_angle_gamma	90.032560
_symmetry_space_group_name_H-M	'P 1'
_symmetry_Int_Tables_number		1

loop_
	_symmetry_equiv_pos_as_xyz
	x,y,z

loop_
	_atom_site_label
	_atom_site_type_symbol
	_atom_site_fract_x
	_atom_site_fract_y
	_atom_site_fract_z
	H0	H	0.385148	0.853303	0.724234
	H1	H	0.601994	0.168091	0.731107
	H2	H	0.591180	0.853619	0.287026
	H3	H	0.381145	0.168862	0.279613
	H4	H	0.712320	0.402901	0.845836
	H5	H	0.707899	0.613069	0.160937
	H6	H	0.266001	0.618061	0.845656
	H7	H	0.266820	0.405535	0.159640
	H8	H	0.829401	0.729591	0.405785
	H9	H	0.148899	0.731064	0.606982
	H10	H	0.835010	0.284501	0.616082
	H11	H	0.146559	0.290186	0.397344
	H12	H	0.831605	0.403848	0.727568
	H13	H	0.145642	0.621789	0.729027
	H14	H	0.829849	0.616090	0.285852
	H15	H	0.145862	0.405468	0.280751
	H16	H	0.382064	0.734080	0.845954
	H17	H	0.593772	0.731659	0.159155
	H18	H	0.594276	0.288062	0.844509
	H19	H	0.382573	0.287971	0.158841
	H20	H	0.707246	0.853835	0.404684
	H21	H	0.714169	0.169665	0.611845
	H22	H	0.270514	0.852795	0.607576
	H23	H	0.266210	0.169680	0.397237
	H24	H	0.882936	0.354118	0.227620
	H25	H	0.092653	0.670220	0.222203
	H26	H	0.096836	0.354433	0.778498
	H27	H	0.879584	0.667886	0.781064
	H28	H	0.205724	0.913832	0.345653
	H29	H	0.214293	0.120554	0.661226
	H30	H	0.770311	0.117903	0.346787
	H31	H	0.767609	0.907520	0.661879
	H32	H	0.330226	0.232236	0.896641
	H33	H	0.646045	0.233226	0.107764
	H34	H	0.330624	0.790992	0.107194
	H35	H	0.647948	0.790259	0.899922
	H36	H	0.331850	0.906075	0.225444
	H37	H	0.647020	0.118091	0.224268
	H38	H	0.333182	0.119639	0.779073
	H39	H	0.648156	0.906066	0.783267
	H40	H	0.886695	0.234653	0.348136
	H41	H	0.100079	0.238832	0.660914
	H42	H	0.088131	0.798215	0.344808
	H43	H	0.886358	0.792984	0.663053
	H44	H	0.211280	0.353009	0.895651
	H45	H	0.209010	0.669247	0.105539
	H46	H	0.768237	0.351785	0.110164
	H47	H	0.766824	0.667481	0.899234
	H48	H	0.405196	0.124238	0.592926
	H49	H	0.578169	0.902333	0.588407
	H50	H	0.573463	0.124788	0.414876
	H51	H	0.402808	0.900979	0.417837
	H52	H	0.585763	0.422148	0.116613
	H53	H	0.580109	0.597844	0.889726
	H54	H	0.393298	0.599859	0.116485
	H55	H	0.401319	0.424058	0.891067
	H56	H	0.104033	0.601993	0.407538
	H57	H	0.878564	0.599236	0.590883
	H58	H	0.102533	0.421812	0.591789
	H59	H	0.876053	0.423537	0.416079
	H60	H	0.097323	0.429854	0.584344
	H61	H	0.874893	0.600733	0.598649
	H62	H	0.106121	0.609644	0.408645
	H63	H	0.877750	0.425961	0.420294
	H64	H	0.401337	0.593822	0.111853
	H65	H	0.576272	0.597463	0.890939
	H66	H	0.572217	0.426850	0.110561
	H67	H	0.401661	0.420215	0.889064
	H68	H	0.585601	0.128265	0.417139
	H69	H	0.582308	0.898463	0.594820
	H70	H	0.403243	0.123387	0.590111
	H71	H	0.396462	0.898373	0.415695
	H72	H	0.899153	0.627340	0.102824
	H73	H	0.078991	0.397441	0.094127
	H74	H	0.080060	0.623783	0.916835
	H75	H	0.899069	0.397509	0.917137
	H76	H	0.082867	0.917928	0.620538
	H77	H	0.069795	0.100583	0.397049
	H78	H	0.898340	0.099452	0.618101
	H79	H	0.904825	0.917584	0.392267
	H80	H	0.601198	0.099007	0.916320
	H81	H	0.376295	0.096675	0.093267
	H82	H	0.603954	0.918615	0.094883
	H83	H	0.374949	0.924074	0.907846
	H84	H	0.603298	0.920524	0.093346
	H85	H	0.375558	0.098238	0.093095
	H86	H	0.600583	0.097286	0.916866
	H87	H	0.375490	0.917081	0.915426
	H88	H	0.905383	0.094162	0.613906
	H89	H	0.080235	0.107211	0.390483
	H90	H	0.083727	0.925689	0.618437
	H91	H	0.892669	0.917492	0.387786
	H92	H	0.074020	0.623562	0.912218
	H93	H	0.075125	0.397688	0.095353
	H94	H	0.905223	0.621007	0.090007
	H95	H	0.902589	0.396490	0.911340
	H96	H	0.401977	0.124807	0.592928
	H97	H	0.574176	0.900315	0.595578
	H98	H	0.580826	0.129518	0.405941
	H99	H	0.402140	0.898513	0.410951
	H100	H	0.574326	0.412793	0.115632
	H101	H	0.577324	0.600891	0.890112
	H102	H	0.403587	0.604081	0.114899
	H103	H	0.397719	0.422361	0.889246
	H104	H	0.103616	0.605021	0.414982
	H105	H	0.874972	0.606699	0.592372
	H106	H	0.100377	0.433486	0.595449
	H107	H	0.878312	0.428040	0.415806
	H108	H	0.889968	0.625185	0.090221
	H109	H	0.076050	0.397997	0.091651
	H110	H	0.073508	0.620787	0.919020
	H111	H	0.905158	0.399315	0.916517
	H112	H	0.076363	0.922578	0.617558
	H113	H	0.081936	0.094020	0.395124
	H114	H	0.907080	0.102770	0.616269
	H115	H	0.897523	0.928411	0.393727
	H116	H	0.600959	0.097357	0.915336
	H117	H	0.376894	0.097829	0.091432
	H118	H	0.603629	0.921506	0.096122
	H119	H	0.378747	0.926716	0.917319
	C120	C	0.369694	0.019986	0.624838
	C121	C	0.612026	1.004054	0.626506
	C122	C	0.611126	0.021965	0.382475
	C123	C	0.367925	1.003633	0.382330
	C124	C	0.610555	0.387910	0.010705
	C125	C	0.609803	0.630805	0.994167
	C126	C	0.366562	0.632666	0.010775
	C127	C	0.367154	0.389355	0.993726
	C128	C	-0.001728	0.635034	0.381740
	C129	C	0.980581	0.634523	0.626351
	C130	C	-0.002657	0.392501	0.625071
	C131	C	0.981083	0.392578	0.384233
	C132	C	0.866509	0.519817	0.126361
	C133	C	0.109285	0.502486	0.124721
	C134	C	0.109447	0.519124	0.882140
	C135	C	0.868278	0.501952	0.882828
	C136	C	0.110651	0.892101	0.513781
	C137	C	0.112080	0.134778	0.496756
	C138	C	0.869948	0.133050	0.513115
	C139	C	0.867476	0.890705	0.496246
	C140	C	0.497538	0.131525	0.882117
	C141	C	0.480714	0.131610	0.124102
	C142	C	0.498619	0.888912	0.125713
	C143	C	0.480752	0.889896	0.881723
	C144	C	0.366975	0.900962	0.684566
	C145	C	0.617663	0.121334	0.689426
	C146	C	0.611245	0.901561	0.325453
	C147	C	0.364220	0.122062	0.321072
	C148	C	0.671534	0.385272	0.892580
	C149	C	0.668892	0.632201	0.113163
	C150	C	0.306024	0.635968	0.893059
	C151	C	0.306841	0.386884	0.112218
	C152	C	0.877459	0.691494	0.384497
	C153	C	0.100555	0.692960	0.627013
	C154	C	0.880992	0.327394	0.631586
	C155	C	0.099404	0.331007	0.380160
	C156	C	0.879454	0.386763	0.687364
	C157	C	0.098856	0.638146	0.687502
	C158	C	0.877720	0.635041	0.325128
	C159	C	0.099020	0.388310	0.322011
	C160	C	0.364006	0.693789	0.893089
	C161	C	0.612181	0.691355	0.112257
	C162	C	0.612778	0.327885	0.892026
	C163	C	0.364373	0.328278	0.111685
	C164	C	0.668440	0.901588	0.383987
	C165	C	0.673947	0.122294	0.630238
	C166	C	0.309588	0.900861	0.626497
	C167	C	0.306830	0.122429	0.379527
	C168	C	0.864522	0.401135	0.187320
	C169	C	0.111518	0.622083	0.183024
	C170	C	0.113692	0.401261	0.819625
	C171	C	0.863167	0.620466	0.821992
	C172	C	0.167514	0.893125	0.393477
	C173	C	0.174145	0.138701	0.614130
	C174	C	0.809879	0.136387	0.394652
	C175	C	0.808057	0.889633	0.615119
	C176	C	0.378506	0.192342	0.878785
	C177	C	0.598908	0.193081	0.126046
	C178	C	0.378622	0.830221	0.126455
	C179	C	0.600285	0.830223	0.880866
	C180	C	0.379395	0.887255	0.185422
	C181	C	0.599379	0.135842	0.184281
	C182	C	0.379773	0.136752	0.819589
	C183	C	0.600414	0.887690	0.822808
	C184	C	0.867402	0.194626	0.395179
	C185	C	0.117107	0.197439	0.613842
	C186	C	0.109029	0.835837	0.393158
	C187	C	0.866930	0.832385	0.615532
	C188	C	0.170655	0.400385	0.878110
	C189	C	0.169385	0.621693	0.125020
	C190	C	0.807684	0.400103	0.128539
	C191	C	0.806658	0.620282	0.880603
	C192	C	0.395950	0.102545	0.599415
	C193	C	0.585666	0.921690	0.600358
	C194	C	0.587081	0.105609	0.405868
	C195	C	0.393357	0.920860	0.407558
	C196	C	0.584759	0.413235	0.092731
	C197	C	0.585010	0.606028	0.911801
	C198	C	0.392226	0.606682	0.093054
	C199	C	0.392724	0.415063	0.911354
	C200	C	0.082729	0.612021	0.403932
	C201	C	0.897570	0.609372	0.601303
	C202	C	0.078914	0.420415	0.598186
	C203	C	0.898857	0.418480	0.410169
	C204	C	0.890953	0.602964	0.101482
	C205	C	0.084108	0.419264	0.100643
	C206	C	0.083621	0.601127	0.908553
	C207	C	0.894621	0.419372	0.907981
	C208	C	0.087662	0.915295	0.597040
	C209	C	0.085081	0.108348	0.415496
	C210	C	0.896073	0.106384	0.594897
	C211	C	0.891436	0.914553	0.412998
	C212	C	0.579539	0.105161	0.908583
	C213	C	0.397804	0.105220	0.099408
	C214	C	0.581942	0.913124	0.101773
	C215	C	0.398095	0.915408	0.906442
	Zn216	Zn	0.490011	0.011742	0.753773
	Zn217	Zn	0.489469	0.011869	0.253840
	Zn218	Zn	0.739368	0.509314	0.003385
	Zn219	Zn	0.237925	0.510690	0.002484
	Zn220	Zn	-0.010332	0.762475	0.505034
	Zn221	Zn	-0.009605	0.263143	0.505067
	Zn222	Zn	-0.011150	0.512263	0.753628
	Zn223	Zn	-0.011479	0.511960	0.254270
	Zn224	Zn	0.488956	0.760944	0.002750
	Zn225	Zn	0.488397	0.259591	0.001891
	Zn226	Zn	0.739403	0.013666	0.504462
	Zn227	Zn	0.240229	0.012343	0.504608
	N228	N	0.403322	0.976198	0.683857
	N229	N	0.579979	0.046634	0.687141
	N230	N	0.576755	0.977640	0.324019
	N231	N	0.401595	0.047232	0.322713
	N232	N	0.670589	0.421576	0.967498
	N233	N	0.667695	0.595307	0.038647
	N234	N	0.307510	0.598448	0.967401
	N235	N	0.308352	0.423919	0.037756
	N236	N	0.953614	0.691854	0.418668
	N237	N	0.026022	0.690831	0.589785
	N238	N	0.955307	0.330780	0.593510
	N239	N	0.025239	0.333677	0.418442
	N240	N	0.952804	0.426677	0.683268
	N241	N	0.022949	0.602765	0.687429
	N242	N	0.954096	0.600822	0.323223
	N243	N	0.024657	0.426324	0.324709
	N244	N	0.401037	0.691753	0.967457
	N245	N	0.576171	0.690669	0.037418
	N246	N	0.575747	0.329304	0.966502
	N247	N	0.401113	0.329784	0.036893
	N248	N	0.668604	0.977601	0.418380
	N249	N	0.670588	0.048413	0.591728
	N250	N	0.310948	0.976173	0.590175
	N251	N	0.309364	0.047914	0.417169
	N252	N	0.900207	0.476706	0.186242
	N253	N	0.075085	0.546797	0.183043
	N254	N	0.076485	0.476159	0.821973
	N255	N	0.900593	0.545857	0.822960
	N256	N	0.168763	0.927023	0.469268
	N257	N	0.171276	0.100403	0.540303
	N258	N	0.811154	0.099170	0.469140
	N259	N	0.808301	0.925167	0.539822
	N260	N	0.452650	0.189459	0.916610
	N261	N	0.523865	0.190756	0.089699
	N262	N	0.453946	0.830691	0.090173
	N263	N	0.524857	0.831238	0.916583
	N264	N	0.454914	0.922849	0.185094
	N265	N	0.524794	0.098232	0.183174
	N266	N	0.454859	0.099864	0.821292
	N267	N	0.525267	0.924072	0.823138
	N268	N	0.903555	0.193059	0.470077
	N269	N	0.079447	0.195254	0.539783
	N270	N	0.074746	0.834603	0.469061
	N271	N	0.903063	0.832872	0.540677
	N272	N	0.168143	0.474519	0.916263
	N273	N	0.168164	0.546219	0.089407
	N274	N	0.808675	0.474816	0.091291
	N275	N	0.809720	0.545486	0.917608
	O276	O	0.771455	0.972903	0.219626
	H277	H	0.762188	0.977408	0.214204
	H278	H	0.756500	0.986866	0.230720
	O279	O	0.223906	0.242961	0.084921
	H280	H	0.253103	0.274075	0.086336
	H281	H	0.215679	0.233240	0.058495
	O282	O	1.169782	0.831999	0.184790
	H283	H	1.149899	0.842229	0.184116
	H284	H	1.168762	0.848319	0.169340
	O285	O	0.554648	0.463328	0.579796
	H286	H	0.544436	0.450814	0.591416
	H287	H	0.537351	0.484269	0.585313
	O288	O	0.172899	-0.154263	-0.186529
	H289	H	0.155531	-0.164095	-0.183129
	H290	H	0.156536	-0.166786	-0.172807
	O291	O	1.508150	0.396362	0.547005
	H292	H	1.518612	0.394785	0.537104
	H293	H	1.522909	0.396466	0.521078
	O294	O	-0.095207	1.079603	0.205332
	H295	H	-0.098110	1.078776	0.199343
	H296	H	-0.102853	1.074390	0.198174
	O297	O	-0.046189	-0.199150	0.212206
	H298	H	-0.060164	-0.207859	0.226174
	H299	H	-0.062067	-0.200867	0.223400
	O300	O	0.493766	0.332772	0.299484
	H301	H	0.468435	0.352873	0.300459
	H302	H	0.490797	0.310148	0.267991
	O303	O	0.672014	0.700260	0.315663
	H304	H	0.653365	0.683374	0.333554
	H305	H	0.652806	0.689473	0.334482
	O306	O	0.682676	0.706892	0.541248
	H307	H	0.665074	0.715528	0.557057
	H308	H	0.684690	0.710680	0.559788
	O309	O	0.494621	0.313275	0.508764
	H310	H	0.519384	0.315358	0.490709
	H311	H	0.481996	0.309169	0.486795
	O312	O	0.546197	0.701584	0.600717
	H313	H	0.538189	0.686232	0.604557
	H314	H	0.539973	0.715406	0.635195
	O315	O	0.435972	-0.382414	1.642073
	H316	H	0.443137	-0.388728	1.654308
	H317	H	0.447025	-0.404241	1.651224
	O318	O	-0.061049	1.214287	0.054236
	H319	H	-0.053121	1.210118	0.037133
	H320	H	-0.085519	1.220242	0.029740
	O321	O	0.402066	0.658483	-0.518993
	H322	H	0.383676	0.667298	-0.520684
	H323	H	0.400934	0.651340	-0.511946
	O324	O	0.879028	-0.007756	1.057502
	H325	H	0.881965	-0.021534	1.070747
	H326	H	0.892533	-0.012614	1.066054
	O327	O	0.980854	0.215207	0.818481
	H328	H	0.997246	0.194004	0.804511
	H329	H	0.993096	0.218978	0.802301
	O330	O	0.815840	0.040125	0.025566
	H331	H	0.819983	0.057672	0.013285
	H332	H	0.824584	0.046852	0.019345
	O333	O	1.282952	0.716451	1.296578
	H334	H	1.284714	0.703750	1.317835
	H335	H	1.263324	0.742578	1.295637
	O336	O	0.802199	0.198695	0.845302
	H337	H	0.819585	0.192309	0.833948
	H338	H	0.818015	0.177366	0.832251
	O339	O	0.276883	0.301739	0.529014
	H340	H	0.248848	0.295837	0.519505
	H341	H	0.274319	0.310166	0.509992
	O342	O	-0.223927	1.219261	1.005010
	H343	H	-0.223707	1.221076	0.973669
	H344	H	-0.243952	1.242087	0.989054
	O345	O	-0.011397	-0.091469	-0.212235
	H346	H	-0.027747	-0.100029	-0.212111
	H347	H	-0.008565	-0.118373	-0.223230
	O348	O	1.050789	-0.104196	0.885862
	H349	H	1.055184	-0.130980	0.875016
	H350	H	1.032947	-0.107385	0.922770
	O351	O	0.965106	1.094363	-0.007513
	H352	H	0.968044	1.095153	-0.007652
	H353	H	0.966389	1.098718	-0.008726
	O354	O	0.276464	0.729086	0.468713
	H355	H	0.286218	0.729384	0.481607
	H356	H	0.253571	0.740256	0.480946
	O357	O	1.573070	1.450795	0.639513
	H358	H	1.560777	1.443075	0.618362
	H359	H	1.558459	1.435067	0.624380
	O360	O	0.703723	0.540166	0.462697
	H361	H	0.698549	0.545137	0.453798
	H362	H	0.706346	0.562917	0.464567
	O363	O	0.469939	0.295745	0.718848
	H364	H	0.471254	0.258745	0.733185
	H365	H	0.482680	0.291145	0.690139
	O366	O	0.995020	0.144888	1.170403
	H367	H	0.980345	0.138621	1.157419
	H368	H	0.982008	0.142971	1.168576
	O369	O	0.685183	0.639774	0.693942
	H370	H	0.655759	0.631754	0.699044
	H371	H	0.682979	0.622592	0.702099
	O372	O	0.504209	0.482132	0.633537
	H373	H	0.511120	0.446717	0.633458
	H374	H	0.530653	0.488593	0.627389
	O375	O	0.192788	1.030493	1.205159
	H376	H	0.195423	1.059401	1.217030
	H377	H	0.187241	1.046830	1.209993
	O378	O	0.277486	0.538545	0.290044
	H379	H	0.271804	0.549768	0.279973
	H380	H	0.270535	0.549364	0.283166
	O381	O	0.886583	-0.194243	-0.095334
	H382	H	0.878025	-0.197276	-0.061548
	H383	H	0.887879	-0.180619	-0.073512
	O384	O	0.072114	-0.196630	1.019212
	H385	H	0.072018	-0.195332	1.032093
	H386	H	0.086771	-0.191531	1.018101
	O387	O	-0.212354	1.031731	0.798576
	H388	H	-0.232955	1.024054	0.804428
	H389	H	-0.211375	1.028483	0.796086
	O390	O	0.182927	-0.007182	0.785933
	H391	H	0.214269	-0.014352	0.766604
	H392	H	0.164889	-0.050364	0.795874
	O393	O	1.118808	1.113718	-0.081769
	H394	H	1.127326	1.100945	-0.080022
	H395	H	1.122105	1.097912	-0.093948
	O396	O	0.373105	0.391455	0.297550
	H397	H	0.350241	0.394751	0.293114
	H398	H	0.382803	0.417599	0.304204
	O399	O	0.281339	0.492003	0.720796
	H400	H	0.301603	0.449600	0.712461
	H401	H	0.247439	0.476125	0.752253
	O402	O	-0.030536	-0.096049	0.922236
	H403	H	-0.038754	-0.108936	0.921267
	H404	H	-0.028443	-0.106147	0.935199
	O405	O	-0.196186	-0.208433	0.016714
	H406	H	-0.212955	-0.213686	0.036517
	H407	H	-0.201871	-0.218685	0.034137
	O408	O	0.374573	0.626545	0.596217
	H409	H	0.388677	0.612295	0.602872
	H410	H	0.381396	0.634403	0.613765
	O411	O	0.350277	0.527515	0.523403
	H412	H	0.356248	0.530745	0.518527
	H413	H	0.350972	0.527589	0.520541
	O414	O	0.499046	0.700430	0.663133
	H415	H	0.496101	0.685848	0.676241
	H416	H	0.497979	0.696870	0.677370
	O417	O	0.452796	0.717258	0.290540
	H418	H	0.428646	0.721790	0.285322
	H419	H	0.436712	0.732243	0.287767
	O420	O	0.562614	0.524581	0.392019
	H421	H	0.557223	0.537491	0.388965
	H422	H	0.564645	0.515166	0.381921
	O423	O	-0.096119	1.087890	0.149792
	H424	H	-0.092507	1.089551	0.138941
	H425	H	-0.105741	1.093961	0.136200
	O426	O	1.205347	1.048732	1.020885
	H427	H	1.202697	1.056302	1.049998
	H428	H	1.216877	1.061306	1.003645
	O429	O	0.312761	0.337898	0.684094
	H430	H	0.362708	0.332923	0.688546
	H431	H	0.300499	0.323405	0.633164
	O432	O	0.535161	0.545701	0.283144
	H433	H	0.536012	0.557280	0.289770
	H434	H	0.538481	0.550292	0.273392
	O435	O	0.153763	-0.185293	0.004658
	H436	H	0.151859	-0.199387	0.009260
	H437	H	0.165537	-0.165190	0.008315
	O438	O	1.185255	0.205177	0.202211
	H439	H	1.147336	0.207513	0.196836
	H440	H	1.183118	0.216168	0.179158
	O441	O	0.362068	0.391692	0.442575
	H442	H	0.358539	0.390625	0.431116
	H443	H	0.351066	0.393366	0.432146
	O444	O	-0.005354	1.030318	0.788634
	H445	H	-0.003699	1.021743	0.783848
	H446	H	-0.010506	1.006534	0.799195
	O447	O	0.708201	0.295104	0.478263
	H448	H	0.706511	0.320845	0.475327
	H449	H	0.745937	0.262481	0.474868
	O450	O	0.690882	0.486801	0.297288
	H451	H	0.708878	0.483806	0.275593
	H452	H	0.685787	0.477424	0.312349
	O453	O	0.638183	0.316169	0.308613
	H454	H	0.614051	0.310653	0.297063
	H455	H	0.645757	0.312325	0.333288
	O456	O	1.036156	0.026514	0.144462
	H457	H	1.025937	0.027306	0.146912
	H458	H	1.036067	0.023817	0.144921
	O459	O	1.007770	0.093699	0.899566
	H460	H	1.020958	0.087648	0.874995
	H461	H	1.012153	0.104017	0.897959
	O462	O	0.702839	0.493141	0.671215
	H463	H	0.713078	0.494079	0.660807
	H464	H	0.710256	0.500867	0.685459
	O465	O	0.784516	-0.194251	0.205639
	H466	H	0.787239	-0.154822	0.207535
	H467	H	0.755825	-0.223821	0.239189
