data_Molecule from HDF5

_cell_length_a		16.640463
_cell_length_b		16.519757
_cell_length_c		16.549371
_cell_angle_alpha	89.919186
_cell_angle_beta	89.964523
_cell_angle_gamma	89.919724
_symmetry_space_group_name_H-M	'P 1'
_symmetry_Int_Tables_number		1

loop_
	_symmetry_equiv_pos_as_xyz
	x,y,z

loop_
	_atom_site_label
	_atom_site_type_symbol
	_atom_site_fract_x
	_atom_site_fract_y
	_atom_site_fract_z
	H0	H	0.406048	0.839171	0.736808
	H1	H	0.614569	0.153200	0.730881
	H2	H	0.617409	0.839905	0.292522
	H3	H	0.407923	0.153182	0.292699
	H4	H	0.733433	0.391681	0.855137
	H5	H	0.733034	0.598935	0.169218
	H6	H	0.289021	0.603679	0.858522
	H7	H	0.291923	0.389309	0.169200
	H8	H	0.857478	0.715475	0.409598
	H9	H	0.169400	0.716290	0.618137
	H10	H	0.856564	0.275695	0.616673
	H11	H	0.169763	0.274186	0.410028
	H12	H	0.855858	0.393715	0.732430
	H13	H	0.168386	0.600909	0.736367
	H14	H	0.857071	0.600323	0.292153
	H15	H	0.168959	0.388597	0.290475
	H16	H	0.405928	0.718697	0.857984
	H17	H	0.617480	0.715636	0.169192
	H18	H	0.615571	0.276702	0.854052
	H19	H	0.410389	0.275558	0.169934
	H20	H	0.734459	0.839803	0.407967
	H21	H	0.731164	0.152777	0.615328
	H22	H	0.290184	0.838360	0.620778
	H23	H	0.289800	0.151388	0.407006
	H24	H	0.912265	0.336694	0.230699
	H25	H	0.118200	0.651927	0.235405
	H26	H	0.118238	0.339387	0.792717
	H27	H	0.908718	0.652483	0.793637
	H28	H	0.236712	0.887218	0.356890
	H29	H	0.233422	0.097721	0.670370
	H30	H	0.793117	0.100524	0.357393
	H31	H	0.792236	0.889659	0.669666
	H32	H	0.358252	0.219035	0.906022
	H33	H	0.668535	0.215111	0.115424
	H34	H	0.358009	0.770987	0.121956
	H35	H	0.667934	0.774104	0.909180
	H36	H	0.357994	0.886695	0.238847
	H37	H	0.668355	0.099583	0.233846
	H38	H	0.358448	0.102484	0.789611
	H39	H	0.667869	0.889523	0.791311
	H40	H	0.910844	0.215311	0.357234
	H41	H	0.116572	0.214029	0.671057
	H42	H	0.117283	0.774938	0.355529
	H43	H	0.912000	0.777005	0.670934
	H44	H	0.236661	0.340703	0.906898
	H45	H	0.236077	0.651615	0.121306
	H46	H	0.795521	0.336881	0.114602
	H47	H	0.790088	0.650556	0.907214
	H48	H	0.427123	0.107062	0.606294
	H49	H	0.602414	0.882050	0.602513
	H50	H	0.602262	0.107734	0.427687
	H51	H	0.428921	0.884884	0.425806
	H52	H	0.608962	0.404094	0.126968
	H53	H	0.597367	0.583631	0.902110
	H54	H	0.423152	0.588423	0.127530
	H55	H	0.423411	0.410368	0.901231
	H56	H	0.125215	0.583801	0.421665
	H57	H	0.903380	0.587484	0.596196
	H58	H	0.122985	0.412005	0.606238
	H59	H	0.899676	0.400070	0.421723
	H60	H	0.127939	0.401060	0.608121
	H61	H	0.903182	0.578775	0.605287
	H62	H	0.125266	0.585129	0.424906
	H63	H	0.904139	0.407131	0.429220
	H64	H	0.420514	0.576655	0.124019
	H65	H	0.602563	0.588181	0.898961
	H66	H	0.602463	0.408980	0.123190
	H67	H	0.425960	0.406917	0.901385
	H68	H	0.608011	0.111147	0.422381
	H69	H	0.603897	0.881795	0.602644
	H70	H	0.425974	0.103239	0.596068
	H71	H	0.424172	0.884978	0.429230
	H72	H	0.924179	0.606760	0.099760
	H73	H	0.098571	0.383295	0.105071
	H74	H	0.101291	0.608359	0.923400
	H75	H	0.921126	0.381166	0.922391
	H76	H	0.103351	0.910865	0.623163
	H77	H	0.103877	0.080906	0.401367
	H78	H	0.926139	0.085853	0.626228
	H79	H	0.917801	0.907035	0.398931
	H80	H	0.623098	0.081180	0.924993
	H81	H	0.401423	0.084225	0.101256
	H82	H	0.623402	0.903934	0.098932
	H83	H	0.402274	0.906559	0.927344
	H84	H	0.621223	0.910378	0.101930
	H85	H	0.400337	0.084005	0.104093
	H86	H	0.625995	0.084591	0.917373
	H87	H	0.402859	0.910007	0.925732
	H88	H	0.919823	0.087369	0.629000
	H89	H	0.098953	0.082283	0.403164
	H90	H	0.098456	0.904833	0.623464
	H91	H	0.925389	0.910794	0.402851
	H92	H	0.098087	0.606093	0.927044
	H93	H	0.101096	0.385310	0.097026
	H94	H	0.917963	0.609497	0.102166
	H95	H	0.925119	0.382515	0.922770
	H96	H	0.417500	0.108375	0.600287
	H97	H	0.602598	0.881852	0.603680
	H98	H	0.599790	0.109717	0.419853
	H99	H	0.423903	0.882889	0.424013
	H100	H	0.601089	0.400782	0.125497
	H101	H	0.604932	0.580751	0.899874
	H102	H	0.431651	0.581274	0.121976
	H103	H	0.421818	0.406048	0.899664
	H104	H	0.124131	0.581550	0.424261
	H105	H	0.898822	0.589778	0.607757
	H106	H	0.123484	0.403840	0.596855
	H107	H	0.901768	0.410631	0.418906
	H108	H	0.923789	0.608569	0.106670
	H109	H	0.106998	0.382096	0.102220
	H110	H	0.102730	0.607372	0.928835
	H111	H	0.922031	0.382732	0.925689
	H112	H	0.105783	0.903776	0.626628
	H113	H	0.102168	0.085922	0.400552
	H114	H	0.920985	0.080702	0.626611
	H115	H	0.925337	0.901780	0.399732
	H116	H	0.625678	0.089122	0.924194
	H117	H	0.400060	0.086458	0.102751
	H118	H	0.624812	0.905528	0.106214
	H119	H	0.400161	0.907167	0.923993
	C120	C	0.391215	0.003070	0.634379
	C121	C	0.633600	0.986256	0.633887
	C122	C	0.634812	0.005192	0.391686
	C123	C	0.392434	0.987379	0.392976
	C124	C	0.634821	0.373588	0.020732
	C125	C	0.633495	0.615825	1.004077
	C126	C	0.391713	0.616379	0.021851
	C127	C	0.392097	0.374978	1.004343
	C128	C	0.021866	0.616058	0.391286
	C129	C	1.004937	0.617318	0.635471
	C130	C	0.021528	0.374049	0.635354
	C131	C	1.005107	0.373542	0.391749
	C132	C	0.891841	0.503557	0.133489
	C133	C	0.134540	0.486968	0.134465
	C134	C	0.133677	0.503993	0.893398
	C135	C	0.891050	0.485972	0.891591
	C136	C	0.135122	0.873413	0.521282
	C137	C	0.133621	0.115276	0.505408
	C138	C	0.891843	0.116251	0.522914
	C139	C	0.891919	0.874214	0.504417
	C140	C	0.521874	0.117362	0.890579
	C141	C	0.503987	0.116700	0.134261
	C142	C	0.520631	0.873425	0.135799
	C143	C	0.504191	0.875029	0.892852
	C144	C	0.388068	0.885838	0.696096
	C145	C	0.633567	0.105658	0.691729
	C146	C	0.636125	0.886919	0.332258
	C147	C	0.389499	0.105810	0.332679
	C148	C	0.693269	0.372897	0.902051
	C149	C	0.693206	0.617612	0.122177
	C150	C	0.329807	0.621208	0.905177
	C151	C	0.332210	0.371773	0.122291
	C152	C	0.904415	0.675980	0.390286
	C153	C	0.122437	0.676764	0.637130
	C154	C	0.903369	0.315439	0.635986
	C155	C	0.122890	0.313879	0.390630
	C156	C	0.902926	0.374217	0.693198
	C157	C	0.121879	0.619411	0.695764
	C158	C	0.904219	0.618543	0.331941
	C159	C	0.122503	0.370955	0.331494
	C160	C	0.388069	0.678090	0.904517
	C161	C	0.635592	0.675569	0.122071
	C162	C	0.634739	0.315855	0.901613
	C163	C	0.391334	0.315289	0.122550
	C164	C	0.694312	0.886953	0.389364
	C165	C	0.691720	0.105320	0.634547
	C166	C	0.330440	0.885617	0.638285
	C167	C	0.330739	0.104887	0.389381
	C168	C	0.892526	0.384055	0.191354
	C169	C	0.136735	0.605024	0.195157
	C170	C	0.136622	0.386438	0.832651
	C171	C	0.889873	0.604898	0.832894
	C172	C	0.196059	0.869643	0.403822
	C173	C	0.193103	0.116304	0.623479
	C174	C	0.833079	0.118628	0.404484
	C175	C	0.832603	0.871860	0.622613
	C176	C	0.404795	0.178292	0.887920
	C177	C	0.621747	0.175694	0.135132
	C178	C	0.404323	0.811772	0.139673
	C179	C	0.621275	0.814230	0.890465
	C180	C	0.404418	0.869746	0.197617
	C181	C	0.621654	0.118118	0.193494
	C182	C	0.404816	0.120544	0.830064
	C183	C	0.621213	0.871706	0.831988
	C184	C	0.891433	0.175760	0.404424
	C185	C	0.135478	0.174438	0.623674
	C186	C	0.136502	0.814097	0.402901
	C187	C	0.892129	0.815756	0.623271
	C188	C	0.195336	0.387132	0.889403
	C189	C	0.195592	0.604610	0.138736
	C190	C	0.834491	0.384332	0.133815
	C191	C	0.831078	0.604130	0.889431
	C192	C	0.416507	0.084960	0.608442
	C193	C	0.609573	0.903525	0.609781
	C194	C	0.610399	0.088063	0.416414
	C195	C	0.418175	0.905580	0.418957
	C196	C	0.611086	0.397694	0.103702
	C197	C	0.608840	0.591254	0.921735
	C198	C	0.417719	0.589779	0.103190
	C199	C	0.416682	0.400521	0.922261
	C200	C	0.103573	0.590607	0.416176
	C201	C	0.923190	0.592482	0.610251
	C202	C	0.103556	0.398544	0.610719
	C203	C	0.923281	0.398781	0.416271
	C204	C	0.915375	0.586548	0.109741
	C205	C	0.109254	0.405136	0.108771
	C206	C	0.107889	0.586068	0.919191
	C207	C	0.915999	0.403411	0.916380
	C208	C	0.109879	0.899094	0.603200
	C209	C	0.108633	0.090303	0.422944
	C210	C	0.915472	0.091668	0.605795
	C211	C	0.915949	0.899272	0.421887
	C212	C	0.603601	0.092144	0.915186
	C213	C	0.421924	0.091941	0.109703
	C214	C	0.601962	0.899145	0.109754
	C215	C	0.422859	0.900814	0.918310
	Zn216	Zn	0.512718	-0.004978	0.762661
	Zn217	Zn	0.512256	-0.004108	0.264007
	Zn218	Zn	0.762767	0.494954	0.012657
	Zn219	Zn	0.262964	0.496119	0.013605
	Zn220	Zn	0.013734	0.745372	0.512689
	Zn221	Zn	0.013060	0.244892	0.514181
	Zn222	Zn	0.012906	0.495395	0.764213
	Zn223	Zn	0.012906	0.494889	0.262097
	Zn224	Zn	0.512289	0.744685	0.013483
	Zn225	Zn	0.513472	0.245678	0.012186
	Zn226	Zn	0.762795	-0.004587	0.513334
	Zn227	Zn	0.263054	-0.005553	0.512653
	N228	N	0.425085	0.960062	0.693916
	N229	N	0.598429	0.030476	0.691875
	N230	N	0.599986	0.961619	0.333295
	N231	N	0.426979	0.031778	0.334687
	N232	N	0.693572	0.407889	0.977211
	N233	N	0.692453	0.581462	0.047473
	N234	N	0.332041	0.583479	0.978951
	N235	N	0.332591	0.408284	0.047727
	N236	N	0.978662	0.674817	0.426386
	N237	N	0.048632	0.675657	0.600236
	N238	N	0.978139	0.315190	0.600883
	N239	N	0.048881	0.315320	0.427424
	N240	N	0.977473	0.409565	0.693189
	N241	N	0.047736	0.583299	0.694929
	N242	N	0.978456	0.582179	0.332320
	N243	N	0.048195	0.407271	0.332047
	N244	N	0.425692	0.675451	0.978230
	N245	N	0.599238	0.674630	0.047798
	N246	N	0.599230	0.316262	0.976416
	N247	N	0.427474	0.316672	0.048038
	N248	N	0.693661	0.961701	0.425453
	N249	N	0.692069	0.030042	0.599446
	N250	N	0.332239	0.959620	0.600594
	N251	N	0.332307	0.030202	0.425986
	N252	N	0.927126	0.459396	0.191635
	N253	N	0.099816	0.530828	0.193006
	N254	N	0.098867	0.460169	0.835105
	N255	N	0.926507	0.530492	0.834328
	N256	N	0.195419	0.905718	0.478496
	N257	N	0.192317	0.080414	0.548651
	N258	N	0.833076	0.082488	0.479181
	N259	N	0.832149	0.907444	0.547578
	N260	N	0.478427	0.176297	0.924887
	N261	N	0.547463	0.175049	0.098974
	N262	N	0.477676	0.813952	0.101833
	N263	N	0.547551	0.816025	0.927638
	N264	N	0.477845	0.907337	0.195416
	N265	N	0.547314	0.082417	0.193166
	N266	N	0.478510	0.083354	0.831412
	N267	N	0.547360	0.908677	0.833379
	N268	N	0.927266	0.174452	0.479164
	N269	N	0.099315	0.173790	0.549231
	N270	N	0.099542	0.816031	0.477040
	N271	N	0.928259	0.817078	0.548691
	N272	N	0.193677	0.461324	0.926300
	N273	N	0.194533	0.530221	0.101772
	N274	N	0.833582	0.459775	0.098893
	N275	N	0.831588	0.529022	0.925169
	O276	O	-0.052220	0.775070	-0.045250
	H277	H	-0.077031	0.775731	-0.024052
	H278	H	-0.045927	0.779631	-0.021513
	O279	O	0.503951	0.476379	0.290156
	H280	H	0.514358	0.468503	0.303296
	H281	H	0.496192	0.488308	0.289497
	O282	O	1.092352	0.035504	0.808516
	H283	H	1.096842	0.023990	0.800759
	H284	H	1.113616	0.018507	0.810830
	O285	O	0.468053	0.330669	0.344654
	H286	H	0.461589	0.317589	0.348144
	H287	H	0.481100	0.329111	0.345499
	O288	O	0.872934	0.199267	0.803079
	H289	H	0.890432	0.198191	0.800803
	H290	H	0.848104	0.222970	0.779187
	O291	O	0.293578	0.436579	0.531555
	H292	H	0.286328	0.439004	0.521794
	H293	H	0.290831	0.429714	0.538770
	O294	O	0.824763	-0.194569	0.826085
	H295	H	0.847961	-0.173508	0.833893
	H296	H	0.834277	-0.183032	0.857238
	O297	O	-0.009292	1.167081	0.829467
	H298	H	-0.005889	1.173369	0.804270
	H299	H	-0.008077	1.162151	0.828526
	O300	O	0.239869	0.216403	1.044149
	H301	H	0.249742	0.221270	1.062340
	H302	H	0.258059	0.230720	1.060923
	O303	O	0.727946	0.501965	0.630423
	H304	H	0.702640	0.485743	0.629054
	H305	H	0.742179	0.491320	0.630490
	O306	O	0.488300	0.713209	0.297369
	H307	H	0.477650	0.720618	0.290972
	H308	H	0.470932	0.720549	0.289286
	O309	O	0.699517	0.705191	0.719901
	H310	H	0.710452	0.690615	0.728800
	H311	H	0.726009	0.703419	0.739775
	O312	O	0.721454	0.287167	0.311100
	H313	H	0.751291	0.253185	0.277508
	H314	H	0.691570	0.291767	0.315532
	O315	O	1.218119	1.197339	1.210925
	H316	H	1.217008	1.199760	1.229306
	H317	H	1.207576	1.196291	1.209811
	O318	O	0.308173	0.638140	0.519908
	H319	H	0.295814	0.655994	0.516292
	H320	H	0.316589	0.622753	0.523696
	O321	O	0.395394	0.279393	0.701069
	H322	H	0.380962	0.296151	0.707142
	H323	H	0.372813	0.264988	0.719702
	O324	O	0.976219	0.777431	0.224787
	H325	H	0.968663	0.758338	0.242621
	H326	H	0.979839	0.772313	0.216874
	O327	O	0.241320	-0.016309	1.025308
	H328	H	0.244616	-0.031225	1.049887
	H329	H	0.247967	-0.001521	1.033652
	O330	O	0.613412	0.585790	0.521564
	H331	H	0.618992	0.585300	0.502339
	H332	H	0.616747	0.599631	0.533040
	O333	O	0.305253	0.367429	0.717021
	H334	H	0.303520	0.384034	0.718786
	H335	H	0.296493	0.376172	0.723328
	O336	O	0.491776	0.514029	0.634272
	H337	H	0.496514	0.520685	0.634030
	H338	H	0.499216	0.502418	0.627753
	O339	O	1.048526	-0.206884	1.072057
	H340	H	1.051950	-0.209875	1.073329
	H341	H	1.062645	-0.203578	1.074435
	O342	O	0.159435	-0.013030	0.075119
	H343	H	0.167898	-0.026726	0.072590
	H344	H	0.149202	-0.007917	0.077694
	O345	O	-0.613851	1.372278	1.396510
	H346	H	-0.601940	1.392846	1.409424
	H347	H	-0.595865	1.378890	1.410563
	O348	O	0.048570	-0.212876	-0.190413
	H349	H	0.033753	-0.226659	-0.173665
	H350	H	0.031628	-0.220262	-0.188721
	O351	O	0.298822	0.519672	0.295060
	H352	H	0.294572	0.532534	0.290869
	H353	H	0.288609	0.513440	0.294635
	O354	O	0.348939	0.313137	1.474216
	H355	H	0.348289	0.312042	1.499806
	H356	H	0.339316	0.308231	1.478328
	O357	O	0.164635	0.006497	0.074837
	H358	H	0.173406	0.008209	0.083121
	H359	H	0.159348	-0.010189	0.078479
	O360	O	0.213600	-0.201394	0.815219
	H361	H	0.220394	-0.211379	0.797954
	H362	H	0.175443	-0.208741	0.814361
	O363	O	0.023288	0.135491	0.210516
	H364	H	0.023525	0.141077	0.212934
	H365	H	0.023077	0.126875	0.209482
	O366	O	0.747831	0.262535	0.735564
	H367	H	0.736407	0.274541	0.730658
	H368	H	0.723172	0.271582	0.725356
	O369	O	1.152732	-0.171631	0.178920
	H370	H	1.164235	-0.175921	0.188073
	H371	H	1.162343	-0.164912	0.168366
	O372	O	0.789067	0.941482	-0.053578
	H373	H	0.783433	0.937451	-0.067302
	H374	H	0.798382	0.948929	-0.047422
	O375	O	1.007440	-0.066604	-0.125048
	H376	H	1.018243	-0.069593	-0.130012
	H377	H	1.007267	-0.053553	-0.129901
	O378	O	-0.200120	1.026094	-0.201460
	H379	H	-0.207469	1.036583	-0.207361
	H380	H	-0.216214	1.054064	-0.213245
	O381	O	-0.210118	1.210845	0.971747
	H382	H	-0.218256	1.229227	0.959269
	H383	H	-0.206706	1.216100	0.971518
	O384	O	0.725295	0.285083	0.487467
	H385	H	0.737145	0.273983	0.465271
	H386	H	0.733936	0.288933	0.480097
	O387	O	0.685124	0.527399	-0.560165
	H388	H	0.692924	0.537678	-0.565065
	H389	H	0.689817	0.524399	-0.565813
	O390	O	0.325070	0.653158	0.701162
	H391	H	0.356971	0.649640	0.693354
	H392	H	0.322525	0.643354	0.690445
	O393	O	0.473004	0.300382	0.394811
	H394	H	0.474062	0.292949	0.396315
	H395	H	0.458247	0.295584	0.402998
	O396	O	0.222619	0.784548	0.990932
	H397	H	0.213335	0.795580	0.978926
	H398	H	0.250273	0.761155	0.975818
	O399	O	0.003736	0.193435	1.187913
	H400	H	0.006205	0.198172	1.180445
	H401	H	0.022154	0.192563	1.185714
	O402	O	0.523177	0.554532	0.357684
	H403	H	0.523466	0.548635	0.360439
	H404	H	0.521306	0.547718	0.361515
	O405	O	1.016093	-0.068158	0.870667
	H406	H	1.010892	-0.073396	0.875691
	H407	H	1.016097	-0.068371	0.867772
	O408	O	-0.207489	-0.011294	0.163985
	H409	H	-0.219923	-0.007540	0.168136
	H410	H	-0.205966	0.001218	0.150901
	O411	O	0.702151	0.684926	0.323948
	H412	H	0.704365	0.673412	0.320684
	H413	H	0.677853	0.674479	0.337584
	O414	O	0.976567	0.027026	-0.014971
	H415	H	0.986385	0.027368	-0.017502
	H416	H	0.984551	0.023344	-0.020459
	O417	O	0.732433	0.720862	0.542512
	H418	H	0.754770	0.734457	0.558356
	H419	H	0.744424	0.720349	0.569758
	O420	O	0.316869	0.686648	0.314331
	H421	H	0.321175	0.666696	0.328402
	H422	H	0.322874	0.683785	0.341959
	O423	O	0.390115	0.464336	0.452438
	H424	H	0.395036	0.463074	0.455038
	H425	H	0.388142	0.467531	0.466303
	O426	O	0.732496	0.454864	0.295122
	H427	H	0.743520	0.443435	0.275719
	H428	H	0.735203	0.429636	0.288298
	O429	O	1.470640	1.494430	0.495486
	H430	H	1.477803	1.488978	0.481619
	H431	H	1.481447	1.502657	0.493465
	O432	O	0.549200	0.365959	0.723762
	H433	H	0.546616	0.349350	0.732712
	H434	H	0.516644	0.359319	0.721286
	O435	O	0.228519	0.971953	-0.198899
	H436	H	0.246760	0.970303	-0.188922
	H437	H	0.243039	0.943338	-0.209042
	O438	O	-0.029422	0.124767	0.051822
	H439	H	-0.024846	0.117215	0.033481
	H440	H	-0.025807	0.112873	0.036528
	O441	O	-0.160655	0.104860	0.052906
	H442	H	-0.163042	0.114606	0.040650
	H443	H	-0.153924	0.088634	0.039558
	O444	O	0.071240	0.226397	-0.037054
	H445	H	0.079183	0.217802	-0.040520
	H446	H	0.086169	0.235107	-0.046128
	O447	O	0.202695	1.183315	0.826788
	H448	H	0.181660	1.163018	0.832230
	H449	H	0.192095	1.167742	0.852765
	O450	O	-0.199472	0.773313	1.042653
	H451	H	-0.213002	0.768885	1.066683
	H452	H	-0.213517	0.767466	1.065238
	O453	O	0.393877	0.499451	0.722961
	H454	H	0.407743	0.509371	0.726457
	H455	H	0.392087	0.501741	0.718278
	O456	O	-0.042285	-0.007148	1.130339
	H457	H	-0.041804	-0.010451	1.120446
	H458	H	-0.033361	-0.020438	1.140647
	O459	O	0.557091	0.706649	0.479703
	H460	H	0.561479	0.709542	0.469399
	H461	H	0.580542	0.705424	0.473324
	O462	O	0.636984	0.335753	0.591009
	H463	H	0.626474	0.335616	0.580342
	H464	H	0.633912	0.345079	0.584532
	O465	O	0.817463	0.184949	0.207485
	H466	H	0.844148	0.173888	0.190221
	H467	H	0.827970	0.161261	0.185034
	O468	O	-0.076596	0.960508	0.227055
	H469	H	-0.084604	0.962651	0.242592
	H470	H	-0.071300	0.965856	0.209135
	O471	O	0.537081	0.311269	0.540653
	H472	H	0.547099	0.315025	0.530598
	H473	H	0.529077	0.299352	0.555149
	O474	O	-0.342294	1.509805	-0.275363
	H475	H	-0.354134	1.497390	-0.269045
	H476	H	-0.347339	1.495339	-0.286665
	O477	O	0.231451	1.019570	1.229258
	H478	H	0.238240	1.023271	1.239754
	H479	H	0.232354	1.035106	1.239417
	O480	O	0.403036	0.568215	0.548566
	H481	H	0.390961	0.590484	0.534592
	H482	H	0.416490	0.561723	0.558325
	O483	O	0.479702	0.686141	0.569827
	H484	H	0.510831	0.692533	0.565501
	H485	H	0.485322	0.685169	0.578974
	O486	O	1.538988	-0.307783	0.718623
	H487	H	1.561321	-0.304345	0.723390
	H488	H	1.552872	-0.287400	0.727663
	O489	O	0.804520	0.787360	0.218504
	H490	H	0.806963	0.828503	0.227506
	H491	H	0.799004	0.771899	0.238020
