data_Molecule from HDF5

_cell_length_a		16.319195
_cell_length_b		16.155821
_cell_length_c		16.249119
_cell_angle_alpha	90.312487
_cell_angle_beta	89.967429
_cell_angle_gamma	90.216977
_symmetry_space_group_name_H-M	'P 1'
_symmetry_Int_Tables_number		1

loop_
	_symmetry_equiv_pos_as_xyz
	x,y,z

loop_
	_atom_site_label
	_atom_site_type_symbol
	_atom_site_fract_x
	_atom_site_fract_y
	_atom_site_fract_z
	H0	H	0.394366	0.840574	0.711542
	H1	H	0.592362	0.170778	0.713922
	H2	H	0.590290	0.840878	0.285410
	H3	H	0.396507	0.171338	0.286729
	H4	H	0.708085	0.405586	0.836870
	H5	H	0.710249	0.607944	0.163376
	H6	H	0.279237	0.604502	0.836224
	H7	H	0.278107	0.406675	0.163710
	H8	H	0.828643	0.718062	0.403127
	H9	H	0.156575	0.720320	0.597326
	H10	H	0.828948	0.292346	0.595209
	H11	H	0.156699	0.293609	0.400598
	H12	H	0.829862	0.406134	0.714223
	H13	H	0.155702	0.606649	0.715397
	H14	H	0.829142	0.603593	0.284947
	H15	H	0.156190	0.406936	0.284038
	H16	H	0.396668	0.717160	0.835108
	H17	H	0.590292	0.720350	0.164504
	H18	H	0.589947	0.292513	0.835640
	H19	H	0.396213	0.293352	0.164699
	H20	H	0.707236	0.841674	0.399246
	H21	H	0.707903	0.170560	0.599167
	H22	H	0.277812	0.841448	0.597351
	H23	H	0.279124	0.170626	0.400294
	H24	H	0.894884	0.340469	0.211398
	H25	H	0.091844	0.670295	0.214419
	H26	H	0.090688	0.341126	0.785686
	H27	H	0.897211	0.671224	0.789034
	H28	H	0.207231	0.906869	0.335399
	H29	H	0.207832	0.107439	0.663438
	H30	H	0.779346	0.103590	0.335623
	H31	H	0.776746	0.906228	0.662872
	H32	H	0.329493	0.217289	0.903498
	H33	H	0.657159	0.220303	0.097649
	H34	H	0.328969	0.793359	0.094783
	H35	H	0.657081	0.792461	0.901718
	H36	H	0.330563	0.906245	0.214597
	H37	H	0.656681	0.105029	0.214535
	H38	H	0.329940	0.102804	0.785553
	H39	H	0.656819	0.907570	0.784730
	H40	H	0.898289	0.215995	0.334158
	H41	H	0.090392	0.221891	0.663142
	H42	H	0.088941	0.791761	0.335422
	H43	H	0.896679	0.794748	0.664443
	H44	H	0.206529	0.340586	0.900478
	H45	H	0.207635	0.670423	0.099045
	H46	H	0.778138	0.341354	0.098450
	H47	H	0.779345	0.669683	0.901931
	H48	H	0.402737	0.122404	0.589591
	H49	H	0.584259	0.888980	0.589567
	H50	H	0.584108	0.123756	0.403122
	H51	H	0.400879	0.890349	0.410025
	H52	H	0.583120	0.419044	0.115528
	H53	H	0.584842	0.593734	0.885806
	H54	H	0.395210	0.595578	0.116987
	H55	H	0.390540	0.412994	0.880650
	H56	H	0.104645	0.593616	0.415910
	H57	H	0.876575	0.597684	0.595339
	H58	H	0.110334	0.410832	0.591824
	H59	H	0.874754	0.411462	0.401153
	H60	H	0.107347	0.416602	0.588828
	H61	H	0.874600	0.600913	0.596735
	H62	H	0.109615	0.592385	0.397395
	H63	H	0.875554	0.408828	0.406362
	H64	H	0.404754	0.596972	0.114574
	H65	H	0.585487	0.601668	0.882242
	H66	H	0.583992	0.407987	0.118661
	H67	H	0.404539	0.417831	0.886256
	H68	H	0.585245	0.122387	0.411638
	H69	H	0.586563	0.888228	0.590095
	H70	H	0.396209	0.125317	0.593167
	H71	H	0.396317	0.887559	0.405819
	H72	H	0.897726	0.627812	0.103512
	H73	H	0.086566	0.385886	0.098058
	H74	H	0.088723	0.626191	0.901544
	H75	H	0.908276	0.388598	0.901783
	H76	H	0.089649	0.917208	0.616805
	H77	H	0.077780	0.105245	0.383286
	H78	H	0.891871	0.095486	0.617648
	H79	H	0.889080	0.921920	0.381532
	H80	H	0.608302	0.101891	0.913939
	H81	H	0.375552	0.099330	0.097370
	H82	H	0.612056	0.913694	0.100233
	H83	H	0.377897	0.913750	0.904206
	H84	H	0.611088	0.906807	0.089389
	H85	H	0.376859	0.101087	0.090045
	H86	H	0.608396	0.090163	0.903698
	H87	H	0.374561	0.909271	0.901195
	H88	H	0.905958	0.093412	0.613359
	H89	H	0.098516	0.103870	0.377027
	H90	H	0.083895	0.914864	0.615394
	H91	H	0.912534	0.915671	0.387146
	H92	H	0.081330	0.621114	0.908112
	H93	H	0.082052	0.389797	0.089882
	H94	H	0.913671	0.619198	0.091031
	H95	H	0.898247	0.390008	0.915698
	H96	H	0.402977	0.124147	0.597393
	H97	H	0.585961	0.887623	0.592147
	H98	H	0.591597	0.125497	0.406780
	H99	H	0.402930	0.888623	0.403477
	H100	H	0.593136	0.414888	0.119035
	H101	H	0.591827	0.596471	0.882201
	H102	H	0.399469	0.603935	0.119094
	H103	H	0.402329	0.402768	0.881122
	H104	H	0.112321	0.609348	0.406219
	H105	H	0.876130	0.600711	0.593959
	H106	H	0.109008	0.416880	0.595901
	H107	H	0.876928	0.415197	0.405637
	H108	H	0.893720	0.622834	0.082764
	H109	H	0.091557	0.386289	0.089595
	H110	H	0.091511	0.623229	0.911946
	H111	H	0.892066	0.384147	0.900823
	H112	H	0.088306	0.910733	0.618540
	H113	H	0.089065	0.086685	0.385418
	H114	H	0.901667	0.107200	0.618478
	H115	H	0.896361	0.898378	0.377421
	H116	H	0.613889	0.104836	0.899676
	H117	H	0.378125	0.094220	0.092539
	H118	H	0.607450	0.918815	0.089028
	H119	H	0.376759	0.908106	0.906797
	C120	C	0.372004	0.014458	0.620797
	C121	C	0.614392	0.997484	0.620119
	C122	C	0.615284	0.014844	0.377823
	C123	C	0.371977	0.997620	0.378241
	C124	C	0.614965	0.384722	0.009044
	C125	C	0.615664	0.627139	0.991896
	C126	C	0.372069	0.626580	0.008214
	C127	C	0.371291	0.383798	0.991412
	C128	C	0.001029	0.626669	0.378141
	C129	C	0.984034	0.628439	0.622908
	C130	C	0.001055	0.385192	0.620441
	C131	C	0.984223	0.383926	0.376599
	C132	C	0.872511	0.514221	0.120637
	C133	C	0.115033	0.496826	0.121350
	C134	C	0.115281	0.514597	0.878226
	C135	C	0.872026	0.496656	0.878725
	C136	C	0.114878	0.885056	0.508286
	C137	C	0.115989	0.128363	0.490563
	C138	C	0.872174	0.126733	0.507768
	C139	C	0.871269	0.884565	0.490927
	C140	C	0.501954	0.127093	0.877932
	C141	C	0.485008	0.127445	0.121756
	C142	C	0.502062	0.884313	0.120898
	C143	C	0.484632	0.882558	0.876237
	C144	C	0.374161	0.890054	0.674270
	C145	C	0.612221	0.121518	0.675826
	C146	C	0.611686	0.890498	0.322605
	C147	C	0.375489	0.121964	0.323998
	C148	C	0.669617	0.386279	0.885594
	C149	C	0.671302	0.626895	0.114750
	C150	C	0.317137	0.624345	0.885103
	C151	C	0.316154	0.386539	0.114826
	C152	C	0.877412	0.680280	0.382224
	C153	C	0.107496	0.683118	0.618897
	C154	C	0.878015	0.329667	0.616959
	C155	C	0.107429	0.330090	0.379735
	C156	C	0.878558	0.386135	0.676039
	C157	C	0.107267	0.626022	0.677076
	C158	C	0.877697	0.623980	0.323172
	C159	C	0.107256	0.386925	0.321961
	C160	C	0.375848	0.680066	0.884371
	C161	C	0.612090	0.683040	0.115383
	C162	C	0.611269	0.329742	0.885169
	C163	C	0.374831	0.330150	0.115403
	C164	C	0.669662	0.890841	0.379140
	C165	C	0.669675	0.121431	0.618755
	C166	C	0.316257	0.890567	0.617675
	C167	C	0.317318	0.121600	0.380592
	C168	C	0.874832	0.389734	0.174220
	C169	C	0.112454	0.621058	0.176777
	C170	C	0.112101	0.390233	0.822914
	C171	C	0.875772	0.621611	0.825571
	C172	C	0.169483	0.886555	0.384526
	C173	C	0.170467	0.127397	0.614158
	C174	C	0.817495	0.123756	0.384312
	C175	C	0.815592	0.886970	0.614178
	C176	C	0.378516	0.180577	0.882014
	C177	C	0.608462	0.182400	0.118386
	C178	C	0.378110	0.830055	0.117005
	C179	C	0.608169	0.829207	0.880330
	C180	C	0.378919	0.886276	0.176022
	C181	C	0.608360	0.125142	0.176315
	C182	C	0.378786	0.123773	0.823295
	C183	C	0.607898	0.886056	0.821754
	C184	C	0.876302	0.179830	0.383589
	C185	C	0.112019	0.183968	0.614281
	C186	C	0.110715	0.829392	0.384456
	C187	C	0.874793	0.831115	0.615087
	C188	C	0.169222	0.389960	0.880411
	C189	C	0.170103	0.621069	0.119480
	C190	C	0.816605	0.390378	0.118187
	C191	C	0.817369	0.620783	0.881687
	C192	C	0.394227	0.101366	0.599689
	C193	C	0.591956	0.910736	0.597328
	C194	C	0.593492	0.101539	0.400564
	C195	C	0.393693	0.911108	0.400079
	C196	C	0.593169	0.407286	0.095462
	C197	C	0.593718	0.604131	0.905587
	C198	C	0.393514	0.605220	0.094437
	C199	C	0.392735	0.404909	0.905008
	C200	C	0.086628	0.604898	0.399772
	C201	C	0.898055	0.606317	0.601874
	C202	C	0.086716	0.407991	0.598680
	C203	C	0.897850	0.405353	0.397969
	C204	C	0.895141	0.601007	0.098877
	C205	C	0.093097	0.409754	0.099149
	C206	C	0.093696	0.601064	0.900778
	C207	C	0.893322	0.410004	0.899696
	C208	C	0.093633	0.907682	0.594517
	C209	C	0.094623	0.105556	0.404337
	C210	C	0.893710	0.105293	0.594144
	C211	C	0.892981	0.905664	0.404389
	C212	C	0.588087	0.105333	0.899351
	C213	C	0.399114	0.104803	0.099821
	C214	C	0.587842	0.906597	0.099314
	C215	C	0.398545	0.903811	0.897731
	Zn216	Zn	0.493304	0.005299	0.748531
	Zn217	Zn	0.493542	0.006126	0.250213
	Zn218	Zn	0.744274	0.505522	-0.000018
	Zn219	Zn	0.242838	0.505400	-0.000352
	Zn220	Zn	-0.007739	0.755871	0.499885
	Zn221	Zn	-0.006748	0.255995	0.498535
	Zn222	Zn	-0.006791	0.505924	0.750770
	Zn223	Zn	-0.007132	0.505449	0.248617
	Zn224	Zn	0.493448	0.754932	-0.000220
	Zn225	Zn	0.493497	0.256134	0.000196
	Zn226	Zn	0.742890	0.005982	0.499195
	Zn227	Zn	0.244114	0.006441	0.499370
	N228	N	0.408293	0.968107	0.676101
	N229	N	0.578643	0.043207	0.676883
	N230	N	0.578268	0.968579	0.321903
	N231	N	0.408949	0.043904	0.322510
	N232	N	0.671775	0.419951	0.963515
	N233	N	0.673273	0.592799	0.037029
	N234	N	0.314830	0.591454	0.962926
	N235	N	0.313988	0.419386	0.036781
	N236	N	0.954902	0.682182	0.415541
	N237	N	0.030076	0.684399	0.585504
	N238	N	0.955287	0.328779	0.583128
	N239	N	0.029842	0.328053	0.412978
	N240	N	0.955878	0.420150	0.677973
	N241	N	0.029599	0.592806	0.679613
	N242	N	0.955369	0.591255	0.320550
	N243	N	0.029696	0.419838	0.320091
	N244	N	0.409429	0.681565	0.961945
	N245	N	0.578256	0.683436	0.037941
	N246	N	0.577832	0.328872	0.962967
	N247	N	0.408392	0.328354	0.037789
	N248	N	0.671860	0.969130	0.412685
	N249	N	0.671099	0.043332	0.584685
	N250	N	0.314671	0.969109	0.585342
	N251	N	0.315138	0.043382	0.413523
	N252	N	0.908783	0.467914	0.176004
	N253	N	0.078896	0.542849	0.177909
	N254	N	0.079043	0.468373	0.821597
	N255	N	0.909294	0.543545	0.823701
	N256	N	0.172080	0.920243	0.462432
	N257	N	0.172997	0.093344	0.536308
	N258	N	0.814815	0.091551	0.462433
	N259	N	0.813488	0.919376	0.536018
	N260	N	0.456136	0.182807	0.915153
	N261	N	0.530797	0.183802	0.085161
	N262	N	0.455412	0.828660	0.083459
	N263	N	0.530721	0.826938	0.913478
	N264	N	0.456792	0.919309	0.178765
	N265	N	0.530723	0.091799	0.178425
	N266	N	0.456558	0.091206	0.820757
	N267	N	0.530054	0.918479	0.819037
	N268	N	0.909816	0.181591	0.461248
	N269	N	0.079139	0.184954	0.536451
	N270	N	0.077378	0.828336	0.462281
	N271	N	0.908598	0.829451	0.537439
	N272	N	0.171468	0.468418	0.913834
	N273	N	0.171791	0.542685	0.085880
	N274	N	0.815092	0.468798	0.085820
	N275	N	0.814838	0.542282	0.913721
	O276	O	0.476449	-0.463252	0.556652
	H277	H	0.478550	-0.464747	0.561874
	H278	H	0.468562	-0.461799	0.548744
	O279	O	0.433978	0.533138	0.536783
	H280	H	0.435377	0.533100	0.542210
	H281	H	0.437928	0.536281	0.537127
	O282	O	0.440093	0.425910	0.572879
	H283	H	0.437640	0.426809	0.571994
	H284	H	0.433172	0.427558	0.576019
	O285	O	0.474793	0.518958	0.517237
	H286	H	0.478836	0.517263	0.519888
	H287	H	0.473614	0.510266	0.511825
	O288	O	0.426158	0.509773	0.545412
	H289	H	0.428847	0.510243	0.542440
	H290	H	0.431201	0.500762	0.551294
	O291	O	0.486359	0.468443	0.557875
	H292	H	0.485081	0.478801	0.565088
	H293	H	0.489412	0.472200	0.560239
	O294	O	0.495517	0.450746	0.565429
	H295	H	0.504847	0.448016	0.561986
	H296	H	0.483011	0.450979	0.559390
	O297	O	1.444922	0.491113	0.511855
	H298	H	1.440284	0.492418	0.512906
	H299	H	1.443075	0.492793	0.525845
