data_Molecule from HDF5

_cell_length_a		16.087554
_cell_length_b		16.320417
_cell_length_c		16.255561
_cell_angle_alpha	90.855059
_cell_angle_beta	90.818881
_cell_angle_gamma	91.156524
_symmetry_space_group_name_H-M	'P 1'
_symmetry_Int_Tables_number		1

loop_
	_symmetry_equiv_pos_as_xyz
	x,y,z

loop_
	_atom_site_label
	_atom_site_type_symbol
	_atom_site_fract_x
	_atom_site_fract_y
	_atom_site_fract_z
	H0	H	0.406928	0.823900	0.697014
	H1	H	0.617436	0.149639	0.710071
	H2	H	0.605328	0.825992	0.267430
	H3	H	0.409367	0.151085	0.268442
	H4	H	0.712489	0.390414	0.820154
	H5	H	0.726843	0.591682	0.148804
	H6	H	0.294967	0.577931	0.821872
	H7	H	0.291124	0.387292	0.149584
	H8	H	0.843821	0.700194	0.384648
	H9	H	0.171610	0.711766	0.591693
	H10	H	0.846024	0.271990	0.582758
	H11	H	0.174086	0.278433	0.385447
	H12	H	0.841753	0.391089	0.691755
	H13	H	0.170842	0.599236	0.707638
	H14	H	0.843999	0.586894	0.268041
	H15	H	0.172732	0.392075	0.270972
	H16	H	0.403928	0.697840	0.823220
	H17	H	0.615982	0.710244	0.146973
	H18	H	0.602091	0.269268	0.824190
	H19	H	0.404305	0.271407	0.149484
	H20	H	0.720265	0.824752	0.386566
	H21	H	0.728628	0.152585	0.588957
	H22	H	0.289806	0.826354	0.578936
	H23	H	0.297670	0.153956	0.388623
	H24	H	0.901361	0.326876	0.200219
	H25	H	0.115179	0.650650	0.206068
	H26	H	0.100714	0.328380	0.765348
	H27	H	0.907080	0.653575	0.770357
	H28	H	0.215292	0.892946	0.320476
	H29	H	0.229996	0.095120	0.649108
	H30	H	0.793721	0.085071	0.322952
	H31	H	0.795698	0.891993	0.650011
	H32	H	0.342629	0.194834	0.884334
	H33	H	0.669037	0.211590	0.096177
	H34	H	0.343453	0.769520	0.083118
	H35	H	0.673001	0.772071	0.886058
	H36	H	0.342740	0.885559	0.196399
	H37	H	0.672658	0.092142	0.203959
	H38	H	0.344910	0.081439	0.770245
	H39	H	0.675020	0.888422	0.773180
	H40	H	0.906194	0.202170	0.324064
	H41	H	0.119339	0.215302	0.647543
	H42	H	0.109540	0.769640	0.325019
	H43	H	0.906404	0.772840	0.648260
	H44	H	0.213672	0.323772	0.885848
	H45	H	0.229743	0.650151	0.087584
	H46	H	0.789833	0.325583	0.079136
	H47	H	0.792714	0.652996	0.887651
	H48	H	0.418191	0.103295	0.574443
	H49	H	0.601736	0.874324	0.573489
	H50	H	0.601988	0.106123	0.388676
	H51	H	0.403318	0.870142	0.386305
	H52	H	0.602943	0.399519	0.104136
	H53	H	0.606797	0.590227	0.862443
	H54	H	0.428556	0.590658	0.103382
	H55	H	0.412996	0.398060	0.872659
	H56	H	0.124687	0.579905	0.397132
	H57	H	0.889703	0.586509	0.569753
	H58	H	0.122590	0.409180	0.569603
	H59	H	0.892520	0.400702	0.390319
	H60	H	0.127770	0.411222	0.587831
	H61	H	0.891401	0.574476	0.576765
	H62	H	0.127179	0.584171	0.395987
	H63	H	0.888755	0.390198	0.389343
	H64	H	0.407668	0.581169	0.107338
	H65	H	0.602581	0.565882	0.871461
	H66	H	0.597372	0.402898	0.101466
	H67	H	0.418186	0.380038	0.869723
	H68	H	0.598195	0.100831	0.398854
	H69	H	0.605887	0.869081	0.582135
	H70	H	0.419322	0.107623	0.588453
	H71	H	0.418968	0.873507	0.384800
	H72	H	0.917522	0.605866	0.079956
	H73	H	0.099427	0.368430	0.086181
	H74	H	0.103497	0.609078	0.887375
	H75	H	0.909673	0.373138	0.884688
	H76	H	0.107493	0.898371	0.605914
	H77	H	0.108905	0.080889	0.368108
	H78	H	0.914312	0.090566	0.607432
	H79	H	0.913748	0.898954	0.370712
	H80	H	0.627216	0.075170	0.894137
	H81	H	0.386865	0.079047	0.080966
	H82	H	0.623731	0.898053	0.072616
	H83	H	0.393312	0.894966	0.893279
	H84	H	0.624789	0.903235	0.080360
	H85	H	0.389685	0.080393	0.074006
	H86	H	0.629133	0.089568	0.899401
	H87	H	0.389406	0.891462	0.885165
	H88	H	0.921196	0.073316	0.601023
	H89	H	0.093725	0.081456	0.372294
	H90	H	0.099210	0.911443	0.599065
	H91	H	0.919577	0.892912	0.370875
	H92	H	0.094090	0.602271	0.899652
	H93	H	0.087376	0.375459	0.077181
	H94	H	0.922419	0.604553	0.079823
	H95	H	0.911007	0.374329	0.887840
	H96	H	0.430812	0.102087	0.581903
	H97	H	0.596580	0.873144	0.582699
	H98	H	0.609297	0.106704	0.398792
	H99	H	0.412200	0.875556	0.397839
	H100	H	0.597068	0.395477	0.103446
	H101	H	0.582885	0.583177	0.871991
	H102	H	0.424402	0.568829	0.098399
	H103	H	0.400647	0.385984	0.864450
	H104	H	0.125323	0.582561	0.400253
	H105	H	0.886616	0.585241	0.582440
	H106	H	0.129644	0.394717	0.578453
	H107	H	0.893510	0.394722	0.399920
	H108	H	0.918591	0.602904	0.076592
	H109	H	0.101690	0.372314	0.070303
	H110	H	0.110308	0.606387	0.903127
	H111	H	0.908066	0.372862	0.886540
	H112	H	0.092002	0.896895	0.601494
	H113	H	0.100674	0.093973	0.366441
	H114	H	0.933154	0.089158	0.601272
	H115	H	0.912032	0.891071	0.367858
	H116	H	0.622869	0.078968	0.909123
	H117	H	0.391013	0.073010	0.077875
	H118	H	0.628148	0.895151	0.081037
	H119	H	0.391040	0.886076	0.893570
	C120	C	0.389432	-0.002932	0.607683
	C121	C	0.633467	0.979535	0.610426
	C122	C	0.630242	-0.003129	0.365109
	C123	C	0.384925	0.980917	0.361939
	C124	C	0.626087	0.368182	-0.004996
	C125	C	0.630195	0.611106	0.976398
	C126	C	0.388324	0.606594	-0.004904
	C127	C	0.382516	0.361760	0.977426
	C128	C	0.017029	0.610094	0.366020
	C129	C	0.998246	0.613979	0.608388
	C130	C	0.017698	0.372738	0.605178
	C131	C	1.000249	0.367852	0.364128
	C132	C	0.886824	0.497141	0.106277
	C133	C	0.130107	0.479293	0.108750
	C134	C	0.128118	0.498155	0.864986
	C135	C	0.882747	0.481544	0.860313
	C136	C	0.128223	0.870627	0.494509
	C137	C	0.133505	0.116052	0.476842
	C138	C	0.890467	0.111069	0.495240
	C139	C	0.886290	0.866321	0.477495
	C140	C	0.517329	0.106842	0.868718
	C141	C	0.498013	0.110120	0.109436
	C142	C	0.516638	0.867286	0.105837
	C143	C	0.500317	0.863744	0.863093
	C144	C	0.387995	0.873318	0.659967
	C145	C	0.635674	0.101785	0.669953
	C146	C	0.626175	0.874382	0.307028
	C147	C	0.388894	0.102955	0.306960
	C148	C	0.677054	0.369656	0.870301
	C149	C	0.688701	0.611450	0.099463
	C150	C	0.332231	0.600440	0.871137
	C151	C	0.328324	0.366440	0.100545
	C152	C	0.893032	0.663406	0.365352
	C153	C	0.122196	0.673004	0.610480
	C154	C	0.894369	0.312271	0.602340
	C155	C	0.124332	0.314767	0.365819
	C156	C	0.892113	0.371447	0.656650
	C157	C	0.121659	0.616849	0.668159
	C158	C	0.893231	0.607216	0.307268
	C159	C	0.123714	0.371185	0.308496
	C160	C	0.386522	0.659992	0.872023
	C161	C	0.633404	0.670289	0.098685
	C162	C	0.622441	0.309163	0.872410
	C163	C	0.384354	0.308358	0.100459
	C164	C	0.683432	0.873935	0.366356
	C165	C	0.691142	0.102986	0.609822
	C166	C	0.329561	0.874564	0.601380
	C167	C	0.333166	0.104337	0.366490
	C168	C	0.883822	0.375303	0.161699
	C169	C	0.133254	0.601854	0.166776
	C170	C	0.122230	0.376005	0.805629
	C171	C	0.886427	0.604546	0.807662
	C172	C	0.180616	0.872074	0.370564
	C173	C	0.191682	0.115361	0.599825
	C174	C	0.832491	0.106184	0.372076
	C175	C	0.832564	0.870600	0.600879
	C176	C	0.392340	0.158177	0.866888
	C177	C	0.620971	0.170672	0.112501
	C178	C	0.392726	0.808728	0.103002
	C179	C	0.624109	0.809627	0.865919
	C180	C	0.392367	0.866525	0.159617
	C181	C	0.622772	0.111088	0.166157
	C182	C	0.393645	0.101688	0.809630
	C183	C	0.624919	0.867270	0.809346
	C184	C	0.888633	0.164566	0.372569
	C185	C	0.136742	0.175249	0.599134
	C186	C	0.127880	0.810669	0.372856
	C187	C	0.887257	0.810949	0.599736
	C188	C	0.178205	0.373721	0.865527
	C189	C	0.190264	0.601689	0.107940
	C190	C	0.828282	0.374696	0.101279
	C191	C	0.829340	0.604174	0.865819
	C192	C	0.415196	0.082317	0.587539
	C193	C	0.608719	0.894334	0.586379
	C194	C	0.609362	0.082299	0.388379
	C195	C	0.405439	0.895238	0.383263
	C196	C	0.605275	0.392279	0.080771
	C197	C	0.604881	0.586847	0.890713
	C198	C	0.412994	0.586107	0.080765
	C199	C	0.404368	0.381913	0.891314
	C200	C	0.103353	0.588580	0.390619
	C201	C	0.911777	0.589350	0.583474
	C202	C	0.104146	0.397874	0.584597
	C203	C	0.913893	0.388887	0.386605
	C204	C	0.912145	0.582381	0.084980
	C205	C	0.103944	0.394297	0.084886
	C206	C	0.108511	0.583714	0.889387
	C207	C	0.903399	0.395841	0.880405
	C208	C	0.106080	0.894965	0.580124
	C209	C	0.108456	0.092371	0.391217
	C210	C	0.915474	0.090460	0.581024
	C211	C	0.908563	0.887831	0.392058
	C212	C	0.603996	0.086983	0.893758
	C213	C	0.411490	0.084903	0.084730
	C214	C	0.603228	0.891738	0.084424
	C215	C	0.413624	0.884546	0.884321
	Zn216	Zn	0.511072	-0.012597	0.738343
	Zn217	Zn	0.507856	-0.011305	0.234367
	Zn218	Zn	0.756414	0.489281	-0.015782
	Zn219	Zn	0.258469	0.486196	-0.013923
	Zn220	Zn	0.008238	0.739431	0.486269
	Zn221	Zn	0.010615	0.242135	0.486185
	Zn222	Zn	0.006353	0.492256	0.733992
	Zn223	Zn	0.007867	0.488751	0.237381
	Zn224	Zn	0.508217	0.737256	-0.014699
	Zn225	Zn	0.505754	0.236178	-0.011640
	Zn226	Zn	0.760658	-0.010660	0.486747
	Zn227	Zn	0.257987	-0.008951	0.484996
	N228	N	0.424444	0.950414	0.663957
	N229	N	0.600710	0.024112	0.670719
	N230	N	0.594034	0.951868	0.306006
	N231	N	0.420062	0.025134	0.303740
	N232	N	0.679798	0.405555	0.947546
	N233	N	0.686891	0.575313	0.022314
	N234	N	0.333079	0.567863	0.948662
	N235	N	0.326671	0.398621	0.022931
	N236	N	0.971211	0.665467	0.401091
	N237	N	0.044559	0.671290	0.573961
	N238	N	0.973511	0.312777	0.571133
	N239	N	0.046315	0.312383	0.399503
	N240	N	0.969624	0.408635	0.658411
	N241	N	0.043427	0.581161	0.667080
	N242	N	0.971327	0.574776	0.307780
	N243	N	0.045485	0.403472	0.307289
	N244	N	0.420768	0.664047	0.950143
	N245	N	0.597830	0.670297	0.021185
	N246	N	0.591267	0.308228	0.950853
	N247	N	0.417431	0.305258	0.022807
	N248	N	0.685945	0.950984	0.401908
	N249	N	0.690000	0.026191	0.573655
	N250	N	0.330113	0.952373	0.569747
	N251	N	0.330608	0.027365	0.399963
	N252	N	0.919755	0.452496	0.164912
	N253	N	0.096473	0.524855	0.167420
	N254	N	0.091949	0.454378	0.804897
	N255	N	0.918730	0.527291	0.803847
	N256	N	0.180928	0.908947	0.447315
	N257	N	0.190093	0.079475	0.522700
	N258	N	0.833385	0.073682	0.449608
	N259	N	0.831628	0.904146	0.523812
	N260	N	0.470308	0.161618	0.903011
	N261	N	0.542420	0.170085	0.077745
	N262	N	0.471170	0.808860	0.070458
	N263	N	0.545598	0.807089	0.898420
	N264	N	0.470327	0.902611	0.161314
	N265	N	0.545250	0.074112	0.164425
	N266	N	0.472301	0.070236	0.810749
	N267	N	0.547004	0.900412	0.807629
	N268	N	0.924182	0.167790	0.450167
	N269	N	0.101438	0.175917	0.521495
	N270	N	0.095879	0.809674	0.451017
	N271	N	0.919823	0.807970	0.521975
	N272	N	0.181745	0.450409	0.901965
	N273	N	0.188493	0.524482	0.072584
	N274	N	0.829950	0.451482	0.067609
	N275	N	0.826730	0.526615	0.897857
	O276	O	0.978972	-0.064643	1.134160
	H277	H	0.968401	-0.056507	1.146613
	H278	H	0.979496	-0.057482	1.127065
	O279	O	0.545653	0.352111	0.468031
	H280	H	0.546228	0.356866	0.469874
	H281	H	0.543517	0.341835	0.469854
	O282	O	0.486064	0.473839	0.515366
	H283	H	0.484690	0.475849	0.515482
	H284	H	0.487948	0.468936	0.502737
	O285	O	0.489870	0.473929	0.564872
	H286	H	0.486911	0.467543	0.556827
	H287	H	0.488036	0.481394	0.556839
	O288	O	0.576482	0.514953	0.459640
	H289	H	0.574807	0.523630	0.461619
	H290	H	0.570175	0.515328	0.464451
	O291	O	0.060835	0.019395	0.981263
	H292	H	0.071469	0.012865	0.981427
	H293	H	0.038501	0.017667	0.978912
	O294	O	1.004326	0.893560	-0.110677
	H295	H	1.014042	0.890624	-0.106031
	H296	H	1.008325	0.877472	-0.114589
	O297	O	0.985218	0.872650	0.023834
	H298	H	0.976263	0.864620	0.026040
	H299	H	0.991876	0.876151	0.024090
	O300	O	0.576489	0.473243	0.431604
	H301	H	0.584551	0.478031	0.430096
	H302	H	0.568255	0.469728	0.423373
	O303	O	-0.039074	0.947892	1.061759
	H304	H	-0.041903	0.956342	1.055655
	H305	H	-0.048342	0.942394	1.065801
	O306	O	0.611112	0.470142	0.495088
	H307	H	0.612116	0.468449	0.482291
	H308	H	0.619575	0.461854	0.500862
	O309	O	0.471929	0.409429	0.357790
	H310	H	0.467569	0.402992	0.367300
	H311	H	0.486359	0.401681	0.359239
	O312	O	1.531379	1.578556	1.483893
	H313	H	1.521270	1.578177	1.489887
	H314	H	1.525265	1.572362	1.480346
	O315	O	1.467157	1.520420	-0.618351
	H316	H	1.465476	1.510562	-0.613705
	H317	H	1.473436	1.521598	-0.618247
	O318	O	-0.006312	0.988966	0.998193
	H319	H	-0.010979	0.978496	0.993400
	H320	H	-0.007218	0.990937	1.005853
	O321	O	0.603159	0.439140	0.467897
	H322	H	0.602175	0.454354	0.464319
	H323	H	0.604108	0.451615	0.481445
	O324	O	0.011848	0.925464	1.003159
	H325	H	0.013823	0.938714	1.006891
	H326	H	0.018542	0.926898	0.997888
	O327	O	0.128840	1.078489	1.165490
	H328	H	0.140345	1.076694	1.171344
	H329	H	0.141248	1.082872	1.157755
	O330	O	-0.481339	0.575910	0.452029
	H331	H	-0.485104	0.575465	0.440335
	H332	H	-0.481653	0.578162	0.468864
	O333	O	0.080399	0.985476	0.956844
	H334	H	0.089124	0.990010	0.958196
	H335	H	0.066328	0.994002	0.954111
	O336	O	-1.072337	-0.977936	0.860268
	H337	H	-1.057836	-0.982417	0.860176
	H338	H	-1.063118	-0.978187	0.861870
	O339	O	0.177746	-0.076797	-0.041804
	H340	H	0.183970	-0.068127	-0.046145
	H341	H	0.176246	-0.079031	-0.038884
	O342	O	0.406659	0.486798	0.504443
	H343	H	0.405627	0.491716	0.499366
	H344	H	0.395711	0.480848	0.506761
	O345	O	0.529959	0.559159	1.653916
	H346	H	0.532719	0.570654	1.645488
	H347	H	0.545747	0.563399	1.659231
	O348	O	0.403944	0.437433	0.604553
	H349	H	0.403041	0.452144	0.607496
	H350	H	0.414483	0.435865	0.602234
	O351	O	0.527018	0.472907	-0.643864
	H352	H	0.524620	0.473493	-0.649354
	H353	H	0.526924	0.482841	-0.648747
	O354	O	0.018661	0.994414	-0.054029
	H355	H	0.008005	0.983439	-0.036350
	H356	H	0.026327	0.991947	-0.057395
	O357	O	0.435036	0.469281	0.454725
	H358	H	0.419297	0.460143	0.463984
	H359	H	0.439879	0.477361	0.453489
	O360	O	1.142761	0.118513	0.963024
	H361	H	1.130179	0.104259	0.975697
	H362	H	1.159171	0.127759	0.964202
	O363	O	0.573308	0.538298	0.586931
	H364	H	0.569106	0.538052	0.580303
	H365	H	0.580703	0.539986	0.584780
	O366	O	0.512495	0.602934	0.545313
	H367	H	0.522430	0.610476	0.555248
	H368	H	0.519424	0.590975	0.541170
	O369	O	1.018309	0.095389	-0.039752
	H370	H	1.009391	0.094722	-0.048690
	H371	H	1.019351	0.101175	-0.029570
	O372	O	0.397627	0.480139	0.514087
	H373	H	0.396650	0.473867	0.518085
	H374	H	0.397099	0.482629	0.531563
	O375	O	0.891564	-0.022660	0.946765
	H376	H	0.906724	-0.023108	0.942803
	H377	H	0.876526	-0.020554	0.957029
	O378	O	0.097538	0.820936	-0.037119
	H379	H	0.110809	0.808074	-0.045326
	H380	H	0.104796	0.822814	-0.015216
	O381	O	-0.155255	1.078582	0.944554
	H382	H	-0.166123	1.089075	0.937624
	H383	H	-0.154850	1.079903	0.927959
	O384	O	0.972549	1.069198	0.097173
	H385	H	0.968259	1.062632	0.091976
	H386	H	0.982678	1.083546	0.097412
	O387	O	0.896105	-0.020063	1.009998
	H388	H	0.891667	-0.017670	1.006876
	H389	H	0.905908	-0.019890	1.005160
	O390	O	1.067429	0.970324	0.099283
	H391	H	1.065290	0.974200	0.090374
	H392	H	1.057696	0.967491	0.103917
	O393	O	-0.005405	1.041255	-0.088668
	H394	H	-0.013588	1.043193	-0.097033
	H395	H	-0.003485	1.049762	-0.089347
