data_Molecule from HDF5

_cell_length_a		16.287638
_cell_length_b		16.260581
_cell_length_c		16.192946
_cell_angle_alpha	89.965239
_cell_angle_beta	89.987311
_cell_angle_gamma	90.178638
_symmetry_space_group_name_H-M	'P 1'
_symmetry_Int_Tables_number		1

loop_
	_symmetry_equiv_pos_as_xyz
	x,y,z

loop_
	_atom_site_label
	_atom_site_type_symbol
	_atom_site_fract_x
	_atom_site_fract_y
	_atom_site_fract_z
	H0	H	0.397663	0.835905	0.719525
	H1	H	0.593559	0.162955	0.719708
	H2	H	0.592369	0.834843	0.292967
	H3	H	0.398057	0.163520	0.291294
	H4	H	0.708754	0.401876	0.841066
	H5	H	0.711698	0.599422	0.169472
	H6	H	0.283129	0.597895	0.840586
	H7	H	0.280694	0.400530	0.170032
	H8	H	0.832254	0.714299	0.406760
	H9	H	0.159753	0.715095	0.603740
	H10	H	0.832410	0.284959	0.604713
	H11	H	0.159107	0.284819	0.405844
	H12	H	0.831841	0.401625	0.719704
	H13	H	0.160570	0.598362	0.718910
	H14	H	0.831728	0.597614	0.291378
	H15	H	0.160040	0.403408	0.292536
	H16	H	0.399931	0.713177	0.841213
	H17	H	0.595678	0.714644	0.169645
	H18	H	0.592967	0.286078	0.841116
	H19	H	0.396506	0.285030	0.170184
	H20	H	0.711111	0.836083	0.405923
	H21	H	0.710123	0.163400	0.604167
	H22	H	0.279281	0.836277	0.606197
	H23	H	0.281690	0.163665	0.407796
	H24	H	0.897772	0.335591	0.219503
	H25	H	0.094364	0.664439	0.218388
	H26	H	0.091302	0.335583	0.793233
	H27	H	0.899165	0.664450	0.792205
	H28	H	0.209698	0.901074	0.341863
	H29	H	0.210853	0.099675	0.670155
	H30	H	0.782139	0.098569	0.341146
	H31	H	0.780601	0.901023	0.670576
	H32	H	0.332705	0.213731	0.906316
	H33	H	0.659185	0.214319	0.105245
	H34	H	0.333014	0.784002	0.104645
	H35	H	0.659685	0.786655	0.907346
	H36	H	0.331800	0.900575	0.219033
	H37	H	0.658764	0.097765	0.221107
	H38	H	0.331835	0.096369	0.791947
	H39	H	0.659170	0.901051	0.790394
	H40	H	0.897648	0.213557	0.341490
	H41	H	0.094642	0.214766	0.670497
	H42	H	0.093143	0.787653	0.341109
	H43	H	0.895139	0.784069	0.670054
	H44	H	0.209090	0.335428	0.907255
	H45	H	0.212374	0.663063	0.105269
	H46	H	0.779369	0.336364	0.106111
	H47	H	0.781143	0.663352	0.905417
	H48	H	0.408272	0.115421	0.598985
	H49	H	0.593040	0.879190	0.604141
	H50	H	0.577826	0.114232	0.410016
	H51	H	0.392149	0.878907	0.410204
	H52	H	0.596058	0.414047	0.123928
	H53	H	0.582889	0.580645	0.893853
	H54	H	0.405585	0.591641	0.122204
	H55	H	0.412272	0.404244	0.890638
	H56	H	0.110379	0.596262	0.420421
	H57	H	0.880931	0.592507	0.595461
	H58	H	0.113424	0.404015	0.600087
	H59	H	0.877853	0.402783	0.413128
	H60	H	0.111468	0.406960	0.595066
	H61	H	0.879447	0.589933	0.600797
	H62	H	0.111477	0.587144	0.409262
	H63	H	0.880544	0.408994	0.414989
	H64	H	0.401957	0.593955	0.124237
	H65	H	0.581233	0.605460	0.887393
	H66	H	0.579100	0.409531	0.119116
	H67	H	0.396255	0.397503	0.883240
	H68	H	0.592862	0.113375	0.425054
	H69	H	0.580246	0.884676	0.598682
	H70	H	0.400128	0.115913	0.593136
	H71	H	0.408753	0.883233	0.406664
	H72	H	0.899117	0.617048	0.095240
	H73	H	0.082611	0.379441	0.118401
	H74	H	0.098113	0.620235	0.909689
	H75	H	0.905590	0.384917	0.914309
	H76	H	0.086514	0.909408	0.622803
	H77	H	0.082765	0.093241	0.390378
	H78	H	0.895734	0.090105	0.624946
	H79	H	0.897030	0.901035	0.385210
	H80	H	0.612700	0.093305	0.912803
	H81	H	0.379294	0.085030	0.103304
	H82	H	0.610912	0.904881	0.088965
	H83	H	0.380822	0.904828	0.917919
	H84	H	0.610687	0.916150	0.102351
	H85	H	0.376233	0.099634	0.102648
	H86	H	0.612623	0.092603	0.912500
	H87	H	0.379345	0.910057	0.909680
	H88	H	0.908070	0.088851	0.620354
	H89	H	0.091592	0.096219	0.386397
	H90	H	0.086208	0.905627	0.623751
	H91	H	0.899728	0.915748	0.390627
	H92	H	0.084929	0.616959	0.906939
	H93	H	0.074933	0.391888	0.084169
	H94	H	0.903302	0.617492	0.102605
	H95	H	0.899523	0.383245	0.915252
	H96	H	0.400133	0.118559	0.602500
	H97	H	0.592721	0.883725	0.589988
	H98	H	0.596896	0.120331	0.405375
	H99	H	0.403000	0.885770	0.423078
	H100	H	0.589585	0.397798	0.126345
	H101	H	0.603768	0.592661	0.883907
	H102	H	0.401827	0.589841	0.122800
	H103	H	0.397145	0.415022	0.889302
	H104	H	0.115385	0.600861	0.407653
	H105	H	0.878356	0.595890	0.600113
	H106	H	0.112145	0.410456	0.600488
	H107	H	0.878238	0.407543	0.408647
	H108	H	0.906787	0.613891	0.095105
	H109	H	0.109137	0.378517	0.092365
	H110	H	0.089465	0.614865	0.919356
	H111	H	0.902151	0.381989	0.909522
	H112	H	0.090532	0.907611	0.623250
	H113	H	0.089807	0.087093	0.390464
	H114	H	0.903859	0.100465	0.624751
	H115	H	0.911464	0.905368	0.391444
	H116	H	0.612591	0.093454	0.912378
	H117	H	0.380584	0.092066	0.090447
	H118	H	0.616884	0.900067	0.105459
	H119	H	0.376709	0.900430	0.909800
	C120	C	0.373789	0.008386	0.627211
	C121	C	0.617110	0.990788	0.626713
	C122	C	0.617304	0.007908	0.384303
	C123	C	0.373498	0.990982	0.384510
	C124	C	0.616501	0.378425	0.014144
	C125	C	0.617649	0.621045	0.997188
	C126	C	0.375224	0.620659	0.014274
	C127	C	0.373309	0.377238	0.996785
	C128	C	0.004020	0.622418	0.383459
	C129	C	0.987968	0.621915	0.627467
	C130	C	0.004068	0.378606	0.627091
	C131	C	0.987482	0.378363	0.383707
	C132	C	0.874035	0.508039	0.127026
	C133	C	0.117614	0.491538	0.126712
	C134	C	0.118189	0.508380	0.883938
	C135	C	0.874230	0.491630	0.884150
	C136	C	0.116146	0.879115	0.514249
	C137	C	0.117278	0.121285	0.497785
	C138	C	0.873970	0.121549	0.514614
	C139	C	0.873685	0.878189	0.497580
	C140	C	0.504581	0.121155	0.883742
	C141	C	0.487053	0.120784	0.127075
	C142	C	0.504543	0.877795	0.127463
	C143	C	0.487307	0.877678	0.883896
	C144	C	0.376409	0.884607	0.681934
	C145	C	0.614475	0.114438	0.681786
	C146	C	0.613780	0.884192	0.329688
	C147	C	0.377337	0.114701	0.329414
	C148	C	0.671151	0.380927	0.890276
	C149	C	0.673141	0.619353	0.120729
	C150	C	0.321206	0.617752	0.889713
	C151	C	0.318590	0.380352	0.120818
	C152	C	0.881124	0.676887	0.385807
	C153	C	0.110858	0.677385	0.624591
	C154	C	0.881030	0.322992	0.625191
	C155	C	0.110418	0.323189	0.385975
	C156	C	0.880961	0.380978	0.682513
	C157	C	0.111201	0.619362	0.681890
	C158	C	0.880953	0.618857	0.328514
	C159	C	0.110894	0.381788	0.329265
	C160	C	0.378851	0.675201	0.889931
	C161	C	0.615697	0.676525	0.120878
	C162	C	0.613311	0.323910	0.890233
	C163	C	0.375858	0.322803	0.120940
	C164	C	0.672808	0.884781	0.385868
	C165	C	0.672488	0.114323	0.624804
	C166	C	0.317962	0.884961	0.625597
	C167	C	0.319145	0.114714	0.386808
	C168	C	0.876844	0.384613	0.181892
	C169	C	0.115195	0.615208	0.181462
	C170	C	0.113520	0.384688	0.829976
	C171	C	0.878083	0.615205	0.829672
	C172	C	0.171659	0.881029	0.390870
	C173	C	0.172692	0.119667	0.621180
	C174	C	0.819549	0.118888	0.390526
	C175	C	0.818379	0.880253	0.621335
	C176	C	0.381286	0.175664	0.886190
	C177	C	0.610217	0.176478	0.125250
	C178	C	0.381748	0.821961	0.125262
	C179	C	0.610658	0.823548	0.886501
	C180	C	0.381212	0.879946	0.182062
	C181	C	0.610252	0.118330	0.182534
	C182	C	0.381077	0.117533	0.829018
	C183	C	0.610350	0.880578	0.828592
	C184	C	0.876852	0.176191	0.390492
	C185	C	0.114676	0.176685	0.621431
	C186	C	0.113689	0.824538	0.390509
	C187	C	0.875461	0.822501	0.621157
	C188	C	0.171923	0.384818	0.886708
	C189	C	0.173540	0.614598	0.125009
	C190	C	0.818105	0.384880	0.125489
	C191	C	0.819224	0.614660	0.885727
	C192	C	0.396144	0.094353	0.604696
	C193	C	0.595013	0.904808	0.604452
	C194	C	0.595634	0.093838	0.406749
	C195	C	0.394880	0.904968	0.406770
	C196	C	0.594705	0.400588	0.100712
	C197	C	0.595825	0.599335	0.910903
	C198	C	0.396828	0.598479	0.100644
	C199	C	0.395340	0.399105	0.910020
	C200	C	0.090128	0.600875	0.405721
	C201	C	0.901823	0.599524	0.605255
	C202	C	0.090059	0.400673	0.604873
	C203	C	0.901308	0.399988	0.405759
	C204	C	0.896263	0.593944	0.104303
	C205	C	0.095316	0.405441	0.104964
	C206	C	0.096975	0.595044	0.905440
	C207	C	0.895838	0.405556	0.906572
	C208	C	0.094186	0.901105	0.600904
	C209	C	0.094780	0.098798	0.411366
	C210	C	0.896047	0.099631	0.601200
	C211	C	0.896184	0.900754	0.411304
	C212	C	0.590543	0.099610	0.906021
	C213	C	0.401022	0.098843	0.105283
	C214	C	0.590680	0.900287	0.105409
	C215	C	0.401123	0.898803	0.905957
	Zn216	Zn	0.495518	-0.000744	0.755032
	Zn217	Zn	0.495564	-0.001031	0.255672
	Zn218	Zn	0.745462	0.499779	0.005407
	Zn219	Zn	0.246179	0.499837	0.005483
	Zn220	Zn	-0.004613	0.750698	0.505870
	Zn221	Zn	-0.004377	0.249678	0.505852
	Zn222	Zn	-0.003829	0.500027	0.756046
	Zn223	Zn	-0.003933	0.499982	0.255414
	Zn224	Zn	0.496598	0.749611	0.005876
	Zn225	Zn	0.495684	0.249951	0.005674
	Zn226	Zn	0.746078	-0.000269	0.505964
	Zn227	Zn	0.244888	-0.000314	0.506291
	N228	N	0.410317	0.962028	0.683195
	N229	N	0.580846	0.036671	0.683089
	N230	N	0.579704	0.961689	0.328812
	N231	N	0.410344	0.036741	0.327732
	N232	N	0.673389	0.414020	0.968416
	N233	N	0.674289	0.585482	0.042965
	N234	N	0.318853	0.584660	0.967866
	N235	N	0.316902	0.413280	0.042517
	N236	N	0.958582	0.679072	0.419376
	N237	N	0.033097	0.678867	0.591491
	N238	N	0.958590	0.321289	0.591604
	N239	N	0.032496	0.320663	0.418867
	N240	N	0.958535	0.414806	0.683902
	N241	N	0.033640	0.585396	0.683692
	N242	N	0.958528	0.585568	0.327199
	N243	N	0.033563	0.415530	0.328050
	N244	N	0.411703	0.677095	0.968237
	N245	N	0.581882	0.677828	0.043052
	N246	N	0.580072	0.322534	0.968394
	N247	N	0.409184	0.320769	0.042897
	N248	N	0.674855	0.962390	0.419274
	N249	N	0.674022	0.036656	0.591062
	N250	N	0.316191	0.963065	0.592491
	N251	N	0.316549	0.037027	0.420135
	N252	N	0.910865	0.462040	0.183014
	N253	N	0.080988	0.537536	0.182715
	N254	N	0.080778	0.462479	0.828423
	N255	N	0.911681	0.537715	0.828685
	N256	N	0.173182	0.914275	0.468874
	N257	N	0.173969	0.085887	0.543395
	N258	N	0.817590	0.085770	0.468770
	N259	N	0.817209	0.914106	0.543600
	N260	N	0.458991	0.177990	0.919568
	N261	N	0.532406	0.178399	0.091752
	N262	N	0.459592	0.820517	0.092087
	N263	N	0.533126	0.821458	0.920240
	N264	N	0.458663	0.913910	0.183624
	N265	N	0.532897	0.084602	0.183891
	N266	N	0.458555	0.084218	0.827547
	N267	N	0.532632	0.913476	0.826882
	N268	N	0.910206	0.177919	0.468544
	N269	N	0.080799	0.177884	0.543361
	N270	N	0.079770	0.823446	0.468351
	N271	N	0.909312	0.821229	0.543134
	N272	N	0.174856	0.462964	0.919514
	N273	N	0.175273	0.536851	0.091899
	N274	N	0.816550	0.462624	0.091669
	N275	N	0.816835	0.536785	0.919130
	O276	O	1.053006	0.022517	1.087389
	H277	H	1.054130	0.022831	1.102932
	H278	H	1.054479	0.026481	1.084241
	O279	O	1.033384	-0.014907	0.043371
	H280	H	1.032892	-0.012040	0.035614
	H281	H	1.037265	-0.018723	0.044827
	O282	O	1.032838	0.989648	0.087205
	H283	H	1.041409	0.986423	0.081796
	H284	H	1.020498	0.986113	0.085615
	O285	O	0.039488	0.990366	0.067011
	H286	H	0.045499	1.007258	0.072062
	H287	H	0.040139	0.977881	0.069704
