data_Molecule from HDF5

_cell_length_a		16.327994
_cell_length_b		16.150495
_cell_length_c		16.223690
_cell_angle_alpha	90.060399
_cell_angle_beta	89.886015
_cell_angle_gamma	89.862111
_symmetry_space_group_name_H-M	'P 1'
_symmetry_Int_Tables_number		1

loop_
	_symmetry_equiv_pos_as_xyz
	x,y,z

loop_
	_atom_site_label
	_atom_site_type_symbol
	_atom_site_fract_x
	_atom_site_fract_y
	_atom_site_fract_z
	H0	H	0.391708	0.840375	0.716757
	H1	H	0.585228	0.171230	0.716948
	H2	H	0.587899	0.840909	0.290823
	H3	H	0.391077	0.171715	0.291777
	H4	H	0.703995	0.405050	0.839530
	H5	H	0.704240	0.607346	0.166211
	H6	H	0.274040	0.606342	0.839142
	H7	H	0.273385	0.408190	0.167382
	H8	H	0.826173	0.720276	0.406429
	H9	H	0.153395	0.717852	0.600734
	H10	H	0.825140	0.291995	0.601857
	H11	H	0.153434	0.291880	0.406793
	H12	H	0.825523	0.407204	0.718378
	H13	H	0.152441	0.603890	0.718462
	H14	H	0.825554	0.604563	0.289170
	H15	H	0.152035	0.405640	0.287484
	H16	H	0.392648	0.717935	0.838435
	H17	H	0.582545	0.716812	0.168710
	H18	H	0.584440	0.293576	0.838113
	H19	H	0.391391	0.293367	0.168395
	H20	H	0.704033	0.841160	0.404082
	H21	H	0.701719	0.170492	0.602527
	H22	H	0.275737	0.840572	0.602899
	H23	H	0.273485	0.170024	0.405153
	H24	H	0.891709	0.340002	0.216173
	H25	H	0.084490	0.670845	0.215856
	H26	H	0.085666	0.339860	0.791927
	H27	H	0.890736	0.669949	0.789653
	H28	H	0.205327	0.904754	0.340847
	H29	H	0.202599	0.104647	0.668794
	H30	H	0.774585	0.104568	0.340067
	H31	H	0.773869	0.906525	0.668065
	H32	H	0.324357	0.218245	0.908447
	H33	H	0.652905	0.220615	0.101967
	H34	H	0.324522	0.793637	0.100942
	H35	H	0.652733	0.792837	0.908071
	H36	H	0.325435	0.909148	0.218710
	H37	H	0.652484	0.104757	0.218180
	H38	H	0.325255	0.104253	0.790259
	H39	H	0.652260	0.907794	0.790041
	H40	H	0.892507	0.217575	0.338969
	H41	H	0.084028	0.218038	0.669024
	H42	H	0.085896	0.793189	0.338919
	H43	H	0.892787	0.792246	0.668967
	H44	H	0.205107	0.342474	0.901802
	H45	H	0.200137	0.671446	0.100934
	H46	H	0.774007	0.341476	0.102042
	H47	H	0.775546	0.671313	0.904982
	H48	H	0.394639	0.124875	0.600748
	H49	H	0.577648	0.889509	0.595557
	H50	H	0.584984	0.126385	0.404929
	H51	H	0.387025	0.886377	0.414183
	H52	H	0.586661	0.416021	0.121413
	H53	H	0.578178	0.595783	0.887504
	H54	H	0.391786	0.590452	0.118460
	H55	H	0.400372	0.412936	0.887778
	H56	H	0.107775	0.600581	0.405142
	H57	H	0.869408	0.598247	0.608851
	H58	H	0.109748	0.409372	0.610900
	H59	H	0.872568	0.412403	0.409039
	H60	H	0.105636	0.400516	0.587790
	H61	H	0.871664	0.608743	0.590401
	H62	H	0.104948	0.599700	0.412190
	H63	H	0.872905	0.411021	0.410932
	H64	H	0.399990	0.602634	0.119911
	H65	H	0.581867	0.605375	0.883833
	H66	H	0.578736	0.417805	0.117911
	H67	H	0.391614	0.410028	0.884328
	H68	H	0.574309	0.121580	0.412610
	H69	H	0.585960	0.887328	0.594210
	H70	H	0.397671	0.122114	0.594883
	H71	H	0.400578	0.886566	0.402103
	H72	H	0.890349	0.626600	0.101587
	H73	H	0.079086	0.390484	0.089356
	H74	H	0.079511	0.624792	0.905152
	H75	H	0.898736	0.390469	0.915774
	H76	H	0.084251	0.914124	0.621693
	H77	H	0.086678	0.100140	0.385210
	H78	H	0.876883	0.104295	0.628395
	H79	H	0.892158	0.906901	0.383862
	H80	H	0.607690	0.098262	0.901350
	H81	H	0.373130	0.099599	0.097298
	H82	H	0.606229	0.903697	0.092190
	H83	H	0.368876	0.896182	0.915909
	H84	H	0.601805	0.919116	0.093886
	H85	H	0.372449	0.098657	0.099910
	H86	H	0.606932	0.107260	0.913678
	H87	H	0.377592	0.925240	0.919093
	H88	H	0.897123	0.079073	0.615116
	H89	H	0.083027	0.093407	0.387994
	H90	H	0.081211	0.910555	0.620930
	H91	H	0.892697	0.919993	0.387943
	H92	H	0.076676	0.622784	0.913599
	H93	H	0.088601	0.386286	0.094851
	H94	H	0.902492	0.621579	0.098460
	H95	H	0.888121	0.386252	0.912471
	H96	H	0.390271	0.124424	0.594979
	H97	H	0.582593	0.885989	0.601051
	H98	H	0.587287	0.123137	0.418439
	H99	H	0.403053	0.892653	0.419231
	H100	H	0.580656	0.409136	0.121138
	H101	H	0.588763	0.597150	0.884663
	H102	H	0.386353	0.603819	0.124049
	H103	H	0.393208	0.419013	0.886634
	H104	H	0.104646	0.594681	0.407877
	H105	H	0.877363	0.588432	0.591978
	H106	H	0.100688	0.424090	0.592823
	H107	H	0.872697	0.413186	0.410563
	H108	H	0.892841	0.621753	0.089525
	H109	H	0.078954	0.386971	0.101136
	H110	H	0.086099	0.624027	0.912061
	H111	H	0.897551	0.386242	0.904392
	H112	H	0.085379	0.909788	0.623597
	H113	H	0.078888	0.099397	0.387755
	H114	H	0.910263	0.111646	0.620669
	H115	H	0.903478	0.912315	0.389608
	H116	H	0.602189	0.092487	0.914512
	H117	H	0.371742	0.101539	0.099078
	H118	H	0.608489	0.910471	0.107251
	H119	H	0.367643	0.915005	0.893088
	C120	C	0.367070	0.014170	0.625292
	C121	C	0.610042	0.997111	0.625437
	C122	C	0.610748	0.014280	0.382773
	C123	C	0.368055	0.997418	0.383037
	C124	C	0.609780	0.385071	0.011457
	C125	C	0.609974	0.627305	0.994300
	C126	C	0.365916	0.627697	0.012045
	C127	C	0.366650	0.384866	0.994850
	C128	C	-0.002306	0.626989	0.381043
	C129	C	0.980973	0.626713	0.625500
	C130	C	-0.002499	0.383117	0.625703
	C131	C	0.980759	0.383572	0.381517
	C132	C	0.866822	0.514331	0.125144
	C133	C	0.109506	0.497192	0.123847
	C134	C	0.109514	0.514454	0.881979
	C135	C	0.866734	0.496986	0.882159
	C136	C	0.111277	0.883273	0.513079
	C137	C	0.110226	0.126143	0.495900
	C138	C	0.866709	0.127493	0.512842
	C139	C	0.867712	0.884157	0.495687
	C140	C	0.496938	0.127358	0.882529
	C141	C	0.480632	0.128499	0.126699
	C142	C	0.497288	0.883985	0.125799
	C143	C	0.479987	0.883849	0.881810
	C144	C	0.371118	0.889695	0.679378
	C145	C	0.606173	0.121638	0.679539
	C146	C	0.608688	0.890521	0.327465
	C147	C	0.370574	0.121868	0.328742
	C148	C	0.665279	0.385977	0.888240
	C149	C	0.665220	0.626103	0.117724
	C150	C	0.311542	0.626085	0.888184
	C151	C	0.311297	0.387585	0.118423
	C152	C	0.874698	0.682028	0.385221
	C153	C	0.104387	0.680501	0.621822
	C154	C	0.874110	0.329072	0.622725
	C155	C	0.103980	0.328684	0.385041
	C156	C	0.874380	0.386429	0.680588
	C157	C	0.103666	0.624296	0.680657
	C158	C	0.874636	0.624973	0.326575
	C159	C	0.103602	0.385322	0.326024
	C160	C	0.370438	0.681612	0.887906
	C161	C	0.604996	0.680778	0.119022
	C162	C	0.606058	0.330180	0.887591
	C163	C	0.370161	0.330939	0.119138
	C164	C	0.666406	0.890423	0.383934
	C165	C	0.664281	0.121163	0.623020
	C166	C	0.313451	0.889698	0.622776
	C167	C	0.312176	0.121141	0.385224
	C168	C	0.870220	0.389575	0.179093
	C169	C	0.105917	0.621634	0.178515
	C170	C	0.106671	0.389782	0.828234
	C171	C	0.869837	0.621055	0.827404
	C172	C	0.166660	0.885109	0.389507
	C173	C	0.164759	0.124431	0.619689
	C174	C	0.812306	0.124764	0.388894
	C175	C	0.812428	0.886246	0.619326
	C176	C	0.373651	0.181659	0.886400
	C177	C	0.603884	0.183021	0.122848
	C178	C	0.373514	0.830652	0.122486
	C179	C	0.603633	0.829565	0.885994
	C180	C	0.374150	0.887968	0.181038
	C181	C	0.603914	0.125204	0.180378
	C182	C	0.374041	0.125020	0.827859
	C183	C	0.603495	0.887107	0.827859
	C184	C	0.870865	0.181184	0.388292
	C185	C	0.106091	0.181060	0.619893
	C186	C	0.107380	0.829718	0.388571
	C187	C	0.871390	0.829614	0.619699
	C188	C	0.165558	0.390950	0.883402
	C189	C	0.163204	0.621848	0.121405
	C190	C	0.812002	0.390343	0.122448
	C191	C	0.812667	0.621586	0.884744
	C192	C	0.388146	0.101415	0.603551
	C193	C	0.588549	0.910031	0.603417
	C194	C	0.588546	0.101181	0.405427
	C195	C	0.390282	0.910818	0.405162
	C196	C	0.588278	0.407682	0.097752
	C197	C	0.589094	0.605734	0.907625
	C198	C	0.386592	0.605508	0.098601
	C199	C	0.388478	0.407249	0.908644
	C200	C	0.083630	0.604818	0.402186
	C201	C	0.895172	0.604815	0.603567
	C202	C	0.083329	0.404752	0.603567
	C203	C	0.894784	0.405687	0.403750
	C204	C	0.888671	0.600941	0.102991
	C205	C	0.088361	0.410392	0.101743
	C206	C	0.087344	0.601577	0.903888
	C207	C	0.888353	0.410048	0.904315
	C208	C	0.089998	0.904924	0.599654
	C209	C	0.089026	0.104208	0.409461
	C210	C	0.888243	0.105163	0.599022
	C211	C	0.889696	0.906492	0.409419
	C212	C	0.583363	0.105632	0.903806
	C213	C	0.394735	0.106507	0.105266
	C214	C	0.583248	0.904851	0.104011
	C215	C	0.393829	0.905509	0.903213
	Zn216	Zn	0.488169	0.006192	0.753219
	Zn217	Zn	0.489734	0.006391	0.254864
	Zn218	Zn	0.738699	0.505955	0.002892
	Zn219	Zn	0.237551	0.506469	0.002530
	Zn220	Zn	-0.010356	0.755318	0.504277
	Zn221	Zn	-0.011260	0.255097	0.503454
	Zn222	Zn	-0.011236	0.505348	0.754471
	Zn223	Zn	-0.011065	0.505049	0.252480
	Zn224	Zn	0.487769	0.755013	0.003622
	Zn225	Zn	0.488581	0.256499	0.003754
	Zn226	Zn	0.738351	0.005563	0.504001
	Zn227	Zn	0.239183	0.005305	0.504468
	N228	N	0.403755	0.968299	0.680951
	N229	N	0.573145	0.043348	0.681061
	N230	N	0.574506	0.968337	0.327113
	N231	N	0.404811	0.043948	0.327417
	N232	N	0.667779	0.419278	0.966181
	N233	N	0.668340	0.593639	0.039225
	N234	N	0.308648	0.593151	0.966305
	N235	N	0.309229	0.420590	0.040206
	N236	N	0.952263	0.683414	0.418248
	N237	N	0.027029	0.682320	0.588568
	N238	N	0.951564	0.326911	0.589266
	N239	N	0.026514	0.327586	0.418818
	N240	N	0.952019	0.419336	0.682422
	N241	N	0.025928	0.591307	0.683004
	N242	N	0.952041	0.591263	0.324080
	N243	N	0.026014	0.418644	0.323794
	N244	N	0.403529	0.682808	0.965829
	N245	N	0.571163	0.681506	0.041475
	N246	N	0.572178	0.329616	0.965327
	N247	N	0.403797	0.329115	0.041421
	N248	N	0.667589	0.968625	0.417838
	N249	N	0.666605	0.042695	0.589828
	N250	N	0.310956	0.968053	0.589840
	N251	N	0.310576	0.042851	0.418447
	N252	N	0.903397	0.467836	0.180998
	N253	N	0.073187	0.543151	0.180026
	N254	N	0.072312	0.467594	0.827463
	N255	N	0.902827	0.542640	0.825705
	N256	N	0.168919	0.917980	0.467682
	N257	N	0.167512	0.091119	0.541571
	N258	N	0.809500	0.092334	0.467294
	N259	N	0.810037	0.919374	0.541284
	N260	N	0.451020	0.183013	0.919654
	N261	N	0.526153	0.185243	0.090232
	N262	N	0.450951	0.827797	0.089113
	N263	N	0.525762	0.827386	0.918726
	N264	N	0.452074	0.920330	0.183149
	N265	N	0.526365	0.092228	0.183067
	N266	N	0.451846	0.091973	0.825325
	N267	N	0.525744	0.919952	0.825075
	N268	N	0.903865	0.183002	0.466177
	N269	N	0.072977	0.182235	0.541958
	N270	N	0.073507	0.828530	0.466426
	N271	N	0.905122	0.828311	0.541971
	N272	N	0.167244	0.469581	0.916091
	N273	N	0.165668	0.543508	0.088245
	N274	N	0.809613	0.468837	0.089837
	N275	N	0.810928	0.543285	0.918099
	O276	O	0.554867	-0.510922	0.495722
	H277	H	0.552348	-0.513784	0.492741
	H278	H	0.548543	-0.511701	0.499917
	O279	O	0.577244	0.540425	0.480441
	H280	H	0.579890	0.531447	0.478674
	H281	H	0.574707	0.540890	0.474399
	O282	O	0.526959	0.478698	0.438389
	H283	H	0.529429	0.478937	0.440855
	H284	H	0.530616	0.480876	0.429010
	O285	O	0.504231	0.521293	0.490261
	H286	H	0.502730	0.521787	0.491854
	H287	H	0.507062	0.519913	0.499061
	O288	O	0.535450	0.469335	0.415588
	H289	H	0.529550	0.474170	0.409717
	H290	H	0.539849	0.469422	0.422687
	O291	O	0.533325	0.510516	0.529321
	H292	H	0.537811	0.512037	0.525844
	H293	H	0.540600	0.518871	0.536973
	O294	O	0.579959	0.457008	0.385626
	H295	H	0.589656	0.450621	0.374537
	H296	H	0.579880	0.438819	0.375022
	O297	O	1.563625	0.481376	0.496063
	H298	H	1.566596	0.486931	0.490668
	H299	H	1.566512	0.491646	0.498091
