data_Molecule from HDF5

_cell_length_a		16.158880
_cell_length_b		16.232129
_cell_length_c		16.246891
_cell_angle_alpha	90.898451
_cell_angle_beta	89.456564
_cell_angle_gamma	89.318328
_symmetry_space_group_name_H-M	'P 1'
_symmetry_Int_Tables_number		1

loop_
	_symmetry_equiv_pos_as_xyz
	x,y,z

loop_
	_atom_site_label
	_atom_site_type_symbol
	_atom_site_fract_x
	_atom_site_fract_y
	_atom_site_fract_z
	H0	H	0.397644	0.838265	0.713680
	H1	H	0.594161	0.164980	0.719371
	H2	H	0.601861	0.840000	0.277308
	H3	H	0.395683	0.166643	0.290122
	H4	H	0.714254	0.399841	0.838721
	H5	H	0.704174	0.605512	0.166057
	H6	H	0.278377	0.603692	0.838057
	H7	H	0.280192	0.411487	0.165608
	H8	H	0.831220	0.717816	0.405806
	H9	H	0.159362	0.715473	0.601635
	H10	H	0.829528	0.290374	0.600522
	H11	H	0.158297	0.281911	0.395726
	H12	H	0.830084	0.405526	0.717320
	H13	H	0.158633	0.602488	0.717096
	H14	H	0.828914	0.600165	0.293905
	H15	H	0.157822	0.397056	0.282563
	H16	H	0.394611	0.715697	0.836327
	H17	H	0.591557	0.723234	0.162209
	H18	H	0.597753	0.284954	0.837904
	H19	H	0.391785	0.291566	0.164144
	H20	H	0.714299	0.838267	0.396739
	H21	H	0.707063	0.167063	0.600014
	H22	H	0.284929	0.836724	0.597738
	H23	H	0.278526	0.164487	0.405416
	H24	H	0.894976	0.337875	0.214919
	H25	H	0.090548	0.665815	0.222343
	H26	H	0.097977	0.340705	0.782550
	H27	H	0.891765	0.667999	0.790409
	H28	H	0.215180	0.895169	0.338085
	H29	H	0.206843	0.100700	0.665471
	H30	H	0.780403	0.100937	0.336956
	H31	H	0.779390	0.906205	0.663403
	H32	H	0.330787	0.220035	0.902541
	H33	H	0.659124	0.219227	0.100302
	H34	H	0.330967	0.795460	0.098578
	H35	H	0.657731	0.781962	0.894693
	H36	H	0.333289	0.905387	0.215512
	H37	H	0.660281	0.103100	0.213953
	H38	H	0.330630	0.102377	0.788564
	H39	H	0.660244	0.901193	0.784355
	H40	H	0.893980	0.216640	0.337841
	H41	H	0.093716	0.220110	0.663242
	H42	H	0.099949	0.779254	0.338948
	H43	H	0.895431	0.792968	0.665178
	H44	H	0.212936	0.340805	0.899872
	H45	H	0.203526	0.669550	0.103629
	H46	H	0.778583	0.339633	0.101251
	H47	H	0.779740	0.668325	0.909716
	H48	H	0.407955	0.115129	0.592317
	H49	H	0.594530	0.884780	0.588970
	H50	H	0.580319	0.120956	0.395010
	H51	H	0.412916	0.886215	0.406908
	H52	H	0.586499	0.396389	0.123056
	H53	H	0.585728	0.599005	0.882954
	H54	H	0.400683	0.604655	0.118423
	H55	H	0.409950	0.409040	0.885469
	H56	H	0.112629	0.587277	0.406938
	H57	H	0.880889	0.597306	0.585135
	H58	H	0.110674	0.412308	0.592193
	H59	H	0.874057	0.401581	0.406150
	H60	H	0.112148	0.408844	0.590839
	H61	H	0.877184	0.589081	0.603433
	H62	H	0.112600	0.592313	0.411219
	H63	H	0.879138	0.408960	0.415516
	H64	H	0.397053	0.603082	0.119595
	H65	H	0.595328	0.588672	0.882895
	H66	H	0.597990	0.422918	0.118884
	H67	H	0.400311	0.408625	0.882691
	H68	H	0.579912	0.112313	0.420942
	H69	H	0.586534	0.884738	0.595673
	H70	H	0.394594	0.119702	0.590529
	H71	H	0.401534	0.884271	0.408539
	H72	H	0.890711	0.620774	0.094773
	H73	H	0.090873	0.383492	0.101298
	H74	H	0.080887	0.620243	0.909233
	H75	H	0.907067	0.387017	0.904081
	H76	H	0.099169	0.907225	0.621539
	H77	H	0.092253	0.082703	0.385167
	H78	H	0.902833	0.102728	0.618570
	H79	H	0.917572	0.902855	0.384835
	H80	H	0.611599	0.089745	0.907040
	H81	H	0.377743	0.095855	0.099735
	H82	H	0.613895	0.907789	0.088396
	H83	H	0.374172	0.909914	0.898674
	H84	H	0.612560	0.912446	0.083370
	H85	H	0.376110	0.103972	0.095457
	H86	H	0.613680	0.096073	0.906426
	H87	H	0.376706	0.904051	0.911679
	H88	H	0.896112	0.095165	0.618008
	H89	H	0.080050	0.089724	0.387560
	H90	H	0.087311	0.918356	0.614874
	H91	H	0.898442	0.900353	0.379346
	H92	H	0.087856	0.620516	0.913596
	H93	H	0.078783	0.390707	0.088551
	H94	H	0.898978	0.623403	0.111042
	H95	H	0.908422	0.389655	0.912229
	H96	H	0.401018	0.121500	0.603580
	H97	H	0.585541	0.887100	0.585454
	H98	H	0.602866	0.122897	0.410066
	H99	H	0.407245	0.882107	0.397786
	H100	H	0.569969	0.417867	0.111866
	H101	H	0.582303	0.586863	0.887265
	H102	H	0.399439	0.599968	0.117411
	H103	H	0.404221	0.416619	0.885990
	H104	H	0.109935	0.587131	0.413400
	H105	H	0.873183	0.608481	0.600919
	H106	H	0.110385	0.411108	0.588857
	H107	H	0.876823	0.414053	0.404884
	H108	H	0.908297	0.616092	0.096309
	H109	H	0.096825	0.386442	0.083483
	H110	H	0.087680	0.622669	0.905431
	H111	H	0.901317	0.386141	0.910146
	H112	H	0.082604	0.901292	0.619074
	H113	H	0.091713	0.097050	0.381734
	H114	H	0.905726	0.093564	0.614438
	H115	H	0.903961	0.918652	0.386472
	H116	H	0.611266	0.093699	0.912299
	H117	H	0.379698	0.096226	0.091183
	H118	H	0.613586	0.914701	0.089220
	H119	H	0.380116	0.918354	0.910355
	C120	C	0.373731	0.010481	0.622777
	C121	C	0.617099	0.993946	0.621016
	C122	C	0.619082	0.010683	0.376812
	C123	C	0.375604	0.992722	0.378393
	C124	C	0.616950	0.381041	0.010303
	C125	C	0.614972	0.623802	0.992176
	C126	C	0.371066	0.628387	0.009739
	C127	C	0.374222	0.384264	0.992875
	C128	C	0.003404	0.620339	0.382721
	C129	C	0.985827	0.625908	0.624927
	C130	C	0.002536	0.382583	0.620590
	C131	C	0.985235	0.377774	0.378055
	C132	C	0.870931	0.511537	0.126745
	C133	C	0.115175	0.495433	0.122600
	C134	C	0.116827	0.512889	0.878718
	C135	C	0.874086	0.495527	0.881523
	C136	C	0.119594	0.877378	0.510110
	C137	C	0.116425	0.121568	0.492333
	C138	C	0.872797	0.124810	0.509074
	C139	C	0.876035	0.880969	0.492030
	C140	C	0.503647	0.123211	0.880161
	C141	C	0.486118	0.127019	0.123731
	C142	C	0.505053	0.883979	0.117925
	C143	C	0.485845	0.879705	0.876285
	C144	C	0.377019	0.887113	0.676749
	C145	C	0.614188	0.116660	0.679414
	C146	C	0.620135	0.888347	0.317462
	C147	C	0.375885	0.117018	0.326542
	C148	C	0.675510	0.380480	0.887566
	C149	C	0.667842	0.624618	0.116352
	C150	C	0.316257	0.623923	0.886772
	C151	C	0.317409	0.389222	0.116242
	C152	C	0.879980	0.678587	0.385683
	C153	C	0.109886	0.679156	0.622514
	C154	C	0.878791	0.328223	0.619891
	C155	C	0.108890	0.320636	0.377469
	C156	C	0.878923	0.385559	0.678052
	C157	C	0.109520	0.622490	0.679518
	C158	C	0.878767	0.620099	0.329917
	C159	C	0.108609	0.377774	0.320855
	C160	C	0.374368	0.679904	0.885910
	C161	C	0.611778	0.683142	0.114487
	C162	C	0.617435	0.323188	0.887080
	C163	C	0.373281	0.329791	0.115465
	C164	C	0.676243	0.887412	0.376831
	C165	C	0.670466	0.117553	0.620182
	C166	C	0.321013	0.886342	0.618863
	C167	C	0.317524	0.115967	0.383862
	C168	C	0.874268	0.387556	0.178608
	C169	C	0.111046	0.617819	0.182094
	C170	C	0.117223	0.389772	0.821345
	C171	C	0.873384	0.618881	0.827904
	C172	C	0.176977	0.876049	0.387110
	C173	C	0.170079	0.120761	0.616060
	C174	C	0.817960	0.121446	0.385878
	C175	C	0.818467	0.885619	0.614913
	C176	C	0.379782	0.180989	0.882326
	C177	C	0.610117	0.181589	0.120811
	C178	C	0.380852	0.831214	0.117932
	C179	C	0.608900	0.821273	0.875793
	C180	C	0.381924	0.886144	0.176218
	C181	C	0.610548	0.124083	0.177677
	C182	C	0.379794	0.122370	0.825985
	C183	C	0.610117	0.880569	0.820854
	C184	C	0.874702	0.178929	0.386332
	C185	C	0.114105	0.180496	0.614826
	C186	C	0.119600	0.818326	0.387714
	C187	C	0.876085	0.829185	0.615769
	C188	C	0.174355	0.389637	0.879728
	C189	C	0.167286	0.619701	0.122821
	C190	C	0.816345	0.388432	0.122036
	C191	C	0.817417	0.619154	0.887363
	C192	C	0.394939	0.096411	0.601804
	C193	C	0.595362	0.907812	0.596962
	C194	C	0.594833	0.096468	0.401582
	C195	C	0.400006	0.906713	0.398343
	C196	C	0.591992	0.405277	0.095780
	C197	C	0.593933	0.598842	0.906607
	C198	C	0.392665	0.608498	0.096178
	C199	C	0.397914	0.405350	0.906853
	C200	C	0.089526	0.596039	0.404212
	C201	C	0.899424	0.604647	0.602787
	C202	C	0.088678	0.404279	0.597313
	C203	C	0.898790	0.401340	0.401856
	C204	C	0.892717	0.597760	0.106647
	C205	C	0.094789	0.409084	0.098217
	C206	C	0.092623	0.598940	0.902605
	C207	C	0.898463	0.409597	0.902507
	C208	C	0.096483	0.901859	0.596119
	C209	C	0.094471	0.096933	0.406845
	C210	C	0.894818	0.103409	0.594684
	C211	C	0.899761	0.901298	0.405910
	C212	C	0.589635	0.100166	0.902212
	C213	C	0.400390	0.105289	0.102058
	C214	C	0.590965	0.905395	0.093886
	C215	C	0.399253	0.903787	0.899978
	Zn216	Zn	0.495062	0.002085	0.750277
	Zn217	Zn	0.496605	0.002994	0.248679
	Zn218	Zn	0.744555	0.503181	0.003228
	Zn219	Zn	0.244567	0.505924	0.001238
	Zn220	Zn	-0.004027	0.751406	0.502249
	Zn221	Zn	-0.005446	0.251897	0.499765
	Zn222	Zn	-0.005748	0.504236	0.751314
	Zn223	Zn	-0.006231	0.501032	0.253143
	Zn224	Zn	0.494420	0.754225	-0.001050
	Zn225	Zn	0.494518	0.253318	0.001250
	Zn226	Zn	0.746465	0.002215	0.499743
	Zn227	Zn	0.246829	-0.000028	0.501445
	N228	N	0.409207	0.965250	0.679397
	N229	N	0.582029	0.038560	0.680124
	N230	N	0.585260	0.966127	0.317393
	N231	N	0.411216	0.039384	0.322864
	N232	N	0.675318	0.415429	0.965180
	N233	N	0.669774	0.588213	0.039367
	N234	N	0.313989	0.592702	0.964745
	N235	N	0.317870	0.422338	0.038876
	N236	N	0.958497	0.678883	0.417810
	N237	N	0.031889	0.681546	0.589304
	N238	N	0.956524	0.326373	0.584788
	N239	N	0.030925	0.320357	0.412132
	N240	N	0.956912	0.418706	0.678770
	N241	N	0.031270	0.590447	0.681360
	N242	N	0.956298	0.584364	0.328187
	N243	N	0.030710	0.412678	0.321029
	N244	N	0.407712	0.682904	0.963620
	N245	N	0.579753	0.682980	0.036343
	N246	N	0.581720	0.323492	0.964440
	N247	N	0.407842	0.326745	0.037712
	N248	N	0.675640	0.964551	0.412927
	N249	N	0.672145	0.040121	0.584460
	N250	N	0.318807	0.963944	0.585858
	N251	N	0.317185	0.037778	0.415174
	N252	N	0.907470	0.465206	0.181791
	N253	N	0.079610	0.539424	0.182262
	N254	N	0.082247	0.467280	0.820880
	N255	N	0.907993	0.540780	0.824273
	N256	N	0.177106	0.911922	0.464331
	N257	N	0.171782	0.085007	0.538778
	N258	N	0.816631	0.088347	0.463120
	N259	N	0.818271	0.917145	0.536948
	N260	N	0.457826	0.181625	0.915623
	N261	N	0.531931	0.183809	0.088145
	N262	N	0.458350	0.829773	0.081979
	N263	N	0.530458	0.820669	0.909458
	N264	N	0.459968	0.918424	0.176277
	N265	N	0.532695	0.090873	0.179847
	N266	N	0.457630	0.087415	0.824424
	N267	N	0.532519	0.916353	0.821283
	N268	N	0.907931	0.181243	0.463938
	N269	N	0.081498	0.181069	0.536876
	N270	N	0.084603	0.819186	0.465267
	N271	N	0.911307	0.826142	0.538247
	N272	N	0.174424	0.467506	0.914566
	N273	N	0.169935	0.542465	0.086683
	N274	N	0.813815	0.466601	0.090690
	N275	N	0.817897	0.541516	0.920031
	O276	O	0.875588	0.049628	0.934406
	H277	H	0.872104	0.045705	0.931079
	H278	H	0.874576	0.052318	0.949430
	O279	O	0.551888	0.368164	0.385570
	H280	H	0.568497	0.375978	0.383878
	H281	H	0.555060	0.362812	0.392898
	O282	O	0.616295	0.485444	0.516955
	H283	H	0.617804	0.499034	0.513170
	H284	H	0.608592	0.493783	0.515416
	O285	O	0.443578	0.381896	0.524424
	H286	H	0.429591	0.381587	0.532380
	H287	H	0.435943	0.379964	0.539185
	O288	O	0.656081	0.452820	0.493545
	H289	H	0.659140	0.458652	0.499339
	H290	H	0.670843	0.450340	0.489280
	O291	O	0.041002	0.081766	1.119251
	H292	H	0.048900	0.091886	1.116825
	H293	H	0.037370	0.086307	1.126476
	O294	O	0.918510	0.940229	-0.071019
	H295	H	0.919650	0.935924	-0.072056
	H296	H	0.921979	0.940820	-0.075029
	O297	O	0.947866	0.962162	0.099032
	H298	H	0.941174	0.964937	0.117385
	H299	H	0.950656	0.944988	0.091374
	O300	O	0.428473	0.527939	0.405904
	H301	H	0.418043	0.523271	0.420835
	H302	H	0.447805	0.520805	0.403854
	O303	O	0.411608	0.539767	0.510636
	H304	H	0.409424	0.539049	0.500295
	H305	H	0.407904	0.548311	0.511718
	O306	O	0.575888	0.600218	0.419022
	H307	H	0.570722	0.597084	0.419157
	H308	H	0.582370	0.590218	0.410204
	O309	O	0.496072	0.583361	0.554083
	H310	H	0.488914	0.577098	0.549789
	H311	H	0.503549	0.581826	0.547980
	O312	O	1.007746	0.912048	0.982526
	H313	H	1.016520	0.892335	0.973066
	H314	H	1.010300	0.917051	0.993829
	O315	O	1.110343	0.935978	-0.085423
	H316	H	1.110520	0.947847	-0.092279
	H317	H	1.123602	0.925844	-0.083188
	O318	O	0.427367	0.544195	0.675053
	H319	H	0.433024	0.534679	0.677339
	H320	H	0.405474	0.551040	0.680428
	O321	O	0.529375	0.525004	0.561284
	H322	H	0.532692	0.524936	0.563390
	H323	H	0.524978	0.525631	0.569452
	O324	O	0.021623	1.085363	1.112870
	H325	H	0.030651	1.087658	1.107530
	H326	H	0.036937	1.072453	1.121989
	O327	O	-0.109616	1.009792	1.092521
	H328	H	-0.098260	1.014399	1.090584
	H329	H	-0.116241	0.992416	1.091998
	O330	O	0.062739	0.071244	-0.047787
	H331	H	0.062771	0.077041	-0.044837
	H332	H	0.045709	0.074693	-0.049492
	O333	O	0.409997	0.432098	0.502524
	H334	H	0.404063	0.425104	0.503401
	H335	H	0.414717	0.427152	0.488176
	O336	O	-0.015024	0.097004	0.026866
	H337	H	-0.021354	0.099602	0.024515
	H338	H	-0.010426	0.107291	0.032123
	O339	O	-0.039993	0.064990	-0.122140
	H340	H	-0.049451	0.064719	-0.126116
	H341	H	-0.048530	0.060322	-0.118651
	O342	O	0.410251	0.350912	0.431437
	H343	H	0.438096	0.360793	0.432671
	H344	H	0.418523	0.349593	0.417128
	O345	O	0.045762	1.006674	0.974995
	H346	H	0.044637	1.025207	0.988628
	H347	H	0.050278	1.004509	0.967305
	O348	O	0.431647	0.642063	0.519017
	H349	H	0.439596	0.659148	0.524847
	H350	H	0.441194	0.630997	0.506465
	O351	O	0.589145	0.375746	0.419598
	H352	H	0.585648	0.373470	0.412351
	H353	H	0.586680	0.371370	0.421885
	O354	O	-0.026643	0.861803	-0.040610
	H355	H	-0.017214	0.858792	-0.032608
	H356	H	-0.015514	0.860094	-0.039609
	O357	O	0.453401	0.387922	0.578101
	H358	H	0.446516	0.385451	0.566430
	H359	H	0.457383	0.386422	0.581977
	O360	O	1.117535	0.026638	0.929055
	H361	H	1.121276	0.028558	0.932012
	H362	H	1.109951	0.032846	0.920456
	O363	O	0.445560	0.500552	0.601702
	H364	H	0.451011	0.491432	0.600623
	H365	H	0.434179	0.500818	0.608399
	O366	O	0.370088	0.597868	0.415395
	H367	H	0.356150	0.612260	0.422669
	H368	H	0.382438	0.591957	0.396735
	O369	O	1.107411	0.146721	0.004001
	H370	H	1.100009	0.146921	-0.000013
	H371	H	1.096700	0.147231	-0.009424
	O372	O	0.628507	0.489668	0.442343
	H373	H	0.618622	0.494565	0.463033
	H374	H	0.640863	0.484708	0.441853
	O375	O	1.087516	0.025402	0.940045
	H376	H	1.091525	0.035631	0.941319
	H377	H	1.084128	0.035216	0.938431
	O378	O	-0.109257	0.910303	-0.082143
	H379	H	-0.101508	0.902615	-0.092363
	H380	H	-0.097211	0.903116	-0.085140
	O381	O	0.479044	0.578095	0.516218
	H382	H	0.482768	0.574738	0.512082
	H383	H	0.488936	0.570475	0.510558
	O384	O	1.134223	0.950449	0.108047
	H385	H	1.130861	0.949272	0.098740
	H386	H	1.145479	0.951168	0.097634
	O387	O	0.990809	0.016035	1.051054
	H388	H	0.999055	0.019448	1.058144
	H389	H	0.990890	0.013105	1.054576
	O390	O	0.869942	1.030470	0.049768
	H391	H	0.873041	1.038926	0.056372
	H392	H	0.869889	1.025365	0.056559
	O393	O	0.509555	0.430542	0.448461
	H394	H	0.515376	0.424512	0.443121
	H395	H	0.507692	0.422436	0.457742
