data_Molecule from HDF5

_cell_length_a		16.333990
_cell_length_b		16.208259
_cell_length_c		16.134128
_cell_angle_alpha	90.034166
_cell_angle_beta	89.821215
_cell_angle_gamma	90.140608
_symmetry_space_group_name_H-M	'P 1'
_symmetry_Int_Tables_number		1

loop_
	_symmetry_equiv_pos_as_xyz
	x,y,z

loop_
	_atom_site_label
	_atom_site_type_symbol
	_atom_site_fract_x
	_atom_site_fract_y
	_atom_site_fract_z
	H0	H	0.397611	0.835859	0.712246
	H1	H	0.590752	0.165797	0.711122
	H2	H	0.593741	0.835662	0.286313
	H3	H	0.399813	0.164558	0.286792
	H4	H	0.710547	0.399122	0.835082
	H5	H	0.710124	0.600622	0.163629
	H6	H	0.283046	0.597430	0.835171
	H7	H	0.280012	0.399896	0.164552
	H8	H	0.832480	0.715407	0.400786
	H9	H	0.158039	0.716227	0.599401
	H10	H	0.832219	0.284604	0.599208
	H11	H	0.159594	0.286674	0.400945
	H12	H	0.831562	0.403427	0.713391
	H13	H	0.158965	0.598484	0.711894
	H14	H	0.831511	0.597357	0.286569
	H15	H	0.159080	0.403016	0.284889
	H16	H	0.398189	0.711567	0.835027
	H17	H	0.593766	0.714090	0.164398
	H18	H	0.591136	0.287621	0.833981
	H19	H	0.397348	0.287679	0.166146
	H20	H	0.711708	0.837355	0.397794
	H21	H	0.710993	0.164627	0.598976
	H22	H	0.278337	0.837313	0.601826
	H23	H	0.282775	0.164344	0.400644
	H24	H	0.897935	0.335392	0.213828
	H25	H	0.091579	0.665198	0.211058
	H26	H	0.090354	0.335307	0.787038
	H27	H	0.900053	0.666358	0.789517
	H28	H	0.211303	0.900801	0.335094
	H29	H	0.209404	0.100432	0.663958
	H30	H	0.783111	0.098443	0.333661
	H31	H	0.780008	0.900772	0.663510
	H32	H	0.331747	0.213978	0.901969
	H33	H	0.658163	0.216300	0.098770
	H34	H	0.331780	0.784859	0.099409
	H35	H	0.657825	0.784442	0.899448
	H36	H	0.332215	0.901802	0.214502
	H37	H	0.660094	0.097740	0.211987
	H38	H	0.330595	0.096532	0.788064
	H39	H	0.657887	0.902765	0.785136
	H40	H	0.898987	0.213246	0.333954
	H41	H	0.092325	0.212973	0.664619
	H42	H	0.093467	0.788035	0.334146
	H43	H	0.898867	0.789297	0.665233
	H44	H	0.209799	0.336198	0.899067
	H45	H	0.211229	0.663370	0.099887
	H46	H	0.779375	0.335395	0.100587
	H47	H	0.779269	0.662697	0.899486
	H48	H	0.392108	0.120737	0.593300
	H49	H	0.586066	0.884444	0.589160
	H50	H	0.590262	0.115354	0.415618
	H51	H	0.401088	0.882768	0.409159
	H52	H	0.592022	0.409675	0.118153
	H53	H	0.579065	0.588386	0.885187
	H54	H	0.390904	0.589782	0.120331
	H55	H	0.400531	0.406610	0.881510
	H56	H	0.113962	0.602757	0.406046
	H57	H	0.877685	0.601018	0.590010
	H58	H	0.109423	0.405175	0.585691
	H59	H	0.877120	0.398832	0.407678
	H60	H	0.111433	0.413087	0.596799
	H61	H	0.881771	0.587707	0.589456
	H62	H	0.109110	0.590365	0.412793
	H63	H	0.881872	0.409499	0.414257
	H64	H	0.408353	0.582751	0.113896
	H65	H	0.589555	0.599018	0.879126
	H66	H	0.584389	0.410111	0.115857
	H67	H	0.401741	0.407804	0.882982
	H68	H	0.596395	0.121246	0.402885
	H69	H	0.592198	0.882655	0.590755
	H70	H	0.406543	0.119814	0.600635
	H71	H	0.401131	0.882062	0.407312
	H72	H	0.905616	0.618294	0.099118
	H73	H	0.080341	0.385865	0.085333
	H74	H	0.084249	0.617802	0.904399
	H75	H	0.904881	0.382772	0.903762
	H76	H	0.090682	0.907105	0.618861
	H77	H	0.094276	0.095930	0.378716
	H78	H	0.907040	0.090042	0.614531
	H79	H	0.896807	0.913823	0.380913
	H80	H	0.612047	0.099753	0.908937
	H81	H	0.378901	0.093501	0.092715
	H82	H	0.612810	0.901111	0.089371
	H83	H	0.381218	0.911984	0.908991
	H84	H	0.609159	0.909696	0.088683
	H85	H	0.380172	0.091362	0.094866
	H86	H	0.609941	0.089566	0.908564
	H87	H	0.375410	0.903319	0.899823
	H88	H	0.901254	0.098204	0.619360
	H89	H	0.091413	0.089591	0.382213
	H90	H	0.088127	0.912020	0.616416
	H91	H	0.911284	0.909740	0.384056
	H92	H	0.092464	0.617010	0.912706
	H93	H	0.098323	0.380893	0.086954
	H94	H	0.904367	0.614086	0.084911
	H95	H	0.902359	0.384146	0.910638
	H96	H	0.404701	0.114732	0.584856
	H97	H	0.587661	0.882519	0.595446
	H98	H	0.582274	0.116517	0.403327
	H99	H	0.403478	0.882427	0.408002
	H100	H	0.587393	0.403735	0.118923
	H101	H	0.594542	0.585107	0.882378
	H102	H	0.406569	0.601321	0.120441
	H103	H	0.402227	0.405935	0.881496
	H104	H	0.112398	0.590658	0.399306
	H105	H	0.876323	0.594213	0.601904
	H106	H	0.115408	0.400091	0.597666
	H107	H	0.878756	0.409684	0.400594
	H108	H	0.892963	0.619950	0.092554
	H109	H	0.086307	0.379914	0.101376
	H110	H	0.095611	0.620573	0.901931
	H111	H	0.898470	0.381123	0.905874
	H112	H	0.085124	0.906593	0.616442
	H113	H	0.087074	0.095546	0.380622
	H114	H	0.896904	0.088946	0.617616
	H115	H	0.901190	0.899257	0.378246
	H116	H	0.612337	0.093822	0.899049
	H117	H	0.378211	0.094194	0.095544
	H118	H	0.613417	0.906655	0.097371
	H119	H	0.377791	0.899447	0.912912
	C120	C	0.372802	0.009586	0.621653
	C121	C	0.616953	0.992095	0.620648
	C122	C	0.617856	0.009244	0.378174
	C123	C	0.374217	0.991173	0.378497
	C124	C	0.616611	0.378468	0.008433
	C125	C	0.616309	0.620092	0.990810
	C126	C	0.373858	0.620041	0.009233
	C127	C	0.373072	0.377846	0.991574
	C128	C	0.003665	0.622376	0.377958
	C129	C	0.986643	0.622897	0.621872
	C130	C	0.003853	0.378200	0.621588
	C131	C	0.987121	0.378109	0.378077
	C132	C	0.873217	0.508559	0.121295
	C133	C	0.116625	0.491219	0.120195
	C134	C	0.117589	0.509165	0.877823
	C135	C	0.874052	0.491401	0.878560
	C136	C	0.117083	0.879564	0.508355
	C137	C	0.117483	0.121627	0.490336
	C138	C	0.874279	0.121113	0.507805
	C139	C	0.874331	0.879220	0.490344
	C140	C	0.503272	0.122160	0.877980
	C141	C	0.487254	0.121706	0.121848
	C142	C	0.503836	0.877063	0.121554
	C143	C	0.486047	0.877029	0.877684
	C144	C	0.376518	0.885290	0.675408
	C145	C	0.612476	0.116406	0.674306
	C146	C	0.614768	0.885149	0.323295
	C147	C	0.378488	0.115384	0.324038
	C148	C	0.672123	0.379672	0.884235
	C149	C	0.672005	0.619706	0.114632
	C150	C	0.319893	0.617986	0.884552
	C151	C	0.317595	0.379817	0.115413
	C152	C	0.880925	0.677243	0.380628
	C153	C	0.109382	0.678087	0.619129
	C154	C	0.880701	0.323138	0.619254
	C155	C	0.110623	0.324157	0.380295
	C156	C	0.880330	0.382028	0.676013
	C157	C	0.109841	0.619657	0.675308
	C158	C	0.880539	0.618676	0.323516
	C159	C	0.110363	0.381855	0.322775
	C160	C	0.377094	0.674618	0.884599
	C161	C	0.613994	0.676040	0.115111
	C162	C	0.612804	0.324227	0.883772
	C163	C	0.376296	0.324097	0.116277
	C164	C	0.673156	0.885746	0.379112
	C165	C	0.672213	0.115777	0.618603
	C166	C	0.316993	0.886144	0.620725
	C167	C	0.320348	0.115234	0.380669
	C168	C	0.876383	0.384610	0.176565
	C169	C	0.112727	0.615667	0.174312
	C170	C	0.112565	0.384817	0.823864
	C171	C	0.877863	0.616192	0.825232
	C172	C	0.172538	0.881321	0.384128
	C173	C	0.171360	0.119819	0.614798
	C174	C	0.819990	0.119185	0.383208
	C175	C	0.818284	0.881006	0.614469
	C176	C	0.380425	0.176733	0.880903
	C177	C	0.609907	0.177655	0.119043
	C178	C	0.380738	0.822546	0.119538
	C179	C	0.609086	0.822394	0.879280
	C180	C	0.380858	0.880787	0.176630
	C181	C	0.610838	0.118836	0.175204
	C182	C	0.379811	0.118173	0.824396
	C183	C	0.609070	0.881121	0.822341
	C184	C	0.878241	0.175525	0.383162
	C185	C	0.113335	0.175815	0.615167
	C186	C	0.114420	0.825054	0.383673
	C187	C	0.877118	0.825603	0.615357
	C188	C	0.172032	0.385261	0.879415
	C189	C	0.172150	0.614895	0.119176
	C190	C	0.818088	0.384528	0.119866
	C191	C	0.817983	0.614632	0.879763
	C192	C	0.394739	0.096213	0.599438
	C193	C	0.595231	0.905542	0.598331
	C194	C	0.596090	0.095461	0.400696
	C195	C	0.395543	0.904810	0.401339
	C196	C	0.594643	0.401242	0.095281
	C197	C	0.594136	0.597449	0.904652
	C198	C	0.395435	0.597735	0.095770
	C199	C	0.395211	0.400099	0.904445
	C200	C	0.089706	0.600970	0.399670
	C201	C	0.900617	0.600909	0.600094
	C202	C	0.089829	0.399641	0.599949
	C203	C	0.901307	0.399537	0.400795
	C204	C	0.894639	0.595035	0.098885
	C205	C	0.094714	0.404678	0.097808
	C206	C	0.096946	0.596061	0.899795
	C207	C	0.895620	0.404975	0.900198
	C208	C	0.094686	0.901806	0.594904
	C209	C	0.096946	0.099983	0.403023
	C210	C	0.895437	0.098956	0.594692
	C211	C	0.896534	0.901194	0.403446
	C212	C	0.589196	0.100668	0.899087
	C213	C	0.401355	0.099481	0.100611
	C214	C	0.589693	0.899313	0.098593
	C215	C	0.400208	0.898621	0.900500
	Zn216	Zn	0.494092	0.000406	0.748989
	Zn217	Zn	0.496155	-0.000512	0.250443
	Zn218	Zn	0.745169	0.499467	-0.000661
	Zn219	Zn	0.245488	0.499790	0.000032
	Zn220	Zn	-0.004391	0.751364	0.499475
	Zn221	Zn	-0.003866	0.248774	0.499397
	Zn222	Zn	-0.004728	0.501082	0.749856
	Zn223	Zn	-0.004645	0.499911	0.248983
	Zn224	Zn	0.494961	0.747929	0.000089
	Zn225	Zn	0.494572	0.250394	0.000208
	Zn226	Zn	0.746186	0.000135	0.498679
	Zn227	Zn	0.245482	0.000681	0.499630
	N228	N	0.410665	0.963110	0.675931
	N229	N	0.578699	0.038525	0.675577
	N230	N	0.580876	0.962805	0.322634
	N231	N	0.411365	0.037370	0.322720
	N232	N	0.674529	0.412580	0.962777
	N233	N	0.673563	0.585446	0.036516
	N234	N	0.317712	0.584791	0.962943
	N235	N	0.315307	0.412141	0.036668
	N236	N	0.958505	0.679613	0.413536
	N237	N	0.031610	0.680018	0.586286
	N238	N	0.958392	0.320707	0.585958
	N239	N	0.033048	0.321835	0.414123
	N240	N	0.957785	0.415435	0.677654
	N241	N	0.032552	0.585819	0.677024
	N242	N	0.957893	0.585336	0.321767
	N243	N	0.032715	0.414578	0.321092
	N244	N	0.410266	0.675884	0.962917
	N245	N	0.580158	0.676563	0.037332
	N246	N	0.579006	0.323446	0.962054
	N247	N	0.409978	0.322804	0.037958
	N248	N	0.675137	0.963758	0.412552
	N249	N	0.675073	0.037413	0.586005
	N250	N	0.314690	0.964488	0.587861
	N251	N	0.317529	0.037018	0.413799
	N252	N	0.909987	0.462486	0.177454
	N253	N	0.078846	0.537851	0.174934
	N254	N	0.079804	0.462898	0.822405
	N255	N	0.911991	0.538552	0.824220
	N256	N	0.174311	0.914512	0.462626
	N257	N	0.173984	0.086768	0.536118
	N258	N	0.817742	0.085766	0.461628
	N259	N	0.816301	0.913611	0.535722
	N260	N	0.458114	0.179148	0.913567
	N261	N	0.532099	0.179519	0.086605
	N262	N	0.458313	0.820296	0.085867
	N263	N	0.531571	0.819618	0.912801
	N264	N	0.458560	0.913858	0.178126
	N265	N	0.533607	0.084592	0.177020
	N266	N	0.457206	0.084937	0.822367
	N267	N	0.531549	0.914299	0.821205
	N268	N	0.911388	0.176716	0.461575
	N269	N	0.080677	0.177154	0.536816
	N270	N	0.080383	0.823996	0.461804
	N271	N	0.911037	0.824252	0.537314
	N272	N	0.174988	0.463645	0.912456
	N273	N	0.174628	0.536522	0.086136
	N274	N	0.815957	0.462571	0.086174
	N275	N	0.815541	0.536251	0.912247
	O276	O	0.489199	0.541865	0.513216
	H277	H	0.491402	0.550296	0.511670
	H278	H	0.488036	0.547495	0.505019
	O279	O	0.036596	0.081616	-0.052615
	H280	H	0.038836	0.086097	-0.053010
	H281	H	0.037513	0.081866	-0.055158
	O282	O	0.567740	0.563582	0.550303
	H283	H	0.570186	0.570941	0.548565
	H284	H	0.570947	0.564538	0.554071
	O285	O	0.513919	0.523220	0.534592
	H286	H	0.520664	0.522999	0.528710
	H287	H	0.516880	0.517345	0.536344
	O288	O	0.986363	0.105849	-0.028848
	H289	H	0.985065	0.111119	-0.027645
	H290	H	0.985222	0.105010	-0.030044
	O291	O	-0.473219	0.521557	-0.454314
	H292	H	-0.471165	0.524858	-0.448485
	H293	H	-0.478726	0.514782	-0.445748
	O294	O	0.482873	0.485419	0.452572
	H295	H	0.483060	0.479061	0.456270
	H296	H	0.482987	0.479170	0.457624
	O297	O	0.481098	1.504092	0.466450
	H298	H	0.475678	1.508256	0.464551
	H299	H	0.472640	1.504673	0.472687
	O300	O	1.436971	0.514110	0.493955
	H301	H	1.425568	0.521646	0.498881
	H302	H	1.430065	0.506380	0.501309
	O303	O	0.557265	0.484029	0.537063
	H304	H	0.560769	0.487855	0.540146
	H305	H	0.561418	0.476518	0.538016
	O306	O	0.492485	0.565582	1.525989
	H307	H	0.507494	0.563789	1.521211
	H308	H	0.493646	0.565591	1.528060
	O309	O	0.495405	0.475758	0.474453
	H310	H	0.497431	0.471114	0.470603
	H311	H	0.493636	0.481284	0.470496
