data_Molecule from HDF5

_cell_length_a		16.342382
_cell_length_b		15.984388
_cell_length_c		16.528348
_cell_angle_alpha	89.464051
_cell_angle_beta	89.835578
_cell_angle_gamma	89.950342
_symmetry_space_group_name_H-M	'P 1'
_symmetry_Int_Tables_number		1

loop_
	_symmetry_equiv_pos_as_xyz
	x,y,z

loop_
	_atom_site_label
	_atom_site_type_symbol
	_atom_site_fract_x
	_atom_site_fract_y
	_atom_site_fract_z
	H0	H	0.393081	0.822501	0.704661
	H1	H	0.604856	0.148852	0.699714
	H2	H	0.600591	0.821738	0.267114
	H3	H	0.393612	0.148524	0.264295
	H4	H	0.722499	0.378044	0.828251
	H5	H	0.718730	0.590470	0.142939
	H6	H	0.278430	0.592522	0.825531
	H7	H	0.276719	0.377825	0.143182
	H8	H	0.837619	0.702393	0.384861
	H9	H	0.162931	0.696797	0.578714
	H10	H	0.838295	0.265526	0.585706
	H11	H	0.163381	0.273204	0.387703
	H12	H	0.840010	0.374795	0.708512
	H13	H	0.158623	0.591399	0.704462
	H14	H	0.839915	0.595915	0.261555
	H15	H	0.156571	0.375331	0.258865
	H16	H	0.397398	0.705562	0.824514
	H17	H	0.594744	0.698983	0.146089
	H18	H	0.598972	0.270890	0.823744
	H19	H	0.397965	0.266406	0.144702
	H20	H	0.715546	0.820668	0.380445
	H21	H	0.717567	0.148365	0.583002
	H22	H	0.283574	0.820220	0.586547
	H23	H	0.284830	0.150207	0.382369
	H24	H	0.892490	0.322430	0.206141
	H25	H	0.100978	0.648164	0.199451
	H26	H	0.101320	0.320973	0.769684
	H27	H	0.893883	0.648664	0.765284
	H28	H	0.218644	0.883911	0.323667
	H29	H	0.219795	0.089155	0.641826
	H30	H	0.779517	0.094254	0.323997
	H31	H	0.775460	0.874240	0.639362
	H32	H	0.335340	0.199473	0.886799
	H33	H	0.661449	0.197838	0.079391
	H34	H	0.335458	0.772018	0.081432
	H35	H	0.661840	0.772287	0.888002
	H36	H	0.339144	0.877731	0.206241
	H37	H	0.656483	0.093285	0.204403
	H38	H	0.339010	0.092971	0.761181
	H39	H	0.657161	0.876002	0.759608
	H40	H	0.901366	0.204907	0.322941
	H41	H	0.100628	0.199378	0.643522
	H42	H	0.098303	0.771489	0.322292
	H43	H	0.899989	0.766338	0.643280
	H44	H	0.212706	0.320941	0.886389
	H45	H	0.213913	0.649020	0.084891
	H46	H	0.780130	0.320933	0.089685
	H47	H	0.783284	0.650338	0.884820
	H48	H	0.407485	0.101864	0.568778
	H49	H	0.585159	0.867966	0.573964
	H50	H	0.589812	0.102734	0.394396
	H51	H	0.410505	0.867535	0.392847
	H52	H	0.589497	0.386819	0.100662
	H53	H	0.593298	0.573154	0.871140
	H54	H	0.407337	0.576657	0.097513
	H55	H	0.405993	0.395219	0.870445
	H56	H	0.115124	0.576337	0.390126
	H57	H	0.883123	0.580559	0.572808
	H58	H	0.106595	0.410903	0.572482
	H59	H	0.886501	0.397946	0.397024
	H60	H	0.119016	0.394828	0.595007
	H61	H	0.887482	0.566102	0.572135
	H62	H	0.114089	0.572164	0.389343
	H63	H	0.885721	0.401670	0.394098
	H64	H	0.400789	0.576352	0.100215
	H65	H	0.586026	0.575473	0.872489
	H66	H	0.594626	0.397753	0.099172
	H67	H	0.403854	0.395675	0.869960
	H68	H	0.588811	0.103690	0.389314
	H69	H	0.584705	0.870091	0.571748
	H70	H	0.407852	0.104450	0.576283
	H71	H	0.409189	0.867343	0.395508
	H72	H	0.906757	0.602008	0.068759
	H73	H	0.093713	0.361889	0.079539
	H74	H	0.091782	0.603632	0.896340
	H75	H	0.903614	0.365950	0.898640
	H76	H	0.085293	0.894270	0.595263
	H77	H	0.093056	0.082178	0.367582
	H78	H	0.899913	0.069929	0.597897
	H79	H	0.909784	0.888584	0.366311
	H80	H	0.612221	0.073869	0.891803
	H81	H	0.385006	0.073735	0.065861
	H82	H	0.610040	0.899909	0.070746
	H83	H	0.387841	0.902947	0.899981
	H84	H	0.614883	0.900054	0.083698
	H85	H	0.383240	0.065241	0.082428
	H86	H	0.613296	0.072649	0.886067
	H87	H	0.382887	0.903851	0.881799
	H88	H	0.911660	0.064614	0.591801
	H89	H	0.097506	0.075968	0.368685
	H90	H	0.095245	0.884920	0.601037
	H91	H	0.900955	0.899178	0.368087
	H92	H	0.089986	0.606568	0.885924
	H93	H	0.076402	0.369448	0.078880
	H94	H	0.905985	0.603129	0.076063
	H95	H	0.911032	0.366358	0.890035
	H96	H	0.414163	0.101189	0.572212
	H97	H	0.587511	0.868293	0.572255
	H98	H	0.585545	0.101428	0.392557
	H99	H	0.407810	0.866393	0.393181
	H100	H	0.583934	0.395894	0.095925
	H101	H	0.592043	0.580729	0.868737
	H102	H	0.403262	0.571055	0.097512
	H103	H	0.405237	0.396825	0.870620
	H104	H	0.116476	0.575007	0.386644
	H105	H	0.881488	0.572006	0.584986
	H106	H	0.115330	0.381218	0.568734
	H107	H	0.884275	0.397023	0.392593
	H108	H	0.912497	0.601450	0.073877
	H109	H	0.086806	0.370586	0.064200
	H110	H	0.081970	0.601949	0.892375
	H111	H	0.914077	0.370387	0.899994
	H112	H	0.098398	0.898677	0.597646
	H113	H	0.090448	0.075553	0.369527
	H114	H	0.911539	0.078150	0.596629
	H115	H	0.913548	0.900649	0.372656
	H116	H	0.615545	0.078409	0.888527
	H117	H	0.377958	0.083407	0.080661
	H118	H	0.615681	0.887661	0.076434
	H119	H	0.380743	0.887320	0.891126
	C120	C	0.378464	-0.005931	0.604076
	C121	C	0.619015	0.976482	0.603202
	C122	C	0.619354	-0.005595	0.361625
	C123	C	0.378496	0.976012	0.362884
	C124	C	0.620134	0.363225	-0.006600
	C125	C	0.619694	0.606565	0.976621
	C126	C	0.374250	0.607601	-0.006867
	C127	C	0.375014	0.363239	0.975758
	C128	C	0.008469	0.607283	0.359943
	C129	C	0.990648	0.604868	0.605510
	C130	C	0.007920	0.362129	0.608820
	C131	C	0.991341	0.365755	0.363443
	C132	C	0.876785	0.494294	0.105655
	C133	C	0.117450	0.475884	0.104144
	C134	C	0.118644	0.494849	0.863269
	C135	C	0.877960	0.476010	0.864505
	C136	C	0.122412	0.863404	0.491841
	C137	C	0.123163	0.107408	0.474506
	C138	C	0.877780	0.105906	0.490786
	C139	C	0.877256	0.862718	0.473840
	C140	C	0.507371	0.107065	0.859693
	C141	C	0.488824	0.105985	0.105310
	C142	C	0.507081	0.864112	0.106662
	C143	C	0.490106	0.865379	0.861564
	C144	C	0.375910	0.871111	0.664284
	C145	C	0.622292	0.099569	0.661078
	C146	C	0.619917	0.870989	0.305016
	C147	C	0.376381	0.099417	0.304035
	C148	C	0.681161	0.360989	0.874802
	C149	C	0.678313	0.608242	0.095945
	C150	C	0.317368	0.610466	0.873237
	C151	C	0.316737	0.360756	0.095681
	C152	C	0.886582	0.665328	0.363133
	C153	C	0.113313	0.660753	0.601456
	C154	C	0.887001	0.303429	0.606895
	C155	C	0.113707	0.309571	0.366020
	C156	C	0.887832	0.358006	0.668024
	C157	C	0.111129	0.607867	0.663901
	C158	C	0.887722	0.611909	0.301888
	C159	C	0.110182	0.360681	0.301962
	C160	C	0.376980	0.666385	0.872562
	C161	C	0.616619	0.662279	0.097570
	C162	C	0.619411	0.307731	0.872374
	C163	C	0.377176	0.304813	0.096510
	C164	C	0.677062	0.870434	0.361575
	C165	C	0.678416	0.099284	0.602731
	C166	C	0.321108	0.870100	0.605654
	C167	C	0.321921	0.100492	0.362648
	C168	C	0.874300	0.371207	0.166104
	C169	C	0.119345	0.599411	0.161134
	C170	C	0.119316	0.370414	0.808139
	C171	C	0.876199	0.599654	0.805413
	C172	C	0.179511	0.864470	0.371543
	C173	C	0.180507	0.107241	0.594219
	C174	C	0.819788	0.110710	0.371260
	C175	C	0.816726	0.857925	0.592702
	C176	C	0.384739	0.163251	0.863949
	C177	C	0.611731	0.161899	0.101734
	C178	C	0.384762	0.808075	0.103598
	C179	C	0.612403	0.808410	0.864968
	C180	C	0.386427	0.861451	0.165136
	C181	C	0.609238	0.109410	0.163763
	C182	C	0.386728	0.109980	0.801720
	C183	C	0.610203	0.860384	0.801523
	C184	C	0.880068	0.166480	0.371000
	C185	C	0.120636	0.162138	0.595358
	C186	C	0.119494	0.808657	0.370631
	C187	C	0.878438	0.803946	0.594614
	C188	C	0.175197	0.370408	0.865754
	C189	C	0.175406	0.599568	0.103947
	C190	C	0.818682	0.370439	0.107844
	C191	C	0.821038	0.600469	0.864743
	C192	C	0.402843	0.080178	0.579448
	C193	C	0.593235	0.890884	0.579478
	C194	C	0.595231	0.080345	0.385334
	C195	C	0.402278	0.889529	0.386983
	C196	C	0.596376	0.386583	0.076756
	C197	C	0.597217	0.583220	0.892750
	C198	C	0.396984	0.582275	0.076714
	C199	C	0.398244	0.388715	0.892114
	C200	C	0.093018	0.581950	0.382319
	C201	C	0.906110	0.580211	0.583004
	C202	C	0.091899	0.388091	0.585603
	C203	C	0.907236	0.391472	0.387640
	C204	C	0.901318	0.580050	0.080356
	C205	C	0.092705	0.389715	0.080962
	C206	C	0.094967	0.581553	0.885186
	C207	C	0.902447	0.389939	0.888927
	C208	C	0.099675	0.886099	0.576119
	C209	C	0.100387	0.084607	0.390320
	C210	C	0.900929	0.078922	0.573805
	C211	C	0.901192	0.888603	0.390780
	C212	C	0.591879	0.082299	0.882361
	C213	C	0.404122	0.081401	0.082737
	C214	C	0.591653	0.888870	0.083696
	C215	C	0.405697	0.890724	0.884191
	Zn216	Zn	0.498735	-0.014518	0.730996
	Zn217	Zn	0.497857	-0.014438	0.235003
	Zn218	Zn	0.749632	0.484675	-0.014869
	Zn219	Zn	0.244951	0.485768	-0.015764
	Zn220	Zn	0.000262	0.733723	0.483396
	Zn221	Zn	0.000497	0.235517	0.483801
	Zn222	Zn	-0.001533	0.485220	0.736108
	Zn223	Zn	-0.002073	0.485583	0.231778
	Zn224	Zn	0.498168	0.736453	-0.015308
	Zn225	Zn	0.498472	0.234003	-0.016340
	Zn226	Zn	0.746998	-0.015482	0.481757
	Zn227	Zn	0.252095	-0.014503	0.483137
	N228	N	0.410844	0.949208	0.663413
	N229	N	0.585849	0.021992	0.661379
	N230	N	0.584965	0.949168	0.304703
	N231	N	0.410909	0.020973	0.304075
	N232	N	0.681799	0.394826	0.950933
	N233	N	0.680232	0.574040	0.019817
	N234	N	0.315552	0.574627	0.949154
	N235	N	0.315178	0.396235	0.019562
	N236	N	0.962580	0.662620	0.398612
	N237	N	0.037431	0.658982	0.565722
	N238	N	0.962782	0.305828	0.570817
	N239	N	0.038628	0.312751	0.403859
	N240	N	0.964055	0.393762	0.669280
	N241	N	0.033803	0.573992	0.666566
	N242	N	0.964514	0.576574	0.299589
	N243	N	0.032951	0.395119	0.300388
	N244	N	0.411673	0.665014	0.948128
	N245	N	0.580984	0.661372	0.022298
	N246	N	0.582122	0.308843	0.946918
	N247	N	0.412573	0.305870	0.020893
	N248	N	0.676876	0.948324	0.396068
	N249	N	0.676723	0.021763	0.567705
	N250	N	0.322459	0.947664	0.568945
	N251	N	0.323218	0.022746	0.398597
	N252	N	0.909528	0.449139	0.165003
	N253	N	0.083770	0.521438	0.161186
	N254	N	0.084998	0.448916	0.806304
	N255	N	0.910740	0.521159	0.805203
	N256	N	0.181348	0.897644	0.447943
	N257	N	0.182123	0.073787	0.517913
	N258	N	0.817976	0.073817	0.446691
	N259	N	0.815577	0.893747	0.516766
	N260	N	0.460897	0.161885	0.899075
	N261	N	0.535883	0.159731	0.066003
	N262	N	0.460709	0.809722	0.067983
	N263	N	0.536755	0.811097	0.901551
	N264	N	0.463714	0.895434	0.167420
	N265	N	0.531862	0.075462	0.166260
	N266	N	0.464086	0.076312	0.798541
	N267	N	0.532985	0.894770	0.799053
	N268	N	0.915383	0.163517	0.446427
	N269	N	0.085644	0.162356	0.519925
	N270	N	0.084836	0.807597	0.446595
	N271	N	0.915361	0.806698	0.519976
	N272	N	0.175009	0.448806	0.899148
	N273	N	0.174067	0.521815	0.069211
	N274	N	0.819990	0.447909	0.071135
	N275	N	0.821899	0.522580	0.900673
	O276	O	0.510687	0.490778	0.527974
	H277	H	0.506252	0.488726	0.523185
	H278	H	0.522996	0.479562	0.537174
	O279	O	0.561868	0.420228	0.324371
	H280	H	0.562674	0.408088	0.324612
	H281	H	0.553822	0.416130	0.325153
	O282	O	1.049707	-0.080431	1.062410
	H283	H	1.027287	-0.089898	1.065964
	H284	H	1.055705	-0.090664	1.047009
	O285	O	0.561050	0.646530	0.437561
	H286	H	0.571547	0.645711	0.450239
	H287	H	0.560443	0.648403	0.424676
	O288	O	0.923607	1.145003	0.811133
	H289	H	0.931871	1.159336	0.794980
	H290	H	0.905853	1.138739	0.833815
	O291	O	-0.116585	0.966343	-0.063751
	H292	H	-0.135435	0.968272	-0.074574
	H293	H	-0.111124	0.962612	-0.071142
	O294	O	0.505796	0.572451	0.558054
	H295	H	0.514488	0.573703	0.543118
	H296	H	0.498683	0.571705	0.570678
	O297	O	0.544483	0.562571	0.460369
	H298	H	0.551156	0.554381	0.444921
	H299	H	0.539274	0.576704	0.461995
	O300	O	0.601232	0.537107	0.542283
	H301	H	0.605804	0.538186	0.550832
	H302	H	0.605151	0.537952	0.538117
	O303	O	0.627556	0.338641	0.414398
	H304	H	0.611808	0.326849	0.428702
	H305	H	0.632342	0.320126	0.417392
	O306	O	0.408861	0.561794	0.330517
	H307	H	0.403131	0.558596	0.333344
	H308	H	0.414586	0.567809	0.326785
	O309	O	0.381144	0.440374	0.289210
	H310	H	0.379444	0.458199	0.281577
	H311	H	0.375041	0.453020	0.287947
	O312	O	-0.162002	-0.148295	0.127878
	H313	H	-0.156373	-0.142362	0.104365
	H314	H	-0.159985	-0.156541	0.113044
	O315	O	0.311966	0.516028	0.411779
	H316	H	0.310158	0.526435	0.409900
	H317	H	0.313137	0.526131	0.407574
	O318	O	-0.192298	1.009220	0.810288
	H319	H	-0.201214	1.008784	0.792960
	H320	H	-0.178846	1.014416	0.805292
	O321	O	0.384288	0.421519	0.644382
	H322	H	0.383738	0.424085	0.656784
	H323	H	0.385971	0.427122	0.648341
	O324	O	-0.158187	0.839193	-0.008299
	H325	H	-0.151656	0.848189	-0.012793
	H326	H	-0.141852	0.848045	-0.016884
	O327	O	0.299865	0.513571	0.559423
	H328	H	0.288966	0.517082	0.553593
	H329	H	0.306083	0.513652	0.549813
	O330	O	0.131426	-0.143320	0.875134
	H331	H	0.139262	-0.146601	0.879615
	H332	H	0.123415	-0.152681	0.889067
	O333	O	0.062865	0.116598	1.093276
	H334	H	0.066020	0.125486	1.099443
	H335	H	0.062012	0.118577	1.093475
	O336	O	0.488852	0.566646	0.613537
	H337	H	0.491368	0.569589	0.601414
	H338	H	0.505053	0.562848	0.600927
	O339	O	0.471788	0.460236	0.426166
	H340	H	0.475922	0.459951	0.424516
	H341	H	0.480286	0.453041	0.444905
	O342	O	0.308999	-0.595724	0.484854
	H343	H	0.299125	-0.599851	0.476660
	H344	H	0.312342	-0.582688	0.476629
	O345	O	1.642841	0.477972	1.488391
	H346	H	1.632061	0.472269	1.484507
	H347	H	1.626948	0.450705	1.492436
	O348	O	1.136741	0.881200	0.004772
	H349	H	1.146923	0.876876	0.027169
	H350	H	1.146539	0.904719	-0.000409
	O351	O	0.587564	0.544419	0.287641
	H352	H	0.605638	0.540006	0.279995
	H353	H	0.589734	0.527667	0.285083
	O354	O	0.938700	0.058851	1.108876
	H355	H	0.927765	0.053536	1.116127
	H356	H	0.935224	0.058092	1.108157
	O357	O	0.421803	0.413941	0.645317
	H358	H	0.404564	0.408186	0.655590
	H359	H	0.425413	0.428825	0.649658
	O360	O	1.181365	1.073351	1.044603
	H361	H	1.197983	1.078264	1.058701
	H362	H	1.175498	1.077826	1.035049
	O363	O	0.047997	0.951115	0.818537
	H364	H	0.050156	0.945308	0.806271
	H365	H	0.041813	0.961109	0.829955
	O366	O	0.651513	0.408659	0.596431
	H367	H	0.631273	0.427555	0.590182
	H368	H	0.671196	0.412622	0.616110
	O369	O	0.083230	0.881281	0.028041
	H370	H	0.084469	0.881539	0.025803
	H371	H	0.093677	0.881353	0.022731
	O372	O	0.449199	0.319790	0.674227
	H373	H	0.439117	0.309541	0.684413
	H374	H	0.433396	0.312116	0.674570
	O375	O	0.521811	0.395991	0.402365
	H376	H	0.500040	0.388369	0.418762
	H377	H	0.524819	0.396225	0.385694
	O378	O	1.043493	0.985335	0.049455
	H379	H	1.038390	1.004716	0.055681
	H380	H	1.031634	0.975541	0.062521
	O381	O	0.995198	0.129632	-0.025704
	H382	H	0.990719	0.120051	-0.015396
	H383	H	0.982643	0.138510	-0.030899
	O384	O	0.832767	1.067431	-0.060732
	H385	H	0.856767	1.067776	-0.053691
	H386	H	0.819274	1.074797	-0.057257
	O387	O	-0.570987	0.674666	0.421312
	H388	H	-0.555139	0.684214	0.424425
	H389	H	-0.565858	0.675378	0.411615
	O390	O	0.066241	0.983454	0.027774
	H391	H	0.068921	0.980900	0.036545
	H392	H	0.069022	0.967599	0.023334
	O393	O	1.066382	0.933381	0.936764
	H394	H	1.076828	0.940405	0.932349
	H395	H	1.061420	0.934411	0.928123
	O396	O	0.631109	0.509106	0.509143
	H397	H	0.635405	0.503167	0.509422
	H398	H	0.627973	0.507317	0.519963
	O399	O	-0.167878	1.071647	0.915939
	H400	H	-0.179628	1.070229	0.916607
	H401	H	-0.180009	1.066517	0.910907
	O402	O	0.608735	0.367562	0.418227
	H403	H	0.616463	0.375838	0.418431
	H404	H	0.615087	0.367555	0.430107
	O405	O	0.843594	0.899874	0.193232
	H406	H	0.819804	0.880013	0.209487
	H407	H	0.835628	0.879746	0.190637
	O408	O	1.055021	0.964438	0.060624
	H409	H	1.042023	0.969478	0.068379
	H410	H	1.052305	0.964647	0.066216
	O411	O	1.176920	0.043091	1.812564
	H412	H	1.174498	0.046526	1.825170
	H413	H	1.163628	0.033891	1.804082
	O414	O	0.648852	0.550875	0.647820
	H415	H	0.658662	0.542300	0.656986
	H416	H	0.639553	0.560059	0.654314
	O417	O	-0.028868	0.054260	0.849647
	H418	H	-0.016437	0.048041	0.848999
	H419	H	-0.007936	0.058174	0.850731
