data_Molecule from HDF5

_cell_length_a		16.532338
_cell_length_b		16.594072
_cell_length_c		16.464959
_cell_angle_alpha	89.907503
_cell_angle_beta	89.883954
_cell_angle_gamma	90.018433
_symmetry_space_group_name_H-M	'P 1'
_symmetry_Int_Tables_number		1

loop_
	_symmetry_equiv_pos_as_xyz
	x,y,z

loop_
	_atom_site_label
	_atom_site_type_symbol
	_atom_site_fract_x
	_atom_site_fract_y
	_atom_site_fract_z
	H0	H	0.407687	0.865690	0.723232
	H1	H	0.615493	0.179092	0.722438
	H2	H	0.616761	0.865342	0.279918
	H3	H	0.405996	0.179605	0.281821
	H4	H	0.732190	0.419222	0.846879
	H5	H	0.731189	0.627827	0.163223
	H6	H	0.291565	0.627009	0.846115
	H7	H	0.288798	0.417033	0.161225
	H8	H	0.854624	0.745659	0.396185
	H9	H	0.164752	0.746305	0.612392
	H10	H	0.853597	0.299817	0.609030
	H11	H	0.169068	0.302934	0.399531
	H12	H	0.852444	0.416765	0.724609
	H13	H	0.164873	0.628418	0.726476
	H14	H	0.854339	0.629228	0.280848
	H15	H	0.170356	0.420881	0.284932
	H16	H	0.406522	0.744725	0.847057
	H17	H	0.618806	0.746660	0.161271
	H18	H	0.617320	0.300942	0.847374
	H19	H	0.404284	0.301364	0.161094
	H20	H	0.736184	0.866237	0.393064
	H21	H	0.731482	0.178710	0.605297
	H22	H	0.290685	0.865131	0.607440
	H23	H	0.287897	0.178759	0.397027
	H24	H	0.909179	0.366057	0.222889
	H25	H	0.117593	0.679525	0.226495
	H26	H	0.113843	0.367482	0.782887
	H27	H	0.898713	0.677306	0.775983
	H28	H	0.236156	0.912442	0.347343
	H29	H	0.228113	0.123427	0.661482
	H30	H	0.788563	0.129409	0.346422
	H31	H	0.786320	0.913706	0.658981
	H32	H	0.355298	0.244671	0.897199
	H33	H	0.665548	0.246651	0.112156
	H34	H	0.354520	0.800214	0.109359
	H35	H	0.667741	0.798183	0.894431
	H36	H	0.352130	0.917788	0.223681
	H37	H	0.666368	0.128652	0.226119
	H38	H	0.354634	0.126023	0.783082
	H39	H	0.668055	0.914792	0.778524
	H40	H	0.904438	0.245491	0.347309
	H41	H	0.113644	0.240849	0.660825
	H42	H	0.120113	0.796640	0.347993
	H43	H	0.901545	0.798331	0.659178
	H44	H	0.233819	0.368889	0.895978
	H45	H	0.234489	0.679561	0.110550
	H46	H	0.789631	0.367312	0.109365
	H47	H	0.784777	0.678378	0.894285
	H48	H	0.413285	0.137403	0.592917
	H49	H	0.605167	0.909199	0.588287
	H50	H	0.596957	0.132461	0.410117
	H51	H	0.423040	0.909658	0.408187
	H52	H	0.595471	0.431879	0.116085
	H53	H	0.596288	0.616393	0.891545
	H54	H	0.421286	0.611603	0.116435
	H55	H	0.417461	0.436591	0.890148
	H56	H	0.120004	0.612982	0.422412
	H57	H	0.900241	0.602513	0.590163
	H58	H	0.121568	0.433536	0.591738
	H59	H	0.900508	0.432395	0.418016
	H60	H	0.122639	0.433317	0.594521
	H61	H	0.894763	0.613069	0.594277
	H62	H	0.121015	0.604949	0.414225
	H63	H	0.899029	0.435980	0.412325
	H64	H	0.423517	0.609529	0.116270
	H65	H	0.604127	0.609852	0.891392
	H66	H	0.601585	0.432481	0.118410
	H67	H	0.426856	0.435236	0.893861
	H68	H	0.597499	0.130600	0.418661
	H69	H	0.597634	0.908680	0.596277
	H70	H	0.421768	0.135612	0.598563
	H71	H	0.426256	0.913714	0.418961
	H72	H	0.924182	0.634885	0.091409
	H73	H	0.101285	0.408662	0.102015
	H74	H	0.105308	0.636827	0.916259
	H75	H	0.924479	0.414627	0.917339
	H76	H	0.092253	0.935082	0.612286
	H77	H	0.096999	0.115612	0.389005
	H78	H	0.919061	0.107860	0.615911
	H79	H	0.926884	0.932853	0.392069
	H80	H	0.622892	0.106369	0.911243
	H81	H	0.396400	0.116615	0.092623
	H82	H	0.625505	0.927541	0.094055
	H83	H	0.400923	0.932197	0.915802
	H84	H	0.618998	0.935519	0.082574
	H85	H	0.400465	0.110249	0.087378
	H86	H	0.626161	0.116705	0.913582
	H87	H	0.400860	0.934650	0.915773
	H88	H	0.924197	0.109967	0.615376
	H89	H	0.103611	0.111199	0.388504
	H90	H	0.099693	0.927900	0.617666
	H91	H	0.922973	0.935453	0.390038
	H92	H	0.094579	0.635617	0.909780
	H93	H	0.092492	0.415607	0.089976
	H94	H	0.918410	0.636017	0.090601
	H95	H	0.918193	0.412703	0.919148
	H96	H	0.421930	0.132774	0.588396
	H97	H	0.595037	0.913316	0.586439
	H98	H	0.604373	0.134040	0.414549
	H99	H	0.415133	0.909265	0.417512
	H100	H	0.598361	0.437894	0.115861
	H101	H	0.595154	0.607521	0.895967
	H102	H	0.423941	0.612100	0.116120
	H103	H	0.421943	0.427886	0.889119
	H104	H	0.125209	0.614945	0.412962
	H105	H	0.900073	0.612602	0.582650
	H106	H	0.122805	0.430717	0.592217
	H107	H	0.897554	0.429312	0.413005
	H108	H	0.921085	0.636232	0.095671
	H109	H	0.108161	0.410463	0.086994
	H110	H	0.095030	0.632099	0.921674
	H111	H	0.920980	0.410393	0.913207
	H112	H	0.102692	0.939016	0.615040
	H113	H	0.097245	0.108302	0.391486
	H114	H	0.919954	0.113552	0.616428
	H115	H	0.926360	0.937123	0.393452
	H116	H	0.620646	0.110494	0.921349
	H117	H	0.398250	0.108509	0.095860
	H118	H	0.621243	0.942562	0.095810
	H119	H	0.399673	0.933343	0.914034
	C120	C	0.388684	0.031126	0.624699
	C121	C	0.632130	1.013642	0.623064
	C122	C	0.633022	0.029847	0.380453
	C123	C	0.388545	1.014091	0.381924
	C124	C	0.631738	0.401767	0.012867
	C125	C	0.631772	0.644266	0.996474
	C126	C	0.390914	0.643506	0.012286
	C127	C	0.389122	0.401149	0.995068
	C128	C	0.019022	0.644292	0.382271
	C129	C	1.000820	0.642981	0.623515
	C130	C	0.018343	0.400291	0.625181
	C131	C	1.003327	0.401377	0.382638
	C132	C	0.889778	0.531991	0.125080
	C133	C	0.133279	0.515102	0.125363
	C134	C	0.130889	0.531977	0.882752
	C135	C	0.887250	0.514906	0.881922
	C136	C	0.132168	0.900320	0.511436
	C137	C	0.130815	0.142694	0.494377
	C138	C	0.889324	0.143562	0.511746
	C139	C	0.890494	0.901394	0.494855
	C140	C	0.519615	0.143061	0.882905
	C141	C	0.501628	0.144064	0.124938
	C142	C	0.518549	0.901963	0.124030
	C143	C	0.503600	0.900498	0.881637
	C144	C	0.388439	0.912688	0.683767
	C145	C	0.633928	0.131932	0.682495
	C146	C	0.635703	0.912487	0.319453
	C147	C	0.386804	0.132195	0.321549
	C148	C	0.692187	0.400293	0.894209
	C149	C	0.691818	0.646524	0.115415
	C150	C	0.331432	0.645710	0.893377
	C151	C	0.328386	0.398425	0.113448
	C152	C	0.901623	0.705376	0.378245
	C153	C	0.118147	0.705266	0.629055
	C154	C	0.900495	0.339994	0.627252
	C155	C	0.121885	0.342454	0.381001
	C156	C	0.899808	0.398560	0.684490
	C157	C	0.118042	0.646693	0.686048
	C158	C	0.901472	0.647309	0.320886
	C159	C	0.122367	0.401143	0.323732
	C160	C	0.388513	0.704197	0.893977
	C161	C	0.635707	0.705478	0.114596
	C162	C	0.635056	0.341645	0.894343
	C163	C	0.386247	0.340859	0.113331
	C164	C	0.695067	0.913041	0.376080
	C165	C	0.691882	0.131667	0.624526
	C166	C	0.330411	0.912520	0.626010
	C167	C	0.327962	0.131820	0.378607
	C168	C	0.889261	0.413497	0.184046
	C169	C	0.136041	0.632582	0.186176
	C170	C	0.132941	0.414549	0.822463
	C171	C	0.882149	0.630992	0.817880
	C172	C	0.194735	0.895731	0.394275
	C173	C	0.189145	0.142886	0.613782
	C174	C	0.829005	0.146953	0.393671
	C175	C	0.827547	0.896810	0.612273
	C176	C	0.402091	0.203761	0.879881
	C177	C	0.618912	0.205560	0.128950
	C178	C	0.400966	0.840802	0.127023
	C179	C	0.621108	0.839018	0.877599
	C180	C	0.399882	0.899542	0.183887
	C181	C	0.619327	0.146876	0.185823
	C182	C	0.401750	0.145007	0.822773
	C183	C	0.621170	0.897098	0.819791
	C184	C	0.886562	0.204950	0.394070
	C185	C	0.132470	0.201416	0.613549
	C186	C	0.136809	0.838020	0.394473
	C187	C	0.884802	0.839089	0.612333
	C188	C	0.192595	0.415427	0.878805
	C189	C	0.194199	0.632647	0.128461
	C190	C	0.830129	0.414078	0.127415
	C191	C	0.825300	0.631635	0.876786
	C192	C	0.412303	0.113768	0.600267
	C193	C	0.606465	0.931912	0.597663
	C194	C	0.607124	0.111291	0.406854
	C195	C	0.414072	0.932263	0.407578
	C196	C	0.605786	0.426845	0.095232
	C197	C	0.606070	0.618553	0.914400
	C198	C	0.415738	0.618184	0.094773
	C199	C	0.414799	0.426158	0.912433
	C200	C	0.100714	0.618316	0.408768
	C201	C	0.919625	0.616867	0.596481
	C202	C	0.100907	0.425428	0.600041
	C203	C	0.920646	0.425646	0.407267
	C204	C	0.914443	0.614501	0.099920
	C205	C	0.107905	0.433044	0.100114
	C206	C	0.105424	0.613740	0.908465
	C207	C	0.913727	0.433940	0.908914
	C208	C	0.105592	0.926525	0.593542
	C209	C	0.106334	0.118556	0.411296
	C210	C	0.914129	0.117909	0.594589
	C211	C	0.917529	0.927719	0.413154
	C212	C	0.601985	0.118148	0.908300
	C213	C	0.419659	0.118882	0.099359
	C214	C	0.600534	0.927778	0.098145
	C215	C	0.421761	0.925982	0.907750
	Zn216	Zn	0.511862	0.022136	0.752771
	Zn217	Zn	0.509847	0.021892	0.253157
	Zn218	Zn	0.760001	0.523844	0.004744
	Zn219	Zn	0.261219	0.523456	0.003627
	Zn220	Zn	0.010083	0.772427	0.503503
	Zn221	Zn	0.011006	0.271753	0.503477
	Zn222	Zn	0.008806	0.522803	0.753399
	Zn223	Zn	0.011237	0.523319	0.253852
	Zn224	Zn	0.511846	0.772670	0.003836
	Zn225	Zn	0.511106	0.272909	0.003616
	Zn226	Zn	0.761827	0.021353	0.502467
	Zn227	Zn	0.259869	0.022436	0.503112
	N228	N	0.423738	0.987568	0.683445
	N229	N	0.597699	0.057435	0.681922
	N230	N	0.598072	0.986097	0.321868
	N231	N	0.423566	0.057902	0.323317
	N232	N	0.690239	0.436912	0.968984
	N233	N	0.689642	0.609300	0.040932
	N234	N	0.332640	0.608732	0.968007
	N235	N	0.329826	0.435301	0.038697
	N236	N	0.975887	0.703868	0.415299
	N237	N	0.044138	0.703485	0.591311
	N238	N	0.975538	0.340950	0.591268
	N239	N	0.046702	0.342197	0.416576
	N240	N	0.974267	0.435246	0.683468
	N241	N	0.044153	0.608874	0.683045
	N242	N	0.975691	0.610069	0.323166
	N243	N	0.047625	0.437339	0.324738
	N244	N	0.424706	0.703023	0.968870
	N245	N	0.599308	0.704334	0.039746
	N246	N	0.598134	0.342569	0.969115
	N247	N	0.423120	0.342317	0.038648
	N248	N	0.693935	0.987328	0.412957
	N249	N	0.691088	0.056991	0.588520
	N250	N	0.330251	0.987192	0.590155
	N251	N	0.328658	0.057225	0.415012
	N252	N	0.925696	0.487880	0.182578
	N253	N	0.099142	0.558609	0.184476
	N254	N	0.095148	0.488100	0.824971
	N255	N	0.920272	0.557384	0.821115
	N256	N	0.191693	0.933936	0.468118
	N257	N	0.188403	0.107217	0.538617
	N258	N	0.830746	0.109296	0.468024
	N259	N	0.830891	0.934809	0.538172
	N260	N	0.476544	0.202761	0.916337
	N261	N	0.544747	0.203910	0.091743
	N262	N	0.475814	0.842158	0.090755
	N263	N	0.546918	0.841083	0.915458
	N264	N	0.474188	0.936632	0.182300
	N265	N	0.545412	0.109192	0.183529
	N266	N	0.475968	0.107870	0.824457
	N267	N	0.547267	0.934573	0.822072
	N268	N	0.923413	0.202800	0.468696
	N269	N	0.096958	0.201393	0.538209
	N270	N	0.098417	0.840944	0.468456
	N271	N	0.923372	0.841893	0.538503
	N272	N	0.191508	0.489553	0.915686
	N273	N	0.192638	0.558442	0.091433
	N274	N	0.830456	0.488955	0.091575
	N275	N	0.828302	0.558607	0.915859
	O276	O	0.808257	0.808512	0.209374
	H277	H	0.841068	0.800954	0.216342
	H278	H	0.805241	0.839888	0.219748
	O279	O	0.055554	-0.067540	0.926519
	H280	H	0.068580	-0.077289	0.918475
	H281	H	0.049485	-0.064328	0.936258
	O282	O	0.473721	0.318388	0.523807
	H283	H	0.474808	0.328172	0.518970
	H284	H	0.468582	0.313446	0.517836
	O285	O	0.439925	0.307114	0.722682
	H286	H	0.442426	0.307907	0.719870
	H287	H	0.421609	0.298173	0.731040
	O288	O	0.786858	-0.201707	1.024895
	H289	H	0.778403	-0.203016	1.036825
	H290	H	0.770450	-0.218332	1.052323
	O291	O	-0.053880	0.796112	-0.060634
	H292	H	-0.075491	0.790700	-0.057497
	H293	H	-0.067936	0.805435	-0.065593
	O294	O	-0.016051	0.220165	-0.203117
	H295	H	-0.017147	0.224034	-0.204126
	H296	H	-0.005764	0.211813	-0.221690
	O297	O	0.795142	-0.000521	1.221386
	H298	H	0.793121	0.005543	1.231036
	H299	H	0.785454	0.003362	1.231471
	O300	O	-0.051711	0.058920	0.207355
	H301	H	-0.042617	0.078320	0.178854
	H302	H	-0.060216	0.043345	0.208776
	O303	O	-0.176495	0.206661	0.188219
	H304	H	-0.158307	0.193442	0.170481
	H305	H	-0.165278	0.195377	0.170247
	O306	O	1.039573	0.237648	0.223110
	H307	H	1.069842	0.240153	0.227486
	H308	H	1.035439	0.245905	0.238423
	O309	O	0.528888	0.310524	0.378890
	H310	H	0.542828	0.295591	0.360065
	H311	H	0.528831	0.318237	0.387828
	O312	O	0.492234	0.526478	0.292254
	H313	H	0.492110	0.532047	0.287875
	H314	H	0.516352	0.519445	0.300176
	O315	O	0.546495	0.691660	0.475047
	H316	H	0.542932	0.689624	0.458947
	H317	H	0.538655	0.688519	0.467902
	O318	O	0.343722	0.739716	-0.570216
	H319	H	0.314488	0.743168	-0.566669
	H320	H	0.349797	0.751008	-0.601632
	O321	O	0.619920	0.321159	0.529333
	H322	H	0.623655	0.322127	0.548722
	H323	H	0.620225	0.312357	0.529215
	O324	O	1.321943	-0.294576	0.687910
	H325	H	1.345205	-0.300314	0.665149
	H326	H	1.328878	-0.321850	0.669661
	O327	O	0.402274	0.696893	0.505438
	H328	H	0.389629	0.702834	0.494300
	H329	H	0.404643	0.691633	0.488331
	O330	O	0.222514	0.805324	-0.029190
	H331	H	0.228652	0.817291	-0.031807
	H332	H	0.235016	0.795063	-0.025745
	O333	O	0.298571	0.364768	0.684465
	H334	H	0.268302	0.346589	0.708161
	H335	H	0.302944	0.375969	0.662695
	O336	O	0.520059	0.497663	0.695818
	H337	H	0.519781	0.501551	0.700079
	H338	H	0.495846	0.491629	0.695788
	O339	O	0.658791	0.641073	0.465673
	H340	H	0.664974	0.634593	0.467814
	H341	H	0.668067	0.633034	0.462147
	O342	O	0.101690	0.986611	-0.034870
	H343	H	0.111707	0.984989	-0.034310
	H344	H	0.108025	0.975947	-0.051786
	O345	O	1.085370	0.975533	0.064003
	H346	H	1.086388	0.985073	0.055655
	H347	H	1.077256	0.973265	0.055995
	O348	O	0.485916	0.520069	0.472566
	H349	H	0.492515	0.511470	0.481557
	H350	H	0.493721	0.518045	0.470347
	O351	O	0.017967	-0.171990	0.782209
	H352	H	0.020685	-0.189529	0.773195
	H353	H	0.021442	-0.171824	0.782219
	O354	O	0.796213	-0.041368	0.930149
	H355	H	0.789260	-0.044987	0.940526
	H356	H	0.786503	-0.046161	0.902543
	O357	O	0.502419	0.703788	0.288816
	H358	H	0.509411	0.715883	0.277129
	H359	H	0.493891	0.714062	0.287881
	O360	O	0.079429	-0.037078	1.233216
	H361	H	0.053544	-0.032316	1.234223
	H362	H	0.061442	-0.054099	1.221401
	O363	O	0.290375	0.484852	0.549213
	H364	H	0.285192	0.484284	0.536256
	H365	H	0.296020	0.472620	0.557131
	O366	O	1.487318	0.491831	0.389876
	H367	H	1.483070	0.503826	0.394177
	H368	H	1.497957	0.494724	0.396754
	O369	O	-0.300939	-0.286039	0.689885
	H370	H	-0.321139	-0.297843	0.688629
	H371	H	-0.301185	-0.311271	0.684043
	O372	O	0.045487	0.872894	1.018710
	H373	H	0.035865	0.865314	1.015513
	H374	H	0.037557	0.879679	1.001176
	O375	O	1.181549	-0.007953	0.026489
	H376	H	1.188471	-0.008454	0.049715
	H377	H	1.172353	0.009117	0.030583
	O378	O	0.318042	0.345439	0.527050
	H379	H	0.314758	0.345615	0.535049
	H380	H	0.311316	0.345795	0.528688
	O381	O	-0.037764	0.909400	-0.199169
	H382	H	-0.045324	0.883767	-0.207053
	H383	H	-0.027983	0.907505	-0.190643
	O384	O	0.299098	0.556153	0.289219
	H385	H	0.281909	0.547679	0.259835
	H386	H	0.313332	0.531891	0.300616
	O387	O	0.321339	0.717959	0.316781
	H388	H	0.304493	0.700266	0.309300
	H389	H	0.335583	0.695929	0.316424
	O390	O	0.224630	1.241611	1.029976
	H391	H	0.231417	1.240532	1.028703
	H392	H	0.239013	1.251147	1.022947
	O393	O	0.802197	0.228761	-0.197092
	H394	H	0.800678	0.199394	-0.183894
	H395	H	0.832186	0.236767	-0.197081
	O396	O	0.053380	0.237239	-0.033547
	H397	H	0.055702	0.232675	-0.044365
	H398	H	0.056710	0.235599	-0.037039
	O399	O	0.221026	0.812128	0.796636
	H400	H	0.231715	0.785900	0.780857
	H401	H	0.217440	0.797747	0.808988
	O402	O	1.233941	-0.008914	0.782756
	H403	H	1.219922	-0.048012	0.786895
	H404	H	1.267151	-0.020268	0.750181
	O405	O	0.715087	0.545513	0.702671
	H406	H	0.730005	0.535246	0.716226
	H407	H	0.709263	0.531180	0.690558
	O408	O	0.965731	1.184049	1.019782
	H409	H	0.976079	1.181896	1.020609
	H410	H	0.967955	1.189823	1.010623
	O411	O	0.717659	0.319024	0.303211
	H412	H	0.733855	0.289158	0.276358
	H413	H	0.702859	0.318125	0.330104
	O414	O	-0.013591	-0.187951	0.222852
	H415	H	-0.014077	-0.196392	0.216282
	H416	H	-0.023260	-0.205694	0.229599
	O417	O	0.728810	0.394322	0.389023
	H418	H	0.743051	0.374006	0.381986
	H419	H	0.729778	0.385428	0.380390
	O420	O	1.225299	0.047114	1.221683
	H421	H	1.232826	0.040870	1.250431
	H422	H	1.202109	0.027079	1.236016
	O423	O	1.201672	1.213424	0.194459
	H424	H	1.209545	1.163839	0.201962
	H425	H	1.198469	1.221973	0.157457
	O426	O	0.438507	0.513152	0.516650
	H427	H	0.438535	0.516422	0.511581
	H428	H	0.445106	0.511909	0.520710
	O429	O	0.708070	0.565596	0.354766
	H430	H	0.717945	0.558153	0.360618
	H431	H	0.711551	0.548250	0.349714
	O432	O	1.214634	0.035092	0.988431
	H433	H	1.214849	0.021290	0.995369
	H434	H	1.214993	0.014408	0.988007
	O435	O	0.434844	0.411570	0.342456
	H436	H	0.448347	0.413823	0.350313
	H437	H	0.445490	0.403685	0.328939
	O438	O	0.306560	0.463578	0.622768
	H439	H	0.305714	0.445573	0.626721
	H440	H	0.314332	0.462241	0.611944
	O441	O	0.680344	0.519928	0.564377
	H442	H	0.669697	0.512217	0.573846
	H443	H	0.673554	0.532186	0.555725
	O444	O	0.778737	0.076982	0.056092
	H445	H	0.777686	0.072273	0.046214
	H446	H	0.784684	0.070352	0.058146
	O447	O	1.001767	0.068808	0.824624
	H448	H	1.016808	0.059299	0.821693
	H449	H	1.000864	0.059914	0.820071
	O450	O	0.465835	0.613954	0.684304
	H451	H	0.464800	0.614436	0.690856
	H452	H	0.469804	0.624282	0.670699
	O453	O	0.693620	0.721093	0.528282
	H454	H	0.692898	0.733383	0.526532
	H455	H	0.704472	0.718090	0.540863
	O456	O	0.072729	1.108042	1.079275
	H457	H	0.079882	1.111304	1.086302
	H458	H	0.073119	1.110803	1.083444
	O459	O	0.530409	0.731771	0.711771
	H460	H	0.533206	0.741644	0.712766
	H461	H	0.527485	0.742193	0.698949
	O462	O	0.524298	0.409786	0.407515
	H463	H	0.530250	0.402844	0.388391
	H464	H	0.520750	0.408190	0.409380
	O465	O	0.790991	0.054711	0.790612
	H466	H	0.797623	0.051929	0.775178
	H467	H	0.791477	0.062205	0.778687
	O468	O	-1.077215	-0.001043	0.031153
	H469	H	-1.077532	-0.002604	0.021651
	H470	H	-1.079360	0.015619	0.020177
	O471	O	-0.205674	0.229636	0.976824
	H472	H	-0.202383	0.218921	0.975754
	H473	H	-0.220119	0.246616	0.974290
	O474	O	1.195882	1.215618	-0.180884
	H475	H	1.188774	1.211410	-0.178004
	H476	H	1.189498	1.193626	-0.157787
	O477	O	0.682285	0.360768	0.663140
	H478	H	0.653177	0.361738	0.664668
	H479	H	0.696794	0.352433	0.679769
