data_Molecule from HDF5

_cell_length_a		16.308570
_cell_length_b		16.248844
_cell_length_c		16.188775
_cell_angle_alpha	90.001139
_cell_angle_beta	90.004364
_cell_angle_gamma	89.986251
_symmetry_space_group_name_H-M	'P 1'
_symmetry_Int_Tables_number		1

loop_
	_symmetry_equiv_pos_as_xyz
	x,y,z

loop_
	_atom_site_label
	_atom_site_type_symbol
	_atom_site_fract_x
	_atom_site_fract_y
	_atom_site_fract_z
	H0	H	0.402946	0.835560	0.712389
	H1	H	0.596232	0.164430	0.712326
	H2	H	0.597443	0.834867	0.286753
	H3	H	0.402394	0.164060	0.285689
	H4	H	0.714393	0.401837	0.835918
	H5	H	0.713066	0.597718	0.165323
	H6	H	0.285300	0.599307	0.836115
	H7	H	0.285676	0.400510	0.164703
	H8	H	0.836477	0.714299	0.401731
	H9	H	0.163225	0.713880	0.598536
	H10	H	0.836409	0.285869	0.597689
	H11	H	0.163989	0.285313	0.402066
	H12	H	0.835872	0.403684	0.712586
	H13	H	0.164018	0.596173	0.712352
	H14	H	0.835767	0.596204	0.287621
	H15	H	0.163964	0.402109	0.287032
	H16	H	0.403636	0.712340	0.834724
	H17	H	0.597275	0.713341	0.164943
	H18	H	0.597464	0.287703	0.835106
	H19	H	0.401630	0.285240	0.164034
	H20	H	0.714694	0.836143	0.401164
	H21	H	0.715469	0.163641	0.600311
	H22	H	0.285739	0.836576	0.598495
	H23	H	0.285913	0.164345	0.401336
	H24	H	0.903304	0.334946	0.213093
	H25	H	0.095584	0.664467	0.212675
	H26	H	0.097220	0.335489	0.787275
	H27	H	0.903860	0.664795	0.786602
	H28	H	0.214132	0.901258	0.335866
	H29	H	0.214132	0.098309	0.663400
	H30	H	0.786199	0.098679	0.335534
	H31	H	0.785096	0.900571	0.664165
	H32	H	0.336200	0.215152	0.901526
	H33	H	0.663644	0.214985	0.098576
	H34	H	0.336652	0.785826	0.098657
	H35	H	0.663215	0.785744	0.901272
	H36	H	0.336737	0.900804	0.214850
	H37	H	0.663721	0.097875	0.214142
	H38	H	0.335697	0.097576	0.786287
	H39	H	0.663663	0.902544	0.786325
	H40	H	0.902647	0.213193	0.335223
	H41	H	0.097093	0.211784	0.664916
	H42	H	0.098318	0.786238	0.335452
	H43	H	0.903005	0.787827	0.664892
	H44	H	0.214306	0.336012	0.901781
	H45	H	0.213736	0.664374	0.099101
	H46	H	0.785262	0.335995	0.098747
	H47	H	0.786461	0.664709	0.901718
	H48	H	0.402415	0.122664	0.605749
	H49	H	0.605832	0.879695	0.590317
	H50	H	0.593790	0.120703	0.395706
	H51	H	0.410423	0.881073	0.396485
	H52	H	0.593923	0.405305	0.118731
	H53	H	0.599777	0.595555	0.880500
	H54	H	0.419520	0.596038	0.114839
	H55	H	0.399141	0.406068	0.879971
	H56	H	0.118996	0.591186	0.397911
	H57	H	0.881172	0.590364	0.602173
	H58	H	0.118311	0.393747	0.586877
	H59	H	0.882260	0.402245	0.406019
	H60	H	0.112163	0.416171	0.587998
	H61	H	0.881333	0.602590	0.590457
	H62	H	0.119131	0.602344	0.408708
	H63	H	0.884817	0.406427	0.409773
	H64	H	0.398913	0.602711	0.122881
	H65	H	0.593211	0.586450	0.884273
	H66	H	0.594480	0.409027	0.116867
	H67	H	0.408295	0.414996	0.885507
	H68	H	0.583060	0.111991	0.412041
	H69	H	0.588815	0.880767	0.604301
	H70	H	0.417711	0.113322	0.590468
	H71	H	0.413908	0.887296	0.415080
	H72	H	0.894495	0.620967	0.095181
	H73	H	0.091569	0.385090	0.086415
	H74	H	0.095275	0.616832	0.911277
	H75	H	0.902712	0.382258	0.906148
	H76	H	0.104077	0.906706	0.620819
	H77	H	0.096917	0.094842	0.380004
	H78	H	0.908767	0.078519	0.612099
	H79	H	0.904788	0.911833	0.382962
	H80	H	0.619379	0.093423	0.895824
	H81	H	0.380886	0.099144	0.095245
	H82	H	0.613136	0.914390	0.088982
	H83	H	0.382255	0.904262	0.906945
	H84	H	0.619264	0.906203	0.102629
	H85	H	0.386328	0.093115	0.085120
	H86	H	0.617192	0.104382	0.910765
	H87	H	0.384016	0.907204	0.908119
	H88	H	0.918784	0.103520	0.616909
	H89	H	0.093190	0.088073	0.383208
	H90	H	0.089199	0.915867	0.613987
	H91	H	0.911322	0.905806	0.383413
	H92	H	0.096060	0.618953	0.902956
	H93	H	0.101499	0.380215	0.094029
	H94	H	0.914315	0.617386	0.103061
	H95	H	0.908609	0.383139	0.904496
	H96	H	0.396153	0.117394	0.583578
	H97	H	0.586473	0.887482	0.583732
	H98	H	0.603170	0.117963	0.414337
	H99	H	0.395806	0.881122	0.410185
	H100	H	0.591106	0.407350	0.117137
	H101	H	0.588276	0.597659	0.882105
	H102	H	0.400996	0.580637	0.115417
	H103	H	0.412273	0.401771	0.882958
	H104	H	0.113142	0.589092	0.412066
	H105	H	0.887113	0.587487	0.586198
	H106	H	0.119983	0.405312	0.606601
	H107	H	0.883176	0.407875	0.404163
	H108	H	0.909306	0.612124	0.082223
	H109	H	0.089885	0.382184	0.098998
	H110	H	0.088969	0.616065	0.906256
	H111	H	0.906467	0.383813	0.910687
	H112	H	0.087183	0.898310	0.618759
	H113	H	0.089362	0.095805	0.382259
	H114	H	0.893211	0.097542	0.623255
	H115	H	0.903746	0.903748	0.380323
	H116	H	0.612365	0.086085	0.911656
	H117	H	0.384484	0.086715	0.096606
	H118	H	0.618064	0.898060	0.088340
	H119	H	0.382140	0.907444	0.904005
	C120	C	0.377929	0.008915	0.621223
	C121	C	0.621666	0.991319	0.621429
	C122	C	0.621766	0.008238	0.378601
	C123	C	0.378673	0.991725	0.378493
	C124	C	0.621476	0.379035	0.008532
	C125	C	0.621238	0.621112	0.991736
	C126	C	0.378446	0.621530	0.008948
	C127	C	0.378349	0.378837	0.991439
	C128	C	0.008493	0.621896	0.378149
	C129	C	0.991374	0.621421	0.621293
	C130	C	0.008353	0.377745	0.621851
	C131	C	0.991796	0.377349	0.378229
	C132	C	0.878225	0.508014	0.121742
	C133	C	0.121541	0.491319	0.121587
	C134	C	0.121720	0.508756	0.878548
	C135	C	0.878074	0.491966	0.878761
	C136	C	0.121647	0.878609	0.508701
	C137	C	0.121222	0.121095	0.490532
	C138	C	0.878611	0.121488	0.508657
	C139	C	0.878609	0.878842	0.491312
	C140	C	0.507889	0.122644	0.877988
	C141	C	0.492013	0.121316	0.120894
	C142	C	0.508815	0.878183	0.121632
	C143	C	0.491288	0.878150	0.878035
	C144	C	0.381802	0.884973	0.675214
	C145	C	0.617807	0.115444	0.675418
	C146	C	0.618594	0.884347	0.323992
	C147	C	0.382273	0.115342	0.323639
	C148	C	0.676509	0.381358	0.884876
	C149	C	0.675654	0.618552	0.115892
	C150	C	0.323674	0.618934	0.884588
	C151	C	0.323492	0.380526	0.115528
	C152	C	0.885329	0.676596	0.381013
	C153	C	0.114598	0.676169	0.618952
	C154	C	0.885144	0.323393	0.618853
	C155	C	0.115026	0.323362	0.381514
	C156	C	0.884892	0.381768	0.675661
	C157	C	0.114784	0.618043	0.675688
	C158	C	0.884966	0.617701	0.324409
	C159	C	0.115156	0.381085	0.324175
	C160	C	0.382001	0.675410	0.884344
	C161	C	0.618047	0.675914	0.115878
	C162	C	0.618466	0.324781	0.884509
	C163	C	0.381034	0.323431	0.115233
	C164	C	0.676761	0.884769	0.380903
	C165	C	0.676746	0.114904	0.619598
	C166	C	0.323853	0.885286	0.618439
	C167	C	0.323740	0.115262	0.380477
	C168	C	0.882378	0.384125	0.175579
	C169	C	0.117404	0.615408	0.175808
	C170	C	0.118201	0.384576	0.824685
	C171	C	0.882260	0.615802	0.824256
	C172	C	0.176417	0.881050	0.384752
	C173	C	0.175918	0.118392	0.614802
	C174	C	0.823693	0.119238	0.384566
	C175	C	0.823776	0.881325	0.615406
	C176	C	0.384928	0.176969	0.881120
	C177	C	0.615016	0.176498	0.118721
	C178	C	0.385432	0.823497	0.119177
	C179	C	0.614442	0.823513	0.880753
	C180	C	0.385322	0.880998	0.176469
	C181	C	0.615185	0.118571	0.176126
	C182	C	0.384583	0.118706	0.823827
	C183	C	0.614705	0.881744	0.823750
	C184	C	0.881704	0.175965	0.384472
	C185	C	0.117948	0.174832	0.615348
	C186	C	0.118826	0.824032	0.384591
	C187	C	0.881872	0.824619	0.615513
	C188	C	0.176187	0.384851	0.881770
	C189	C	0.175993	0.615287	0.119321
	C190	C	0.823462	0.384702	0.119054
	C191	C	0.823917	0.615670	0.881278
	C192	C	0.399139	0.095483	0.599695
	C193	C	0.600192	0.905074	0.599178
	C194	C	0.599924	0.094656	0.400894
	C195	C	0.400055	0.905259	0.400702
	C196	C	0.599674	0.400578	0.095394
	C197	C	0.599906	0.599518	0.904839
	C198	C	0.400070	0.599573	0.095338
	C199	C	0.399929	0.401036	0.905257
	C200	C	0.094937	0.600535	0.399971
	C201	C	0.905284	0.599830	0.599447
	C202	C	0.094723	0.398746	0.600283
	C203	C	0.905662	0.398989	0.400103
	C204	C	0.899913	0.594593	0.100022
	C205	C	0.100530	0.404975	0.099736
	C206	C	0.100057	0.595015	0.900429
	C207	C	0.899599	0.405336	0.900603
	C208	C	0.100027	0.900394	0.595510
	C209	C	0.099576	0.099506	0.404007
	C210	C	0.900398	0.099638	0.595059
	C211	C	0.900219	0.900685	0.404634
	C212	C	0.594216	0.101037	0.899659
	C213	C	0.406097	0.099416	0.098828
	C214	C	0.594651	0.899922	0.099764
	C215	C	0.405035	0.899850	0.899731
	Zn216	Zn	0.500002	0.000128	0.749513
	Zn217	Zn	0.500160	-0.000134	0.249927
	Zn218	Zn	0.749527	0.500232	0.000133
	Zn219	Zn	0.250348	0.500367	0.000345
	Zn220	Zn	0.000039	0.750732	0.500103
	Zn221	Zn	0.000148	0.249065	0.500319
	Zn222	Zn	-0.000113	0.500067	0.750272
	Zn223	Zn	0.000112	0.499385	0.250204
	Zn224	Zn	0.500118	0.749490	0.000205
	Zn225	Zn	0.499998	0.250717	0.000224
	Zn226	Zn	0.750425	0.000493	0.500243
	Zn227	Zn	0.249563	0.000450	0.499683
	N228	N	0.414942	0.962883	0.677066
	N229	N	0.584248	0.037731	0.676715
	N230	N	0.584869	0.961955	0.322803
	N231	N	0.415584	0.037528	0.322443
	N232	N	0.678438	0.414292	0.962947
	N233	N	0.677602	0.585294	0.037754
	N234	N	0.321552	0.586148	0.962877
	N235	N	0.321738	0.414448	0.037768
	N236	N	0.963231	0.679376	0.413516
	N237	N	0.036918	0.678334	0.585632
	N238	N	0.962844	0.320956	0.585908
	N239	N	0.037262	0.320860	0.414393
	N240	N	0.962493	0.414887	0.677488
	N241	N	0.037334	0.584643	0.677298
	N242	N	0.962488	0.584568	0.322586
	N243	N	0.037478	0.413822	0.322041
	N244	N	0.415361	0.677183	0.962392
	N245	N	0.585028	0.677488	0.037677
	N246	N	0.584702	0.323398	0.962523
	N247	N	0.414501	0.322156	0.037354
	N248	N	0.678859	0.962781	0.414072
	N249	N	0.679277	0.036785	0.586784
	N250	N	0.321359	0.963265	0.585615
	N251	N	0.321586	0.037391	0.413888
	N252	N	0.915633	0.461929	0.177186
	N253	N	0.084310	0.537510	0.177422
	N254	N	0.084836	0.462405	0.822673
	N255	N	0.915226	0.537769	0.822647
	N256	N	0.178172	0.914347	0.462824
	N257	N	0.178185	0.085861	0.536478
	N258	N	0.821930	0.085711	0.462504
	N259	N	0.821559	0.914087	0.537078
	N260	N	0.462631	0.179392	0.913926
	N261	N	0.537361	0.178481	0.085342
	N262	N	0.463001	0.821476	0.085675
	N263	N	0.536711	0.821202	0.913751
	N264	N	0.462939	0.914171	0.178191
	N265	N	0.537938	0.084864	0.177330
	N266	N	0.462327	0.085812	0.821673
	N267	N	0.537044	0.914942	0.821837
	N268	N	0.915009	0.177444	0.462428
	N269	N	0.084487	0.176496	0.537297
	N270	N	0.085554	0.822304	0.462592
	N271	N	0.915439	0.823173	0.537519
	N272	N	0.178549	0.462979	0.914397
	N273	N	0.178544	0.537408	0.086138
	N274	N	0.821004	0.462786	0.086188
	N275	N	0.821484	0.537733	0.914378
