data_Molecule from HDF5

_cell_length_a		16.652325
_cell_length_b		16.434240
_cell_length_c		16.491486
_cell_angle_alpha	90.037906
_cell_angle_beta	89.980159
_cell_angle_gamma	90.083723
_symmetry_space_group_name_H-M	'P 1'
_symmetry_Int_Tables_number		1

loop_
	_symmetry_equiv_pos_as_xyz
	x,y,z

loop_
	_atom_site_label
	_atom_site_type_symbol
	_atom_site_fract_x
	_atom_site_fract_y
	_atom_site_fract_z
	H0	H	0.401727	0.855385	0.718945
	H1	H	0.616763	0.168907	0.714652
	H2	H	0.613560	0.853722	0.274599
	H3	H	0.403351	0.169410	0.269826
	H4	H	0.735300	0.404154	0.838839
	H5	H	0.733915	0.618759	0.149816
	H6	H	0.288042	0.619400	0.837138
	H7	H	0.288062	0.403787	0.151657
	H8	H	0.857354	0.734296	0.390358
	H9	H	0.169377	0.735728	0.601962
	H10	H	0.857438	0.290280	0.599302
	H11	H	0.167487	0.286872	0.384860
	H12	H	0.856880	0.407927	0.715511
	H13	H	0.170066	0.617275	0.716804
	H14	H	0.857736	0.619365	0.271756
	H15	H	0.166938	0.403740	0.269406
	H16	H	0.406320	0.733071	0.836473
	H17	H	0.612955	0.730380	0.151855
	H18	H	0.614564	0.291929	0.837172
	H19	H	0.406283	0.290472	0.152792
	H20	H	0.733369	0.854983	0.386932
	H21	H	0.734727	0.167201	0.599999
	H22	H	0.288862	0.855096	0.601383
	H23	H	0.288089	0.169400	0.384952
	H24	H	0.907878	0.354636	0.215365
	H25	H	0.116451	0.668844	0.215556
	H26	H	0.116923	0.353617	0.773026
	H27	H	0.910054	0.672085	0.775674
	H28	H	0.235520	0.904625	0.339259
	H29	H	0.237087	0.120720	0.650813
	H30	H	0.792811	0.115292	0.337689
	H31	H	0.785526	0.902061	0.649971
	H32	H	0.355181	0.235209	0.887576
	H33	H	0.666730	0.234301	0.098516
	H34	H	0.356814	0.787948	0.101365
	H35	H	0.667235	0.790090	0.888380
	H36	H	0.355747	0.905343	0.217313
	H37	H	0.666945	0.118320	0.215377
	H38	H	0.355139	0.118129	0.770753
	H39	H	0.666250	0.904746	0.770080
	H40	H	0.911823	0.230199	0.337405
	H41	H	0.118402	0.233487	0.652366
	H42	H	0.115945	0.791401	0.338812
	H43	H	0.908287	0.792873	0.653915
	H44	H	0.234751	0.354577	0.886249
	H45	H	0.235607	0.667313	0.102356
	H46	H	0.792621	0.354165	0.097987
	H47	H	0.791475	0.670695	0.889123
	H48	H	0.423776	0.125763	0.587438
	H49	H	0.598661	0.899828	0.579836
	H50	H	0.600380	0.126588	0.400363
	H51	H	0.424641	0.898093	0.398397
	H52	H	0.604959	0.417183	0.111052
	H53	H	0.610097	0.595830	0.879773
	H54	H	0.417608	0.591354	0.104897
	H55	H	0.414422	0.425004	0.881385
	H56	H	0.124956	0.601209	0.404932
	H57	H	0.904282	0.596740	0.584725
	H58	H	0.124970	0.423487	0.584841
	H59	H	0.901388	0.421878	0.406374
	H60	H	0.124723	0.422177	0.583682
	H61	H	0.899479	0.603995	0.591616
	H62	H	0.123049	0.602090	0.408963
	H63	H	0.902206	0.422088	0.408448
	H64	H	0.431050	0.598382	0.102603
	H65	H	0.594739	0.594338	0.884593
	H66	H	0.607064	0.430156	0.106755
	H67	H	0.425994	0.431197	0.885936
	H68	H	0.598666	0.123383	0.409199
	H69	H	0.599634	0.898409	0.582079
	H70	H	0.430040	0.121235	0.579227
	H71	H	0.428510	0.904515	0.411490
	H72	H	0.922536	0.626387	0.086089
	H73	H	0.099719	0.397458	0.085264
	H74	H	0.099044	0.624250	0.905038
	H75	H	0.923152	0.399446	0.905274
	H76	H	0.106438	0.924393	0.610143
	H77	H	0.099090	0.097067	0.384374
	H78	H	0.912473	0.095378	0.609764
	H79	H	0.922084	0.914810	0.379885
	H80	H	0.625088	0.101682	0.895737
	H81	H	0.398884	0.100562	0.084791
	H82	H	0.623459	0.925107	0.088268
	H83	H	0.400194	0.922621	0.905399
	H84	H	0.625911	0.917378	0.086472
	H85	H	0.400238	0.101602	0.079537
	H86	H	0.623254	0.108498	0.909391
	H87	H	0.400757	0.924203	0.908042
	H88	H	0.929768	0.092242	0.603861
	H89	H	0.100529	0.100961	0.382137
	H90	H	0.100629	0.932335	0.605446
	H91	H	0.914993	0.928145	0.381511
	H92	H	0.100455	0.622604	0.910063
	H93	H	0.095260	0.400588	0.080646
	H94	H	0.924646	0.624471	0.081637
	H95	H	0.921797	0.400257	0.905872
	H96	H	0.419421	0.124157	0.577122
	H97	H	0.596982	0.898637	0.581692
	H98	H	0.607730	0.126931	0.406655
	H99	H	0.415340	0.898775	0.409766
	H100	H	0.594902	0.424553	0.104931
	H101	H	0.600111	0.608777	0.878157
	H102	H	0.419644	0.606078	0.109218
	H103	H	0.426412	0.417792	0.881661
	H104	H	0.121729	0.598163	0.406925
	H105	H	0.901607	0.606620	0.581889
	H106	H	0.124253	0.423911	0.583166
	H107	H	0.902884	0.423253	0.406534
	H108	H	0.919945	0.626246	0.081624
	H109	H	0.101635	0.398432	0.078404
	H110	H	0.103965	0.624885	0.906702
	H111	H	0.921325	0.398996	0.904404
	H112	H	0.096214	0.922615	0.606983
	H113	H	0.103156	0.097966	0.382813
	H114	H	0.925332	0.108699	0.610855
	H115	H	0.929181	0.926136	0.386731
	H116	H	0.618211	0.094344	0.907566
	H117	H	0.401569	0.096541	0.082046
	H118	H	0.621906	0.921555	0.080727
	H119	H	0.401163	0.925723	0.905711
	C120	C	0.390333	0.020638	0.615441
	C121	C	0.631946	1.002493	0.614433
	C122	C	0.633281	0.020842	0.372937
	C123	C	0.389830	1.004400	0.372897
	C124	C	0.633508	0.390912	0.003352
	C125	C	0.632966	0.632543	0.984877
	C126	C	0.389586	0.632618	0.002488
	C127	C	0.390194	0.391229	0.986855
	C128	C	0.020801	0.632965	0.374205
	C129	C	1.005173	0.634553	0.617557
	C130	C	0.021818	0.390431	0.616386
	C131	C	1.004528	0.389428	0.373069
	C132	C	0.890447	0.521207	0.115837
	C133	C	0.131949	0.502713	0.114499
	C134	C	0.133315	0.519782	0.873911
	C135	C	0.891123	0.504450	0.873356
	C136	C	0.133521	0.892079	0.503959
	C137	C	0.134484	0.133387	0.485997
	C138	C	0.891735	0.131187	0.503752
	C139	C	0.889499	0.889754	0.486477
	C140	C	0.519637	0.134708	0.871403
	C141	C	0.503068	0.132874	0.114766
	C142	C	0.520476	0.889381	0.116915
	C143	C	0.503164	0.890803	0.873183
	C144	C	0.385174	0.902640	0.677803
	C145	C	0.634986	0.121250	0.674978
	C146	C	0.633242	0.901477	0.313730
	C147	C	0.386220	0.122093	0.310744
	C148	C	0.694149	0.386887	0.885551
	C149	C	0.692906	0.636037	0.103100
	C150	C	0.328442	0.636675	0.884442
	C151	C	0.329118	0.386795	0.104740
	C152	C	0.903878	0.693949	0.371932
	C153	C	0.122563	0.695176	0.619935
	C154	C	0.904092	0.330618	0.617838
	C155	C	0.121038	0.328038	0.368436
	C156	C	0.903947	0.389008	0.675636
	C157	C	0.123142	0.636041	0.676921
	C158	C	0.904185	0.636740	0.312916
	C159	C	0.120694	0.386224	0.310690
	C160	C	0.387512	0.693230	0.883967
	C161	C	0.633077	0.691669	0.104112
	C162	C	0.634236	0.331057	0.884722
	C163	C	0.387971	0.330329	0.105325
	C164	C	0.692633	0.901905	0.369771
	C165	C	0.693560	0.120450	0.617988
	C166	C	0.328717	0.902485	0.619278
	C167	C	0.328683	0.122135	0.368415
	C168	C	0.888988	0.402122	0.175367
	C169	C	0.135035	0.621450	0.175484
	C170	C	0.135120	0.401165	0.813130
	C171	C	0.890600	0.623927	0.814449
	C172	C	0.194231	0.887633	0.386038
	C173	C	0.196182	0.138002	0.603885
	C174	C	0.832789	0.133847	0.384792
	C175	C	0.827363	0.885272	0.603611
	C176	C	0.402165	0.195205	0.869076
	C177	C	0.620224	0.193727	0.116964
	C178	C	0.403352	0.828415	0.119381
	C179	C	0.620216	0.829931	0.870079
	C180	C	0.403044	0.886902	0.177142
	C181	C	0.620204	0.136211	0.175137
	C182	C	0.402228	0.136814	0.811070
	C183	C	0.619824	0.887194	0.811449
	C184	C	0.891899	0.190598	0.384679
	C185	C	0.137263	0.194237	0.604706
	C186	C	0.135140	0.831104	0.385781
	C187	C	0.888486	0.830972	0.605602
	C188	C	0.193941	0.401417	0.869407
	C189	C	0.194076	0.620561	0.119092
	C190	C	0.831474	0.402013	0.117337
	C191	C	0.831828	0.623408	0.871128
	C192	C	0.417003	0.102482	0.588911
	C193	C	0.605958	0.920322	0.588600
	C194	C	0.609253	0.103907	0.398260
	C195	C	0.415479	0.921989	0.399071
	C196	C	0.609159	0.416618	0.085974
	C197	C	0.608444	0.607009	0.902391
	C198	C	0.415358	0.606238	0.084087
	C199	C	0.415335	0.417086	0.904477
	C200	C	0.102114	0.607660	0.399621
	C201	C	0.923063	0.609614	0.593008
	C202	C	0.103445	0.415891	0.591128
	C203	C	0.923286	0.415239	0.399555
	C204	C	0.915313	0.604022	0.090517
	C205	C	0.106158	0.420492	0.088593
	C206	C	0.108295	0.602417	0.899912
	C207	C	0.915217	0.421231	0.898177
	C208	C	0.108370	0.918722	0.586099
	C209	C	0.108395	0.106450	0.404503
	C210	C	0.915624	0.105946	0.586478
	C211	C	0.914881	0.915606	0.404029
	C212	C	0.600995	0.108876	0.896845
	C213	C	0.421482	0.107001	0.089170
	C214	C	0.602425	0.914204	0.092197
	C215	C	0.421806	0.916523	0.899098
	Zn216	Zn	0.511103	0.011352	0.743209
	Zn217	Zn	0.511498	0.012797	0.245153
	Zn218	Zn	0.762126	0.512361	-0.006130
	Zn219	Zn	0.261349	0.510438	-0.005608
	Zn220	Zn	0.013009	0.763472	0.495888
	Zn221	Zn	0.013394	0.260679	0.495049
	Zn222	Zn	0.013056	0.512460	0.745483
	Zn223	Zn	0.012223	0.511360	0.244089
	Zn224	Zn	0.511444	0.760721	-0.006534
	Zn225	Zn	0.510845	0.262847	-0.005151
	Zn226	Zn	0.761358	0.011436	0.494442
	Zn227	Zn	0.262375	0.012943	0.494625
	N228	N	0.423095	0.976877	0.675327
	N229	N	0.597126	0.046953	0.672839
	N230	N	0.597010	0.976510	0.315561
	N231	N	0.423665	0.047642	0.313271
	N232	N	0.693961	0.423315	0.960448
	N233	N	0.693217	0.600295	0.027803
	N234	N	0.329178	0.599883	0.959352
	N235	N	0.330420	0.423923	0.030164
	N236	N	0.977457	0.692045	0.409400
	N237	N	0.048188	0.694509	0.583986
	N238	N	0.978517	0.331193	0.581910
	N239	N	0.047900	0.330181	0.406843
	N240	N	0.978129	0.425523	0.674937
	N241	N	0.049112	0.599191	0.675610
	N242	N	0.977831	0.599578	0.314102
	N243	N	0.047121	0.423774	0.313489
	N244	N	0.424370	0.691323	0.958345
	N245	N	0.596627	0.689750	0.029526
	N246	N	0.597271	0.333333	0.959069
	N247	N	0.424998	0.332822	0.030797
	N248	N	0.692881	0.977227	0.405648
	N249	N	0.691700	0.045564	0.581132
	N250	N	0.331633	0.976914	0.581280
	N251	N	0.330867	0.047752	0.406351
	N252	N	0.924764	0.477411	0.174688
	N253	N	0.097037	0.547296	0.172591
	N254	N	0.098292	0.475862	0.815793
	N255	N	0.926841	0.548879	0.815654
	N256	N	0.193377	0.924805	0.460568
	N257	N	0.194688	0.101135	0.529060
	N258	N	0.832580	0.097622	0.459776
	N259	N	0.827599	0.920610	0.528149
	N260	N	0.476376	0.194453	0.905453
	N261	N	0.546382	0.191695	0.080044
	N262	N	0.477328	0.829678	0.082576
	N263	N	0.546619	0.832039	0.907608
	N264	N	0.477031	0.923939	0.175934
	N265	N	0.546348	0.099115	0.173981
	N266	N	0.476352	0.100178	0.812123
	N267	N	0.545939	0.924294	0.813151
	N268	N	0.927877	0.189128	0.459564
	N269	N	0.099899	0.191729	0.530468
	N270	N	0.098195	0.833922	0.460103
	N271	N	0.926372	0.833625	0.531558
	N272	N	0.193135	0.476355	0.906415
	N273	N	0.192357	0.545772	0.081890
	N274	N	0.831959	0.477305	0.081302
	N275	N	0.831922	0.547953	0.906872
	O276	O	0.843682	0.983361	-0.074223
	H277	H	0.842255	0.989748	-0.078097
	H278	H	0.838292	0.988682	-0.060844
	O279	O	0.200656	-0.167669	1.177064
	H280	H	0.195617	-0.151087	1.158430
	H281	H	0.190474	-0.170299	1.175210
	O282	O	0.704806	0.700996	0.687961
	H283	H	0.685885	0.715592	0.699552
	H284	H	0.707358	0.698997	0.655892
	O285	O	0.568330	0.689924	0.478638
	H286	H	0.558716	0.695116	0.468582
	H287	H	0.564295	0.671755	0.471952
	O288	O	1.025004	0.164944	0.957492
	H289	H	1.021763	0.160918	0.938056
	H290	H	1.043110	0.166669	0.945549
	O291	O	0.452395	0.622727	0.631683
	H292	H	0.450535	0.609973	0.636803
	H293	H	0.471487	0.624165	0.611323
	O294	O	0.232188	0.226548	0.018916
	H295	H	0.252082	0.255297	0.033558
	H296	H	0.223149	0.224746	0.056297
	O297	O	0.669495	-0.300354	0.340905
	H298	H	0.658347	-0.309215	0.340002
	H299	H	0.664557	-0.301621	0.348442
	O300	O	0.235575	0.068711	-0.064852
	H301	H	0.235393	0.079550	-0.057917
	H302	H	0.231478	0.079030	-0.038080
	O303	O	0.222918	-0.010046	-0.215991
	H304	H	0.238728	0.007818	-0.198822
	H305	H	0.218611	0.003128	-0.231536
	O306	O	0.980616	0.216315	0.104003
	H307	H	0.979611	0.214416	0.093988
	H308	H	0.972531	0.222258	0.094970
	O309	O	0.538081	0.727476	0.709429
	H310	H	0.520467	0.733698	0.698551
	H311	H	0.553107	0.749573	0.729420
	O312	O	0.428390	0.405845	0.340359
	H313	H	0.435956	0.417415	0.329917
	H314	H	0.448305	0.394703	0.336153
	O315	O	0.300888	0.723689	0.383506
	H316	H	0.282395	0.734048	0.398638
	H317	H	0.293303	0.728796	0.377154
	O318	O	0.808031	0.981300	-0.210893
	H319	H	0.805225	0.984748	-0.190197
	H320	H	0.795606	1.009180	-0.217807
	O321	O	0.518669	0.361086	0.494516
	H322	H	0.515458	0.358720	0.509192
	H323	H	0.507618	0.346869	0.510131
	O324	O	1.041563	-0.202711	0.779441
	H325	H	1.042001	-0.224499	0.745326
	H326	H	1.040369	-0.178394	0.783659
	O327	O	0.300800	0.630740	0.288798
	H328	H	0.312375	0.610027	0.286520
	H329	H	0.283532	0.638909	0.291075
	O330	O	-0.086783	1.078509	0.029570
	H331	H	-0.092447	1.086688	0.023552
	H332	H	-0.083239	1.077376	0.027645
	O333	O	0.565409	0.565393	0.461666
	H334	H	0.566810	0.549150	0.459890
	H335	H	0.557823	0.557372	0.459118
	O336	O	0.318768	0.319722	0.685415
	H337	H	0.308470	0.352260	0.670214
	H338	H	0.333048	0.311446	0.654090
	O339	O	0.513751	0.300989	0.341192
	H340	H	0.521421	0.299523	0.330483
	H341	H	0.520898	0.294474	0.339662
	O342	O	0.040658	0.818161	0.002044
	H343	H	0.045995	0.812274	0.001747
	H344	H	0.033498	0.817592	-0.008521
	O345	O	1.129046	0.944829	0.038118
	H346	H	1.128317	0.947081	0.020018
	H347	H	1.125901	0.937296	0.035063
	O348	O	0.694716	0.552723	0.407790
	H349	H	0.698012	0.554027	0.411619
	H350	H	0.690340	0.566347	0.406220
	O351	O	-0.080849	0.021843	1.140625
	H352	H	-0.084534	0.005565	1.147243
	H353	H	-0.081452	0.018273	1.136656
	O354	O	0.804634	-0.193419	1.054868
	H355	H	0.794665	-0.217751	1.060109
	H356	H	0.808371	-0.177395	1.055373
	O357	O	0.614617	0.435768	0.677166
	H358	H	0.632447	0.447885	0.678242
	H359	H	0.613184	0.439389	0.679434
	O360	O	0.121605	0.164260	0.844591
	H361	H	0.128553	0.159735	0.855851
	H362	H	0.130916	0.173671	0.831268
	O363	O	0.441257	0.470885	0.407610
	H364	H	0.443888	0.462572	0.402944
	H365	H	0.438853	0.480034	0.414008
	O366	O	1.047054	0.047973	0.789089
	H367	H	1.054120	0.053452	0.796847
	H368	H	1.043618	0.051865	0.796275
	O369	O	-0.190185	0.161874	0.789291
	H370	H	-0.210438	0.190922	0.763738
	H371	H	-0.195668	0.163106	0.826225
	O372	O	-0.208834	1.244857	1.214729
	H373	H	-0.209357	1.246710	1.231402
	H374	H	-0.211170	1.244548	1.205805
	O375	O	1.036306	0.009772	0.039494
	H376	H	1.037745	0.012271	0.038518
	H377	H	1.027653	0.000424	0.032408
	O378	O	0.299023	0.487178	0.708434
	H379	H	0.300300	0.479325	0.705765
	H380	H	0.298444	0.490571	0.730685
	O381	O	-0.203355	1.203610	-0.032403
	H382	H	-0.198161	1.198586	-0.026664
	H383	H	-0.213916	1.215562	-0.016503
	O384	O	0.347933	0.487760	0.287704
	H385	H	0.337772	0.481855	0.287444
	H386	H	0.370376	0.474396	0.285936
	O387	O	0.291962	0.299925	0.520731
	H388	H	0.291532	0.295308	0.498987
	H389	H	0.271946	0.291553	0.510409
	O390	O	0.070363	0.929176	1.192610
	H391	H	0.052108	0.931997	1.195518
	H392	H	0.092627	0.935127	1.204359
	O393	O	0.920982	0.187248	0.182585
	H394	H	0.924833	0.168180	0.177240
	H395	H	0.906182	0.203032	0.200733
	O396	O	0.194535	0.202997	0.178289
	H397	H	0.145798	0.209280	0.185005
	H398	H	0.202129	0.159961	0.189369
	O399	O	0.236567	0.790296	0.969067
	H400	H	0.250383	0.763529	0.960814
	H401	H	0.235696	0.783756	0.940697
	O402	O	0.979053	0.222315	0.778111
	H403	H	0.955329	0.208911	0.785218
	H404	H	0.984940	0.247918	0.752467
	O405	O	0.729544	0.535322	0.715129
	H406	H	0.718515	0.570318	0.701427
	H407	H	0.757745	0.540402	0.742327
	O408	O	1.222320	1.037920	1.204553
	H409	H	1.243576	1.035409	1.225549
	H410	H	1.228518	1.017049	1.171874
	O411	O	0.661020	0.354120	0.341228
	H412	H	0.667773	0.361387	0.332983
	H413	H	0.673314	0.364491	0.365219
	O414	O	0.038024	-0.098465	0.124482
	H415	H	0.040570	-0.109346	0.121091
	H416	H	0.044831	-0.105566	0.128310
	O417	O	0.377088	0.687436	0.559466
	H418	H	0.387702	0.676617	0.560465
	H419	H	0.368738	0.684420	0.561526
	O420	O	0.885009	-0.150361	0.947482
	H421	H	0.887723	-0.154648	0.961806
	H422	H	0.889312	-0.147515	0.940155
	O423	O	0.999360	0.798308	0.141701
	H424	H	0.995208	0.794768	0.143115
	H425	H	0.996055	0.792073	0.137076
	O426	O	0.446080	0.594225	0.527396
	H427	H	0.438683	0.589402	0.531176
	H428	H	0.449544	0.586341	0.535945
	O429	O	0.484394	0.727869	0.280172
	H430	H	0.468375	0.744200	0.255937
	H431	H	0.452221	0.730619	0.274320
	O432	O	0.935209	-0.081959	0.788036
	H433	H	0.899508	-0.070144	0.786664
	H434	H	0.958845	-0.076016	0.790264
	O435	O	0.602624	0.408102	0.525791
	H436	H	0.586792	0.401497	0.516938
	H437	H	0.599109	0.418235	0.538103
	O438	O	0.730112	0.487725	0.278118
	H439	H	0.737224	0.499836	0.279208
	H440	H	0.738676	0.487862	0.263310
	O441	O	0.453149	0.553143	0.625588
	H442	H	0.449160	0.541241	0.633669
	H443	H	0.452800	0.588559	0.622458
	O444	O	0.526468	0.548475	0.286746
	H445	H	0.530910	0.550012	0.291737
	H446	H	0.522684	0.558432	0.284555
	O447	O	0.737278	0.290273	0.718088
	H448	H	0.730171	0.305706	0.692303
	H449	H	0.736997	0.304102	0.715545
	O450	O	0.720120	0.304690	0.471244
	H451	H	0.722760	0.325869	0.478481
	H452	H	0.723192	0.286988	0.476946
	O453	O	0.371186	0.383787	0.458704
	H454	H	0.374912	0.393421	0.430621
	H455	H	0.385876	0.390431	0.474489
	O456	O	-0.202105	0.977405	1.168492
	H457	H	-0.199558	0.957011	1.172106
	H458	H	-0.209789	0.977479	1.172399
	O459	O	0.286407	0.561850	0.540900
	H460	H	0.295292	0.557308	0.543829
	H461	H	0.276628	0.557802	0.543414
	O462	O	0.732989	0.728218	0.518421
	H463	H	0.742117	0.752321	0.519147
	H464	H	0.713903	0.741144	0.525396
	O465	O	0.721310	0.431966	0.583799
	H466	H	0.720503	0.441230	0.561011
	H467	H	0.720381	0.452910	0.593272
	O468	O	-0.206222	0.791779	0.217544
	H469	H	-0.217493	0.791598	0.223995
	H470	H	-0.189426	0.783497	0.202567
	O471	O	0.198296	-0.170464	0.812681
	H472	H	0.163338	-0.178415	0.821808
	H473	H	0.208432	-0.117346	0.801548
	O474	O	0.966819	1.126083	0.087256
	H475	H	0.965612	1.119580	0.075373
	H476	H	0.972099	1.128307	0.077728
	O477	O	0.478341	0.293337	0.718011
	H478	H	0.455392	0.315915	0.714468
	H479	H	0.477395	0.258096	0.757711
