data_Molecule from HDF5

_cell_length_a		16.120997
_cell_length_b		16.360558
_cell_length_c		16.155110
_cell_angle_alpha	89.975053
_cell_angle_beta	89.613597
_cell_angle_gamma	90.325329
_symmetry_space_group_name_H-M	'P 1'
_symmetry_Int_Tables_number		1

loop_
	_symmetry_equiv_pos_as_xyz
	x,y,z

loop_
	_atom_site_label
	_atom_site_type_symbol
	_atom_site_fract_x
	_atom_site_fract_y
	_atom_site_fract_z
	H0	H	0.393215	0.841640	0.719204
	H1	H	0.594487	0.167087	0.714287
	H2	H	0.594478	0.840391	0.285046
	H3	H	0.398366	0.166816	0.287071
	H4	H	0.709159	0.409952	0.835425
	H5	H	0.711003	0.600886	0.166888
	H6	H	0.289220	0.599369	0.835138
	H7	H	0.284004	0.406422	0.166357
	H8	H	0.833198	0.716630	0.399688
	H9	H	0.159991	0.720808	0.602531
	H10	H	0.833130	0.286988	0.603129
	H11	H	0.162084	0.287554	0.399434
	H12	H	0.832628	0.404108	0.715706
	H13	H	0.163502	0.599930	0.709976
	H14	H	0.832737	0.598297	0.289223
	H15	H	0.163347	0.405794	0.287708
	H16	H	0.399247	0.719035	0.837637
	H17	H	0.599585	0.720981	0.165666
	H18	H	0.602030	0.288197	0.837747
	H19	H	0.396505	0.288244	0.165332
	H20	H	0.709967	0.838959	0.401604
	H21	H	0.712748	0.165386	0.599125
	H22	H	0.280082	0.840093	0.600920
	H23	H	0.283124	0.166639	0.404458
	H24	H	0.895951	0.340250	0.218095
	H25	H	0.098971	0.666102	0.216851
	H26	H	0.096953	0.339279	0.785989
	H27	H	0.902480	0.665682	0.787177
	H28	H	0.210375	0.907081	0.337071
	H29	H	0.206699	0.098688	0.667845
	H30	H	0.785736	0.099008	0.335830
	H31	H	0.782707	0.905296	0.666670
	H32	H	0.333321	0.219297	0.902379
	H33	H	0.662576	0.219233	0.099877
	H34	H	0.333818	0.786945	0.104133
	H35	H	0.662462	0.792360	0.900544
	H36	H	0.330848	0.907168	0.212862
	H37	H	0.662806	0.102572	0.213535
	H38	H	0.330579	0.100009	0.792288
	H39	H	0.661257	0.908655	0.787288
	H40	H	0.897508	0.218667	0.337915
	H41	H	0.096985	0.218686	0.665528
	H42	H	0.098971	0.787728	0.338372
	H43	H	0.893613	0.786233	0.665580
	H44	H	0.212562	0.339806	0.902516
	H45	H	0.212885	0.667256	0.097347
	H46	H	0.780781	0.340595	0.101041
	H47	H	0.786264	0.666179	0.902697
	H48	H	0.401403	0.119227	0.593910
	H49	H	0.596716	0.883984	0.595663
	H50	H	0.579935	0.114761	0.412353
	H51	H	0.399339	0.886443	0.409473
	H52	H	0.585286	0.414798	0.116410
	H53	H	0.588811	0.604243	0.883491
	H54	H	0.399086	0.596775	0.121694
	H55	H	0.393771	0.411195	0.879170
	H56	H	0.114885	0.602026	0.417125
	H57	H	0.881230	0.584378	0.595777
	H58	H	0.116031	0.411664	0.593646
	H59	H	0.878709	0.402050	0.414366
	H60	H	0.117350	0.406336	0.594047
	H61	H	0.874786	0.599618	0.602744
	H62	H	0.113126	0.586925	0.410673
	H63	H	0.882882	0.414627	0.414547
	H64	H	0.408650	0.589631	0.116722
	H65	H	0.598234	0.599634	0.880846
	H66	H	0.586010	0.405640	0.120760
	H67	H	0.413616	0.420339	0.888840
	H68	H	0.600842	0.119588	0.414641
	H69	H	0.583272	0.885507	0.603432
	H70	H	0.399597	0.121764	0.598463
	H71	H	0.403662	0.886673	0.404655
	H72	H	0.904131	0.620057	0.095540
	H73	H	0.092876	0.388051	0.087446
	H74	H	0.093500	0.619503	0.904361
	H75	H	0.901921	0.382631	0.895134
	H76	H	0.085948	0.910272	0.619299
	H77	H	0.093679	0.099574	0.381299
	H78	H	0.907044	0.098412	0.619116
	H79	H	0.905281	0.905034	0.382870
	H80	H	0.613151	0.096776	0.914145
	H81	H	0.378276	0.099304	0.094431
	H82	H	0.612720	0.921016	0.091475
	H83	H	0.379870	0.907604	0.917526
	H84	H	0.619127	0.909468	0.101803
	H85	H	0.380191	0.096703	0.092969
	H86	H	0.615759	0.092186	0.902345
	H87	H	0.379707	0.914927	0.909097
	H88	H	0.899182	0.096881	0.620877
	H89	H	0.090492	0.090965	0.385362
	H90	H	0.085784	0.908234	0.620238
	H91	H	0.901611	0.908977	0.383196
	H92	H	0.095653	0.619442	0.904859
	H93	H	0.094156	0.384914	0.098354
	H94	H	0.907137	0.618627	0.096122
	H95	H	0.915111	0.390755	0.911651
	H96	H	0.404704	0.119554	0.597893
	H97	H	0.583669	0.890095	0.587876
	H98	H	0.591607	0.122412	0.396064
	H99	H	0.405942	0.888281	0.410765
	H100	H	0.594634	0.411737	0.120500
	H101	H	0.589888	0.593657	0.886154
	H102	H	0.411152	0.601968	0.118936
	H103	H	0.413828	0.398031	0.881331
	H104	H	0.119392	0.599739	0.400503
	H105	H	0.880307	0.598799	0.584966
	H106	H	0.115017	0.409038	0.588688
	H107	H	0.878036	0.409635	0.403371
	H108	H	0.906282	0.617921	0.093734
	H109	H	0.083535	0.389230	0.095359
	H110	H	0.094661	0.620478	0.902523
	H111	H	0.893277	0.385212	0.916029
	H112	H	0.088427	0.908897	0.621172
	H113	H	0.084106	0.098281	0.385323
	H114	H	0.904541	0.092126	0.617944
	H115	H	0.906630	0.909344	0.384017
	H116	H	0.617975	0.104503	0.905505
	H117	H	0.379214	0.096973	0.095596
	H118	H	0.615067	0.905228	0.086293
	H119	H	0.375845	0.904001	0.907881
	C120	C	0.372892	0.012295	0.624917
	C121	C	0.616940	0.994722	0.623347
	C122	C	0.618979	0.011186	0.378843
	C123	C	0.374659	0.995128	0.380118
	C124	C	0.618757	0.382616	0.010079
	C125	C	0.620765	0.626711	0.992706
	C126	C	0.378146	0.624634	0.010298
	C127	C	0.377054	0.381565	0.992221
	C128	C	0.006502	0.623681	0.380666
	C129	C	0.988138	0.623488	0.621894
	C130	C	0.006968	0.380748	0.622460
	C131	C	0.989010	0.380818	0.380475
	C132	C	0.875518	0.511367	0.124251
	C133	C	0.119859	0.495262	0.122658
	C134	C	0.121922	0.511278	0.877028
	C135	C	0.876589	0.494248	0.879246
	C136	C	0.117320	0.881291	0.511330
	C137	C	0.117800	0.124378	0.492932
	C138	C	0.875672	0.124009	0.510106
	C139	C	0.874463	0.879788	0.492367
	C140	C	0.506098	0.125772	0.880204
	C141	C	0.488748	0.125993	0.122548
	C142	C	0.505959	0.882922	0.122524
	C143	C	0.487717	0.882274	0.881319
	C144	C	0.374299	0.889756	0.680216
	C145	C	0.615229	0.118040	0.677245
	C146	C	0.615334	0.888814	0.323030
	C147	C	0.378065	0.118000	0.325031
	C148	C	0.672962	0.387531	0.885316
	C149	C	0.674251	0.622583	0.117487
	C150	C	0.325115	0.620974	0.885097
	C151	C	0.321244	0.384919	0.116770
	C152	C	0.882598	0.678501	0.381025
	C153	C	0.111562	0.681057	0.620824
	C154	C	0.882307	0.325061	0.622335
	C155	C	0.112882	0.325486	0.380381
	C156	C	0.881999	0.383117	0.678232
	C157	C	0.113418	0.620936	0.674256
	C158	C	0.882101	0.619513	0.326221
	C159	C	0.113592	0.384537	0.324993
	C160	C	0.380110	0.680422	0.886339
	C161	C	0.618921	0.682081	0.116833
	C162	C	0.619372	0.327266	0.886540
	C163	C	0.377457	0.326467	0.116311
	C164	C	0.672820	0.888094	0.381031
	C165	C	0.673730	0.117235	0.619694
	C166	C	0.317421	0.889349	0.621820
	C167	C	0.320864	0.118064	0.383869
	C168	C	0.876519	0.388858	0.179685
	C169	C	0.118516	0.617710	0.178211
	C170	C	0.118007	0.388235	0.823254
	C171	C	0.881221	0.617208	0.824867
	C172	C	0.172984	0.885396	0.386703
	C173	C	0.170860	0.120561	0.617957
	C174	C	0.822097	0.120307	0.385572
	C175	C	0.819135	0.883354	0.616972
	C176	C	0.381987	0.180664	0.883097
	C177	C	0.613205	0.181274	0.120237
	C178	C	0.382549	0.825815	0.122747
	C179	C	0.612755	0.829242	0.881335
	C180	C	0.381009	0.885786	0.176789
	C181	C	0.613270	0.123403	0.176776
	C182	C	0.380486	0.121629	0.828148
	C183	C	0.612313	0.887012	0.825084
	C184	C	0.877704	0.179754	0.386496
	C185	C	0.116203	0.179938	0.616934
	C186	C	0.117550	0.826228	0.387276
	C187	C	0.874467	0.824315	0.616279
	C188	C	0.175553	0.388463	0.881349
	C189	C	0.175212	0.618245	0.118800
	C190	C	0.819073	0.389084	0.121548
	C191	C	0.823350	0.617206	0.882346
	C192	C	0.395334	0.098114	0.603225
	C193	C	0.594399	0.908946	0.601985
	C194	C	0.597363	0.096786	0.401200
	C195	C	0.396606	0.909270	0.401836
	C196	C	0.595555	0.404218	0.096811
	C197	C	0.598802	0.605658	0.905904
	C198	C	0.399872	0.602784	0.096760
	C199	C	0.400276	0.403305	0.905646
	C200	C	0.093371	0.602490	0.402971
	C201	C	0.901339	0.600982	0.600705
	C202	C	0.093461	0.402590	0.599169
	C203	C	0.902207	0.402445	0.403832
	C204	C	0.899144	0.596949	0.101815
	C205	C	0.096906	0.409420	0.100367
	C206	C	0.100816	0.597544	0.897755
	C207	C	0.897360	0.408300	0.900987
	C208	C	0.093656	0.902892	0.597749
	C209	C	0.096142	0.102622	0.406436
	C210	C	0.897403	0.102430	0.596930
	C211	C	0.897733	0.901498	0.405817
	C212	C	0.593041	0.104286	0.901291
	C213	C	0.401711	0.104013	0.100785
	C214	C	0.593263	0.905409	0.099821
	C215	C	0.400937	0.902839	0.904500
	Zn216	Zn	0.495266	0.003648	0.753484
	Zn217	Zn	0.496569	0.004123	0.249976
	Zn218	Zn	0.747007	0.503438	0.001464
	Zn219	Zn	0.249977	0.503675	0.000829
	Zn220	Zn	-0.003713	0.751985	0.501708
	Zn221	Zn	-0.002400	0.252709	0.502162
	Zn222	Zn	-0.001821	0.502366	0.749181
	Zn223	Zn	-0.002108	0.502510	0.252652
	Zn224	Zn	0.498052	0.754252	0.001962
	Zn225	Zn	0.498444	0.253653	0.001001
	Zn226	Zn	0.747503	0.001915	0.501101
	Zn227	Zn	0.245286	0.003399	0.502403
	N228	N	0.408157	0.967248	0.682341
	N229	N	0.580465	0.041041	0.679264
	N230	N	0.582737	0.966360	0.321364
	N231	N	0.410571	0.040360	0.322602
	N232	N	0.672563	0.421460	0.963188
	N233	N	0.675781	0.589276	0.039438
	N234	N	0.323901	0.586683	0.962847
	N235	N	0.320733	0.418432	0.038739
	N236	N	0.960871	0.681084	0.414258
	N237	N	0.032745	0.682722	0.588983
	N238	N	0.960753	0.323531	0.588197
	N239	N	0.034285	0.323183	0.414378
	N240	N	0.960312	0.417003	0.678567
	N241	N	0.035652	0.585663	0.675150
	N242	N	0.960319	0.586209	0.325638
	N243	N	0.035519	0.417986	0.324674
	N244	N	0.412280	0.682727	0.965059
	N245	N	0.586373	0.684902	0.038136
	N246	N	0.586298	0.324068	0.965219
	N247	N	0.411382	0.324283	0.037844
	N248	N	0.675315	0.965334	0.414850
	N249	N	0.675125	0.039539	0.587013
	N250	N	0.316834	0.966432	0.587976
	N251	N	0.318645	0.040675	0.417136
	N252	N	0.911049	0.466180	0.181372
	N253	N	0.084621	0.540323	0.180437
	N254	N	0.085668	0.465789	0.820159
	N255	N	0.913416	0.539633	0.822697
	N256	N	0.172906	0.918869	0.464667
	N257	N	0.171832	0.086797	0.540030
	N258	N	0.821010	0.086076	0.463481
	N259	N	0.818960	0.917114	0.538993
	N260	N	0.461167	0.183349	0.914411
	N261	N	0.534798	0.182935	0.087464
	N262	N	0.461534	0.824154	0.089774
	N263	N	0.534458	0.826173	0.915620
	N264	N	0.458824	0.920477	0.176746
	N265	N	0.534804	0.089717	0.178498
	N266	N	0.458464	0.088085	0.826090
	N267	N	0.533651	0.919327	0.824918
	N268	N	0.910125	0.182188	0.464996
	N269	N	0.083998	0.182725	0.538235
	N270	N	0.083524	0.823556	0.465679
	N271	N	0.908142	0.821801	0.537837
	N272	N	0.178220	0.466203	0.913955
	N273	N	0.176130	0.540956	0.085057
	N274	N	0.818314	0.466250	0.087952
	N275	N	0.820372	0.539817	0.915523
	O276	O	0.525795	0.452923	0.565765
	H277	H	0.527379	0.456250	0.575307
	H278	H	0.523396	0.448541	0.571615
	O279	O	0.571896	0.438562	0.460742
	H280	H	0.577491	0.436731	0.458816
	H281	H	0.579233	0.441297	0.446677
	O282	O	0.510628	0.525272	0.629182
	H283	H	0.506929	0.516678	0.626171
	H284	H	0.502066	0.524773	0.637507
	O285	O	-0.005394	0.974946	1.135949
	H286	H	-0.015448	0.971145	1.133005
	H287	H	-0.007321	0.970431	1.152090
	O288	O	0.533919	0.520635	0.443798
	H289	H	0.544185	0.516597	0.446252
	H290	H	0.531819	0.511791	0.444252
	O291	O	0.019718	-0.020852	1.058244
	H292	H	0.022184	-0.019060	1.069559
	H293	H	0.028833	-0.016370	1.062200
	O294	O	0.512066	0.509432	0.471754
	H295	H	0.515879	0.509898	0.464697
	H296	H	0.520612	0.515134	0.479824
	O297	O	0.401140	0.447238	0.537100
	H298	H	0.407298	0.443769	0.538432
	H299	H	0.403280	0.440189	0.531333
	O300	O	0.513777	0.474376	0.568031
	H301	H	0.520768	0.473247	0.574568
	H302	H	0.516693	0.461785	0.579079
	O303	O	0.485556	0.510676	0.483424
	H304	H	0.471736	0.514409	0.483329
	H305	H	0.484758	0.517848	0.483738
	O306	O	0.965528	-0.061080	1.073815
	H307	H	0.975024	-0.057445	1.075591
	H308	H	0.965805	-0.056786	1.069319
	O309	O	0.506419	0.534099	0.569286
	H310	H	0.493792	0.534080	0.568410
	H311	H	0.508964	0.537453	0.567363
	O312	O	0.502949	0.507999	0.444837
	H313	H	0.498556	0.501730	0.451746
	H314	H	0.502557	0.509271	0.447921
	O315	O	0.970052	-0.050456	1.142429
	H316	H	0.966516	-0.056995	1.135922
	H317	H	0.965564	-0.052906	1.149977
	O318	O	-0.488169	-0.420853	-0.586569
	H319	H	-0.485918	-0.428657	-0.596868
	H320	H	-0.488002	-0.418966	-0.587205
	O321	O	0.535485	0.505897	0.486868
	H322	H	0.532333	0.501774	0.488754
	H323	H	0.534748	0.513971	0.498036
	O324	O	0.927505	-0.028172	0.109633
	H325	H	0.925222	-0.026005	0.109831
	H326	H	0.921191	-0.037351	0.105449
	O327	O	1.485018	1.445774	-0.439588
	H328	H	1.485322	1.439668	-0.445955
	H329	H	1.486041	1.446673	-0.448849
	O330	O	0.504844	0.511008	0.408112
	H331	H	0.510178	0.514683	0.401892
	H332	H	0.499688	0.513358	0.416502
	O333	O	0.483092	0.612690	0.469833
	H334	H	0.484344	0.618554	0.465472
	H335	H	0.480062	0.619612	0.466444
