data_Molecule from HDF5

_cell_length_a		16.492529
_cell_length_b		16.007322
_cell_length_c		16.049230
_cell_angle_alpha	89.905037
_cell_angle_beta	90.596352
_cell_angle_gamma	91.101398
_symmetry_space_group_name_H-M	'P 1'
_symmetry_Int_Tables_number		1

loop_
	_symmetry_equiv_pos_as_xyz
	x,y,z

loop_
	_atom_site_label
	_atom_site_type_symbol
	_atom_site_fract_x
	_atom_site_fract_y
	_atom_site_fract_z
	H0	H	0.398980	0.834267	0.705629
	H1	H	0.596210	0.168599	0.705564
	H2	H	0.586288	0.833190	0.287670
	H3	H	0.402318	0.167939	0.282503
	H4	H	0.708047	0.397319	0.833362
	H5	H	0.718038	0.607351	0.159613
	H6	H	0.275710	0.604828	0.833945
	H7	H	0.279059	0.396037	0.161701
	H8	H	0.831651	0.711337	0.396557
	H9	H	0.157907	0.720927	0.596591
	H10	H	0.834940	0.280469	0.593941
	H11	H	0.160057	0.290989	0.400467
	H12	H	0.833217	0.398253	0.710018
	H13	H	0.156906	0.604722	0.715915
	H14	H	0.834464	0.597574	0.276847
	H15	H	0.158838	0.406634	0.282320
	H16	H	0.399728	0.708678	0.828793
	H17	H	0.594237	0.712687	0.163848
	H18	H	0.582733	0.297539	0.828244
	H19	H	0.398569	0.286725	0.162619
	H20	H	0.706001	0.835224	0.395752
	H21	H	0.719574	0.163197	0.603288
	H22	H	0.274950	0.838118	0.600593
	H23	H	0.281072	0.166099	0.389764
	H24	H	0.899411	0.333106	0.205164
	H25	H	0.095296	0.668327	0.207470
	H26	H	0.086581	0.333605	0.787889
	H27	H	0.901377	0.667709	0.783559
	H28	H	0.208085	0.900038	0.331789
	H29	H	0.218591	0.108829	0.658932
	H30	H	0.778012	0.102006	0.333259
	H31	H	0.778660	0.894304	0.661474
	H32	H	0.332472	0.210498	0.897506
	H33	H	0.657870	0.220130	0.095774
	H34	H	0.333746	0.781318	0.092787
	H35	H	0.659622	0.790122	0.901277
	H36	H	0.332944	0.898661	0.209842
	H37	H	0.658060	0.102325	0.213010
	H38	H	0.334545	0.097035	0.777365
	H39	H	0.659348	0.907415	0.783787
	H40	H	0.902137	0.208818	0.329236
	H41	H	0.097108	0.213767	0.662891
	H42	H	0.084616	0.794781	0.328799
	H43	H	0.899080	0.786890	0.662632
	H44	H	0.206759	0.336212	0.895294
	H45	H	0.217986	0.664859	0.103519
	H46	H	0.776271	0.336473	0.098896
	H47	H	0.780434	0.665788	0.891597
	H48	H	0.404610	0.121902	0.589776
	H49	H	0.577234	0.885803	0.582052
	H50	H	0.586508	0.118536	0.407598
	H51	H	0.396549	0.883212	0.408725
	H52	H	0.592934	0.413084	0.117055
	H53	H	0.584242	0.590415	0.880331
	H54	H	0.400244	0.596357	0.118618
	H55	H	0.397628	0.412574	0.879224
	H56	H	0.113373	0.600306	0.395463
	H57	H	0.882093	0.586345	0.590314
	H58	H	0.113609	0.402247	0.592388
	H59	H	0.878650	0.402194	0.392436
	H60	H	0.107945	0.414564	0.586402
	H61	H	0.878716	0.595068	0.592470
	H62	H	0.110951	0.605918	0.408696
	H63	H	0.879980	0.397337	0.405710
	H64	H	0.400875	0.581213	0.114164
	H65	H	0.588952	0.600674	0.875924
	H66	H	0.586256	0.416493	0.113697
	H67	H	0.398283	0.405015	0.876934
	H68	H	0.594918	0.119756	0.411186
	H69	H	0.598997	0.879316	0.583285
	H70	H	0.410613	0.119311	0.584822
	H71	H	0.395329	0.880928	0.402360
	H72	H	0.907403	0.617683	0.077716
	H73	H	0.083686	0.381631	0.093805
	H74	H	0.089753	0.620631	0.905762
	H75	H	0.899780	0.380702	0.899814
	H76	H	0.084281	0.914255	0.613290
	H77	H	0.085177	0.095759	0.378416
	H78	H	0.906319	0.102307	0.619282
	H79	H	0.893410	0.902690	0.374427
	H80	H	0.614064	0.103470	0.897528
	H81	H	0.381567	0.088403	0.087618
	H82	H	0.612385	0.901978	0.089352
	H83	H	0.385277	0.910480	0.908354
	H84	H	0.608477	0.915283	0.088457
	H85	H	0.379310	0.091837	0.091928
	H86	H	0.611558	0.103725	0.906923
	H87	H	0.379372	0.908054	0.890334
	H88	H	0.894310	0.082585	0.617349
	H89	H	0.093438	0.099995	0.374202
	H90	H	0.089083	0.909777	0.615911
	H91	H	0.893532	0.915345	0.378917
	H92	H	0.087438	0.618926	0.909486
	H93	H	0.085709	0.383974	0.083177
	H94	H	0.896168	0.622687	0.087326
	H95	H	0.899192	0.384295	0.910655
	H96	H	0.403016	0.119779	0.580532
	H97	H	0.586500	0.877187	0.601812
	H98	H	0.593148	0.121232	0.402266
	H99	H	0.401640	0.882636	0.405086
	H100	H	0.586351	0.408249	0.116473
	H101	H	0.595848	0.590681	0.876626
	H102	H	0.413280	0.590827	0.112085
	H103	H	0.391704	0.409053	0.875787
	H104	H	0.108210	0.591596	0.405781
	H105	H	0.881708	0.594070	0.584194
	H106	H	0.112391	0.414423	0.600695
	H107	H	0.883012	0.411406	0.403076
	H108	H	0.910946	0.620830	0.093766
	H109	H	0.092598	0.379950	0.089600
	H110	H	0.091228	0.619759	0.909904
	H111	H	0.890999	0.379813	0.905590
	H112	H	0.091226	0.917357	0.614727
	H113	H	0.093244	0.089683	0.377192
	H114	H	0.916214	0.083659	0.611003
	H115	H	0.904086	0.906696	0.379166
	H116	H	0.611293	0.095823	0.901387
	H117	H	0.380410	0.094025	0.086181
	H118	H	0.613627	0.909862	0.101103
	H119	H	0.378710	0.893960	0.902603
	C120	C	0.375720	0.010867	0.615351
	C121	C	0.618174	0.990812	0.618094
	C122	C	0.616402	0.009364	0.377613
	C123	C	0.372540	0.992458	0.374750
	C124	C	0.613985	0.383237	0.005942
	C125	C	0.619280	0.623608	0.987223
	C126	C	0.375121	0.619675	0.005642
	C127	C	0.370374	0.378702	0.987488
	C128	C	0.003671	0.624829	0.373495
	C129	C	0.987447	0.623737	0.619561
	C130	C	0.004660	0.378515	0.620170
	C131	C	0.988219	0.378345	0.373633
	C132	C	0.875021	0.510028	0.115823
	C133	C	0.117760	0.491783	0.118654
	C134	C	0.114993	0.509746	0.878794
	C135	C	0.871309	0.491640	0.874952
	C136	C	0.114449	0.883673	0.505025
	C137	C	0.120000	0.124240	0.486403
	C138	C	0.876383	0.118871	0.505817
	C139	C	0.870758	0.878094	0.487526
	C140	C	0.504623	0.125325	0.872659
	C141	C	0.487458	0.123190	0.118404
	C142	C	0.504217	0.877575	0.120041
	C143	C	0.488563	0.878240	0.873511
	C144	C	0.377222	0.884875	0.670032
	C145	C	0.616924	0.117489	0.670595
	C146	C	0.609031	0.883496	0.323709
	C147	C	0.379458	0.117949	0.319285
	C148	C	0.668431	0.381620	0.881751
	C149	C	0.677674	0.624877	0.111054
	C150	C	0.316591	0.621500	0.882228
	C151	C	0.316857	0.377738	0.112144
	C152	C	0.880778	0.675519	0.375762
	C153	C	0.109219	0.682014	0.617265
	C154	C	0.882743	0.320033	0.615162
	C155	C	0.110989	0.327030	0.378867
	C156	C	0.882091	0.378505	0.673005
	C157	C	0.108875	0.623937	0.676646
	C158	C	0.882250	0.619204	0.316170
	C159	C	0.110487	0.384734	0.320006
	C160	C	0.378509	0.673145	0.879623
	C161	C	0.616213	0.677245	0.113288
	C162	C	0.606419	0.331125	0.879196
	C163	C	0.376208	0.323411	0.112683
	C164	C	0.668666	0.884480	0.377375
	C165	C	0.678413	0.114688	0.619879
	C166	C	0.316044	0.886756	0.617229
	C167	C	0.319513	0.117030	0.373070
	C168	C	0.877967	0.383772	0.169232
	C169	C	0.116479	0.617756	0.172358
	C170	C	0.108787	0.383762	0.824521
	C171	C	0.878275	0.617453	0.819920
	C172	C	0.168884	0.882555	0.380564
	C173	C	0.178426	0.125826	0.610332
	C174	C	0.818413	0.119724	0.381865
	C175	C	0.816595	0.876578	0.612071
	C176	C	0.381367	0.174964	0.876116
	C177	C	0.609329	0.181349	0.116413
	C178	C	0.382066	0.820394	0.114442
	C179	C	0.610989	0.826679	0.879363
	C180	C	0.381722	0.878790	0.172613
	C181	C	0.609521	0.122412	0.174451
	C182	C	0.382651	0.118455	0.816069
	C183	C	0.610792	0.885044	0.820732
	C184	C	0.880190	0.172852	0.379786
	C185	C	0.117987	0.178137	0.612386
	C186	C	0.107503	0.830056	0.379082
	C187	C	0.876424	0.823233	0.612836
	C188	C	0.168492	0.385104	0.877909
	C189	C	0.177337	0.615902	0.120364
	C190	C	0.816529	0.385592	0.116641
	C191	C	0.818422	0.616472	0.873727
	C192	C	0.399319	0.097920	0.592026
	C193	C	0.594500	0.903527	0.595659
	C194	C	0.597264	0.097195	0.400348
	C195	C	0.391939	0.904818	0.398502
	C196	C	0.594271	0.405877	0.093182
	C197	C	0.596449	0.600634	0.900014
	C198	C	0.398088	0.596247	0.092485
	C199	C	0.390044	0.401920	0.899987
	C200	C	0.088828	0.605274	0.396492
	C201	C	0.902691	0.598958	0.595922
	C202	C	0.089195	0.403140	0.599424
	C203	C	0.902788	0.397853	0.394248
	C204	C	0.897996	0.597681	0.092945
	C205	C	0.094154	0.404389	0.095576
	C206	C	0.095358	0.597027	0.901690
	C207	C	0.890849	0.404200	0.898358
	C208	C	0.094193	0.906961	0.592186
	C209	C	0.097289	0.101679	0.399198
	C210	C	0.898860	0.096103	0.593123
	C211	C	0.890980	0.901447	0.399954
	C212	C	0.590155	0.106755	0.895262
	C213	C	0.402423	0.098747	0.095208
	C214	C	0.589458	0.901783	0.099114
	C215	C	0.403115	0.898286	0.894245
	Zn216	Zn	0.496862	0.001724	0.743043
	Zn217	Zn	0.495543	0.000912	0.249592
	Zn218	Zn	0.744592	0.501373	-0.003767
	Zn219	Zn	0.244289	0.500497	-0.002187
	Zn220	Zn	-0.005902	0.754328	0.496001
	Zn221	Zn	-0.002585	0.248279	0.496667
	Zn222	Zn	-0.004860	0.500439	0.750512
	Zn223	Zn	-0.003938	0.501231	0.244042
	Zn224	Zn	0.496253	0.747675	-0.003588
	Zn225	Zn	0.494532	0.254990	-0.004152
	Zn226	Zn	0.744628	-0.000688	0.497632
	Zn227	Zn	0.245593	0.002640	0.495542
	N228	N	0.413600	0.962937	0.668976
	N229	N	0.580060	0.039477	0.669867
	N230	N	0.577139	0.962232	0.323817
	N231	N	0.411654	0.039338	0.320271
	N232	N	0.673328	0.413356	0.961475
	N233	N	0.679538	0.592217	0.031686
	N234	N	0.314414	0.588849	0.961638
	N235	N	0.313193	0.411600	0.033255
	N236	N	0.957310	0.679273	0.410746
	N237	N	0.032542	0.682022	0.582492
	N238	N	0.959852	0.319643	0.583109
	N239	N	0.034096	0.322805	0.411421
	N240	N	0.958657	0.414117	0.676328
	N241	N	0.032103	0.588576	0.678143
	N242	N	0.959559	0.588393	0.314566
	N243	N	0.033230	0.415857	0.316766
	N244	N	0.414147	0.672419	0.957527
	N245	N	0.580526	0.676366	0.035347
	N246	N	0.572960	0.332036	0.957426
	N247	N	0.408635	0.323611	0.034001
	N248	N	0.673244	0.963826	0.410490
	N249	N	0.679374	0.034958	0.587877
	N250	N	0.314763	0.966182	0.584186
	N251	N	0.314968	0.037820	0.406576
	N252	N	0.913307	0.462367	0.169185
	N253	N	0.080290	0.539729	0.171597
	N254	N	0.076103	0.462182	0.824861
	N255	N	0.910464	0.538727	0.820588
	N256	N	0.173486	0.915104	0.459836
	N257	N	0.179906	0.093128	0.530977
	N258	N	0.815871	0.087158	0.461327
	N259	N	0.812892	0.910019	0.533000
	N260	N	0.458111	0.179563	0.910272
	N261	N	0.532256	0.182307	0.082454
	N262	N	0.459219	0.819269	0.082966
	N263	N	0.533839	0.822186	0.911201
	N264	N	0.458698	0.913772	0.176234
	N265	N	0.532746	0.087155	0.175872
	N266	N	0.460398	0.088486	0.813825
	N267	N	0.533630	0.916227	0.817037
	N268	N	0.915697	0.172469	0.457875
	N269	N	0.082320	0.177452	0.534445
	N270	N	0.074353	0.830488	0.457612
	N271	N	0.909040	0.823981	0.534369
	N272	N	0.172495	0.464321	0.910928
	N273	N	0.178415	0.536248	0.087758
	N274	N	0.814818	0.465143	0.083858
	N275	N	0.813783	0.537229	0.907038
	O276	O	0.038177	-0.027046	-0.022948
	H277	H	0.033875	-0.024717	-0.024800
	H278	H	0.028957	-0.029954	-0.022829
	O279	O	0.530520	0.430815	0.485861
	H280	H	0.531342	0.425229	0.497543
	H281	H	0.538851	0.414791	0.467729
	O282	O	0.629874	0.549962	0.590213
	H283	H	0.643111	0.560968	0.589844
	H284	H	0.623265	0.541720	0.580726
	O285	O	0.009927	0.996772	1.062356
	H286	H	0.008881	1.007264	1.054914
	H287	H	0.004266	0.994927	1.077403
	O288	O	0.370678	0.481493	0.457961
	H289	H	0.368484	0.487205	0.460564
	H290	H	0.368825	0.491912	0.454606
	O291	O	1.024402	1.072047	0.943825
	H292	H	1.026276	1.077418	0.938534
	H293	H	1.030972	1.078250	0.951687
	O294	O	0.994096	0.944002	0.996909
	H295	H	1.000099	0.938266	0.994823
	H296	H	0.998201	0.940348	1.000577
	O297	O	0.991607	0.008354	0.962271
	H298	H	0.994939	0.002179	0.962844
	H299	H	0.988894	0.008110	0.956091
	O300	O	0.415210	0.437679	0.583479
	H301	H	0.411279	0.433476	0.596609
	H302	H	0.416937	0.434100	0.586551
	O303	O	0.993077	-0.024417	0.016007
	H304	H	0.992518	-0.030225	0.018601
	H305	H	1.006170	-0.020192	0.023817
	O306	O	-0.037190	0.989594	0.986250
	H307	H	-0.037911	0.983511	0.987327
	H308	H	-0.040906	0.985741	0.995381
	O309	O	0.489828	0.574401	0.477917
	H310	H	0.497723	0.566902	0.481274
	H311	H	0.487092	0.570067	0.469343
	O312	O	0.988627	0.037467	1.000381
	H313	H	0.987284	0.045913	1.000467
	H314	H	0.993362	0.042977	1.001076
	O315	O	0.495177	0.543387	0.557579
	H316	H	0.495889	0.547909	0.556035
	H317	H	0.499764	0.543047	0.560470
	O318	O	0.472726	0.497153	0.467508
	H319	H	0.469069	0.500552	0.462672
	H320	H	0.474170	0.495827	0.472147
	O321	O	1.064932	1.020866	1.014262
	H322	H	1.061594	1.023576	1.009780
	H323	H	1.072786	1.018096	1.012998
	O324	O	0.522537	0.437805	0.424243
	H325	H	0.525870	0.419331	0.428699
	H326	H	0.516499	0.442825	0.417790
	O327	O	0.567616	0.584935	0.456605
	H328	H	0.581553	0.599458	0.456994
	H329	H	0.554704	0.565710	0.470037
	O330	O	1.081898	0.006179	0.926602
	H331	H	1.086167	0.011580	0.919725
	H332	H	1.084521	0.015677	0.926874
	O333	O	1.017734	1.089257	0.055420
	H334	H	1.017563	1.075809	0.060107
	H335	H	1.027496	1.096956	0.048691
	O336	O	0.495833	0.548284	0.512665
	H337	H	0.493221	0.558262	0.501953
	H338	H	0.508852	0.563843	0.531582
	O339	O	0.554106	0.584055	0.499220
	H340	H	0.540061	0.575260	0.496978
	H341	H	0.544004	0.585761	0.492876
	O342	O	-0.023742	0.966106	0.005543
	H343	H	-0.023378	0.969761	0.017645
	H344	H	-0.030923	0.952182	0.015214
	O345	O	-0.016207	-0.029135	-0.000502
	H346	H	-0.014803	-0.024790	0.002604
	H347	H	-0.015028	-0.037730	0.000486
	O348	O	0.572383	0.440815	0.488650
	H349	H	0.571323	0.439131	0.482629
	H350	H	0.577167	0.452119	0.477077
	O351	O	0.487887	0.525402	0.429017
	H352	H	0.485973	0.527699	0.427425
	H353	H	0.485901	0.516998	0.434649
	O354	O	0.471080	0.499761	0.474157
	H355	H	0.481645	0.500130	0.487563
	H356	H	0.470081	0.499503	0.483862
	O357	O	0.431287	0.531733	0.450410
	H358	H	0.428544	0.522248	0.454700
	H359	H	0.421195	0.536037	0.450619
	O360	O	-0.022751	-0.030000	0.006813
	H361	H	-0.025273	-0.031153	0.008165
	H362	H	-0.027440	-0.030291	-0.004755
	O363	O	0.517800	0.498033	0.548963
	H364	H	0.520604	0.501932	0.542326
	H365	H	0.510274	0.491168	0.551448
	O366	O	0.009870	0.023439	0.957663
	H367	H	0.005383	0.020517	0.957782
	H368	H	0.012997	0.009688	0.960719
	O369	O	0.524466	0.457563	0.581249
	H370	H	0.543430	0.463098	0.595921
	H371	H	0.525410	0.456885	0.571698
