data_Molecule from HDF5

_cell_length_a		16.204622
_cell_length_b		16.373927
_cell_length_c		16.306371
_cell_angle_alpha	89.770842
_cell_angle_beta	90.261869
_cell_angle_gamma	89.983292
_symmetry_space_group_name_H-M	'P 1'
_symmetry_Int_Tables_number		1

loop_
	_symmetry_equiv_pos_as_xyz
	x,y,z

loop_
	_atom_site_label
	_atom_site_type_symbol
	_atom_site_fract_x
	_atom_site_fract_y
	_atom_site_fract_z
	H0	H	0.388374	0.825849	0.710817
	H1	H	0.598654	0.145040	0.705872
	H2	H	0.599952	0.824155	0.268910
	H3	H	0.392031	0.144567	0.268056
	H4	H	0.716028	0.381690	0.827818
	H5	H	0.714147	0.583111	0.151073
	H6	H	0.274433	0.585902	0.830361
	H7	H	0.282657	0.378849	0.152738
	H8	H	0.834959	0.703165	0.383521
	H9	H	0.155829	0.703481	0.597516
	H10	H	0.833726	0.264008	0.594988
	H11	H	0.157158	0.263410	0.387903
	H12	H	0.835076	0.378119	0.709884
	H13	H	0.157341	0.585890	0.709503
	H14	H	0.835399	0.587571	0.268938
	H15	H	0.157960	0.378435	0.274011
	H16	H	0.389976	0.702861	0.828508
	H17	H	0.602963	0.703311	0.149179
	H18	H	0.602307	0.264380	0.827415
	H19	H	0.395879	0.262310	0.149515
	H20	H	0.713198	0.823484	0.386049
	H21	H	0.712702	0.144779	0.588863
	H22	H	0.276688	0.823107	0.592289
	H23	H	0.275681	0.144533	0.384360
	H24	H	0.894325	0.322239	0.209081
	H25	H	0.101370	0.642678	0.210868
	H26	H	0.099555	0.321173	0.772940
	H27	H	0.892774	0.641950	0.768704
	H28	H	0.211546	0.881553	0.327356
	H29	H	0.213383	0.083554	0.651653
	H30	H	0.778176	0.085882	0.326235
	H31	H	0.778825	0.883920	0.651351
	H32	H	0.334413	0.201813	0.883708
	H33	H	0.659827	0.197525	0.087384
	H34	H	0.334761	0.763460	0.091738
	H35	H	0.658173	0.765469	0.885325
	H36	H	0.333937	0.880046	0.206284
	H37	H	0.657744	0.085822	0.205570
	H38	H	0.333052	0.086122	0.770684
	H39	H	0.658460	0.883633	0.771476
	H40	H	0.888994	0.206294	0.330244
	H41	H	0.096870	0.198911	0.652568
	H42	H	0.099712	0.761903	0.330658
	H43	H	0.890176	0.763718	0.651339
	H44	H	0.212040	0.319444	0.893479
	H45	H	0.215951	0.642545	0.094467
	H46	H	0.779746	0.321824	0.091378
	H47	H	0.778666	0.643343	0.885228
	H48	H	0.406813	0.102203	0.589430
	H49	H	0.594137	0.867119	0.579044
	H50	H	0.582644	0.095541	0.403807
	H51	H	0.400085	0.866751	0.392826
	H52	H	0.583586	0.384365	0.104741
	H53	H	0.593320	0.578640	0.870011
	H54	H	0.404079	0.571362	0.105289
	H55	H	0.403495	0.397706	0.874860
	H56	H	0.111005	0.574742	0.403081
	H57	H	0.885176	0.564558	0.573039
	H58	H	0.115052	0.385360	0.587273
	H59	H	0.875029	0.388456	0.390369
	H60	H	0.110122	0.388693	0.573133
	H61	H	0.877030	0.570145	0.589958
	H62	H	0.110264	0.571678	0.403931
	H63	H	0.881885	0.388158	0.412472
	H64	H	0.412574	0.570624	0.102083
	H65	H	0.587022	0.564931	0.876870
	H66	H	0.594919	0.389644	0.105948
	H67	H	0.409685	0.391197	0.874880
	H68	H	0.594121	0.102016	0.395350
	H69	H	0.579727	0.868513	0.587747
	H70	H	0.414116	0.093093	0.571648
	H71	H	0.410589	0.870244	0.395402
	H72	H	0.904695	0.596873	0.074981
	H73	H	0.088657	0.369135	0.077674
	H74	H	0.078428	0.593557	0.899631
	H75	H	0.898192	0.364535	0.901005
	H76	H	0.084526	0.891715	0.605366
	H77	H	0.077476	0.081769	0.374761
	H78	H	0.906242	0.072602	0.603282
	H79	H	0.905460	0.888754	0.373548
	H80	H	0.618103	0.089126	0.896080
	H81	H	0.381561	0.073056	0.073021
	H82	H	0.612877	0.890140	0.079887
	H83	H	0.379400	0.892846	0.898157
	H84	H	0.610199	0.894260	0.073297
	H85	H	0.380232	0.071016	0.078505
	H86	H	0.607597	0.069624	0.908394
	H87	H	0.380859	0.893220	0.899521
	H88	H	0.903416	0.075709	0.605647
	H89	H	0.091306	0.075908	0.371732
	H90	H	0.087170	0.893229	0.604151
	H91	H	0.902357	0.894116	0.374897
	H92	H	0.089190	0.595269	0.907019
	H93	H	0.094398	0.364280	0.087046
	H94	H	0.903568	0.599395	0.084839
	H95	H	0.911088	0.367034	0.892955
	H96	H	0.393911	0.100354	0.572458
	H97	H	0.579985	0.874191	0.572083
	H98	H	0.580695	0.099527	0.388501
	H99	H	0.401969	0.870743	0.403383
	H100	H	0.584797	0.396120	0.100575
	H101	H	0.577972	0.578466	0.875515
	H102	H	0.409477	0.577852	0.105798
	H103	H	0.401447	0.389233	0.872260
	H104	H	0.111412	0.572412	0.401464
	H105	H	0.878056	0.582355	0.575143
	H106	H	0.110255	0.399432	0.584129
	H107	H	0.885285	0.407304	0.400037
	H108	H	0.912588	0.596032	0.081462
	H109	H	0.082812	0.367533	0.088035
	H110	H	0.088835	0.599117	0.895016
	H111	H	0.910554	0.372299	0.907474
	H112	H	0.084304	0.894993	0.603225
	H113	H	0.080787	0.067145	0.378753
	H114	H	0.902171	0.071806	0.605526
	H115	H	0.908938	0.893345	0.376334
	H116	H	0.613772	0.068009	0.883616
	H117	H	0.378793	0.075897	0.076820
	H118	H	0.610983	0.897866	0.080831
	H119	H	0.380224	0.894257	0.897939
	C120	C	0.373462	-0.007115	0.609653
	C121	C	0.615904	0.975934	0.609667
	C122	C	0.617229	-0.006990	0.365646
	C123	C	0.372918	0.975364	0.365853
	C124	C	0.619275	0.360482	-0.002887
	C125	C	0.618311	0.604705	0.980252
	C126	C	0.375257	0.604638	-0.001351
	C127	C	0.375682	0.361026	0.980822
	C128	C	0.004666	0.604564	0.369333
	C129	C	0.986500	0.603668	0.611689
	C130	C	0.004649	0.360858	0.612203
	C131	C	0.987223	0.362052	0.369953
	C132	C	0.876111	0.491316	0.111409
	C133	C	0.119502	0.473477	0.114532
	C134	C	0.117187	0.489738	0.869919
	C135	C	0.875057	0.473734	0.868008
	C136	C	0.116332	0.861673	0.498176
	C137	C	0.115620	0.104884	0.481640
	C138	C	0.872734	0.105614	0.498382
	C139	C	0.873348	0.861255	0.481051
	C140	C	0.505467	0.106367	0.865441
	C141	C	0.487511	0.103583	0.107091
	C142	C	0.504537	0.862279	0.109251
	C143	C	0.487295	0.862645	0.867048
	C144	C	0.370974	0.873018	0.670212
	C145	C	0.616937	0.096707	0.666961
	C146	C	0.618571	0.872299	0.307787
	C147	C	0.372478	0.096189	0.306948
	C148	C	0.677499	0.361462	0.876213
	C149	C	0.676214	0.603793	0.102177
	C150	C	0.314723	0.605057	0.877999
	C151	C	0.320250	0.360112	0.103416
	C152	C	0.883461	0.663724	0.365743
	C153	C	0.107713	0.663295	0.615048
	C154	C	0.882369	0.302825	0.613576
	C155	C	0.108652	0.302688	0.369245
	C156	C	0.883075	0.359807	0.670787
	C157	C	0.108501	0.604892	0.670968
	C158	C	0.883507	0.605980	0.308973
	C159	C	0.109203	0.360453	0.312478
	C160	C	0.371967	0.663501	0.877215
	C161	C	0.620928	0.663782	0.101090
	C162	C	0.620348	0.303296	0.876034
	C163	C	0.376319	0.301627	0.101653
	C164	C	0.674987	0.871862	0.366332
	C165	C	0.673915	0.096595	0.608720
	C166	C	0.315298	0.871631	0.610974
	C167	C	0.314698	0.096344	0.365014
	C168	C	0.875416	0.370297	0.169880
	C169	C	0.119996	0.594430	0.171873
	C170	C	0.118089	0.369019	0.812444
	C171	C	0.873677	0.594094	0.808251
	C172	C	0.173511	0.861715	0.376631
	C173	C	0.174474	0.103609	0.603230
	C174	C	0.815676	0.106068	0.375841
	C175	C	0.816220	0.862754	0.602795
	C176	C	0.383003	0.163373	0.864934
	C177	C	0.610769	0.159707	0.106830
	C178	C	0.383156	0.802727	0.110796
	C179	C	0.609441	0.804706	0.866139
	C180	C	0.382560	0.861074	0.167441
	C181	C	0.609689	0.104142	0.165847
	C182	C	0.382295	0.105879	0.808624
	C183	C	0.609655	0.863792	0.809865
	C184	C	0.871110	0.165701	0.377645
	C185	C	0.116519	0.161000	0.603687
	C186	C	0.117597	0.802187	0.378087
	C187	C	0.871924	0.802873	0.602586
	C188	C	0.174399	0.368299	0.872151
	C189	C	0.177113	0.594439	0.113859
	C190	C	0.818674	0.370016	0.111166
	C191	C	0.816959	0.594746	0.866452
	C192	C	0.397807	0.076752	0.584894
	C193	C	0.591591	0.891770	0.586381
	C194	C	0.592942	0.077275	0.389194
	C195	C	0.397149	0.891226	0.390138
	C196	C	0.594903	0.383450	0.081862
	C197	C	0.593293	0.580937	0.895802
	C198	C	0.401311	0.580299	0.082554
	C199	C	0.398205	0.385675	0.895995
	C200	C	0.088930	0.580060	0.395280
	C201	C	0.902109	0.579213	0.586540
	C202	C	0.089630	0.384407	0.588396
	C203	C	0.902660	0.387400	0.393949
	C204	C	0.900177	0.575460	0.087409
	C205	C	0.095577	0.388789	0.091157
	C206	C	0.092502	0.574121	0.893498
	C207	C	0.899750	0.389832	0.893086
	C208	C	0.092190	0.886079	0.582431
	C209	C	0.090529	0.081654	0.397009
	C210	C	0.896894	0.080763	0.582800
	C211	C	0.898256	0.885022	0.396918
	C212	C	0.590872	0.082457	0.888890
	C213	C	0.402393	0.080085	0.083002
	C214	C	0.589242	0.887042	0.084958
	C215	C	0.402421	0.886414	0.891342
	Zn216	Zn	0.495042	-0.015158	0.738846
	Zn217	Zn	0.495643	-0.016040	0.237168
	Zn218	Zn	0.746847	0.482885	-0.010436
	Zn219	Zn	0.247415	0.481747	-0.008132
	Zn220	Zn	-0.004609	0.732169	0.490918
	Zn221	Zn	-0.005129	0.233718	0.491066
	Zn222	Zn	-0.003755	0.481562	0.739639
	Zn223	Zn	-0.003270	0.482944	0.241410
	Zn224	Zn	0.496808	0.733491	-0.011578
	Zn225	Zn	0.496297	0.232660	-0.012611
	Zn226	Zn	0.744840	-0.016479	0.488099
	Zn227	Zn	0.244740	-0.016328	0.489011
	N228	N	0.406466	0.949093	0.669612
	N229	N	0.581407	0.020529	0.667522
	N230	N	0.583478	0.948570	0.307329
	N231	N	0.407954	0.019841	0.307293
	N232	N	0.676603	0.396647	0.952511
	N233	N	0.674779	0.567921	0.026077
	N234	N	0.316383	0.569429	0.954565
	N235	N	0.319677	0.396407	0.027161
	N236	N	0.959699	0.662646	0.402942
	N237	N	0.031007	0.662979	0.579128
	N238	N	0.958931	0.303499	0.577801
	N239	N	0.031816	0.303720	0.404563
	N240	N	0.959845	0.395365	0.669853
	N241	N	0.032141	0.568233	0.669072
	N242	N	0.959973	0.569864	0.310989
	N243	N	0.032671	0.396771	0.312787
	N244	N	0.408937	0.663341	0.953235
	N245	N	0.585865	0.664671	0.024083
	N246	N	0.584534	0.302794	0.952251
	N247	N	0.409985	0.302168	0.024472
	N248	N	0.674452	0.948170	0.401401
	N249	N	0.673390	0.020531	0.573632
	N250	N	0.317031	0.947159	0.573664
	N251	N	0.314775	0.020253	0.400834
	N252	N	0.910438	0.446619	0.170237
	N253	N	0.085394	0.517812	0.172713
	N254	N	0.083688	0.445772	0.810805
	N255	N	0.908900	0.517791	0.808944
	N256	N	0.172969	0.897941	0.452476
	N257	N	0.174412	0.069788	0.526067
	N258	N	0.816524	0.069311	0.451928
	N259	N	0.816796	0.898156	0.526253
	N260	N	0.460621	0.163971	0.899329
	N261	N	0.533696	0.159585	0.071230
	N262	N	0.460011	0.803251	0.075307
	N263	N	0.532368	0.803755	0.900982
	N264	N	0.459103	0.897126	0.166824
	N265	N	0.532222	0.069744	0.166158
	N266	N	0.459572	0.071174	0.808677
	N267	N	0.532364	0.898752	0.810018
	N268	N	0.905622	0.165694	0.454757
	N269	N	0.080697	0.161848	0.527033
	N270	N	0.082884	0.802186	0.454802
	N271	N	0.906586	0.801701	0.525789
	N272	N	0.174041	0.444631	0.907129
	N273	N	0.177138	0.518075	0.079141
	N274	N	0.818714	0.446319	0.075714
	N275	N	0.817496	0.518783	0.902695
	O276	O	0.527439	0.605328	0.669033
	H277	H	0.498109	0.610239	0.686307
	H278	H	0.534704	0.574028	0.669065
	O279	O	0.462868	0.462173	0.420334
	H280	H	0.467885	0.468594	0.431211
	H281	H	0.455724	0.458402	0.441987
	O282	O	0.969533	0.032905	0.962813
	H283	H	0.967721	0.032847	0.961527
	H284	H	0.972712	0.036113	0.967891
	O285	O	0.501248	0.466671	0.534060
	H286	H	0.497279	0.454922	0.533232
	H287	H	0.507810	0.473953	0.553364
	O288	O	0.926050	0.854191	1.040981
	H289	H	0.939727	0.844949	1.045904
	H290	H	0.925295	0.848643	1.032521
	O291	O	0.118973	0.964051	-0.028171
	H292	H	0.121883	0.960000	-0.021314
	H293	H	0.131138	0.961377	-0.023606
	O294	O	0.509813	0.650421	0.656106
	H295	H	0.507586	0.647506	0.667985
	H296	H	0.505026	0.644759	0.668245
	O297	O	0.528518	0.458313	0.445185
	H298	H	0.550015	0.459988	0.437827
	H299	H	0.521132	0.475827	0.444127
	O300	O	0.307766	0.597898	0.458346
	H301	H	0.313575	0.601932	0.451172
	H302	H	0.310191	0.611699	0.457853
	O303	O	0.469206	0.575461	0.326079
	H304	H	0.465826	0.565240	0.335164
	H305	H	0.446475	0.587539	0.327606
	O306	O	0.670371	0.418713	0.497249
	H307	H	0.678274	0.396032	0.482038
	H308	H	0.659936	0.409219	0.480544
	O309	O	0.448747	0.382577	0.393027
	H310	H	0.472312	0.378650	0.404691
	H311	H	0.456336	0.393964	0.385473
	O312	O	0.061618	-0.082145	-0.066737
	H313	H	0.061532	-0.096537	-0.058958
	H314	H	0.058176	-0.081971	-0.061052
	O315	O	0.530673	0.489830	0.634820
	H316	H	0.524141	0.499988	0.643292
	H317	H	0.510563	0.478791	0.645665
	O318	O	0.007418	1.036081	1.093237
	H319	H	0.008358	1.045662	1.078091
	H320	H	0.015129	1.052380	1.097367
	O321	O	0.415341	0.435254	0.629928
	H322	H	0.419613	0.439160	0.634104
	H323	H	0.432570	0.426327	0.625951
	O324	O	-0.143660	0.804927	-0.061004
	H325	H	-0.155826	0.796951	-0.058544
	H326	H	-0.140526	0.807949	-0.046043
	O327	O	0.537884	0.517517	0.363911
	H328	H	0.545199	0.536929	0.373197
	H329	H	0.537941	0.514966	0.366421
	O330	O	0.027188	-0.205114	1.050039
	H331	H	0.052557	-0.203607	1.043501
	H332	H	0.029531	-0.209814	1.057281
	O333	O	0.154004	0.049601	1.157840
	H334	H	0.170720	0.061760	1.169489
	H335	H	0.154995	0.061813	1.156964
	O336	O	0.311453	0.426129	0.642489
	H337	H	0.306068	0.431408	0.626168
	H338	H	0.306625	0.411263	0.639637
	O339	O	0.330066	0.483350	0.530319
	H340	H	0.327641	0.494038	0.511677
	H341	H	0.331322	0.469299	0.514014
	O342	O	0.379434	-0.500508	0.312186
	H343	H	0.369091	-0.522805	0.319503
	H344	H	0.372825	-0.500032	0.303286
	O345	O	1.585630	0.586833	1.610268
	H346	H	1.606595	0.581649	1.611560
	H347	H	1.593662	0.584650	1.595879
	O348	O	0.938421	0.986096	0.082001
	H349	H	0.940428	0.970761	0.068558
	H350	H	0.928264	0.973965	0.079735
	O351	O	0.422784	0.673724	0.322889
	H352	H	0.420451	0.682528	0.332186
	H353	H	0.417262	0.663934	0.322253
	O354	O	0.937228	0.048921	0.922100
	H355	H	0.933192	0.036947	0.919650
	H356	H	0.944441	0.038324	0.931131
	O357	O	0.651330	0.312995	0.311574
	H358	H	0.651671	0.321693	0.316244
	H359	H	0.639463	0.335639	0.305574
	O360	O	0.819436	0.866099	1.148284
	H361	H	0.833441	0.860336	1.161781
	H362	H	0.817420	0.867492	1.155061
	O363	O	-0.054634	0.940782	0.996362
	H364	H	-0.060737	0.924088	0.999834
	H365	H	-0.047442	0.946107	0.991404
	O366	O	0.693111	0.447702	0.573177
	H367	H	0.685495	0.424534	0.565091
	H368	H	0.697676	0.461056	0.551371
	O369	O	0.094643	0.882553	0.042927
	H370	H	0.100780	0.880906	0.033058
	H371	H	0.094028	0.895867	0.052717
	O372	O	0.566260	0.442105	0.532776
	H373	H	0.566800	0.449756	0.543496
	H374	H	0.584698	0.444539	0.543849
	O375	O	0.484840	0.518554	0.353377
	H376	H	0.486490	0.529180	0.354168
	H377	H	0.483775	0.530145	0.353419
	O378	O	1.015214	1.146649	-0.038251
	H379	H	1.002433	1.140925	-0.043232
	H380	H	1.010688	1.145205	-0.042220
	O381	O	1.083312	-0.003717	-0.169066
	H382	H	1.081887	-0.013960	-0.161231
	H383	H	1.077479	0.004033	-0.182204
	O384	O	1.083438	0.915378	-0.042525
	H385	H	1.080608	0.917108	-0.041914
	H386	H	1.100875	0.899586	-0.040243
	O387	O	-0.605311	0.320590	0.549333
	H388	H	-0.612202	0.311756	0.569615
	H389	H	-0.603441	0.318451	0.535928
	O390	O	-0.046584	1.064235	-0.045527
	H391	H	-0.047038	1.071853	-0.049070
	H392	H	-0.055796	1.074952	-0.041840
	O393	O	0.989988	1.068486	0.982367
	H394	H	0.991934	1.060282	0.980671
	H395	H	0.989682	1.083271	0.984759
	O396	O	0.615283	0.663789	0.552803
	H397	H	0.609041	0.665968	0.587830
	H398	H	0.641576	0.683760	0.553736
	O399	O	0.075314	0.903125	0.977900
	H400	H	0.073121	0.902494	0.981884
	H401	H	0.062073	0.900939	0.988566
	O402	O	0.484979	0.502262	0.374241
	H403	H	0.513236	0.499200	0.376468
	H404	H	0.476383	0.484535	0.370405
	O405	O	0.975610	1.102601	0.088241
	H406	H	0.982590	1.117442	0.074289
	H407	H	0.950343	1.110529	0.096148
	O408	O	0.947571	1.044182	0.028980
	H409	H	0.946599	1.044577	0.037112
	H410	H	0.948295	1.051841	0.032742
	O411	O	0.944344	-0.019093	0.859118
	H412	H	0.944925	-0.012541	0.862150
	H413	H	0.930634	-0.026936	0.860993
	O414	O	0.456861	0.393518	0.674649
	H415	H	0.446539	0.380952	0.663415
	H416	H	0.450046	0.393154	0.687008
	O417	O	0.569631	0.377450	0.381304
	H418	H	0.576328	0.381120	0.390629
	H419	H	0.561940	0.387825	0.378833
