data_Molecule from HDF5

_cell_length_a		16.457370
_cell_length_b		16.532195
_cell_length_c		16.283460
_cell_angle_alpha	90.027686
_cell_angle_beta	90.050470
_cell_angle_gamma	89.988900
_symmetry_space_group_name_H-M	'P 1'
_symmetry_Int_Tables_number		1

loop_
	_symmetry_equiv_pos_as_xyz
	x,y,z

loop_
	_atom_site_label
	_atom_site_type_symbol
	_atom_site_fract_x
	_atom_site_fract_y
	_atom_site_fract_z
	H0	H	0.398514	0.845949	0.722446
	H1	H	0.603518	0.162356	0.719354
	H2	H	0.607989	0.846670	0.279101
	H3	H	0.400017	0.162126	0.282730
	H4	H	0.719266	0.402136	0.840945
	H5	H	0.726044	0.612756	0.159916
	H6	H	0.280149	0.609012	0.842981
	H7	H	0.278377	0.395909	0.159828
	H8	H	0.845861	0.727689	0.393242
	H9	H	0.158903	0.728506	0.610705
	H10	H	0.846458	0.280995	0.608056
	H11	H	0.158979	0.279019	0.390675
	H12	H	0.843353	0.403472	0.718549
	H13	H	0.159728	0.609924	0.724334
	H14	H	0.844281	0.608379	0.279572
	H15	H	0.159734	0.397643	0.277916
	H16	H	0.394765	0.726304	0.843532
	H17	H	0.610034	0.727865	0.160359
	H18	H	0.606522	0.283489	0.842508
	H19	H	0.393913	0.280741	0.160486
	H20	H	0.726521	0.846979	0.394280
	H21	H	0.722583	0.161177	0.604709
	H22	H	0.278334	0.847620	0.609993
	H23	H	0.278336	0.159781	0.392850
	H24	H	0.895922	0.345855	0.223177
	H25	H	0.108259	0.660695	0.225501
	H26	H	0.105161	0.345248	0.780439
	H27	H	0.899335	0.662507	0.782019
	H28	H	0.225449	0.896051	0.343128
	H29	H	0.220883	0.105894	0.662007
	H30	H	0.781888	0.109368	0.341483
	H31	H	0.786125	0.902837	0.663246
	H32	H	0.343880	0.225497	0.895436
	H33	H	0.659635	0.226901	0.108743
	H34	H	0.345224	0.779290	0.112304
	H35	H	0.659534	0.782267	0.896493
	H36	H	0.343763	0.898068	0.225703
	H37	H	0.662611	0.106291	0.219628
	H38	H	0.342755	0.107617	0.780879
	H39	H	0.661881	0.903266	0.785653
	H40	H	0.895353	0.226157	0.342029
	H41	H	0.107412	0.223935	0.660678
	H42	H	0.109782	0.781106	0.342538
	H43	H	0.898085	0.783291	0.660900
	H44	H	0.224081	0.345992	0.893869
	H45	H	0.227272	0.659325	0.111469
	H46	H	0.778553	0.347009	0.107310
	H47	H	0.780457	0.661787	0.896627
	H48	H	0.403485	0.120897	0.596632
	H49	H	0.595859	0.889022	0.592515
	H50	H	0.593991	0.116039	0.414592
	H51	H	0.410235	0.890401	0.414508
	H52	H	0.589393	0.418260	0.115690
	H53	H	0.597590	0.587590	0.887953
	H54	H	0.418310	0.590722	0.114414
	H55	H	0.417030	0.413839	0.888483
	H56	H	0.115166	0.588575	0.408538
	H57	H	0.889672	0.591151	0.593597
	H58	H	0.117877	0.410318	0.590603
	H59	H	0.889187	0.413076	0.412481
	H60	H	0.115086	0.414650	0.586502
	H61	H	0.887888	0.598860	0.589612
	H62	H	0.116376	0.598168	0.417584
	H63	H	0.889898	0.413370	0.414790
	H64	H	0.413615	0.592476	0.116167
	H65	H	0.581879	0.590240	0.892232
	H66	H	0.587807	0.413798	0.116357
	H67	H	0.411640	0.412952	0.886299
	H68	H	0.594998	0.118080	0.412105
	H69	H	0.594879	0.889252	0.592637
	H70	H	0.422289	0.114224	0.594036
	H71	H	0.417998	0.892199	0.411873
	H72	H	0.911129	0.615735	0.086406
	H73	H	0.092589	0.392300	0.086503
	H74	H	0.089543	0.613037	0.918020
	H75	H	0.908745	0.391031	0.911010
	H76	H	0.088406	0.911210	0.616009
	H77	H	0.090804	0.088864	0.387671
	H78	H	0.911828	0.092319	0.616899
	H79	H	0.914899	0.917252	0.387732
	H80	H	0.615874	0.094683	0.909758
	H81	H	0.387867	0.094266	0.094033
	H82	H	0.614848	0.912256	0.090529
	H83	H	0.388047	0.911957	0.916233
	H84	H	0.612199	0.914948	0.084457
	H85	H	0.388806	0.096228	0.088251
	H86	H	0.616230	0.097774	0.912859
	H87	H	0.389269	0.917415	0.913612
	H88	H	0.915936	0.091801	0.613650
	H89	H	0.087013	0.092533	0.387404
	H90	H	0.093798	0.917920	0.615698
	H91	H	0.915797	0.912845	0.386716
	H92	H	0.096373	0.616624	0.914217
	H93	H	0.089603	0.391412	0.090930
	H94	H	0.912585	0.616772	0.092502
	H95	H	0.910219	0.390219	0.910065
	H96	H	0.409402	0.113645	0.579045
	H97	H	0.595137	0.889753	0.591867
	H98	H	0.592213	0.115888	0.411494
	H99	H	0.416218	0.894348	0.419771
	H100	H	0.593295	0.415147	0.116909
	H101	H	0.591436	0.602810	0.884940
	H102	H	0.414043	0.588210	0.114208
	H103	H	0.412957	0.417668	0.888378
	H104	H	0.110357	0.587036	0.420634
	H105	H	0.891543	0.592443	0.584975
	H106	H	0.116886	0.416548	0.592890
	H107	H	0.890002	0.415493	0.412721
	H108	H	0.916512	0.614028	0.088071
	H109	H	0.087147	0.393709	0.086175
	H110	H	0.088592	0.616498	0.909825
	H111	H	0.910511	0.390632	0.911952
	H112	H	0.086099	0.919264	0.612470
	H113	H	0.091941	0.094058	0.385762
	H114	H	0.914517	0.095731	0.615909
	H115	H	0.911750	0.915073	0.386156
	H116	H	0.615049	0.093666	0.913840
	H117	H	0.390381	0.090432	0.089599
	H118	H	0.613196	0.919597	0.089776
	H119	H	0.386689	0.912421	0.909804
	C120	C	0.380386	0.012171	0.622949
	C121	C	0.624896	0.994604	0.622970
	C122	C	0.625540	0.012471	0.379850
	C123	C	0.381416	0.995242	0.380974
	C124	C	0.621738	0.384213	0.010309
	C125	C	0.623095	0.626135	0.993399
	C126	C	0.381527	0.623949	0.010467
	C127	C	0.380714	0.382195	0.992970
	C128	C	0.010389	0.624866	0.381016
	C129	C	0.993498	0.626419	0.623066
	C130	C	0.011571	0.382606	0.622024
	C131	C	0.993453	0.381261	0.379118
	C132	C	0.879878	0.512086	0.122686
	C133	C	0.123486	0.495631	0.122705
	C134	C	0.123308	0.511612	0.880491
	C135	C	0.879109	0.495479	0.879430
	C136	C	0.123162	0.882697	0.509702
	C137	C	0.122788	0.123950	0.492569
	C138	C	0.881480	0.125420	0.509880
	C139	C	0.881796	0.882906	0.492677
	C140	C	0.510463	0.126197	0.879874
	C141	C	0.493991	0.125714	0.123127
	C142	C	0.509830	0.882507	0.123341
	C143	C	0.493066	0.882509	0.881353
	C144	C	0.379518	0.893433	0.682721
	C145	C	0.623728	0.114466	0.680753
	C146	C	0.627315	0.893910	0.319064
	C147	C	0.380209	0.114165	0.321154
	C148	C	0.680309	0.383053	0.889405
	C149	C	0.684968	0.629946	0.112594
	C150	C	0.320287	0.627075	0.890466
	C151	C	0.319233	0.378587	0.112370
	C152	C	0.892656	0.686672	0.376241
	C153	C	0.111777	0.687380	0.627627
	C154	C	0.893142	0.322298	0.625271
	C155	C	0.111773	0.320086	0.374181
	C156	C	0.891705	0.382984	0.680366
	C157	C	0.112292	0.628351	0.684200
	C158	C	0.891902	0.627213	0.319689
	C159	C	0.112198	0.379045	0.317704
	C160	C	0.377376	0.685293	0.891070
	C161	C	0.627051	0.687369	0.112845
	C162	C	0.624047	0.324189	0.890210
	C163	C	0.376662	0.321169	0.112749
	C164	C	0.686201	0.894171	0.376168
	C165	C	0.682676	0.114182	0.623554
	C166	C	0.319742	0.894079	0.626609
	C167	C	0.319761	0.112838	0.376387
	C168	C	0.877855	0.393296	0.183038
	C169	C	0.126779	0.613422	0.184867
	C170	C	0.124611	0.392855	0.819842
	C171	C	0.879343	0.614709	0.820737
	C172	C	0.184854	0.878530	0.390604
	C173	C	0.182001	0.125210	0.613493
	C174	C	0.821468	0.127530	0.389618
	C175	C	0.824217	0.882740	0.614245
	C176	C	0.391216	0.185612	0.877362
	C177	C	0.612532	0.186198	0.126114
	C178	C	0.391899	0.820695	0.128912
	C179	C	0.612304	0.822906	0.879106
	C180	C	0.391278	0.880132	0.185064
	C181	C	0.614088	0.126182	0.181572
	C182	C	0.390910	0.126920	0.820135
	C183	C	0.613273	0.882736	0.823234
	C184	C	0.878220	0.185719	0.389984
	C185	C	0.125729	0.184052	0.612795
	C186	C	0.127438	0.821036	0.390336
	C187	C	0.879887	0.823511	0.613216
	C188	C	0.183681	0.393306	0.876391
	C189	C	0.185938	0.612723	0.128030
	C190	C	0.819001	0.393983	0.125837
	C191	C	0.820288	0.614383	0.877724
	C192	C	0.404829	0.094843	0.597233
	C193	C	0.602013	0.911040	0.599011
	C194	C	0.600803	0.095016	0.405417
	C195	C	0.407284	0.913566	0.407564
	C196	C	0.597209	0.408716	0.094455
	C197	C	0.597397	0.600790	0.910074
	C198	C	0.407645	0.597916	0.093261
	C199	C	0.406470	0.407587	0.909626
	C200	C	0.092462	0.598917	0.408012
	C201	C	0.910995	0.601272	0.596807
	C202	C	0.094761	0.406872	0.597074
	C203	C	0.911071	0.406758	0.405570
	C204	C	0.905901	0.594131	0.096646
	C205	C	0.097546	0.414007	0.095782
	C206	C	0.098525	0.593999	0.906378
	C207	C	0.903064	0.412100	0.904028
	C208	C	0.096932	0.908588	0.592842
	C209	C	0.097484	0.098935	0.408839
	C210	C	0.906732	0.100417	0.593642
	C211	C	0.906924	0.907783	0.408947
	C212	C	0.593823	0.102280	0.905024
	C213	C	0.410887	0.100875	0.097930
	C214	C	0.592023	0.908295	0.096115
	C215	C	0.409778	0.906862	0.906225
	Zn216	Zn	0.502156	0.003726	0.751717
	Zn217	Zn	0.502799	0.003934	0.251601
	Zn218	Zn	0.750650	0.504559	0.001616
	Zn219	Zn	0.252781	0.502876	0.001392
	Zn220	Zn	0.002959	0.754841	0.501253
	Zn221	Zn	0.002910	0.253050	0.500880
	Zn222	Zn	0.002496	0.503860	0.751380
	Zn223	Zn	0.002037	0.503690	0.251586
	Zn224	Zn	0.501165	0.753644	0.002354
	Zn225	Zn	0.501408	0.254632	0.001858
	Zn226	Zn	0.754386	0.003738	0.501546
	Zn227	Zn	0.251132	0.003491	0.501586
	N228	N	0.416544	0.967837	0.680402
	N229	N	0.588608	0.039083	0.680443
	N230	N	0.590328	0.968289	0.321275
	N231	N	0.417890	0.040110	0.323832
	N232	N	0.678996	0.419615	0.965236
	N233	N	0.682637	0.592546	0.037401
	N234	N	0.322684	0.589425	0.965620
	N235	N	0.321562	0.415808	0.037036
	N236	N	0.967597	0.685320	0.413431
	N237	N	0.036924	0.686319	0.590430
	N238	N	0.968790	0.321977	0.589744
	N239	N	0.036976	0.321360	0.411736
	N240	N	0.966242	0.419932	0.678160
	N241	N	0.037761	0.591097	0.681579
	N242	N	0.966083	0.589457	0.322651
	N243	N	0.037645	0.416168	0.320616
	N244	N	0.414634	0.683479	0.966436
	N245	N	0.589013	0.684911	0.037896
	N246	N	0.588450	0.324608	0.966600
	N247	N	0.414339	0.323416	0.037537
	N248	N	0.685320	0.968875	0.413134
	N249	N	0.683798	0.038534	0.588760
	N250	N	0.320186	0.968941	0.590167
	N251	N	0.320324	0.037945	0.412960
	N252	N	0.914926	0.467845	0.181198
	N253	N	0.088543	0.539641	0.181605
	N254	N	0.087840	0.467428	0.822198
	N255	N	0.915073	0.539565	0.821463
	N256	N	0.182389	0.915956	0.465831
	N257	N	0.180318	0.088652	0.537606
	N258	N	0.823536	0.090436	0.465186
	N259	N	0.825202	0.918719	0.538213
	N260	N	0.466633	0.185502	0.913590
	N261	N	0.536574	0.186259	0.090836
	N262	N	0.466494	0.822155	0.091162
	N263	N	0.536210	0.822432	0.913948
	N264	N	0.465808	0.917718	0.181697
	N265	N	0.539226	0.089528	0.180075
	N266	N	0.466197	0.090882	0.821436
	N267	N	0.538089	0.918984	0.824391
	N268	N	0.915028	0.184354	0.465718
	N269	N	0.090148	0.183806	0.536461
	N270	N	0.089880	0.823524	0.465633
	N271	N	0.914847	0.823204	0.536563
	N272	N	0.183033	0.468033	0.913317
	N273	N	0.183978	0.538432	0.090171
	N274	N	0.819964	0.468889	0.089342
	N275	N	0.819859	0.538913	0.913033
	O276	O	0.291157	0.523282	0.296668
	H277	H	0.277544	0.521915	0.267283
	H278	H	0.294371	0.549917	0.314518
	O279	O	0.891521	0.128728	0.863821
	H280	H	0.891761	0.132680	0.847335
	H281	H	0.901267	0.139566	0.869889
	O282	O	0.506489	0.407848	0.560831
	H283	H	0.519431	0.408345	0.570897
	H284	H	0.521192	0.397437	0.567715
	O285	O	0.478690	0.717546	0.425922
	H286	H	0.482377	0.732774	0.436955
	H287	H	0.476773	0.707271	0.431617
	O288	O	0.979259	0.789106	0.206837
	H289	H	0.953697	0.796195	0.200750
	H290	H	0.982117	0.775021	0.232736
	O291	O	0.387549	0.344216	0.425960
	H292	H	0.391459	0.339244	0.428594
	H293	H	0.378529	0.352160	0.443745
	O294	O	0.194353	-0.138711	0.819817
	H295	H	0.196076	-0.137585	0.845991
	H296	H	0.191103	-0.110704	0.816554
	O297	O	0.507083	0.507187	0.287024
	H298	H	0.501146	0.531334	0.286168
	H299	H	0.487611	0.485255	0.294591
	O300	O	0.723406	0.442375	0.538075
	H301	H	0.721416	0.441272	0.545086
	H302	H	0.729135	0.430142	0.528084
	O303	O	0.653017	0.320364	0.659171
	H304	H	0.634848	0.334418	0.658948
	H305	H	0.639009	0.324012	0.638557
	O306	O	0.409657	0.568603	0.593614
	H307	H	0.416416	0.562978	0.608790
	H308	H	0.425294	0.569400	0.583908
	O309	O	0.709214	0.489033	0.288987
	H310	H	0.719232	0.472494	0.269480
	H311	H	0.690553	0.495523	0.272591
	O312	O	0.046140	0.788252	1.043190
	H313	H	0.044173	0.791191	1.029716
	H314	H	0.034561	0.789061	1.070498
	O315	O	0.551383	0.665216	0.318483
	H316	H	0.559158	0.671530	0.326513
	H317	H	0.548840	0.665448	0.319033
	O318	O	1.015203	-0.011430	0.158322
	H319	H	1.014412	-0.034951	0.161116
	H320	H	1.024055	-0.002564	0.163750
	O321	O	0.020269	0.163020	-0.071324
	H322	H	0.020872	0.152392	-0.071023
	H323	H	0.008949	0.170165	-0.067854
	O324	O	0.679057	0.308901	0.461556
	H325	H	0.661584	0.315295	0.442936
	H326	H	0.691689	0.297116	0.456914
	O327	O	0.369952	0.306022	0.695757
	H328	H	0.361758	0.307395	0.675509
	H329	H	0.361949	0.323212	0.712645
	O330	O	-0.016110	0.993601	0.128018
	H331	H	-0.015096	0.987829	0.119238
	H332	H	-0.011931	1.012301	0.131167
	O333	O	0.304997	0.284968	0.516763
	H334	H	0.296390	0.276462	0.520329
	H335	H	0.287309	0.285887	0.505352
	O336	O	0.163291	0.174975	-0.000078
	H337	H	0.166596	0.180820	-0.016007
	H338	H	0.162526	0.159828	-0.018449
	O339	O	0.210785	0.790119	0.963645
	H340	H	0.195715	0.782266	0.955971
	H341	H	0.222804	0.777628	0.969918
	O342	O	0.199301	0.922289	1.067473
	H343	H	0.210972	0.908751	1.067279
	H344	H	0.186628	0.929381	1.085077
	O345	O	0.825147	0.825810	0.133455
	H346	H	0.823277	0.823105	0.110731
	H347	H	0.825101	0.863822	0.142556
	O348	O	0.317339	0.682279	0.317496
	H349	H	0.313098	0.670708	0.342002
	H350	H	0.350740	0.697217	0.307933
	O351	O	0.052239	0.802220	0.794703
	H352	H	0.062704	0.799320	0.794001
	H353	H	0.050827	0.789744	0.785125
	O354	O	-0.030620	1.201111	0.010271
	H355	H	-0.040250	1.204025	-0.000246
	H356	H	-0.017802	1.196443	0.001250
	O357	O	0.140576	-0.000445	0.805297
	H358	H	0.140749	0.008428	0.826592
	H359	H	0.147019	-0.003607	0.794199
	O360	O	0.509781	0.652864	0.603447
	H361	H	0.533744	0.655420	0.609083
	H362	H	0.514440	0.669095	0.608027
	O363	O	-0.047621	-0.014814	0.843607
	H364	H	-0.033923	-0.035578	0.828931
	H365	H	-0.043810	-0.002522	0.855057
	O366	O	0.521774	0.341689	0.287781
	H367	H	0.508291	0.353971	0.281917
	H368	H	0.516773	0.333483	0.272387
	O369	O	0.362075	0.539185	0.530022
	H370	H	0.360746	0.543967	0.534905
	H371	H	0.368111	0.534581	0.532940
	O372	O	0.940644	0.020814	1.074776
	H373	H	0.922693	0.012110	1.072111
	H374	H	0.949626	0.039616	1.075187
	O375	O	0.317118	0.482226	0.676061
	H376	H	0.304368	0.490793	0.662686
	H377	H	0.322269	0.498390	0.681148
	O378	O	0.586056	0.711753	0.712391
	H379	H	0.602075	0.723593	0.701627
	H380	H	0.613290	0.727344	0.726666
	O381	O	0.519818	0.436971	0.448309
	H382	H	0.491439	0.446632	0.445499
	H383	H	0.520597	0.449306	0.466643
	O384	O	0.691655	0.320913	0.322532
	H385	H	0.648135	0.309037	0.311611
	H386	H	0.696691	0.347172	0.328947
	O387	O	0.073826	0.105837	0.877264
	H388	H	0.067663	0.091974	0.872810
	H389	H	0.053765	0.098612	0.865134
	O390	O	0.187372	0.193195	0.174932
	H391	H	0.187111	0.194278	0.180416
	H392	H	0.184969	0.199777	0.136508
	O393	O	0.940523	0.974513	0.837554
	H394	H	0.931940	0.982259	0.843917
	H395	H	0.938255	0.988425	0.832486
	O396	O	0.813014	0.169209	-0.118402
	H397	H	0.810883	0.172147	-0.125600
	H398	H	0.815982	0.185532	-0.117228
	O399	O	0.789334	0.213731	0.949628
	H400	H	0.772465	0.235486	0.939834
	H401	H	0.800444	0.214506	0.934785
	O402	O	0.810653	0.807734	0.970564
	H403	H	0.793014	0.816748	0.964196
	H404	H	0.819124	0.807912	0.970585
	O405	O	0.792614	0.933372	0.187602
	H406	H	0.809056	0.946616	0.194089
	H407	H	0.780964	0.946318	0.194068
	O408	O	0.987394	-0.114818	-0.062042
	H409	H	0.972151	-0.097631	-0.057783
	H410	H	0.992753	-0.116128	-0.053587
	O411	O	0.802857	0.991191	0.036578
	H412	H	0.804420	0.995969	0.040247
	H413	H	0.801132	0.991013	0.046783
	O414	O	0.330822	0.488098	0.509928
	H415	H	0.343822	0.490884	0.505014
	H416	H	0.327330	0.504982	0.513705
	O417	O	0.468763	0.314796	0.550953
	H418	H	0.475232	0.305131	0.566233
	H419	H	0.453062	0.325154	0.565405
	O420	O	0.216881	0.042874	0.212545
	H421	H	0.214198	0.051085	0.220960
	H422	H	0.235551	0.058492	0.234125
	O423	O	0.703341	0.535004	0.698796
	H424	H	0.714264	0.530752	0.693847
	H425	H	0.708065	0.531410	0.702761
	O426	O	0.704647	0.552610	0.461559
	H427	H	0.700726	0.544689	0.442086
	H428	H	0.710920	0.547051	0.447368
	O429	O	0.293652	0.715095	0.481543
	H430	H	0.278284	0.710896	0.482072
	H431	H	0.289693	0.728619	0.480542
	O432	O	0.511297	0.435289	0.640266
	H433	H	0.512078	0.432971	0.640916
	H434	H	0.497950	0.449459	0.643026
	O435	O	0.567600	0.673287	0.533786
	H436	H	0.577398	0.674858	0.525035
	H437	H	0.586272	0.671045	0.533928
	O438	O	0.023650	0.212410	0.205983
	H439	H	0.038965	0.216254	0.191657
	H440	H	0.031796	0.239614	0.219238
	O441	O	1.129735	0.085627	-0.044439
	H442	H	1.128250	0.080275	-0.038339
	H443	H	1.120267	0.077481	-0.032957
	O444	O	-0.091091	0.999123	1.000484
	H445	H	-0.107803	0.995387	0.994824
	H446	H	-0.088099	1.007916	1.005928
	O447	O	0.541482	0.679115	0.449419
	H448	H	0.524029	0.680767	0.472048
	H449	H	0.548899	0.683445	0.452196
	O450	O	0.696466	0.705486	0.631101
	H451	H	0.713812	0.711500	0.607117
	H452	H	0.695960	0.679004	0.626398
	O453	O	0.422825	0.462787	0.711693
	H454	H	0.405760	0.469182	0.712204
	H455	H	0.422271	0.487529	0.703398
