data_Molecule from HDF5

_cell_length_a		16.404695
_cell_length_b		16.177766
_cell_length_c		16.116621
_cell_angle_alpha	89.891816
_cell_angle_beta	89.665421
_cell_angle_gamma	90.034879
_symmetry_space_group_name_H-M	'P 1'
_symmetry_Int_Tables_number		1

loop_
	_symmetry_equiv_pos_as_xyz
	x,y,z

loop_
	_atom_site_label
	_atom_site_type_symbol
	_atom_site_fract_x
	_atom_site_fract_y
	_atom_site_fract_z
	H0	H	0.404135	0.835868	0.715824
	H1	H	0.596092	0.167000	0.713031
	H2	H	0.597188	0.835486	0.291288
	H3	H	0.407890	0.166724	0.291405
	H4	H	0.716031	0.402262	0.838961
	H5	H	0.714009	0.602124	0.167272
	H6	H	0.286868	0.601214	0.837964
	H7	H	0.284288	0.399550	0.167106
	H8	H	0.837248	0.716951	0.405025
	H9	H	0.163224	0.715296	0.598486
	H10	H	0.837415	0.285505	0.601750
	H11	H	0.162987	0.287077	0.401517
	H12	H	0.836450	0.403711	0.717379
	H13	H	0.163610	0.598760	0.715069
	H14	H	0.836386	0.598523	0.290213
	H15	H	0.163278	0.405286	0.287362
	H16	H	0.405745	0.713574	0.836584
	H17	H	0.595057	0.711726	0.168640
	H18	H	0.598322	0.290419	0.837130
	H19	H	0.403962	0.289641	0.168901
	H20	H	0.717165	0.837591	0.401747
	H21	H	0.716493	0.165174	0.603190
	H22	H	0.283637	0.837526	0.605292
	H23	H	0.286121	0.164073	0.400269
	H24	H	0.902936	0.336702	0.214853
	H25	H	0.094424	0.667572	0.213042
	H26	H	0.096315	0.335649	0.790398
	H27	H	0.907402	0.667578	0.793694
	H28	H	0.218592	0.898769	0.338950
	H29	H	0.215142	0.102194	0.667197
	H30	H	0.787401	0.100589	0.337960
	H31	H	0.785900	0.901544	0.667020
	H32	H	0.338590	0.215753	0.905298
	H33	H	0.663658	0.217060	0.100492
	H34	H	0.338622	0.786045	0.103368
	H35	H	0.664667	0.787440	0.903237
	H36	H	0.338403	0.903946	0.218217
	H37	H	0.665117	0.098126	0.214823
	H38	H	0.338608	0.098898	0.789491
	H39	H	0.665104	0.904591	0.787873
	H40	H	0.904964	0.212937	0.335834
	H41	H	0.095128	0.213249	0.668001
	H42	H	0.098996	0.789060	0.336645
	H43	H	0.905030	0.791367	0.668523
	H44	H	0.216223	0.336887	0.902372
	H45	H	0.216823	0.664759	0.103764
	H46	H	0.783224	0.338402	0.104383
	H47	H	0.785675	0.665359	0.902295
	H48	H	0.405604	0.120574	0.600898
	H49	H	0.587149	0.885031	0.598358
	H50	H	0.596238	0.121247	0.401914
	H51	H	0.408196	0.883724	0.413984
	H52	H	0.585442	0.414412	0.117909
	H53	H	0.603882	0.595817	0.881050
	H54	H	0.404667	0.592751	0.121258
	H55	H	0.411288	0.407128	0.884950
	H56	H	0.117510	0.601493	0.407829
	H57	H	0.883889	0.594822	0.599723
	H58	H	0.112703	0.411506	0.587017
	H59	H	0.888643	0.412357	0.418507
	H60	H	0.116442	0.412785	0.603915
	H61	H	0.882032	0.598575	0.600947
	H62	H	0.113605	0.592912	0.412704
	H63	H	0.882630	0.411834	0.399690
	H64	H	0.407829	0.591329	0.119799
	H65	H	0.593568	0.586900	0.886639
	H66	H	0.591827	0.399796	0.123659
	H67	H	0.404552	0.407343	0.883898
	H68	H	0.590990	0.116865	0.412552
	H69	H	0.594708	0.886155	0.585469
	H70	H	0.413649	0.115832	0.593442
	H71	H	0.405579	0.883002	0.410678
	H72	H	0.908395	0.614245	0.079659
	H73	H	0.091143	0.386420	0.086641
	H74	H	0.093679	0.620115	0.906839
	H75	H	0.897716	0.381971	0.914589
	H76	H	0.091489	0.902561	0.621579
	H77	H	0.101428	0.088497	0.384249
	H78	H	0.910270	0.092339	0.619421
	H79	H	0.910031	0.906184	0.383249
	H80	H	0.617968	0.092257	0.902000
	H81	H	0.388751	0.101541	0.081236
	H82	H	0.618661	0.910508	0.102039
	H83	H	0.385192	0.908493	0.906518
	H84	H	0.619847	0.898890	0.097654
	H85	H	0.389664	0.079024	0.101046
	H86	H	0.619988	0.102926	0.907146
	H87	H	0.385383	0.904736	0.911230
	H88	H	0.905873	0.096705	0.621879
	H89	H	0.088709	0.090657	0.386856
	H90	H	0.100212	0.911687	0.622127
	H91	H	0.904272	0.908793	0.382230
	H92	H	0.093656	0.617078	0.913195
	H93	H	0.101517	0.381646	0.095386
	H94	H	0.890196	0.625419	0.099364
	H95	H	0.907917	0.380793	0.902011
	H96	H	0.402801	0.118826	0.589458
	H97	H	0.601678	0.880033	0.597799
	H98	H	0.602714	0.120293	0.412906
	H99	H	0.409394	0.882480	0.409932
	H100	H	0.601151	0.414273	0.122268
	H101	H	0.590650	0.600892	0.883675
	H102	H	0.407317	0.594249	0.120979
	H103	H	0.408233	0.413146	0.885410
	H104	H	0.116158	0.592718	0.402516
	H105	H	0.883562	0.598032	0.596651
	H106	H	0.117903	0.398449	0.595479
	H107	H	0.881473	0.395753	0.411237
	H108	H	0.917286	0.620050	0.106623
	H109	H	0.088068	0.384105	0.101015
	H110	H	0.098861	0.619367	0.910605
	H111	H	0.912922	0.386934	0.916492
	H112	H	0.088648	0.914127	0.617399
	H113	H	0.096569	0.100297	0.382181
	H114	H	0.904520	0.090874	0.620238
	H115	H	0.909085	0.912603	0.385770
	H116	H	0.614943	0.093016	0.914149
	H117	H	0.378833	0.105776	0.109366
	H118	H	0.614941	0.907768	0.090584
	H119	H	0.387396	0.910431	0.912587
	C120	C	0.378840	0.009529	0.624128
	C121	C	0.622532	0.992650	0.622829
	C122	C	0.623834	0.010062	0.381205
	C123	C	0.380493	0.992363	0.382146
	C124	C	0.621641	0.381184	0.011830
	C125	C	0.622786	0.622534	0.993375
	C126	C	0.379182	0.622120	0.011355
	C127	C	0.379223	0.380210	0.994052
	C128	C	0.008192	0.623978	0.380187
	C129	C	0.991488	0.624602	0.625557
	C130	C	0.008127	0.379417	0.624276
	C131	C	0.991807	0.379065	0.380159
	C132	C	0.877534	0.510940	0.124118
	C133	C	0.121171	0.493052	0.123329
	C134	C	0.123137	0.509837	0.881036
	C135	C	0.879119	0.492513	0.882550
	C136	C	0.122405	0.880457	0.511028
	C137	C	0.122924	0.122397	0.493753
	C138	C	0.879244	0.122277	0.511201
	C139	C	0.879585	0.880774	0.493324
	C140	C	0.510259	0.124482	0.879861
	C141	C	0.493287	0.123451	0.124968
	C142	C	0.509947	0.878342	0.125602
	C143	C	0.493550	0.879710	0.880994
	C144	C	0.382844	0.885475	0.678890
	C145	C	0.618253	0.117451	0.676716
	C146	C	0.619455	0.885246	0.327608
	C147	C	0.385243	0.116961	0.327629
	C148	C	0.677233	0.382925	0.887680
	C149	C	0.676343	0.621047	0.117991
	C150	C	0.325238	0.620491	0.886893
	C151	C	0.323161	0.380688	0.118151
	C152	C	0.885605	0.678554	0.384368
	C153	C	0.114492	0.678043	0.620186
	C154	C	0.885718	0.324156	0.622004
	C155	C	0.114281	0.324526	0.381363
	C156	C	0.885247	0.382880	0.679453
	C157	C	0.114535	0.620241	0.678232
	C158	C	0.885234	0.620115	0.327059
	C159	C	0.114330	0.383485	0.324651
	C160	C	0.383864	0.676583	0.886271
	C161	C	0.617198	0.675652	0.118894
	C162	C	0.619155	0.326838	0.886989
	C163	C	0.382339	0.325801	0.118926
	C164	C	0.678952	0.886422	0.382406
	C165	C	0.677786	0.116459	0.621992
	C166	C	0.322989	0.886186	0.623935
	C167	C	0.324953	0.115616	0.381813
	C168	C	0.881280	0.386265	0.178275
	C169	C	0.116324	0.617768	0.176759
	C170	C	0.118678	0.385411	0.827105
	C171	C	0.884935	0.617826	0.829679
	C172	C	0.178821	0.880986	0.387244
	C173	C	0.177208	0.121360	0.617838
	C174	C	0.825278	0.120419	0.386771
	C175	C	0.824146	0.882232	0.617929
	C176	C	0.387342	0.178538	0.884086
	C177	C	0.615528	0.178395	0.121111
	C178	C	0.387408	0.823926	0.123462
	C179	C	0.616250	0.825446	0.883278
	C180	C	0.387253	0.882492	0.180586
	C181	C	0.616122	0.119321	0.177911
	C182	C	0.387415	0.120654	0.826277
	C183	C	0.616343	0.883361	0.825502
	C184	C	0.883914	0.175883	0.385718
	C185	C	0.117569	0.176642	0.618435
	C186	C	0.119502	0.825973	0.386399
	C187	C	0.883137	0.827307	0.618683
	C188	C	0.178388	0.386130	0.882346
	C189	C	0.177076	0.616479	0.122585
	C190	C	0.822041	0.387024	0.123099
	C191	C	0.824030	0.616393	0.882929
	C192	C	0.400845	0.095941	0.601207
	C193	C	0.600974	0.906157	0.600567
	C194	C	0.602987	0.096925	0.402700
	C195	C	0.401406	0.905514	0.404907
	C196	C	0.599183	0.403016	0.098848
	C197	C	0.602112	0.600985	0.906235
	C198	C	0.400219	0.599337	0.098276
	C199	C	0.401433	0.402749	0.907114
	C200	C	0.093676	0.602181	0.401295
	C201	C	0.905446	0.603482	0.605064
	C202	C	0.093596	0.401185	0.602095
	C203	C	0.906293	0.400439	0.403112
	C204	C	0.898960	0.597453	0.101802
	C205	C	0.099897	0.406375	0.100786
	C206	C	0.101739	0.596590	0.903380
	C207	C	0.899741	0.405761	0.904573
	C208	C	0.100139	0.902872	0.597880
	C209	C	0.101842	0.099749	0.406841
	C210	C	0.900611	0.100192	0.598002
	C211	C	0.901446	0.902788	0.406234
	C212	C	0.595641	0.102514	0.901352
	C213	C	0.407775	0.101822	0.103597
	C214	C	0.595744	0.899629	0.103331
	C215	C	0.408087	0.901295	0.903570
	Zn216	Zn	0.501939	0.001234	0.751357
	Zn217	Zn	0.501935	0.000831	0.254234
	Zn218	Zn	0.749958	0.501855	0.002687
	Zn219	Zn	0.250953	0.501151	0.003112
	Zn220	Zn	0.000146	0.753069	0.502258
	Zn221	Zn	0.000345	0.250250	0.501829
	Zn222	Zn	0.000186	0.501627	0.754111
	Zn223	Zn	-0.000750	0.501850	0.251423
	Zn224	Zn	0.501418	0.749673	0.002888
	Zn225	Zn	0.501182	0.253249	0.002825
	Zn226	Zn	0.751706	0.001444	0.502800
	Zn227	Zn	0.251277	0.000792	0.502411
	N228	N	0.416940	0.963314	0.679196
	N229	N	0.584600	0.039561	0.677517
	N230	N	0.585854	0.963137	0.326715
	N231	N	0.419098	0.039284	0.327829
	N232	N	0.679147	0.415537	0.966348
	N233	N	0.679828	0.588749	0.039164
	N234	N	0.322106	0.587629	0.965719
	N235	N	0.321101	0.413662	0.039458
	N236	N	0.963011	0.681074	0.416669
	N237	N	0.036834	0.680854	0.588212
	N238	N	0.962931	0.321952	0.588459
	N239	N	0.037223	0.321898	0.415284
	N240	N	0.962372	0.416732	0.680988
	N241	N	0.037157	0.587631	0.681485
	N242	N	0.962315	0.586802	0.324568
	N243	N	0.037069	0.416480	0.323774
	N244	N	0.416680	0.677807	0.964628
	N245	N	0.584379	0.676639	0.040575
	N246	N	0.585010	0.325905	0.965243
	N247	N	0.416633	0.325271	0.040742
	N248	N	0.681626	0.964887	0.415171
	N249	N	0.680611	0.037988	0.589266
	N250	N	0.320411	0.964466	0.590749
	N251	N	0.322093	0.037127	0.415113
	N252	N	0.915025	0.464086	0.179115
	N253	N	0.082395	0.539873	0.177344
	N254	N	0.085007	0.463273	0.826164
	N255	N	0.918481	0.539891	0.829053
	N256	N	0.180680	0.914259	0.465656
	N257	N	0.180635	0.088620	0.539091
	N258	N	0.822572	0.087601	0.465457
	N259	N	0.821729	0.914679	0.538968
	N260	N	0.464769	0.181095	0.916614
	N261	N	0.538103	0.181111	0.088868
	N262	N	0.464632	0.821279	0.089710
	N263	N	0.538864	0.822743	0.916824
	N264	N	0.464597	0.915398	0.182084
	N265	N	0.539079	0.085726	0.180069
	N266	N	0.464635	0.087675	0.823578
	N267	N	0.539087	0.916436	0.824066
	N268	N	0.916914	0.177286	0.464174
	N269	N	0.084770	0.177717	0.540096
	N270	N	0.084874	0.825700	0.464410
	N271	N	0.917053	0.826372	0.540421
	N272	N	0.180972	0.464554	0.915404
	N273	N	0.180375	0.537872	0.090266
	N274	N	0.819531	0.465519	0.090203
	N275	N	0.820275	0.537603	0.915157
	O276	O	0.404575	0.410692	0.493024
	H277	H	0.397712	0.413596	0.507224
	H278	H	0.395156	0.405994	0.506042
	O279	O	0.106855	-0.014941	-0.023405
	H280	H	0.109404	-0.018879	-0.021903
	H281	H	0.108764	-0.020652	-0.028126
	O282	O	0.427623	0.482700	0.512936
	H283	H	0.425904	0.474557	0.511935
	H284	H	0.426149	0.490236	0.508054
	O285	O	0.433133	0.452294	0.542148
	H286	H	0.432213	0.452790	0.540508
	H287	H	0.441885	0.452618	0.545060
	O288	O	1.092794	-0.009338	-0.046015
	H289	H	1.095049	-0.004438	-0.048021
	H290	H	1.093209	-0.014678	-0.043604
	O291	O	-0.587500	0.471153	-0.531558
	H292	H	-0.587098	0.468457	-0.528136
	H293	H	-0.600604	0.474278	-0.527118
	O294	O	0.486164	0.488684	0.504983
	H295	H	0.482189	0.496785	0.503044
	H296	H	0.490253	0.487756	0.498735
	O297	O	0.426822	1.463079	0.555247
	H298	H	0.426802	1.455115	0.555246
	H299	H	0.431315	1.466889	0.554477
	O300	O	1.445263	0.458316	0.517724
	H301	H	1.449282	0.449767	0.513243
	H302	H	1.444848	0.450569	0.517767
	O303	O	0.455936	0.517376	0.516181
	H304	H	0.451624	0.509934	0.521812
	H305	H	0.460824	0.510379	0.525635
	O306	O	0.092557	0.976122	0.972231
	H307	H	0.097604	0.972712	0.967631
	H308	H	0.103535	0.977911	0.968486
	O309	O	0.448501	0.459403	0.544356
	H310	H	0.453997	0.457260	0.543065
	H311	H	0.445722	0.470282	0.528858
