data_Molecule from HDF5

_cell_length_a		16.264951
_cell_length_b		16.661839
_cell_length_c		16.331517
_cell_angle_alpha	89.910775
_cell_angle_beta	90.315979
_cell_angle_gamma	90.023088
_symmetry_space_group_name_H-M	'P 1'
_symmetry_Int_Tables_number		1

loop_
	_symmetry_equiv_pos_as_xyz
	x,y,z

loop_
	_atom_site_label
	_atom_site_type_symbol
	_atom_site_fract_x
	_atom_site_fract_y
	_atom_site_fract_z
	H0	H	0.402443	0.846000	0.722206
	H1	H	0.615317	0.157956	0.726480
	H2	H	0.613038	0.845940	0.280450
	H3	H	0.402280	0.159686	0.278094
	H4	H	0.724073	0.401122	0.841533
	H5	H	0.727164	0.607708	0.161013
	H6	H	0.286045	0.604665	0.841000
	H7	H	0.292122	0.403908	0.163005
	H8	H	0.847275	0.727645	0.394333
	H9	H	0.166863	0.724847	0.608122
	H10	H	0.850833	0.278583	0.614564
	H11	H	0.163787	0.284556	0.395194
	H12	H	0.846099	0.402468	0.720110
	H13	H	0.167727	0.608225	0.722376
	H14	H	0.845294	0.609436	0.281323
	H15	H	0.167005	0.406192	0.287369
	H16	H	0.394277	0.727159	0.843569
	H17	H	0.614790	0.726710	0.159257
	H18	H	0.613340	0.280481	0.843888
	H19	H	0.398804	0.279219	0.158909
	H20	H	0.729800	0.846314	0.397714
	H21	H	0.731666	0.159333	0.608975
	H22	H	0.284851	0.846437	0.606017
	H23	H	0.283818	0.159329	0.393872
	H24	H	0.897952	0.348299	0.227276
	H25	H	0.107809	0.662336	0.221202
	H26	H	0.113225	0.349325	0.777939
	H27	H	0.898695	0.659976	0.778547
	H28	H	0.221375	0.905355	0.340565
	H29	H	0.228672	0.107338	0.660999
	H30	H	0.785661	0.109511	0.342228
	H31	H	0.790749	0.903421	0.662325
	H32	H	0.347445	0.224818	0.892195
	H33	H	0.664386	0.228579	0.112936
	H34	H	0.346775	0.782743	0.107221
	H35	H	0.662444	0.778986	0.893107
	H36	H	0.346057	0.902526	0.219029
	H37	H	0.667413	0.108555	0.223179
	H38	H	0.347412	0.106749	0.778496
	H39	H	0.667131	0.901085	0.784752
	H40	H	0.896672	0.230209	0.344244
	H41	H	0.119096	0.229625	0.659015
	H42	H	0.115123	0.781563	0.344663
	H43	H	0.898785	0.780356	0.658403
	H44	H	0.225085	0.346582	0.899341
	H45	H	0.228301	0.660690	0.106271
	H46	H	0.780996	0.347259	0.110421
	H47	H	0.782251	0.659621	0.897027
	H48	H	0.423471	0.113704	0.592380
	H49	H	0.591137	0.896444	0.585176
	H50	H	0.598465	0.117516	0.405605
	H51	H	0.410732	0.889966	0.413067
	H52	H	0.586973	0.420078	0.111248
	H53	H	0.591489	0.593179	0.888151
	H54	H	0.412012	0.585066	0.114954
	H55	H	0.413937	0.405998	0.884040
	H56	H	0.119472	0.592013	0.412419
	H57	H	0.895317	0.590567	0.586075
	H58	H	0.117730	0.420194	0.583889
	H59	H	0.890285	0.412425	0.417659
	H60	H	0.121375	0.420239	0.595520
	H61	H	0.890977	0.594537	0.593057
	H62	H	0.122482	0.598360	0.410222
	H63	H	0.892906	0.419326	0.419780
	H64	H	0.429873	0.595000	0.111846
	H65	H	0.590251	0.591005	0.889214
	H66	H	0.587738	0.407394	0.116064
	H67	H	0.412059	0.415804	0.886808
	H68	H	0.590168	0.112040	0.411579
	H69	H	0.607022	0.890002	0.587406
	H70	H	0.421137	0.111916	0.584055
	H71	H	0.417010	0.889809	0.404225
	H72	H	0.921836	0.609497	0.083101
	H73	H	0.098161	0.390754	0.098922
	H74	H	0.094654	0.615747	0.913281
	H75	H	0.914037	0.391144	0.911521
	H76	H	0.094772	0.916267	0.615334
	H77	H	0.087275	0.092063	0.392416
	H78	H	0.923388	0.089298	0.612255
	H79	H	0.915305	0.918424	0.387619
	H80	H	0.621372	0.095825	0.916566
	H81	H	0.396914	0.087997	0.083133
	H82	H	0.622168	0.906507	0.085641
	H83	H	0.391324	0.917000	0.911287
	H84	H	0.618425	0.918559	0.084580
	H85	H	0.392185	0.089533	0.094993
	H86	H	0.618543	0.090513	0.917961
	H87	H	0.390507	0.912294	0.911008
	H88	H	0.926257	0.096409	0.614186
	H89	H	0.091524	0.103850	0.385243
	H90	H	0.093120	0.911426	0.616905
	H91	H	0.924832	0.918163	0.390262
	H92	H	0.095095	0.615767	0.914156
	H93	H	0.094582	0.392497	0.094851
	H94	H	0.906925	0.617495	0.088589
	H95	H	0.918894	0.392242	0.910532
	H96	H	0.415236	0.115533	0.589781
	H97	H	0.595375	0.889950	0.599983
	H98	H	0.600371	0.114304	0.417043
	H99	H	0.420998	0.894040	0.413305
	H100	H	0.598858	0.415111	0.117210
	H101	H	0.588901	0.593403	0.888969
	H102	H	0.413762	0.604540	0.120739
	H103	H	0.422153	0.411941	0.887857
	H104	H	0.120549	0.597572	0.417090
	H105	H	0.892584	0.599085	0.585044
	H106	H	0.122940	0.409956	0.588631
	H107	H	0.890103	0.418106	0.412469
	H108	H	0.921015	0.616063	0.099216
	H109	H	0.099914	0.391606	0.093357
	H110	H	0.095465	0.615770	0.913301
	H111	H	0.917164	0.394379	0.914936
	H112	H	0.097788	0.912743	0.617634
	H113	H	0.100501	0.092887	0.386614
	H114	H	0.918562	0.094447	0.616206
	H115	H	0.920375	0.910060	0.386483
	H116	H	0.621359	0.091001	0.911928
	H117	H	0.391591	0.098591	0.086198
	H118	H	0.623265	0.914148	0.096306
	H119	H	0.392313	0.914616	0.915347
	C120	C	0.386153	0.010701	0.621969
	C121	C	0.630907	0.994715	0.624481
	C122	C	0.629511	0.011331	0.379656
	C123	C	0.384020	0.994664	0.377605
	C124	C	0.625439	0.382184	0.010303
	C125	C	0.625222	0.624859	0.993243
	C126	C	0.384297	0.625971	0.010411
	C127	C	0.384484	0.380439	0.992194
	C128	C	0.015072	0.627555	0.380451
	C129	C	0.998418	0.626552	0.622344
	C130	C	0.015929	0.383870	0.622889
	C131	C	0.996806	0.385558	0.383469
	C132	C	0.883109	0.511673	0.124015
	C133	C	0.128883	0.495517	0.125867
	C134	C	0.126993	0.512400	0.881343
	C135	C	0.883517	0.495477	0.879479
	C136	C	0.127365	0.882943	0.510916
	C137	C	0.127522	0.126954	0.493109
	C138	C	0.887047	0.126754	0.510065
	C139	C	0.887898	0.884285	0.493194
	C140	C	0.515208	0.124369	0.880682
	C141	C	0.498725	0.124603	0.122223
	C142	C	0.515217	0.882170	0.121239
	C143	C	0.496545	0.882326	0.880619
	C144	C	0.383455	0.893322	0.682600
	C145	C	0.633664	0.111465	0.686097
	C146	C	0.631544	0.893049	0.320429
	C147	C	0.382985	0.112547	0.317790
	C148	C	0.685277	0.381354	0.889826
	C149	C	0.687344	0.626820	0.112863
	C150	C	0.324552	0.625135	0.889667
	C151	C	0.328684	0.382337	0.113981
	C152	C	0.894897	0.687649	0.376731
	C153	C	0.118881	0.685511	0.626217
	C154	C	0.897643	0.320790	0.629604
	C155	C	0.116561	0.325340	0.379015
	C156	C	0.895213	0.382579	0.682227
	C157	C	0.119093	0.627131	0.683009
	C158	C	0.893698	0.628449	0.320932
	C159	C	0.117825	0.385716	0.325053
	C160	C	0.378382	0.686292	0.891024
	C161	C	0.631241	0.686188	0.111916
	C162	C	0.630164	0.321337	0.891061
	C163	C	0.381600	0.320458	0.111829
	C164	C	0.689812	0.893318	0.378680
	C165	C	0.691588	0.112063	0.627588
	C166	C	0.325003	0.893495	0.624443
	C167	C	0.324259	0.112592	0.375671
	C168	C	0.879935	0.394859	0.186355
	C169	C	0.128441	0.614688	0.183008
	C170	C	0.130389	0.395590	0.819409
	C171	C	0.880580	0.612988	0.819097
	C172	C	0.183999	0.884648	0.389265
	C173	C	0.189382	0.127367	0.612727
	C174	C	0.825019	0.128685	0.390516
	C175	C	0.829198	0.883721	0.613888
	C176	C	0.395213	0.184364	0.875586
	C177	C	0.617260	0.187018	0.128430
	C178	C	0.394423	0.823407	0.124130
	C179	C	0.616006	0.820893	0.876751
	C180	C	0.394005	0.882827	0.179848
	C181	C	0.618843	0.127154	0.183607
	C182	C	0.395240	0.125844	0.818723
	C183	C	0.618120	0.881306	0.822748
	C184	C	0.880310	0.188891	0.391501
	C185	C	0.134205	0.187906	0.611795
	C186	C	0.131035	0.823068	0.391412
	C187	C	0.883066	0.822692	0.612125
	C188	C	0.186119	0.394058	0.879937
	C189	C	0.188214	0.613799	0.125836
	C190	C	0.821752	0.394246	0.127891
	C191	C	0.822521	0.612879	0.877860
	C192	C	0.412340	0.092480	0.596135
	C193	C	0.605136	0.913275	0.598371
	C194	C	0.603869	0.093205	0.404271
	C195	C	0.409199	0.912612	0.402721
	C196	C	0.598956	0.407234	0.093110
	C197	C	0.597830	0.599770	0.910233
	C198	C	0.410996	0.601977	0.094019
	C199	C	0.408808	0.404264	0.908223
	C200	C	0.098931	0.603190	0.405922
	C201	C	0.914772	0.601882	0.595733
	C202	C	0.099195	0.409391	0.596815
	C203	C	0.912853	0.409739	0.409239
	C204	C	0.909044	0.593030	0.097698
	C205	C	0.104491	0.413102	0.102291
	C206	C	0.102080	0.594167	0.906361
	C207	C	0.909340	0.413811	0.904990
	C208	C	0.102695	0.906729	0.594886
	C209	C	0.100786	0.102986	0.409781
	C210	C	0.914947	0.100953	0.592745
	C211	C	0.913118	0.908616	0.409858
	C212	C	0.598743	0.099482	0.907765
	C213	C	0.415266	0.099269	0.095581
	C214	C	0.599373	0.906108	0.096056
	C215	C	0.413279	0.907444	0.905516
	Zn216	Zn	0.507163	0.002491	0.752614
	Zn217	Zn	0.508045	0.002728	0.249561
	Zn218	Zn	0.753526	0.502960	0.002018
	Zn219	Zn	0.257860	0.503222	0.002098
	Zn220	Zn	0.007170	0.754831	0.501689
	Zn221	Zn	0.006718	0.256563	0.502149
	Zn222	Zn	0.006231	0.505119	0.750108
	Zn223	Zn	0.004762	0.504895	0.254408
	Zn224	Zn	0.505142	0.754000	0.000696
	Zn225	Zn	0.505825	0.252847	0.001219
	Zn226	Zn	0.759061	0.004131	0.501572
	Zn227	Zn	0.255392	0.003859	0.500758
	N228	N	0.420843	0.967252	0.680979
	N229	N	0.596510	0.037413	0.684281
	N230	N	0.594801	0.967273	0.320829
	N231	N	0.419372	0.038217	0.318924
	N232	N	0.682555	0.418433	0.964966
	N233	N	0.683681	0.589278	0.038117
	N234	N	0.328082	0.588291	0.965004
	N235	N	0.330095	0.418622	0.038465
	N236	N	0.971484	0.687290	0.412801
	N237	N	0.042922	0.685264	0.589299
	N238	N	0.973778	0.321405	0.593363
	N239	N	0.040046	0.325108	0.414575
	N240	N	0.969788	0.421124	0.678212
	N241	N	0.042796	0.591371	0.680845
	N242	N	0.969377	0.592058	0.322756
	N243	N	0.042303	0.422424	0.327724
	N244	N	0.414441	0.687189	0.967346
	N245	N	0.593386	0.685016	0.036403
	N246	N	0.593900	0.321596	0.966823
	N247	N	0.415176	0.318989	0.034835
	N248	N	0.688681	0.967941	0.414635
	N249	N	0.689830	0.038525	0.590000
	N250	N	0.326759	0.967568	0.587227
	N251	N	0.324739	0.038251	0.412195
	N252	N	0.917345	0.468945	0.184146
	N253	N	0.092421	0.540191	0.183239
	N254	N	0.094152	0.470020	0.820219
	N255	N	0.917519	0.538987	0.819830
	N256	N	0.181598	0.921451	0.464551
	N257	N	0.185253	0.089993	0.537941
	N258	N	0.828714	0.090888	0.465323
	N259	N	0.832370	0.921612	0.539220
	N260	N	0.471089	0.183750	0.913166
	N261	N	0.541507	0.185410	0.090759
	N262	N	0.470900	0.822843	0.088711
	N263	N	0.539530	0.821225	0.911869
	N264	N	0.470184	0.918443	0.178309
	N265	N	0.543915	0.089081	0.180025
	N266	N	0.470808	0.089512	0.821738
	N267	N	0.542943	0.918898	0.824987
	N268	N	0.918004	0.187728	0.467005
	N269	N	0.096598	0.187767	0.536314
	N270	N	0.096625	0.821893	0.468069
	N271	N	0.918861	0.822959	0.536083
	N272	N	0.184254	0.467588	0.917724
	N273	N	0.188881	0.538692	0.091192
	N274	N	0.823727	0.467728	0.089932
	N275	N	0.824072	0.538630	0.914514
	O276	O	0.458783	0.596844	0.498810
	H277	H	0.457620	0.590969	0.513243
	H278	H	0.460001	0.587215	0.496001
	O279	O	1.195550	0.199175	1.197840
	H280	H	1.210404	0.213410	1.154532
	H281	H	1.201880	0.203388	1.208100
	O282	O	0.440198	0.503446	0.442697
	H283	H	0.434991	0.500556	0.459864
	H284	H	0.461284	0.508224	0.448143
	O285	O	0.297844	0.289762	0.520802
	H286	H	0.282244	0.286673	0.543715
	H287	H	0.289583	0.279436	0.552315
	O288	O	0.799711	1.139970	0.020534
	H289	H	0.807664	1.142173	0.017323
	H290	H	0.802763	1.140500	0.035233
	O291	O	0.590999	0.471644	0.618284
	H292	H	0.602353	0.474264	0.622712
	H293	H	0.601904	0.476588	0.621638
	O294	O	-0.011803	0.127476	0.931655
	H295	H	-0.025530	0.120194	0.935060
	H296	H	-0.019561	0.134019	0.911761
	O297	O	0.315324	0.315762	0.687537
	H298	H	0.310978	0.337267	0.701123
	H299	H	0.359390	0.301656	0.702218
	O300	O	0.706446	0.702146	0.527302
	H301	H	0.702372	0.701014	0.524282
	H302	H	0.709082	0.696471	0.536813
	O303	O	0.303542	0.485748	0.683107
	H304	H	0.316302	0.491117	0.694812
	H305	H	0.295438	0.480072	0.688329
	O306	O	0.489785	0.292039	0.496470
	H307	H	0.496931	0.290730	0.499695
	H308	H	0.476812	0.295557	0.502560
	O309	O	0.572388	0.644440	0.512817
	H310	H	0.568266	0.657407	0.523272
	H311	H	0.553206	0.648895	0.496081
	O312	O	-0.080543	1.211409	1.101151
	H313	H	-0.074530	1.215729	1.126850
	H314	H	-0.069480	1.217022	1.091779
	O315	O	-0.155301	0.857645	0.836226
	H316	H	-0.148514	0.850416	0.823583
	H317	H	-0.148532	0.861819	0.858417
	O318	O	0.917991	-0.145496	-0.055026
	H319	H	0.900932	-0.152899	-0.046884
	H320	H	0.911715	-0.145541	-0.063315
	O321	O	0.429475	-0.501735	-0.707386
	H322	H	0.438248	-0.504179	-0.710368
	H323	H	0.426870	-0.491804	-0.700091
	O324	O	0.717169	0.537129	0.710754
	H325	H	0.718275	0.541955	0.705798
	H326	H	0.740313	0.534012	0.728907
	O327	O	0.024859	0.218123	0.873385
	H328	H	0.011343	0.216553	0.872870
	H329	H	0.028270	0.230858	0.855106
	O330	O	-0.042603	1.220705	0.095483
	H331	H	-0.024827	1.237820	0.093833
	H332	H	-0.033032	1.219716	0.089101
	O333	O	0.395683	0.645361	0.557056
	H334	H	0.385016	0.634820	0.564271
	H335	H	0.413544	0.638256	0.559777
	O336	O	-0.518035	-0.284291	-0.705975
	H337	H	-0.528719	-0.265505	-0.716064
	H338	H	-0.554624	-0.289633	-0.710018
	O339	O	0.134924	1.071466	0.842139
	H340	H	0.130836	1.048562	0.838262
	H341	H	0.115656	1.080467	0.836780
	O342	O	0.156954	0.872838	0.804580
	H343	H	0.154578	0.864391	0.833291
	H344	H	0.166150	0.915109	0.797735
	O345	O	1.113034	1.176435	0.021556
	H346	H	1.127722	1.180384	0.012274
	H347	H	1.134450	1.161625	0.011922
	O348	O	0.707746	0.473722	0.303937
	H349	H	0.719589	0.486778	0.285839
	H350	H	0.695378	0.502509	0.300397
	O351	O	0.211727	0.887033	1.000672
	H352	H	0.208629	0.887410	1.001806
	H353	H	0.215754	0.887302	1.013945
	O354	O	-0.067021	0.803969	0.198337
	H355	H	-0.064379	0.818953	0.202736
	H356	H	-0.076391	0.795591	0.218311
	O357	O	-0.001319	-0.064138	1.122628
	H358	H	-0.005015	-0.063476	1.116347
	H359	H	-0.001315	-0.066931	1.143207
	O360	O	0.360112	0.370745	0.307751
	H361	H	0.360791	0.384744	0.311529
	H362	H	0.361243	0.369212	0.324964
	O363	O	0.066890	-0.186945	1.030342
	H364	H	0.054236	-0.194275	1.030587
	H365	H	0.076112	-0.190424	1.017533
	O366	O	0.605852	0.648474	0.350295
	H367	H	0.592547	0.659123	0.376745
	H368	H	0.572625	0.657264	0.334143
	O369	O	0.739334	0.241161	0.772796
	H370	H	0.743154	0.249415	0.801236
	H371	H	0.735795	0.201047	0.774475
	O372	O	1.125739	-0.031048	1.098569
	H373	H	1.124842	-0.024607	1.103838
	H374	H	1.126497	-0.017310	1.100641
	O375	O	0.517046	0.328262	0.323975
	H376	H	0.497662	0.326476	0.350423
	H377	H	0.510484	0.313511	0.316588
	O378	O	-0.187473	0.800738	0.121704
	H379	H	-0.185885	0.791981	0.127086
	H380	H	-0.203399	0.818168	0.132471
	O381	O	0.493119	0.705576	0.663198
	H382	H	0.508619	0.704128	0.668363
	H383	H	0.496153	0.713656	0.658885
	O384	O	0.377638	0.513624	0.555153
	H385	H	0.386304	0.522188	0.551407
	H386	H	0.371069	0.518976	0.552991
	O387	O	0.216609	0.158169	0.984532
	H388	H	0.213150	0.135543	0.969624
	H389	H	0.221385	0.161056	0.979901
	O390	O	0.172956	-0.174490	0.072589
	H391	H	0.175047	-0.166333	0.066973
	H392	H	0.164383	-0.183629	0.089648
	O393	O	1.208031	1.033557	1.207217
	H394	H	1.216874	1.048716	1.216284
	H395	H	1.210280	1.047779	1.218046
	O396	O	0.239562	-0.240009	0.233721
	H397	H	0.239035	-0.238868	0.234222
	H398	H	0.214565	-0.239493	0.213604
	O399	O	0.934933	-0.110604	0.792332
	H400	H	0.960389	-0.106385	0.796094
	H401	H	0.940609	-0.138003	0.774716
	O402	O	0.795836	0.975118	1.210227
	H403	H	0.779270	0.984273	1.233989
	H404	H	0.810042	0.992741	1.211965
	O405	O	0.812864	1.010328	-0.076525
	H406	H	0.809118	1.013930	-0.084865
	H407	H	0.802663	1.002289	-0.070800
	O408	O	0.978652	-0.050828	-0.127742
	H409	H	0.986280	-0.064790	-0.130118
	H410	H	0.977192	-0.060084	-0.128308
	O411	O	1.315158	1.590031	0.319725
	H412	H	1.316508	1.588118	0.346055
	H413	H	1.291489	1.589838	0.314077
	O414	O	0.615336	0.305367	0.475817
	H415	H	0.600599	0.316063	0.456512
	H416	H	0.633896	0.293571	0.475982
	O417	O	0.902422	1.164458	1.000034
	H418	H	0.898929	1.152570	1.015670
	H419	H	0.894853	1.166419	1.003092
	O420	O	-0.279980	-0.277830	-0.283421
	H421	H	-0.270193	-0.287615	-0.261264
	H422	H	-0.288232	-0.277724	-0.303639
	O423	O	0.456137	0.323924	0.657835
	H424	H	0.475332	0.320591	0.654755
	H425	H	0.476496	0.310747	0.654630
	O426	O	0.381600	0.707770	0.547174
	H427	H	0.393163	0.703616	0.542626
	H428	H	0.365941	0.716629	0.547166
	O429	O	0.641966	0.293930	0.568248
	H430	H	0.653619	0.296212	0.552585
	H431	H	0.667641	0.290977	0.548944
	O432	O	0.685224	0.318415	0.324742
	H433	H	0.633654	0.311890	0.315048
	H434	H	0.695334	0.367958	0.315211
	O435	O	1.137189	0.910674	-0.162032
	H436	H	1.130489	0.920004	-0.171312
	H437	H	1.147088	0.924911	-0.165364
	O438	O	-0.162834	-0.039108	-0.055680
	H439	H	-0.163963	-0.041182	-0.050870
	H440	H	-0.144585	-0.035781	-0.044693
	O441	O	1.040223	0.077753	0.113401
	H442	H	1.050838	0.089861	0.109130
	H443	H	1.031636	0.084954	0.125265
	O444	O	0.039047	1.020606	0.886426
	H445	H	0.015440	1.027501	0.888545
	H446	H	0.040720	1.031290	0.874917
	O447	O	0.451393	0.460685	0.606092
	H448	H	0.464066	0.454473	0.608800
	H449	H	0.458458	0.464423	0.614280
	O450	O	0.561350	0.537648	0.502703
	H451	H	0.559681	0.531808	0.499866
	H452	H	0.560544	0.539840	0.503955
	O453	O	0.707179	0.503620	0.510234
	H454	H	0.707613	0.519260	0.503666
	H455	H	0.700276	0.481936	0.493262
