data_Molecule from HDF5

_cell_length_a		16.215147
_cell_length_b		16.180095
_cell_length_c		16.309970
_cell_angle_alpha	89.872961
_cell_angle_beta	90.122441
_cell_angle_gamma	89.912454
_symmetry_space_group_name_H-M	'P 1'
_symmetry_Int_Tables_number		1

loop_
	_symmetry_equiv_pos_as_xyz
	x,y,z

loop_
	_atom_site_label
	_atom_site_type_symbol
	_atom_site_fract_x
	_atom_site_fract_y
	_atom_site_fract_z
	H0	H	0.395685	0.841109	0.718864
	H1	H	0.593964	0.168239	0.717964
	H2	H	0.593204	0.840478	0.289866
	H3	H	0.393349	0.169181	0.288267
	H4	H	0.710019	0.405976	0.840699
	H5	H	0.708490	0.603261	0.167682
	H6	H	0.276036	0.604689	0.841352
	H7	H	0.280174	0.405791	0.167837
	H8	H	0.830049	0.718497	0.406550
	H9	H	0.158529	0.717321	0.604119
	H10	H	0.829209	0.290845	0.602216
	H11	H	0.157699	0.290646	0.408264
	H12	H	0.829129	0.404986	0.719460
	H13	H	0.156660	0.603757	0.722208
	H14	H	0.830390	0.604909	0.289392
	H15	H	0.156777	0.401820	0.289599
	H16	H	0.394222	0.719647	0.839722
	H17	H	0.592316	0.718789	0.167392
	H18	H	0.591934	0.291868	0.838932
	H19	H	0.395779	0.288594	0.167046
	H20	H	0.706834	0.839469	0.407115
	H21	H	0.707774	0.168868	0.602175
	H22	H	0.281617	0.839979	0.602608
	H23	H	0.279086	0.168958	0.404676
	H24	H	0.895436	0.339758	0.219165
	H25	H	0.093646	0.668643	0.219684
	H26	H	0.092902	0.339752	0.791407
	H27	H	0.892402	0.667585	0.789138
	H28	H	0.208593	0.905693	0.340516
	H29	H	0.208890	0.101881	0.666957
	H30	H	0.778758	0.103397	0.340791
	H31	H	0.779542	0.905255	0.667417
	H32	H	0.329563	0.218201	0.904971
	H33	H	0.659278	0.216509	0.099660
	H34	H	0.328923	0.792189	0.100146
	H35	H	0.658304	0.790867	0.906651
	H36	H	0.330352	0.904314	0.219498
	H37	H	0.657965	0.104219	0.218705
	H38	H	0.330138	0.104056	0.788887
	H39	H	0.658241	0.905830	0.790251
	H40	H	0.893285	0.220971	0.341732
	H41	H	0.091350	0.216956	0.667861
	H42	H	0.093258	0.788517	0.341671
	H43	H	0.897842	0.790993	0.668699
	H44	H	0.206440	0.339427	0.908408
	H45	H	0.207917	0.668999	0.103185
	H46	H	0.779785	0.340041	0.103739
	H47	H	0.780674	0.669199	0.906888
	H48	H	0.395853	0.122248	0.589763
	H49	H	0.595826	0.883384	0.602056
	H50	H	0.574893	0.116173	0.420071
	H51	H	0.402113	0.888194	0.412699
	H52	H	0.581071	0.404441	0.119973
	H53	H	0.587674	0.604577	0.885019
	H54	H	0.407568	0.595744	0.116583
	H55	H	0.401083	0.413553	0.888523
	H56	H	0.108183	0.590679	0.416927
	H57	H	0.881516	0.590856	0.588042
	H58	H	0.111208	0.413700	0.603604
	H59	H	0.875580	0.412476	0.407399
	H60	H	0.111737	0.406653	0.598997
	H61	H	0.875112	0.591128	0.609079
	H62	H	0.113104	0.593584	0.405449
	H63	H	0.876251	0.410083	0.413558
	H64	H	0.401013	0.604579	0.121791
	H65	H	0.592416	0.592408	0.887025
	H66	H	0.595282	0.409206	0.122883
	H67	H	0.400387	0.409409	0.886231
	H68	H	0.601057	0.124840	0.415636
	H69	H	0.578885	0.887011	0.603890
	H70	H	0.398355	0.125433	0.603536
	H71	H	0.401088	0.887012	0.409157
	H72	H	0.907005	0.622043	0.102610
	H73	H	0.090385	0.385144	0.101614
	H74	H	0.084115	0.621267	0.912310
	H75	H	0.900401	0.386258	0.913318
	H76	H	0.080544	0.903920	0.620620
	H77	H	0.079762	0.095735	0.389654
	H78	H	0.909861	0.098791	0.618754
	H79	H	0.903945	0.912280	0.388394
	H80	H	0.611804	0.096085	0.908803
	H81	H	0.381498	0.079249	0.098758
	H82	H	0.608181	0.910727	0.085518
	H83	H	0.376593	0.912361	0.911273
	H84	H	0.609077	0.922799	0.102627
	H85	H	0.370041	0.107159	0.108960
	H86	H	0.612724	0.099940	0.907658
	H87	H	0.376526	0.913132	0.910054
	H88	H	0.893838	0.104689	0.624919
	H89	H	0.087503	0.104045	0.385106
	H90	H	0.097987	0.906028	0.625300
	H91	H	0.899921	0.906643	0.386933
	H92	H	0.085818	0.622479	0.913001
	H93	H	0.081240	0.387351	0.100660
	H94	H	0.901498	0.619511	0.091332
	H95	H	0.900461	0.385652	0.910066
	H96	H	0.408608	0.119956	0.595231
	H97	H	0.586359	0.888855	0.588266
	H98	H	0.582031	0.125792	0.394941
	H99	H	0.405218	0.887958	0.410428
	H100	H	0.584375	0.419407	0.117006
	H101	H	0.579747	0.594727	0.890078
	H102	H	0.395800	0.593282	0.120404
	H103	H	0.396543	0.412520	0.887337
	H104	H	0.112951	0.602298	0.414163
	H105	H	0.872847	0.609315	0.596902
	H106	H	0.109940	0.413529	0.595590
	H107	H	0.878060	0.416339	0.412468
	H108	H	0.894848	0.625317	0.100460
	H109	H	0.087959	0.388272	0.093076
	H110	H	0.085153	0.622194	0.911339
	H111	H	0.902868	0.386372	0.911828
	H112	H	0.088140	0.919893	0.618274
	H113	H	0.091814	0.091950	0.387498
	H114	H	0.895914	0.087656	0.619806
	H115	H	0.896799	0.913002	0.387404
	H116	H	0.611567	0.098879	0.911012
	H117	H	0.379977	0.103251	0.079276
	H118	H	0.616092	0.902086	0.103248
	H119	H	0.377025	0.911789	0.909237
	C120	C	0.372773	0.013621	0.624992
	C121	C	0.615125	0.995632	0.625494
	C122	C	0.614833	0.013307	0.382494
	C123	C	0.372964	0.996067	0.381843
	C124	C	0.615835	0.382941	0.011655
	C125	C	0.615539	0.626079	0.995583
	C126	C	0.371607	0.626581	0.012053
	C127	C	0.371788	0.382781	0.995479
	C128	C	0.002782	0.625137	0.383361
	C129	C	0.985043	0.625572	0.626885
	C130	C	0.002006	0.382630	0.626972
	C131	C	0.985005	0.383124	0.383169
	C132	C	0.872386	0.513212	0.126782
	C133	C	0.115664	0.495675	0.126934
	C134	C	0.114255	0.513000	0.883721
	C135	C	0.872588	0.495442	0.883647
	C136	C	0.116645	0.881973	0.513046
	C137	C	0.115058	0.125342	0.495609
	C138	C	0.871370	0.126068	0.512898
	C139	C	0.872175	0.882068	0.495768
	C140	C	0.503111	0.126688	0.880921
	C141	C	0.485905	0.125603	0.124469
	C142	C	0.502313	0.882990	0.125562
	C143	C	0.485409	0.883615	0.882187
	C144	C	0.375356	0.889961	0.680782
	C145	C	0.613628	0.119411	0.680169
	C146	C	0.613290	0.889472	0.327478
	C147	C	0.373958	0.120152	0.326385
	C148	C	0.671483	0.385887	0.889031
	C149	C	0.670689	0.623918	0.118719
	C150	C	0.315097	0.624600	0.889393
	C151	C	0.317446	0.384969	0.118696
	C152	C	0.878920	0.680192	0.386529
	C153	C	0.109023	0.680025	0.624512
	C154	C	0.878288	0.328112	0.623430
	C155	C	0.108681	0.327875	0.386968
	C156	C	0.878200	0.384924	0.681557
	C157	C	0.108334	0.623597	0.683031
	C158	C	0.879367	0.624248	0.327744
	C159	C	0.108225	0.383489	0.328269
	C160	C	0.373641	0.681774	0.888823
	C161	C	0.612911	0.681215	0.118531
	C162	C	0.612629	0.329276	0.888063
	C163	C	0.374788	0.326601	0.118324
	C164	C	0.669592	0.888905	0.386000
	C165	C	0.670112	0.119568	0.622375
	C166	C	0.319103	0.889165	0.622612
	C167	C	0.317135	0.119916	0.384202
	C168	C	0.874876	0.389146	0.181487
	C169	C	0.113560	0.619469	0.181896
	C170	C	0.112715	0.388939	0.829106
	C171	C	0.873306	0.619072	0.827779
	C172	C	0.170952	0.885032	0.389401
	C173	C	0.170458	0.122541	0.618617
	C174	C	0.816518	0.123984	0.389776
	C175	C	0.817592	0.884798	0.618926
	C176	C	0.378926	0.181126	0.884105
	C177	C	0.609866	0.179884	0.121163
	C178	C	0.378314	0.828835	0.121893
	C179	C	0.609328	0.828704	0.885806
	C180	C	0.378940	0.884806	0.180778
	C181	C	0.609247	0.123688	0.180081
	C182	C	0.379259	0.124392	0.826224
	C183	C	0.609241	0.885489	0.827892
	C184	C	0.873608	0.182260	0.390213
	C185	C	0.111993	0.179621	0.618928
	C186	C	0.114067	0.826648	0.390057
	C187	C	0.876091	0.827682	0.619438
	C188	C	0.169061	0.388749	0.887345
	C189	C	0.170439	0.619786	0.124104
	C190	C	0.817524	0.389286	0.124012
	C191	C	0.817608	0.619688	0.886452
	C192	C	0.394607	0.100131	0.602768
	C193	C	0.593095	0.908750	0.604259
	C194	C	0.592638	0.100010	0.403926
	C195	C	0.396011	0.910081	0.404075
	C196	C	0.593394	0.404397	0.097696
	C197	C	0.593162	0.603906	0.909716
	C198	C	0.394606	0.604248	0.097432
	C199	C	0.393122	0.405276	0.909507
	C200	C	0.089098	0.602177	0.405584
	C201	C	0.898924	0.603482	0.604656
	C202	C	0.088461	0.404922	0.605822
	C203	C	0.898726	0.406148	0.404917
	C204	C	0.894672	0.599860	0.104722
	C205	C	0.093132	0.409283	0.104837
	C206	C	0.091651	0.599543	0.905498
	C207	C	0.894617	0.408524	0.905323
	C208	C	0.095186	0.903574	0.599076
	C209	C	0.093044	0.103742	0.409544
	C210	C	0.893510	0.103586	0.599035
	C211	C	0.893901	0.904094	0.409779
	C212	C	0.589685	0.104797	0.902656
	C213	C	0.399322	0.103061	0.102210
	C214	C	0.588822	0.905317	0.103671
	C215	C	0.399003	0.906004	0.903644
	Zn216	Zn	0.494309	0.004900	0.753500
	Zn217	Zn	0.493985	0.005025	0.253835
	Zn218	Zn	0.744777	0.504656	0.004555
	Zn219	Zn	0.242642	0.504518	0.004369
	Zn220	Zn	-0.005330	0.753301	0.504688
	Zn221	Zn	-0.006335	0.254616	0.504560
	Zn222	Zn	-0.006939	0.503946	0.755488
	Zn223	Zn	-0.005932	0.503942	0.254738
	Zn224	Zn	0.493988	0.755130	0.003317
	Zn225	Zn	0.494103	0.254108	0.003060
	Zn226	Zn	0.742690	0.004388	0.503839
	Zn227	Zn	0.244943	0.003996	0.503343
	N228	N	0.407977	0.968297	0.682381
	N229	N	0.580165	0.041338	0.682184
	N230	N	0.579848	0.967652	0.325456
	N231	N	0.407832	0.042179	0.324730
	N232	N	0.673783	0.418253	0.967030
	N233	N	0.672555	0.590431	0.041313
	N234	N	0.313789	0.590806	0.966825
	N235	N	0.315688	0.419259	0.041425
	N236	N	0.956673	0.680910	0.420430
	N237	N	0.031540	0.681095	0.590235
	N238	N	0.956105	0.326422	0.590314
	N239	N	0.030930	0.327612	0.420503
	N240	N	0.956366	0.417930	0.684014
	N241	N	0.030297	0.590446	0.684716
	N242	N	0.957314	0.590522	0.325903
	N243	N	0.030258	0.417031	0.325803
	N244	N	0.408031	0.683209	0.965924
	N245	N	0.579154	0.682703	0.040935
	N246	N	0.578850	0.327184	0.965408
	N247	N	0.407950	0.325274	0.040596
	N248	N	0.670488	0.966873	0.419447
	N249	N	0.670991	0.041466	0.589054
	N250	N	0.317400	0.967007	0.588486
	N251	N	0.316520	0.042006	0.418213
	N252	N	0.908387	0.467117	0.182913
	N253	N	0.080310	0.541275	0.183810
	N254	N	0.079284	0.467180	0.826867
	N255	N	0.906748	0.540913	0.826037
	N256	N	0.173018	0.918377	0.467000
	N257	N	0.172483	0.089640	0.541049
	N258	N	0.815081	0.089909	0.467086
	N259	N	0.815060	0.917874	0.541278
	N260	N	0.456919	0.182642	0.917479
	N261	N	0.532092	0.181145	0.087522
	N262	N	0.456040	0.827690	0.088157
	N263	N	0.531318	0.827404	0.918798
	N264	N	0.457304	0.917420	0.183346
	N265	N	0.530958	0.090853	0.182130
	N266	N	0.457274	0.091247	0.824220
	N267	N	0.531177	0.918979	0.825737
	N268	N	0.907062	0.183641	0.467874
	N269	N	0.078212	0.181263	0.541454
	N270	N	0.081352	0.824415	0.467795
	N271	N	0.909559	0.826044	0.541887
	N272	N	0.169965	0.466862	0.920628
	N273	N	0.172056	0.541682	0.090843
	N274	N	0.815905	0.467598	0.090655
	N275	N	0.817389	0.541787	0.920629
	O276	O	0.430749	-0.467458	0.426289
	H277	H	0.433481	-0.458194	0.423337
	H278	H	0.426391	-0.480234	0.437085
	O279	O	0.431205	0.498966	0.459374
	H280	H	0.432613	0.496944	0.456594
	H281	H	0.428776	0.499686	0.460307
	O282	O	0.454389	0.530766	0.451286
	H283	H	0.442284	0.531598	0.452779
	H284	H	0.451918	0.532348	0.450664
	O285	O	0.445715	0.567460	0.463699
	H286	H	0.448097	0.557109	0.449900
	H287	H	0.438287	0.571172	0.459088
	O288	O	0.484244	0.466474	0.473059
	H289	H	0.474244	0.459499	0.471748
	H290	H	0.485764	0.471954	0.470685
	O291	O	0.455938	0.502171	0.463863
	H292	H	0.456204	0.505298	0.456596
	H293	H	0.461967	0.508575	0.480726
	O294	O	0.412431	0.512544	0.432813
	H295	H	0.425026	0.511480	0.435188
	H296	H	0.412317	0.517258	0.434450
	O297	O	1.480108	0.537546	0.485221
	H298	H	1.482152	0.539072	0.486699
	H299	H	1.486501	0.534631	0.478046
