data_Molecule from HDF5

_cell_length_a		16.308206
_cell_length_b		16.277054
_cell_length_c		16.105113
_cell_angle_alpha	90.047827
_cell_angle_beta	90.137219
_cell_angle_gamma	90.003909
_symmetry_space_group_name_H-M	'P 1'
_symmetry_Int_Tables_number		1

loop_
	_symmetry_equiv_pos_as_xyz
	x,y,z

loop_
	_atom_site_label
	_atom_site_type_symbol
	_atom_site_fract_x
	_atom_site_fract_y
	_atom_site_fract_z
	H0	H	0.392929	0.838199	0.712785
	H1	H	0.585300	0.167949	0.714654
	H2	H	0.584168	0.838288	0.289039
	H3	H	0.393043	0.167996	0.289504
	H4	H	0.701310	0.403623	0.836788
	H5	H	0.703947	0.602449	0.166454
	H6	H	0.275339	0.600523	0.835677
	H7	H	0.274157	0.403342	0.165600
	H8	H	0.826914	0.720008	0.398209
	H9	H	0.152786	0.717296	0.601798
	H10	H	0.826173	0.286162	0.600348
	H11	H	0.152741	0.286527	0.402981
	H12	H	0.824118	0.405879	0.712018
	H13	H	0.152616	0.599047	0.715104
	H14	H	0.824165	0.598711	0.288305
	H15	H	0.153649	0.404371	0.287520
	H16	H	0.390616	0.716067	0.836378
	H17	H	0.588252	0.716488	0.166978
	H18	H	0.586309	0.289663	0.836356
	H19	H	0.391393	0.289821	0.166374
	H20	H	0.704201	0.839670	0.400236
	H21	H	0.704992	0.166365	0.601612
	H22	H	0.274447	0.839188	0.600260
	H23	H	0.273594	0.166955	0.402412
	H24	H	0.893040	0.337998	0.213858
	H25	H	0.085278	0.666844	0.214470
	H26	H	0.083321	0.337378	0.789155
	H27	H	0.891591	0.666354	0.787462
	H28	H	0.202609	0.903149	0.335878
	H29	H	0.201026	0.099412	0.667276
	H30	H	0.774517	0.101504	0.335993
	H31	H	0.776058	0.903935	0.666438
	H32	H	0.325550	0.217280	0.902400
	H33	H	0.652085	0.218094	0.101863
	H34	H	0.325109	0.788294	0.100083
	H35	H	0.651733	0.786931	0.902217
	H36	H	0.324222	0.907196	0.213227
	H37	H	0.652720	0.099503	0.215627
	H38	H	0.324563	0.098567	0.789313
	H39	H	0.652755	0.906937	0.789063
	H40	H	0.890961	0.215471	0.335794
	H41	H	0.086738	0.214430	0.667009
	H42	H	0.086659	0.788883	0.335899
	H43	H	0.892269	0.789776	0.667188
	H44	H	0.204371	0.339270	0.900280
	H45	H	0.204433	0.665467	0.102518
	H46	H	0.773750	0.338941	0.101100
	H47	H	0.772215	0.665910	0.900858
	H48	H	0.400176	0.121862	0.607652
	H49	H	0.582133	0.886479	0.594328
	H50	H	0.581149	0.118380	0.411640
	H51	H	0.395956	0.886086	0.404400
	H52	H	0.585046	0.415111	0.119756
	H53	H	0.567627	0.593319	0.888257
	H54	H	0.397779	0.590877	0.117678
	H55	H	0.392540	0.407399	0.880933
	H56	H	0.103469	0.598283	0.418357
	H57	H	0.873890	0.583661	0.602394
	H58	H	0.105529	0.405450	0.591792
	H59	H	0.873957	0.410295	0.408580
	H60	H	0.105099	0.410978	0.595552
	H61	H	0.866870	0.610442	0.599217
	H62	H	0.103783	0.586714	0.404347
	H63	H	0.871884	0.406542	0.405731
	H64	H	0.398489	0.599448	0.119907
	H65	H	0.585430	0.607003	0.878792
	H66	H	0.576766	0.409620	0.119057
	H67	H	0.394659	0.413726	0.883593
	H68	H	0.584998	0.120075	0.410748
	H69	H	0.584099	0.885812	0.593455
	H70	H	0.400633	0.115253	0.583163
	H71	H	0.396466	0.888011	0.411142
	H72	H	0.904392	0.616228	0.091252
	H73	H	0.086664	0.384029	0.093853
	H74	H	0.079600	0.621277	0.899183
	H75	H	0.889105	0.385608	0.910841
	H76	H	0.086218	0.914590	0.619040
	H77	H	0.074622	0.093939	0.385307
	H78	H	0.900904	0.110175	0.622523
	H79	H	0.891538	0.913055	0.382398
	H80	H	0.603643	0.091237	0.909158
	H81	H	0.370530	0.102622	0.094448
	H82	H	0.605357	0.912521	0.100063
	H83	H	0.370970	0.908422	0.904672
	H84	H	0.607709	0.901661	0.095009
	H85	H	0.373346	0.095537	0.090436
	H86	H	0.608819	0.099213	0.902934
	H87	H	0.370709	0.906227	0.907656
	H88	H	0.881359	0.090632	0.623153
	H89	H	0.084490	0.101124	0.380733
	H90	H	0.076253	0.909437	0.617128
	H91	H	0.901048	0.911636	0.385331
	H92	H	0.076076	0.615183	0.915800
	H93	H	0.081473	0.384871	0.096994
	H94	H	0.886562	0.619700	0.087148
	H95	H	0.892165	0.383174	0.902358
	H96	H	0.379153	0.123731	0.593548
	H97	H	0.583268	0.886681	0.595639
	H98	H	0.581857	0.119703	0.407766
	H99	H	0.390617	0.885366	0.408546
	H100	H	0.584631	0.405342	0.122809
	H101	H	0.589466	0.583839	0.884067
	H102	H	0.391303	0.595671	0.121720
	H103	H	0.398615	0.408425	0.883477
	H104	H	0.109850	0.603780	0.401926
	H105	H	0.877324	0.595692	0.577437
	H106	H	0.107550	0.405399	0.598564
	H107	H	0.873620	0.406199	0.410747
	H108	H	0.892729	0.623365	0.104339
	H109	H	0.081410	0.386881	0.090178
	H110	H	0.092269	0.621426	0.911848
	H111	H	0.898038	0.386895	0.909713
	H112	H	0.085026	0.903932	0.621733
	H113	H	0.086556	0.089210	0.383281
	H114	H	0.907016	0.084870	0.613216
	H115	H	0.895605	0.904628	0.381274
	H116	H	0.605639	0.101477	0.914039
	H117	H	0.371200	0.094394	0.098853
	H118	H	0.603090	0.910944	0.088378
	H119	H	0.372234	0.909574	0.908480
	C120	C	0.366594	0.011684	0.622915
	C121	C	0.610912	0.994815	0.622840
	C122	C	0.610379	0.011311	0.380580
	C123	C	0.366395	0.994870	0.379727
	C124	C	0.609601	0.381957	0.010678
	C125	C	0.610068	0.623718	0.993121
	C126	C	0.367863	0.623691	0.009941
	C127	C	0.367265	0.381495	0.992191
	C128	C	-0.002682	0.624495	0.379349
	C129	C	0.980851	0.624205	0.622286
	C130	C	-0.002535	0.379647	0.623110
	C131	C	0.981243	0.379757	0.379756
	C132	C	0.866847	0.511034	0.122709
	C133	C	0.110923	0.493713	0.122795
	C134	C	0.109949	0.510761	0.880255
	C135	C	0.865606	0.493671	0.879144
	C136	C	0.110531	0.880855	0.509782
	C137	C	0.109846	0.122854	0.492917
	C138	C	0.867883	0.123368	0.509915
	C139	C	0.867808	0.880946	0.492403
	C140	C	0.497772	0.124863	0.880145
	C141	C	0.480125	0.125398	0.123583
	C142	C	0.496973	0.880763	0.123105
	C143	C	0.480034	0.880222	0.879381
	C144	C	0.371427	0.887503	0.676365
	C145	C	0.606906	0.118740	0.677181
	C146	C	0.606085	0.887596	0.325697
	C147	C	0.370742	0.118678	0.325912
	C148	C	0.663877	0.383655	0.886094
	C149	C	0.665805	0.621956	0.117250
	C150	C	0.312797	0.621163	0.885339
	C151	C	0.312312	0.383246	0.116536
	C152	C	0.874979	0.680617	0.379871
	C153	C	0.103974	0.679240	0.620962
	C154	C	0.874682	0.324565	0.620137
	C155	C	0.104306	0.324482	0.381934
	C156	C	0.873681	0.384118	0.675856
	C157	C	0.104188	0.620330	0.677308
	C158	C	0.873558	0.620235	0.325045
	C159	C	0.104597	0.383280	0.325003
	C160	C	0.370382	0.678098	0.885542
	C161	C	0.608005	0.678651	0.117477
	C162	C	0.606676	0.327142	0.885929
	C163	C	0.370532	0.326967	0.116762
	C164	C	0.665728	0.888184	0.381050
	C165	C	0.666339	0.117870	0.620958
	C166	C	0.312479	0.887835	0.620144
	C167	C	0.311606	0.118094	0.382087
	C168	C	0.871336	0.387146	0.176648
	C169	C	0.106581	0.617670	0.177211
	C170	C	0.105332	0.386864	0.825762
	C171	C	0.869736	0.617380	0.824772
	C172	C	0.164674	0.883335	0.385026
	C173	C	0.163866	0.119938	0.617837
	C174	C	0.812864	0.121091	0.385180
	C175	C	0.813531	0.883465	0.617147
	C176	C	0.374359	0.179532	0.882525
	C177	C	0.603343	0.179842	0.121561
	C178	C	0.373853	0.826352	0.120437
	C179	C	0.603044	0.825251	0.882053
	C180	C	0.373536	0.885253	0.176785
	C181	C	0.603698	0.120891	0.178028
	C182	C	0.373757	0.120592	0.826178
	C183	C	0.603708	0.884729	0.825843
	C184	C	0.870615	0.177978	0.385276
	C185	C	0.107122	0.177232	0.617623
	C186	C	0.107332	0.826344	0.385221
	C187	C	0.871397	0.826619	0.617371
	C188	C	0.165106	0.387654	0.881338
	C189	C	0.165841	0.616982	0.121615
	C190	C	0.812001	0.387630	0.120827
	C191	C	0.810674	0.617038	0.881267
	C192	C	0.387191	0.097844	0.601123
	C193	C	0.589532	0.908542	0.601100
	C194	C	0.588873	0.097198	0.403339
	C195	C	0.387833	0.908608	0.401626
	C196	C	0.588505	0.403761	0.097929
	C197	C	0.587489	0.601265	0.906140
	C198	C	0.389627	0.601872	0.097225
	C199	C	0.388999	0.403404	0.905112
	C200	C	0.083263	0.602737	0.401718
	C201	C	0.895010	0.602812	0.599732
	C202	C	0.083775	0.400994	0.601725
	C203	C	0.895450	0.401222	0.401960
	C204	C	0.888113	0.597425	0.100678
	C205	C	0.089518	0.407558	0.100337
	C206	C	0.088817	0.597046	0.902440
	C207	C	0.886908	0.407469	0.901196
	C208	C	0.089015	0.902974	0.596896
	C209	C	0.088270	0.101181	0.405736
	C210	C	0.889808	0.101548	0.597215
	C211	C	0.889497	0.903304	0.405373
	C212	C	0.583734	0.103586	0.901999
	C213	C	0.394041	0.103834	0.101099
	C214	C	0.583206	0.902105	0.101105
	C215	C	0.393629	0.901642	0.900685
	Zn216	Zn	0.488757	0.003405	0.751428
	Zn217	Zn	0.488573	0.003071	0.251903
	Zn218	Zn	0.737398	0.502425	0.001752
	Zn219	Zn	0.239596	0.502626	0.001118
	Zn220	Zn	-0.010734	0.753207	0.500900
	Zn221	Zn	-0.010433	0.250654	0.501317
	Zn222	Zn	-0.011459	0.502453	0.751185
	Zn223	Zn	-0.010860	0.502356	0.250837
	Zn224	Zn	0.488755	0.751733	0.001829
	Zn225	Zn	0.489094	0.254242	0.001360
	Zn226	Zn	0.740286	0.001948	0.501087
	Zn227	Zn	0.237775	0.002505	0.501143
	N228	N	0.404431	0.965363	0.678197
	N229	N	0.572977	0.041336	0.678494
	N230	N	0.572260	0.965110	0.325393
	N231	N	0.404180	0.041231	0.324521
	N232	N	0.665697	0.417228	0.964489
	N233	N	0.666933	0.588400	0.038833
	N234	N	0.311237	0.587938	0.963969
	N235	N	0.310412	0.416514	0.038025
	N236	N	0.952925	0.683385	0.412805
	N237	N	0.026324	0.681552	0.587419
	N238	N	0.952730	0.321750	0.588144
	N239	N	0.026794	0.322324	0.415328
	N240	N	0.951051	0.417768	0.677702
	N241	N	0.026765	0.586829	0.678368
	N242	N	0.950625	0.585982	0.324479
	N243	N	0.027237	0.416907	0.323472
	N244	N	0.403724	0.679730	0.963976
	N245	N	0.573891	0.679739	0.039245
	N246	N	0.573641	0.325970	0.964378
	N247	N	0.404120	0.326081	0.038374
	N248	N	0.668491	0.965997	0.414475
	N249	N	0.668856	0.039873	0.587962
	N250	N	0.309342	0.965843	0.587690
	N251	N	0.308641	0.039933	0.414685
	N252	N	0.904543	0.464862	0.177982
	N253	N	0.073194	0.540109	0.178250
	N254	N	0.071499	0.464452	0.825196
	N255	N	0.903037	0.539821	0.823318
	N256	N	0.166794	0.916530	0.463643
	N257	N	0.165735	0.086925	0.539198
	N258	N	0.811030	0.088013	0.463807
	N259	N	0.811209	0.916296	0.538485
	N260	N	0.452370	0.182495	0.915145
	N261	N	0.525389	0.182897	0.088560
	N262	N	0.451804	0.823426	0.087936
	N263	N	0.525128	0.822563	0.914706
	N264	N	0.451066	0.918464	0.178309
	N265	N	0.526140	0.087785	0.179279
	N266	N	0.451301	0.087503	0.824590
	N267	N	0.526123	0.917901	0.823852
	N268	N	0.904095	0.179440	0.463702
	N269	N	0.074165	0.179032	0.538978
	N270	N	0.074507	0.824795	0.463735
	N271	N	0.904176	0.824887	0.538726
	N272	N	0.168313	0.465680	0.914118
	N273	N	0.168470	0.539055	0.088138
	N274	N	0.809343	0.465631	0.087819
	N275	N	0.807930	0.539106	0.914155
	O276	O	0.532138	-0.395039	0.483277
	H277	H	0.531270	-0.390549	0.490031
	H278	H	0.534691	-0.394681	0.479160
	O279	O	0.518490	0.532890	0.466844
	H280	H	0.518402	0.539907	0.461067
	H281	H	0.521150	0.533548	0.462637
	O282	O	0.553597	0.565685	0.483135
	H283	H	0.562752	0.568001	0.480790
	H284	H	0.551550	0.564742	0.491948
	O285	O	0.550500	0.603329	0.517921
	H286	H	0.549170	0.610547	0.533816
	H287	H	0.558201	0.605510	0.529269
	O288	O	0.579598	0.509669	0.544234
	H289	H	0.578194	0.506866	0.531738
	H290	H	0.579067	0.514776	0.532374
	O291	O	0.579662	0.515044	0.527768
	H292	H	0.585253	0.522967	0.530944
	H293	H	0.587183	0.510106	0.523627
	O294	O	0.522458	0.585912	0.555842
	H295	H	0.511383	0.587048	0.561542
	H296	H	0.518417	0.581428	0.563093
	O297	O	1.523117	0.512340	0.517644
	H298	H	1.522028	0.503008	0.515239
	H299	H	1.524505	0.509451	0.513285
