data_Molecule from HDF5

_cell_length_a		16.353917
_cell_length_b		16.126331
_cell_length_c		16.170054
_cell_angle_alpha	89.333427
_cell_angle_beta	90.293043
_cell_angle_gamma	89.974963
_symmetry_space_group_name_H-M	'P 1'
_symmetry_Int_Tables_number		1

loop_
	_symmetry_equiv_pos_as_xyz
	x,y,z

loop_
	_atom_site_label
	_atom_site_type_symbol
	_atom_site_fract_x
	_atom_site_fract_y
	_atom_site_fract_z
	H0	H	0.407318	0.827282	0.706329
	H1	H	0.608547	0.154823	0.700947
	H2	H	0.601412	0.824786	0.279492
	H3	H	0.407119	0.155912	0.272982
	H4	H	0.722553	0.392470	0.829049
	H5	H	0.722056	0.592510	0.155084
	H6	H	0.286105	0.594051	0.827904
	H7	H	0.291233	0.387177	0.155515
	H8	H	0.844195	0.708301	0.390393
	H9	H	0.168982	0.704486	0.593402
	H10	H	0.844158	0.270975	0.594126
	H11	H	0.170633	0.278646	0.397968
	H12	H	0.843615	0.386642	0.710053
	H13	H	0.168314	0.588055	0.708593
	H14	H	0.843195	0.591781	0.275153
	H15	H	0.168441	0.390181	0.277914
	H16	H	0.405727	0.706715	0.825685
	H17	H	0.602886	0.702205	0.156189
	H18	H	0.603759	0.282600	0.824721
	H19	H	0.408299	0.273340	0.153901
	H20	H	0.722778	0.826800	0.387147
	H21	H	0.725315	0.153032	0.588869
	H22	H	0.291220	0.826017	0.590599
	H23	H	0.288635	0.153804	0.382826
	H24	H	0.907513	0.325960	0.208468
	H25	H	0.103856	0.655666	0.204557
	H26	H	0.104051	0.325849	0.784110
	H27	H	0.905030	0.654820	0.773865
	H28	H	0.219688	0.890262	0.325768
	H29	H	0.226151	0.090298	0.651021
	H30	H	0.791952	0.092501	0.325223
	H31	H	0.787522	0.882264	0.651862
	H32	H	0.342162	0.207051	0.888158
	H33	H	0.668491	0.204902	0.086944
	H34	H	0.342634	0.775161	0.088948
	H35	H	0.668242	0.774444	0.891208
	H36	H	0.342919	0.890796	0.204515
	H37	H	0.667988	0.090395	0.204449
	H38	H	0.344051	0.093909	0.768979
	H39	H	0.669646	0.892605	0.776039
	H40	H	0.906490	0.209715	0.327968
	H41	H	0.104701	0.196872	0.656796
	H42	H	0.103941	0.777268	0.326425
	H43	H	0.910185	0.775552	0.655951
	H44	H	0.219673	0.327569	0.894360
	H45	H	0.222344	0.654469	0.094386
	H46	H	0.788582	0.327174	0.096382
	H47	H	0.790546	0.655942	0.889387
	H48	H	0.408653	0.107431	0.571395
	H49	H	0.597595	0.875854	0.570787
	H50	H	0.601229	0.109937	0.391758
	H51	H	0.406139	0.870724	0.396388
	H52	H	0.598334	0.394600	0.109446
	H53	H	0.588866	0.585031	0.875030
	H54	H	0.418654	0.587153	0.108460
	H55	H	0.412181	0.401898	0.873876
	H56	H	0.123044	0.583479	0.396007
	H57	H	0.889849	0.583599	0.583083
	H58	H	0.121567	0.395771	0.587834
	H59	H	0.891365	0.395817	0.407046
	H60	H	0.123352	0.395881	0.591663
	H61	H	0.891293	0.580386	0.580797
	H62	H	0.121876	0.586467	0.399552
	H63	H	0.892290	0.405874	0.400675
	H64	H	0.405235	0.585350	0.111050
	H65	H	0.602991	0.590432	0.870348
	H66	H	0.599002	0.401722	0.108125
	H67	H	0.408033	0.402242	0.872064
	H68	H	0.596107	0.107403	0.395551
	H69	H	0.606956	0.869172	0.586226
	H70	H	0.414122	0.110387	0.583352
	H71	H	0.415530	0.871787	0.392041
	H72	H	0.915936	0.610273	0.093920
	H73	H	0.096172	0.372732	0.088616
	H74	H	0.093989	0.608903	0.898763
	H75	H	0.908619	0.372586	0.904520
	H76	H	0.100413	0.897439	0.608313
	H77	H	0.101087	0.074826	0.373509
	H78	H	0.909708	0.076618	0.607923
	H79	H	0.916758	0.899459	0.374811
	H80	H	0.616039	0.073788	0.903085
	H81	H	0.390101	0.081977	0.078128
	H82	H	0.618802	0.902057	0.082118
	H83	H	0.390653	0.901548	0.894658
	H84	H	0.624399	0.897211	0.090220
	H85	H	0.389336	0.081585	0.081862
	H86	H	0.626569	0.085331	0.878532
	H87	H	0.390061	0.898617	0.897429
	H88	H	0.917482	0.074508	0.605551
	H89	H	0.088035	0.087279	0.373496
	H90	H	0.102117	0.896493	0.608172
	H91	H	0.912012	0.897053	0.372589
	H92	H	0.094645	0.607825	0.903813
	H93	H	0.098072	0.373880	0.083207
	H94	H	0.919808	0.604833	0.074578
	H95	H	0.913384	0.372180	0.901343
	H96	H	0.421629	0.104998	0.573237
	H97	H	0.588344	0.874440	0.586712
	H98	H	0.602217	0.107524	0.399407
	H99	H	0.414550	0.874110	0.402291
	H100	H	0.593839	0.398758	0.106801
	H101	H	0.601598	0.575316	0.875524
	H102	H	0.413357	0.574215	0.105648
	H103	H	0.409421	0.405041	0.874086
	H104	H	0.121495	0.581245	0.399735
	H105	H	0.890352	0.578935	0.585091
	H106	H	0.122705	0.390888	0.589744
	H107	H	0.888659	0.395158	0.396243
	H108	H	0.901698	0.611369	0.080001
	H109	H	0.101821	0.371516	0.087270
	H110	H	0.098345	0.609611	0.899989
	H111	H	0.913016	0.375069	0.906688
	H112	H	0.101696	0.898072	0.608565
	H113	H	0.104710	0.091688	0.366998
	H114	H	0.915022	0.082255	0.609598
	H115	H	0.913231	0.903391	0.372705
	H116	H	0.624542	0.102039	0.902601
	H117	H	0.389195	0.084499	0.080254
	H118	H	0.622690	0.891567	0.081242
	H119	H	0.391345	0.902693	0.897616
	C120	C	0.385339	-0.000673	0.608234
	C121	C	0.628097	0.981358	0.609937
	C122	C	0.627804	-0.000585	0.367265
	C123	C	0.383737	0.981394	0.366415
	C124	C	0.626286	0.370914	-0.000188
	C125	C	0.626950	0.612877	0.982471
	C126	C	0.382582	0.613058	-0.000036
	C127	C	0.382852	0.370868	0.981894
	C128	C	0.014704	0.613396	0.368915
	C129	C	0.997792	0.610306	0.613371
	C130	C	0.015085	0.365257	0.617806
	C131	C	0.998206	0.370080	0.372488
	C132	C	0.883953	0.499834	0.113658
	C133	C	0.127414	0.481583	0.114767
	C134	C	0.125060	0.499884	0.872997
	C135	C	0.882750	0.482103	0.871552
	C136	C	0.128582	0.868417	0.499328
	C137	C	0.127550	0.111321	0.480536
	C138	C	0.884633	0.110655	0.499352
	C139	C	0.884824	0.868079	0.481565
	C140	C	0.514619	0.115759	0.865116
	C141	C	0.496890	0.112142	0.109623
	C142	C	0.514271	0.868403	0.112495
	C143	C	0.497996	0.870793	0.868030
	C144	C	0.387390	0.875937	0.666927
	C145	C	0.627709	0.105594	0.663809
	C146	C	0.623645	0.874869	0.314329
	C147	C	0.386439	0.106165	0.310235
	C148	C	0.683398	0.372939	0.876976
	C149	C	0.683211	0.611500	0.106118
	C150	C	0.325229	0.613389	0.876691
	C151	C	0.328988	0.369126	0.105867
	C152	C	0.892457	0.669560	0.370543
	C153	C	0.120404	0.665792	0.612322
	C154	C	0.892780	0.308976	0.614905
	C155	C	0.121332	0.315164	0.376150
	C156	C	0.892660	0.366660	0.672820
	C157	C	0.120033	0.608224	0.670227
	C158	C	0.892036	0.611883	0.313040
	C159	C	0.120264	0.371154	0.316676
	C160	C	0.384752	0.669179	0.875419
	C161	C	0.623932	0.666196	0.106648
	C162	C	0.624300	0.318344	0.875036
	C163	C	0.386867	0.312127	0.105013
	C164	C	0.683499	0.875605	0.368702
	C165	C	0.686194	0.104275	0.608262
	C166	C	0.329439	0.875564	0.609530
	C167	C	0.327463	0.104940	0.365000
	C168	C	0.886371	0.375553	0.170635
	C169	C	0.124578	0.606155	0.168202
	C170	C	0.123527	0.375403	0.820354
	C171	C	0.885134	0.605565	0.812740
	C172	C	0.182376	0.870465	0.375186
	C173	C	0.185993	0.109169	0.603229
	C174	C	0.829477	0.111846	0.375128
	C175	C	0.827121	0.865242	0.603642
	C176	C	0.391395	0.170384	0.867154
	C177	C	0.619818	0.167311	0.107388
	C178	C	0.391633	0.812874	0.109646
	C179	C	0.619907	0.813583	0.871049
	C180	C	0.391718	0.870411	0.167122
	C181	C	0.619429	0.110309	0.165929
	C182	C	0.392462	0.114142	0.807663
	C183	C	0.620686	0.872293	0.813656
	C184	C	0.886634	0.169894	0.376382
	C185	C	0.125575	0.162256	0.606103
	C186	C	0.124782	0.814279	0.375656
	C187	C	0.888246	0.812015	0.605724
	C188	C	0.181376	0.376447	0.875095
	C189	C	0.183541	0.605463	0.113188
	C190	C	0.827218	0.376156	0.115045
	C191	C	0.828078	0.606318	0.870386
	C192	C	0.408076	0.085422	0.583337
	C193	C	0.604421	0.895367	0.587850
	C194	C	0.606216	0.086052	0.388988
	C195	C	0.405621	0.894785	0.390087
	C196	C	0.603689	0.392212	0.085675
	C197	C	0.604388	0.590235	0.896185
	C198	C	0.405731	0.589301	0.085843
	C199	C	0.403841	0.395721	0.895773
	C200	C	0.100173	0.590371	0.391691
	C201	C	0.912787	0.587627	0.589966
	C202	C	0.100455	0.387455	0.596138
	C203	C	0.912672	0.392451	0.394890
	C204	C	0.906092	0.586259	0.089818
	C205	C	0.105178	0.395189	0.092994
	C206	C	0.102188	0.586371	0.894582
	C207	C	0.905010	0.395773	0.896796
	C208	C	0.107585	0.890525	0.585885
	C209	C	0.104479	0.090784	0.393871
	C210	C	0.907379	0.085152	0.585452
	C211	C	0.907454	0.892653	0.395501
	C212	C	0.600293	0.093629	0.887989
	C213	C	0.411829	0.089487	0.086780
	C214	C	0.599887	0.890573	0.090913
	C215	C	0.412683	0.894230	0.889913
	Zn216	Zn	0.507239	-0.007610	0.737454
	Zn217	Zn	0.505599	-0.008913	0.239966
	Zn218	Zn	0.754729	0.491392	-0.007479
	Zn219	Zn	0.253341	0.491356	-0.007804
	Zn220	Zn	0.007148	0.740690	0.491556
	Zn221	Zn	0.006861	0.238895	0.492656
	Zn222	Zn	0.005788	0.489873	0.744738
	Zn223	Zn	0.005840	0.490727	0.241569
	Zn224	Zn	0.505615	0.740369	-0.009319
	Zn225	Zn	0.505025	0.243178	-0.011441
	Zn226	Zn	0.756270	-0.010868	0.488571
	Zn227	Zn	0.255477	-0.009495	0.487490
	N228	N	0.421531	0.953978	0.666387
	N229	N	0.592374	0.028107	0.665148
	N230	N	0.589591	0.952940	0.313210
	N231	N	0.420664	0.028316	0.310816
	N232	N	0.684938	0.405011	0.955413
	N233	N	0.685422	0.579264	0.027614
	N234	N	0.323498	0.579336	0.955005
	N235	N	0.326369	0.404939	0.028431
	N236	N	0.969780	0.670829	0.404395
	N237	N	0.043457	0.667139	0.577549
	N238	N	0.969764	0.307831	0.581330
	N239	N	0.044336	0.314306	0.410281
	N240	N	0.969559	0.400979	0.674719
	N241	N	0.043023	0.574138	0.670861
	N242	N	0.969167	0.577764	0.311930
	N243	N	0.042607	0.404254	0.314318
	N244	N	0.419817	0.669127	0.953085
	N245	N	0.589767	0.667144	0.028846
	N246	N	0.589346	0.316761	0.952302
	N247	N	0.419811	0.313193	0.026844
	N248	N	0.686291	0.954016	0.400757
	N249	N	0.686441	0.026036	0.575379
	N250	N	0.327965	0.953379	0.573832
	N251	N	0.325568	0.026422	0.399342
	N252	N	0.920733	0.453369	0.169962
	N253	N	0.090260	0.528256	0.169216
	N254	N	0.089376	0.453345	0.818631
	N255	N	0.918549	0.527124	0.813268
	N256	N	0.185077	0.903440	0.453267
	N257	N	0.187558	0.078322	0.524168
	N258	N	0.828237	0.075615	0.452691
	N259	N	0.824644	0.899379	0.525048
	N260	N	0.468357	0.171863	0.901711
	N261	N	0.542757	0.168584	0.073022
	N262	N	0.468854	0.811493	0.076440
	N263	N	0.542533	0.812604	0.904297
	N264	N	0.468939	0.904186	0.168982
	N265	N	0.542253	0.076516	0.167255
	N266	N	0.470222	0.081103	0.806092
	N267	N	0.543758	0.906938	0.811527
	N268	N	0.920027	0.169367	0.454718
	N269	N	0.090087	0.164020	0.528780
	N270	N	0.092037	0.812837	0.453852
	N271	N	0.923496	0.813878	0.528781
	N272	N	0.182386	0.454916	0.907247
	N273	N	0.185651	0.526964	0.080659
	N274	N	0.825524	0.454450	0.080244
	N275	N	0.826517	0.528532	0.906277
	O276	O	1.088703	0.026124	1.003217
	H277	H	1.090241	0.024400	1.003419
	H278	H	1.085065	0.030503	1.007761
	O279	O	0.546333	0.439009	0.460170
	H280	H	0.549574	0.439665	0.458868
	H281	H	0.543460	0.440525	0.464079
	O282	O	0.438435	0.659409	0.523280
	H283	H	0.458878	0.669343	0.540034
	H284	H	0.446499	0.651750	0.523142
	O285	O	0.542901	0.478901	0.472414
	H286	H	0.543709	0.479289	0.462880
	H287	H	0.526455	0.482530	0.483007
	O288	O	0.420903	0.451190	0.424669
	H289	H	0.410258	0.437445	0.419609
	H290	H	0.416511	0.458056	0.430838
	O291	O	-0.141084	0.059274	0.902375
	H292	H	-0.140035	0.044850	0.892746
	H293	H	-0.133425	0.067142	0.905407
	O294	O	0.951068	1.114215	-0.164772
	H295	H	0.955137	1.118881	-0.170049
	H296	H	0.949705	1.114440	-0.159296
	O297	O	1.135177	1.035504	-0.038812
	H298	H	1.133668	1.039098	-0.039628
	H299	H	1.123086	1.036925	-0.036774
	O300	O	0.513428	0.394892	0.523309
	H301	H	0.508662	0.385605	0.522666
	H302	H	0.511365	0.394789	0.525790
	O303	O	-0.096995	1.000129	1.071114
	H304	H	-0.087312	0.991090	1.063333
	H305	H	-0.096957	1.000502	1.077967
	O306	O	0.629409	0.438645	0.450092
	H307	H	0.630720	0.448839	0.441232
	H308	H	0.635121	0.433638	0.455076
	O309	O	0.471690	0.569249	0.458989
	H310	H	0.455454	0.561382	0.469027
	H311	H	0.472207	0.575422	0.440015
	O312	O	1.357018	1.507364	1.533742
	H313	H	1.361994	1.524197	1.547566
	H314	H	1.361572	1.500680	1.537864
	O315	O	1.545873	1.594745	-0.480035
	H316	H	1.549721	1.598933	-0.487534
	H317	H	1.533761	1.595037	-0.497997
	O318	O	0.029425	1.061742	0.956983
	H319	H	0.036052	1.052774	0.954654
	H320	H	0.033647	1.049955	0.953261
	O321	O	0.400989	0.534358	0.451462
	H322	H	0.404841	0.541322	0.455600
	H323	H	0.393511	0.538289	0.444600
	O324	O	-0.122659	0.858582	1.162096
	H325	H	-0.129238	0.842898	1.184575
	H326	H	-0.117080	0.858049	1.163246
	O327	O	0.001313	0.964174	1.026848
	H328	H	0.001025	0.969252	1.037955
	H329	H	-0.009188	0.957602	1.016532
	O330	O	-0.340309	0.377401	0.369258
	H331	H	-0.329469	0.369298	0.371174
	H332	H	-0.344605	0.377810	0.372165
	O333	O	0.358718	0.429999	0.603696
	H334	H	0.357946	0.440464	0.608434
	H335	H	0.350132	0.432178	0.608162
	O336	O	-0.701361	-0.772809	0.734410
	H337	H	-0.709047	-0.764639	0.729199
	H338	H	-0.705105	-0.758298	0.742516
	O339	O	-0.036742	-0.070971	-0.057516
	H340	H	-0.026873	-0.067516	-0.066560
	H341	H	-0.035209	-0.074906	-0.052545
	O342	O	0.443239	0.402143	0.492025
	H343	H	0.443606	0.401784	0.506683
	H344	H	0.435334	0.403894	0.484529
	O345	O	0.088779	0.937862	1.039741
	H346	H	0.100242	0.942211	1.035707
	H347	H	0.072078	0.929388	1.026725
	O348	O	0.542269	0.553952	0.520677
	H349	H	0.555086	0.556478	0.517224
	H350	H	0.549470	0.544870	0.521644
	O351	O	0.669553	0.422252	-0.470472
	H352	H	0.663373	0.423619	-0.469977
	H353	H	0.663221	0.419370	-0.472834
	O354	O	0.056526	0.991297	-0.067863
	H355	H	0.052236	1.002870	-0.065514
	H356	H	0.056522	1.000839	-0.085619
	O357	O	0.502091	0.540047	0.485578
	H358	H	0.504031	0.531245	0.485953
	H359	H	0.514569	0.525954	0.481612
	O360	O	1.035384	-0.073913	1.062544
	H361	H	1.047928	-0.068640	1.049652
	H362	H	1.050731	-0.068241	1.054701
	O363	O	0.485434	0.533103	0.625523
	H364	H	0.483682	0.538961	0.632491
	H365	H	0.486646	0.528326	0.628881
	O366	O	0.412583	0.425954	0.496163
	H367	H	0.423485	0.431598	0.485890
	H368	H	0.408570	0.424766	0.491497
	O369	O	0.866269	0.096581	-0.097820
	H370	H	0.868003	0.103373	-0.100067
	H371	H	0.845371	0.094191	-0.094697
	O372	O	0.539358	0.572445	0.441796
	H373	H	0.540449	0.574200	0.431705
	H374	H	0.534878	0.567252	0.436525
	O375	O	1.084247	0.010665	1.057357
	H376	H	1.087107	0.005548	1.050542
	H377	H	1.088465	0.001794	1.056926
	O378	O	-0.153153	0.958061	-0.015282
	H379	H	-0.145400	0.948069	-0.002032
	H380	H	-0.151039	0.968414	-0.024024
	O381	O	-0.038601	0.874772	0.949962
	H382	H	-0.043818	0.874636	0.960424
	H383	H	-0.051814	0.878230	0.940581
	O384	O	1.159511	0.906321	-0.024253
	H385	H	1.171654	0.901249	-0.033274
	H386	H	1.152352	0.912840	-0.039135
	O387	O	0.974303	-0.073447	1.061599
	H388	H	0.967884	-0.062519	1.058643
	H389	H	0.964127	-0.075216	1.071139
	O390	O	0.998342	1.076061	-0.067810
	H391	H	0.992044	1.061727	-0.056172
	H392	H	0.986605	1.082325	-0.073342
	O393	O	0.627337	0.499623	0.579346
	H394	H	0.632228	0.494045	0.564376
	H395	H	0.626281	0.494933	0.591568
