data_Molecule from HDF5

_cell_length_a		16.376587
_cell_length_b		16.352687
_cell_length_c		16.416900
_cell_angle_alpha	89.967555
_cell_angle_beta	89.933978
_cell_angle_gamma	89.700364
_symmetry_space_group_name_H-M	'P 1'
_symmetry_Int_Tables_number		1

loop_
	_symmetry_equiv_pos_as_xyz
	x,y,z

loop_
	_atom_site_label
	_atom_site_type_symbol
	_atom_site_fract_x
	_atom_site_fract_y
	_atom_site_fract_z
	H0	H	0.382599	0.840216	0.721871
	H1	H	0.599358	0.155371	0.717049
	H2	H	0.604700	0.838337	0.270589
	H3	H	0.385687	0.154788	0.270756
	H4	H	0.717426	0.388203	0.837603
	H5	H	0.717229	0.605704	0.151277
	H6	H	0.267998	0.606355	0.837378
	H7	H	0.267783	0.388756	0.152248
	H8	H	0.833162	0.718226	0.390927
	H9	H	0.150389	0.719230	0.602835
	H10	H	0.833431	0.275987	0.602105
	H11	H	0.148779	0.269354	0.384141
	H12	H	0.833805	0.391914	0.717884
	H13	H	0.151239	0.603329	0.717624
	H14	H	0.834353	0.605487	0.272388
	H15	H	0.148649	0.384855	0.267992
	H16	H	0.382998	0.722158	0.837691
	H17	H	0.598408	0.719563	0.152569
	H18	H	0.601904	0.272355	0.837840
	H19	H	0.384093	0.272378	0.152314
	H20	H	0.714605	0.836316	0.391731
	H21	H	0.712643	0.155734	0.599729
	H22	H	0.268926	0.837979	0.604364
	H23	H	0.264245	0.151887	0.381207
	H24	H	0.884232	0.338321	0.219320
	H25	H	0.098002	0.655085	0.217915
	H26	H	0.101600	0.338510	0.772808
	H27	H	0.887966	0.655689	0.775327
	H28	H	0.218112	0.885865	0.337473
	H29	H	0.217195	0.104318	0.651281
	H30	H	0.770978	0.101570	0.335751
	H31	H	0.772903	0.892521	0.654902
	H32	H	0.332831	0.219228	0.890542
	H33	H	0.651870	0.217718	0.099637
	H34	H	0.333689	0.776727	0.102930
	H35	H	0.651280	0.774961	0.889721
	H36	H	0.335430	0.890525	0.219969
	H37	H	0.652472	0.101978	0.214547
	H38	H	0.333796	0.104998	0.772281
	H39	H	0.651328	0.890822	0.773980
	H40	H	0.885242	0.219568	0.336918
	H41	H	0.099715	0.218744	0.652930
	H42	H	0.100404	0.772546	0.336598
	H43	H	0.888580	0.776352	0.654568
	H44	H	0.215796	0.338120	0.888797
	H45	H	0.211208	0.656554	0.100032
	H46	H	0.769366	0.337782	0.103029
	H47	H	0.772167	0.655639	0.891321
	H48	H	0.406250	0.107145	0.579777
	H49	H	0.576022	0.883313	0.587912
	H50	H	0.583785	0.110709	0.407320
	H51	H	0.413175	0.885690	0.406196
	H52	H	0.581016	0.406104	0.107942
	H53	H	0.581351	0.586319	0.880678
	H54	H	0.398024	0.586788	0.109270
	H55	H	0.401736	0.409244	0.880871
	H56	H	0.102625	0.579209	0.409932
	H57	H	0.879275	0.580700	0.589961
	H58	H	0.105379	0.407310	0.583943
	H59	H	0.880643	0.407927	0.412965
	H60	H	0.104961	0.407053	0.582016
	H61	H	0.875770	0.593057	0.587647
	H62	H	0.106265	0.582420	0.401700
	H63	H	0.881268	0.415451	0.406095
	H64	H	0.403408	0.582798	0.106284
	H65	H	0.581354	0.583103	0.882613
	H66	H	0.582406	0.410502	0.107563
	H67	H	0.405022	0.413814	0.884581
	H68	H	0.583414	0.111861	0.401687
	H69	H	0.583424	0.883960	0.577630
	H70	H	0.404182	0.108656	0.580863
	H71	H	0.407973	0.886165	0.411946
	H72	H	0.899654	0.610263	0.079421
	H73	H	0.081750	0.380224	0.089117
	H74	H	0.076045	0.610830	0.902112
	H75	H	0.897636	0.380202	0.908607
	H76	H	0.082867	0.908189	0.608229
	H77	H	0.075218	0.082843	0.383584
	H78	H	0.899042	0.085247	0.609882
	H79	H	0.904475	0.897235	0.378417
	H80	H	0.609062	0.091631	0.902669
	H81	H	0.376159	0.086367	0.090748
	H82	H	0.603612	0.911967	0.079628
	H83	H	0.379273	0.909026	0.908323
	H84	H	0.608298	0.909175	0.088535
	H85	H	0.380237	0.091334	0.076653
	H86	H	0.602086	0.083952	0.914017
	H87	H	0.380094	0.912016	0.908790
	H88	H	0.904371	0.083204	0.606739
	H89	H	0.079124	0.083216	0.381983
	H90	H	0.080319	0.909868	0.606635
	H91	H	0.894024	0.913132	0.380191
	H92	H	0.080119	0.608771	0.911251
	H93	H	0.071678	0.387959	0.080000
	H94	H	0.903170	0.611129	0.088902
	H95	H	0.908416	0.380446	0.898798
	H96	H	0.406424	0.108206	0.583000
	H97	H	0.587915	0.879215	0.588245
	H98	H	0.579204	0.109094	0.404550
	H99	H	0.406263	0.882686	0.405617
	H100	H	0.578229	0.409649	0.106898
	H101	H	0.578621	0.585484	0.881843
	H102	H	0.404443	0.589840	0.108797
	H103	H	0.408143	0.408189	0.883379
	H104	H	0.106423	0.588111	0.409682
	H105	H	0.881396	0.585662	0.578325
	H106	H	0.105415	0.408722	0.582842
	H107	H	0.877306	0.406988	0.403777
	H108	H	0.908862	0.607672	0.081596
	H109	H	0.085966	0.384518	0.075359
	H110	H	0.085272	0.613436	0.904175
	H111	H	0.910632	0.385594	0.912399
	H112	H	0.079885	0.906076	0.606976
	H113	H	0.078718	0.079264	0.384439
	H114	H	0.903603	0.089512	0.609520
	H115	H	0.911929	0.912533	0.386108
	H116	H	0.604610	0.077372	0.901012
	H117	H	0.383724	0.076710	0.080980
	H118	H	0.607763	0.902349	0.080224
	H119	H	0.379010	0.911351	0.906465
	C120	C	0.371019	0.004427	0.616150
	C121	C	0.614124	0.987608	0.616468
	C122	C	0.615660	0.005092	0.372630
	C123	C	0.373015	0.988232	0.372855
	C124	C	0.614194	0.375245	0.003378
	C125	C	0.613275	0.617895	0.986103
	C126	C	0.369272	0.619878	0.003465
	C127	C	0.371148	0.376239	0.987065
	C128	C	0.000766	0.617415	0.374174
	C129	C	0.984024	0.618747	0.617431
	C130	C	0.000672	0.375254	0.616464
	C131	C	0.983567	0.374687	0.372874
	C132	C	0.870270	0.505174	0.117038
	C133	C	0.112530	0.488698	0.115537
	C134	C	0.114763	0.506082	0.872874
	C135	C	0.872406	0.487469	0.874737
	C136	C	0.114774	0.873992	0.502986
	C137	C	0.112852	0.116770	0.486664
	C138	C	0.870303	0.118204	0.503613
	C139	C	0.872202	0.876125	0.487024
	C140	C	0.500591	0.118559	0.873241
	C141	C	0.484701	0.117676	0.115330
	C142	C	0.501883	0.875065	0.116926
	C143	C	0.483984	0.876867	0.874730
	C144	C	0.365904	0.886926	0.680011
	C145	C	0.616838	0.107464	0.676672
	C146	C	0.620410	0.885554	0.311850
	C147	C	0.367383	0.106744	0.310352
	C148	C	0.676612	0.370757	0.884901
	C149	C	0.675662	0.622141	0.104308
	C150	C	0.308386	0.623625	0.884826
	C151	C	0.308639	0.371314	0.105043
	C152	C	0.881202	0.678460	0.372428
	C153	C	0.103136	0.678854	0.620129
	C154	C	0.881200	0.315525	0.620015
	C155	C	0.101624	0.310778	0.367574
	C156	C	0.881495	0.373212	0.677660
	C157	C	0.103464	0.620969	0.677533
	C158	C	0.881594	0.622037	0.313307
	C159	C	0.101555	0.368581	0.309575
	C160	C	0.365813	0.681494	0.885183
	C161	C	0.616514	0.679171	0.105050
	C162	C	0.618616	0.313406	0.884746
	C163	C	0.366713	0.313422	0.104996
	C164	C	0.675715	0.884616	0.371815
	C165	C	0.673521	0.107741	0.618301
	C166	C	0.309171	0.885935	0.621227
	C167	C	0.307230	0.105219	0.365871
	C168	C	0.866806	0.385855	0.178544
	C169	C	0.115674	0.607684	0.177132
	C170	C	0.118845	0.386234	0.812878
	C171	C	0.869654	0.607819	0.815100
	C172	C	0.177017	0.869066	0.384751
	C173	C	0.176176	0.121699	0.604160
	C174	C	0.810681	0.120305	0.383666
	C175	C	0.812811	0.874375	0.607205
	C176	C	0.380676	0.179240	0.871607
	C177	C	0.604366	0.177567	0.117272
	C178	C	0.381889	0.815762	0.120928
	C179	C	0.603593	0.815270	0.871813
	C180	C	0.382743	0.872698	0.179043
	C181	C	0.604747	0.119740	0.174751
	C182	C	0.381032	0.122342	0.812713
	C183	C	0.603579	0.873257	0.814276
	C184	C	0.867485	0.179120	0.384241
	C185	C	0.117313	0.178675	0.604935
	C186	C	0.118166	0.812691	0.384431
	C187	C	0.870667	0.816675	0.607066
	C188	C	0.175892	0.386280	0.870669
	C189	C	0.172066	0.608517	0.118256
	C190	C	0.809286	0.385798	0.120755
	C191	C	0.812070	0.607808	0.872979
	C192	C	0.397747	0.086646	0.588758
	C193	C	0.589373	0.904099	0.591630
	C194	C	0.589548	0.088582	0.397369
	C195	C	0.401118	0.906353	0.400235
	C196	C	0.587929	0.401404	0.085916
	C197	C	0.587485	0.592307	0.903464
	C198	C	0.394574	0.593950	0.086493
	C199	C	0.397625	0.402903	0.904535
	C200	C	0.083763	0.590693	0.399557
	C201	C	0.900508	0.593638	0.592372
	C202	C	0.083550	0.400293	0.590324
	C203	C	0.901240	0.402303	0.399944
	C204	C	0.896320	0.587855	0.090963
	C205	C	0.087023	0.405724	0.089296
	C206	C	0.088226	0.589375	0.898468
	C207	C	0.898167	0.403828	0.899526
	C208	C	0.088754	0.900568	0.585896
	C209	C	0.085619	0.089460	0.404565
	C210	C	0.895009	0.093229	0.586692
	C211	C	0.896655	0.900478	0.403530
	C212	C	0.583580	0.091933	0.898494
	C213	C	0.401687	0.092145	0.090153
	C214	C	0.584783	0.900223	0.090471
	C215	C	0.400926	0.903027	0.900483
	Zn216	Zn	0.492583	-0.002832	0.744347
	Zn217	Zn	0.494453	-0.003249	0.244310
	Zn218	Zn	0.743118	0.495869	-0.005302
	Zn219	Zn	0.241775	0.497409	-0.005078
	Zn220	Zn	-0.007530	0.746211	0.495192
	Zn221	Zn	-0.008496	0.246675	0.495303
	Zn222	Zn	-0.007439	0.496320	0.745517
	Zn223	Zn	-0.008151	0.496766	0.244629
	Zn224	Zn	0.491750	0.747362	-0.004786
	Zn225	Zn	0.492820	0.247143	-0.005305
	Zn226	Zn	0.742062	-0.003936	0.495555
	Zn227	Zn	0.242883	-0.004131	0.493801
	N228	N	0.403414	0.961796	0.676983
	N229	N	0.580650	0.031721	0.675820
	N230	N	0.583674	0.961514	0.312317
	N231	N	0.407548	0.033002	0.314576
	N232	N	0.674043	0.408468	0.959660
	N233	N	0.673568	0.584482	0.029501
	N234	N	0.310254	0.586162	0.959512
	N235	N	0.311581	0.410016	0.030869
	N236	N	0.956544	0.675894	0.409368
	N237	N	0.027812	0.677672	0.583665
	N238	N	0.956342	0.316477	0.582903
	N239	N	0.027254	0.314515	0.406243
	N240	N	0.956971	0.409394	0.675774
	N241	N	0.028208	0.584261	0.676014
	N242	N	0.956998	0.584997	0.314185
	N243	N	0.027066	0.407544	0.312856
	N244	N	0.402908	0.679337	0.960187
	N245	N	0.578173	0.676499	0.030706
	N246	N	0.580666	0.315983	0.959355
	N247	N	0.405010	0.316779	0.030604
	N248	N	0.672953	0.959899	0.408719
	N249	N	0.671991	0.032259	0.581619
	N250	N	0.312398	0.960044	0.581732
	N251	N	0.310676	0.030519	0.404190
	N252	N	0.903805	0.461100	0.176570
	N253	N	0.079563	0.532003	0.175590
	N254	N	0.081678	0.461816	0.813943
	N255	N	0.906506	0.532037	0.816177
	N256	N	0.175071	0.906404	0.459734
	N257	N	0.173752	0.084185	0.529231
	N258	N	0.812122	0.083221	0.458837
	N259	N	0.813679	0.910792	0.531642
	N260	N	0.455925	0.177097	0.908306
	N261	N	0.528828	0.176517	0.081156
	N262	N	0.457015	0.816906	0.083271
	N263	N	0.528017	0.817282	0.908500
	N264	N	0.458412	0.908607	0.176732
	N265	N	0.529371	0.083178	0.173666
	N266	N	0.456717	0.085430	0.813536
	N267	N	0.528225	0.910550	0.815782
	N268	N	0.903798	0.177911	0.459610
	N269	N	0.078903	0.175822	0.530579
	N270	N	0.080484	0.815344	0.459281
	N271	N	0.907053	0.817957	0.531620
	N272	N	0.173814	0.462100	0.906890
	N273	N	0.170538	0.533338	0.080835
	N274	N	0.811150	0.460994	0.083407
	N275	N	0.813675	0.531927	0.909175
	O276	O	0.693555	0.322750	0.477085
	H277	H	0.702964	0.302504	0.456133
	H278	H	0.701384	0.317640	0.454645
	O279	O	0.276789	0.710829	0.475244
	H280	H	0.309540	0.716176	0.503419
	H281	H	0.245662	0.747741	0.475568
	O282	O	0.516657	0.285631	0.521803
	H283	H	0.509351	0.284437	0.548075
	H284	H	0.541750	0.284865	0.510824
	O285	O	0.965650	1.117116	0.204071
	H286	H	0.993861	1.095249	0.204837
	H287	H	0.970971	1.151649	0.223502
	O288	O	0.658158	0.508120	0.569614
	H289	H	0.639336	0.498565	0.560410
	H290	H	0.658114	0.487077	0.550690
	O291	O	0.279295	0.475857	0.709944
	H292	H	0.294034	0.494670	0.726172
	H293	H	0.267727	0.487500	0.726136
	O294	O	1.162490	0.823132	0.822122
	H295	H	1.143838	0.842689	0.813658
	H296	H	1.143773	0.819275	0.826773
	O297	O	0.472986	0.286054	0.708836
	H298	H	0.452640	0.278842	0.711838
	H299	H	0.440093	0.271467	0.721454
	O300	O	0.515611	0.716720	0.712944
	H301	H	0.566390	0.705654	0.702275
	H302	H	0.522455	0.750377	0.747028
	O303	O	0.675167	0.313311	0.312798
	H304	H	0.685853	0.364667	0.304644
	H305	H	0.633418	0.309888	0.313038
	O306	O	-0.107485	-0.059407	1.156417
	H307	H	-0.113927	-0.061384	1.159745
	H308	H	-0.113067	-0.053157	1.144831
	O309	O	0.924427	-0.116086	-0.062931
	H310	H	0.926593	-0.111712	-0.065213
	H311	H	0.923525	-0.123760	-0.077414
	O312	O	0.693879	0.691641	0.515708
	H313	H	0.687758	0.686141	0.497458
	H314	H	0.695269	0.682494	0.499049
	O315	O	0.482890	0.433475	0.404544
	H316	H	0.481274	0.447494	0.404978
	H317	H	0.493795	0.435980	0.411778
	O318	O	-0.204343	-0.006041	-0.020856
	H319	H	-0.219467	-0.004011	-0.017253
	H320	H	-0.180197	-0.008325	-0.021006
	O321	O	0.679747	0.687900	0.682986
	H322	H	0.687664	0.695070	0.628723
	H323	H	0.687217	0.634220	0.692496
	O324	O	0.840064	0.172459	0.818539
	H325	H	0.833950	0.173769	0.842403
	H326	H	0.832559	0.144431	0.832008
	O327	O	0.705497	0.477011	0.280441
	H328	H	0.681964	0.499363	0.273735
	H329	H	0.725422	0.484306	0.252267
	O330	O	0.008273	0.814686	0.812536
	H331	H	-0.009009	0.833967	0.807765
	H332	H	-0.001435	0.814558	0.803299
	O333	O	-0.141401	0.858832	-0.033744
	H334	H	-0.156745	0.861102	-0.038369
	H335	H	-0.146733	0.849702	-0.029335
	O336	O	1.127210	1.103699	-0.059552
	H337	H	1.121596	1.115360	-0.079086
	H338	H	1.122554	1.108842	-0.043362
	O339	O	0.185666	0.956900	1.049691
	H340	H	0.184464	0.938576	1.032484
	H341	H	0.179075	0.968443	1.048492
	O342	O	0.472348	0.714540	0.275972
	H343	H	0.443026	0.726509	0.264231
	H344	H	0.442667	0.726975	0.261090
	O345	O	-0.086905	-0.017436	1.046214
	H346	H	-0.069520	-0.015372	1.025421
	H347	H	-0.075779	-0.008167	1.048295
	O348	O	0.631284	0.565827	0.340992
	H349	H	0.618106	0.564285	0.360917
	H350	H	0.615988	0.572120	0.335562
	O351	O	0.843438	0.825366	0.173956
	H352	H	0.858092	0.813847	0.177468
	H353	H	0.830123	0.849764	0.180323
	O354	O	0.880001	1.115682	1.148973
	H355	H	0.909100	1.126219	1.157685
	H356	H	0.885086	1.112785	1.150453
	O357	O	-0.014058	0.208036	-0.198000
	H358	H	-0.047851	0.200992	-0.190991
	H359	H	-0.020551	0.233020	-0.212069
	O360	O	0.470698	0.514866	0.716941
	H361	H	0.479748	0.515992	0.709914
	H362	H	0.488839	0.508264	0.718100
	O363	O	1.282721	-0.485346	0.285587
	H364	H	1.271540	-0.496307	0.282647
	H365	H	1.273941	-0.504359	0.285005
	O366	O	0.275306	0.279811	1.513606
	H367	H	0.269087	0.264176	1.502548
	H368	H	0.284176	0.256456	1.501227
	O369	O	0.857574	-0.117346	0.994720
	H370	H	0.850509	-0.124883	1.015172
	H371	H	0.857579	-0.114103	1.004654
	O372	O	0.631701	0.453388	0.683616
	H373	H	0.629996	0.436102	0.682600
	H374	H	0.624637	0.434111	0.684061
	O375	O	0.100687	0.053475	1.099549
	H376	H	0.106633	0.044701	1.096355
	H377	H	0.082446	0.043152	1.107975
	O378	O	0.315711	0.675020	0.313473
	H379	H	0.301781	0.646169	0.324422
	H380	H	0.301286	0.660604	0.344579
	O381	O	0.042116	1.119674	0.038334
	H382	H	0.022642	1.113739	0.036329
	H383	H	0.053515	1.109893	0.061704
	O384	O	0.276428	0.433462	0.433627
	H385	H	0.274158	0.460675	0.441121
	H386	H	0.277083	0.399670	0.450576
	O387	O	0.489112	0.501686	0.279595
	H388	H	0.481289	0.511338	0.288955
	H389	H	0.493823	0.512672	0.280764
	O390	O	0.998379	0.830745	0.181359
	H391	H	0.993231	0.819634	0.180884
	H392	H	1.003995	0.815028	0.171308
	O393	O	0.820982	0.184163	0.970979
	H394	H	0.819776	0.193423	0.977344
	H395	H	0.822907	0.182836	0.993006
	O396	O	0.691854	0.445699	0.593012
	H397	H	0.688288	0.437009	0.581331
	H398	H	0.689496	0.428816	0.573475
	O399	O	0.486268	0.278041	0.449071
	H400	H	0.513068	0.285478	0.461685
	H401	H	0.487588	0.277743	0.437026
	O402	O	1.205450	0.789477	-0.026219
	H403	H	1.222518	0.784919	-0.037317
	H404	H	1.214015	0.781874	-0.048654
	O405	O	0.488528	0.301851	0.297196
	H406	H	0.489840	0.294078	0.281477
	H407	H	0.478158	0.309152	0.305574
	O408	O	0.314840	0.315049	0.674413
	H409	H	0.300283	0.305655	0.621159
	H410	H	0.300846	0.367519	0.686000
	O411	O	0.872207	0.977382	0.814423
	H412	H	0.870749	0.966812	0.817295
	H413	H	0.881997	1.006508	0.826479
	O414	O	0.439330	0.525435	0.491029
	H415	H	0.433142	0.508419	0.475325
	H416	H	0.433007	0.551428	0.498105
	O417	O	0.152899	1.158068	1.164512
	H418	H	0.160896	1.139677	1.141199
	H419	H	0.156912	1.134987	1.161739
	O420	O	0.084792	0.876438	1.135301
	H421	H	0.087332	0.863703	1.117041
	H422	H	0.096827	0.867176	1.130701
	O423	O	0.183917	0.983789	-0.197351
	H424	H	0.192491	0.979780	-0.210973
	H425	H	0.185612	0.987505	-0.189113
	O426	O	0.541432	0.703125	0.434595
	H427	H	0.523403	0.715342	0.395443
	H428	H	0.531833	0.699258	0.446718
	O429	O	0.347156	0.531318	0.549836
	H430	H	0.338862	0.525354	0.573069
	H431	H	0.349946	0.558433	0.560531
	O432	O	0.457870	0.521281	0.581745
	H433	H	0.451715	0.510140	0.592284
	H434	H	0.464232	0.537626	0.593724
	O435	O	0.105744	0.198337	-0.018316
	H436	H	0.098316	0.202650	-0.004269
	H437	H	0.103087	0.199236	-0.038707
	O438	O	0.018693	1.017563	0.791993
	H439	H	0.034170	1.018994	0.785020
	H440	H	0.014099	1.055528	0.789543
	O441	O	0.427173	0.714675	0.553115
	H442	H	0.440594	0.704141	0.559356
	H443	H	0.445681	0.714925	0.575029
