data_Molecule from HDF5

_cell_length_a		16.165836
_cell_length_b		16.273110
_cell_length_c		16.193818
_cell_angle_alpha	89.189978
_cell_angle_beta	89.420163
_cell_angle_gamma	90.450869
_symmetry_space_group_name_H-M	'P 1'
_symmetry_Int_Tables_number		1

loop_
	_symmetry_equiv_pos_as_xyz
	x,y,z

loop_
	_atom_site_label
	_atom_site_type_symbol
	_atom_site_fract_x
	_atom_site_fract_y
	_atom_site_fract_z
	H0	H	0.385387	0.834704	0.709086
	H1	H	0.587701	0.161230	0.703563
	H2	H	0.587800	0.835412	0.276506
	H3	H	0.388887	0.160846	0.273008
	H4	H	0.703988	0.400523	0.827190
	H5	H	0.699855	0.598256	0.154240
	H6	H	0.277828	0.597094	0.824450
	H7	H	0.267880	0.395184	0.153928
	H8	H	0.825895	0.716107	0.388704
	H9	H	0.154041	0.711427	0.585450
	H10	H	0.826403	0.275958	0.600611
	H11	H	0.153413	0.288505	0.392595
	H12	H	0.823675	0.396404	0.708910
	H13	H	0.153250	0.596285	0.701077
	H14	H	0.822698	0.598826	0.278359
	H15	H	0.150938	0.402413	0.274131
	H16	H	0.385614	0.718160	0.828379
	H17	H	0.584141	0.711078	0.153763
	H18	H	0.587475	0.285500	0.826605
	H19	H	0.379213	0.276328	0.152881
	H20	H	0.704309	0.835676	0.390184
	H21	H	0.706029	0.160680	0.588835
	H22	H	0.269870	0.834932	0.594399
	H23	H	0.276004	0.162391	0.391248
	H24	H	0.883510	0.336296	0.210991
	H25	H	0.084207	0.664113	0.199652
	H26	H	0.085008	0.334445	0.777349
	H27	H	0.889666	0.661814	0.773212
	H28	H	0.202942	0.904620	0.326440
	H29	H	0.200622	0.093597	0.656559
	H30	H	0.779623	0.098164	0.326359
	H31	H	0.770185	0.893897	0.653452
	H32	H	0.322208	0.211459	0.890379
	H33	H	0.648272	0.215322	0.090494
	H34	H	0.321982	0.781179	0.092870
	H35	H	0.650329	0.786718	0.890432
	H36	H	0.323338	0.894139	0.211151
	H37	H	0.651842	0.096263	0.199987
	H38	H	0.322478	0.094787	0.777707
	H39	H	0.650033	0.899994	0.776438
	H40	H	0.889126	0.218874	0.329746
	H41	H	0.088716	0.211506	0.656039
	H42	H	0.089199	0.788630	0.326106
	H43	H	0.887013	0.780442	0.654066
	H44	H	0.201854	0.334830	0.891316
	H45	H	0.202481	0.662520	0.084599
	H46	H	0.767955	0.335745	0.094969
	H47	H	0.774526	0.662849	0.890938
	H48	H	0.395284	0.114301	0.582788
	H49	H	0.583179	0.881303	0.579434
	H50	H	0.588567	0.116148	0.397964
	H51	H	0.407273	0.886366	0.405672
	H52	H	0.577349	0.410841	0.106782
	H53	H	0.581616	0.591874	0.873305
	H54	H	0.390556	0.590917	0.108868
	H55	H	0.394129	0.410391	0.873762
	H56	H	0.109769	0.595444	0.386548
	H57	H	0.873073	0.586159	0.579498
	H58	H	0.107388	0.411028	0.594253
	H59	H	0.869210	0.412220	0.394299
	H60	H	0.108423	0.394375	0.582074
	H61	H	0.869740	0.588548	0.588399
	H62	H	0.106710	0.600377	0.400432
	H63	H	0.868798	0.396126	0.406218
	H64	H	0.391524	0.585427	0.108038
	H65	H	0.578495	0.593140	0.872463
	H66	H	0.567994	0.405502	0.105338
	H67	H	0.399508	0.403093	0.873991
	H68	H	0.583012	0.115767	0.390294
	H69	H	0.579243	0.879360	0.589761
	H70	H	0.394369	0.114729	0.583131
	H71	H	0.386497	0.881758	0.410788
	H72	H	0.887083	0.617822	0.082619
	H73	H	0.075259	0.381704	0.089294
	H74	H	0.094317	0.620572	0.888383
	H75	H	0.893922	0.383320	0.904516
	H76	H	0.081808	0.901359	0.610648
	H77	H	0.084219	0.101181	0.371812
	H78	H	0.897533	0.086187	0.608005
	H79	H	0.899668	0.914145	0.375688
	H80	H	0.605712	0.090483	0.889931
	H81	H	0.369365	0.086927	0.081339
	H82	H	0.606191	0.901324	0.085592
	H83	H	0.363948	0.888763	0.904126
	H84	H	0.602881	0.902934	0.079427
	H85	H	0.369106	0.084261	0.082891
	H86	H	0.606924	0.100352	0.898323
	H87	H	0.373959	0.914391	0.913475
	H88	H	0.896412	0.086776	0.608393
	H89	H	0.087562	0.090377	0.373465
	H90	H	0.078752	0.905473	0.607202
	H91	H	0.903590	0.900016	0.372378
	H92	H	0.070966	0.614390	0.885585
	H93	H	0.071594	0.385158	0.081318
	H94	H	0.895460	0.616345	0.088208
	H95	H	0.891610	0.381219	0.901215
	H96	H	0.396255	0.115652	0.583701
	H97	H	0.572022	0.883517	0.582296
	H98	H	0.579124	0.113372	0.398077
	H99	H	0.393856	0.877615	0.390805
	H100	H	0.575893	0.399970	0.109505
	H101	H	0.581597	0.594755	0.872295
	H102	H	0.395104	0.589485	0.108029
	H103	H	0.391168	0.402606	0.870544
	H104	H	0.104097	0.586103	0.396823
	H105	H	0.869727	0.594911	0.581271
	H106	H	0.100750	0.411153	0.574138
	H107	H	0.875091	0.413192	0.412802
	H108	H	0.895586	0.614085	0.078460
	H109	H	0.080299	0.381805	0.081624
	H110	H	0.082111	0.611771	0.907356
	H111	H	0.896005	0.382669	0.900430
	H112	H	0.075202	0.900190	0.609404
	H113	H	0.077489	0.093967	0.376242
	H114	H	0.896060	0.085343	0.609487
	H115	H	0.889373	0.904823	0.369702
	H116	H	0.601984	0.088245	0.901950
	H117	H	0.368617	0.086889	0.084804
	H118	H	0.604195	0.907541	0.084812
	H119	H	0.365166	0.911918	0.885350
	C120	C	0.365057	0.006829	0.613938
	C121	C	0.608653	0.989175	0.611981
	C122	C	0.611411	0.007351	0.367494
	C123	C	0.366840	0.989738	0.370829
	C124	C	0.605884	0.377307	-0.000820
	C125	C	0.608039	0.620636	0.981257
	C126	C	0.365386	0.618977	-0.000677
	C127	C	0.363501	0.374806	0.981196
	C128	C	-0.002659	0.622208	0.367517
	C129	C	0.979837	0.618942	0.610560
	C130	C	-0.002920	0.375499	0.614531
	C131	C	0.979495	0.379099	0.372670
	C132	C	0.862292	0.508171	0.114508
	C133	C	0.106925	0.490480	0.111312
	C134	C	0.109977	0.507174	0.866989
	C135	C	0.865607	0.490294	0.870547
	C136	C	0.108945	0.876779	0.499988
	C137	C	0.110872	0.121140	0.482826
	C138	C	0.868225	0.118537	0.500587
	C139	C	0.866304	0.875024	0.480861
	C140	C	0.496000	0.120715	0.867971
	C141	C	0.477137	0.117173	0.111265
	C142	C	0.495260	0.874287	0.113738
	C143	C	0.476729	0.877233	0.870967
	C144	C	0.365538	0.883865	0.671140
	C145	C	0.608001	0.112191	0.666402
	C146	C	0.608390	0.884492	0.313462
	C147	C	0.368872	0.112300	0.312111
	C148	C	0.664623	0.380504	0.876149
	C149	C	0.662115	0.617917	0.104985
	C150	C	0.313432	0.617404	0.874541
	C151	C	0.305911	0.374998	0.104579
	C152	C	0.874260	0.677578	0.369864
	C153	C	0.104472	0.673818	0.606454
	C154	C	0.874569	0.316372	0.617359
	C155	C	0.103692	0.325553	0.372892
	C156	C	0.873165	0.376154	0.671407
	C157	C	0.103958	0.616532	0.664225
	C158	C	0.872687	0.619284	0.314622
	C159	C	0.102449	0.381969	0.313734
	C160	C	0.366988	0.677510	0.876292
	C161	C	0.604585	0.674216	0.104885
	C162	C	0.606488	0.323253	0.875703
	C163	C	0.361594	0.316222	0.104209
	C164	C	0.666331	0.884575	0.370250
	C165	C	0.666299	0.112282	0.608836
	C166	C	0.307980	0.883950	0.613961
	C167	C	0.312964	0.113018	0.371257
	C168	C	0.863518	0.385157	0.172295
	C169	C	0.104595	0.614769	0.163084
	C170	C	0.105884	0.383383	0.814415
	C171	C	0.868841	0.613007	0.812279
	C172	C	0.165001	0.882972	0.375521
	C173	C	0.164184	0.115767	0.607292
	C174	C	0.815732	0.118216	0.376123
	C175	C	0.809125	0.874797	0.604548
	C176	C	0.371607	0.174094	0.870545
	C177	C	0.600204	0.175222	0.109144
	C178	C	0.371468	0.818719	0.113084
	C179	C	0.600886	0.823466	0.871221
	C180	C	0.372151	0.875188	0.171772
	C181	C	0.601874	0.116273	0.163952
	C182	C	0.371766	0.116411	0.814138
	C183	C	0.600835	0.879962	0.814481
	C184	C	0.870036	0.178229	0.377980
	C185	C	0.108294	0.174185	0.606998
	C186	C	0.108520	0.825315	0.375250
	C187	C	0.867128	0.818245	0.604683
	C188	C	0.164085	0.383820	0.870852
	C189	C	0.163215	0.613940	0.105824
	C190	C	0.805829	0.384867	0.114565
	C191	C	0.811977	0.613873	0.871003
	C192	C	0.388492	0.092732	0.590287
	C193	C	0.585119	0.903791	0.590234
	C194	C	0.589900	0.092954	0.389186
	C195	C	0.389349	0.904083	0.395054
	C196	C	0.581037	0.398886	0.084921
	C197	C	0.586834	0.599380	0.895064
	C198	C	0.386195	0.595542	0.085762
	C199	C	0.387862	0.398525	0.895129
	C200	C	0.084279	0.600394	0.388232
	C201	C	0.893424	0.596672	0.589341
	C202	C	0.083093	0.398840	0.590527
	C203	C	0.893195	0.400922	0.397210
	C204	C	0.885704	0.593902	0.090302
	C205	C	0.082982	0.405069	0.090242
	C206	C	0.088831	0.593288	0.887689
	C207	C	0.887413	0.404690	0.895022
	C208	C	0.085490	0.896500	0.586716
	C209	C	0.089578	0.101163	0.396357
	C210	C	0.890083	0.093526	0.586376
	C211	C	0.890323	0.899192	0.394735
	C212	C	0.582575	0.099363	0.889982
	C213	C	0.391148	0.093146	0.089476
	C214	C	0.581995	0.897172	0.090076
	C215	C	0.390099	0.898542	0.894306
	Zn216	Zn	0.486835	-0.002445	0.742596
	Zn217	Zn	0.487865	-0.002094	0.240733
	Zn218	Zn	0.735286	0.499452	-0.008645
	Zn219	Zn	0.237621	0.498086	-0.010399
	Zn220	Zn	-0.011069	0.748427	0.489541
	Zn221	Zn	-0.011166	0.248552	0.492919
	Zn222	Zn	-0.012449	0.497727	0.740452
	Zn223	Zn	-0.014090	0.499948	0.242079
	Zn224	Zn	0.486310	0.747665	-0.010190
	Zn225	Zn	0.485350	0.246767	-0.009543
	Zn226	Zn	0.738985	-0.002103	0.490156
	Zn227	Zn	0.237381	-0.001294	0.491639
	N228	N	0.400556	0.961145	0.671067
	N229	N	0.572727	0.034909	0.668351
	N230	N	0.574887	0.961785	0.311595
	N231	N	0.401727	0.034413	0.311788
	N232	N	0.664336	0.413503	0.954010
	N233	N	0.664554	0.585396	0.027178
	N234	N	0.312205	0.581557	0.952112
	N235	N	0.306972	0.410671	0.027166
	N236	N	0.952727	0.679332	0.402178
	N237	N	0.026207	0.675515	0.573694
	N238	N	0.952657	0.315714	0.582725
	N239	N	0.026122	0.323599	0.408836
	N240	N	0.950351	0.412123	0.669958
	N241	N	0.025669	0.582974	0.666888
	N242	N	0.950318	0.585400	0.313204
	N243	N	0.024040	0.414357	0.313570
	N244	N	0.398668	0.678594	0.954651
	N245	N	0.571728	0.676178	0.026913
	N246	N	0.570675	0.321030	0.953022
	N247	N	0.396804	0.315917	0.026401
	N248	N	0.668544	0.962087	0.403140
	N249	N	0.667094	0.034825	0.575612
	N250	N	0.307703	0.961443	0.578710
	N251	N	0.311622	0.035920	0.406971
	N252	N	0.897793	0.462807	0.172515
	N253	N	0.070114	0.537080	0.166713
	N254	N	0.072980	0.461123	0.811853
	N255	N	0.901506	0.535122	0.811995
	N256	N	0.165620	0.914049	0.454071
	N257	N	0.165865	0.083593	0.529179
	N258	N	0.814467	0.081768	0.453403
	N259	N	0.808505	0.909589	0.526635
	N260	N	0.449902	0.176852	0.903319
	N261	N	0.521679	0.175855	0.076788
	N262	N	0.449365	0.817971	0.077898
	N263	N	0.522571	0.821698	0.905712
	N264	N	0.450326	0.909010	0.172354
	N265	N	0.524436	0.080898	0.165372
	N266	N	0.450060	0.084012	0.812543
	N267	N	0.522708	0.912621	0.814272
	N268	N	0.902014	0.178508	0.456357
	N269	N	0.076175	0.178088	0.528663
	N270	N	0.074235	0.821534	0.453448
	N271	N	0.901854	0.818171	0.526622
	N272	N	0.166897	0.461768	0.902660
	N273	N	0.164846	0.535794	0.074551
	N274	N	0.804994	0.462354	0.079386
	N275	N	0.809705	0.536562	0.906512
	O276	O	0.475402	0.529792	0.610115
	H277	H	0.470955	0.535156	0.608342
	H278	H	0.477455	0.539490	0.610005
	O279	O	0.518714	0.538444	0.569678
	H280	H	0.517620	0.541711	0.561796
	H281	H	0.506253	0.542852	0.567721
	O282	O	0.872781	0.983753	0.009439
	H283	H	0.864527	0.983170	0.000544
	H284	H	0.876079	0.984531	0.008551
	O285	O	0.501486	-0.394074	1.379015
	H286	H	0.496373	-0.409117	1.365229
	H287	H	0.510311	-0.390990	1.383736
	O288	O	0.643163	0.422857	0.375342
	H289	H	0.656192	0.434301	0.381691
	H290	H	0.651851	0.423897	0.372724
	O291	O	0.608787	0.335606	0.638015
	H292	H	0.608003	0.349505	0.625809
	H293	H	0.600902	0.324963	0.641762
	O294	O	0.455641	0.418100	0.493211
	H295	H	0.459909	0.409967	0.499423
	H296	H	0.452629	0.431507	0.492835
	O297	O	-0.066076	0.025296	1.087067
	H298	H	-0.067491	0.031208	1.088283
	H299	H	-0.079058	0.031960	1.084775
	O300	O	0.455009	0.537776	0.360797
	H301	H	0.439935	0.532097	0.359890
	H302	H	0.445482	0.529920	0.361471
	O303	O	1.040828	0.977984	0.029511
	H304	H	1.052451	0.969242	0.040339
	H305	H	1.038800	0.973306	0.039036
	O306	O	-0.124416	1.005373	0.962004
	H307	H	-0.127502	1.022568	0.962312
	H308	H	-0.124698	1.001339	0.955375
	O309	O	0.523778	0.475085	0.546709
	H310	H	0.526209	0.487679	0.556970
	H311	H	0.528408	0.483045	0.549760
	O312	O	-0.034881	-0.062914	0.058137
	H313	H	-0.043013	-0.057776	0.056246
	H314	H	-0.026853	-0.070113	0.047126
	O315	O	0.919908	0.089884	-0.109868
	H316	H	0.929373	0.090889	-0.106364
	H317	H	0.920622	0.093963	-0.109162
	O318	O	1.017816	1.073959	0.930737
	H319	H	1.024375	1.081675	0.932701
	H320	H	1.012677	1.072619	0.937434
	O321	O	-0.014627	-0.033090	0.949243
	H322	H	-0.014602	-0.034023	0.943982
	H323	H	-0.007533	-0.030533	0.946183
	O324	O	0.582763	0.514590	0.612556
	H325	H	0.596211	0.502965	0.603223
	H326	H	0.592708	0.515568	0.616166
	O327	O	0.041999	-0.053358	-0.005893
	H328	H	0.044364	-0.054956	-0.010752
	H329	H	0.044810	-0.051092	-0.005473
	O330	O	0.474152	0.398782	0.336971
	H331	H	0.475564	0.403881	0.332036
	H332	H	0.478024	0.394827	0.353253
	O333	O	0.551723	0.462442	1.519524
	H334	H	0.548603	0.470407	1.527363
	H335	H	0.552098	0.466356	1.499152
	O336	O	0.490811	-0.566109	0.557548
	H337	H	0.485639	-0.566224	0.557460
	H338	H	0.486226	-0.553119	0.557589
	O339	O	0.432252	0.622481	0.536114
	H340	H	0.431213	0.604378	0.547153
	H341	H	0.439399	0.624632	0.537610
	O342	O	0.986992	0.976352	1.030730
	H343	H	0.979905	0.979357	1.040789
	H344	H	0.982699	0.976059	1.027724
	O345	O	1.515195	1.521125	-0.527111
	H346	H	1.521506	1.511459	-0.526456
	H347	H	1.513428	1.513109	-0.523482
	O348	O	0.535821	0.428015	0.322220
	H349	H	0.556343	0.423355	0.316650
	H350	H	0.548889	0.437558	0.308210
	O351	O	0.967559	0.962762	0.963752
	H352	H	0.967704	0.969468	0.953741
	H353	H	0.979215	0.972535	0.963000
	O354	O	0.439873	0.443302	0.494408
	H355	H	0.442383	0.435611	0.489222
	H356	H	0.439859	0.447844	0.501539
	O357	O	0.982577	0.020821	1.002240
	H358	H	0.988539	0.018869	1.001330
	H359	H	0.986202	0.027260	0.998655
	O360	O	0.963736	-0.021199	0.088338
	H361	H	0.954901	-0.019139	0.089701
	H362	H	0.965727	-0.022376	0.077422
	O363	O	0.477731	0.437390	0.435641
	H364	H	0.481674	0.445770	0.445172
	H365	H	0.487962	0.436615	0.434722
	O366	O	0.963393	1.061243	1.053758
	H367	H	0.961752	1.063393	1.063459
	H368	H	0.964859	1.063988	1.047447
	O369	O	0.622857	0.606251	1.499398
	H370	H	0.634419	0.619039	1.494955
	H371	H	0.623832	0.616742	1.500717
	O372	O	0.326445	0.384999	-0.393049
	H373	H	0.335696	0.390154	-0.405318
	H374	H	0.323800	0.384478	-0.402717
	O375	O	1.477721	0.662776	0.391980
	H376	H	1.466668	0.675681	0.377818
	H377	H	1.473919	0.659995	0.404329
	O378	O	0.409933	0.471080	0.628801
	H379	H	0.404373	0.470640	0.629629
	H380	H	0.410930	0.466494	0.634751
	O381	O	0.498476	0.627070	0.361932
	H382	H	0.480031	0.622807	0.373310
	H383	H	0.491321	0.631074	0.345962
