data_Molecule from HDF5

_cell_length_a		16.205489
_cell_length_b		16.217019
_cell_length_c		16.270220
_cell_angle_alpha	89.970809
_cell_angle_beta	89.590153
_cell_angle_gamma	89.877027
_symmetry_space_group_name_H-M	'P 1'
_symmetry_Int_Tables_number		1

loop_
	_symmetry_equiv_pos_as_xyz
	x,y,z

loop_
	_atom_site_label
	_atom_site_type_symbol
	_atom_site_fract_x
	_atom_site_fract_y
	_atom_site_fract_z
	H0	H	0.398661	0.840690	0.715774
	H1	H	0.597560	0.168260	0.712097
	H2	H	0.599456	0.839695	0.283842
	H3	H	0.402403	0.169203	0.286387
	H4	H	0.715369	0.406368	0.835432
	H5	H	0.711853	0.602355	0.162834
	H6	H	0.287508	0.602385	0.834758
	H7	H	0.284552	0.407185	0.162901
	H8	H	0.834354	0.717943	0.401057
	H9	H	0.163481	0.716903	0.594035
	H10	H	0.834498	0.292575	0.597386
	H11	H	0.164067	0.290341	0.400061
	H12	H	0.835938	0.405206	0.714768
	H13	H	0.164164	0.601588	0.710150
	H14	H	0.835006	0.603738	0.284970
	H15	H	0.164077	0.404629	0.282340
	H16	H	0.402169	0.718677	0.835496
	H17	H	0.595872	0.718179	0.162799
	H18	H	0.599184	0.290763	0.834588
	H19	H	0.400960	0.291256	0.163622
	H20	H	0.713508	0.839048	0.399693
	H21	H	0.712271	0.168074	0.596029
	H22	H	0.286309	0.838882	0.596200
	H23	H	0.285599	0.168467	0.400867
	H24	H	0.900698	0.340609	0.213771
	H25	H	0.096710	0.668854	0.210436
	H26	H	0.100332	0.340635	0.783953
	H27	H	0.903044	0.668903	0.785851
	H28	H	0.214207	0.906072	0.334131
	H29	H	0.210902	0.102109	0.663116
	H30	H	0.786599	0.101323	0.333801
	H31	H	0.785266	0.906389	0.662973
	H32	H	0.334751	0.217507	0.903863
	H33	H	0.665139	0.217465	0.095655
	H34	H	0.335127	0.792922	0.096778
	H35	H	0.664491	0.791416	0.900423
	H36	H	0.335416	0.906643	0.214186
	H37	H	0.664408	0.102625	0.211685
	H38	H	0.334742	0.103743	0.787027
	H39	H	0.664084	0.906206	0.783303
	H40	H	0.901018	0.219054	0.334047
	H41	H	0.094201	0.217238	0.662767
	H42	H	0.097110	0.790754	0.334143
	H43	H	0.901010	0.790981	0.662492
	H44	H	0.214198	0.340758	0.901117
	H45	H	0.211289	0.669281	0.096114
	H46	H	0.786614	0.339986	0.096653
	H47	H	0.787537	0.669327	0.902158
	H48	H	0.401146	0.119963	0.583867
	H49	H	0.598103	0.882036	0.599373
	H50	H	0.581114	0.121437	0.394452
	H51	H	0.398492	0.882430	0.398604
	H52	H	0.592831	0.417731	0.114646
	H53	H	0.595438	0.594132	0.882204
	H54	H	0.402547	0.596036	0.116675
	H55	H	0.415306	0.412889	0.884899
	H56	H	0.114032	0.594719	0.410931
	H57	H	0.880973	0.602485	0.591835
	H58	H	0.115832	0.409262	0.585275
	H59	H	0.880645	0.407369	0.406128
	H60	H	0.116682	0.415104	0.594033
	H61	H	0.883068	0.593670	0.590767
	H62	H	0.116928	0.591853	0.398093
	H63	H	0.884315	0.414294	0.410271
	H64	H	0.407127	0.599516	0.116152
	H65	H	0.590553	0.598832	0.882435
	H66	H	0.585757	0.406471	0.114883
	H67	H	0.405658	0.403342	0.879735
	H68	H	0.589246	0.116113	0.419345
	H69	H	0.581535	0.888825	0.594003
	H70	H	0.399945	0.125108	0.599966
	H71	H	0.417506	0.887864	0.401404
	H72	H	0.902571	0.622099	0.089202
	H73	H	0.086137	0.384515	0.104550
	H74	H	0.091367	0.621715	0.902128
	H75	H	0.907436	0.387534	0.907968
	H76	H	0.088493	0.903693	0.616267
	H77	H	0.094959	0.092237	0.382401
	H78	H	0.908864	0.105992	0.616265
	H79	H	0.911210	0.906262	0.381276
	H80	H	0.617414	0.100889	0.907575
	H81	H	0.388064	0.087736	0.083092
	H82	H	0.617201	0.909432	0.087849
	H83	H	0.378852	0.903154	0.906321
	H84	H	0.616601	0.914644	0.091813
	H85	H	0.379636	0.094093	0.108436
	H86	H	0.615658	0.093291	0.904259
	H87	H	0.384955	0.915270	0.914233
	H88	H	0.895429	0.098143	0.617865
	H89	H	0.088483	0.098294	0.382311
	H90	H	0.099057	0.909901	0.617802
	H91	H	0.900029	0.907995	0.378146
	H92	H	0.095285	0.622516	0.905766
	H93	H	0.083298	0.393080	0.080105
	H94	H	0.903922	0.624370	0.097221
	H95	H	0.906222	0.386742	0.905317
	H96	H	0.414839	0.119056	0.594295
	H97	H	0.595691	0.888247	0.581780
	H98	H	0.607624	0.126574	0.401266
	H99	H	0.403762	0.888412	0.416301
	H100	H	0.598924	0.406550	0.118895
	H101	H	0.596658	0.599943	0.880216
	H102	H	0.401228	0.601880	0.118177
	H103	H	0.401336	0.417053	0.881977
	H104	H	0.119552	0.604404	0.403234
	H105	H	0.879822	0.595814	0.599123
	H106	H	0.120014	0.405305	0.594029
	H107	H	0.881988	0.415436	0.401504
	H108	H	0.909662	0.620982	0.092715
	H109	H	0.106007	0.383273	0.087465
	H110	H	0.096319	0.625503	0.901285
	H111	H	0.909433	0.387289	0.905935
	H112	H	0.089104	0.916035	0.613134
	H113	H	0.096486	0.100964	0.379705
	H114	H	0.908168	0.090994	0.612108
	H115	H	0.906371	0.916683	0.382398
	H116	H	0.619480	0.099851	0.899357
	H117	H	0.379762	0.113041	0.088976
	H118	H	0.619008	0.909267	0.094445
	H119	H	0.381830	0.916953	0.898926
	C120	C	0.376910	0.012760	0.621158
	C121	C	0.619945	0.995205	0.619464
	C122	C	0.621156	0.012276	0.376795
	C123	C	0.378281	0.995397	0.377509
	C124	C	0.621623	0.382279	0.007556
	C125	C	0.621399	0.625928	0.990087
	C126	C	0.376990	0.626682	0.007972
	C127	C	0.378358	0.383036	0.990599
	C128	C	0.007570	0.625433	0.376717
	C129	C	0.990514	0.625325	0.620542
	C130	C	0.008312	0.382366	0.620211
	C131	C	0.990988	0.382942	0.376761
	C132	C	0.877277	0.513619	0.121149
	C133	C	0.119860	0.496113	0.119003
	C134	C	0.122335	0.513769	0.875940
	C135	C	0.879130	0.495757	0.878090
	C136	C	0.120687	0.882135	0.506680
	C137	C	0.120367	0.125686	0.490068
	C138	C	0.876691	0.126332	0.506843
	C139	C	0.877249	0.882412	0.489646
	C140	C	0.508356	0.126343	0.877133
	C141	C	0.491544	0.125960	0.120714
	C142	C	0.508688	0.883223	0.120437
	C143	C	0.490838	0.883338	0.877305
	C144	C	0.379358	0.889207	0.676494
	C145	C	0.617507	0.119188	0.674005
	C146	C	0.619143	0.888508	0.321936
	C147	C	0.381345	0.119655	0.323444
	C148	C	0.677249	0.385543	0.884148
	C149	C	0.674870	0.623434	0.113849
	C150	C	0.324157	0.623422	0.884092
	C151	C	0.322769	0.386442	0.114190
	C152	C	0.883590	0.680340	0.380422
	C153	C	0.114582	0.679113	0.615136
	C154	C	0.884001	0.328973	0.617868
	C155	C	0.114844	0.327619	0.378973
	C156	C	0.884914	0.384835	0.676651
	C157	C	0.114943	0.622030	0.672960
	C158	C	0.883846	0.623451	0.322628
	C159	C	0.114920	0.384560	0.320769
	C160	C	0.380975	0.681276	0.884546
	C161	C	0.616960	0.680424	0.113712
	C162	C	0.619517	0.328104	0.883692
	C163	C	0.380591	0.328719	0.114447
	C164	C	0.675784	0.888150	0.379631
	C165	C	0.674911	0.118843	0.616613
	C166	C	0.323213	0.888414	0.617722
	C167	C	0.323384	0.119373	0.380433
	C168	C	0.879993	0.389509	0.175912
	C169	C	0.116975	0.619848	0.173266
	C170	C	0.120041	0.389592	0.822083
	C171	C	0.882183	0.619899	0.823523
	C172	C	0.176032	0.885448	0.383220
	C173	C	0.173407	0.122422	0.614043
	C174	C	0.823218	0.122895	0.382861
	C175	C	0.822837	0.885828	0.613770
	C176	C	0.383996	0.180484	0.882442
	C177	C	0.615910	0.179939	0.116481
	C178	C	0.384313	0.829621	0.117865
	C179	C	0.615151	0.828716	0.879655
	C180	C	0.384533	0.886410	0.176022
	C181	C	0.615609	0.122707	0.173970
	C182	C	0.384002	0.123832	0.824237
	C183	C	0.614964	0.885869	0.821596
	C184	C	0.880060	0.181486	0.383150
	C185	C	0.115502	0.179773	0.613795
	C186	C	0.117871	0.828184	0.383083
	C187	C	0.880259	0.828359	0.613549
	C188	C	0.176696	0.389766	0.879967
	C189	C	0.173596	0.620136	0.116019
	C190	C	0.823370	0.389214	0.117974
	C191	C	0.825051	0.620102	0.881344
	C192	C	0.398612	0.098887	0.599010
	C193	C	0.598195	0.908763	0.598152
	C194	C	0.599175	0.098946	0.398591
	C195	C	0.399931	0.908771	0.399050
	C196	C	0.599162	0.403824	0.093801
	C197	C	0.600424	0.604107	0.903793
	C198	C	0.397547	0.605420	0.094592
	C199	C	0.400614	0.404826	0.904385
	C200	C	0.094419	0.603313	0.397623
	C201	C	0.903665	0.603517	0.600106
	C202	C	0.095012	0.403660	0.597792
	C203	C	0.904680	0.405672	0.399304
	C204	C	0.898943	0.600049	0.099460
	C205	C	0.098124	0.409272	0.097205
	C206	C	0.100642	0.600737	0.896729
	C207	C	0.901006	0.409510	0.899937
	C208	C	0.098709	0.903576	0.593285
	C209	C	0.099492	0.103670	0.403716
	C210	C	0.897782	0.104740	0.592925
	C211	C	0.899251	0.903911	0.403093
	C212	C	0.595108	0.104526	0.897595
	C213	C	0.405033	0.104730	0.099797
	C214	C	0.595152	0.904677	0.098006
	C215	C	0.404250	0.905286	0.899871
	Zn216	Zn	0.499031	0.004564	0.748898
	Zn217	Zn	0.500361	0.004413	0.249227
	Zn218	Zn	0.749913	0.504485	-0.000888
	Zn219	Zn	0.249051	0.504959	-0.001146
	Zn220	Zn	-0.001404	0.753441	0.498415
	Zn221	Zn	-0.001253	0.254709	0.498244
	Zn222	Zn	0.000233	0.503832	0.748567
	Zn223	Zn	-0.000282	0.504652	0.248213
	Zn224	Zn	0.499565	0.754565	-0.000930
	Zn225	Zn	0.500132	0.254295	-0.000759
	Zn226	Zn	0.748633	0.003073	0.498172
	Zn227	Zn	0.249406	0.003725	0.498994
	N228	N	0.411890	0.967393	0.678836
	N229	N	0.583860	0.041399	0.675989
	N230	N	0.585830	0.966710	0.320144
	N231	N	0.414777	0.041664	0.321620
	N232	N	0.678850	0.418150	0.962279
	N233	N	0.677544	0.590065	0.036160
	N234	N	0.321291	0.590449	0.961909
	N235	N	0.321189	0.419513	0.036167
	N236	N	0.961439	0.681475	0.413516
	N237	N	0.036088	0.681450	0.583515
	N238	N	0.961673	0.327595	0.583296
	N239	N	0.036892	0.326506	0.413152
	N240	N	0.963323	0.417191	0.678341
	N241	N	0.036814	0.589021	0.676156
	N242	N	0.962016	0.589932	0.320376
	N243	N	0.036884	0.418050	0.319097
	N244	N	0.413191	0.683486	0.962544
	N245	N	0.584501	0.682054	0.035688
	N246	N	0.585565	0.326126	0.961413
	N247	N	0.414623	0.326720	0.036711
	N248	N	0.677167	0.966106	0.413083
	N249	N	0.676261	0.040933	0.583137
	N250	N	0.321629	0.966170	0.583735
	N251	N	0.321295	0.041150	0.413266
	N252	N	0.912596	0.467610	0.178146
	N253	N	0.084190	0.541660	0.175182
	N254	N	0.087066	0.467791	0.819395
	N255	N	0.915260	0.541795	0.821364
	N256	N	0.177885	0.918263	0.461201
	N257	N	0.176841	0.089567	0.535974
	N258	N	0.820744	0.089413	0.460667
	N259	N	0.820893	0.918751	0.535736
	N260	N	0.462263	0.182014	0.914736
	N261	N	0.537674	0.182167	0.084160
	N262	N	0.462233	0.827636	0.083837
	N263	N	0.537118	0.827012	0.913559
	N264	N	0.462838	0.919223	0.177452
	N265	N	0.537372	0.090027	0.176824
	N266	N	0.462304	0.090987	0.820925
	N267	N	0.536604	0.918965	0.820222
	N268	N	0.912615	0.183518	0.461025
	N269	N	0.083322	0.181754	0.535753
	N270	N	0.084263	0.826069	0.460989
	N271	N	0.913181	0.825988	0.535244
	N272	N	0.178294	0.467978	0.912747
	N273	N	0.175549	0.542086	0.082978
	N274	N	0.821492	0.467257	0.084601
	N275	N	0.822784	0.542013	0.914275
	O276	O	0.530290	0.428019	0.559037
	H277	H	0.526607	0.415715	0.564754
	H278	H	0.537898	0.432308	0.569962
	O279	O	0.042408	0.012800	-0.004959
	H280	H	0.042620	0.001847	-0.003883
	H281	H	0.038577	0.018657	-0.009435
	O282	O	0.497120	0.436235	0.518489
	H283	H	0.498328	0.434266	0.523935
	H284	H	0.505777	0.430110	0.512602
	O285	O	0.478566	0.457728	0.512621
	H286	H	0.466839	0.455321	0.513271
	H287	H	0.472725	0.466652	0.520870
	O288	O	1.076256	0.076008	0.011574
	H289	H	1.077466	0.070734	0.005763
	H290	H	1.074114	0.075910	0.018204
	O291	O	-0.475559	0.420739	-0.450978
	H292	H	-0.482925	0.420485	-0.452748
	H293	H	-0.462464	0.422003	-0.446399
	O294	O	0.564236	0.460779	0.514211
	H295	H	0.558350	0.457393	0.504532
	H296	H	0.580479	0.459737	0.513069
	O297	O	0.570489	1.418397	0.446089
	H298	H	0.560086	1.415993	0.450448
	H299	H	0.570361	1.418430	0.443215
	O300	O	1.129353	0.042317	0.964901
	H301	H	1.134787	0.044302	0.970986
	H302	H	1.117858	0.042624	0.976559
	O303	O	0.480983	0.481575	0.534296
	H304	H	0.480404	0.481929	0.534202
	H305	H	0.476574	0.484544	0.538106
	O306	O	0.042953	1.018995	0.996549
	H307	H	0.040249	1.019519	1.004717
	H308	H	0.035699	1.015687	0.995651
	O309	O	0.515045	0.466093	0.547247
	H310	H	0.512788	0.458614	0.554243
	H311	H	0.504337	0.460439	0.546040
