data_Molecule from HDF5

_cell_length_a		16.283019
_cell_length_b		16.539247
_cell_length_c		16.415412
_cell_angle_alpha	90.064314
_cell_angle_beta	89.944915
_cell_angle_gamma	90.133548
_symmetry_space_group_name_H-M	'P 1'
_symmetry_Int_Tables_number		1

loop_
	_symmetry_equiv_pos_as_xyz
	x,y,z

loop_
	_atom_site_label
	_atom_site_type_symbol
	_atom_site_fract_x
	_atom_site_fract_y
	_atom_site_fract_z
	H0	H	0.392469	0.846474	0.726065
	H1	H	0.617577	0.154704	0.727006
	H2	H	0.612266	0.845579	0.275098
	H3	H	0.396518	0.157507	0.275590
	H4	H	0.724529	0.398971	0.840035
	H5	H	0.726928	0.607093	0.157999
	H6	H	0.278915	0.611575	0.843149
	H7	H	0.284069	0.396696	0.157637
	H8	H	0.849708	0.727123	0.389108
	H9	H	0.164511	0.724021	0.606961
	H10	H	0.847654	0.277387	0.610115
	H11	H	0.162707	0.278705	0.392197
	H12	H	0.845360	0.396015	0.720522
	H13	H	0.164413	0.608666	0.722149
	H14	H	0.845684	0.607562	0.279078
	H15	H	0.162408	0.393212	0.275440
	H16	H	0.391786	0.728920	0.844696
	H17	H	0.616788	0.728374	0.155614
	H18	H	0.616139	0.276470	0.843079
	H19	H	0.393730	0.274539	0.154119
	H20	H	0.730055	0.846127	0.388888
	H21	H	0.733192	0.154911	0.610946
	H22	H	0.279191	0.845781	0.607599
	H23	H	0.284900	0.158955	0.395169
	H24	H	0.898802	0.344975	0.221814
	H25	H	0.116442	0.657010	0.226323
	H26	H	0.113965	0.345546	0.774558
	H27	H	0.896710	0.657363	0.775279
	H28	H	0.224192	0.899829	0.339750
	H29	H	0.229723	0.109393	0.658093
	H30	H	0.782373	0.109880	0.343043
	H31	H	0.779446	0.891819	0.655725
	H32	H	0.349019	0.227409	0.887693
	H33	H	0.662843	0.225534	0.108471
	H34	H	0.346303	0.777554	0.107909
	H35	H	0.661288	0.776988	0.888292
	H36	H	0.345091	0.894314	0.221745
	H37	H	0.663113	0.108592	0.222573
	H38	H	0.347021	0.109321	0.775761
	H39	H	0.661267	0.891022	0.773621
	H40	H	0.895872	0.227799	0.345376
	H41	H	0.116969	0.228424	0.656503
	H42	H	0.117202	0.777403	0.342963
	H43	H	0.896173	0.776386	0.655283
	H44	H	0.229486	0.345435	0.891834
	H45	H	0.229904	0.658152	0.108076
	H46	H	0.784294	0.344172	0.103523
	H47	H	0.782870	0.658877	0.893412
	H48	H	0.422211	0.112345	0.590935
	H49	H	0.586619	0.892204	0.581975
	H50	H	0.591094	0.114104	0.408137
	H51	H	0.414270	0.888590	0.412267
	H52	H	0.598027	0.412728	0.114172
	H53	H	0.590056	0.587562	0.888906
	H54	H	0.415450	0.593681	0.114388
	H55	H	0.420135	0.409453	0.885951
	H56	H	0.119171	0.583583	0.407566
	H57	H	0.893101	0.591082	0.581574
	H58	H	0.119520	0.416472	0.591583
	H59	H	0.890367	0.407270	0.416796
	H60	H	0.120039	0.410872	0.585705
	H61	H	0.893671	0.584919	0.587407
	H62	H	0.122382	0.595381	0.411388
	H63	H	0.895540	0.419920	0.418098
	H64	H	0.417395	0.582365	0.109295
	H65	H	0.589414	0.594336	0.886615
	H66	H	0.590002	0.416446	0.110742
	H67	H	0.415924	0.415124	0.885788
	H68	H	0.590529	0.111720	0.414626
	H69	H	0.594655	0.889203	0.583539
	H70	H	0.420104	0.110911	0.582469
	H71	H	0.414313	0.887803	0.408490
	H72	H	0.922916	0.610663	0.083534
	H73	H	0.086080	0.394292	0.084127
	H74	H	0.088233	0.610329	0.915876
	H75	H	0.915542	0.388649	0.907790
	H76	H	0.092711	0.919162	0.610913
	H77	H	0.097070	0.092494	0.385948
	H78	H	0.922403	0.085395	0.609602
	H79	H	0.922166	0.913199	0.387962
	H80	H	0.618638	0.089073	0.914138
	H81	H	0.391141	0.089918	0.085826
	H82	H	0.616907	0.915491	0.087052
	H83	H	0.391724	0.914575	0.915038
	H84	H	0.618777	0.914073	0.087825
	H85	H	0.392625	0.088081	0.084636
	H86	H	0.617112	0.086663	0.915276
	H87	H	0.391084	0.915481	0.913190
	H88	H	0.922177	0.092629	0.613813
	H89	H	0.091600	0.088030	0.389765
	H90	H	0.086317	0.911615	0.610996
	H91	H	0.918581	0.912459	0.385967
	H92	H	0.095993	0.613611	0.913215
	H93	H	0.097451	0.390364	0.084240
	H94	H	0.909241	0.616752	0.086148
	H95	H	0.916408	0.389389	0.910839
	H96	H	0.414035	0.115021	0.588358
	H97	H	0.588306	0.888669	0.589813
	H98	H	0.596381	0.114645	0.411876
	H99	H	0.417363	0.888637	0.410042
	H100	H	0.589752	0.407975	0.113386
	H101	H	0.595251	0.590845	0.885431
	H102	H	0.426176	0.590718	0.109055
	H103	H	0.421871	0.415376	0.888455
	H104	H	0.116612	0.587352	0.419737
	H105	H	0.889473	0.592332	0.589457
	H106	H	0.116932	0.417688	0.584179
	H107	H	0.889210	0.416194	0.405983
	H108	H	0.919677	0.616170	0.096824
	H109	H	0.090090	0.388020	0.094244
	H110	H	0.088867	0.613168	0.907311
	H111	H	0.913381	0.389009	0.910575
	H112	H	0.095190	0.910613	0.614459
	H113	H	0.089369	0.095040	0.387256
	H114	H	0.915534	0.087534	0.613675
	H115	H	0.918880	0.915723	0.387627
	H116	H	0.618301	0.087154	0.912813
	H117	H	0.391283	0.087445	0.086857
	H118	H	0.618359	0.913411	0.085537
	H119	H	0.391238	0.913728	0.913567
	C120	C	0.382900	0.010284	0.621370
	C121	C	0.625871	0.992211	0.620427
	C122	C	0.626496	0.010273	0.377739
	C123	C	0.383089	0.992513	0.377764
	C124	C	0.626411	0.379969	0.008353
	C125	C	0.626124	0.624170	0.990981
	C126	C	0.383921	0.623376	0.008020
	C127	C	0.384085	0.379555	0.990273
	C128	C	0.014786	0.622295	0.378705
	C129	C	0.996900	0.622765	0.620285
	C130	C	0.014154	0.380988	0.621414
	C131	C	0.996348	0.381006	0.379861
	C132	C	0.883622	0.510554	0.121384
	C133	C	0.126766	0.493437	0.122030
	C134	C	0.126406	0.509672	0.877950
	C135	C	0.882784	0.493036	0.877322
	C136	C	0.126303	0.880980	0.507968
	C137	C	0.127441	0.124762	0.491612
	C138	C	0.884877	0.122861	0.509010
	C139	C	0.884373	0.879475	0.490366
	C140	C	0.513827	0.122028	0.878838
	C141	C	0.496118	0.122626	0.120555
	C142	C	0.513224	0.880553	0.120285
	C143	C	0.495347	0.879962	0.878521
	C144	C	0.376167	0.893278	0.684238
	C145	C	0.633327	0.108153	0.685238
	C146	C	0.630133	0.892787	0.315475
	C147	C	0.379694	0.110651	0.316572
	C148	C	0.686219	0.379124	0.888521
	C149	C	0.687432	0.626361	0.110030
	C150	C	0.320039	0.628630	0.890485
	C151	C	0.323101	0.377655	0.109465
	C152	C	0.896324	0.685216	0.373327
	C153	C	0.116766	0.684024	0.624437
	C154	C	0.895170	0.318427	0.626707
	C155	C	0.115124	0.319237	0.375023
	C156	C	0.893861	0.377717	0.681794
	C157	C	0.116411	0.626548	0.681999
	C158	C	0.894603	0.625709	0.318123
	C159	C	0.115304	0.376600	0.317300
	C160	C	0.376281	0.687546	0.891327
	C161	C	0.632278	0.686699	0.108876
	C162	C	0.631649	0.318426	0.889836
	C163	C	0.377927	0.317025	0.107727
	C164	C	0.689015	0.892958	0.372346
	C165	C	0.691230	0.108117	0.627287
	C166	C	0.319295	0.893002	0.625590
	C167	C	0.323853	0.111531	0.376029
	C168	C	0.880822	0.392339	0.181629
	C169	C	0.132782	0.610367	0.185044
	C170	C	0.131350	0.392452	0.815544
	C171	C	0.879307	0.610620	0.815994
	C172	C	0.186365	0.879924	0.388419
	C173	C	0.189809	0.127724	0.610255
	C174	C	0.822514	0.127428	0.390874
	C175	C	0.820804	0.874779	0.608311
	C176	C	0.395862	0.185516	0.872277
	C177	C	0.615196	0.184904	0.125334
	C178	C	0.393916	0.818302	0.125016
	C179	C	0.613878	0.817689	0.872268
	C180	C	0.393361	0.876539	0.181868
	C181	C	0.615315	0.126739	0.182372
	C182	C	0.394945	0.126633	0.816238
	C183	C	0.613557	0.874367	0.814442
	C184	C	0.879258	0.186289	0.392083
	C185	C	0.133559	0.187018	0.609646
	C186	C	0.132654	0.818864	0.389860
	C187	C	0.878528	0.816620	0.607923
	C188	C	0.188836	0.392345	0.873928
	C189	C	0.189480	0.610841	0.125909
	C190	C	0.823524	0.391930	0.122762
	C191	C	0.822595	0.611402	0.874922
	C192	C	0.410730	0.091485	0.594794
	C193	C	0.597737	0.911322	0.592959
	C194	C	0.600342	0.092077	0.404130
	C195	C	0.408114	0.909979	0.402904
	C196	C	0.600103	0.405119	0.091144
	C197	C	0.599405	0.598320	0.908641
	C198	C	0.411812	0.596541	0.089516
	C199	C	0.411371	0.405800	0.908078
	C200	C	0.097716	0.596169	0.405238
	C201	C	0.913899	0.596787	0.593773
	C202	C	0.097247	0.407454	0.594764
	C203	C	0.913342	0.406988	0.406380
	C204	C	0.909817	0.593058	0.096195
	C205	C	0.099162	0.412208	0.095136
	C206	C	0.099050	0.591158	0.904554
	C207	C	0.907923	0.410407	0.902435
	C208	C	0.099181	0.906598	0.590534
	C209	C	0.100621	0.099124	0.409360
	C210	C	0.912064	0.096046	0.591097
	C211	C	0.911904	0.906347	0.408532
	C212	C	0.596303	0.095278	0.906187
	C213	C	0.413271	0.096237	0.093541
	C214	C	0.596087	0.906696	0.094053
	C215	C	0.413046	0.906974	0.905935
	Zn216	Zn	0.504230	0.000714	0.750518
	Zn217	Zn	0.504195	0.001593	0.248745
	Zn218	Zn	0.754297	0.502136	-0.000621
	Zn219	Zn	0.255832	0.501519	-0.000197
	Zn220	Zn	0.006976	0.751138	0.498932
	Zn221	Zn	0.005437	0.252946	0.501197
	Zn222	Zn	0.004705	0.502088	0.748713
	Zn223	Zn	0.005228	0.501613	0.251028
	Zn224	Zn	0.504756	0.751957	-0.000402
	Zn225	Zn	0.505849	0.250841	-0.000779
	Zn226	Zn	0.755627	0.001125	0.498947
	Zn227	Zn	0.254365	0.001688	0.499137
	N228	N	0.414720	0.967056	0.682001
	N229	N	0.593335	0.034886	0.681331
	N230	N	0.592017	0.966725	0.318507
	N231	N	0.415520	0.035452	0.317318
	N232	N	0.683141	0.416829	0.963285
	N233	N	0.683711	0.588095	0.035720
	N234	N	0.324359	0.589609	0.964118
	N235	N	0.326884	0.415741	0.035246
	N236	N	0.972193	0.683397	0.410190
	N237	N	0.041344	0.682172	0.586999
	N238	N	0.971071	0.320353	0.590079
	N239	N	0.040321	0.322151	0.413430
	N240	N	0.969024	0.415869	0.678824
	N241	N	0.040981	0.589197	0.679523
	N242	N	0.969364	0.587526	0.321241
	N243	N	0.040283	0.414307	0.320125
	N244	N	0.415222	0.684495	0.965549
	N245	N	0.595160	0.685575	0.033841
	N246	N	0.595343	0.318764	0.965317
	N247	N	0.415018	0.317995	0.032484
	N248	N	0.687101	0.967053	0.410027
	N249	N	0.686965	0.034883	0.588022
	N250	N	0.323048	0.966930	0.587344
	N251	N	0.325660	0.037168	0.413264
	N252	N	0.917084	0.467417	0.181034
	N253	N	0.094664	0.536252	0.182935
	N254	N	0.093214	0.466539	0.817925
	N255	N	0.915857	0.535975	0.817259
	N256	N	0.182685	0.917665	0.462947
	N257	N	0.186326	0.089753	0.535817
	N258	N	0.825640	0.088857	0.464961
	N259	N	0.824055	0.912863	0.533851
	N260	N	0.470803	0.182651	0.910560
	N261	N	0.539934	0.182348	0.087615
	N262	N	0.469494	0.820499	0.087721
	N263	N	0.539170	0.820858	0.911244
	N264	N	0.468621	0.914317	0.179351
	N265	N	0.540220	0.088764	0.179558
	N266	N	0.469369	0.087869	0.820024
	N267	N	0.538739	0.912426	0.818094
	N268	N	0.917238	0.183586	0.466679
	N269	N	0.095787	0.185506	0.535044
	N270	N	0.096059	0.819346	0.465405
	N271	N	0.917051	0.819149	0.533473
	N272	N	0.186340	0.466500	0.911615
	N273	N	0.185788	0.537191	0.087130
	N274	N	0.824837	0.466689	0.086222
	N275	N	0.824756	0.537188	0.912350
	O276	O	0.504452	0.355800	0.396777
	H277	H	0.517616	0.381499	0.401544
	H278	H	0.521028	0.356660	0.378166
	O279	O	1.459726	0.391217	1.284871
	H280	H	1.488731	0.390395	1.295658
	H281	H	1.462996	0.383306	1.258686
	O282	O	0.711215	0.514978	0.480962
	H283	H	0.715006	0.503658	0.476901
	H284	H	0.710158	0.530572	0.486819
	O285	O	0.550477	0.647801	0.393921
	H286	H	0.542094	0.671825	0.395160
	H287	H	0.541890	0.625428	0.397641
	O288	O	1.024089	1.201401	-0.025007
	H289	H	1.025790	1.205418	-0.044844
	H290	H	1.047770	1.203518	-0.038833
	O291	O	0.486222	0.518153	0.725641
	H292	H	0.491300	0.542429	0.722846
	H293	H	0.502433	0.503191	0.719174
	O294	O	-0.179636	-0.048306	0.965384
	H295	H	-0.174882	-0.025829	0.954360
	H296	H	-0.177824	-0.029818	0.974332
	O297	O	0.303176	0.419581	0.709859
	H298	H	0.279836	0.435559	0.743005
	H299	H	0.353345	0.433902	0.720660
	O300	O	0.530762	0.563668	0.326925
	H301	H	0.513641	0.566336	0.345735
	H302	H	0.523381	0.556305	0.308827
	O303	O	0.396345	0.500867	0.557452
	H304	H	0.382461	0.505611	0.525909
	H305	H	0.402683	0.502198	0.577808
	O306	O	0.291151	0.290289	0.521122
	H307	H	0.260467	0.255878	0.521693
	H308	H	0.319684	0.290321	0.521182
	O309	O	0.467092	0.443668	0.432449
	H310	H	0.460947	0.436770	0.434318
	H311	H	0.471267	0.440562	0.420124
	O312	O	-0.202188	1.125740	1.026744
	H313	H	-0.204345	1.139873	1.033636
	H314	H	-0.206503	1.113147	1.055590
	O315	O	0.046827	0.815286	1.016042
	H316	H	0.039435	0.800354	1.005611
	H317	H	0.046026	0.811272	1.024264
	O318	O	0.987459	-0.063359	0.006955
	H319	H	0.980777	-0.074584	-0.001988
	H320	H	1.000347	-0.057841	0.007540
	O321	O	0.496954	-0.499217	-0.492982
	H322	H	0.513904	-0.494848	-0.492484
	H323	H	0.504239	-0.498866	-0.488322
	O324	O	0.678043	0.687934	0.673301
	H325	H	0.688977	0.659701	0.655850
	H326	H	0.654007	0.671295	0.678282
	O327	O	-0.013491	0.218094	0.782066
	H328	H	-0.044832	0.225268	0.781653
	H329	H	-0.032831	0.236645	0.768371
	O330	O	0.188437	1.018569	-0.133168
	H331	H	0.170745	1.037449	-0.147892
	H332	H	0.193173	1.025520	-0.161024
	O333	O	0.314817	0.405165	0.626957
	H334	H	0.301836	0.438263	0.629445
	H335	H	0.310388	0.399470	0.584622
	O336	O	-0.412571	-0.578017	-0.383263
	H337	H	-0.406522	-0.586829	-0.383861
	H338	H	-0.423859	-0.596656	-0.388970
	O339	O	0.215825	1.078679	0.934326
	H340	H	0.208605	1.069664	0.942275
	H341	H	0.210471	1.067695	0.917371
	O342	O	0.174779	0.817015	0.863023
	H343	H	0.176862	0.807470	0.903757
	H344	H	0.185381	0.852038	0.861618
	O345	O	0.794518	1.016998	-0.206961
	H346	H	0.782381	1.014664	-0.237031
	H347	H	0.822155	0.997895	-0.216645
	O348	O	0.316411	0.494168	0.454960
	H349	H	0.332193	0.490309	0.446402
	H350	H	0.318746	0.472330	0.478218
	O351	O	-0.092742	1.192003	0.968868
	H352	H	-0.090850	1.191678	0.975079
	H353	H	-0.086396	1.199032	0.976163
	O354	O	-0.201711	0.819988	-0.025246
	H355	H	-0.209819	0.839939	-0.043011
	H356	H	-0.220135	0.816216	-0.030161
	O357	O	-0.059659	-0.206208	1.205267
	H358	H	-0.080164	-0.202576	1.218964
	H359	H	-0.088669	-0.215341	1.192895
	O360	O	0.582568	0.368813	0.579121
	H361	H	0.581626	0.350746	0.574434
	H362	H	0.588396	0.363306	0.579388
	O363	O	-0.105262	0.162312	1.149284
	H364	H	-0.065884	0.163818	1.137421
	H365	H	-0.103109	0.186563	1.175340
	O366	O	0.486194	0.721516	0.283564
	H367	H	0.443112	0.704928	0.298317
	H368	H	0.478421	0.756658	0.251135
	O369	O	0.825326	0.181494	0.813188
	H370	H	0.818888	0.157784	0.827241
	H371	H	0.815456	0.169426	0.846066
	O372	O	0.819951	-0.192281	1.128848
	H373	H	0.805790	-0.185781	1.105532
	H374	H	0.806687	-0.167165	1.113124
	O375	O	0.721538	0.720400	0.517498
	H376	H	0.722193	0.743829	0.515304
	H377	H	0.728028	0.731547	0.543454
	O378	O	-0.086747	1.060617	0.002529
	H379	H	-0.076857	1.055469	0.017755
	H380	H	-0.089720	1.061765	0.013323
	O381	O	0.312837	0.703812	0.481843
	H382	H	0.320033	0.687156	0.497173
	H383	H	0.290504	0.725740	0.490507
	O384	O	0.309373	0.400917	0.370348
	H385	H	0.313786	0.409055	0.373043
	H386	H	0.305592	0.392013	0.373932
	O387	O	0.219822	0.217153	1.017632
	H388	H	0.234375	0.206970	1.020045
	H389	H	0.248587	0.220148	1.013210
	O390	O	0.209857	-0.050339	0.066132
	H391	H	0.213307	-0.068287	0.061106
	H392	H	0.192645	-0.057424	0.059723
	O393	O	1.213177	1.035671	1.205823
	H394	H	1.208769	1.010399	1.205680
	H395	H	1.228826	1.021062	1.214868
	O396	O	0.094123	0.054527	-0.215885
	H397	H	0.082758	0.092233	-0.224358
	H398	H	0.077997	0.046684	-0.197046
	O399	O	1.031132	-0.156387	1.149784
	H400	H	1.013444	-0.166368	1.147223
	H401	H	1.001443	-0.156536	1.149982
	O402	O	0.945229	0.944349	0.779413
	H403	H	0.963159	0.907021	0.780566
	H404	H	0.964391	0.958763	0.791852
	O405	O	0.793502	0.975244	0.214109
	H406	H	0.798081	0.989415	0.235144
	H407	H	0.795254	0.990056	0.233586
	O408	O	1.017741	-0.134662	-0.053823
	H409	H	1.009223	-0.134139	-0.062946
	H410	H	0.999963	-0.131272	-0.055601
	O411	O	1.329763	1.679356	0.323444
	H412	H	1.312549	1.671631	0.344764
	H413	H	1.330056	1.650875	0.337225
	O414	O	0.718142	0.283075	0.479264
	H415	H	0.683046	0.275317	0.479011
	H416	H	0.749885	0.247694	0.475981
	O417	O	1.184919	1.193307	1.186971
	H418	H	1.190176	1.148389	1.193944
	H419	H	1.185311	1.195524	1.151011
	O420	O	-0.498709	-0.384187	-0.503654
	H421	H	-0.482326	-0.385347	-0.506525
	H422	H	-0.513140	-0.381502	-0.510760
	O423	O	0.489853	0.283464	0.712044
	H424	H	0.460456	0.284629	0.714994
	H425	H	0.498462	0.258705	0.721425
	O426	O	0.700372	0.489286	0.627290
	H427	H	0.697115	0.493266	0.618003
	H428	H	0.701793	0.456158	0.618558
	O429	O	0.695954	0.310514	0.310820
	H430	H	0.704204	0.335750	0.329491
	H431	H	0.682613	0.330225	0.315648
	O432	O	0.710363	0.470359	0.292498
	H433	H	0.702363	0.494053	0.290044
	H434	H	0.716602	0.484066	0.281618
	O435	O	1.191205	0.794429	-0.017073
	H436	H	1.175855	0.774987	-0.005604
	H437	H	1.189449	0.778629	-0.001902
	O438	O	0.054716	-0.202765	-0.206860
	H439	H	0.078146	-0.209489	-0.224913
	H440	H	0.080663	-0.198777	-0.189909
	O441	O	1.024314	0.166814	0.201326
	H442	H	1.050793	0.158861	0.193692
	H443	H	1.039629	0.181493	0.204787
	O444	O	-0.023090	1.045674	1.190654
	H445	H	-0.012033	1.045528	1.172034
	H446	H	-0.017837	1.052703	1.183930
	O447	O	0.417115	0.660877	0.639433
	H448	H	0.407972	0.650505	0.644751
	H449	H	0.422451	0.665767	0.625613
	O450	O	0.519636	0.716001	0.717203
	H451	H	0.522815	0.728779	0.698472
	H452	H	0.534915	0.739084	0.737262
	O453	O	0.571334	0.355653	0.468726
	H454	H	0.559135	0.363177	0.486937
	H455	H	0.546201	0.371664	0.470820
