data_Molecule from HDF5

_cell_length_a		16.004150
_cell_length_b		16.406659
_cell_length_c		16.381760
_cell_angle_alpha	90.177267
_cell_angle_beta	89.797340
_cell_angle_gamma	89.734665
_symmetry_space_group_name_H-M	'P 1'
_symmetry_Int_Tables_number		1

loop_
	_symmetry_equiv_pos_as_xyz
	x,y,z

loop_
	_atom_site_label
	_atom_site_type_symbol
	_atom_site_fract_x
	_atom_site_fract_y
	_atom_site_fract_z
	H0	H	0.393271	0.828442	0.731616
	H1	H	0.605145	0.147717	0.731212
	H2	H	0.606208	0.828163	0.289001
	H3	H	0.393224	0.147804	0.290893
	H4	H	0.714381	0.390517	0.846116
	H5	H	0.714760	0.587743	0.170678
	H6	H	0.284822	0.588515	0.845710
	H7	H	0.283521	0.392633	0.170613
	H8	H	0.835488	0.705949	0.406857
	H9	H	0.164145	0.705050	0.610793
	H10	H	0.835248	0.272592	0.610895
	H11	H	0.163162	0.268805	0.403286
	H12	H	0.835849	0.386243	0.725983
	H13	H	0.163416	0.591737	0.724348
	H14	H	0.834756	0.590408	0.292376
	H15	H	0.164105	0.385041	0.290889
	H16	H	0.393711	0.710663	0.849131
	H17	H	0.604932	0.709097	0.168769
	H18	H	0.608510	0.265387	0.849580
	H19	H	0.392272	0.269260	0.168247
	H20	H	0.714397	0.825296	0.411950
	H21	H	0.713584	0.150253	0.608502
	H22	H	0.282824	0.825466	0.609592
	H23	H	0.281234	0.149320	0.411183
	H24	H	0.895282	0.328424	0.228011
	H25	H	0.104122	0.648387	0.228866
	H26	H	0.105227	0.328952	0.787151
	H27	H	0.893891	0.648718	0.788811
	H28	H	0.215068	0.889386	0.347004
	H29	H	0.213298	0.086583	0.672309
	H30	H	0.784720	0.084529	0.346191
	H31	H	0.785964	0.892627	0.672919
	H32	H	0.336223	0.206517	0.907241
	H33	H	0.664026	0.205064	0.111248
	H34	H	0.334832	0.775632	0.110643
	H35	H	0.664948	0.772133	0.908595
	H36	H	0.334801	0.889612	0.224973
	H37	H	0.664861	0.088772	0.225115
	H38	H	0.335549	0.091361	0.794520
	H39	H	0.664847	0.885681	0.793398
	H40	H	0.895102	0.206599	0.347442
	H41	H	0.104977	0.211034	0.668630
	H42	H	0.104568	0.768434	0.349267
	H43	H	0.893972	0.768458	0.669241
	H44	H	0.216777	0.327376	0.908405
	H45	H	0.211090	0.651841	0.104751
	H46	H	0.786189	0.325669	0.105422
	H47	H	0.784318	0.651730	0.911788
	H48	H	0.411098	0.102892	0.607977
	H49	H	0.586030	0.873706	0.606385
	H50	H	0.584563	0.101168	0.416079
	H51	H	0.415260	0.875087	0.416938
	H52	H	0.599975	0.401832	0.125267
	H53	H	0.578375	0.572001	0.900820
	H54	H	0.405639	0.583305	0.123485
	H55	H	0.409414	0.399892	0.894406
	H56	H	0.117646	0.572242	0.408806
	H57	H	0.885759	0.571047	0.595839
	H58	H	0.115308	0.402084	0.594743
	H59	H	0.881380	0.396196	0.419062
	H60	H	0.117539	0.398141	0.598925
	H61	H	0.879141	0.579030	0.605633
	H62	H	0.120355	0.587204	0.418028
	H63	H	0.883239	0.399723	0.419256
	H64	H	0.408429	0.582335	0.123496
	H65	H	0.586237	0.596227	0.890133
	H66	H	0.579003	0.401501	0.118346
	H67	H	0.416086	0.396201	0.895336
	H68	H	0.592132	0.103241	0.420642
	H69	H	0.589631	0.874839	0.597130
	H70	H	0.411502	0.099754	0.599069
	H71	H	0.406353	0.873389	0.420852
	H72	H	0.911292	0.598906	0.090963
	H73	H	0.090731	0.374551	0.097803
	H74	H	0.090338	0.605499	0.911910
	H75	H	0.912451	0.374347	0.911800
	H76	H	0.082992	0.889110	0.625087
	H77	H	0.086745	0.073688	0.397270
	H78	H	0.909194	0.082839	0.623572
	H79	H	0.915553	0.893304	0.395544
	H80	H	0.617540	0.080785	0.922198
	H81	H	0.380992	0.082126	0.099194
	H82	H	0.623053	0.881611	0.099441
	H83	H	0.380092	0.896550	0.916266
	H84	H	0.611440	0.904161	0.086650
	H85	H	0.382866	0.077368	0.099865
	H86	H	0.614834	0.073381	0.922933
	H87	H	0.384354	0.896699	0.925178
	H88	H	0.908869	0.083728	0.624017
	H89	H	0.083724	0.083107	0.394939
	H90	H	0.095873	0.893530	0.627730
	H91	H	0.906415	0.890302	0.391391
	H92	H	0.087646	0.603205	0.914133
	H93	H	0.091585	0.373111	0.100210
	H94	H	0.897133	0.607869	0.104196
	H95	H	0.910363	0.375078	0.917632
	H96	H	0.402881	0.103075	0.602581
	H97	H	0.595027	0.870875	0.604612
	H98	H	0.591958	0.105434	0.413340
	H99	H	0.408397	0.871305	0.411242
	H100	H	0.588372	0.383319	0.126800
	H101	H	0.603938	0.575307	0.890846
	H102	H	0.408258	0.584824	0.124047
	H103	H	0.409569	0.392609	0.892496
	H104	H	0.112907	0.572950	0.426223
	H105	H	0.881777	0.585250	0.592719
	H106	H	0.116879	0.395956	0.593569
	H107	H	0.881526	0.398834	0.415716
	H108	H	0.916345	0.603734	0.110466
	H109	H	0.088540	0.373952	0.099973
	H110	H	0.091073	0.604157	0.915609
	H111	H	0.906863	0.372442	0.914097
	H112	H	0.086979	0.901912	0.621892
	H113	H	0.093529	0.080479	0.393421
	H114	H	0.907861	0.083231	0.623976
	H115	H	0.906694	0.900196	0.395116
	H116	H	0.618147	0.075655	0.916851
	H117	H	0.381092	0.080607	0.103790
	H118	H	0.620577	0.905550	0.113821
	H119	H	0.383385	0.904418	0.920093
	C120	C	0.377147	-0.004015	0.633053
	C121	C	0.621059	0.979503	0.632544
	C122	C	0.621019	-0.003555	0.386819
	C123	C	0.377910	0.979419	0.387539
	C124	C	0.621382	0.365543	0.017426
	C125	C	0.620582	0.610787	1.000299
	C126	C	0.377528	0.612517	0.016984
	C127	C	0.378965	0.367176	1.000251
	C128	C	0.008272	0.608639	0.387295
	C129	C	0.990860	0.608997	0.628702
	C130	C	0.008120	0.368301	0.627498
	C131	C	0.990515	0.366807	0.386955
	C132	C	0.878024	0.496763	0.130689
	C133	C	0.120436	0.480484	0.129107
	C134	C	0.121930	0.498061	0.884288
	C135	C	0.877945	0.480137	0.885360
	C136	C	0.120419	0.865476	0.518161
	C137	C	0.119732	0.109867	0.501227
	C138	C	0.877645	0.111297	0.517191
	C139	C	0.877906	0.865743	0.500762
	C140	C	0.508619	0.108525	0.889642
	C141	C	0.490571	0.110054	0.131088
	C142	C	0.508905	0.867851	0.130190
	C143	C	0.491033	0.867841	0.889059
	C144	C	0.375715	0.875883	0.691583
	C145	C	0.622498	0.100007	0.690882
	C146	C	0.623010	0.875638	0.329263
	C147	C	0.375282	0.099992	0.330073
	C148	C	0.678359	0.367953	0.895334
	C149	C	0.677679	0.608774	0.121895
	C150	C	0.321980	0.609781	0.894818
	C151	C	0.320976	0.370392	0.121661
	C152	C	0.884849	0.667201	0.387247
	C153	C	0.114532	0.666468	0.629409
	C154	C	0.884484	0.311336	0.629106
	C155	C	0.113974	0.308058	0.385225
	C156	C	0.884878	0.367787	0.686675
	C157	C	0.114376	0.609868	0.686068
	C158	C	0.884358	0.609501	0.330474
	C159	C	0.114603	0.365735	0.329221
	C160	C	0.376333	0.670411	0.896551
	C161	C	0.622890	0.669195	0.120908
	C162	C	0.625013	0.306273	0.896960
	C163	C	0.375598	0.309318	0.120554
	C164	C	0.677190	0.874294	0.390287
	C165	C	0.676797	0.101316	0.629931
	C166	C	0.320820	0.874275	0.630512
	C167	C	0.319604	0.100779	0.390075
	C168	C	0.877359	0.375914	0.187918
	C169	C	0.121744	0.600842	0.188364
	C170	C	0.123415	0.376864	0.826855
	C171	C	0.876535	0.601308	0.828849
	C172	C	0.177467	0.868202	0.396028
	C173	C	0.175876	0.107994	0.623368
	C174	C	0.821196	0.107161	0.395208
	C175	C	0.822589	0.870158	0.623586
	C176	C	0.385270	0.167319	0.888508
	C177	C	0.614662	0.166484	0.130409
	C178	C	0.384339	0.812902	0.129903
	C179	C	0.615308	0.810454	0.889139
	C180	C	0.384309	0.869691	0.186678
	C181	C	0.615072	0.108631	0.187085
	C182	C	0.384798	0.109716	0.832756
	C183	C	0.615245	0.867021	0.831717
	C184	C	0.876589	0.167540	0.395801
	C185	C	0.122037	0.169744	0.621562
	C186	C	0.122573	0.807934	0.397023
	C187	C	0.876308	0.808578	0.621781
	C188	C	0.178965	0.376104	0.887147
	C189	C	0.175025	0.602757	0.126415
	C190	C	0.822605	0.374718	0.127320
	C191	C	0.821545	0.602557	0.889860
	C192	C	0.401398	0.080034	0.610045
	C193	C	0.597296	0.894973	0.609381
	C194	C	0.596520	0.081269	0.409812
	C195	C	0.402689	0.895200	0.410049
	C196	C	0.596511	0.388847	0.101549
	C197	C	0.596441	0.587852	0.915885
	C198	C	0.400658	0.589986	0.101705
	C199	C	0.404467	0.389761	0.916000
	C200	C	0.094449	0.584394	0.410860
	C201	C	0.904768	0.585298	0.604954
	C202	C	0.094123	0.391936	0.602854
	C203	C	0.904465	0.391310	0.411026
	C204	C	0.901551	0.581628	0.108453
	C205	C	0.097060	0.395826	0.106052
	C206	C	0.097129	0.582295	0.907006
	C207	C	0.902579	0.395812	0.907758
	C208	C	0.095881	0.888115	0.602893
	C209	C	0.095327	0.086127	0.417302
	C210	C	0.901571	0.089553	0.601741
	C211	C	0.902274	0.887987	0.416001
	C212	C	0.594558	0.083818	0.913621
	C213	C	0.404230	0.086892	0.107780
	C214	C	0.595621	0.890379	0.106733
	C215	C	0.405054	0.892059	0.913331
	Zn216	Zn	0.499673	-0.011234	0.761938
	Zn217	Zn	0.499795	-0.011875	0.257854
	Zn218	Zn	0.749416	0.488323	0.008468
	Zn219	Zn	0.249806	0.489724	0.007698
	Zn220	Zn	-0.000539	0.736239	0.509149
	Zn221	Zn	-0.000454	0.240361	0.508068
	Zn222	Zn	-0.000265	0.489117	0.755339
	Zn223	Zn	-0.000063	0.487695	0.259521
	Zn224	Zn	0.499383	0.740547	0.010005
	Zn225	Zn	0.499785	0.236558	0.008868
	Zn226	Zn	0.748860	-0.012159	0.509530
	Zn227	Zn	0.248704	-0.012575	0.509908
	N228	N	0.409930	0.952574	0.693285
	N229	N	0.588424	0.023173	0.692503
	N230	N	0.588764	0.952623	0.327157
	N231	N	0.410867	0.023582	0.328413
	N232	N	0.676502	0.404160	0.971159
	N233	N	0.676452	0.572992	0.045922
	N234	N	0.322545	0.574280	0.970697
	N235	N	0.322904	0.405830	0.045828
	N236	N	0.962865	0.666715	0.421998
	N237	N	0.036637	0.666016	0.594387
	N238	N	0.962239	0.311555	0.593250
	N239	N	0.035835	0.308646	0.420394
	N240	N	0.962913	0.402618	0.685951
	N241	N	0.036419	0.574926	0.685864
	N242	N	0.962192	0.573685	0.330461
	N243	N	0.036740	0.401624	0.329963
	N244	N	0.410067	0.672247	0.973535
	N245	N	0.588116	0.670641	0.044421
	N246	N	0.590249	0.304767	0.973793
	N247	N	0.410837	0.307071	0.043899
	N248	N	0.676068	0.950607	0.425384
	N249	N	0.675819	0.025475	0.594213
	N250	N	0.321454	0.949875	0.594693
	N251	N	0.321173	0.024930	0.425296
	N252	N	0.910595	0.453062	0.190336
	N253	N	0.088248	0.523687	0.189921
	N254	N	0.088803	0.453682	0.824870
	N255	N	0.910654	0.524194	0.825717
	N256	N	0.176367	0.903060	0.472553
	N257	N	0.174710	0.071457	0.547805
	N258	N	0.821493	0.072904	0.471644
	N259	N	0.823225	0.904831	0.547254
	N260	N	0.463175	0.166686	0.923132
	N261	N	0.536136	0.167596	0.096474
	N262	N	0.462976	0.811620	0.095487
	N263	N	0.537014	0.810643	0.924135
	N264	N	0.462895	0.902813	0.187266
	N265	N	0.536806	0.074446	0.187807
	N266	N	0.462629	0.073945	0.833147
	N267	N	0.536958	0.901930	0.831347
	N268	N	0.910614	0.170409	0.472770
	N269	N	0.088173	0.171179	0.544587
	N270	N	0.087979	0.806087	0.473892
	N271	N	0.909831	0.805648	0.544255
	N272	N	0.178374	0.452439	0.921908
	N273	N	0.174258	0.527045	0.090091
	N274	N	0.822929	0.450838	0.092371
	N275	N	0.822481	0.526395	0.924524
	O276	O	0.050069	0.006232	-0.027081
	H277	H	0.046911	0.007872	-0.029316
	H278	H	0.056545	0.002651	-0.031155
	O279	O	0.366285	0.487927	0.339402
	H280	H	0.353634	0.485125	0.337217
	H281	H	0.386559	0.496271	0.332048
	O282	O	1.033966	-0.000145	0.022800
	H283	H	1.031534	-0.005085	0.021662
	H284	H	1.025746	-0.001849	0.025037
	O285	O	-0.024783	1.156723	0.132718
	H286	H	-0.024339	1.177372	0.130287
	H287	H	-0.004830	1.150611	0.133091
	O288	O	0.367501	0.398726	0.693685
	H289	H	0.377881	0.402758	0.698884
	H290	H	0.360607	0.393363	0.696770
	O291	O	0.598273	0.640296	0.685674
	H292	H	0.604770	0.646129	0.679905
	H293	H	0.587169	0.650658	0.689376
	O294	O	1.035676	0.972930	1.057242
	H295	H	1.032740	0.953495	1.055677
	H296	H	1.033873	0.970960	1.046385
	O297	O	-0.068724	-0.099312	0.099461
	H298	H	-0.082047	-0.100538	0.103431
	H299	H	-0.071088	-0.094291	0.105079
	O300	O	0.685627	0.365377	0.412401
	H301	H	0.685860	0.364363	0.417778
	H302	H	0.689189	0.360578	0.416929
	O303	O	-0.007690	0.903311	0.882422
	H304	H	0.008289	0.905283	0.870540
	H305	H	-0.021414	0.909585	0.873232
	O306	O	0.560602	0.377260	0.644854
	H307	H	0.565227	0.369324	0.642496
	H308	H	0.568625	0.398024	0.648379
	O309	O	1.032526	-0.134906	0.119443
	H310	H	1.029321	-0.145052	0.118199
	H311	H	1.016047	-0.134786	0.122464
	O312	O	-0.048072	0.055488	0.942323
	H313	H	-0.044342	0.067467	0.950699
	H314	H	-0.041391	0.060677	0.950763
	O315	O	0.006241	0.989660	0.153275
	H316	H	0.018365	1.003426	0.164747
	H317	H	0.019406	0.983959	0.140106
	O318	O	0.366267	0.279948	0.611295
	H319	H	0.363056	0.280539	0.608409
	H320	H	0.358553	0.271235	0.628983
	O321	O	0.916480	0.130035	-0.133647
	H322	H	0.909653	0.143196	-0.132420
	H323	H	0.920564	0.122294	-0.126307
	O324	O	0.476964	0.420147	0.653096
	H325	H	0.495971	0.427564	0.651702
	H326	H	0.466249	0.429064	0.634240
	O327	O	-0.429814	1.673926	0.595502
	H328	H	-0.422136	1.678942	0.614053
	H329	H	-0.440865	1.665528	0.607217
	O330	O	0.621052	0.441172	0.592250
	H331	H	0.623104	0.455729	0.596751
	H332	H	0.613998	0.441359	0.588134
	O333	O	0.085744	1.025875	0.936413
	H334	H	0.097389	1.014969	0.928042
	H335	H	0.089136	1.017803	0.951599
	O336	O	1.032457	0.870838	1.042120
	H337	H	1.031300	0.850967	1.031096
	H338	H	1.037966	0.868997	1.034236
	O339	O	0.982462	1.091266	-0.135922
	H340	H	0.981133	1.097921	-0.139785
	H341	H	0.975338	1.091900	-0.133665
	O342	O	0.900819	-0.040871	-0.044704
	H343	H	0.904248	-0.031756	-0.042113
	H344	H	0.893394	-0.029639	-0.052778
	O345	O	0.381053	0.505837	0.710710
	H346	H	0.384546	0.498644	0.710859
	H347	H	0.367849	0.496084	0.720073
	O348	O	1.648791	1.378972	0.444152
	H349	H	1.630196	1.380581	0.442451
	H350	H	1.651024	1.379052	0.453657
	O351	O	0.356483	0.505162	-0.413127
	H352	H	0.352837	0.504741	-0.406527
	H353	H	0.363612	0.490357	-0.412878
	O354	O	0.430669	0.592873	0.333164
	H355	H	0.436661	0.597185	0.331461
	H356	H	0.433386	0.588551	0.318375
	O357	O	0.573022	0.344523	0.361168
	H358	H	0.554756	0.347171	0.373724
	H359	H	0.576259	0.338228	0.343036
	O360	O	-0.055312	-0.032534	0.088909
	H361	H	-0.060480	-0.029659	0.073808
	H362	H	-0.051585	-0.036053	0.090279
	O363	O	0.466072	0.414931	0.475763
	H364	H	0.470004	0.419143	0.480066
	H365	H	0.468302	0.418096	0.465698
	O366	O	0.539556	0.395021	0.377992
	H367	H	0.531554	0.398601	0.383816
	H368	H	0.534397	0.386438	0.394560
	O369	O	0.443949	0.282760	0.467504
	H370	H	0.455592	0.275552	0.469513
	H371	H	0.435881	0.293480	0.451591
	O372	O	0.630123	0.584589	0.568061
	H373	H	0.635215	0.577395	0.572920
	H374	H	0.641829	0.595421	0.566975
	O375	O	0.609808	0.606533	0.403023
	H376	H	0.618302	0.610187	0.391512
	H377	H	0.620459	0.592483	0.399997
	O378	O	0.388639	0.571379	0.515622
	H379	H	0.383209	0.563134	0.514907
	H380	H	0.386764	0.559172	0.516785
	O381	O	0.446169	0.487089	0.499810
	H382	H	0.453875	0.500722	0.500722
	H383	H	0.453924	0.502374	0.487837
	O384	O	0.048012	1.053864	-0.054247
	H385	H	0.050180	1.054774	-0.062115
	H386	H	0.045710	1.052195	-0.051498
	O387	O	0.627535	0.472536	1.428397
	H388	H	0.603422	0.474662	1.429129
	H389	H	0.642905	0.451323	1.423572
	O390	O	0.008522	0.831489	0.014422
	H391	H	0.002969	0.829679	0.028762
	H392	H	0.002822	0.836817	0.021474
	O393	O	1.032536	1.062732	-0.036785
	H394	H	1.015749	1.081141	-0.035924
	H395	H	1.032277	1.063981	-0.029536
	O396	O	0.343110	0.649126	0.363545
	H397	H	0.348757	0.653665	0.364171
	H398	H	0.339423	0.654701	0.352773
	O399	O	0.418902	1.393201	1.324552
	H400	H	0.423829	1.391359	1.300133
	H401	H	0.431013	1.392274	1.321914
	O402	O	1.021346	1.021528	1.085974
	H403	H	1.014123	1.023573	1.083143
	H404	H	1.028378	1.017679	1.087388
	O405	O	0.433867	0.680945	0.517966
	H406	H	0.422860	0.687481	0.518302
	H407	H	0.428292	0.687220	0.538296
