data_Molecule from HDF5

_cell_length_a		16.190189
_cell_length_b		16.190487
_cell_length_c		16.370594
_cell_angle_alpha	89.941816
_cell_angle_beta	90.002264
_cell_angle_gamma	89.900955
_symmetry_space_group_name_H-M	'P 1'
_symmetry_Int_Tables_number		1

loop_
	_symmetry_equiv_pos_as_xyz
	x,y,z

loop_
	_atom_site_label
	_atom_site_type_symbol
	_atom_site_fract_x
	_atom_site_fract_y
	_atom_site_fract_z
	H0	H	0.396430	0.834905	0.724004
	H1	H	0.596857	0.162658	0.723013
	H2	H	0.595831	0.834821	0.293356
	H3	H	0.396449	0.162466	0.292846
	H4	H	0.710063	0.401966	0.843513
	H5	H	0.711469	0.596587	0.170525
	H6	H	0.283011	0.596842	0.844258
	H7	H	0.282612	0.401700	0.171407
	H8	H	0.831174	0.710410	0.410970
	H9	H	0.162428	0.710619	0.604338
	H10	H	0.831459	0.285767	0.604789
	H11	H	0.161737	0.286042	0.411553
	H12	H	0.832303	0.399022	0.722648
	H13	H	0.160597	0.598193	0.723474
	H14	H	0.832847	0.597991	0.292516
	H15	H	0.160120	0.398492	0.292057
	H16	H	0.399485	0.713008	0.844368
	H17	H	0.594333	0.712406	0.171308
	H18	H	0.594690	0.284126	0.844158
	H19	H	0.399664	0.284866	0.171031
	H20	H	0.708595	0.833853	0.411850
	H21	H	0.709235	0.163535	0.604161
	H22	H	0.284889	0.832871	0.604433
	H23	H	0.283214	0.163476	0.411538
	H24	H	0.896753	0.334979	0.222219
	H25	H	0.096541	0.662544	0.223369
	H26	H	0.097369	0.334570	0.792164
	H27	H	0.897416	0.662761	0.792445
	H28	H	0.211510	0.899449	0.345105
	H29	H	0.210721	0.096443	0.671284
	H30	H	0.781168	0.097054	0.344313
	H31	H	0.782054	0.899793	0.670503
	H32	H	0.331920	0.211895	0.911722
	H33	H	0.662802	0.209454	0.103634
	H34	H	0.331317	0.787390	0.104736
	H35	H	0.661913	0.787256	0.912546
	H36	H	0.332841	0.900272	0.222863
	H37	H	0.660339	0.098203	0.223381
	H38	H	0.332697	0.099469	0.793102
	H39	H	0.660738	0.898883	0.793514
	H40	H	0.897723	0.213481	0.344394
	H41	H	0.094507	0.212487	0.670910
	H42	H	0.093904	0.784354	0.343822
	H43	H	0.899039	0.783849	0.670471
	H44	H	0.209383	0.333782	0.911533
	H45	H	0.208249	0.664468	0.103992
	H46	H	0.784789	0.334056	0.103253
	H47	H	0.783994	0.664428	0.910418
	H48	H	0.404476	0.113456	0.594197
	H49	H	0.586023	0.880319	0.606386
	H50	H	0.585177	0.115491	0.414866
	H51	H	0.406459	0.882364	0.416192
	H52	H	0.599493	0.414928	0.123061
	H53	H	0.587112	0.586524	0.894299
	H54	H	0.404121	0.593410	0.124037
	H55	H	0.404181	0.411505	0.893655
	H56	H	0.112366	0.591928	0.419551
	H57	H	0.876133	0.597591	0.605306
	H58	H	0.114820	0.412374	0.612291
	H59	H	0.874499	0.399900	0.404642
	H60	H	0.118217	0.393761	0.601110
	H61	H	0.882184	0.592428	0.593243
	H62	H	0.113025	0.584458	0.411868
	H63	H	0.880967	0.401461	0.425593
	H64	H	0.401030	0.595267	0.124672
	H65	H	0.585672	0.599240	0.891028
	H66	H	0.578838	0.405499	0.119371
	H67	H	0.407947	0.401585	0.891815
	H68	H	0.589970	0.116310	0.416478
	H69	H	0.587137	0.883125	0.597607
	H70	H	0.396755	0.118945	0.603716
	H71	H	0.401824	0.879847	0.415728
	H72	H	0.900353	0.617189	0.100873
	H73	H	0.086166	0.383805	0.096316
	H74	H	0.091418	0.616179	0.913914
	H75	H	0.912522	0.385282	0.917128
	H76	H	0.089827	0.900530	0.624052
	H77	H	0.097869	0.080770	0.392801
	H78	H	0.908771	0.081647	0.618439
	H79	H	0.903719	0.902345	0.390493
	H80	H	0.614124	0.087289	0.910985
	H81	H	0.384510	0.083508	0.093238
	H82	H	0.616273	0.905442	0.108186
	H83	H	0.376452	0.905486	0.908230
	H84	H	0.614775	0.900911	0.097978
	H85	H	0.376578	0.087992	0.113893
	H86	H	0.615870	0.094597	0.912374
	H87	H	0.379965	0.901449	0.920236
	H88	H	0.908762	0.103200	0.625363
	H89	H	0.076768	0.090315	0.396302
	H90	H	0.093799	0.906042	0.624007
	H91	H	0.900512	0.904922	0.390613
	H92	H	0.087555	0.616792	0.910771
	H93	H	0.095428	0.380355	0.100181
	H94	H	0.906023	0.617511	0.105182
	H95	H	0.896544	0.381273	0.919920
	H96	H	0.409552	0.115475	0.606167
	H97	H	0.593850	0.879466	0.602232
	H98	H	0.588665	0.117780	0.411933
	H99	H	0.404979	0.880094	0.411139
	H100	H	0.595941	0.393179	0.127449
	H101	H	0.597672	0.593560	0.889597
	H102	H	0.401063	0.590834	0.123593
	H103	H	0.397470	0.403672	0.889348
	H104	H	0.117075	0.594785	0.410134
	H105	H	0.880811	0.583837	0.605106
	H106	H	0.108868	0.411139	0.591032
	H107	H	0.882105	0.418914	0.412422
	H108	H	0.906373	0.615640	0.098326
	H109	H	0.086988	0.380514	0.105710
	H110	H	0.087174	0.614862	0.915496
	H111	H	0.902733	0.378294	0.904322
	H112	H	0.087249	0.906417	0.622291
	H113	H	0.094224	0.103112	0.387153
	H114	H	0.890140	0.090656	0.626341
	H115	H	0.904693	0.906327	0.392249
	H116	H	0.613222	0.090000	0.918184
	H117	H	0.376867	0.104121	0.098422
	H118	H	0.612127	0.911637	0.099895
	H119	H	0.381693	0.913923	0.916367
	C120	C	0.375303	0.006861	0.629624
	C121	C	0.617765	0.989830	0.630134
	C122	C	0.617189	0.007567	0.386422
	C123	C	0.375270	0.990173	0.386514
	C124	C	0.619363	0.376452	0.015558
	C125	C	0.618540	0.620974	0.999512
	C126	C	0.374201	0.621449	0.016147
	C127	C	0.375214	0.377425	0.999742
	C128	C	0.005174	0.619151	0.385948
	C129	C	0.988416	0.619773	0.629256
	C130	C	0.005134	0.377124	0.629466
	C131	C	0.988076	0.377337	0.386100
	C132	C	0.875589	0.507728	0.129127
	C133	C	0.117449	0.490292	0.128532
	C134	C	0.117654	0.507135	0.885819
	C135	C	0.875401	0.490556	0.885782
	C136	C	0.118882	0.875767	0.515743
	C137	C	0.118111	0.120104	0.499602
	C138	C	0.874210	0.120393	0.515674
	C139	C	0.874485	0.876100	0.499105
	C140	C	0.505470	0.119571	0.886260
	C141	C	0.488317	0.119816	0.129533
	C142	C	0.505384	0.877611	0.129974
	C143	C	0.488000	0.877915	0.886732
	C144	C	0.376835	0.883416	0.685503
	C145	C	0.616075	0.113775	0.684473
	C146	C	0.615654	0.883868	0.331457
	C147	C	0.376732	0.113650	0.331152
	C148	C	0.672858	0.380719	0.892319
	C149	C	0.673614	0.617597	0.122163
	C150	C	0.320305	0.617966	0.893081
	C151	C	0.320365	0.380453	0.122520
	C152	C	0.880911	0.673799	0.389442
	C153	C	0.112711	0.674147	0.626051
	C154	C	0.880946	0.322599	0.626206
	C155	C	0.112220	0.322700	0.389728
	C156	C	0.881239	0.378951	0.684554
	C157	C	0.111956	0.618059	0.684954
	C158	C	0.881554	0.617592	0.330950
	C159	C	0.111467	0.378748	0.330692
	C160	C	0.377980	0.675789	0.893184
	C161	C	0.615420	0.675160	0.122365
	C162	C	0.615656	0.322184	0.892502
	C163	C	0.378693	0.322827	0.122555
	C164	C	0.671543	0.883273	0.390175
	C165	C	0.671889	0.114253	0.625542
	C166	C	0.321711	0.882342	0.625860
	C167	C	0.320655	0.114293	0.390277
	C168	C	0.877197	0.384055	0.183963
	C169	C	0.116011	0.614096	0.184189
	C170	C	0.116606	0.383404	0.830798
	C171	C	0.877103	0.613993	0.830540
	C172	C	0.174094	0.878610	0.393561
	C173	C	0.172847	0.117112	0.622637
	C174	C	0.819235	0.117678	0.392871
	C175	C	0.820071	0.879452	0.621950
	C176	C	0.381298	0.174748	0.890272
	C177	C	0.613006	0.173120	0.125288
	C178	C	0.381022	0.823582	0.126384
	C179	C	0.612388	0.823440	0.890255
	C180	C	0.381651	0.879604	0.184947
	C181	C	0.612044	0.117681	0.184620
	C182	C	0.381671	0.119333	0.831017
	C183	C	0.611837	0.879342	0.831731
	C184	C	0.876815	0.175883	0.393251
	C185	C	0.115730	0.175322	0.622220
	C186	C	0.115640	0.821306	0.392886
	C187	C	0.878010	0.821408	0.621891
	C188	C	0.172982	0.383086	0.889349
	C189	C	0.171363	0.614968	0.124879
	C190	C	0.821329	0.383577	0.125101
	C191	C	0.821381	0.615060	0.889425
	C192	C	0.397316	0.093615	0.607880
	C193	C	0.595433	0.903353	0.608567
	C194	C	0.594586	0.094149	0.408073
	C195	C	0.397827	0.903216	0.408160
	C196	C	0.597888	0.398031	0.101230
	C197	C	0.596702	0.599454	0.913621
	C198	C	0.395784	0.599758	0.101980
	C199	C	0.396636	0.399257	0.913857
	C200	C	0.091994	0.596865	0.407481
	C201	C	0.901982	0.597694	0.607705
	C202	C	0.091559	0.399317	0.607820
	C203	C	0.901525	0.400187	0.407939
	C204	C	0.897592	0.594579	0.107725
	C205	C	0.095706	0.403935	0.107124
	C206	C	0.095403	0.593621	0.907243
	C207	C	0.897332	0.403880	0.907504
	C208	C	0.096718	0.897653	0.601421
	C209	C	0.096168	0.097971	0.414224
	C210	C	0.896075	0.098378	0.601352
	C211	C	0.896358	0.898092	0.413414
	C212	C	0.591913	0.097174	0.907545
	C213	C	0.401809	0.098264	0.108240
	C214	C	0.591995	0.899510	0.108501
	C215	C	0.401769	0.900492	0.908356
	Zn216	Zn	0.496193	-0.001340	0.758008
	Zn217	Zn	0.496491	-0.001390	0.258129
	Zn218	Zn	0.748023	0.499268	0.007217
	Zn219	Zn	0.245586	0.499473	0.007367
	Zn220	Zn	-0.003035	0.747038	0.507291
	Zn221	Zn	-0.003562	0.249355	0.507651
	Zn222	Zn	-0.003574	0.498322	0.757449
	Zn223	Zn	-0.003333	0.498599	0.256978
	Zn224	Zn	0.496420	0.749955	0.008052
	Zn225	Zn	0.497297	0.247623	0.007847
	Zn226	Zn	0.745401	-0.001376	0.507508
	Zn227	Zn	0.247220	-0.001604	0.508055
	N228	N	0.409557	0.961794	0.687621
	N229	N	0.583121	0.035506	0.687380
	N230	N	0.582781	0.962349	0.329047
	N231	N	0.409768	0.035336	0.328857
	N232	N	0.675342	0.413744	0.969704
	N233	N	0.675496	0.584494	0.044694
	N234	N	0.317855	0.585008	0.970632
	N235	N	0.318129	0.413702	0.045056
	N236	N	0.958797	0.674449	0.423321
	N237	N	0.034945	0.675357	0.592158
	N238	N	0.958931	0.321381	0.592559
	N239	N	0.034320	0.321858	0.423410
	N240	N	0.959372	0.412064	0.686752
	N241	N	0.033635	0.585187	0.687066
	N242	N	0.959880	0.584517	0.328654
	N243	N	0.033198	0.411854	0.328370
	N244	N	0.410908	0.677912	0.970584
	N245	N	0.581955	0.677342	0.045257
	N246	N	0.583086	0.319569	0.970065
	N247	N	0.411901	0.320733	0.045245
	N248	N	0.672460	0.961034	0.423710
	N249	N	0.673109	0.036211	0.592365
	N250	N	0.320441	0.960255	0.591984
	N251	N	0.319716	0.036268	0.423855
	N252	N	0.910127	0.462304	0.186365
	N253	N	0.083387	0.535606	0.186773
	N254	N	0.082942	0.461497	0.828508
	N255	N	0.910254	0.535776	0.828402
	N256	N	0.175892	0.911954	0.470872
	N257	N	0.174584	0.083540	0.545372
	N258	N	0.817474	0.084031	0.470042
	N259	N	0.817738	0.912579	0.544485
	N260	N	0.459263	0.175195	0.923762
	N261	N	0.535160	0.174600	0.091683
	N262	N	0.459017	0.822242	0.092827
	N263	N	0.534633	0.822523	0.924149
	N264	N	0.459875	0.912507	0.187218
	N265	N	0.533649	0.085249	0.187360
	N266	N	0.459712	0.085604	0.828508
	N267	N	0.533686	0.912690	0.829513
	N268	N	0.910420	0.177510	0.470498
	N269	N	0.082377	0.177305	0.544903
	N270	N	0.082058	0.819537	0.470029
	N271	N	0.911474	0.819480	0.544675
	N272	N	0.173763	0.460919	0.922693
	N273	N	0.172338	0.537338	0.090834
	N274	N	0.820473	0.461553	0.091534
	N275	N	0.820011	0.537094	0.922903
	O276	O	1.015814	0.056157	0.987452
	H277	H	1.017552	0.058940	0.979179
	H278	H	1.007326	0.051583	0.992927
	O279	O	1.010789	0.028358	-0.008184
	H280	H	1.011527	0.035602	-0.008137
	H281	H	1.015577	0.027260	-0.009193
	O282	O	0.974434	1.039049	0.004518
	H283	H	0.973141	1.035281	0.007365
	H284	H	0.973560	1.054207	0.011378
	O285	O	0.021802	1.026642	-0.007786
	H286	H	0.024370	1.028042	-0.012352
	H287	H	0.021373	1.015512	-0.014130
