data_Molecule from HDF5

_cell_length_a		16.266198
_cell_length_b		16.284121
_cell_length_c		16.188785
_cell_angle_alpha	89.768802
_cell_angle_beta	89.979423
_cell_angle_gamma	90.065920
_symmetry_space_group_name_H-M	'P 1'
_symmetry_Int_Tables_number		1

loop_
	_symmetry_equiv_pos_as_xyz
	x,y,z

loop_
	_atom_site_label
	_atom_site_type_symbol
	_atom_site_fract_x
	_atom_site_fract_y
	_atom_site_fract_z
	H0	H	0.400966	0.838141	0.719508
	H1	H	0.595137	0.166567	0.717048
	H2	H	0.595709	0.836974	0.293005
	H3	H	0.402095	0.165768	0.290832
	H4	H	0.713689	0.404889	0.839637
	H5	H	0.713256	0.599489	0.170765
	H6	H	0.286603	0.599683	0.839805
	H7	H	0.286012	0.403251	0.169111
	H8	H	0.835132	0.717079	0.406244
	H9	H	0.162994	0.717215	0.604264
	H10	H	0.834936	0.287882	0.604112
	H11	H	0.163327	0.288773	0.406666
	H12	H	0.835269	0.404677	0.718502
	H13	H	0.164122	0.597465	0.716577
	H14	H	0.835236	0.600008	0.290611
	H15	H	0.163755	0.406498	0.292863
	H16	H	0.401784	0.716733	0.840210
	H17	H	0.597180	0.715647	0.170532
	H18	H	0.597408	0.288837	0.840068
	H19	H	0.401438	0.288398	0.169154
	H20	H	0.712207	0.838080	0.409195
	H21	H	0.713043	0.165984	0.603038
	H22	H	0.284635	0.838686	0.603474
	H23	H	0.285632	0.166350	0.406659
	H24	H	0.902243	0.336916	0.219655
	H25	H	0.096943	0.665768	0.217236
	H26	H	0.095285	0.337367	0.793880
	H27	H	0.903147	0.666227	0.790542
	H28	H	0.211770	0.905493	0.340668
	H29	H	0.211938	0.099206	0.670189
	H30	H	0.785621	0.100810	0.341088
	H31	H	0.784701	0.903165	0.670562
	H32	H	0.334895	0.217473	0.906242
	H33	H	0.663128	0.215546	0.102227
	H34	H	0.334929	0.786065	0.104572
	H35	H	0.662221	0.788200	0.905517
	H36	H	0.333524	0.903987	0.218441
	H37	H	0.662698	0.099975	0.218063
	H38	H	0.334158	0.099876	0.791869
	H39	H	0.663423	0.907867	0.793058
	H40	H	0.901429	0.216122	0.340717
	H41	H	0.096802	0.215164	0.669839
	H42	H	0.096929	0.790117	0.340500
	H43	H	0.900168	0.787075	0.670225
	H44	H	0.214248	0.338034	0.906786
	H45	H	0.214932	0.664961	0.102945
	H46	H	0.784147	0.337798	0.104668
	H47	H	0.785132	0.665510	0.905001
	H48	H	0.397006	0.124040	0.605637
	H49	H	0.593741	0.885714	0.594735
	H50	H	0.593090	0.116962	0.418739
	H51	H	0.406373	0.883775	0.407239
	H52	H	0.593016	0.408727	0.122621
	H53	H	0.579923	0.592950	0.892684
	H54	H	0.407570	0.592726	0.121363
	H55	H	0.406432	0.408408	0.886182
	H56	H	0.116495	0.592658	0.406445
	H57	H	0.883231	0.587320	0.604281
	H58	H	0.114624	0.416758	0.600614
	H59	H	0.883119	0.412177	0.413343
	H60	H	0.120445	0.401339	0.605939
	H61	H	0.878391	0.604035	0.602170
	H62	H	0.118337	0.603298	0.409831
	H63	H	0.880120	0.407352	0.408216
	H64	H	0.407308	0.596459	0.122683
	H65	H	0.595148	0.609663	0.883915
	H66	H	0.592328	0.408463	0.121792
	H67	H	0.405731	0.409893	0.886908
	H68	H	0.600392	0.122251	0.407218
	H69	H	0.594322	0.883501	0.603310
	H70	H	0.415815	0.117497	0.602483
	H71	H	0.407653	0.887186	0.415862
	H72	H	0.903113	0.619961	0.102821
	H73	H	0.090160	0.384255	0.105209
	H74	H	0.088019	0.615557	0.918486
	H75	H	0.900233	0.380579	0.901308
	H76	H	0.096408	0.910802	0.623707
	H77	H	0.098912	0.103058	0.383666
	H78	H	0.906082	0.089654	0.621449
	H79	H	0.903321	0.916007	0.389991
	H80	H	0.617101	0.091701	0.901096
	H81	H	0.386718	0.081064	0.094278
	H82	H	0.612751	0.911819	0.095237
	H83	H	0.382017	0.911672	0.912683
	H84	H	0.615770	0.910461	0.103353
	H85	H	0.376107	0.099891	0.114398
	H86	H	0.618536	0.107396	0.912756
	H87	H	0.381167	0.907227	0.911267
	H88	H	0.910506	0.097302	0.622613
	H89	H	0.096078	0.087038	0.389239
	H90	H	0.087017	0.911699	0.621200
	H91	H	0.911099	0.907651	0.390681
	H92	H	0.103475	0.620740	0.913022
	H93	H	0.090181	0.387435	0.093572
	H94	H	0.913552	0.615432	0.097115
	H95	H	0.918147	0.389110	0.912963
	H96	H	0.402141	0.116994	0.587464
	H97	H	0.586816	0.886578	0.600299
	H98	H	0.586200	0.118104	0.405800
	H99	H	0.399372	0.883743	0.413407
	H100	H	0.592510	0.408068	0.122335
	H101	H	0.602601	0.587141	0.887744
	H102	H	0.404353	0.593805	0.122922
	H103	H	0.407628	0.409870	0.887096
	H104	H	0.114590	0.595957	0.417202
	H105	H	0.885308	0.595046	0.588297
	H106	H	0.115250	0.403660	0.589832
	H107	H	0.882935	0.404907	0.415383
	H108	H	0.903021	0.617077	0.090373
	H109	H	0.100257	0.382432	0.098912
	H110	H	0.090052	0.620261	0.902363
	H111	H	0.898107	0.385947	0.922897
	H112	H	0.090327	0.903449	0.624648
	H113	H	0.083500	0.099067	0.389409
	H114	H	0.901827	0.097041	0.624573
	H115	H	0.900948	0.905518	0.386219
	H116	H	0.611482	0.090300	0.920190
	H117	H	0.381226	0.108998	0.086796
	H118	H	0.616352	0.904034	0.097651
	H119	H	0.382436	0.908202	0.915245
	C120	C	0.376943	0.011126	0.627191
	C121	C	0.620220	0.993549	0.627149
	C122	C	0.620738	0.010292	0.383173
	C123	C	0.377071	0.993550	0.383968
	C124	C	0.620686	0.380892	0.013080
	C125	C	0.620793	0.624210	0.997341
	C126	C	0.377979	0.623244	0.013414
	C127	C	0.378365	0.381150	0.995750
	C128	C	0.008193	0.624986	0.382661
	C129	C	0.991001	0.623279	0.626139
	C130	C	0.007865	0.379569	0.627026
	C131	C	0.990734	0.380600	0.383766
	C132	C	0.877989	0.509403	0.126403
	C133	C	0.121457	0.493122	0.126951
	C134	C	0.121317	0.510319	0.883620
	C135	C	0.877673	0.493559	0.883304
	C136	C	0.119726	0.881048	0.514034
	C137	C	0.120861	0.124174	0.496570
	C138	C	0.877824	0.123277	0.514101
	C139	C	0.876882	0.880706	0.497471
	C140	C	0.507065	0.124478	0.883268
	C141	C	0.490225	0.124220	0.126449
	C142	C	0.506423	0.880313	0.126784
	C143	C	0.490302	0.881456	0.884287
	C144	C	0.380079	0.887420	0.682210
	C145	C	0.616909	0.117515	0.680348
	C146	C	0.616321	0.886380	0.330331
	C147	C	0.380851	0.117185	0.329024
	C148	C	0.675334	0.384540	0.888783
	C149	C	0.675652	0.620383	0.121337
	C150	C	0.324235	0.620478	0.888993
	C151	C	0.324200	0.383855	0.120249
	C152	C	0.884174	0.679427	0.385436
	C153	C	0.114327	0.678357	0.623626
	C154	C	0.884201	0.325365	0.624570
	C155	C	0.114425	0.326240	0.386347
	C156	C	0.884234	0.383604	0.681289
	C157	C	0.114890	0.619428	0.680014
	C158	C	0.884272	0.621212	0.328140
	C159	C	0.114724	0.384952	0.330088
	C160	C	0.381263	0.678629	0.889275
	C161	C	0.618048	0.678102	0.121484
	C162	C	0.618013	0.326694	0.889061
	C163	C	0.381151	0.326338	0.120165
	C164	C	0.674384	0.886627	0.387759
	C165	C	0.675249	0.117062	0.623778
	C166	C	0.322014	0.887551	0.624728
	C167	C	0.322944	0.117119	0.386288
	C168	C	0.881079	0.386035	0.181831
	C169	C	0.118133	0.616714	0.180280
	C170	C	0.117555	0.386746	0.829943
	C171	C	0.881839	0.617100	0.828272
	C172	C	0.174027	0.885047	0.389775
	C173	C	0.174744	0.120362	0.620826
	C174	C	0.823376	0.120840	0.390054
	C175	C	0.822085	0.882858	0.621380
	C176	C	0.383710	0.179539	0.885706
	C177	C	0.613779	0.178244	0.123097
	C178	C	0.383559	0.824459	0.124799
	C179	C	0.613756	0.826696	0.885928
	C180	C	0.382772	0.883048	0.181170
	C181	C	0.613659	0.120474	0.180549
	C182	C	0.383401	0.121235	0.828872
	C183	C	0.614113	0.885647	0.829747
	C184	C	0.880969	0.178049	0.389810
	C185	C	0.117139	0.177535	0.620867
	C186	C	0.117289	0.827201	0.389846
	C187	C	0.879454	0.825172	0.621286
	C188	C	0.176163	0.386965	0.886366
	C189	C	0.176410	0.616353	0.123297
	C190	C	0.822480	0.386345	0.124711
	C191	C	0.823434	0.617079	0.885368
	C192	C	0.398503	0.097163	0.605032
	C193	C	0.598227	0.907538	0.605706
	C194	C	0.599570	0.096807	0.404320
	C195	C	0.398065	0.907180	0.405678
	C196	C	0.598990	0.402099	0.099746
	C197	C	0.599040	0.602779	0.910494
	C198	C	0.399860	0.600840	0.100112
	C199	C	0.400187	0.402966	0.908979
	C200	C	0.094132	0.603663	0.404637
	C201	C	0.904554	0.601762	0.604640
	C202	C	0.094604	0.400851	0.605292
	C203	C	0.904274	0.402016	0.405697
	C204	C	0.900065	0.595253	0.103606
	C205	C	0.099840	0.406861	0.105664
	C206	C	0.099970	0.596621	0.904956
	C207	C	0.899171	0.407395	0.905942
	C208	C	0.097787	0.902503	0.600830
	C209	C	0.099184	0.102763	0.409763
	C210	C	0.899678	0.101335	0.600437
	C211	C	0.898786	0.903186	0.411296
	C212	C	0.593457	0.102903	0.905085
	C213	C	0.403604	0.103002	0.104840
	C214	C	0.592592	0.902252	0.105010
	C215	C	0.404261	0.902839	0.906446
	Zn216	Zn	0.498673	0.002851	0.755616
	Zn217	Zn	0.498243	0.001858	0.254840
	Zn218	Zn	0.749108	0.502299	0.005079
	Zn219	Zn	0.249946	0.501623	0.004593
	Zn220	Zn	-0.001020	0.752638	0.505308
	Zn221	Zn	-0.000897	0.251789	0.505101
	Zn222	Zn	-0.000150	0.501538	0.754603
	Zn223	Zn	-0.000645	0.501902	0.255365
	Zn224	Zn	0.498948	0.752259	0.005454
	Zn225	Zn	0.498440	0.252733	0.004651
	Zn226	Zn	0.748634	0.002329	0.505715
	Zn227	Zn	0.248123	0.002276	0.505271
	N228	N	0.413090	0.965269	0.684148
	N229	N	0.583359	0.040007	0.682503
	N230	N	0.583595	0.964449	0.327336
	N231	N	0.413970	0.039605	0.327459
	N232	N	0.677006	0.417531	0.966897
	N233	N	0.677434	0.587707	0.042863
	N234	N	0.322180	0.587035	0.967089
	N235	N	0.322339	0.417228	0.041930
	N236	N	0.962010	0.682078	0.418549
	N237	N	0.036154	0.681042	0.591162
	N238	N	0.962078	0.323057	0.591131
	N239	N	0.036214	0.323552	0.419131
	N240	N	0.962220	0.416382	0.682989
	N241	N	0.037324	0.585720	0.681515
	N242	N	0.962115	0.588188	0.326333
	N243	N	0.036878	0.417762	0.328345
	N244	N	0.414023	0.680346	0.967781
	N245	N	0.584650	0.680502	0.043528
	N246	N	0.584960	0.324078	0.967364
	N247	N	0.414115	0.324698	0.041885
	N248	N	0.677171	0.964612	0.419698
	N249	N	0.677499	0.038911	0.591626
	N250	N	0.320247	0.965123	0.590759
	N251	N	0.320475	0.039193	0.419625
	N252	N	0.914886	0.463546	0.182841
	N253	N	0.084571	0.539208	0.182388
	N254	N	0.084010	0.464329	0.828105
	N255	N	0.914799	0.539228	0.826704
	N256	N	0.175724	0.917761	0.468047
	N257	N	0.176890	0.087720	0.542608
	N258	N	0.821459	0.087211	0.468198
	N259	N	0.820583	0.916914	0.543420
	N260	N	0.461710	0.181633	0.918726
	N261	N	0.535765	0.180687	0.090402
	N262	N	0.461517	0.822802	0.091666
	N263	N	0.535868	0.823952	0.919172
	N264	N	0.460112	0.917275	0.182601
	N265	N	0.535799	0.087306	0.182627
	N266	N	0.461077	0.087804	0.827342
	N267	N	0.536531	0.918997	0.828761
	N268	N	0.914325	0.179636	0.467875
	N269	N	0.084277	0.179934	0.542513
	N270	N	0.083939	0.824888	0.467970
	N271	N	0.913019	0.823725	0.543425
	N272	N	0.178649	0.464864	0.918982
	N273	N	0.178532	0.538471	0.090633
	N274	N	0.820315	0.464141	0.091196
	N275	N	0.820869	0.539382	0.918975
	O276	O	0.938248	-0.077838	1.109632
	H277	H	0.930891	-0.081641	1.109082
	H278	H	0.940758	-0.075001	1.105947
	O279	O	0.907615	-0.099367	0.076207
	H280	H	0.910209	-0.105192	0.081867
	H281	H	0.905136	-0.104755	0.077947
	O282	O	0.882007	0.906803	0.070307
	H283	H	0.875920	0.911053	0.075143
	H284	H	0.879093	0.898432	0.068775
	O285	O	-0.072939	0.890210	0.108866
	H286	H	-0.071232	0.888188	0.115511
	H287	H	-0.069311	0.893797	0.112451
