data_Molecule from HDF5

_cell_length_a		16.417110
_cell_length_b		16.535839
_cell_length_c		16.616083
_cell_angle_alpha	90.097613
_cell_angle_beta	90.220232
_cell_angle_gamma	90.031484
_symmetry_space_group_name_H-M	'P 1'
_symmetry_Int_Tables_number		1

loop_
	_symmetry_equiv_pos_as_xyz
	x,y,z

loop_
	_atom_site_label
	_atom_site_type_symbol
	_atom_site_fract_x
	_atom_site_fract_y
	_atom_site_fract_z
	H0	H	0.400435	0.852104	0.722405
	H1	H	0.615252	0.163866	0.721229
	H2	H	0.615806	0.851758	0.277494
	H3	H	0.406706	0.166054	0.278452
	H4	H	0.726010	0.408360	0.840403
	H5	H	0.731326	0.612170	0.155881
	H6	H	0.288133	0.611355	0.842476
	H7	H	0.290705	0.404344	0.156824
	H8	H	0.852920	0.731892	0.393060
	H9	H	0.167197	0.731342	0.607441
	H10	H	0.853460	0.287254	0.602712
	H11	H	0.168546	0.290010	0.396124
	H12	H	0.852913	0.404332	0.719485
	H13	H	0.166744	0.617411	0.724038
	H14	H	0.852521	0.617074	0.275789
	H15	H	0.167162	0.403482	0.277815
	H16	H	0.404145	0.729118	0.842993
	H17	H	0.616566	0.730058	0.155103
	H18	H	0.609788	0.290491	0.840786
	H19	H	0.406673	0.286541	0.155851
	H20	H	0.729351	0.849849	0.397012
	H21	H	0.730206	0.165105	0.602413
	H22	H	0.287321	0.851425	0.602911
	H23	H	0.291830	0.166640	0.395786
	H24	H	0.902881	0.352794	0.221907
	H25	H	0.114897	0.664835	0.221158
	H26	H	0.113447	0.352040	0.778589
	H27	H	0.903922	0.665536	0.777451
	H28	H	0.228153	0.906112	0.340987
	H29	H	0.232609	0.112660	0.654850
	H30	H	0.786095	0.114603	0.343782
	H31	H	0.789837	0.904454	0.656238
	H32	H	0.351655	0.226788	0.894473
	H33	H	0.668951	0.227841	0.102018
	H34	H	0.352937	0.786766	0.104093
	H35	H	0.668400	0.787280	0.895191
	H36	H	0.352502	0.904710	0.218720
	H37	H	0.669157	0.112632	0.219551
	H38	H	0.352050	0.109765	0.778303
	H39	H	0.666030	0.898076	0.774617
	H40	H	0.901182	0.232583	0.344293
	H41	H	0.116366	0.230310	0.655129
	H42	H	0.115618	0.785113	0.344323
	H43	H	0.904236	0.786156	0.654877
	H44	H	0.226128	0.349511	0.898018
	H45	H	0.231215	0.664799	0.104976
	H46	H	0.793074	0.349203	0.098969
	H47	H	0.791624	0.667147	0.898291
	H48	H	0.425077	0.123294	0.601250
	H49	H	0.594041	0.897243	0.588124
	H50	H	0.600055	0.121921	0.408812
	H51	H	0.413358	0.893413	0.407907
	H52	H	0.603900	0.416875	0.112616
	H53	H	0.601854	0.597079	0.885322
	H54	H	0.427406	0.596159	0.108177
	H55	H	0.420899	0.413819	0.886618
	H56	H	0.120708	0.597810	0.416007
	H57	H	0.898397	0.600620	0.583766
	H58	H	0.126657	0.421576	0.597705
	H59	H	0.898823	0.417370	0.418081
	H60	H	0.125238	0.411963	0.585378
	H61	H	0.899545	0.592361	0.586129
	H62	H	0.121199	0.591288	0.409948
	H63	H	0.899230	0.429245	0.409458
	H64	H	0.420931	0.602902	0.113080
	H65	H	0.598051	0.595810	0.889008
	H66	H	0.600617	0.417921	0.111147
	H67	H	0.415325	0.416805	0.886004
	H68	H	0.596988	0.119734	0.409058
	H69	H	0.601449	0.895386	0.583607
	H70	H	0.434863	0.112051	0.581656
	H71	H	0.423490	0.894490	0.401366
	H72	H	0.919426	0.622600	0.089816
	H73	H	0.102175	0.392721	0.092427
	H74	H	0.094393	0.620723	0.911228
	H75	H	0.922205	0.396821	0.907984
	H76	H	0.098607	0.919672	0.610889
	H77	H	0.097178	0.097551	0.388082
	H78	H	0.924527	0.101591	0.611151
	H79	H	0.922772	0.914325	0.386798
	H80	H	0.620215	0.093159	0.915490
	H81	H	0.397689	0.097341	0.086653
	H82	H	0.623599	0.921496	0.087986
	H83	H	0.396871	0.915422	0.913507
	H84	H	0.624640	0.919208	0.090861
	H85	H	0.397335	0.095624	0.089486
	H86	H	0.624245	0.093368	0.904863
	H87	H	0.399948	0.923989	0.910690
	H88	H	0.919592	0.097487	0.611055
	H89	H	0.099578	0.104157	0.385346
	H90	H	0.101074	0.919990	0.610849
	H91	H	0.917889	0.923196	0.387712
	H92	H	0.098865	0.620270	0.914009
	H93	H	0.093582	0.395855	0.092104
	H94	H	0.924093	0.620714	0.090467
	H95	H	0.916016	0.394823	0.909148
	H96	H	0.411596	0.120944	0.581043
	H97	H	0.600726	0.893167	0.591882
	H98	H	0.599408	0.120624	0.412092
	H99	H	0.423569	0.897515	0.412419
	H100	H	0.600803	0.415028	0.112551
	H101	H	0.597969	0.600472	0.886554
	H102	H	0.417542	0.592878	0.110850
	H103	H	0.420604	0.419960	0.888557
	H104	H	0.124328	0.599624	0.408085
	H105	H	0.895789	0.597903	0.591395
	H106	H	0.120103	0.426856	0.584484
	H107	H	0.893484	0.416777	0.404250
	H108	H	0.921994	0.620278	0.085939
	H109	H	0.098847	0.396597	0.084799
	H110	H	0.099396	0.621933	0.908618
	H111	H	0.918594	0.393993	0.903237
	H112	H	0.099437	0.921472	0.610454
	H113	H	0.104529	0.098371	0.385386
	H114	H	0.924676	0.095554	0.608383
	H115	H	0.927483	0.922563	0.390911
	H116	H	0.625335	0.102590	0.911317
	H117	H	0.396295	0.098648	0.089338
	H118	H	0.623701	0.917088	0.087217
	H119	H	0.394785	0.918437	0.904780
	C120	C	0.389487	0.015632	0.619682
	C121	C	0.631605	0.998811	0.620589
	C122	C	0.631485	0.016660	0.378101
	C123	C	0.388838	0.999814	0.376245
	C124	C	0.631669	0.386571	0.007699
	C125	C	0.631898	0.629792	0.990667
	C126	C	0.388343	0.629596	0.007775
	C127	C	0.387862	0.385347	0.990608
	C128	C	0.018283	0.629898	0.378069
	C129	C	1.002023	0.629721	0.620280
	C130	C	0.019611	0.387958	0.620553
	C131	C	1.001229	0.388423	0.378222
	C132	C	0.889230	0.516838	0.120066
	C133	C	0.130879	0.499045	0.121656
	C134	C	0.129472	0.516845	0.879238
	C135	C	0.887628	0.499772	0.876234
	C136	C	0.131541	0.887760	0.507412
	C137	C	0.132693	0.131104	0.489760
	C138	C	0.888950	0.130592	0.507250
	C139	C	0.889849	0.887691	0.491491
	C140	C	0.518713	0.128028	0.878208
	C141	C	0.501974	0.129140	0.120039
	C142	C	0.519481	0.887167	0.120394
	C143	C	0.501714	0.886414	0.877601
	C144	C	0.384259	0.898562	0.680542
	C145	C	0.633995	0.116889	0.680853
	C146	C	0.634008	0.898367	0.318112
	C147	C	0.388061	0.118743	0.318031
	C148	C	0.687648	0.388184	0.887940
	C149	C	0.691434	0.630858	0.108701
	C150	C	0.327986	0.630552	0.889813
	C151	C	0.329638	0.384689	0.109311
	C152	C	0.900036	0.691388	0.374876
	C153	C	0.120132	0.690819	0.624483
	C154	C	0.900453	0.327741	0.621762
	C155	C	0.120695	0.329086	0.376723
	C156	C	0.900423	0.385361	0.679869
	C157	C	0.119752	0.633885	0.682501
	C158	C	0.899887	0.634049	0.316771
	C159	C	0.120079	0.385660	0.318137
	C160	C	0.385646	0.689162	0.889820
	C161	C	0.634353	0.689594	0.108399
	C162	C	0.630000	0.329704	0.888165
	C163	C	0.387168	0.326067	0.108839
	C164	C	0.690669	0.897630	0.377246
	C165	C	0.690878	0.117681	0.622015
	C166	C	0.327695	0.898360	0.621397
	C167	C	0.330756	0.118904	0.376210
	C168	C	0.886088	0.398859	0.180169
	C169	C	0.133328	0.617644	0.181218
	C170	C	0.131497	0.398842	0.819156
	C171	C	0.885733	0.618533	0.817563
	C172	C	0.189576	0.886581	0.388635
	C173	C	0.192877	0.132087	0.607841
	C174	C	0.827050	0.132706	0.390504
	C175	C	0.829781	0.885847	0.609190
	C176	C	0.399188	0.186826	0.876036
	C177	C	0.621561	0.188454	0.121308
	C178	C	0.400179	0.827089	0.122354
	C179	C	0.620554	0.826415	0.876148
	C180	C	0.400155	0.885686	0.179288
	C181	C	0.621539	0.131375	0.179563
	C182	C	0.399509	0.129019	0.818276
	C183	C	0.619459	0.881657	0.816269
	C184	C	0.884337	0.191707	0.390658
	C185	C	0.135053	0.190286	0.607989
	C186	C	0.133877	0.826371	0.390304
	C187	C	0.886484	0.826928	0.608373
	C188	C	0.187689	0.397565	0.878628
	C189	C	0.191223	0.617545	0.123652
	C190	C	0.831027	0.397294	0.119654
	C191	C	0.830093	0.619429	0.877349
	C192	C	0.416170	0.097377	0.595001
	C193	C	0.606018	0.916523	0.595227
	C194	C	0.606173	0.099146	0.402909
	C195	C	0.413191	0.916767	0.400226
	C196	C	0.608512	0.409898	0.090596
	C197	C	0.606499	0.605051	0.908215
	C198	C	0.414464	0.604594	0.089451
	C199	C	0.412046	0.409756	0.908629
	C200	C	0.100562	0.603435	0.403974
	C201	C	0.919434	0.604151	0.594366
	C202	C	0.102374	0.413065	0.596105
	C203	C	0.918764	0.413856	0.403421
	C204	C	0.914459	0.599536	0.095678
	C205	C	0.105474	0.416591	0.096903
	C206	C	0.104647	0.599398	0.904207
	C207	C	0.911937	0.416876	0.899818
	C208	C	0.106754	0.913019	0.589185
	C209	C	0.107524	0.106995	0.407622
	C210	C	0.915442	0.105383	0.588986
	C211	C	0.915390	0.913014	0.409720
	C212	C	0.601692	0.103444	0.903435
	C213	C	0.418835	0.104264	0.095545
	C214	C	0.602331	0.911992	0.095758
	C215	C	0.418761	0.912135	0.902438
	Zn216	Zn	0.510392	0.006930	0.749401
	Zn217	Zn	0.511149	0.008307	0.248665
	Zn218	Zn	0.760726	0.508400	-0.001041
	Zn219	Zn	0.259164	0.507642	-0.000005
	Zn220	Zn	0.010381	0.758221	0.500067
	Zn221	Zn	0.010756	0.259902	0.498681
	Zn222	Zn	0.009636	0.509747	0.748615
	Zn223	Zn	0.009211	0.508513	0.249555
	Zn224	Zn	0.510518	0.758527	-0.000745
	Zn225	Zn	0.510406	0.256992	-0.001080
	Zn226	Zn	0.760123	0.007660	0.499420
	Zn227	Zn	0.260763	0.008972	0.498174
	N228	N	0.422342	0.972358	0.679481
	N229	N	0.598325	0.041718	0.680373
	N230	N	0.598191	0.973381	0.318483
	N231	N	0.423076	0.043331	0.317488
	N232	N	0.689033	0.422631	0.963244
	N233	N	0.690019	0.594432	0.034353
	N234	N	0.329294	0.594482	0.964189
	N235	N	0.329573	0.420557	0.034867
	N236	N	0.974733	0.688860	0.412476
	N237	N	0.045853	0.688502	0.586584
	N238	N	0.975713	0.328913	0.585926
	N239	N	0.045592	0.330081	0.412897
	N240	N	0.975508	0.421917	0.679399
	N241	N	0.045136	0.596660	0.680107
	N242	N	0.974429	0.596492	0.318558
	N243	N	0.044740	0.421452	0.318692
	N244	N	0.422462	0.688829	0.964240
	N245	N	0.598042	0.688972	0.033897
	N246	N	0.596356	0.328188	0.963729
	N247	N	0.422335	0.326101	0.034027
	N248	N	0.689164	0.972228	0.413818
	N249	N	0.689610	0.043061	0.585574
	N250	N	0.331131	0.972120	0.583881
	N251	N	0.330927	0.043870	0.411424
	N252	N	0.921124	0.474262	0.180722
	N253	N	0.096934	0.542864	0.180384
	N254	N	0.096227	0.474169	0.819192
	N255	N	0.920378	0.542967	0.816465
	N256	N	0.188602	0.923858	0.462579
	N257	N	0.191649	0.096283	0.533239
	N258	N	0.829866	0.095586	0.464086
	N259	N	0.831697	0.922968	0.535214
	N260	N	0.474401	0.186353	0.912553
	N261	N	0.546309	0.187200	0.085132
	N262	N	0.475448	0.827667	0.086501
	N263	N	0.546155	0.829240	0.913590
	N264	N	0.475246	0.922248	0.178240
	N265	N	0.546183	0.095251	0.179138
	N266	N	0.474809	0.093080	0.819436
	N267	N	0.544257	0.918029	0.816850
	N268	N	0.922549	0.190333	0.464284
	N269	N	0.098499	0.190048	0.533588
	N270	N	0.098988	0.826589	0.465184
	N271	N	0.922882	0.827793	0.534116
	N272	N	0.186797	0.472091	0.915039
	N273	N	0.190006	0.542837	0.087490
	N274	N	0.832856	0.471829	0.082955
	N275	N	0.830726	0.544492	0.912805
	O276	O	1.215316	1.069109	-0.031208
	H277	H	1.227615	1.080177	-0.033344
	H278	H	1.211925	1.068918	-0.007471
	O279	O	0.207971	-0.194585	1.089693
	H280	H	0.201160	-0.169279	1.059170
	H281	H	0.203734	-0.210395	1.078210
	O282	O	0.710330	0.709380	0.694667
	H283	H	0.678700	0.702587	0.701081
	H284	H	0.714006	0.723837	0.694729
	O285	O	0.349060	0.302068	0.703755
	H286	H	0.322759	0.275205	0.733644
	H287	H	0.379488	0.304512	0.697776
	O288	O	1.137932	0.087117	1.010291
	H289	H	1.140765	0.097718	1.008155
	H290	H	1.141555	0.091765	1.009360
	O291	O	0.284270	0.545594	0.531191
	H292	H	0.284568	0.551546	0.533638
	H293	H	0.276838	0.551607	0.552031
	O294	O	0.231136	0.224127	0.031242
	H295	H	0.238358	0.233016	0.052863
	H296	H	0.244268	0.236782	0.049409
	O297	O	0.997835	-0.196443	0.207364
	H298	H	0.978816	-0.176694	0.209443
	H299	H	0.988099	-0.211037	0.221643
	O300	O	0.115183	-0.091430	0.201895
	H301	H	0.084153	-0.079147	0.207162
	H302	H	0.133179	-0.072794	0.196633
	O303	O	0.079228	0.003242	-0.216868
	H304	H	0.086019	-0.002240	-0.217622
	H305	H	0.053985	0.007147	-0.217527
	O306	O	0.789589	0.227538	-0.043970
	H307	H	0.766541	0.248588	-0.062661
	H308	H	0.785267	0.234405	-0.077811
	O309	O	0.541632	0.716699	0.705191
	H310	H	0.532383	0.733661	0.719325
	H311	H	0.526039	0.724847	0.681734
	O312	O	0.540593	0.298161	0.292945
	H313	H	0.524107	0.295047	0.299645
	H314	H	0.523432	0.292033	0.289174
	O315	O	0.372682	0.549236	0.405991
	H316	H	0.364016	0.564923	0.413231
	H317	H	0.360287	0.552157	0.400178
	O318	O	0.832210	0.918141	-0.193810
	H319	H	0.816155	0.927711	-0.196258
	H320	H	0.843531	0.911470	-0.182309
	O321	O	0.290678	0.289775	0.531098
	H322	H	0.266566	0.270919	0.549364
	H323	H	0.285287	0.292250	0.554650
	O324	O	0.934489	-0.160884	0.879526
	H325	H	0.931542	-0.168643	0.864469
	H326	H	0.922871	-0.161138	0.896988
	O327	O	0.725906	0.575593	0.428000
	H328	H	0.708348	0.573669	0.413697
	H329	H	0.734328	0.581191	0.431626
	O330	O	-0.039000	1.189692	0.119055
	H331	H	-0.049863	1.204379	0.114037
	H332	H	-0.040391	1.178384	0.111305
	O333	O	0.533760	0.718205	0.291002
	H334	H	0.517778	0.708446	0.298839
	H335	H	0.530309	0.723050	0.276220
	O336	O	0.358369	0.549157	0.655183
	H337	H	0.376305	0.553362	0.653952
	H338	H	0.350422	0.556369	0.668579
	O339	O	0.296903	0.725069	0.470014
	H340	H	0.267736	0.738557	0.472354
	H341	H	0.296595	0.725133	0.434258
	O342	O	0.000528	0.926569	-0.003808
	H343	H	-0.009082	0.924834	-0.004112
	H344	H	-0.015963	0.919883	0.004407
	O345	O	0.674784	0.724916	0.329413
	H346	H	0.657444	0.722744	0.337720
	H347	H	0.660817	0.712772	0.336525
	O348	O	0.719686	0.604596	0.632767
	H349	H	0.709186	0.628806	0.639693
	H350	H	0.746248	0.599316	0.645859
	O351	O	-0.169448	-0.109692	0.931236
	H352	H	-0.165188	-0.099907	0.946472
	H353	H	-0.168271	-0.102799	0.935915
	O354	O	1.006480	0.025404	1.130251
	H355	H	1.018923	0.031425	1.136642
	H356	H	1.015861	0.027400	1.127302
	O357	O	0.351182	0.714104	0.292253
	H358	H	0.331375	0.731784	0.262433
	H359	H	0.371201	0.695005	0.295983
	O360	O	0.290681	0.443583	0.717378
	H361	H	0.268351	0.434541	0.740814
	H362	H	0.294275	0.421377	0.711945
	O363	O	0.688369	0.452086	0.544252
	H364	H	0.693966	0.455475	0.532576
	H365	H	0.682736	0.464982	0.542742
	O366	O	1.106340	-0.084368	0.793248
	H367	H	1.101596	-0.101088	0.790029
	H368	H	1.096723	-0.073917	0.792903
	O369	O	-0.197729	0.215993	0.790220
	H370	H	-0.169496	0.197854	0.782668
	H371	H	-0.227784	0.247411	0.755115
	O372	O	-0.180781	1.102446	1.119607
	H373	H	-0.165669	1.102006	1.125548
	H374	H	-0.179020	1.101416	1.113800
	O375	O	0.809201	-0.206129	0.037108
	H376	H	0.793698	-0.202595	0.041683
	H377	H	0.798709	-0.210830	0.038440
	O378	O	0.504043	0.471616	0.535709
	H379	H	0.493992	0.472049	0.541203
	H380	H	0.499634	0.458556	0.533183
	O381	O	-0.058390	1.158026	0.059457
	H382	H	-0.057070	1.166296	0.048009
	H383	H	-0.065226	1.155491	0.045807
	O384	O	0.495818	0.295939	0.662435
	H385	H	0.507711	0.296096	0.662768
	H386	H	0.500383	0.302454	0.654814
	O387	O	0.395134	0.774281	0.636000
	H388	H	0.395983	0.774253	0.624486
	H389	H	0.383575	0.774378	0.622962
	O390	O	0.101582	1.061363	0.958180
	H391	H	0.106289	1.059393	0.955712
	H392	H	0.103820	1.055946	0.961266
	O393	O	0.990922	0.153448	0.225561
	H394	H	0.995078	0.164008	0.231757
	H395	H	0.976848	0.153455	0.223366
	O396	O	0.201839	0.201503	0.195247
	H397	H	0.181475	0.191419	0.198426
	H398	H	0.212489	0.222563	0.209507
	O399	O	0.207447	0.818180	0.800986
	H400	H	0.214588	0.843287	0.809322
	H401	H	0.200579	0.819531	0.800360
	O402	O	0.970234	0.210608	0.867411
	H403	H	0.955612	0.224360	0.856750
	H404	H	0.974303	0.202844	0.878791
	O405	O	0.612526	0.527475	0.704635
	H406	H	0.639589	0.535890	0.718407
	H407	H	0.599191	0.528952	0.688370
	O408	O	1.202903	1.039824	1.205599
	H409	H	1.203013	1.044357	1.202383
	H410	H	1.223117	1.053475	1.225746
	O411	O	0.725950	0.480028	0.284894
	H412	H	0.724369	0.457831	0.294120
	H413	H	0.752614	0.477413	0.265808
	O414	O	-0.070512	0.090924	-0.035990
	H415	H	-0.066858	0.078312	-0.025921
	H416	H	-0.066117	0.085292	-0.033232
	O417	O	0.351535	0.484689	0.345827
	H418	H	0.361678	0.499377	0.367254
	H419	H	0.321691	0.501080	0.329815
	O420	O	1.029040	-0.001163	0.999029
	H421	H	1.029306	-0.009699	1.020211
	H422	H	1.005965	0.008743	0.990393
	O423	O	0.833183	0.855692	0.170749
	H424	H	0.846804	0.862837	0.157401
	H425	H	0.816061	0.844905	0.179233
	O426	O	0.422231	0.543090	0.469716
	H427	H	0.447107	0.542676	0.479036
	H428	H	0.402633	0.541300	0.458930
	O429	O	0.535931	0.460273	0.368511
	H430	H	0.522734	0.469826	0.378054
	H431	H	0.533816	0.472184	0.360699
	O432	O	0.872930	0.027224	0.807771
	H433	H	0.863948	0.039075	0.802118
	H434	H	0.858073	0.045590	0.797397
	O435	O	0.512143	0.510016	0.698690
	H436	H	0.517265	0.515312	0.705037
	H437	H	0.501393	0.526267	0.693286
	O438	O	0.532515	0.535378	0.282811
	H439	H	0.533037	0.527976	0.284982
	H440	H	0.545292	0.520604	0.275569
	O441	O	0.378769	0.523065	0.546594
	H442	H	0.379436	0.523283	0.550070
	H443	H	0.372532	0.526580	0.550371
	O444	O	0.416278	0.328081	0.407436
	H445	H	0.426979	0.345030	0.414664
	H446	H	0.413188	0.350191	0.409638
	O447	O	0.696086	0.318113	0.685569
	H448	H	0.677112	0.332918	0.667192
	H449	H	0.678402	0.336162	0.665688
	O450	O	0.716927	0.303575	0.295545
	H451	H	0.705186	0.283614	0.276906
	H452	H	0.691736	0.304197	0.301414
	O453	O	0.483825	0.646025	0.504577
	H454	H	0.477252	0.639735	0.484564
	H455	H	0.472435	0.645175	0.515837
	O456	O	0.045786	0.800174	0.905669
	H457	H	0.069462	0.795326	0.906508
	H458	H	0.055132	0.788067	0.909332
	O459	O	0.535907	0.366748	0.429671
	H460	H	0.547721	0.373797	0.428674
	H461	H	0.536254	0.368804	0.432338
	O462	O	0.656264	0.714915	0.495445
	H463	H	0.674506	0.735391	0.502736
	H464	H	0.643843	0.707102	0.505288
	O465	O	0.722219	0.297227	0.460508
	H466	H	0.733138	0.314975	0.454774
	H467	H	0.734384	0.282640	0.442276
	O468	O	0.160400	0.876127	-0.032572
	H469	H	0.163710	0.882577	-0.026537
	H470	H	0.155626	0.862487	-0.029663
	O471	O	0.174913	0.174624	0.807834
	H472	H	0.151260	0.162736	0.819933
	H473	H	0.156042	0.157809	0.825009
	O474	O	0.806379	0.978993	0.214777
	H475	H	0.802075	0.968946	0.210422
	H476	H	0.804276	0.983820	0.226018
	O477	O	0.385813	0.344016	0.423075
	H478	H	0.375041	0.338172	0.431889
	H479	H	0.396053	0.347663	0.445123
