data_Molecule from HDF5

_cell_length_a		16.352503
_cell_length_b		16.445529
_cell_length_c		16.257056
_cell_angle_alpha	89.974686
_cell_angle_beta	89.823694
_cell_angle_gamma	89.976153
_symmetry_space_group_name_H-M	'P 1'
_symmetry_Int_Tables_number		1

loop_
	_symmetry_equiv_pos_as_xyz
	x,y,z

loop_
	_atom_site_label
	_atom_site_type_symbol
	_atom_site_fract_x
	_atom_site_fract_y
	_atom_site_fract_z
	H0	H	0.402291	0.830055	0.721382
	H1	H	0.609568	0.148697	0.718090
	H2	H	0.607460	0.828901	0.280314
	H3	H	0.403958	0.149975	0.281372
	H4	H	0.725346	0.387730	0.840685
	H5	H	0.723304	0.592879	0.162279
	H6	H	0.287911	0.593022	0.839444
	H7	H	0.285361	0.387421	0.161681
	H8	H	0.846180	0.709933	0.394902
	H9	H	0.164500	0.708865	0.604996
	H10	H	0.843328	0.268395	0.604209
	H11	H	0.164702	0.268149	0.396372
	H12	H	0.843009	0.386408	0.719236
	H13	H	0.165923	0.589750	0.717107
	H14	H	0.842140	0.586216	0.286213
	H15	H	0.165441	0.384004	0.280727
	H16	H	0.402918	0.707321	0.839524
	H17	H	0.607184	0.707932	0.162475
	H18	H	0.612248	0.270868	0.840629
	H19	H	0.401123	0.272413	0.162269
	H20	H	0.723922	0.827912	0.396030
	H21	H	0.725190	0.147686	0.602057
	H22	H	0.287556	0.828247	0.602909
	H23	H	0.284437	0.148295	0.394575
	H24	H	0.899571	0.328872	0.219898
	H25	H	0.108293	0.647109	0.222606
	H26	H	0.108403	0.330321	0.781590
	H27	H	0.897205	0.647882	0.777332
	H28	H	0.226243	0.882857	0.338348
	H29	H	0.226017	0.092119	0.659558
	H30	H	0.786920	0.090844	0.338737
	H31	H	0.784124	0.883203	0.660486
	H32	H	0.347687	0.212213	0.895542
	H33	H	0.664102	0.213055	0.108085
	H34	H	0.346202	0.766781	0.108930
	H35	H	0.665027	0.766123	0.893349
	H36	H	0.344894	0.887483	0.220138
	H37	H	0.666414	0.092556	0.218243
	H38	H	0.346431	0.092533	0.782090
	H39	H	0.666481	0.885370	0.780178
	H40	H	0.898951	0.208487	0.340039
	H41	H	0.110154	0.208421	0.659528
	H42	H	0.111713	0.766693	0.339558
	H43	H	0.898651	0.766075	0.660079
	H44	H	0.227635	0.332145	0.894400
	H45	H	0.224916	0.648612	0.107573
	H46	H	0.782260	0.331733	0.107781
	H47	H	0.784752	0.649499	0.896893
	H48	H	0.417373	0.101422	0.588553
	H49	H	0.599673	0.871963	0.595297
	H50	H	0.602928	0.103497	0.412121
	H51	H	0.416897	0.877483	0.414953
	H52	H	0.589152	0.406374	0.112823
	H53	H	0.592032	0.578953	0.887736
	H54	H	0.402222	0.577597	0.120416
	H55	H	0.415900	0.402446	0.886509
	H56	H	0.118275	0.582943	0.417960
	H57	H	0.896208	0.567963	0.580422
	H58	H	0.114261	0.398713	0.580574
	H59	H	0.890475	0.397825	0.413444
	H60	H	0.118380	0.403990	0.597968
	H61	H	0.887243	0.574844	0.600268
	H62	H	0.116084	0.568684	0.413926
	H63	H	0.889341	0.397227	0.407380
	H64	H	0.422005	0.571147	0.111240
	H65	H	0.595746	0.580063	0.885652
	H66	H	0.590916	0.396286	0.117158
	H67	H	0.418445	0.402093	0.887163
	H68	H	0.597416	0.105281	0.401985
	H69	H	0.585316	0.876721	0.591776
	H70	H	0.412733	0.102288	0.588113
	H71	H	0.411507	0.873576	0.407713
	H72	H	0.919070	0.603871	0.098143
	H73	H	0.088411	0.376437	0.092901
	H74	H	0.099083	0.605185	0.909213
	H75	H	0.916580	0.375521	0.905813
	H76	H	0.095653	0.904095	0.612259
	H77	H	0.099404	0.079419	0.382113
	H78	H	0.906121	0.075845	0.617492
	H79	H	0.913068	0.896747	0.383213
	H80	H	0.619852	0.083915	0.917664
	H81	H	0.392159	0.083199	0.084031
	H82	H	0.617013	0.900544	0.085736
	H83	H	0.395922	0.906426	0.913303
	H84	H	0.620397	0.900118	0.090722
	H85	H	0.393378	0.077011	0.090797
	H86	H	0.619429	0.074107	0.909178
	H87	H	0.389775	0.898025	0.904900
	H88	H	0.919519	0.070555	0.611079
	H89	H	0.093970	0.070408	0.387241
	H90	H	0.089580	0.895832	0.612886
	H91	H	0.916959	0.902465	0.387464
	H92	H	0.091193	0.603679	0.905860
	H93	H	0.097076	0.377439	0.080902
	H94	H	0.917151	0.600826	0.086258
	H95	H	0.919508	0.379499	0.915748
	H96	H	0.414979	0.103184	0.591984
	H97	H	0.597521	0.876682	0.580743
	H98	H	0.592051	0.100370	0.410714
	H99	H	0.420700	0.876376	0.405652
	H100	H	0.598958	0.402959	0.117017
	H101	H	0.595120	0.576723	0.887086
	H102	H	0.419308	0.592177	0.119135
	H103	H	0.417341	0.400202	0.886293
	H104	H	0.122226	0.578514	0.403429
	H105	H	0.889233	0.589372	0.582390
	H106	H	0.122581	0.386975	0.592335
	H107	H	0.888619	0.392494	0.411322
	H108	H	0.907720	0.605576	0.093112
	H109	H	0.101979	0.372829	0.093452
	H110	H	0.093583	0.602244	0.914243
	H111	H	0.909292	0.376005	0.914258
	H112	H	0.099370	0.895662	0.616480
	H113	H	0.088341	0.080620	0.385689
	H114	H	0.918746	0.084961	0.616435
	H115	H	0.920399	0.895255	0.386061
	H116	H	0.624385	0.085563	0.905828
	H117	H	0.389408	0.084862	0.092563
	H118	H	0.619732	0.895627	0.087318
	H119	H	0.392502	0.893894	0.917321
	C120	C	0.383593	-0.002749	0.621823
	C121	C	0.626132	0.980380	0.620700
	C122	C	0.628161	-0.002821	0.377110
	C123	C	0.384544	0.981229	0.377909
	C124	C	0.626214	0.369460	0.009856
	C125	C	0.626011	0.610752	0.992772
	C126	C	0.383616	0.611553	0.010154
	C127	C	0.384695	0.369642	0.992641
	C128	C	0.013012	0.608126	0.379847
	C129	C	0.996479	0.608986	0.620259
	C130	C	0.012395	0.365731	0.622215
	C131	C	0.995610	0.365017	0.378714
	C132	C	0.882736	0.497809	0.123062
	C133	C	0.126557	0.480632	0.122004
	C134	C	0.126271	0.498536	0.878289
	C135	C	0.882959	0.481877	0.879543
	C136	C	0.126804	0.866656	0.507811
	C137	C	0.125891	0.108847	0.491001
	C138	C	0.883578	0.108719	0.508562
	C139	C	0.884049	0.866099	0.491349
	C140	C	0.515430	0.112168	0.879190
	C141	C	0.497305	0.112270	0.121211
	C142	C	0.513338	0.868084	0.120593
	C143	C	0.497862	0.867378	0.878978
	C144	C	0.382868	0.877766	0.681861
	C145	C	0.627785	0.100811	0.678689
	C146	C	0.627297	0.876718	0.319279
	C147	C	0.384134	0.101872	0.320193
	C148	C	0.685912	0.368451	0.888947
	C149	C	0.684391	0.612049	0.113923
	C150	C	0.326515	0.611810	0.887993
	C151	C	0.325044	0.368664	0.113640
	C152	C	0.893244	0.668615	0.377593
	C153	C	0.116782	0.668597	0.623076
	C154	C	0.891656	0.307485	0.623302
	C155	C	0.116681	0.307054	0.377336
	C156	C	0.891305	0.366300	0.680445
	C157	C	0.117311	0.609257	0.678908
	C158	C	0.891407	0.607443	0.323060
	C159	C	0.116895	0.364979	0.319816
	C160	C	0.383786	0.668798	0.888035
	C161	C	0.626639	0.669255	0.113919
	C162	C	0.629294	0.310450	0.888900
	C163	C	0.382612	0.311128	0.113769
	C164	C	0.685378	0.876472	0.376934
	C165	C	0.685456	0.100112	0.621109
	C166	C	0.325957	0.876719	0.622587
	C167	C	0.324794	0.100655	0.376574
	C168	C	0.881265	0.377287	0.181184
	C169	C	0.127151	0.599841	0.182516
	C170	C	0.127489	0.378505	0.820058
	C171	C	0.879953	0.600663	0.818186
	C172	C	0.186670	0.864439	0.386839
	C173	C	0.185823	0.110691	0.611600
	C174	C	0.825395	0.109819	0.387370
	C175	C	0.823418	0.864112	0.611971
	C176	C	0.395362	0.171879	0.876984
	C177	C	0.616694	0.172681	0.125128
	C178	C	0.393674	0.807897	0.125320
	C179	C	0.617475	0.806787	0.875867
	C180	C	0.393048	0.867761	0.180981
	C181	C	0.618100	0.112292	0.179633
	C182	C	0.394470	0.112182	0.820814
	C183	C	0.618184	0.865985	0.819084
	C184	C	0.881206	0.168554	0.388071
	C185	C	0.128368	0.168398	0.611497
	C186	C	0.129534	0.806744	0.387308
	C187	C	0.880660	0.805924	0.611816
	C188	C	0.186959	0.379545	0.876309
	C189	C	0.185593	0.600441	0.125080
	C190	C	0.822515	0.378743	0.125419
	C191	C	0.823704	0.601414	0.877625
	C192	C	0.407854	0.080446	0.596691
	C193	C	0.601313	0.896911	0.596388
	C194	C	0.604420	0.081331	0.401202
	C195	C	0.409306	0.897771	0.402101
	C196	C	0.600468	0.394487	0.094004
	C197	C	0.601519	0.585836	0.908622
	C198	C	0.407504	0.587411	0.094632
	C199	C	0.410031	0.394331	0.908499
	C200	C	0.096930	0.583866	0.404719
	C201	C	0.912771	0.584585	0.594986
	C202	C	0.096384	0.389682	0.597390
	C203	C	0.911440	0.389009	0.403404
	C204	C	0.907459	0.581445	0.099449
	C205	C	0.102661	0.397360	0.096409
	C206	C	0.101679	0.582038	0.902672
	C207	C	0.907815	0.398596	0.904799
	C208	C	0.101857	0.891361	0.591888
	C209	C	0.101032	0.084063	0.407023
	C210	C	0.908032	0.084291	0.593164
	C211	C	0.909569	0.890963	0.407374
	C212	C	0.599337	0.087941	0.903772
	C213	C	0.413454	0.088243	0.096242
	C214	C	0.597139	0.891990	0.095136
	C215	C	0.414408	0.892413	0.904508
	Zn216	Zn	0.506772	-0.010255	0.750789
	Zn217	Zn	0.505819	-0.010048	0.248558
	Zn218	Zn	0.754654	0.490306	0.001778
	Zn219	Zn	0.255803	0.490395	0.000427
	Zn220	Zn	0.006015	0.738411	0.499892
	Zn221	Zn	0.004596	0.237036	0.500120
	Zn222	Zn	0.003747	0.489327	0.749820
	Zn223	Zn	0.004169	0.487286	0.250913
	Zn224	Zn	0.505159	0.738414	0.000639
	Zn225	Zn	0.505686	0.241057	0.001276
	Zn226	Zn	0.755493	-0.012168	0.499942
	Zn227	Zn	0.254544	-0.012223	0.498888
	N228	N	0.417758	0.953764	0.681793
	N229	N	0.591648	0.025370	0.678508
	N230	N	0.592542	0.952953	0.319069
	N231	N	0.420538	0.026576	0.320961
	N232	N	0.684270	0.404323	0.965288
	N233	N	0.684087	0.576336	0.037671
	N234	N	0.325985	0.577248	0.964995
	N235	N	0.326313	0.404483	0.037381
	N236	N	0.970182	0.669358	0.411681
	N237	N	0.040643	0.668712	0.587465
	N238	N	0.968245	0.306713	0.588166
	N239	N	0.040303	0.306767	0.412685
	N240	N	0.967515	0.401473	0.680065
	N241	N	0.041440	0.573148	0.677425
	N242	N	0.966942	0.570876	0.324155
	N243	N	0.040451	0.400182	0.320281
	N244	N	0.418359	0.668883	0.964941
	N245	N	0.591173	0.668612	0.037346
	N246	N	0.592949	0.310896	0.965293
	N247	N	0.419138	0.311856	0.037408
	N248	N	0.686065	0.952521	0.411874
	N249	N	0.684414	0.024205	0.585833
	N250	N	0.326136	0.952143	0.585947
	N251	N	0.324769	0.024536	0.411526
	N252	N	0.918243	0.452261	0.179928
	N253	N	0.091248	0.524401	0.180809
	N254	N	0.090357	0.453489	0.821130
	N255	N	0.916346	0.525309	0.819379
	N256	N	0.185334	0.900832	0.462771
	N257	N	0.184596	0.074342	0.535562
	N258	N	0.826618	0.073385	0.463375
	N259	N	0.825082	0.900573	0.535922
	N260	N	0.471536	0.172134	0.912419
	N261	N	0.540640	0.172612	0.089453
	N262	N	0.469391	0.808040	0.088565
	N263	N	0.541485	0.807402	0.912198
	N264	N	0.468493	0.904722	0.177994
	N265	N	0.542738	0.075462	0.177492
	N266	N	0.470106	0.075828	0.822095
	N267	N	0.542944	0.903166	0.821137
	N268	N	0.916866	0.168025	0.464631
	N269	N	0.091868	0.167371	0.535504
	N270	N	0.092907	0.808150	0.463541
	N271	N	0.917514	0.806932	0.535712
	N272	N	0.186575	0.455373	0.911691
	N273	N	0.185281	0.525263	0.087988
	N274	N	0.823344	0.454605	0.089886
	N275	N	0.825672	0.526538	0.915012
	O276	O	0.652829	0.547933	0.638552
	H277	H	0.643027	0.549742	0.639309
	H278	H	0.664504	0.532482	0.635014
	O279	O	0.452096	0.512916	0.540182
	H280	H	0.457083	0.525295	0.542539
	H281	H	0.448858	0.505737	0.536388
	O282	O	0.590632	0.612041	0.511380
	H283	H	0.593598	0.608424	0.506070
	H284	H	0.599908	0.625718	0.515172
	O285	O	0.816687	-0.204352	0.169625
	H286	H	0.810736	-0.205917	0.150931
	H287	H	0.807666	-0.184379	0.163462
	O288	O	-0.192278	-0.034216	0.846451
	H289	H	-0.172091	-0.057226	0.845148
	H290	H	-0.196185	-0.045292	0.838804
	O291	O	0.386879	0.416346	0.693563
	H292	H	0.366861	0.419881	0.696351
	H293	H	0.383964	0.428622	0.686740
	O294	O	0.538695	0.453201	0.544019
	H295	H	0.537571	0.465641	0.536378
	H296	H	0.524451	0.434921	0.557438
	O297	O	1.139586	0.796661	0.803074
	H298	H	1.141364	0.807443	0.808503
	H299	H	1.161262	0.813805	0.817320
	O300	O	-0.193148	0.007880	0.101229
	H301	H	-0.202447	0.006646	0.109979
	H302	H	-0.203611	0.000708	0.098479
	O303	O	0.519727	0.335424	0.472442
	H304	H	0.523078	0.346327	0.481325
	H305	H	0.509308	0.325713	0.484351
	O306	O	1.081643	0.176171	0.127306
	H307	H	1.091694	0.168776	0.109141
	H308	H	1.091732	0.164035	0.137006
	O309	O	0.216575	-0.005144	0.994604
	H310	H	0.209191	-0.009219	1.007023
	H311	H	0.214809	0.004595	0.991258
	O312	O	1.042610	0.803786	-0.061973
	H313	H	1.061070	0.795458	-0.056419
	H314	H	1.059404	0.809556	-0.059793
	O315	O	-0.004296	0.054781	0.002741
	H316	H	-0.012383	0.067987	0.019131
	H317	H	-0.031903	0.060770	-0.009800
	O318	O	0.597463	0.356259	0.463300
	H319	H	0.588727	0.357482	0.462756
	H320	H	0.607144	0.348098	0.454497
	O321	O	1.210707	-0.030313	0.794449
	H322	H	1.214759	-0.015209	0.794321
	H323	H	1.224730	-0.016740	0.796998
	O324	O	0.095001	-0.059708	1.007991
	H325	H	0.085370	-0.077274	1.005832
	H326	H	0.105166	-0.046474	0.991659
	O327	O	0.045447	0.045064	0.195331
	H328	H	0.065120	0.040170	0.200004
	H329	H	0.056249	0.032804	0.192532
	O330	O	0.176197	0.080522	0.185631
	H331	H	0.177645	0.070406	0.183242
	H332	H	0.168912	0.054744	0.182128
	O333	O	0.656046	1.474494	0.581546
	H334	H	0.641802	1.467724	0.583137
	H335	H	0.661495	1.477704	0.592265
	O336	O	0.487411	0.527836	0.505958
	H337	H	0.473104	0.513031	0.495941
	H338	H	0.489195	0.547181	0.498110
	O339	O	0.805709	0.176891	1.000111
	H340	H	0.807569	0.170954	1.014257
	H341	H	0.791468	0.183747	1.005233
	O342	O	0.359135	1.295288	0.550381
	H343	H	0.337012	1.293269	0.552164
	H344	H	0.355361	1.288843	0.563124
	O345	O	0.006123	0.784278	1.207258
	H346	H	-0.013557	0.785971	1.212888
	H347	H	-0.017605	0.775319	1.215282
	O348	O	0.467365	0.449693	0.617745
	H349	H	0.450475	0.441785	0.623592
	H350	H	0.465023	0.455033	0.622110
	O351	O	0.200664	0.183071	0.008557
	H352	H	0.184377	0.165764	-0.004499
	H353	H	0.198138	0.206211	-0.002773
	O354	O	1.051456	1.060903	0.179730
	H355	H	1.061124	1.055944	0.183291
	H356	H	1.049702	1.067021	0.181280
	O357	O	0.392710	1.593149	0.422244
	H358	H	0.384417	1.602286	0.419316
	H359	H	0.389138	1.591843	0.410654
	O360	O	0.494038	0.612246	0.350765
	H361	H	0.498662	0.600892	0.360659
	H362	H	0.504358	0.615515	0.353585
	O363	O	-0.145324	0.915083	0.985586
	H364	H	-0.127473	0.908011	0.979734
	H365	H	-0.142351	0.915589	0.963412
	O366	O	1.340655	1.588969	0.454509
	H367	H	1.321047	1.594190	0.447559
	H368	H	1.352582	1.605103	0.442597
	O369	O	0.407453	0.550067	0.439439
	H370	H	0.408055	0.556665	0.434748
	H371	H	0.417842	0.536988	0.435531
	O372	O	0.516670	0.682194	0.516095
	H373	H	0.531521	0.672432	0.519666
	H374	H	0.520529	0.703354	0.521122
	O375	O	0.374783	0.403524	0.658794
	H376	H	0.404896	0.415591	0.656082
	H377	H	0.355618	0.425092	0.666219
	O378	O	0.947063	0.201719	-0.209711
	H379	H	0.908722	0.199048	-0.207695
	H380	H	0.936474	0.218702	-0.236434
	O381	O	0.506693	0.526810	0.438661
	H382	H	0.503933	0.511003	0.441565
	H383	H	0.500710	0.517044	0.451933
	O384	O	0.210194	0.784299	0.921130
	H385	H	0.191580	0.779005	0.951174
	H386	H	0.234576	0.774249	0.918539
	O387	O	0.850804	0.984822	0.184993
	H388	H	0.837066	0.981548	0.202171
	H389	H	0.854217	0.991366	0.194940
	O390	O	0.420238	0.476339	0.389662
	H391	H	0.419754	0.457305	0.385563
	H392	H	0.440800	0.476387	0.389502
	O393	O	1.561616	0.567900	1.542736
	H394	H	1.563633	0.564312	1.545238
	H395	H	1.565981	0.554627	1.549600
	O396	O	-0.104626	0.900283	0.825578
	H397	H	-0.077237	0.898345	0.820027
	H398	H	-0.094237	0.887587	0.818288
	O399	O	0.470826	0.505545	0.473587
	H400	H	0.466114	0.498948	0.464983
	H401	H	0.474467	0.510965	0.471969
	O402	O	1.005904	-0.181790	0.870030
	H403	H	1.004729	-0.201257	0.868967
	H404	H	1.042689	-0.183341	0.867616
	O405	O	0.182154	0.125897	-0.130636
	H406	H	0.154285	0.132598	-0.114082
	H407	H	0.193759	0.143029	-0.131260
	O408	O	0.565926	1.451778	1.611413
	H409	H	0.572143	1.441769	1.631838
	H410	H	0.574763	1.460334	1.621600
	O411	O	1.014581	1.112135	0.205337
	H412	H	1.029814	1.128580	0.219867
	H413	H	1.038398	1.124505	0.208614
	O414	O	0.032896	0.033723	0.808199
	H415	H	0.032811	0.057452	0.812484
	H416	H	0.049343	0.043727	0.796121
	O417	O	0.535210	0.409145	0.396491
	H418	H	0.546963	0.407144	0.393710
	H419	H	0.533869	0.418247	0.393256
	O420	O	-0.180245	1.169742	-0.150518
	H421	H	-0.191572	1.131454	-0.161319
	H422	H	-0.191612	1.181774	-0.114539
	O423	O	1.045878	0.194525	-0.074474
	H424	H	1.031572	0.194102	-0.069843
	H425	H	1.020863	0.202019	-0.082313
	O426	O	0.089414	-0.181278	1.066926
	H427	H	0.081272	-0.164855	1.072207
	H428	H	0.069816	-0.184303	1.084560
	O429	O	-0.163496	0.830256	0.026831
	H430	H	-0.162001	0.828488	0.016690
	H431	H	-0.161605	0.824647	0.018348
