data_Molecule from HDF5

_cell_length_a		16.083950
_cell_length_b		16.119582
_cell_length_c		16.331761
_cell_angle_alpha	89.554086
_cell_angle_beta	90.639841
_cell_angle_gamma	90.283707
_symmetry_space_group_name_H-M	'P 1'
_symmetry_Int_Tables_number		1

loop_
	_symmetry_equiv_pos_as_xyz
	x,y,z

loop_
	_atom_site_label
	_atom_site_type_symbol
	_atom_site_fract_x
	_atom_site_fract_y
	_atom_site_fract_z
	H0	H	0.396099	0.836258	0.711398
	H1	H	0.601272	0.164161	0.714056
	H2	H	0.593831	0.835325	0.285438
	H3	H	0.393937	0.165172	0.277308
	H4	H	0.707772	0.404683	0.833404
	H5	H	0.715252	0.598177	0.161127
	H6	H	0.281745	0.599095	0.834677
	H7	H	0.284844	0.398452	0.161786
	H8	H	0.830620	0.713615	0.398372
	H9	H	0.163395	0.711757	0.595640
	H10	H	0.831178	0.285622	0.596160
	H11	H	0.162366	0.291253	0.405007
	H12	H	0.831949	0.398908	0.713196
	H13	H	0.160539	0.603912	0.715661
	H14	H	0.832717	0.603517	0.278162
	H15	H	0.161502	0.400275	0.285562
	H16	H	0.396357	0.715376	0.835153
	H17	H	0.598345	0.712366	0.162609
	H18	H	0.593970	0.286587	0.834114
	H19	H	0.400899	0.282297	0.160457
	H20	H	0.706684	0.834577	0.401998
	H21	H	0.713865	0.165465	0.595038
	H22	H	0.285079	0.835497	0.593020
	H23	H	0.283924	0.167381	0.396271
	H24	H	0.896171	0.336388	0.213843
	H25	H	0.100314	0.665818	0.212807
	H26	H	0.095390	0.336940	0.785197
	H27	H	0.893859	0.664767	0.779112
	H28	H	0.207020	0.906645	0.332331
	H29	H	0.215631	0.100734	0.660009
	H30	H	0.781882	0.099192	0.333958
	H31	H	0.782957	0.899275	0.660631
	H32	H	0.331793	0.214082	0.895249
	H33	H	0.663136	0.211817	0.095703
	H34	H	0.331119	0.784525	0.094383
	H35	H	0.663898	0.789850	0.905592
	H36	H	0.331260	0.897110	0.212018
	H37	H	0.660479	0.102338	0.214984
	H38	H	0.333016	0.102085	0.778182
	H39	H	0.662237	0.899091	0.784874
	H40	H	0.894223	0.218445	0.334925
	H41	H	0.098641	0.215627	0.660808
	H42	H	0.092846	0.788094	0.333951
	H43	H	0.900230	0.785578	0.662009
	H44	H	0.204280	0.334081	0.905146
	H45	H	0.213426	0.665559	0.094773
	H46	H	0.786672	0.334156	0.094540
	H47	H	0.783720	0.666555	0.898311
	H48	H	0.399672	0.121782	0.589293
	H49	H	0.598006	0.878719	0.593652
	H50	H	0.585556	0.114533	0.412912
	H51	H	0.396367	0.879996	0.397431
	H52	H	0.585277	0.405803	0.112195
	H53	H	0.592361	0.590264	0.882573
	H54	H	0.410327	0.601362	0.116469
	H55	H	0.393134	0.405511	0.878358
	H56	H	0.113750	0.590805	0.406489
	H57	H	0.876813	0.591909	0.593348
	H58	H	0.113073	0.412485	0.591476
	H59	H	0.880874	0.414873	0.410530
	H60	H	0.116387	0.410431	0.598825
	H61	H	0.876520	0.595813	0.589959
	H62	H	0.117318	0.595323	0.401222
	H63	H	0.876686	0.413902	0.396026
	H64	H	0.395268	0.590573	0.117343
	H65	H	0.583299	0.598651	0.882309
	H66	H	0.594120	0.398617	0.116841
	H67	H	0.403020	0.414253	0.883629
	H68	H	0.597729	0.122055	0.402352
	H69	H	0.581876	0.881838	0.599177
	H70	H	0.412327	0.120298	0.595580
	H71	H	0.410651	0.884783	0.400952
	H72	H	0.908990	0.618166	0.089115
	H73	H	0.085510	0.383170	0.098272
	H74	H	0.084023	0.619198	0.901094
	H75	H	0.907102	0.386430	0.912907
	H76	H	0.089008	0.913306	0.611791
	H77	H	0.090085	0.099574	0.379537
	H78	H	0.902809	0.093958	0.615426
	H79	H	0.897742	0.893784	0.376160
	H80	H	0.619530	0.098567	0.900645
	H81	H	0.380943	0.079137	0.089598
	H82	H	0.616719	0.907407	0.100751
	H83	H	0.378775	0.910709	0.899299
	H84	H	0.616636	0.902062	0.090575
	H85	H	0.374457	0.096413	0.096735
	H86	H	0.613968	0.093486	0.912853
	H87	H	0.376098	0.902983	0.900709
	H88	H	0.906014	0.088939	0.612748
	H89	H	0.090295	0.094769	0.381428
	H90	H	0.088998	0.900302	0.614726
	H91	H	0.891866	0.917213	0.380299
	H92	H	0.087053	0.617309	0.910627
	H93	H	0.089371	0.382894	0.089470
	H94	H	0.906216	0.618979	0.087404
	H95	H	0.892787	0.379655	0.904091
	H96	H	0.410501	0.116822	0.582480
	H97	H	0.585687	0.886366	0.582884
	H98	H	0.581285	0.118543	0.396961
	H99	H	0.398969	0.884957	0.412121
	H100	H	0.597112	0.410362	0.114795
	H101	H	0.594727	0.601348	0.877553
	H102	H	0.411084	0.583955	0.111168
	H103	H	0.406568	0.401696	0.880152
	H104	H	0.115403	0.597455	0.407870
	H105	H	0.878548	0.591017	0.588191
	H106	H	0.116072	0.405530	0.592761
	H107	H	0.875615	0.401560	0.405204
	H108	H	0.906405	0.620378	0.091302
	H109	H	0.094131	0.379899	0.097326
	H110	H	0.094375	0.622284	0.903274
	H111	H	0.908395	0.381095	0.896101
	H112	H	0.099590	0.907119	0.615505
	H113	H	0.085500	0.097841	0.381096
	H114	H	0.909138	0.095012	0.614329
	H115	H	0.915169	0.909200	0.385404
	H116	H	0.613862	0.084913	0.901299
	H117	H	0.379194	0.095296	0.077967
	H118	H	0.612013	0.913981	0.090788
	H119	H	0.379662	0.907755	0.906815
	C120	C	0.377387	0.010040	0.617545
	C121	C	0.619353	0.991351	0.620052
	C122	C	0.616583	0.009374	0.376684
	C123	C	0.373398	0.992618	0.373710
	C124	C	0.618889	0.378089	0.006119
	C125	C	0.620051	0.623428	0.989258
	C126	C	0.375468	0.621551	0.007015
	C127	C	0.374237	0.376970	0.988852
	C128	C	0.005750	0.623200	0.375803
	C129	C	0.987395	0.621956	0.619131
	C130	C	0.005893	0.379373	0.621368
	C131	C	0.987412	0.381382	0.377332
	C132	C	0.877303	0.509751	0.118628
	C133	C	0.120100	0.491509	0.121884
	C134	C	0.116543	0.510007	0.877845
	C135	C	0.874251	0.491786	0.875096
	C136	C	0.119241	0.879612	0.505724
	C137	C	0.119096	0.124569	0.488505
	C138	C	0.875321	0.122466	0.506361
	C139	C	0.874217	0.877462	0.488935
	C140	C	0.506492	0.121687	0.874865
	C141	C	0.487608	0.119959	0.117683
	C142	C	0.505237	0.878215	0.120801
	C143	C	0.488224	0.879102	0.876475
	C144	C	0.377189	0.885611	0.673317
	C145	C	0.620093	0.115154	0.675562
	C146	C	0.613852	0.884676	0.322851
	C147	C	0.374789	0.116186	0.316587
	C148	C	0.671221	0.383320	0.882616
	C149	C	0.677039	0.619221	0.112288
	C150	C	0.319292	0.619725	0.883849
	C151	C	0.321247	0.378010	0.112241
	C152	C	0.880701	0.677098	0.377639
	C153	C	0.112954	0.675950	0.616651
	C154	C	0.881008	0.323232	0.617497
	C155	C	0.112771	0.327474	0.382847
	C156	C	0.881246	0.379696	0.675540
	C157	C	0.111640	0.621875	0.676138
	C158	C	0.881830	0.622383	0.317753
	C159	C	0.112138	0.381956	0.323529
	C160	C	0.376723	0.677307	0.883982
	C161	C	0.618449	0.675743	0.113128
	C162	C	0.614872	0.324364	0.882876
	C163	C	0.379194	0.320463	0.111714
	C164	C	0.670240	0.884309	0.380756
	C165	C	0.676091	0.115778	0.616464
	C166	C	0.322187	0.885231	0.614216
	C167	C	0.320249	0.117442	0.375884
	C168	C	0.877376	0.385354	0.174877
	C169	C	0.119691	0.616142	0.175551
	C170	C	0.114634	0.385821	0.823342
	C171	C	0.875006	0.615867	0.818337
	C172	C	0.171163	0.884703	0.381867
	C173	C	0.176403	0.120998	0.611533
	C174	C	0.819203	0.120473	0.383138
	C175	C	0.820694	0.879564	0.612066
	C176	C	0.381527	0.176639	0.875770
	C177	C	0.613057	0.175066	0.116147
	C178	C	0.380688	0.822176	0.116078
	C179	C	0.613978	0.826051	0.882999
	C180	C	0.380764	0.878364	0.174354
	C181	C	0.611829	0.120377	0.175294
	C182	C	0.382115	0.120851	0.817437
	C183	C	0.613063	0.880298	0.822816
	C184	C	0.875493	0.179160	0.383512
	C185	C	0.118649	0.178582	0.611881
	C186	C	0.114424	0.825698	0.382673
	C187	C	0.878621	0.822584	0.612523
	C188	C	0.169104	0.384611	0.882993
	C189	C	0.175974	0.616123	0.116875
	C190	C	0.822710	0.384407	0.115640
	C191	C	0.820252	0.616729	0.877489
	C192	C	0.400697	0.097196	0.595649
	C193	C	0.595552	0.904641	0.598276
	C194	C	0.594676	0.096004	0.397889
	C195	C	0.395370	0.905665	0.396683
	C196	C	0.598229	0.398757	0.092205
	C197	C	0.596873	0.602961	0.903175
	C198	C	0.398711	0.598532	0.092853
	C199	C	0.394796	0.400350	0.902844
	C200	C	0.092996	0.601016	0.398548
	C201	C	0.899841	0.599647	0.596973
	C202	C	0.092619	0.402647	0.600523
	C203	C	0.900226	0.403595	0.397676
	C204	C	0.900420	0.596610	0.095967
	C205	C	0.096704	0.404558	0.101167
	C206	C	0.094976	0.597137	0.898727
	C207	C	0.896225	0.404923	0.897566
	C208	C	0.098538	0.900721	0.591667
	C209	C	0.095621	0.103696	0.402969
	C210	C	0.898889	0.099364	0.591969
	C211	C	0.895342	0.900112	0.402933
	C212	C	0.593231	0.099218	0.898209
	C213	C	0.400654	0.096978	0.094845
	C214	C	0.592662	0.901273	0.100144
	C215	C	0.400718	0.900744	0.896279
	Zn216	Zn	0.497575	0.000203	0.747386
	Zn217	Zn	0.496000	0.000681	0.247505
	Zn218	Zn	0.748273	0.500502	-0.002697
	Zn219	Zn	0.246095	0.499891	-0.001892
	Zn220	Zn	-0.003248	0.749784	0.498343
	Zn221	Zn	-0.003565	0.252884	0.498205
	Zn222	Zn	-0.003636	0.501249	0.748310
	Zn223	Zn	-0.002828	0.501225	0.248424
	Zn224	Zn	0.497259	0.751271	-0.001478
	Zn225	Zn	0.497250	0.248378	-0.002828
	Zn226	Zn	0.746591	0.000177	0.497032
	Zn227	Zn	0.248554	0.002505	0.496645
	N228	N	0.410592	0.964436	0.675594
	N229	N	0.585394	0.036877	0.677676
	N230	N	0.581075	0.963324	0.320175
	N231	N	0.406857	0.037305	0.314971
	N232	N	0.673905	0.415974	0.960306
	N233	N	0.678094	0.587411	0.034412
	N234	N	0.318386	0.585734	0.961472
	N235	N	0.318015	0.412549	0.034883
	N236	N	0.958857	0.677732	0.413036
	N237	N	0.034499	0.676091	0.581842
	N238	N	0.959404	0.322690	0.584570
	N239	N	0.034218	0.326768	0.415755
	N240	N	0.959804	0.413848	0.678265
	N241	N	0.032473	0.588968	0.677887
	N242	N	0.960748	0.589395	0.316750
	N243	N	0.033256	0.414733	0.320054
	N244	N	0.410678	0.678819	0.961637
	N245	N	0.583964	0.678856	0.035580
	N246	N	0.583125	0.320949	0.960732
	N247	N	0.411000	0.319344	0.033818
	N248	N	0.672150	0.962689	0.413643
	N249	N	0.675756	0.037762	0.582723
	N250	N	0.321923	0.963777	0.580329
	N251	N	0.319170	0.039428	0.410726
	N252	N	0.910490	0.464116	0.176826
	N253	N	0.085776	0.537484	0.178884
	N254	N	0.082796	0.464839	0.819937
	N255	N	0.907804	0.537135	0.816660
	N256	N	0.174320	0.917589	0.459425
	N257	N	0.177159	0.088354	0.533960
	N258	N	0.819035	0.085861	0.460480
	N259	N	0.817839	0.913110	0.534167
	N260	N	0.459822	0.177235	0.910782
	N261	N	0.534786	0.175036	0.080927
	N262	N	0.459245	0.821931	0.083634
	N263	N	0.535402	0.825099	0.915784
	N264	N	0.459467	0.912227	0.177629
	N265	N	0.532893	0.086947	0.176452
	N266	N	0.460585	0.087089	0.816903
	N267	N	0.533973	0.912548	0.818595
	N268	N	0.909850	0.180573	0.461168
	N269	N	0.083505	0.180771	0.534700
	N270	N	0.082990	0.822342	0.460682
	N271	N	0.911226	0.821342	0.535000
	N272	N	0.170533	0.462912	0.916156
	N273	N	0.176654	0.537584	0.084613
	N274	N	0.822307	0.462814	0.081160
	N275	N	0.819588	0.538509	0.912017
	O276	O	-0.026857	-0.080655	0.012073
	H277	H	-0.022374	-0.082403	0.020318
	H278	H	-0.032448	-0.078853	0.026345
	O279	O	0.424399	0.551813	0.509709
	H280	H	0.424680	0.568914	0.498340
	H281	H	0.427939	0.555229	0.507797
	O282	O	0.458561	0.450623	0.588520
	H283	H	0.449063	0.456853	0.585440
	H284	H	0.451050	0.442493	0.593388
	O285	O	-0.013871	1.096797	1.040816
	H286	H	-0.016329	1.112954	1.027442
	H287	H	-0.015359	1.092030	1.038295
	O288	O	0.460396	0.442813	0.473921
	H289	H	0.453817	0.440904	0.478369
	H290	H	0.464508	0.447959	0.467866
	O291	O	1.064622	1.050811	0.900737
	H292	H	1.073954	1.054064	0.893006
	H293	H	1.063889	1.039837	0.905653
	O294	O	0.965722	0.999273	1.051461
	H295	H	0.962349	1.010698	1.046576
	H296	H	0.968456	1.001057	1.053325
	O297	O	0.990544	0.032132	0.993843
	H298	H	0.982006	0.034472	0.997093
	H299	H	0.995443	0.027837	0.996544
	O300	O	0.516294	0.611675	0.491035
	H301	H	0.524025	0.600372	0.489215
	H302	H	0.529053	0.620525	0.485408
	O303	O	1.064735	0.078094	0.036652
	H304	H	1.058836	0.092044	0.033125
	H305	H	1.068965	0.082804	0.022151
	O306	O	-0.092947	0.999794	0.960299
	H307	H	-0.105324	0.991876	0.948704
	H308	H	-0.090939	0.997109	0.965074
	O309	O	0.427457	0.472697	0.556856
	H310	H	0.421952	0.470104	0.556886
	H311	H	0.439709	0.484019	0.553980
	O312	O	1.003675	0.009400	0.866531
	H313	H	1.015270	-0.006520	0.861305
	H314	H	0.993526	0.009973	0.871143
	O315	O	0.522952	0.564048	0.502279
	H316	H	0.520878	0.561113	0.510019
	H317	H	0.525436	0.578297	0.491418
	O318	O	0.446280	0.533554	0.443584
	H319	H	0.451056	0.542522	0.436234
	H320	H	0.458178	0.526472	0.443810
	O321	O	0.961076	1.004053	1.092116
	H322	H	0.951852	1.008337	1.095056
	H323	H	0.973836	1.011408	1.103284
	O324	O	0.576691	0.488687	0.425221
	H325	H	0.562141	0.490573	0.418055
	H326	H	0.584812	0.494204	0.424402
	O327	O	0.569926	0.544976	0.454218
	H328	H	0.568529	0.537638	0.460465
	H329	H	0.575548	0.544638	0.459484
	O330	O	0.978470	-0.040670	0.921357
	H331	H	0.979945	-0.036095	0.914854
	H332	H	0.983561	-0.031092	0.927390
	O333	O	1.097905	0.917544	0.000515
	H334	H	1.102011	0.916025	-0.000125
	H335	H	1.095788	0.914016	-0.001605
	O336	O	0.581760	0.584590	0.586556
	H337	H	0.589494	0.595593	0.592291
	H338	H	0.581910	0.574228	0.596638
	O339	O	0.446580	0.448588	0.473970
	H340	H	0.447026	0.445377	0.467747
	H341	H	0.441481	0.444897	0.477569
	O342	O	-0.019668	1.028549	0.014727
	H343	H	-0.024377	1.029816	0.008430
	H344	H	-0.013456	1.036623	0.012751
	O345	O	0.056910	-0.060049	-0.077801
	H346	H	0.060272	-0.081441	-0.075933
	H347	H	0.066636	-0.062449	-0.066869
	O348	O	0.510038	0.408801	0.387707
	H349	H	0.511474	0.412041	0.387335
	H350	H	0.510447	0.410833	0.388333
	O351	O	0.468054	0.483501	0.501751
	H352	H	0.482032	0.484786	0.493158
	H353	H	0.463715	0.488630	0.498186
	O354	O	0.498812	0.500612	0.468115
	H355	H	0.490328	0.489309	0.463932
	H356	H	0.496714	0.507239	0.475765
	O357	O	0.461513	0.444052	0.579371
	H358	H	0.451732	0.433551	0.595561
	H359	H	0.465804	0.436260	0.577219
	O360	O	-0.081146	0.140351	-0.105493
	H361	H	-0.080550	0.136481	-0.116130
	H362	H	-0.073848	0.140161	-0.112259
	O363	O	0.484523	0.544026	0.519496
	H364	H	0.477364	0.536648	0.511893
	H365	H	0.484743	0.538725	0.523585
	O366	O	0.125688	0.012705	1.069213
	H367	H	0.132780	0.021933	1.071022
	H368	H	0.123833	0.008281	1.078578
	O369	O	0.508149	0.469668	0.475610
	H370	H	0.505389	0.467598	0.479435
	H371	H	0.505575	0.470383	0.478499
