data_Molecule from HDF5

_cell_length_a		16.242722
_cell_length_b		16.085183
_cell_length_c		16.310555
_cell_angle_alpha	89.076734
_cell_angle_beta	90.239840
_cell_angle_gamma	89.942077
_symmetry_space_group_name_H-M	'P 1'
_symmetry_Int_Tables_number		1

loop_
	_symmetry_equiv_pos_as_xyz
	x,y,z

loop_
	_atom_site_label
	_atom_site_type_symbol
	_atom_site_fract_x
	_atom_site_fract_y
	_atom_site_fract_z
	H0	H	0.406854	0.825718	0.707411
	H1	H	0.609363	0.154415	0.704188
	H2	H	0.605677	0.823636	0.282074
	H3	H	0.402158	0.152307	0.270306
	H4	H	0.723666	0.391555	0.830127
	H5	H	0.724333	0.590691	0.154097
	H6	H	0.290160	0.593004	0.828186
	H7	H	0.290710	0.385485	0.154127
	H8	H	0.843846	0.708556	0.390202
	H9	H	0.173071	0.702512	0.587644
	H10	H	0.844002	0.275190	0.591005
	H11	H	0.172015	0.278377	0.396584
	H12	H	0.843606	0.387647	0.708278
	H13	H	0.169956	0.591195	0.709297
	H14	H	0.844595	0.596856	0.271479
	H15	H	0.169655	0.390454	0.276333
	H16	H	0.405683	0.708484	0.828849
	H17	H	0.603344	0.699118	0.156290
	H18	H	0.606071	0.277101	0.828643
	H19	H	0.407670	0.270933	0.154443
	H20	H	0.721312	0.825451	0.394678
	H21	H	0.721342	0.154960	0.588235
	H22	H	0.293608	0.826347	0.592303
	H23	H	0.293129	0.155781	0.388879
	H24	H	0.904250	0.328184	0.211395
	H25	H	0.107038	0.656909	0.202460
	H26	H	0.105888	0.324303	0.781888
	H27	H	0.903470	0.654097	0.771446
	H28	H	0.223710	0.892523	0.329594
	H29	H	0.226922	0.091330	0.653054
	H30	H	0.789516	0.095131	0.328854
	H31	H	0.791536	0.886500	0.654110
	H32	H	0.342819	0.206690	0.889277
	H33	H	0.670347	0.199807	0.088657
	H34	H	0.340532	0.774539	0.089860
	H35	H	0.670306	0.776637	0.896737
	H36	H	0.343583	0.882281	0.212325
	H37	H	0.668716	0.087042	0.206259
	H38	H	0.344716	0.095821	0.769903
	H39	H	0.669587	0.888585	0.777542
	H40	H	0.907285	0.209980	0.328925
	H41	H	0.106656	0.200464	0.656484
	H42	H	0.105659	0.781048	0.326936
	H43	H	0.909528	0.772637	0.653456
	H44	H	0.221318	0.324878	0.894816
	H45	H	0.221109	0.655987	0.086703
	H46	H	0.792648	0.327010	0.094160
	H47	H	0.791413	0.655982	0.887855
	H48	H	0.411516	0.109807	0.578945
	H49	H	0.609016	0.870279	0.579271
	H50	H	0.606083	0.109625	0.399712
	H51	H	0.408084	0.869031	0.399305
	H52	H	0.601406	0.398173	0.107013
	H53	H	0.600112	0.583362	0.875221
	H54	H	0.401173	0.572304	0.108573
	H55	H	0.412922	0.399377	0.874913
	H56	H	0.122374	0.579568	0.398018
	H57	H	0.892917	0.581866	0.578282
	H58	H	0.127955	0.389934	0.590678
	H59	H	0.890239	0.392808	0.405702
	H60	H	0.121691	0.397692	0.580264
	H61	H	0.891853	0.577222	0.583179
	H62	H	0.126430	0.585426	0.391607
	H63	H	0.894359	0.410947	0.405140
	H64	H	0.424402	0.573296	0.102538
	H65	H	0.597345	0.582895	0.876298
	H66	H	0.596281	0.393862	0.107079
	H67	H	0.412817	0.400882	0.875281
	H68	H	0.593242	0.109613	0.387924
	H69	H	0.599042	0.868178	0.597626
	H70	H	0.418107	0.109667	0.585139
	H71	H	0.421251	0.871914	0.398144
	H72	H	0.917014	0.611451	0.087414
	H73	H	0.096304	0.375607	0.079943
	H74	H	0.100712	0.606647	0.902937
	H75	H	0.916592	0.374155	0.903637
	H76	H	0.111689	0.902736	0.608429
	H77	H	0.096436	0.079625	0.378305
	H78	H	0.914654	0.076146	0.607107
	H79	H	0.908710	0.900960	0.373614
	H80	H	0.623953	0.085718	0.899314
	H81	H	0.390288	0.078942	0.079173
	H82	H	0.625654	0.889021	0.094121
	H83	H	0.391812	0.897806	0.908921
	H84	H	0.619899	0.891579	0.080537
	H85	H	0.388875	0.076017	0.082259
	H86	H	0.621267	0.079071	0.900730
	H87	H	0.392098	0.911520	0.895389
	H88	H	0.917173	0.082407	0.607731
	H89	H	0.095230	0.092325	0.375183
	H90	H	0.090515	0.902764	0.603204
	H91	H	0.914286	0.905425	0.375491
	H92	H	0.099992	0.610866	0.893039
	H93	H	0.105290	0.370379	0.087675
	H94	H	0.918468	0.606581	0.075666
	H95	H	0.910620	0.372398	0.903707
	H96	H	0.418620	0.107228	0.576472
	H97	H	0.588507	0.876494	0.581079
	H98	H	0.589966	0.104070	0.402833
	H99	H	0.414843	0.874870	0.410596
	H100	H	0.601600	0.392549	0.109691
	H101	H	0.598384	0.586408	0.874761
	H102	H	0.413748	0.593124	0.112635
	H103	H	0.413986	0.399960	0.875276
	H104	H	0.124695	0.588852	0.400024
	H105	H	0.889958	0.583747	0.583847
	H106	H	0.124248	0.403139	0.593692
	H107	H	0.888056	0.402022	0.390808
	H108	H	0.906832	0.611377	0.079337
	H109	H	0.093450	0.372600	0.092831
	H110	H	0.091702	0.606190	0.897229
	H111	H	0.915282	0.372004	0.898440
	H112	H	0.100574	0.883842	0.611320
	H113	H	0.106311	0.086252	0.372919
	H114	H	0.911484	0.080718	0.608100
	H115	H	0.915492	0.898615	0.374746
	H116	H	0.624919	0.082122	0.893901
	H117	H	0.387921	0.080724	0.082623
	H118	H	0.621101	0.902880	0.090175
	H119	H	0.385441	0.894318	0.892077
	C120	C	0.386298	0.000081	0.611677
	C121	C	0.628406	0.980936	0.613055
	C122	C	0.626646	-0.001530	0.369970
	C123	C	0.384476	0.980641	0.370297
	C124	C	0.628784	0.367770	0.000451
	C125	C	0.627981	0.612171	0.983288
	C126	C	0.384026	0.610873	0.000039
	C127	C	0.384321	0.368020	0.982905
	C128	C	0.016701	0.615094	0.367008
	C129	C	0.999401	0.610675	0.611745
	C130	C	0.016492	0.367284	0.616302
	C131	C	0.998859	0.371769	0.371826
	C132	C	0.884995	0.500940	0.112511
	C133	C	0.127925	0.482293	0.113109
	C134	C	0.126963	0.498583	0.871000
	C135	C	0.884419	0.481721	0.869885
	C136	C	0.129240	0.869504	0.499718
	C137	C	0.129011	0.112828	0.483389
	C138	C	0.884282	0.112430	0.500381
	C139	C	0.884622	0.869476	0.482212
	C140	C	0.515717	0.113065	0.867367
	C141	C	0.496825	0.108214	0.111234
	C142	C	0.514089	0.864959	0.116422
	C143	C	0.497897	0.870423	0.870964
	C144	C	0.387137	0.875420	0.669405
	C145	C	0.628427	0.105125	0.666922
	C146	C	0.625418	0.873675	0.318194
	C147	C	0.383944	0.103781	0.310214
	C148	C	0.684879	0.371206	0.878508
	C149	C	0.684747	0.609603	0.105769
	C150	C	0.328183	0.612012	0.877134
	C151	C	0.328433	0.366325	0.105258
	C152	C	0.893219	0.671310	0.369215
	C153	C	0.123467	0.665608	0.608892
	C154	C	0.892889	0.312133	0.612387
	C155	C	0.122638	0.316234	0.375666
	C156	C	0.892985	0.368404	0.670825
	C157	C	0.121951	0.610169	0.669260
	C158	C	0.893367	0.615698	0.310170
	C159	C	0.121451	0.372110	0.315832
	C160	C	0.385620	0.669296	0.877317
	C161	C	0.624708	0.663969	0.106811
	C162	C	0.626702	0.313866	0.877832
	C163	C	0.386655	0.309175	0.105325
	C164	C	0.683138	0.874628	0.374126
	C165	C	0.684274	0.105316	0.609352
	C166	C	0.330695	0.875664	0.612137
	C167	C	0.329624	0.105472	0.369309
	C168	C	0.885629	0.377159	0.171520
	C169	C	0.126825	0.607084	0.165797
	C170	C	0.125651	0.373897	0.818356
	C171	C	0.884582	0.605073	0.810746
	C172	C	0.185031	0.872847	0.377616
	C173	C	0.187160	0.110386	0.605124
	C174	C	0.827911	0.113940	0.377620
	C175	C	0.829418	0.868020	0.605098
	C176	C	0.392428	0.169583	0.868481
	C177	C	0.620845	0.163094	0.109096
	C178	C	0.390488	0.810311	0.112193
	C179	C	0.621172	0.814268	0.875210
	C180	C	0.391829	0.864549	0.172797
	C181	C	0.620150	0.106924	0.167705
	C182	C	0.393169	0.113960	0.809435
	C183	C	0.620773	0.869867	0.815771
	C184	C	0.886268	0.171378	0.377844
	C185	C	0.127180	0.164799	0.606959
	C186	C	0.126651	0.816809	0.376536
	C187	C	0.887988	0.811111	0.604783
	C188	C	0.182911	0.374066	0.874787
	C189	C	0.183765	0.606568	0.108296
	C190	C	0.829804	0.376582	0.113444
	C191	C	0.828920	0.606168	0.869022
	C192	C	0.409317	0.086387	0.587407
	C193	C	0.605738	0.894170	0.592190
	C194	C	0.603131	0.085364	0.390513
	C195	C	0.408057	0.894359	0.395261
	C196	C	0.606238	0.388822	0.085832
	C197	C	0.605343	0.590636	0.897642
	C198	C	0.406547	0.586645	0.085540
	C199	C	0.406751	0.392922	0.897323
	C200	C	0.102270	0.591388	0.389628
	C201	C	0.913901	0.587696	0.588439
	C202	C	0.102493	0.390145	0.594452
	C203	C	0.912917	0.395071	0.393867
	C204	C	0.907479	0.587441	0.088142
	C205	C	0.105058	0.395412	0.092816
	C206	C	0.104207	0.585402	0.891586
	C207	C	0.907457	0.395133	0.894529
	C208	C	0.107377	0.890357	0.585534
	C209	C	0.105950	0.092206	0.397553
	C210	C	0.907576	0.087190	0.585419
	C211	C	0.906468	0.894369	0.396665
	C212	C	0.601241	0.089044	0.890893
	C213	C	0.411127	0.085134	0.088237
	C214	C	0.600109	0.887885	0.094602
	C215	C	0.411811	0.894095	0.892470
	Zn216	Zn	0.507323	-0.009056	0.739932
	Zn217	Zn	0.505320	-0.011951	0.242513
	Zn218	Zn	0.757172	0.491435	-0.008142
	Zn219	Zn	0.255164	0.489731	-0.008789
	Zn220	Zn	0.008173	0.741085	0.489851
	Zn221	Zn	0.007605	0.240793	0.493003
	Zn222	Zn	0.006808	0.489487	0.742913
	Zn223	Zn	0.006263	0.492513	0.240533
	Zn224	Zn	0.505458	0.739859	-0.008074
	Zn225	Zn	0.506126	0.238393	-0.008936
	Zn226	Zn	0.754649	-0.009396	0.491036
	Zn227	Zn	0.258282	-0.008705	0.491309
	N228	N	0.420943	0.953772	0.669562
	N229	N	0.594337	0.026808	0.669387
	N230	N	0.591058	0.952007	0.315318
	N231	N	0.417339	0.025124	0.310627
	N232	N	0.686326	0.403898	0.955760
	N233	N	0.687019	0.578255	0.027882
	N234	N	0.327195	0.576205	0.954361
	N235	N	0.326840	0.402191	0.028100
	N236	N	0.970737	0.671144	0.403697
	N237	N	0.046054	0.666206	0.573822
	N238	N	0.970739	0.311070	0.579253
	N239	N	0.045239	0.315865	0.409891
	N240	N	0.970886	0.401628	0.673403
	N241	N	0.043895	0.577025	0.671347
	N242	N	0.970903	0.581330	0.308663
	N243	N	0.043617	0.405932	0.313464
	N244	N	0.419592	0.668758	0.954744
	N245	N	0.590015	0.665803	0.029645
	N246	N	0.592278	0.311613	0.954736
	N247	N	0.420503	0.310029	0.028085
	N248	N	0.683884	0.953341	0.405720
	N249	N	0.684561	0.027007	0.576651
	N250	N	0.329739	0.954162	0.577222
	N251	N	0.329569	0.027730	0.405809
	N252	N	0.919289	0.455556	0.171014
	N253	N	0.092779	0.528706	0.169047
	N254	N	0.091248	0.452143	0.816171
	N255	N	0.918292	0.526523	0.811120
	N256	N	0.187041	0.904991	0.455308
	N257	N	0.188362	0.078835	0.527322
	N258	N	0.826505	0.078287	0.454797
	N259	N	0.827135	0.903518	0.527645
	N260	N	0.469680	0.169407	0.903532
	N261	N	0.543255	0.163943	0.074728
	N262	N	0.467649	0.810379	0.077884
	N263	N	0.543530	0.814312	0.908751
	N264	N	0.469834	0.897616	0.175610
	N265	N	0.542179	0.073353	0.169237
	N266	N	0.470812	0.079389	0.808578
	N267	N	0.543107	0.904372	0.813224
	N268	N	0.920760	0.170647	0.455105
	N269	N	0.091675	0.166680	0.530140
	N270	N	0.092553	0.814806	0.453496
	N271	N	0.921493	0.811804	0.527506
	N272	N	0.184161	0.452761	0.906520
	N273	N	0.184553	0.527923	0.076418
	N274	N	0.829315	0.454399	0.077378
	N275	N	0.828377	0.528228	0.905121
	O276	O	0.931613	0.009206	1.079737
	H277	H	0.929008	0.018274	1.077026
	H278	H	0.935772	0.021528	1.080499
	O279	O	0.503267	0.474988	0.373478
	H280	H	0.503722	0.477863	0.381091
	H281	H	0.501969	0.454038	0.376072
	O282	O	0.414536	0.475258	0.500190
	H283	H	0.413255	0.480229	0.506236
	H284	H	0.397836	0.479114	0.497211
	O285	O	0.523055	0.441919	0.518323
	H286	H	0.522442	0.429111	0.522255
	H287	H	0.517466	0.442282	0.529779
	O288	O	0.606757	0.602723	0.438214
	H289	H	0.606971	0.595889	0.434551
	H290	H	0.600578	0.603062	0.431248
	O291	O	0.007344	0.017817	0.941763
	H292	H	0.016321	0.015032	0.944916
	H293	H	0.010013	0.022317	0.942059
	O294	O	0.874953	1.090531	-0.141414
	H295	H	0.879132	1.081812	-0.146896
	H296	H	0.864035	1.105824	-0.151427
	O297	O	1.044646	0.889174	0.046538
	H298	H	1.038547	0.885065	0.050827
	H299	H	1.044961	0.897026	0.043114
	O300	O	0.387042	0.607622	0.507552
	H301	H	0.383907	0.608731	0.502445
	H302	H	0.393805	0.597974	0.502853
	O303	O	-0.077567	1.013328	0.901150
	H304	H	-0.090069	1.008292	0.908361
	H305	H	-0.091540	1.035552	0.878784
	O306	O	0.539700	0.323736	0.479570
	H307	H	0.549368	0.332968	0.486612
	H308	H	0.544125	0.312328	0.482235
	O309	O	0.550071	0.368181	0.427411
	H310	H	0.527172	0.372386	0.439155
	H311	H	0.545963	0.370995	0.434967
	O312	O	1.358219	1.506387	1.424736
	H313	H	1.350506	1.521285	1.419286
	H314	H	1.365363	1.493477	1.424649
	O315	O	1.567615	1.431359	-0.574170
	H316	H	1.562429	1.429472	-0.584791
	H317	H	1.563346	1.421059	-0.579621
	O318	O	0.004873	0.954357	0.934105
	H319	H	0.000065	0.939997	0.940946
	H320	H	0.001590	0.945805	0.935172
	O321	O	0.645937	0.524459	0.609211
	H322	H	0.647455	0.536399	0.607058
	H323	H	0.641609	0.538897	0.598235
	O324	O	-0.044442	0.937423	0.847481
	H325	H	-0.025619	0.930328	0.837476
	H326	H	-0.030571	0.939434	0.852798
	O327	O	0.081366	0.987718	1.154155
	H328	H	0.084030	0.995349	1.146960
	H329	H	0.082279	0.996694	1.155136
	O330	O	-0.544097	0.424020	0.582772
	H331	H	-0.552486	0.425621	0.590249
	H332	H	-0.550656	0.419411	0.578355
	O333	O	0.515155	0.548677	0.634801
	H334	H	0.540048	0.545136	0.634036
	H335	H	0.515636	0.550951	0.629153
	O336	O	-0.978501	-1.105326	0.973729
	H337	H	-0.972124	-1.098599	0.968968
	H338	H	-0.981401	-1.099902	0.988212
	O339	O	0.067806	-0.034434	-0.176825
	H340	H	0.072051	-0.026721	-0.184669
	H341	H	0.071829	-0.044912	-0.170837
	O342	O	0.649083	0.441653	0.448093
	H343	H	0.653949	0.443246	0.445762
	H344	H	0.651468	0.434665	0.442723
	O345	O	0.307173	0.742189	1.147292
	H346	H	0.304229	0.746282	1.143248
	H347	H	0.307445	0.741336	1.125495
	O348	O	0.478156	0.571955	0.315939
	H349	H	0.474799	0.574064	0.304615
	H350	H	0.473416	0.578788	0.304479
	O351	O	0.423700	0.520891	-0.477483
	H352	H	0.414511	0.520348	-0.483504
	H353	H	0.433700	0.522784	-0.465673
	O354	O	0.080202	0.995868	-0.038609
	H355	H	0.086451	0.992228	-0.034045
	H356	H	0.089173	0.998208	-0.027275
	O357	O	0.437337	0.449393	0.540135
	H358	H	0.436208	0.450980	0.554347
	H359	H	0.446234	0.449998	0.544112
	O360	O	0.970769	0.032813	1.028514
	H361	H	0.974995	0.023470	1.027296
	H362	H	0.969593	0.034549	1.032245
	O363	O	0.445503	0.487724	0.437768
	H364	H	0.451031	0.493462	0.443689
	H365	H	0.444079	0.487803	0.440357
	O366	O	0.591075	0.561261	0.548128
	H367	H	0.591180	0.569338	0.546918
	H368	H	0.586297	0.561842	0.533500
	O369	O	0.876699	-0.051766	0.044547
	H370	H	0.876399	-0.056498	0.048706
	H371	H	0.871109	-0.065491	0.049350
	O372	O	0.682812	0.546221	0.644013
	H373	H	0.694725	0.558087	0.654855
	H374	H	0.685533	0.566555	0.633896
	O375	O	1.136053	0.001495	1.102736
	H376	H	1.138632	0.013063	1.100865
	H377	H	1.136997	0.006802	1.090592
	O378	O	0.103248	1.090274	0.056928
	H379	H	0.099410	1.086471	0.056206
	H380	H	0.100019	1.078973	0.045359
	O381	O	-0.067577	0.906077	1.077526
	H382	H	-0.060554	0.897829	1.086688
	H383	H	-0.077629	0.902208	1.068994
	O384	O	1.099169	1.094917	-0.063762
	H385	H	1.093211	1.097482	-0.063055
	H386	H	1.098902	1.094850	-0.066845
	O387	O	0.975203	0.061863	0.985438
	H388	H	0.982792	0.069171	0.975210
	H389	H	0.965231	0.072419	0.974908
	O390	O	0.943612	1.018891	-0.011424
	H391	H	0.951293	1.025741	-0.013668
	H392	H	0.931554	1.011439	-0.009309
	O393	O	0.051543	0.895683	0.071966
	H394	H	0.034441	0.894930	0.076083
	H395	H	0.050395	0.898998	0.081716
