data_Molecule from HDF5

_cell_length_a		16.251741
_cell_length_b		16.349156
_cell_length_c		16.395027
_cell_angle_alpha	90.127980
_cell_angle_beta	89.892474
_cell_angle_gamma	89.841394
_symmetry_space_group_name_H-M	'P 1'
_symmetry_Int_Tables_number		1

loop_
	_symmetry_equiv_pos_as_xyz
	x,y,z

loop_
	_atom_site_label
	_atom_site_type_symbol
	_atom_site_fract_x
	_atom_site_fract_y
	_atom_site_fract_z
	H0	H	0.390529	0.831050	0.712187
	H1	H	0.599748	0.150736	0.712953
	H2	H	0.601521	0.831215	0.269910
	H3	H	0.393974	0.152855	0.274940
	H4	H	0.717415	0.387705	0.831078
	H5	H	0.715541	0.593244	0.152593
	H6	H	0.280290	0.590563	0.831149
	H7	H	0.277284	0.385879	0.151472
	H8	H	0.837790	0.712886	0.386544
	H9	H	0.158034	0.707962	0.595881
	H10	H	0.834295	0.273882	0.598053
	H11	H	0.157588	0.271646	0.391927
	H12	H	0.835794	0.387944	0.712365
	H13	H	0.158466	0.592317	0.710134
	H14	H	0.837597	0.597626	0.271707
	H15	H	0.157989	0.385757	0.274371
	H16	H	0.391024	0.711207	0.833143
	H17	H	0.602231	0.710900	0.151471
	H18	H	0.603087	0.270131	0.831654
	H19	H	0.394175	0.270092	0.151219
	H20	H	0.719274	0.831437	0.384488
	H21	H	0.713254	0.152179	0.594327
	H22	H	0.279454	0.829475	0.593174
	H23	H	0.279976	0.153656	0.394192
	H24	H	0.892910	0.330777	0.213445
	H25	H	0.105068	0.648273	0.213992
	H26	H	0.101625	0.329596	0.771383
	H27	H	0.892980	0.649939	0.773956
	H28	H	0.213778	0.890126	0.332817
	H29	H	0.215180	0.094492	0.654609
	H30	H	0.775164	0.097603	0.333627
	H31	H	0.773843	0.885909	0.651089
	H32	H	0.337283	0.210485	0.887973
	H33	H	0.658863	0.207593	0.093925
	H34	H	0.337024	0.772366	0.094067
	H35	H	0.657048	0.768566	0.884512
	H36	H	0.335839	0.889252	0.208627
	H37	H	0.655788	0.099068	0.214940
	H38	H	0.335238	0.094954	0.774836
	H39	H	0.655940	0.883639	0.768764
	H40	H	0.890217	0.213736	0.335141
	H41	H	0.098202	0.209652	0.655014
	H42	H	0.102693	0.769771	0.335240
	H43	H	0.888841	0.768964	0.651362
	H44	H	0.216494	0.328658	0.887947
	H45	H	0.214381	0.650177	0.092290
	H46	H	0.780549	0.328678	0.093372
	H47	H	0.777174	0.649974	0.888792
	H48	H	0.410277	0.107642	0.594704
	H49	H	0.584173	0.878612	0.576933
	H50	H	0.581406	0.104268	0.399870
	H51	H	0.407177	0.875631	0.396196
	H52	H	0.590957	0.393222	0.108383
	H53	H	0.595403	0.580360	0.875173
	H54	H	0.407356	0.583371	0.107132
	H55	H	0.415952	0.395934	0.878742
	H56	H	0.112902	0.582078	0.404796
	H57	H	0.878831	0.581149	0.590638
	H58	H	0.107786	0.407924	0.576913
	H59	H	0.883311	0.406841	0.403777
	H60	H	0.114207	0.400978	0.592323
	H61	H	0.879987	0.586489	0.579328
	H62	H	0.111389	0.577195	0.404885
	H63	H	0.880282	0.401698	0.400965
	H64	H	0.404909	0.580214	0.106484
	H65	H	0.583948	0.571962	0.882394
	H66	H	0.591787	0.403210	0.105540
	H67	H	0.402378	0.394533	0.873829
	H68	H	0.583373	0.102746	0.406757
	H69	H	0.585754	0.876091	0.581429
	H70	H	0.411029	0.102102	0.576226
	H71	H	0.407383	0.877236	0.402527
	H72	H	0.900966	0.603727	0.073796
	H73	H	0.083277	0.374481	0.087309
	H74	H	0.091620	0.604683	0.905875
	H75	H	0.912089	0.379090	0.906604
	H76	H	0.086864	0.895894	0.609573
	H77	H	0.087117	0.078740	0.381044
	H78	H	0.907376	0.085482	0.608198
	H79	H	0.906940	0.911352	0.382326
	H80	H	0.612358	0.077631	0.900995
	H81	H	0.379588	0.084500	0.086155
	H82	H	0.613495	0.904908	0.087095
	H83	H	0.382961	0.899987	0.905819
	H84	H	0.615310	0.895241	0.079885
	H85	H	0.382952	0.083057	0.076866
	H86	H	0.612625	0.077885	0.902406
	H87	H	0.382056	0.904109	0.900553
	H88	H	0.901196	0.080957	0.608007
	H89	H	0.083589	0.085198	0.380532
	H90	H	0.090201	0.902487	0.609156
	H91	H	0.919034	0.900106	0.382184
	H92	H	0.090585	0.606949	0.895211
	H93	H	0.083831	0.376907	0.078466
	H94	H	0.902866	0.608589	0.092380
	H95	H	0.904160	0.374169	0.902918
	H96	H	0.394484	0.109200	0.583496
	H97	H	0.580635	0.877580	0.581309
	H98	H	0.588384	0.106255	0.402099
	H99	H	0.401458	0.875540	0.400556
	H100	H	0.582082	0.397982	0.104680
	H101	H	0.580303	0.586722	0.877189
	H102	H	0.409415	0.579921	0.105061
	H103	H	0.407265	0.407323	0.879915
	H104	H	0.112359	0.579358	0.400727
	H105	H	0.884135	0.574514	0.581311
	H106	H	0.113437	0.390891	0.578441
	H107	H	0.882291	0.401291	0.407192
	H108	H	0.918422	0.601593	0.083078
	H109	H	0.091465	0.373090	0.082796
	H110	H	0.081949	0.602012	0.900321
	H111	H	0.912137	0.374795	0.898016
	H112	H	0.083045	0.901630	0.607169
	H113	H	0.090189	0.084351	0.378201
	H114	H	0.908424	0.078991	0.605603
	H115	H	0.903992	0.896308	0.375715
	H116	H	0.611640	0.076944	0.901364
	H117	H	0.383494	0.075599	0.083436
	H118	H	0.610237	0.905380	0.075509
	H119	H	0.380018	0.897900	0.900100
	C120	C	0.374541	-0.000378	0.614303
	C121	C	0.616029	0.982642	0.612672
	C122	C	0.617664	-0.000725	0.369636
	C123	C	0.374539	0.983073	0.370672
	C124	C	0.619994	0.367712	0.000324
	C125	C	0.618323	0.611160	0.983866
	C126	C	0.375436	0.612040	0.000489
	C127	C	0.376668	0.367987	0.983331
	C128	C	0.006192	0.612302	0.371374
	C129	C	0.987908	0.611512	0.614098
	C130	C	0.005076	0.369433	0.614510
	C131	C	0.988058	0.370279	0.373017
	C132	C	0.875829	0.498957	0.114623
	C133	C	0.118210	0.480524	0.113233
	C134	C	0.119363	0.498214	0.869492
	C135	C	0.876916	0.481647	0.871464
	C136	C	0.118227	0.869420	0.502704
	C137	C	0.117277	0.113371	0.486048
	C138	C	0.873812	0.113731	0.501896
	C139	C	0.875468	0.869521	0.484355
	C140	C	0.505918	0.110214	0.870819
	C141	C	0.488218	0.112495	0.113441
	C142	C	0.506244	0.870564	0.112162
	C143	C	0.487503	0.868041	0.869431
	C144	C	0.372808	0.878835	0.672297
	C145	C	0.618094	0.102815	0.672986
	C146	C	0.620348	0.879150	0.309457
	C147	C	0.374628	0.104593	0.313970
	C148	C	0.678510	0.368202	0.879367
	C149	C	0.676721	0.612204	0.104376
	C150	C	0.318087	0.610843	0.879797
	C151	C	0.317212	0.366924	0.103689
	C152	C	0.885663	0.672715	0.369142
	C153	C	0.109803	0.668859	0.614317
	C154	C	0.883162	0.312368	0.616359
	C155	C	0.109268	0.310656	0.372323
	C156	C	0.883779	0.369279	0.673387
	C157	C	0.109797	0.611448	0.671369
	C158	C	0.885761	0.615269	0.311569
	C159	C	0.109648	0.367568	0.314105
	C160	C	0.373670	0.670896	0.880741
	C161	C	0.620274	0.670996	0.103831
	C162	C	0.621726	0.309416	0.879572
	C163	C	0.375366	0.309277	0.103449
	C164	C	0.678874	0.879337	0.366663
	C165	C	0.674724	0.103430	0.613912
	C166	C	0.317479	0.878011	0.612968
	C167	C	0.317923	0.105008	0.373252
	C168	C	0.874639	0.378438	0.173485
	C169	C	0.121671	0.600841	0.173097
	C170	C	0.120549	0.377597	0.810708
	C171	C	0.874765	0.602108	0.813206
	C172	C	0.175846	0.869980	0.381483
	C173	C	0.175670	0.113601	0.606662
	C174	C	0.814676	0.115640	0.381922
	C175	C	0.813853	0.867146	0.603470
	C176	C	0.385141	0.170477	0.869666
	C177	C	0.609854	0.170143	0.114029
	C178	C	0.385178	0.811874	0.113097
	C179	C	0.608548	0.808147	0.866659
	C180	C	0.384708	0.869833	0.170234
	C181	C	0.608369	0.115798	0.174020
	C182	C	0.384072	0.112838	0.813360
	C183	C	0.608118	0.865411	0.808867
	C184	C	0.871724	0.173934	0.382541
	C185	C	0.117758	0.171258	0.606721
	C186	C	0.120385	0.810285	0.382564
	C187	C	0.871041	0.808753	0.603361
	C188	C	0.177746	0.376998	0.868873
	C189	C	0.176368	0.601635	0.112671
	C190	C	0.818526	0.377423	0.114025
	C191	C	0.816998	0.602007	0.870457
	C192	C	0.398523	0.084364	0.591362
	C193	C	0.590747	0.899202	0.587270
	C194	C	0.591866	0.082776	0.395324
	C195	C	0.398451	0.898094	0.393071
	C196	C	0.595306	0.391418	0.084441
	C197	C	0.593827	0.586703	0.900098
	C198	C	0.400053	0.587982	0.084551
	C199	C	0.401239	0.392289	0.899429
	C200	C	0.090363	0.586928	0.396239
	C201	C	0.903094	0.587744	0.590443
	C202	C	0.089818	0.392976	0.589702
	C203	C	0.903997	0.395913	0.397087
	C204	C	0.900399	0.582944	0.090165
	C205	C	0.093453	0.396566	0.089583
	C206	C	0.095124	0.582445	0.893457
	C207	C	0.902197	0.397945	0.895805
	C208	C	0.093717	0.893162	0.586553
	C209	C	0.093683	0.089745	0.402014
	C210	C	0.898558	0.088927	0.585416
	C211	C	0.902285	0.894994	0.401499
	C212	C	0.590260	0.084761	0.894712
	C213	C	0.403896	0.088109	0.089114
	C214	C	0.590954	0.894856	0.087599
	C215	C	0.403557	0.893359	0.894697
	Zn216	Zn	0.495426	-0.009694	0.742611
	Zn217	Zn	0.496258	-0.008357	0.240791
	Zn218	Zn	0.747580	0.489826	-0.007515
	Zn219	Zn	0.247007	0.489016	-0.008270
	Zn220	Zn	-0.002663	0.740005	0.493774
	Zn221	Zn	-0.004729	0.242242	0.494478
	Zn222	Zn	-0.003191	0.490020	0.741685
	Zn223	Zn	-0.002335	0.490575	0.243081
	Zn224	Zn	0.497784	0.741093	-0.008176
	Zn225	Zn	0.498288	0.238821	-0.009080
	Zn226	Zn	0.746200	-0.009097	0.492387
	Zn227	Zn	0.246441	-0.008451	0.493835
	N228	N	0.407504	0.955508	0.673401
	N229	N	0.582487	0.026542	0.672469
	N230	N	0.583237	0.954729	0.311211
	N231	N	0.408880	0.027560	0.312038
	N232	N	0.677427	0.403635	0.955446
	N233	N	0.675533	0.575663	0.028869
	N234	N	0.318972	0.575046	0.955517
	N235	N	0.317977	0.402621	0.027992
	N236	N	0.961622	0.670932	0.405833
	N237	N	0.032812	0.669249	0.579611
	N238	N	0.959683	0.312300	0.580660
	N239	N	0.032696	0.312037	0.407972
	N240	N	0.960662	0.403936	0.672400
	N241	N	0.033175	0.576361	0.671280
	N242	N	0.961845	0.578504	0.312669
	N243	N	0.033259	0.403804	0.314121
	N244	N	0.408585	0.671788	0.957067
	N245	N	0.584640	0.670547	0.027801
	N246	N	0.586098	0.308807	0.955768
	N247	N	0.411549	0.309811	0.027540
	N248	N	0.677297	0.955037	0.403466
	N249	N	0.673663	0.027728	0.577309
	N250	N	0.318548	0.954170	0.577643
	N251	N	0.317525	0.028213	0.407304
	N252	N	0.909068	0.455241	0.174237
	N253	N	0.086203	0.524721	0.173726
	N254	N	0.085088	0.453973	0.810791
	N255	N	0.911385	0.526322	0.813700
	N256	N	0.174559	0.906289	0.457122
	N257	N	0.175917	0.078433	0.530560
	N258	N	0.815841	0.078805	0.457199
	N259	N	0.816420	0.904025	0.528387
	N260	N	0.461831	0.168998	0.904859
	N261	N	0.534096	0.168193	0.076895
	N262	N	0.461945	0.812399	0.077825
	N263	N	0.532537	0.809627	0.903444
	N264	N	0.461185	0.905572	0.169780
	N265	N	0.531720	0.080635	0.173830
	N266	N	0.460045	0.075871	0.814114
	N267	N	0.531776	0.901767	0.810363
	N268	N	0.907705	0.172816	0.458195
	N269	N	0.082105	0.171071	0.530721
	N270	N	0.085112	0.809912	0.458723
	N271	N	0.908522	0.809947	0.528022
	N272	N	0.177042	0.452820	0.904909
	N273	N	0.174678	0.525716	0.076402
	N274	N	0.818831	0.453370	0.078475
	N275	N	0.818370	0.526180	0.906205
	O276	O	0.403113	0.428786	0.598797
	H277	H	0.398237	0.433094	0.600643
	H278	H	0.387669	0.420913	0.595661
	O279	O	0.668355	0.634929	0.667655
	H280	H	0.667000	0.589211	0.670741
	H281	H	0.675239	0.643352	0.623255
	O282	O	0.477511	0.427373	0.329487
	H283	H	0.465263	0.434282	0.342602
	H284	H	0.475099	0.445181	0.334717
	O285	O	0.858706	-0.045418	-0.175359
	H286	H	0.862659	-0.031041	-0.176704
	H287	H	0.855847	-0.034933	-0.184897
	O288	O	-0.038682	-0.040732	1.141085
	H289	H	-0.038515	-0.049989	1.138304
	H290	H	-0.055302	-0.052549	1.144995
	O291	O	0.702176	0.662726	0.503016
	H292	H	0.703844	0.646241	0.489005
	H293	H	0.718180	0.682986	0.487482
	O294	O	0.340493	0.499454	0.520639
	H295	H	0.328042	0.503395	0.513233
	H296	H	0.325159	0.503775	0.544297
	O297	O	1.086845	0.789035	0.971614
	H298	H	1.077806	0.798644	0.929668
	H299	H	1.095962	0.772751	0.962306
	O300	O	0.051811	-0.114977	-0.041702
	H301	H	0.041883	-0.102263	-0.049601
	H302	H	0.067261	-0.125419	-0.028935
	O303	O	0.481572	0.642157	0.652727
	H304	H	0.517034	0.628542	0.652187
	H305	H	0.489512	0.662798	0.674498
	O306	O	1.202132	-0.000893	-0.058367
	H307	H	1.212622	-0.007390	-0.060544
	H308	H	1.206494	-0.004162	-0.053283
	O309	O	0.351693	0.506276	0.471171
	H310	H	0.349665	0.516703	0.469689
	H311	H	0.365284	0.512321	0.483884
	O312	O	0.967788	1.005385	-0.133276
	H313	H	0.976561	0.986583	-0.133107
	H314	H	0.954904	1.000138	-0.144377
	O315	O	0.408233	0.503574	0.330803
	H316	H	0.392391	0.521198	0.328143
	H317	H	0.409865	0.518244	0.331735
	O318	O	0.621614	0.355141	0.515888
	H319	H	0.620741	0.351895	0.507612
	H320	H	0.627391	0.350419	0.506447
	O321	O	0.998482	0.156206	0.807275
	H322	H	0.999626	0.145502	0.798868
	H323	H	1.002317	0.170694	0.814714
	O324	O	-0.000377	-0.145829	0.915935
	H325	H	0.005377	-0.156882	0.928580
	H326	H	-0.002547	-0.143972	0.930565
	O327	O	0.308958	0.464241	0.492865
	H328	H	0.324483	0.476209	0.483525
	H329	H	0.302925	0.461903	0.494295
	O330	O	0.671774	0.475929	0.634612
	H331	H	0.664578	0.459641	0.631702
	H332	H	0.655255	0.466006	0.641901
	O333	O	1.186904	1.074504	1.177182
	H334	H	1.202118	1.074361	1.182962
	H335	H	1.190805	1.090622	1.173773
	O336	O	0.469556	0.420771	0.558273
	H337	H	0.457639	0.417774	0.557433
	H338	H	0.454492	0.414057	0.559603
	O339	O	1.105110	0.172881	1.188499
	H340	H	1.104523	0.179429	1.183703
	H341	H	1.102979	0.185957	1.184825
	O342	O	-0.168207	0.809179	0.983395
	H343	H	-0.162225	0.816540	0.983607
	H344	H	-0.185945	0.805012	0.967211
	O345	O	-0.042833	1.155096	1.131240
	H346	H	-0.057587	1.132322	1.132512
	H347	H	-0.035072	1.162609	1.142363
	O348	O	0.423682	0.646202	0.412835
	H349	H	0.437154	0.632868	0.405028
	H350	H	0.443330	0.645726	0.427708
	O351	O	-0.023036	0.103181	0.098552
	H352	H	-0.022665	0.104738	0.104037
	H353	H	-0.022767	0.092143	0.104103
	O354	O	1.104014	0.951268	0.155906
	H355	H	1.113010	0.952349	0.160186
	H356	H	1.106523	0.945818	0.154147
	O357	O	0.655365	1.316098	0.456700
	H358	H	0.660080	1.304256	0.459167
	H359	H	0.642360	1.314350	0.435978
	O360	O	0.433227	0.368926	0.622710
	H361	H	0.442813	0.355258	0.620401
	H362	H	0.433892	0.371228	0.620146
	O363	O	0.566996	0.408032	0.445700
	H364	H	0.573955	0.418425	0.433101
	H365	H	0.554262	0.400008	0.439185
	O366	O	1.118640	1.102335	0.970293
	H367	H	1.127843	1.117707	0.968566
	H368	H	1.112800	1.091498	0.960142
	O369	O	0.488452	0.405493	0.635267
	H370	H	0.483957	0.404248	0.636621
	H371	H	0.480885	0.408523	0.633094
	O372	O	0.367062	0.659134	0.361262
	H373	H	0.396453	0.662113	0.359689
	H374	H	0.368641	0.659777	0.375859
	O375	O	0.403352	0.556559	0.517965
	H376	H	0.404550	0.560275	0.517901
	H377	H	0.408114	0.541799	0.514636
	O378	O	0.461453	0.560530	0.440576
	H379	H	0.461119	0.575011	0.441661
	H380	H	0.468838	0.556164	0.457787
	O381	O	0.706624	0.427523	0.322295
	H382	H	0.738051	0.421053	0.297728
	H383	H	0.701394	0.404995	0.319990
	O384	O	-0.215611	0.969635	1.204767
	H385	H	-0.226925	0.960249	1.219527
	H386	H	-0.221153	0.952461	1.213528
	O387	O	0.864156	0.840442	0.181205
	H388	H	0.866775	0.830249	0.147066
	H389	H	0.899180	0.823315	0.186160
	O390	O	0.522406	0.632074	0.434648
	H391	H	0.531577	0.625333	0.434042
	H392	H	0.517840	0.639934	0.441661
	O393	O	0.890304	0.181761	0.974345
	H394	H	0.879528	0.171864	0.987896
	H395	H	0.897024	0.179928	0.991412
	O396	O	0.065856	0.933669	0.867737
	H397	H	0.051637	0.922944	0.858116
	H398	H	0.065987	0.929595	0.874422
	O399	O	0.616826	0.591410	0.389157
	H400	H	0.618756	0.576439	0.372876
	H401	H	0.606797	0.574393	0.390616
	O402	O	1.052050	0.132622	0.906748
	H403	H	1.020999	0.137392	0.903171
	H404	H	1.055697	0.118312	0.910206
	O405	O	0.167783	-0.155468	-0.195036
	H406	H	0.165720	-0.135590	-0.196245
	H407	H	0.150084	-0.166811	-0.202490
	O408	O	0.658491	1.233128	1.231412
	H409	H	0.653571	1.225055	1.234030
	H410	H	0.666700	1.233863	1.224427
	O411	O	0.845877	1.173442	-0.189010
	H412	H	0.858238	1.172227	-0.198133
	H413	H	0.843187	1.178087	-0.155517
	O414	O	-0.057470	-0.060390	0.912835
	H415	H	-0.062854	-0.059589	0.924186
	H416	H	-0.061489	-0.068504	0.901691
	O417	O	0.554516	0.434788	0.425245
	H418	H	0.538690	0.453448	0.430479
	H419	H	0.564018	0.420545	0.403553
	O420	O	0.120700	0.898834	-0.071569
	H421	H	0.120944	0.896749	-0.085972
	H422	H	0.117460	0.929519	-0.067569
	O423	O	1.055646	-0.136869	0.091654
	H424	H	1.061684	-0.146827	0.093248
	H425	H	1.067806	-0.147047	0.089832
	O426	O	-0.168332	-0.011312	1.027469
	H427	H	-0.165335	-0.012817	1.017402
	H428	H	-0.158685	-0.017631	1.028410
	O429	O	0.041924	0.837242	0.094758
	H430	H	0.067454	0.839736	0.108130
	H431	H	0.045664	0.849041	0.089204
