data_Molecule from HDF5

_cell_length_a		16.304177
_cell_length_b		16.153993
_cell_length_c		16.277346
_cell_angle_alpha	89.287934
_cell_angle_beta	89.613496
_cell_angle_gamma	90.181108
_symmetry_space_group_name_H-M	'P 1'
_symmetry_Int_Tables_number		1

loop_
	_symmetry_equiv_pos_as_xyz
	x,y,z

loop_
	_atom_site_label
	_atom_site_type_symbol
	_atom_site_fract_x
	_atom_site_fract_y
	_atom_site_fract_z
	H0	H	0.407874	0.818311	0.726376
	H1	H	0.609893	0.145235	0.718996
	H2	H	0.610446	0.817041	0.293126
	H3	H	0.411788	0.145018	0.289391
	H4	H	0.729684	0.381078	0.848343
	H5	H	0.723083	0.580076	0.173496
	H6	H	0.290498	0.587149	0.848082
	H7	H	0.291723	0.376177	0.172431
	H8	H	0.846488	0.699045	0.408601
	H9	H	0.171504	0.699142	0.606736
	H10	H	0.848376	0.263645	0.611956
	H11	H	0.174661	0.272202	0.412742
	H12	H	0.847692	0.377847	0.729103
	H13	H	0.170599	0.586467	0.726064
	H14	H	0.846556	0.583182	0.293260
	H15	H	0.172637	0.383012	0.292733
	H16	H	0.410293	0.699644	0.845361
	H17	H	0.606723	0.695047	0.172443
	H18	H	0.607940	0.274228	0.843329
	H19	H	0.408448	0.260263	0.170147
	H20	H	0.728420	0.818466	0.405396
	H21	H	0.724628	0.144849	0.605178
	H22	H	0.291287	0.819042	0.612946
	H23	H	0.297245	0.146740	0.406119
	H24	H	0.907752	0.318984	0.228819
	H25	H	0.107551	0.647134	0.219857
	H26	H	0.112753	0.320453	0.793823
	H27	H	0.906278	0.644289	0.790647
	H28	H	0.228265	0.882962	0.345677
	H29	H	0.228331	0.083882	0.669154
	H30	H	0.795420	0.086830	0.345095
	H31	H	0.789190	0.875798	0.668375
	H32	H	0.347505	0.200000	0.903922
	H33	H	0.673045	0.196698	0.102191
	H34	H	0.347428	0.763598	0.111008
	H35	H	0.673361	0.767014	0.907484
	H36	H	0.348453	0.876292	0.228570
	H37	H	0.672327	0.084120	0.221837
	H38	H	0.347392	0.082953	0.789229
	H39	H	0.672083	0.880400	0.789235
	H40	H	0.914444	0.200111	0.345111
	H41	H	0.111144	0.196208	0.671500
	H42	H	0.110207	0.769993	0.344555
	H43	H	0.905605	0.762773	0.669965
	H44	H	0.225337	0.319141	0.910028
	H45	H	0.227360	0.644277	0.111884
	H46	H	0.791877	0.317795	0.116083
	H47	H	0.794846	0.645365	0.909674
	H48	H	0.415607	0.099704	0.596333
	H49	H	0.597656	0.864479	0.598117
	H50	H	0.604528	0.099099	0.411471
	H51	H	0.412505	0.863558	0.420124
	H52	H	0.596194	0.390675	0.123250
	H53	H	0.596860	0.574857	0.894710
	H54	H	0.409721	0.563933	0.124726
	H55	H	0.414402	0.385958	0.890510
	H56	H	0.125621	0.578298	0.413539
	H57	H	0.891068	0.576488	0.603915
	H58	H	0.125821	0.391397	0.603200
	H59	H	0.896262	0.395705	0.423344
	H60	H	0.126741	0.390390	0.602361
	H61	H	0.896647	0.572202	0.592844
	H62	H	0.125491	0.575921	0.414796
	H63	H	0.893545	0.392936	0.413447
	H64	H	0.426930	0.568095	0.119873
	H65	H	0.607607	0.579394	0.889915
	H66	H	0.598923	0.382856	0.127340
	H67	H	0.409922	0.399445	0.892973
	H68	H	0.601903	0.099030	0.412723
	H69	H	0.600234	0.864209	0.596184
	H70	H	0.420370	0.098469	0.599314
	H71	H	0.420603	0.863885	0.413064
	H72	H	0.912504	0.600646	0.099194
	H73	H	0.107000	0.364295	0.098689
	H74	H	0.095242	0.597481	0.919202
	H75	H	0.917294	0.361970	0.915507
	H76	H	0.103647	0.896821	0.622739
	H77	H	0.098938	0.071825	0.395456
	H78	H	0.909598	0.070282	0.625883
	H79	H	0.924754	0.887012	0.391435
	H80	H	0.626439	0.076200	0.910045
	H81	H	0.394863	0.068066	0.100363
	H82	H	0.628026	0.886581	0.104233
	H83	H	0.397085	0.894533	0.922688
	H84	H	0.624787	0.887062	0.094591
	H85	H	0.393726	0.073233	0.097814
	H86	H	0.627704	0.077927	0.910514
	H87	H	0.394159	0.894845	0.910549
	H88	H	0.919695	0.066739	0.621443
	H89	H	0.101767	0.085906	0.388721
	H90	H	0.094063	0.891014	0.621202
	H91	H	0.911040	0.893081	0.389315
	H92	H	0.102887	0.598917	0.922490
	H93	H	0.098753	0.362529	0.110738
	H94	H	0.915350	0.599806	0.103977
	H95	H	0.924643	0.367224	0.922116
	H96	H	0.420302	0.097453	0.593795
	H97	H	0.601066	0.863889	0.599725
	H98	H	0.603259	0.098064	0.413609
	H99	H	0.421995	0.867416	0.423013
	H100	H	0.604297	0.389831	0.126296
	H101	H	0.606573	0.567168	0.894937
	H102	H	0.416707	0.580756	0.128289
	H103	H	0.423421	0.395191	0.895888
	H104	H	0.125774	0.575342	0.412930
	H105	H	0.895407	0.563560	0.602752
	H106	H	0.124801	0.391183	0.602584
	H107	H	0.892873	0.385762	0.421006
	H108	H	0.917862	0.598443	0.099770
	H109	H	0.092693	0.367627	0.098789
	H110	H	0.100903	0.600548	0.913854
	H111	H	0.914472	0.365117	0.926833
	H112	H	0.101883	0.885565	0.625928
	H113	H	0.113233	0.074816	0.389348
	H114	H	0.918649	0.077269	0.625646
	H115	H	0.921936	0.900966	0.395482
	H116	H	0.625533	0.077415	0.911289
	H117	H	0.396097	0.069053	0.095085
	H118	H	0.624482	0.895187	0.100884
	H119	H	0.392561	0.884319	0.916933
	C120	C	0.388150	-0.009315	0.628765
	C121	C	0.629633	0.972517	0.626693
	C122	C	0.633143	-0.009548	0.383865
	C123	C	0.389271	0.973031	0.387104
	C124	C	0.630509	0.360384	0.017601
	C125	C	0.631561	0.603127	1.000873
	C126	C	0.387809	0.603050	0.017492
	C127	C	0.386212	0.359999	1.000251
	C128	C	0.017796	0.605356	0.385396
	C129	C	1.000907	0.603122	0.629841
	C130	C	0.018785	0.359455	0.633121
	C131	C	1.001901	0.362719	0.389131
	C132	C	0.886061	0.491129	0.132568
	C133	C	0.129688	0.473080	0.130928
	C134	C	0.130153	0.491230	0.889013
	C135	C	0.888503	0.472760	0.889918
	C136	C	0.130813	0.861856	0.516223
	C137	C	0.132941	0.105068	0.498998
	C138	C	0.888140	0.103917	0.516807
	C139	C	0.887710	0.860861	0.498737
	C140	C	0.518761	0.105654	0.882069
	C141	C	0.501953	0.101220	0.126384
	C142	C	0.518419	0.859038	0.130733
	C143	C	0.501850	0.860920	0.886429
	C144	C	0.388002	0.867588	0.687559
	C145	C	0.629279	0.096013	0.681541
	C146	C	0.631133	0.866687	0.329854
	C147	C	0.391588	0.096496	0.328523
	C148	C	0.689219	0.362332	0.896038
	C149	C	0.685910	0.600701	0.124144
	C150	C	0.330264	0.605171	0.895953
	C151	C	0.330217	0.357906	0.123082
	C152	C	0.895310	0.661276	0.388006
	C153	C	0.122612	0.661064	0.627832
	C154	C	0.896819	0.301792	0.632353
	C155	C	0.125212	0.308446	0.391244
	C156	C	0.896579	0.358925	0.690469
	C157	C	0.122045	0.604841	0.687405
	C158	C	0.895339	0.603613	0.330732
	C159	C	0.124177	0.363846	0.331763
	C160	C	0.389865	0.660964	0.894560
	C161	C	0.628028	0.658022	0.123547
	C162	C	0.628928	0.308787	0.893427
	C163	C	0.388010	0.299860	0.121857
	C164	C	0.689704	0.867312	0.385815
	C165	C	0.686119	0.095983	0.624722
	C166	C	0.329987	0.867862	0.631099
	C167	C	0.334369	0.097171	0.386200
	C168	C	0.887472	0.367678	0.190574
	C169	C	0.128165	0.597249	0.184235
	C170	C	0.131175	0.368881	0.832362
	C171	C	0.887924	0.595691	0.830553
	C172	C	0.188912	0.863189	0.394131
	C173	C	0.189436	0.103265	0.621071
	C174	C	0.833348	0.105826	0.394192
	C175	C	0.828958	0.858195	0.620419
	C176	C	0.396105	0.161437	0.884072
	C177	C	0.624460	0.158253	0.123516
	C178	C	0.396195	0.801814	0.130526
	C179	C	0.624373	0.804980	0.887635
	C180	C	0.396928	0.857676	0.189378
	C181	C	0.624049	0.101838	0.182779
	C182	C	0.396062	0.103316	0.826900
	C183	C	0.623832	0.861430	0.828644
	C184	C	0.892661	0.162209	0.394232
	C185	C	0.130983	0.159178	0.622123
	C186	C	0.130251	0.806634	0.393662
	C187	C	0.886737	0.801688	0.621094
	C188	C	0.187094	0.368343	0.890315
	C189	C	0.187713	0.595907	0.130349
	C190	C	0.829981	0.367338	0.134092
	C191	C	0.832094	0.595955	0.889599
	C192	C	0.411883	0.076325	0.603694
	C193	C	0.606464	0.886630	0.604553
	C194	C	0.610088	0.076447	0.406050
	C195	C	0.411691	0.887294	0.411619
	C196	C	0.606593	0.381481	0.103263
	C197	C	0.610063	0.580705	0.915381
	C198	C	0.410948	0.577978	0.102288
	C199	C	0.409176	0.385930	0.915192
	C200	C	0.103376	0.582932	0.407103
	C201	C	0.916047	0.578021	0.606558
	C202	C	0.103948	0.383792	0.609792
	C203	C	0.916509	0.384926	0.412522
	C204	C	0.908642	0.577279	0.108124
	C205	C	0.106319	0.386895	0.109196
	C206	C	0.106676	0.576678	0.911820
	C207	C	0.912096	0.387129	0.914376
	C208	C	0.106765	0.884408	0.601230
	C209	C	0.110868	0.083758	0.413351
	C210	C	0.909693	0.078772	0.602144
	C211	C	0.912121	0.886256	0.413922
	C212	C	0.604156	0.083658	0.904018
	C213	C	0.417092	0.077205	0.104064
	C214	C	0.603721	0.882573	0.106898
	C215	C	0.416612	0.884212	0.909888
	Zn216	Zn	0.510307	-0.018334	0.755850
	Zn217	Zn	0.510094	-0.019288	0.257951
	Zn218	Zn	0.759704	0.480762	0.011071
	Zn219	Zn	0.257638	0.482568	0.010750
	Zn220	Zn	0.008916	0.732892	0.507545
	Zn221	Zn	0.011100	0.232541	0.509281
	Zn222	Zn	0.009368	0.482126	0.760814
	Zn223	Zn	0.009323	0.482650	0.258278
	Zn224	Zn	0.509747	0.731827	0.008262
	Zn225	Zn	0.509925	0.232523	0.005786
	Zn226	Zn	0.759082	-0.018628	0.507106
	Zn227	Zn	0.260279	-0.017287	0.507727
	N228	N	0.423231	0.944914	0.686387
	N229	N	0.594757	0.018275	0.682775
	N230	N	0.596779	0.944274	0.328461
	N231	N	0.424860	0.018339	0.329036
	N232	N	0.690432	0.393339	0.974176
	N233	N	0.688460	0.567196	0.046672
	N234	N	0.328754	0.569856	0.973283
	N235	N	0.328797	0.394437	0.046296
	N236	N	0.972563	0.662618	0.421150
	N237	N	0.046236	0.659967	0.592593
	N238	N	0.973836	0.301824	0.597430
	N239	N	0.048336	0.307542	0.426255
	N240	N	0.973590	0.393976	0.691161
	N241	N	0.045237	0.569467	0.688509
	N242	N	0.972602	0.569754	0.328716
	N243	N	0.046376	0.396789	0.330289
	N244	N	0.424992	0.659762	0.971068
	N245	N	0.595225	0.659583	0.045975
	N246	N	0.592883	0.307383	0.970293
	N247	N	0.421904	0.300874	0.044293
	N248	N	0.691279	0.945470	0.418397
	N249	N	0.686658	0.018109	0.591324
	N250	N	0.329979	0.945534	0.595268
	N251	N	0.332864	0.019668	0.422107
	N252	N	0.921768	0.445685	0.189749
	N253	N	0.092688	0.519780	0.184743
	N254	N	0.096400	0.446330	0.831174
	N255	N	0.922346	0.518027	0.830496
	N256	N	0.189552	0.896450	0.471337
	N257	N	0.190788	0.070171	0.543636
	N258	N	0.830392	0.070107	0.471320
	N259	N	0.829293	0.894329	0.543450
	N260	N	0.473340	0.163385	0.917468
	N261	N	0.547643	0.158164	0.089112
	N262	N	0.472813	0.802558	0.094776
	N263	N	0.547402	0.804503	0.922837
	N264	N	0.473972	0.892612	0.189579
	N265	N	0.546938	0.066941	0.184874
	N266	N	0.473314	0.069462	0.825410
	N267	N	0.546417	0.895400	0.827616
	N268	N	0.925696	0.161482	0.471716
	N269	N	0.096607	0.160512	0.545299
	N270	N	0.094854	0.805571	0.470689
	N271	N	0.922711	0.803361	0.544431
	N272	N	0.186715	0.445529	0.924996
	N273	N	0.188582	0.517863	0.097933
	N274	N	0.828887	0.445143	0.098955
	N275	N	0.832384	0.518662	0.925851
	O276	O	0.408510	0.440308	0.655345
	H277	H	0.403499	0.442795	0.652308
	H278	H	0.394849	0.435640	0.665045
	O279	O	0.371516	0.651759	0.397839
	H280	H	0.394759	0.642080	0.394224
	H281	H	0.361258	0.659333	0.387081
	O282	O	0.969565	-0.031047	0.052906
	H283	H	0.964882	-0.042711	0.066168
	H284	H	0.964474	-0.043948	0.054109
	O285	O	0.032808	0.829244	-0.121517
	H286	H	0.036547	0.828972	-0.107851
	H287	H	0.025865	0.829491	-0.131227
	O288	O	1.123370	0.000631	0.032602
	H289	H	1.129433	-0.000144	0.020155
	H290	H	1.121803	0.000329	0.028315
	O291	O	0.410225	0.554621	0.488047
	H292	H	0.417722	0.554343	0.506060
	H293	H	0.408148	0.551778	0.489528
	O294	O	1.170313	1.172604	1.107721
	H295	H	1.181775	1.197743	1.116231
	H296	H	1.169729	1.172921	1.120525
	O297	O	0.002158	-0.148424	-0.020488
	H298	H	-0.007013	-0.143299	-0.015530
	H299	H	-0.001163	-0.140227	-0.020388
	O300	O	0.970441	0.084264	-0.094484
	H301	H	0.972888	0.080391	-0.105618
	H302	H	0.977695	0.085854	-0.105591
	O303	O	-0.053728	0.959620	0.952342
	H304	H	-0.075487	0.967266	0.934238
	H305	H	-0.040312	0.979600	0.944808
	O306	O	0.359995	0.436087	0.556038
	H307	H	0.355960	0.446412	0.549398
	H308	H	0.364432	0.439736	0.548762
	O309	O	1.089045	-0.081167	-0.014956
	H310	H	1.079314	-0.068934	-0.012823
	H311	H	1.090484	-0.072561	-0.014215
	O312	O	-0.138386	0.066127	0.986214
	H313	H	-0.132426	0.078455	0.980518
	H314	H	-0.128909	0.067604	0.984841
	O315	O	-0.056297	0.972530	-0.118033
	H316	H	-0.054651	0.984392	-0.121005
	H317	H	-0.053163	0.963450	-0.124264
	O318	O	0.554236	0.417270	0.472294
	H319	H	0.570959	0.400038	0.474457
	H320	H	0.567711	0.424933	0.478802
	O321	O	1.046818	0.035070	0.073400
	H322	H	1.047773	0.031622	0.071902
	H323	H	1.058391	0.034784	0.064105
	O324	O	-0.077025	0.903884	0.192700
	H325	H	-0.079077	0.899898	0.198147
	H326	H	-0.080213	0.907127	0.182447
	O327	O	-0.594849	1.390197	0.485726
	H328	H	-0.603658	1.388492	0.481726
	H329	H	-0.584347	1.377131	0.498206
	O330	O	0.556934	0.503156	0.365075
	H331	H	0.560513	0.504638	0.365983
	H332	H	0.567813	0.493505	0.360244
	O333	O	0.072030	0.969437	0.892156
	H334	H	0.056021	0.963121	0.903196
	H335	H	0.073333	0.968873	0.888965
	O336	O	1.141335	1.121216	1.147270
	H337	H	1.121507	1.111391	1.155789
	H338	H	1.144392	1.106369	1.141855
	O339	O	0.592922	0.520907	-0.588883
	H340	H	0.587770	0.518063	-0.591229
	H341	H	0.598826	0.533279	-0.575798
	O342	O	0.987981	0.092330	-0.030049
	H343	H	0.994585	0.089255	-0.001839
	H344	H	0.997091	0.100663	-0.024916
	O345	O	0.140518	0.973073	0.995745
	H346	H	0.142774	0.967581	0.982326
	H347	H	0.153881	0.975943	0.999991
	O348	O	0.986927	2.034039	0.919997
	H349	H	0.992091	2.049273	0.900707
	H350	H	0.983027	2.016920	0.915993
	O351	O	-0.071674	0.873676	-0.004011
	H352	H	-0.069823	0.864555	0.002410
	H353	H	-0.078922	0.871170	0.008914
	O354	O	-0.108709	1.075236	1.053657
	H355	H	-0.110231	1.074749	1.049271
	H356	H	-0.113226	1.061641	1.050882
	O357	O	0.554493	0.567870	0.650955
	H358	H	0.540977	0.572151	0.660280
	H359	H	0.558456	0.555877	0.657373
	O360	O	-0.175024	-0.000284	0.111828
	H361	H	-0.174981	-0.005005	0.126530
	H362	H	-0.168049	-0.002404	0.106286
	O363	O	0.573690	0.396863	0.549626
	H364	H	0.576286	0.388614	0.545428
	H365	H	0.564831	0.401202	0.559656
	O366	O	0.596969	0.519267	0.485160
	H367	H	0.590887	0.520196	0.492143
	H368	H	0.594561	0.521966	0.483659
	O369	O	0.397305	0.450404	0.508154
	H370	H	0.407843	0.450836	0.502985
	H371	H	0.383248	0.454261	0.515835
	O372	O	0.371610	0.572620	0.584478
	H373	H	0.385443	0.581925	0.574788
	H374	H	0.366993	0.582494	0.566567
	O375	O	0.585755	0.535342	0.584543
	H376	H	0.587710	0.537161	0.593181
	H377	H	0.575336	0.529579	0.593793
	O378	O	0.503620	0.410970	0.610310
	H379	H	0.494917	0.427501	0.609756
	H380	H	0.491230	0.414670	0.602930
	O381	O	0.426726	0.530581	0.415468
	H382	H	0.421330	0.530333	0.387128
	H383	H	0.422366	0.542571	0.412423
	O384	O	-0.002887	0.865666	0.096899
	H385	H	-0.012000	0.874444	0.099675
	H386	H	0.005182	0.860986	0.094058
	O387	O	0.597266	0.362103	1.350724
	H388	H	0.588242	0.361412	1.348550
	H389	H	0.604607	0.372309	1.358203
	O390	O	0.096997	0.942681	0.010850
	H391	H	0.101123	0.944006	0.013858
	H392	H	0.095573	0.928871	0.003537
	O393	O	0.599465	0.569523	-0.404978
	H394	H	0.606352	0.561318	-0.396525
	H395	H	0.597775	0.563407	-0.403480
	O396	O	0.614506	0.442808	0.418121
	H397	H	0.612327	0.441822	0.428411
	H398	H	0.605559	0.449819	0.423673
	O399	O	0.532811	1.357663	1.582384
	H400	H	0.530603	1.354715	1.577334
	H401	H	0.521077	1.351416	1.573711
	O402	O	1.061204	1.031859	0.915334
	H403	H	1.060252	1.017760	0.919043
	H404	H	1.054428	1.047472	0.919764
	O405	O	0.571917	0.410316	0.525856
	H406	H	0.586438	0.408507	0.526487
	H407	H	0.578750	0.393181	0.541628
