data_Molecule from HDF5

_cell_length_a		16.246198
_cell_length_b		16.286626
_cell_length_c		16.152626
_cell_angle_alpha	90.021877
_cell_angle_beta	89.958158
_cell_angle_gamma	89.905484
_symmetry_space_group_name_H-M	'P 1'
_symmetry_Int_Tables_number		1

loop_
	_symmetry_equiv_pos_as_xyz
	x,y,z

loop_
	_atom_site_label
	_atom_site_type_symbol
	_atom_site_fract_x
	_atom_site_fract_y
	_atom_site_fract_z
	H0	H	0.409210	0.840626	0.719255
	H1	H	0.602016	0.169252	0.720248
	H2	H	0.604569	0.841899	0.292099
	H3	H	0.408190	0.169570	0.292162
	H4	H	0.720872	0.405268	0.840731
	H5	H	0.719582	0.602867	0.169695
	H6	H	0.293522	0.603573	0.840247
	H7	H	0.292247	0.407860	0.170441
	H8	H	0.842334	0.721569	0.405068
	H9	H	0.169675	0.721458	0.602982
	H10	H	0.841655	0.292618	0.605531
	H11	H	0.170606	0.290409	0.405846
	H12	H	0.841119	0.411236	0.718256
	H13	H	0.170875	0.604309	0.717966
	H14	H	0.841827	0.603574	0.292699
	H15	H	0.171071	0.408232	0.291243
	H16	H	0.408463	0.719016	0.840691
	H17	H	0.605378	0.718616	0.169705
	H18	H	0.605956	0.290064	0.841469
	H19	H	0.407818	0.292930	0.170823
	H20	H	0.721355	0.842776	0.407092
	H21	H	0.719596	0.169806	0.606055
	H22	H	0.290879	0.841781	0.604350
	H23	H	0.292226	0.169926	0.407130
	H24	H	0.909373	0.342961	0.220168
	H25	H	0.103839	0.671015	0.218275
	H26	H	0.105094	0.342442	0.790282
	H27	H	0.910213	0.670469	0.794212
	H28	H	0.219384	0.908605	0.339982
	H29	H	0.219671	0.105133	0.670056
	H30	H	0.791714	0.106451	0.341032
	H31	H	0.793389	0.909530	0.670551
	H32	H	0.343062	0.221161	0.906497
	H33	H	0.669892	0.220384	0.106034
	H34	H	0.342541	0.789784	0.106677
	H35	H	0.669889	0.791205	0.907320
	H36	H	0.341114	0.908375	0.219008
	H37	H	0.670797	0.101424	0.218393
	H38	H	0.341140	0.102449	0.793116
	H39	H	0.670756	0.906936	0.792222
	H40	H	0.907536	0.221608	0.341022
	H41	H	0.104785	0.220074	0.670801
	H42	H	0.105300	0.792291	0.340550
	H43	H	0.907162	0.793354	0.670418
	H44	H	0.221184	0.341356	0.906203
	H45	H	0.222286	0.669146	0.104591
	H46	H	0.792956	0.341898	0.104469
	H47	H	0.789591	0.668733	0.905286
	H48	H	0.412131	0.122108	0.598246
	H49	H	0.596609	0.892336	0.589400
	H50	H	0.596345	0.122859	0.410893
	H51	H	0.413646	0.889786	0.414837
	H52	H	0.594368	0.421132	0.119070
	H53	H	0.592121	0.602238	0.887784
	H54	H	0.414364	0.595452	0.121764
	H55	H	0.417433	0.400725	0.885720
	H56	H	0.123128	0.593870	0.408133
	H57	H	0.887539	0.601377	0.599412
	H58	H	0.125803	0.411605	0.604903
	H59	H	0.893280	0.420765	0.416515
	H60	H	0.123137	0.407076	0.593282
	H61	H	0.888317	0.602094	0.599269
	H62	H	0.126385	0.607121	0.408982
	H63	H	0.887468	0.413350	0.405619
	H64	H	0.416252	0.598856	0.122499
	H65	H	0.606001	0.601158	0.884010
	H66	H	0.594891	0.401633	0.125221
	H67	H	0.402475	0.414783	0.885254
	H68	H	0.598582	0.120963	0.415453
	H69	H	0.612577	0.885512	0.599669
	H70	H	0.410684	0.121937	0.600071
	H71	H	0.409381	0.888397	0.412723
	H72	H	0.907922	0.626699	0.105156
	H73	H	0.097158	0.388005	0.106543
	H74	H	0.108641	0.626736	0.906407
	H75	H	0.918570	0.390562	0.914354
	H76	H	0.101132	0.914950	0.622901
	H77	H	0.100605	0.099602	0.387642
	H78	H	0.913810	0.101357	0.624035
	H79	H	0.919578	0.918608	0.390587
	H80	H	0.623810	0.098429	0.913076
	H81	H	0.390020	0.102397	0.091111
	H82	H	0.620986	0.907878	0.089728
	H83	H	0.387542	0.909953	0.911198
	H84	H	0.621258	0.920404	0.101079
	H85	H	0.390211	0.091924	0.102348
	H86	H	0.623933	0.099107	0.914372
	H87	H	0.389537	0.910118	0.916308
	H88	H	0.910486	0.099220	0.624209
	H89	H	0.097674	0.097603	0.388830
	H90	H	0.096177	0.915047	0.622251
	H91	H	0.914750	0.904870	0.385418
	H92	H	0.091340	0.621162	0.908555
	H93	H	0.095200	0.393060	0.093382
	H94	H	0.920435	0.621006	0.099006
	H95	H	0.909164	0.389060	0.915644
	H96	H	0.412680	0.122332	0.600627
	H97	H	0.594866	0.887405	0.609182
	H98	H	0.602008	0.124218	0.411900
	H99	H	0.413416	0.888649	0.410218
	H100	H	0.612193	0.412872	0.126619
	H101	H	0.598583	0.589749	0.890290
	H102	H	0.412526	0.598447	0.123868
	H103	H	0.420772	0.420577	0.892079
	H104	H	0.120618	0.600337	0.420176
	H105	H	0.889069	0.601004	0.599780
	H106	H	0.120459	0.419005	0.596411
	H107	H	0.890080	0.407341	0.418800
	H108	H	0.907486	0.621981	0.090923
	H109	H	0.107697	0.388029	0.096283
	H110	H	0.102802	0.620279	0.922686
	H111	H	0.912774	0.387446	0.907461
	H112	H	0.097729	0.910247	0.623941
	H113	H	0.096883	0.100579	0.388097
	H114	H	0.914196	0.098737	0.622441
	H115	H	0.905272	0.917014	0.386719
	H116	H	0.622451	0.097449	0.914412
	H117	H	0.385225	0.105998	0.105433
	H118	H	0.627219	0.904737	0.105885
	H119	H	0.390016	0.914977	0.913046
	C120	C	0.384063	0.013591	0.627650
	C121	C	0.628358	0.996920	0.628380
	C122	C	0.627631	0.014255	0.384532
	C123	C	0.383721	0.997217	0.384009
	C124	C	0.628399	0.383465	0.014402
	C125	C	0.627599	0.626167	0.996288
	C126	C	0.385390	0.626461	0.014080
	C127	C	0.384969	0.384144	0.996985
	C128	C	0.014851	0.628181	0.384255
	C129	C	0.997041	0.628910	0.627263
	C130	C	0.014268	0.384749	0.627033
	C131	C	0.998617	0.384803	0.384461
	C132	C	0.884438	0.514807	0.127190
	C133	C	0.128330	0.498051	0.127184
	C134	C	0.128849	0.514361	0.883686
	C135	C	0.884980	0.497098	0.884475
	C136	C	0.126825	0.885218	0.513656
	C137	C	0.127024	0.127833	0.497179
	C138	C	0.884410	0.128310	0.514377
	C139	C	0.885015	0.885425	0.496748
	C140	C	0.514828	0.126740	0.884925
	C141	C	0.497420	0.127708	0.127936
	C142	C	0.514399	0.883171	0.127773
	C143	C	0.497795	0.883449	0.884800
	C144	C	0.387680	0.889885	0.682044
	C145	C	0.623642	0.120437	0.682846
	C146	C	0.625112	0.890959	0.329786
	C147	C	0.387203	0.120838	0.329643
	C148	C	0.683034	0.385455	0.890090
	C149	C	0.682230	0.623379	0.120569
	C150	C	0.330429	0.624167	0.889832
	C151	C	0.330288	0.387576	0.121292
	C152	C	0.891394	0.683397	0.385455
	C153	C	0.121030	0.683306	0.623736
	C154	C	0.890797	0.330328	0.625314
	C155	C	0.121637	0.328736	0.385621
	C156	C	0.890525	0.389295	0.681578
	C157	C	0.121329	0.625575	0.681259
	C158	C	0.890923	0.624600	0.329778
	C159	C	0.122112	0.387336	0.329002
	C160	C	0.387248	0.681967	0.890066
	C161	C	0.625491	0.681047	0.120431
	C162	C	0.625605	0.328267	0.890395
	C163	C	0.387485	0.330400	0.121345
	C164	C	0.682894	0.891320	0.387252
	C165	C	0.682091	0.120673	0.626110
	C166	C	0.328895	0.890622	0.625023
	C167	C	0.329511	0.120818	0.386833
	C168	C	0.888215	0.391630	0.182361
	C169	C	0.124837	0.621736	0.181210
	C170	C	0.126043	0.391210	0.828125
	C171	C	0.888409	0.621188	0.830655
	C172	C	0.182146	0.887917	0.389467
	C173	C	0.181749	0.125392	0.621033
	C174	C	0.829559	0.126210	0.390162
	C175	C	0.830763	0.888535	0.621357
	C176	C	0.391444	0.182328	0.886680
	C177	C	0.620996	0.182070	0.125669
	C178	C	0.391337	0.828068	0.126269
	C179	C	0.621068	0.828678	0.886863
	C180	C	0.390442	0.887445	0.181877
	C181	C	0.621592	0.122775	0.181425
	C182	C	0.390598	0.123411	0.830440
	C183	C	0.621477	0.886438	0.829819
	C184	C	0.887020	0.183568	0.390169
	C185	C	0.124456	0.182407	0.621373
	C186	C	0.125424	0.830185	0.389629
	C187	C	0.887247	0.830719	0.621054
	C188	C	0.183641	0.390620	0.885968
	C189	C	0.183753	0.620824	0.124736
	C190	C	0.830100	0.391293	0.125097
	C191	C	0.828667	0.620360	0.885740
	C192	C	0.405535	0.099793	0.606144
	C193	C	0.607522	0.910711	0.606129
	C194	C	0.605549	0.100485	0.406258
	C195	C	0.405595	0.911249	0.406134
	C196	C	0.606797	0.405454	0.101399
	C197	C	0.605362	0.604058	0.909728
	C198	C	0.407695	0.604085	0.100456
	C199	C	0.407032	0.405520	0.909968
	C200	C	0.101088	0.606796	0.406011
	C201	C	0.910667	0.607632	0.605964
	C202	C	0.100897	0.406231	0.604692
	C203	C	0.912526	0.407173	0.406993
	C204	C	0.905594	0.600883	0.104966
	C205	C	0.106343	0.411921	0.105227
	C206	C	0.107304	0.600341	0.905991
	C207	C	0.906845	0.411418	0.906165
	C208	C	0.104879	0.906994	0.600543
	C209	C	0.104967	0.105682	0.410556
	C210	C	0.906282	0.106405	0.601080
	C211	C	0.906707	0.907122	0.410039
	C212	C	0.600984	0.104777	0.907386
	C213	C	0.410852	0.106439	0.105916
	C214	C	0.600964	0.904705	0.105502
	C215	C	0.411238	0.905320	0.907089
	Zn216	Zn	0.506044	0.004852	0.756485
	Zn217	Zn	0.505956	0.005471	0.255959
	Zn218	Zn	0.756013	0.505110	0.004898
	Zn219	Zn	0.257466	0.505460	0.005596
	Zn220	Zn	0.005613	0.757084	0.505023
	Zn221	Zn	0.006294	0.255857	0.505843
	Zn222	Zn	0.006003	0.506577	0.755383
	Zn223	Zn	0.006703	0.507092	0.256245
	Zn224	Zn	0.506032	0.754662	0.005720
	Zn225	Zn	0.506484	0.255857	0.006271
	Zn226	Zn	0.756616	0.006692	0.505750
	Zn227	Zn	0.254970	0.006447	0.505554
	N228	N	0.421062	0.967443	0.683844
	N229	N	0.590825	0.042708	0.684130
	N230	N	0.591269	0.968508	0.328108
	N231	N	0.420225	0.043100	0.327701
	N232	N	0.684736	0.418996	0.968184
	N233	N	0.683808	0.589995	0.042343
	N234	N	0.329032	0.590471	0.967947
	N235	N	0.328831	0.420338	0.042948
	N236	N	0.969125	0.685319	0.418917
	N237	N	0.042876	0.685724	0.591033
	N238	N	0.968939	0.327275	0.592416
	N239	N	0.043968	0.327159	0.419556
	N240	N	0.968482	0.422316	0.682635
	N241	N	0.043429	0.592279	0.683417
	N242	N	0.968669	0.590951	0.328708
	N243	N	0.044592	0.421589	0.328031
	N244	N	0.420857	0.683283	0.968108
	N245	N	0.591990	0.682737	0.042259
	N246	N	0.592457	0.326910	0.968829
	N247	N	0.421014	0.328271	0.042987
	N248	N	0.684430	0.969075	0.420504
	N249	N	0.685295	0.042765	0.592802
	N250	N	0.326456	0.968453	0.591884
	N251	N	0.327292	0.043006	0.419951
	N252	N	0.921175	0.469333	0.183791
	N253	N	0.091177	0.544243	0.182807
	N254	N	0.092813	0.468994	0.826594
	N255	N	0.922688	0.543893	0.829565
	N256	N	0.183162	0.921496	0.467798
	N257	N	0.183294	0.092004	0.542855
	N258	N	0.827783	0.092686	0.468426
	N259	N	0.829286	0.922017	0.543251
	N260	N	0.469513	0.184736	0.919728
	N261	N	0.542799	0.185208	0.093277
	N262	N	0.469464	0.825318	0.093414
	N263	N	0.543148	0.826887	0.920358
	N264	N	0.468149	0.920956	0.183153
	N265	N	0.543595	0.089773	0.183121
	N266	N	0.468368	0.089747	0.829139
	N267	N	0.543665	0.919851	0.828610
	N268	N	0.920318	0.184982	0.468381
	N269	N	0.091113	0.183943	0.543170
	N270	N	0.091599	0.828504	0.467732
	N271	N	0.920469	0.828830	0.542579
	N272	N	0.185779	0.468444	0.919659
	N273	N	0.185992	0.543001	0.091936
	N274	N	0.827803	0.468823	0.091217
	N275	N	0.826325	0.542390	0.918496
	O276	O	0.448639	0.496178	0.467080
	H277	H	0.450989	0.487380	0.470218
	H278	H	0.454194	0.497440	0.466740
	O279	O	-0.022422	0.019535	-0.050369
	H280	H	-0.014741	0.017796	-0.040118
	H281	H	-0.027045	0.024750	-0.056767
	O282	O	0.476006	0.476288	0.499481
	H283	H	0.479523	0.479556	0.503375
	H284	H	0.478209	0.477621	0.500343
	O285	O	0.487698	0.479293	0.445928
	H286	H	0.489326	0.483641	0.443290
	H287	H	0.490928	0.475686	0.447445
	O288	O	1.048039	0.016775	-0.072943
	H289	H	1.051766	0.022067	-0.073828
	H290	H	1.044885	0.018431	-0.077339
	O291	O	-0.496213	0.473609	-0.491905
	H292	H	-0.502242	0.476261	-0.491201
	H293	H	-0.505717	0.479229	-0.501891
	O294	O	0.480294	0.475848	0.438780
	H295	H	0.477119	0.471056	0.438369
	H296	H	0.483118	0.470929	0.433453
	O297	O	0.020218	1.032655	-0.024903
	H298	H	0.024656	1.026576	-0.038239
	H299	H	0.005600	1.029621	-0.026147
	O300	O	0.995001	0.048066	0.967108
	H301	H	1.000708	0.045959	0.972292
	H302	H	0.990676	0.048174	0.979071
	O303	O	0.496185	0.441538	0.478645
	H304	H	0.498879	0.443758	0.478999
	H305	H	0.489726	0.431926	0.471722
	O306	O	-0.015480	1.008441	0.961613
	H307	H	-0.016088	1.014055	0.956683
	H308	H	-0.013347	1.010891	0.958091
	O309	O	0.500646	0.506389	0.467718
	H310	H	0.496721	0.510129	0.470739
	H311	H	0.504495	0.507779	0.467412
