data_Molecule from HDF5

_cell_length_a		16.175246
_cell_length_b		16.203618
_cell_length_c		16.290634
_cell_angle_alpha	89.979288
_cell_angle_beta	90.010313
_cell_angle_gamma	90.013002
_symmetry_space_group_name_H-M	'P 1'
_symmetry_Int_Tables_number		1

loop_
	_symmetry_equiv_pos_as_xyz
	x,y,z

loop_
	_atom_site_label
	_atom_site_type_symbol
	_atom_site_fract_x
	_atom_site_fract_y
	_atom_site_fract_z
	H0	H	0.403563	0.830977	0.718676
	H1	H	0.602379	0.159377	0.719639
	H2	H	0.604266	0.832911	0.288285
	H3	H	0.402162	0.159825	0.288800
	H4	H	0.718563	0.395816	0.839696
	H5	H	0.716967	0.592657	0.166415
	H6	H	0.288538	0.594006	0.839542
	H7	H	0.289164	0.396648	0.167166
	H8	H	0.837944	0.709355	0.404961
	H9	H	0.167007	0.709102	0.601594
	H10	H	0.838254	0.281896	0.601511
	H11	H	0.167596	0.281961	0.405195
	H12	H	0.838799	0.396421	0.717995
	H13	H	0.166302	0.596505	0.718835
	H14	H	0.838427	0.595212	0.288875
	H15	H	0.166603	0.395795	0.287978
	H16	H	0.403956	0.711522	0.840238
	H17	H	0.602761	0.709074	0.166760
	H18	H	0.601481	0.279521	0.839427
	H19	H	0.405171	0.281637	0.167320
	H20	H	0.715401	0.831110	0.407680
	H21	H	0.717381	0.160545	0.603288
	H22	H	0.289243	0.831051	0.602419
	H23	H	0.288779	0.160299	0.406165
	H24	H	0.902867	0.332122	0.217706
	H25	H	0.102136	0.660474	0.217813
	H26	H	0.103278	0.331871	0.787184
	H27	H	0.902144	0.659677	0.787581
	H28	H	0.218101	0.896758	0.339897
	H29	H	0.216109	0.092957	0.667603
	H30	H	0.788624	0.094914	0.340571
	H31	H	0.790250	0.897872	0.667795
	H32	H	0.338099	0.208878	0.904284
	H33	H	0.667698	0.208630	0.100915
	H34	H	0.339437	0.780761	0.103081
	H35	H	0.668844	0.781881	0.906610
	H36	H	0.339194	0.895342	0.219331
	H37	H	0.666879	0.096426	0.218985
	H38	H	0.338977	0.094667	0.789137
	H39	H	0.667421	0.893819	0.788783
	H40	H	0.904668	0.209111	0.339762
	H41	H	0.103597	0.211232	0.666432
	H42	H	0.101996	0.781168	0.339223
	H43	H	0.904481	0.780974	0.666761
	H44	H	0.216131	0.330573	0.905176
	H45	H	0.216281	0.660145	0.100489
	H46	H	0.790796	0.331185	0.100538
	H47	H	0.789247	0.659936	0.905555
	H48	H	0.414765	0.115060	0.611124
	H49	H	0.596850	0.875736	0.604243
	H50	H	0.597639	0.114318	0.410519
	H51	H	0.411596	0.877381	0.404793
	H52	H	0.591455	0.408445	0.116391
	H53	H	0.581047	0.586966	0.890100
	H54	H	0.415581	0.593831	0.120488
	H55	H	0.408349	0.403026	0.885929
	H56	H	0.121152	0.588217	0.409435
	H57	H	0.886501	0.587612	0.591500
	H58	H	0.115242	0.408177	0.583098
	H59	H	0.883969	0.400321	0.406952
	H60	H	0.121163	0.412462	0.607502
	H61	H	0.884952	0.584759	0.599686
	H62	H	0.120233	0.588588	0.410228
	H63	H	0.884493	0.400318	0.412044
	H64	H	0.402717	0.589903	0.122470
	H65	H	0.601741	0.601899	0.880437
	H66	H	0.592301	0.392962	0.121159
	H67	H	0.411572	0.401108	0.886905
	H68	H	0.594931	0.114443	0.408776
	H69	H	0.590190	0.881077	0.595676
	H70	H	0.420648	0.106518	0.588614
	H71	H	0.416368	0.881695	0.414497
	H72	H	0.907278	0.612702	0.093077
	H73	H	0.089341	0.378955	0.100678
	H74	H	0.091911	0.610567	0.912869
	H75	H	0.910832	0.375538	0.902979
	H76	H	0.094798	0.904485	0.618612
	H77	H	0.092888	0.097638	0.385050
	H78	H	0.904143	0.082217	0.620341
	H79	H	0.905309	0.906748	0.386723
	H80	H	0.619107	0.084399	0.913480
	H81	H	0.383843	0.088524	0.099674
	H82	H	0.622306	0.897261	0.094918
	H83	H	0.390774	0.908704	0.919141
	H84	H	0.618537	0.907233	0.094071
	H85	H	0.384879	0.089678	0.095281
	H86	H	0.621248	0.086932	0.907795
	H87	H	0.384737	0.906348	0.902440
	H88	H	0.919676	0.086104	0.617582
	H89	H	0.106674	0.087134	0.384502
	H90	H	0.094272	0.899292	0.619768
	H91	H	0.914790	0.903344	0.389299
	H92	H	0.097779	0.612867	0.912877
	H93	H	0.096629	0.379513	0.091016
	H94	H	0.908329	0.615140	0.100214
	H95	H	0.918986	0.380951	0.911686
	H96	H	0.397813	0.115689	0.592823
	H97	H	0.601500	0.878502	0.592431
	H98	H	0.594949	0.113369	0.411764
	H99	H	0.405902	0.877589	0.414581
	H100	H	0.605956	0.402230	0.121843
	H101	H	0.605583	0.575887	0.886898
	H102	H	0.412541	0.581040	0.116828
	H103	H	0.408365	0.399313	0.885560
	H104	H	0.120595	0.586951	0.409724
	H105	H	0.882498	0.592680	0.597310
	H106	H	0.124889	0.389814	0.596720
	H107	H	0.885335	0.405501	0.409320
	H108	H	0.913579	0.613471	0.096764
	H109	H	0.100052	0.375962	0.101138
	H110	H	0.094790	0.613904	0.906908
	H111	H	0.905941	0.378292	0.915101
	H112	H	0.099261	0.901965	0.620651
	H113	H	0.090959	0.082035	0.389934
	H114	H	0.909023	0.096994	0.623763
	H115	H	0.908016	0.896683	0.383560
	H116	H	0.620553	0.090052	0.913049
	H117	H	0.385586	0.084609	0.096323
	H118	H	0.622450	0.903748	0.103411
	H119	H	0.383230	0.892156	0.913929
	C120	C	0.382061	0.003655	0.625865
	C121	C	0.625158	0.987092	0.626260
	C122	C	0.624581	0.004863	0.382482
	C123	C	0.382189	0.987523	0.382899
	C124	C	0.625175	0.372818	0.011457
	C125	C	0.624557	0.616203	0.994337
	C126	C	0.381280	0.617230	0.011926
	C127	C	0.381065	0.373082	0.994758
	C128	C	0.011625	0.616987	0.381421
	C129	C	0.993540	0.617354	0.624733
	C130	C	0.011938	0.374170	0.624793
	C131	C	0.993868	0.373680	0.381247
	C132	C	0.881437	0.504879	0.124742
	C133	C	0.124251	0.486810	0.125723
	C134	C	0.123903	0.503856	0.882016
	C135	C	0.882060	0.486882	0.881404
	C136	C	0.124972	0.873487	0.511620
	C137	C	0.125300	0.117320	0.494716
	C138	C	0.881832	0.116921	0.512283
	C139	C	0.880945	0.873779	0.494850
	C140	C	0.511708	0.116048	0.882646
	C141	C	0.494039	0.116295	0.124941
	C142	C	0.512444	0.873517	0.126487
	C143	C	0.494970	0.873700	0.883045
	C144	C	0.383459	0.880065	0.681102
	C145	C	0.623063	0.110506	0.681751
	C146	C	0.623469	0.881576	0.326779
	C147	C	0.382998	0.110932	0.327215
	C148	C	0.680342	0.375269	0.888365
	C149	C	0.679125	0.613114	0.117773
	C150	C	0.326146	0.614694	0.888598
	C151	C	0.326504	0.376167	0.118146
	C152	C	0.887414	0.671897	0.384188
	C153	C	0.117807	0.671895	0.622367
	C154	C	0.887569	0.319178	0.622248
	C155	C	0.118152	0.319298	0.384496
	C156	C	0.887732	0.376172	0.679983
	C157	C	0.117367	0.615904	0.680680
	C158	C	0.887483	0.615058	0.326825
	C159	C	0.117727	0.375922	0.326295
	C160	C	0.383484	0.672930	0.888946
	C161	C	0.622690	0.671025	0.117906
	C162	C	0.622398	0.317429	0.888345
	C163	C	0.384096	0.318716	0.118258
	C164	C	0.678938	0.880759	0.386105
	C165	C	0.679956	0.110999	0.623811
	C166	C	0.326610	0.880132	0.623155
	C167	C	0.326606	0.111178	0.385413
	C168	C	0.883528	0.381062	0.179651
	C169	C	0.122415	0.611079	0.180354
	C170	C	0.122256	0.380561	0.825826
	C171	C	0.882773	0.610609	0.826031
	C172	C	0.180135	0.876109	0.388526
	C173	C	0.179604	0.114322	0.618245
	C174	C	0.826425	0.114912	0.389313
	C175	C	0.827086	0.877160	0.618477
	C176	C	0.387337	0.171126	0.884210
	C177	C	0.618263	0.171297	0.121866
	C178	C	0.388655	0.818287	0.123902
	C179	C	0.619385	0.819166	0.885808
	C180	C	0.388585	0.875391	0.181569
	C181	C	0.617810	0.115584	0.180618
	C182	C	0.387971	0.114669	0.826708
	C183	C	0.618527	0.874702	0.827088
	C184	C	0.884071	0.171848	0.388821
	C185	C	0.123313	0.172845	0.617788
	C186	C	0.122541	0.818576	0.388376
	C187	C	0.883898	0.818766	0.617945
	C188	C	0.178485	0.379875	0.884587
	C189	C	0.179116	0.611046	0.122176
	C190	C	0.827576	0.380553	0.121604
	C191	C	0.826598	0.610645	0.884389
	C192	C	0.404414	0.090053	0.603849
	C193	C	0.602629	0.900726	0.603945
	C194	C	0.602330	0.091640	0.404158
	C195	C	0.404660	0.901275	0.404789
	C196	C	0.603147	0.394844	0.097443
	C197	C	0.602550	0.594680	0.908131
	C198	C	0.403765	0.594818	0.097626
	C199	C	0.402881	0.394829	0.908492
	C200	C	0.098305	0.594506	0.403298
	C201	C	0.907150	0.594959	0.602681
	C202	C	0.098048	0.396723	0.602506
	C203	C	0.906995	0.395500	0.402919
	C204	C	0.903292	0.591315	0.103117
	C205	C	0.101970	0.400470	0.104036
	C206	C	0.101458	0.590175	0.904415
	C207	C	0.905034	0.400514	0.903522
	C208	C	0.102592	0.895541	0.597283
	C209	C	0.103202	0.095428	0.408707
	C210	C	0.904391	0.094982	0.598402
	C211	C	0.902891	0.895816	0.408642
	C212	C	0.598016	0.093807	0.904919
	C213	C	0.407347	0.094148	0.103472
	C214	C	0.598850	0.896107	0.104091
	C215	C	0.408508	0.895846	0.905312
	Zn216	Zn	0.503301	-0.005079	0.754910
	Zn217	Zn	0.503178	-0.003758	0.253945
	Zn218	Zn	0.754011	0.495263	0.003084
	Zn219	Zn	0.252630	0.494809	0.003520
	Zn220	Zn	0.003104	0.744521	0.502672
	Zn221	Zn	0.003108	0.245665	0.503076
	Zn222	Zn	0.002782	0.496023	0.752830
	Zn223	Zn	0.002104	0.496338	0.253452
	Zn224	Zn	0.503986	0.745525	0.003714
	Zn225	Zn	0.502355	0.244113	0.003158
	Zn226	Zn	0.753039	-0.003771	0.504096
	Zn227	Zn	0.253808	-0.004419	0.503731
	N228	N	0.417317	0.957846	0.682897
	N229	N	0.589660	0.032467	0.683369
	N230	N	0.590479	0.959736	0.324494
	N231	N	0.416921	0.032976	0.325320
	N232	N	0.682075	0.409021	0.965809
	N233	N	0.680635	0.579793	0.040109
	N234	N	0.324385	0.580874	0.966180
	N235	N	0.324545	0.409116	0.040249
	N236	N	0.965647	0.673088	0.417380
	N237	N	0.040103	0.672881	0.588176
	N238	N	0.965512	0.317859	0.588494
	N239	N	0.040061	0.318008	0.417980
	N240	N	0.965924	0.409680	0.681829
	N241	N	0.038969	0.582916	0.682353
	N242	N	0.965660	0.581478	0.325140
	N243	N	0.039359	0.409063	0.324021
	N244	N	0.417248	0.674412	0.966428
	N245	N	0.589413	0.673002	0.040195
	N246	N	0.588884	0.315720	0.966044
	N247	N	0.417240	0.316823	0.040529
	N248	N	0.679790	0.958694	0.419878
	N249	N	0.681487	0.033042	0.590243
	N250	N	0.325708	0.958015	0.589552
	N251	N	0.326218	0.033454	0.419325
	N252	N	0.916494	0.459366	0.181819
	N253	N	0.089010	0.532933	0.182851
	N254	N	0.089088	0.458829	0.824106
	N255	N	0.916605	0.532736	0.824007
	N256	N	0.182100	0.909232	0.466098
	N257	N	0.180850	0.080354	0.540910
	N258	N	0.824834	0.081732	0.467103
	N259	N	0.825263	0.910744	0.540893
	N260	N	0.465171	0.172459	0.918042
	N261	N	0.540268	0.171873	0.088015
	N262	N	0.466706	0.816887	0.090513
	N263	N	0.541621	0.818437	0.919871
	N264	N	0.466750	0.908986	0.183464
	N265	N	0.539768	0.081901	0.182577
	N266	N	0.466064	0.080816	0.825805
	N267	N	0.540231	0.908182	0.825442
	N268	N	0.918107	0.173061	0.466177
	N269	N	0.090302	0.175002	0.539966
	N270	N	0.088963	0.816705	0.466103
	N271	N	0.916726	0.816643	0.540123
	N272	N	0.179613	0.457452	0.918823
	N273	N	0.180490	0.532995	0.088945
	N274	N	0.826243	0.458370	0.088091
	N275	N	0.826299	0.532745	0.918401
	O276	O	1.018690	1.020782	-0.014138
	H277	H	1.016983	1.018089	-0.005464
	H278	H	1.036385	1.031642	-0.024184
	O279	O	0.036415	0.015002	-0.003550
	H280	H	0.042145	0.011851	0.002799
	H281	H	0.030637	0.014220	-0.017650
	O282	O	0.019153	-0.049960	0.989721
	H283	H	0.019786	-0.045564	0.985705
	H284	H	0.022355	-0.050934	0.996426
	O285	O	0.474199	0.577090	0.429129
	H286	H	0.476135	0.577497	0.443393
	H287	H	0.477423	0.582320	0.416488
	O288	O	0.479813	0.549463	0.428209
	H289	H	0.478148	0.557678	0.428225
	H290	H	0.490278	0.546226	0.430968
	O291	O	0.396617	0.565073	0.398576
	H292	H	0.393093	0.556050	0.401617
	H293	H	0.400648	0.568321	0.397674
	O294	O	-0.009623	0.014092	-0.025378
	H295	H	-0.010606	0.007564	-0.030772
	H296	H	-0.012750	0.006520	-0.025167
	O297	O	0.442891	0.555582	0.510188
	H298	H	0.444429	0.551413	0.521773
	H299	H	0.449939	0.555328	0.512193
	O300	O	-0.023188	1.057748	0.930675
	H301	H	-0.019408	1.065196	0.929100
	H302	H	-0.034319	1.059559	0.928333
	O303	O	0.486590	0.536777	0.529573
	H304	H	0.479354	0.552224	0.519863
	H305	H	0.479844	0.544801	0.535358
	O306	O	-0.030196	0.014006	0.940255
	H307	H	-0.021400	0.011757	0.946679
	H308	H	-0.027551	0.015603	0.947049
	O309	O	0.998285	0.965441	0.957571
	H310	H	0.988041	0.965975	0.951465
	H311	H	1.005730	0.976289	0.955084
	O312	O	0.420033	0.519613	0.516118
	H313	H	0.422811	0.525064	0.512655
	H314	H	0.414571	0.513693	0.507001
	O315	O	0.446826	0.553019	0.412217
	H316	H	0.436344	0.560738	0.404539
	H317	H	0.450607	0.552296	0.410382
	O318	O	0.033331	0.993097	-0.057015
	H319	H	0.026175	0.984154	-0.057555
	H320	H	0.035777	0.992396	-0.057795
	O321	O	0.999941	0.952656	-0.032856
	H322	H	0.996217	0.949619	-0.034980
	H323	H	0.995790	0.952615	-0.035796
