data_Molecule from HDF5

_cell_length_a		16.470167
_cell_length_b		16.568828
_cell_length_c		16.674531
_cell_angle_alpha	89.954965
_cell_angle_beta	89.897643
_cell_angle_gamma	90.014477
_symmetry_space_group_name_H-M	'P 1'
_symmetry_Int_Tables_number		1

loop_
	_symmetry_equiv_pos_as_xyz
	x,y,z

loop_
	_atom_site_label
	_atom_site_type_symbol
	_atom_site_fract_x
	_atom_site_fract_y
	_atom_site_fract_z
	H0	H	0.395426	0.841564	0.724993
	H1	H	0.609231	0.152319	0.725563
	H2	H	0.610632	0.840993	0.278396
	H3	H	0.395498	0.151709	0.279644
	H4	H	0.724347	0.392879	0.846504
	H5	H	0.725254	0.602454	0.157695
	H6	H	0.278772	0.606339	0.849571
	H7	H	0.275954	0.386719	0.154405
	H8	H	0.844362	0.718061	0.395613
	H9	H	0.157039	0.719242	0.606513
	H10	H	0.845865	0.275897	0.607304
	H11	H	0.159736	0.276185	0.397662
	H12	H	0.845630	0.390787	0.724289
	H13	H	0.155684	0.607157	0.726667
	H14	H	0.846740	0.604696	0.277101
	H15	H	0.158664	0.389774	0.279332
	H16	H	0.394506	0.722699	0.849412
	H17	H	0.612627	0.722607	0.156102
	H18	H	0.608427	0.274889	0.847040
	H19	H	0.392377	0.269916	0.154799
	H20	H	0.724466	0.840364	0.396644
	H21	H	0.723521	0.153687	0.607050
	H22	H	0.282572	0.839222	0.606382
	H23	H	0.280505	0.151959	0.396521
	H24	H	0.896188	0.341453	0.224390
	H25	H	0.112318	0.651060	0.226864
	H26	H	0.112094	0.344033	0.776733
	H27	H	0.893642	0.651822	0.778297
	H28	H	0.224829	0.889478	0.346598
	H29	H	0.219521	0.096167	0.658773
	H30	H	0.779504	0.104041	0.347026
	H31	H	0.777994	0.890594	0.656757
	H32	H	0.345231	0.217366	0.898116
	H33	H	0.660094	0.216543	0.105375
	H34	H	0.347732	0.772443	0.109488
	H35	H	0.660353	0.776566	0.896241
	H36	H	0.347496	0.886863	0.225745
	H37	H	0.658913	0.103277	0.224238
	H38	H	0.344930	0.101446	0.782488
	H39	H	0.658653	0.890029	0.778694
	H40	H	0.895901	0.220382	0.346852
	H41	H	0.105740	0.216560	0.657730
	H42	H	0.107341	0.773683	0.346378
	H43	H	0.893158	0.772434	0.655715
	H44	H	0.228936	0.344233	0.892155
	H45	H	0.226800	0.651515	0.108899
	H46	H	0.781787	0.340433	0.106894
	H47	H	0.780669	0.653460	0.896527
	H48	H	0.413200	0.108649	0.591663
	H49	H	0.594021	0.885020	0.589125
	H50	H	0.592216	0.111854	0.403242
	H51	H	0.414851	0.886635	0.419318
	H52	H	0.595567	0.401195	0.117186
	H53	H	0.597971	0.590289	0.887974
	H54	H	0.416971	0.580666	0.110806
	H55	H	0.416152	0.409264	0.891351
	H56	H	0.114464	0.584104	0.411191
	H57	H	0.889556	0.587935	0.585259
	H58	H	0.113252	0.410960	0.586402
	H59	H	0.890177	0.412868	0.412328
	H60	H	0.115585	0.411594	0.595227
	H61	H	0.891267	0.577504	0.590131
	H62	H	0.113529	0.586891	0.415973
	H63	H	0.889177	0.407379	0.412565
	H64	H	0.419889	0.585707	0.112301
	H65	H	0.591953	0.579669	0.894141
	H66	H	0.595720	0.413929	0.112126
	H67	H	0.416604	0.410058	0.892401
	H68	H	0.579711	0.103496	0.414252
	H69	H	0.588270	0.884249	0.594954
	H70	H	0.412673	0.108536	0.590805
	H71	H	0.409003	0.881709	0.410311
	H72	H	0.922619	0.607558	0.094368
	H73	H	0.087887	0.387584	0.087740
	H74	H	0.091018	0.608709	0.914010
	H75	H	0.912524	0.385070	0.913100
	H76	H	0.084881	0.906794	0.610597
	H77	H	0.090617	0.089595	0.389477
	H78	H	0.906100	0.085922	0.615287
	H79	H	0.912282	0.911677	0.391331
	H80	H	0.614911	0.085979	0.914113
	H81	H	0.392554	0.082949	0.085325
	H82	H	0.613205	0.914027	0.088086
	H83	H	0.389899	0.911339	0.908872
	H84	H	0.615617	0.910023	0.091921
	H85	H	0.390725	0.078988	0.093222
	H86	H	0.615398	0.083003	0.910905
	H87	H	0.388810	0.904227	0.915313
	H88	H	0.916684	0.081117	0.609611
	H89	H	0.094224	0.087678	0.388691
	H90	H	0.091763	0.904223	0.614070
	H91	H	0.917337	0.908717	0.392396
	H92	H	0.086835	0.608003	0.912503
	H93	H	0.090443	0.385104	0.089262
	H94	H	0.915240	0.606037	0.083054
	H95	H	0.916170	0.384999	0.911933
	H96	H	0.412550	0.108437	0.591818
	H97	H	0.586121	0.887308	0.587622
	H98	H	0.596661	0.107663	0.420024
	H99	H	0.420618	0.884475	0.409086
	H100	H	0.584449	0.406631	0.112034
	H101	H	0.584796	0.591003	0.892069
	H102	H	0.414197	0.584856	0.114352
	H103	H	0.417113	0.408338	0.892610
	H104	H	0.112194	0.581276	0.415375
	H105	H	0.885564	0.585926	0.595815
	H106	H	0.116801	0.403719	0.591089
	H107	H	0.891421	0.409420	0.416900
	H108	H	0.909259	0.611780	0.094111
	H109	H	0.087143	0.385809	0.091342
	H110	H	0.087824	0.607012	0.916913
	H111	H	0.915245	0.386704	0.914859
	H112	H	0.091168	0.911840	0.611077
	H113	H	0.090640	0.085743	0.390084
	H114	H	0.916839	0.092808	0.614395
	H115	H	0.912718	0.905730	0.390100
	H116	H	0.616903	0.086675	0.910120
	H117	H	0.388325	0.087594	0.091836
	H118	H	0.613851	0.908407	0.086205
	H119	H	0.393560	0.912261	0.917635
	C120	C	0.380598	0.005061	0.623622
	C121	C	0.622848	0.988551	0.623232
	C122	C	0.623385	0.004751	0.380166
	C123	C	0.381340	0.987409	0.380347
	C124	C	0.624190	0.375123	0.010775
	C125	C	0.625388	0.619789	0.993663
	C126	C	0.382609	0.618327	0.011095
	C127	C	0.381123	0.374632	0.993358
	C128	C	0.010307	0.618051	0.380329
	C129	C	0.991930	0.618075	0.623230
	C130	C	0.011462	0.376147	0.623832
	C131	C	0.994208	0.376850	0.381482
	C132	C	0.882157	0.505779	0.123450
	C133	C	0.123608	0.488089	0.123150
	C134	C	0.123793	0.506267	0.880251
	C135	C	0.881516	0.488634	0.881015
	C136	C	0.122880	0.874383	0.509867
	C137	C	0.123443	0.117932	0.492982
	C138	C	0.880635	0.119208	0.510414
	C139	C	0.880231	0.875566	0.493520
	C140	C	0.511364	0.117707	0.880466
	C141	C	0.494055	0.116691	0.122663
	C142	C	0.511424	0.876340	0.122522
	C143	C	0.494153	0.876095	0.880890
	C144	C	0.377932	0.888033	0.684138
	C145	C	0.626829	0.105829	0.684555
	C146	C	0.627615	0.887697	0.319223
	C147	C	0.377732	0.104667	0.319780
	C148	C	0.684381	0.373858	0.893313
	C149	C	0.685439	0.621513	0.110716
	C150	C	0.319757	0.623367	0.895669
	C151	C	0.317576	0.369494	0.108593
	C152	C	0.891898	0.677952	0.377513
	C153	C	0.109832	0.679543	0.625495
	C154	C	0.893102	0.315773	0.626046
	C155	C	0.112709	0.316471	0.379215
	C156	C	0.892977	0.372973	0.684116
	C157	C	0.109236	0.623704	0.684931
	C158	C	0.893183	0.622107	0.318151
	C159	C	0.112046	0.372833	0.320414
	C160	C	0.377531	0.681242	0.895682
	C161	C	0.629367	0.681220	0.109809
	C162	C	0.626710	0.315354	0.893554
	C163	C	0.375585	0.311441	0.108616
	C164	C	0.684318	0.887379	0.378132
	C165	C	0.683721	0.106396	0.625727
	C166	C	0.321744	0.886676	0.624980
	C167	C	0.320517	0.104827	0.378076
	C168	C	0.878395	0.388176	0.184156
	C169	C	0.128976	0.604554	0.185393
	C170	C	0.129363	0.390416	0.817466
	C171	C	0.877080	0.605443	0.819269
	C172	C	0.184051	0.871648	0.393057
	C173	C	0.180866	0.116611	0.611473
	C174	C	0.819765	0.122012	0.393819
	C175	C	0.818562	0.872322	0.610104
	C176	C	0.392600	0.177178	0.879429
	C177	C	0.612503	0.177281	0.124585
	C178	C	0.394303	0.813563	0.126824
	C179	C	0.612829	0.816211	0.878230
	C180	C	0.394320	0.870518	0.184725
	C181	C	0.611947	0.120892	0.183563
	C182	C	0.392417	0.120017	0.821441
	C183	C	0.611816	0.872636	0.819602
	C184	C	0.877499	0.180259	0.393677
	C185	C	0.124511	0.176422	0.610964
	C186	C	0.125724	0.813840	0.393061
	C187	C	0.875847	0.813651	0.609693
	C188	C	0.187088	0.390349	0.875269
	C189	C	0.185984	0.604831	0.126574
	C190	C	0.821630	0.387661	0.125564
	C191	C	0.820647	0.606161	0.878414
	C192	C	0.405585	0.087280	0.598589
	C193	C	0.596843	0.907023	0.597754
	C194	C	0.597076	0.086437	0.405282
	C195	C	0.407331	0.905612	0.405587
	C196	C	0.598890	0.399972	0.092475
	C197	C	0.599236	0.594317	0.912395
	C198	C	0.409434	0.591299	0.091592
	C199	C	0.408739	0.401662	0.913071
	C200	C	0.092211	0.591517	0.406575
	C201	C	0.910012	0.591359	0.597832
	C202	C	0.093784	0.401759	0.598460
	C203	C	0.911836	0.402511	0.406912
	C204	C	0.908350	0.587206	0.097840
	C205	C	0.096281	0.407159	0.096972
	C206	C	0.096465	0.586998	0.906926
	C207	C	0.907295	0.406806	0.906190
	C208	C	0.096610	0.900212	0.590771
	C209	C	0.098907	0.094526	0.410695
	C210	C	0.906207	0.093812	0.591831
	C211	C	0.906647	0.901456	0.412311
	C212	C	0.594070	0.092593	0.904651
	C213	C	0.412000	0.090695	0.097424
	C214	C	0.592994	0.903280	0.096316
	C215	C	0.412085	0.901810	0.906670
	Zn216	Zn	0.501917	-0.003409	0.752472
	Zn217	Zn	0.502420	-0.003794	0.251344
	Zn218	Zn	0.753149	0.497065	0.002899
	Zn219	Zn	0.252771	0.496993	0.001861
	Zn220	Zn	0.000432	0.745839	0.501488
	Zn221	Zn	0.002528	0.248104	0.501719
	Zn222	Zn	0.001969	0.497430	0.751732
	Zn223	Zn	0.002644	0.496692	0.252883
	Zn224	Zn	0.503409	0.748234	0.001909
	Zn225	Zn	0.502684	0.245689	0.002011
	Zn226	Zn	0.751824	-0.002519	0.501978
	Zn227	Zn	0.252669	-0.004370	0.501781
	N228	N	0.413707	0.962808	0.683518
	N229	N	0.589822	0.031676	0.683323
	N230	N	0.590625	0.961799	0.320222
	N231	N	0.414572	0.030409	0.320858
	N232	N	0.683087	0.410125	0.967336
	N233	N	0.683164	0.584131	0.037330
	N234	N	0.322792	0.584857	0.968419
	N235	N	0.321145	0.408245	0.035854
	N236	N	0.965931	0.675676	0.415201
	N237	N	0.035814	0.676215	0.587922
	N238	N	0.967805	0.317321	0.589340
	N239	N	0.038405	0.318854	0.416657
	N240	N	0.967876	0.409519	0.683093
	N241	N	0.034831	0.586308	0.683812
	N242	N	0.968061	0.585511	0.319836
	N243	N	0.037404	0.409671	0.321853
	N244	N	0.415745	0.678515	0.968652
	N245	N	0.592868	0.680311	0.035799
	N246	N	0.590491	0.315697	0.967804
	N247	N	0.414260	0.314438	0.035899
	N248	N	0.681783	0.961210	0.415444
	N249	N	0.681431	0.032585	0.588297
	N250	N	0.323166	0.960741	0.588055
	N251	N	0.322480	0.030743	0.414988
	N252	N	0.915114	0.462581	0.183280
	N253	N	0.090752	0.530950	0.183493
	N254	N	0.090892	0.463609	0.820271
	N255	N	0.914195	0.531323	0.820736
	N256	N	0.182410	0.908523	0.466680
	N257	N	0.180562	0.081492	0.537004
	N258	N	0.821619	0.084817	0.467350
	N259	N	0.821227	0.910149	0.536782
	N260	N	0.467507	0.175923	0.915308
	N261	N	0.538158	0.174990	0.087420
	N262	N	0.468239	0.816687	0.089032
	N263	N	0.538472	0.818030	0.915542
	N264	N	0.468289	0.908702	0.182470
	N265	N	0.537350	0.084171	0.182654
	N266	N	0.467534	0.083954	0.821679
	N267	N	0.536985	0.909079	0.820973
	N268	N	0.914545	0.178866	0.467368
	N269	N	0.089711	0.177704	0.536042
	N270	N	0.088550	0.815099	0.466772
	N271	N	0.913391	0.815599	0.536189
	N272	N	0.183965	0.463556	0.913548
	N273	N	0.182616	0.531475	0.088541
	N274	N	0.823599	0.461746	0.088615
	N275	N	0.823202	0.532575	0.916143
	O276	O	0.213252	0.782331	-0.019113
	H277	H	0.220342	0.770260	-0.043905
	H278	H	0.226306	0.777020	-0.038929
	O279	O	0.284046	0.503866	0.350366
	H280	H	0.271250	0.483101	0.348386
	H281	H	0.282446	0.501514	0.346607
	O282	O	0.990442	0.213912	1.143811
	H283	H	0.975618	0.214843	1.142762
	H284	H	0.978801	0.204411	1.140164
	O285	O	0.474097	0.286127	0.712964
	H286	H	0.482588	0.264070	0.725054
	H287	H	0.493975	0.284016	0.690129
	O288	O	0.457647	0.710984	0.603246
	H289	H	0.441181	0.709251	0.587389
	H290	H	0.456310	0.699320	0.596420
	O291	O	0.279895	0.271283	0.533388
	H292	H	0.271825	0.265791	0.560956
	H293	H	0.259235	0.252076	0.556955
	O294	O	0.930269	0.044506	1.003932
	H295	H	0.916105	0.059495	1.006662
	H296	H	0.946186	0.042398	1.001211
	O297	O	0.473640	0.709167	0.288298
	H298	H	0.488785	0.702247	0.284306
	H299	H	0.487048	0.711805	0.274866
	O300	O	0.023101	0.217140	0.863997
	H301	H	0.027967	0.212012	0.861652
	H302	H	0.036960	0.221521	0.866516
	O303	O	0.628761	0.692031	0.372622
	H304	H	0.646586	0.698172	0.365282
	H305	H	0.626903	0.675809	0.374627
	O306	O	0.725423	0.331602	0.502537
	H307	H	0.740773	0.328158	0.482481
	H308	H	0.727462	0.323192	0.476509
	O309	O	0.592381	0.407713	0.711703
	H310	H	0.590702	0.389808	0.707503
	H311	H	0.592011	0.405994	0.698561
	O312	O	0.574387	0.577059	0.612778
	H313	H	0.564403	0.571267	0.607505
	H314	H	0.564237	0.573517	0.614835
	O315	O	0.850742	1.052108	0.849893
	H316	H	0.854494	1.045882	0.841501
	H317	H	0.850057	1.046536	0.848063
	O318	O	0.403750	0.517027	0.509346
	H319	H	0.391170	0.514634	0.506395
	H320	H	0.406126	0.513488	0.499662
	O321	O	0.205587	0.788773	0.795484
	H322	H	0.229846	0.774765	0.768895
	H323	H	0.193247	0.792219	0.787094
	O324	O	0.976096	0.781544	0.214727
	H325	H	0.987045	0.753075	0.235431
	H326	H	0.990425	0.781133	0.184875
	O327	O	0.109825	0.039246	1.145995
	H328	H	0.103522	0.035843	1.149342
	H329	H	0.106205	0.040025	1.139142
	O330	O	0.680008	0.541954	0.525471
	H331	H	0.683801	0.540847	0.515530
	H332	H	0.681489	0.533624	0.513898
	O333	O	0.709313	0.526881	0.712828
	H334	H	0.711907	0.519561	0.700307
	H335	H	0.711984	0.523920	0.722714
	O336	O	0.708728	0.291211	0.295762
	H337	H	0.722735	0.281055	0.272181
	H338	H	0.675355	0.279587	0.286959
	O339	O	0.860623	0.137331	1.189090
	H340	H	0.876043	0.119425	1.183404
	H341	H	0.861673	0.130980	1.173169
	O342	O	0.193250	-0.110810	0.188184
	H343	H	0.205644	-0.121973	0.193512
	H344	H	0.200774	-0.111090	0.182171
	O345	O	-0.057325	1.223194	0.979468
	H346	H	-0.067682	1.220570	0.958164
	H347	H	-0.056344	1.235578	0.975919
	O348	O	0.201789	0.153238	0.000609
	H349	H	0.216565	0.172197	0.007169
	H350	H	0.207726	0.144249	-0.005285
	O351	O	0.546955	0.686213	0.458222
	H352	H	0.547512	0.667278	0.448770
	H353	H	0.556700	0.682469	0.449092
	O354	O	0.123452	-0.009693	0.984327
	H355	H	0.119429	-0.013682	0.994715
	H356	H	0.126250	-0.011735	0.984655
	O357	O	0.624278	0.311095	0.646351
	H358	H	0.636972	0.306760	0.647701
	H359	H	0.634689	0.322729	0.646211
	O360	O	0.284985	0.482722	0.721625
	H361	H	0.286581	0.461838	0.726345
	H362	H	0.271922	0.476880	0.737681
	O363	O	0.044798	-0.054461	0.225561
	H364	H	0.060704	-0.069676	0.225995
	H365	H	0.042544	-0.066155	0.223272
	O366	O	0.406557	0.523387	0.609363
	H367	H	0.396190	0.511818	0.612989
	H368	H	0.421792	0.507790	0.606748
	O369	O	0.817716	0.068231	0.097485
	H370	H	0.818715	0.074881	0.083537
	H371	H	0.821045	0.069566	0.093057
	O372	O	0.790114	0.776343	0.024727
	H373	H	0.757330	0.745223	0.030148
	H374	H	0.809786	0.784454	0.025100
	O375	O	0.780524	-0.032388	0.226378
	H376	H	0.770759	-0.059891	0.233550
	H377	H	0.758939	-0.036149	0.227563
	O378	O	0.511959	0.505638	0.264775
	H379	H	0.496328	0.491506	0.260023
	H380	H	0.523832	0.506040	0.265882
	O381	O	0.027517	0.781744	0.785331
	H382	H	0.035593	0.771402	0.785945
	H383	H	0.039200	0.768591	0.782028
	O384	O	0.791526	0.208967	0.919157
	H385	H	0.796912	0.212675	0.912547
	H386	H	0.776498	0.203777	0.896707
	O387	O	0.745826	0.756420	-0.224029
	H388	H	0.733561	0.746436	-0.239916
	H389	H	0.722889	0.739529	-0.234665
	O390	O	0.533585	0.285528	0.284442
	H391	H	0.524455	0.270768	0.272685
	H392	H	0.513788	0.290444	0.287994
	O393	O	0.507916	0.518317	0.705215
	H394	H	0.520532	0.516088	0.711161
	H395	H	0.528979	0.522533	0.697187
	O396	O	0.043861	1.060012	0.786243
	H397	H	0.044543	1.033810	0.779767
	H398	H	0.026350	1.054313	0.789280
	O399	O	-0.055628	-0.126520	0.826826
	H400	H	-0.055364	-0.129782	0.830207
	H401	H	-0.056537	-0.142340	0.824149
	O402	O	0.285396	0.714398	0.473076
	H403	H	0.252459	0.744790	0.471887
	H404	H	0.305828	0.704660	0.470784
	O405	O	0.881149	-0.076164	0.997679
	H406	H	0.883274	-0.083689	0.998998
	H407	H	0.879609	-0.061077	1.010616
	O408	O	0.058468	-0.154040	0.016794
	H409	H	0.057033	-0.142054	0.006028
	H410	H	0.063151	-0.154533	0.014715
	O411	O	0.680035	0.665717	0.535840
	H412	H	0.676019	0.667666	0.544052
	H413	H	0.695193	0.671912	0.536151
	O414	O	0.529944	0.342945	0.528260
	H415	H	0.534688	0.337589	0.526479
	H416	H	0.544528	0.343240	0.529926
	O417	O	0.378515	0.468823	0.274818
	H418	H	0.364186	0.474258	0.273098
	H419	H	0.368228	0.466702	0.277145
	O420	O	0.311385	0.686801	0.694770
	H421	H	0.339291	0.671255	0.685375
	H422	H	0.322370	0.663095	0.674559
	O423	O	0.294638	0.287132	0.700602
	H424	H	0.330103	0.291424	0.712589
	H425	H	0.282655	0.271376	0.730268
	O426	O	0.601504	0.483366	0.431420
	H427	H	0.591693	0.489449	0.424230
	H428	H	0.597261	0.473919	0.422080
	O429	O	1.010207	1.025427	0.999238
	H430	H	1.013000	1.023161	0.996827
	H431	H	1.005544	1.017280	0.999507
	O432	O	0.564726	0.690839	0.677600
	H433	H	0.559366	0.684276	0.664728
	H434	H	0.560078	0.703404	0.687480
	O435	O	0.203681	1.046301	0.001962
	H436	H	0.201498	1.045524	-0.002605
	H437	H	0.204154	1.026170	0.011027
	O438	O	0.218512	0.072520	0.162410
	H439	H	0.236246	0.074115	0.187161
	H440	H	0.207857	0.075930	0.169966
	O441	O	0.196594	0.195056	0.205781
	H442	H	0.175259	0.180500	0.202940
	H443	H	0.180718	0.185180	0.198498
	O444	O	0.323296	0.316297	0.317936
	H445	H	0.338448	0.323953	0.338116
	H446	H	0.303300	0.299209	0.305624
	O447	O	0.213898	0.952260	0.800069
	H448	H	0.222580	0.956772	0.794313
	H449	H	0.217606	0.947541	0.793140
	O450	O	0.188182	1.179994	0.808330
	H451	H	0.170188	1.157720	0.816337
	H452	H	0.181694	1.177483	0.829217
	O453	O	0.333361	0.380276	0.450932
	H454	H	0.328624	0.374938	0.457978
	H455	H	0.325838	0.371577	0.458763
	O456	O	-0.162681	-0.007415	0.783598
	H457	H	-0.179749	-0.021645	0.769371
	H458	H	-0.150218	-0.029150	0.798260
	O459	O	0.812006	0.806716	0.193439
	H460	H	0.813323	0.819910	0.175513
	H461	H	0.851262	0.794948	0.191884
	O462	O	0.719661	0.470241	0.282589
	H463	H	0.729957	0.464842	0.284102
	H464	H	0.733094	0.450896	0.271396
	O465	O	0.960154	0.017557	0.155033
	H466	H	0.958434	-0.005622	0.160922
	H467	H	0.958753	-0.001646	0.168478
	O468	O	0.297044	0.702570	0.293683
	H469	H	0.313738	0.692468	0.300994
	H470	H	0.319861	0.700847	0.312500
	O471	O	0.474676	0.426508	0.522546
	H472	H	0.459820	0.430079	0.504651
	H473	H	0.480650	0.418072	0.528877
	O474	O	-0.013350	0.875659	0.026839
	H475	H	0.000121	0.878521	0.034977
	H476	H	-0.022361	0.874657	0.023683
	O477	O	0.659111	0.559430	1.378557
	H478	H	0.663460	0.542886	1.376644
	H479	H	0.664397	0.570245	1.395237
	O480	O	0.484821	0.297933	0.428236
	H481	H	0.480296	0.295573	0.431856
	H482	H	0.470208	0.285598	0.440407
	O483	O	0.462089	0.512948	0.530852
	H484	H	0.453144	0.508966	0.521093
	H485	H	0.470179	0.500049	0.529435
	O486	O	0.851656	0.205777	0.792942
	H487	H	0.854305	0.188542	0.795793
	H488	H	0.883490	0.210840	0.794078
	O489	O	0.865041	0.894374	-0.117911
	H490	H	0.852714	0.872567	-0.129015
	H491	H	0.870999	0.892226	-0.113292
