data_Molecule from HDF5

_cell_length_a		16.265743
_cell_length_b		16.119970
_cell_length_c		16.287698
_cell_angle_alpha	90.210925
_cell_angle_beta	89.881073
_cell_angle_gamma	89.907618
_symmetry_space_group_name_H-M	'P 1'
_symmetry_Int_Tables_number		1

loop_
	_symmetry_equiv_pos_as_xyz
	x,y,z

loop_
	_atom_site_label
	_atom_site_type_symbol
	_atom_site_fract_x
	_atom_site_fract_y
	_atom_site_fract_z
	H0	H	0.405710	0.836938	0.711196
	H1	H	0.603273	0.166587	0.710680
	H2	H	0.604644	0.838757	0.281599
	H3	H	0.406661	0.167824	0.286569
	H4	H	0.720152	0.403675	0.834856
	H5	H	0.718495	0.604590	0.161816
	H6	H	0.287588	0.604655	0.835386
	H7	H	0.290012	0.406335	0.162174
	H8	H	0.841137	0.716181	0.402499
	H9	H	0.169833	0.715464	0.596252
	H10	H	0.839628	0.290047	0.595103
	H11	H	0.169171	0.290262	0.401180
	H12	H	0.840004	0.402639	0.713723
	H13	H	0.167320	0.602368	0.715412
	H14	H	0.841498	0.603008	0.283599
	H15	H	0.167241	0.400846	0.281017
	H16	H	0.407680	0.716621	0.833258
	H17	H	0.599588	0.717394	0.162112
	H18	H	0.603021	0.289541	0.833902
	H19	H	0.407097	0.291109	0.162295
	H20	H	0.719773	0.838750	0.396734
	H21	H	0.716079	0.167561	0.595845
	H22	H	0.291952	0.835845	0.594482
	H23	H	0.291525	0.166788	0.400169
	H24	H	0.905652	0.337321	0.210876
	H25	H	0.102058	0.667251	0.212856
	H26	H	0.102804	0.337737	0.784612
	H27	H	0.904897	0.667644	0.785961
	H28	H	0.219812	0.900701	0.333424
	H29	H	0.219937	0.101723	0.660634
	H30	H	0.789226	0.103047	0.334438
	H31	H	0.787503	0.902944	0.660355
	H32	H	0.339994	0.216999	0.900944
	H33	H	0.669534	0.216129	0.093399
	H34	H	0.339420	0.793137	0.093249
	H35	H	0.668694	0.789592	0.899268
	H36	H	0.341843	0.903746	0.213028
	H37	H	0.668191	0.103311	0.212462
	H38	H	0.341260	0.104047	0.780693
	H39	H	0.667865	0.902087	0.781077
	H40	H	0.908026	0.215399	0.333463
	H41	H	0.100520	0.215479	0.662549
	H42	H	0.102918	0.787074	0.334031
	H43	H	0.907160	0.789582	0.662107
	H44	H	0.219153	0.338566	0.898695
	H45	H	0.217271	0.667613	0.099195
	H46	H	0.790455	0.337951	0.096407
	H47	H	0.791345	0.667945	0.901711
	H48	H	0.414450	0.119525	0.593848
	H49	H	0.604324	0.882375	0.586279
	H50	H	0.591312	0.118701	0.406900
	H51	H	0.412802	0.884784	0.407644
	H52	H	0.590431	0.408979	0.112957
	H53	H	0.599748	0.610178	0.876839
	H54	H	0.409879	0.593261	0.112506
	H55	H	0.412860	0.412564	0.882466
	H56	H	0.120895	0.598583	0.410517
	H57	H	0.887839	0.594417	0.590848
	H58	H	0.122682	0.414330	0.602857
	H59	H	0.888067	0.412459	0.404072
	H60	H	0.123396	0.399057	0.590622
	H61	H	0.887159	0.595414	0.595048
	H62	H	0.119119	0.585852	0.405675
	H63	H	0.886385	0.409245	0.400805
	H64	H	0.413431	0.601197	0.115086
	H65	H	0.610924	0.587656	0.881002
	H66	H	0.602364	0.405678	0.118128
	H67	H	0.411528	0.410419	0.881369
	H68	H	0.602448	0.121827	0.410195
	H69	H	0.594580	0.881720	0.595809
	H70	H	0.413565	0.117674	0.585323
	H71	H	0.408329	0.882310	0.401196
	H72	H	0.907359	0.622192	0.092867
	H73	H	0.103147	0.382838	0.089753
	H74	H	0.096930	0.618266	0.915321
	H75	H	0.906074	0.384770	0.911141
	H76	H	0.097540	0.898754	0.616207
	H77	H	0.101067	0.096908	0.379740
	H78	H	0.912039	0.107246	0.616327
	H79	H	0.900404	0.899245	0.374213
	H80	H	0.624042	0.100670	0.899411
	H81	H	0.385489	0.101138	0.095158
	H82	H	0.618963	0.918077	0.088772
	H83	H	0.389142	0.912729	0.909116
	H84	H	0.623938	0.909886	0.096533
	H85	H	0.388370	0.097250	0.088297
	H86	H	0.619716	0.096705	0.908712
	H87	H	0.387721	0.916311	0.898878
	H88	H	0.899174	0.090957	0.616301
	H89	H	0.099802	0.094417	0.380385
	H90	H	0.110356	0.915178	0.616837
	H91	H	0.908806	0.927179	0.385304
	H92	H	0.103401	0.624449	0.901382
	H93	H	0.095075	0.383863	0.094366
	H94	H	0.913771	0.621022	0.096125
	H95	H	0.909020	0.381588	0.898817
	H96	H	0.407190	0.120451	0.589932
	H97	H	0.592077	0.886532	0.583438
	H98	H	0.598988	0.123615	0.398238
	H99	H	0.415862	0.883321	0.400614
	H100	H	0.600857	0.418409	0.112886
	H101	H	0.585694	0.590566	0.885456
	H102	H	0.405189	0.599900	0.116720
	H103	H	0.410020	0.412815	0.882124
	H104	H	0.124879	0.595867	0.397948
	H105	H	0.887626	0.598635	0.592099
	H106	H	0.116937	0.415998	0.585017
	H107	H	0.886623	0.407720	0.405329
	H108	H	0.913314	0.619453	0.088677
	H109	H	0.095184	0.385936	0.085839
	H110	H	0.087015	0.619866	0.901665
	H111	H	0.918441	0.386755	0.906251
	H112	H	0.090265	0.917215	0.609834
	H113	H	0.098068	0.097296	0.380843
	H114	H	0.918398	0.088335	0.609858
	H115	H	0.929195	0.904176	0.384965
	H116	H	0.620028	0.090209	0.900472
	H117	H	0.387820	0.093201	0.095322
	H118	H	0.622293	0.907406	0.085414
	H119	H	0.385426	0.905957	0.901777
	C120	C	0.382982	0.010332	0.618367
	C121	C	0.625373	0.993061	0.617666
	C122	C	0.626404	0.012148	0.375449
	C123	C	0.383919	0.993034	0.375939
	C124	C	0.626612	0.382023	0.006614
	C125	C	0.626619	0.625717	0.989416
	C126	C	0.381654	0.626199	0.006483
	C127	C	0.382789	0.383015	0.990002
	C128	C	0.013492	0.623033	0.376832
	C129	C	0.995992	0.624969	0.621167
	C130	C	0.012379	0.381223	0.620672
	C131	C	0.995924	0.380910	0.375317
	C132	C	0.882993	0.511464	0.120094
	C133	C	0.125160	0.493805	0.119151
	C134	C	0.125496	0.511860	0.877066
	C135	C	0.882770	0.493787	0.877501
	C136	C	0.126850	0.881068	0.505933
	C137	C	0.126845	0.124398	0.488855
	C138	C	0.882025	0.124656	0.506220
	C139	C	0.883304	0.881335	0.489388
	C140	C	0.513057	0.125049	0.874906
	C141	C	0.496165	0.125450	0.120046
	C142	C	0.513320	0.883113	0.118436
	C143	C	0.495797	0.881898	0.874938
	C144	C	0.385509	0.886047	0.673322
	C145	C	0.623106	0.117386	0.673097
	C146	C	0.624834	0.887903	0.319730
	C147	C	0.386561	0.118163	0.323358
	C148	C	0.682027	0.383649	0.883678
	C149	C	0.680822	0.624389	0.112704
	C150	C	0.326080	0.624398	0.883712
	C151	C	0.327901	0.385654	0.113213
	C152	C	0.889976	0.678432	0.380884
	C153	C	0.120018	0.678800	0.617614
	C154	C	0.888821	0.326947	0.616624
	C155	C	0.119631	0.326865	0.379631
	C156	C	0.888863	0.383190	0.675386
	C157	C	0.119108	0.622213	0.676453
	C158	C	0.890470	0.622537	0.321361
	C159	C	0.118928	0.381888	0.319896
	C160	C	0.385864	0.680017	0.882608
	C161	C	0.621915	0.680776	0.112876
	C162	C	0.623675	0.326952	0.883146
	C163	C	0.385940	0.328409	0.113292
	C164	C	0.681717	0.887850	0.376991
	C165	C	0.679626	0.117652	0.616079
	C166	C	0.329065	0.885485	0.615322
	C167	C	0.328953	0.117480	0.379154
	C168	C	0.885519	0.386802	0.173553
	C169	C	0.122288	0.618211	0.174926
	C170	C	0.123311	0.387198	0.822333
	C171	C	0.884946	0.618177	0.823307
	C172	C	0.181628	0.882048	0.382302
	C173	C	0.181525	0.121874	0.612250
	C174	C	0.827234	0.122701	0.383079
	C175	C	0.826852	0.883470	0.612030
	C176	C	0.389424	0.179926	0.879041
	C177	C	0.620151	0.179309	0.115250
	C178	C	0.389077	0.829342	0.114805
	C179	C	0.619412	0.826673	0.878064
	C180	C	0.390228	0.884312	0.174293
	C181	C	0.619494	0.123517	0.174696
	C182	C	0.390086	0.123481	0.819496
	C183	C	0.619148	0.882445	0.819306
	C184	C	0.886384	0.178551	0.382622
	C185	C	0.122182	0.178307	0.612973
	C186	C	0.124024	0.825048	0.382679
	C187	C	0.885962	0.826919	0.612925
	C188	C	0.181461	0.387822	0.878727
	C189	C	0.179599	0.618348	0.118430
	C190	C	0.828433	0.386888	0.116623
	C191	C	0.828765	0.618472	0.881063
	C192	C	0.405242	0.096868	0.596325
	C193	C	0.603305	0.906024	0.595025
	C194	C	0.604059	0.098989	0.398229
	C195	C	0.405834	0.906006	0.397003
	C196	C	0.604418	0.404494	0.092693
	C197	C	0.605208	0.602871	0.903408
	C198	C	0.402996	0.604659	0.092483
	C199	C	0.404988	0.405375	0.904200
	C200	C	0.099501	0.600003	0.398495
	C201	C	0.909769	0.602834	0.599178
	C202	C	0.098734	0.403472	0.599352
	C203	C	0.909373	0.403337	0.396954
	C204	C	0.904813	0.598415	0.098793
	C205	C	0.103856	0.406741	0.096652
	C206	C	0.102532	0.598363	0.899470
	C207	C	0.904771	0.406830	0.899000
	C208	C	0.105582	0.903644	0.592093
	C209	C	0.105931	0.102759	0.402689
	C210	C	0.903591	0.102213	0.591974
	C211	C	0.906018	0.903643	0.403750
	C212	C	0.599129	0.102453	0.896605
	C213	C	0.409749	0.103756	0.099164
	C214	C	0.599341	0.905181	0.096607
	C215	C	0.409796	0.904953	0.896715
	Zn216	Zn	0.504935	0.001865	0.745724
	Zn217	Zn	0.504772	0.003394	0.248596
	Zn218	Zn	0.755318	0.503232	-0.001003
	Zn219	Zn	0.253094	0.504062	-0.001599
	Zn220	Zn	0.005525	0.752531	0.498214
	Zn221	Zn	0.004093	0.253370	0.497882
	Zn222	Zn	0.003483	0.502328	0.749586
	Zn223	Zn	0.004774	0.501853	0.247204
	Zn224	Zn	0.504330	0.754372	-0.002910
	Zn225	Zn	0.504380	0.253637	-0.001972
	Zn226	Zn	0.753246	0.002742	0.497130
	Zn227	Zn	0.255770	0.001454	0.496471
	N228	N	0.418402	0.964703	0.675463
	N229	N	0.590274	0.038749	0.674276
	N230	N	0.591176	0.966161	0.318732
	N231	N	0.420125	0.039713	0.321164
	N232	N	0.684318	0.416779	0.961486
	N233	N	0.683954	0.590911	0.034807
	N234	N	0.323211	0.591846	0.961669
	N235	N	0.326125	0.419200	0.035624
	N236	N	0.967436	0.679050	0.414415
	N237	N	0.042480	0.680515	0.584005
	N238	N	0.966472	0.325672	0.583231
	N239	N	0.041921	0.326061	0.413388
	N240	N	0.967028	0.416000	0.678093
	N241	N	0.040997	0.589338	0.678766
	N242	N	0.968253	0.588723	0.318867
	N243	N	0.040818	0.414589	0.317160
	N244	N	0.419691	0.681396	0.959871
	N245	N	0.588765	0.681666	0.035348
	N246	N	0.589737	0.325922	0.960630
	N247	N	0.419350	0.326589	0.035663
	N248	N	0.682807	0.966155	0.410898
	N249	N	0.681070	0.039344	0.582273
	N250	N	0.327481	0.963710	0.581980
	N251	N	0.327130	0.038758	0.411122
	N252	N	0.918969	0.465001	0.175624
	N253	N	0.089137	0.539652	0.175445
	N254	N	0.089370	0.465245	0.821042
	N255	N	0.917586	0.539463	0.820796
	N256	N	0.183923	0.915884	0.460095
	N257	N	0.184676	0.089019	0.534152
	N258	N	0.824497	0.089755	0.460832
	N259	N	0.825049	0.916506	0.534175
	N260	N	0.466862	0.180874	0.912785
	N261	N	0.542479	0.180725	0.082183
	N262	N	0.466615	0.828175	0.080860
	N263	N	0.541687	0.826164	0.911902
	N264	N	0.468256	0.917123	0.176820
	N265	N	0.541533	0.090653	0.177759
	N266	N	0.468060	0.090242	0.816560
	N267	N	0.541470	0.916347	0.817509
	N268	N	0.919877	0.179911	0.460097
	N269	N	0.088912	0.180024	0.535453
	N270	N	0.090564	0.824404	0.460235
	N271	N	0.920635	0.825757	0.535777
	N272	N	0.182872	0.466449	0.911975
	N273	N	0.181475	0.540175	0.084501
	N274	N	0.826722	0.465509	0.083943
	N275	N	0.827347	0.540180	0.914067
	O276	O	0.950030	0.950108	-0.036863
	H277	H	0.954546	0.948497	-0.037335
	H278	H	0.953164	0.949382	-0.037970
	O279	O	0.039227	0.018784	-0.076784
	H280	H	0.032211	0.023478	-0.085499
	H281	H	0.038366	0.004224	-0.075575
	O282	O	0.032452	-0.019709	0.976443
	H283	H	0.038004	-0.021971	0.975881
	H284	H	0.024221	-0.013056	0.973126
	O285	O	0.518163	0.502749	0.527590
	H286	H	0.517116	0.500759	0.523835
	H287	H	0.510763	0.501786	0.529767
	O288	O	0.009708	0.109467	0.888216
	H289	H	0.003786	0.109684	0.894026
	H290	H	0.011534	0.103668	0.879692
	O291	O	0.420507	0.571993	0.478657
	H292	H	0.421731	0.575218	0.474838
	H293	H	0.417113	0.567873	0.479305
	O294	O	0.028781	-0.047565	-0.037860
	H295	H	0.029877	-0.042268	-0.050128
	H296	H	0.024513	-0.042274	-0.032014
	O297	O	0.471737	0.392496	0.532995
	H298	H	0.470147	0.378126	0.537515
	H299	H	0.482395	0.389888	0.530953
	O300	O	0.023024	0.985440	1.000254
	H301	H	0.023481	0.982248	0.998192
	H302	H	0.015028	0.981042	0.998145
	O303	O	0.497872	0.436526	0.499057
	H304	H	0.498554	0.433885	0.495298
	H305	H	0.495063	0.440553	0.500197
	O306	O	0.025398	-0.010837	0.997947
	H307	H	0.034794	-0.014344	1.005387
	H308	H	0.031354	-0.013577	0.996895
	O309	O	1.001740	0.978771	0.984094
	H310	H	1.001952	0.977731	0.983166
	H311	H	1.000982	0.970139	0.987986
	O312	O	0.531883	0.409169	0.525221
	H313	H	0.533376	0.423335	0.523392
	H314	H	0.537327	0.405482	0.524204
	O315	O	0.477333	0.456805	0.563867
	H316	H	0.475481	0.450824	0.570809
	H317	H	0.471831	0.450553	0.567471
	O318	O	-0.002467	0.978388	-0.045655
	H319	H	0.000990	0.985793	-0.048023
	H320	H	-0.000027	0.980728	-0.043202
	O321	O	0.954258	0.981489	0.009499
	H322	H	0.945606	0.978551	0.012761
	H323	H	0.944108	0.980547	0.009627
