data_Molecule from HDF5

_cell_length_a		16.369466
_cell_length_b		16.304540
_cell_length_c		16.434635
_cell_angle_alpha	89.775694
_cell_angle_beta	89.943011
_cell_angle_gamma	90.178245
_symmetry_space_group_name_H-M	'P 1'
_symmetry_Int_Tables_number		1

loop_
	_symmetry_equiv_pos_as_xyz
	x,y,z

loop_
	_atom_site_label
	_atom_site_type_symbol
	_atom_site_fract_x
	_atom_site_fract_y
	_atom_site_fract_z
	H0	H	0.381756	0.844403	0.721837
	H1	H	0.593177	0.165531	0.715940
	H2	H	0.596167	0.846752	0.274760
	H3	H	0.379145	0.162022	0.273711
	H4	H	0.713409	0.397314	0.840565
	H5	H	0.712260	0.610798	0.155379
	H6	H	0.265684	0.613497	0.841227
	H7	H	0.266897	0.396318	0.155890
	H8	H	0.829680	0.722448	0.391666
	H9	H	0.148705	0.724428	0.600666
	H10	H	0.829507	0.281817	0.603162
	H11	H	0.147053	0.279953	0.391281
	H12	H	0.831725	0.394216	0.722017
	H13	H	0.147663	0.612205	0.720736
	H14	H	0.831725	0.609152	0.273540
	H15	H	0.147767	0.394804	0.274537
	H16	H	0.383481	0.726970	0.839560
	H17	H	0.593922	0.724952	0.156123
	H18	H	0.595841	0.282925	0.839349
	H19	H	0.381872	0.280280	0.155710
	H20	H	0.708388	0.844558	0.393075
	H21	H	0.710787	0.163240	0.602746
	H22	H	0.266558	0.843319	0.605555
	H23	H	0.266343	0.162648	0.391874
	H24	H	0.884898	0.343365	0.217760
	H25	H	0.094188	0.663687	0.216742
	H26	H	0.096437	0.344505	0.776609
	H27	H	0.883391	0.662416	0.774484
	H28	H	0.210648	0.896782	0.340427
	H29	H	0.211242	0.109614	0.656089
	H30	H	0.771134	0.105833	0.339217
	H31	H	0.767021	0.895032	0.657200
	H32	H	0.330031	0.226271	0.891812
	H33	H	0.649446	0.222249	0.099421
	H34	H	0.330278	0.782188	0.103392
	H35	H	0.648886	0.785929	0.894425
	H36	H	0.331074	0.894335	0.223030
	H37	H	0.647832	0.109292	0.219064
	H38	H	0.330794	0.111095	0.775546
	H39	H	0.648152	0.899022	0.777092
	H40	H	0.884175	0.223950	0.340062
	H41	H	0.095121	0.225046	0.655805
	H42	H	0.090445	0.785766	0.337458
	H43	H	0.879901	0.777576	0.655225
	H44	H	0.211820	0.345061	0.892640
	H45	H	0.209712	0.663976	0.101990
	H46	H	0.766340	0.344543	0.104469
	H47	H	0.769508	0.664491	0.891380
	H48	H	0.404027	0.117230	0.592678
	H49	H	0.589223	0.885759	0.587354
	H50	H	0.583328	0.119879	0.411474
	H51	H	0.405439	0.889759	0.403956
	H52	H	0.582142	0.419593	0.110932
	H53	H	0.574891	0.599723	0.883743
	H54	H	0.403776	0.587780	0.108100
	H55	H	0.400363	0.421193	0.886556
	H56	H	0.101897	0.590967	0.409388
	H57	H	0.878268	0.587951	0.583157
	H58	H	0.099837	0.422771	0.586828
	H59	H	0.875243	0.415562	0.407366
	H60	H	0.105879	0.411606	0.591577
	H61	H	0.876634	0.586618	0.588512
	H62	H	0.103699	0.592167	0.405004
	H63	H	0.874898	0.413404	0.406930
	H64	H	0.403483	0.597185	0.111437
	H65	H	0.584889	0.595124	0.882029
	H66	H	0.572030	0.417191	0.108358
	H67	H	0.404066	0.414446	0.886528
	H68	H	0.576704	0.120102	0.403827
	H69	H	0.571529	0.887960	0.599498
	H70	H	0.403967	0.113823	0.580539
	H71	H	0.405703	0.894802	0.417588
	H72	H	0.899467	0.619202	0.088227
	H73	H	0.082907	0.385227	0.092701
	H74	H	0.076239	0.616558	0.911838
	H75	H	0.907089	0.390637	0.907000
	H76	H	0.075828	0.904021	0.613980
	H77	H	0.076003	0.089598	0.386242
	H78	H	0.902872	0.084701	0.608983
	H79	H	0.900007	0.916210	0.386660
	H80	H	0.605280	0.098888	0.904330
	H81	H	0.378273	0.090614	0.078572
	H82	H	0.601502	0.917501	0.087028
	H83	H	0.375220	0.915771	0.910892
	H84	H	0.602382	0.917568	0.088738
	H85	H	0.376043	0.084541	0.091593
	H86	H	0.601910	0.094635	0.911958
	H87	H	0.376470	0.917697	0.910233
	H88	H	0.904562	0.098688	0.613503
	H89	H	0.076894	0.093210	0.384488
	H90	H	0.084101	0.919335	0.612538
	H91	H	0.899467	0.909609	0.384147
	H92	H	0.079663	0.617951	0.909108
	H93	H	0.069627	0.391311	0.088213
	H94	H	0.904770	0.617110	0.086583
	H95	H	0.899713	0.392363	0.916932
	H96	H	0.394134	0.119455	0.585412
	H97	H	0.571170	0.894485	0.578991
	H98	H	0.574680	0.116236	0.412541
	H99	H	0.393897	0.888607	0.411892
	H100	H	0.577924	0.409848	0.113129
	H101	H	0.577045	0.588701	0.886989
	H102	H	0.395953	0.591558	0.112876
	H103	H	0.397233	0.414922	0.884025
	H104	H	0.104052	0.596156	0.408264
	H105	H	0.875632	0.592177	0.586251
	H106	H	0.101437	0.412742	0.579316
	H107	H	0.876301	0.413865	0.408746
	H108	H	0.900292	0.617981	0.082672
	H109	H	0.081564	0.391053	0.078492
	H110	H	0.075280	0.617703	0.907344
	H111	H	0.895030	0.386925	0.906794
	H112	H	0.068039	0.917937	0.607528
	H113	H	0.078966	0.090712	0.384646
	H114	H	0.891031	0.091708	0.614827
	H115	H	0.893450	0.913610	0.383636
	H116	H	0.602765	0.089702	0.904067
	H117	H	0.372105	0.098118	0.089421
	H118	H	0.602768	0.915609	0.087862
	H119	H	0.375236	0.916432	0.908867
	C120	C	0.367413	0.011748	0.619675
	C121	C	0.610096	0.995404	0.619822
	C122	C	0.610036	0.013090	0.377156
	C123	C	0.367661	0.995417	0.377350
	C124	C	0.610366	0.383293	0.006369
	C125	C	0.611345	0.626616	0.988922
	C126	C	0.368447	0.625607	0.006294
	C127	C	0.367295	0.382330	0.989667
	C128	C	-0.002244	0.624373	0.375571
	C129	C	0.981216	0.623679	0.618561
	C130	C	-0.002142	0.381890	0.619139
	C131	C	0.980260	0.381511	0.375498
	C132	C	0.868244	0.512726	0.118853
	C133	C	0.111106	0.494586	0.119340
	C134	C	0.110477	0.512297	0.876834
	C135	C	0.868065	0.495113	0.876541
	C136	C	0.108554	0.882078	0.506261
	C137	C	0.110378	0.124723	0.489326
	C138	C	0.868248	0.123778	0.507238
	C139	C	0.865336	0.880022	0.489463
	C140	C	0.498083	0.126823	0.875108
	C141	C	0.480438	0.124447	0.118521
	C142	C	0.497568	0.882374	0.120717
	C143	C	0.480811	0.884233	0.877795
	C144	C	0.363772	0.892015	0.681488
	C145	C	0.611743	0.116763	0.677327
	C146	C	0.613411	0.894053	0.315667
	C147	C	0.362553	0.114560	0.315000
	C148	C	0.672365	0.380030	0.887542
	C149	C	0.671474	0.628628	0.108307
	C150	C	0.306663	0.630295	0.888218
	C151	C	0.306635	0.378396	0.108343
	C152	C	0.877611	0.682919	0.373665
	C153	C	0.100709	0.684839	0.620007
	C154	C	0.878056	0.320955	0.622081
	C155	C	0.099788	0.320404	0.373304
	C156	C	0.879073	0.376914	0.681306
	C157	C	0.100390	0.628668	0.679674
	C158	C	0.878753	0.626859	0.314524
	C159	C	0.100104	0.377611	0.315106
	C160	C	0.365500	0.686856	0.887340
	C161	C	0.612887	0.685641	0.108466
	C162	C	0.613867	0.322984	0.887025
	C163	C	0.364060	0.320467	0.108133
	C164	C	0.669444	0.893022	0.374677
	C165	C	0.670504	0.115803	0.621074
	C166	C	0.306346	0.891592	0.623418
	C167	C	0.306151	0.114952	0.373872
	C168	C	0.865774	0.391930	0.178744
	C169	C	0.112997	0.615319	0.178005
	C170	C	0.114043	0.392499	0.816355
	C171	C	0.865172	0.614881	0.814882
	C172	C	0.169563	0.879416	0.387363
	C173	C	0.171214	0.127845	0.608393
	C174	C	0.809837	0.124971	0.387144
	C175	C	0.805818	0.876678	0.608793
	C176	C	0.378216	0.186839	0.873091
	C177	C	0.601156	0.183576	0.119183
	C178	C	0.378435	0.821384	0.122518
	C179	C	0.600794	0.825011	0.875755
	C180	C	0.378730	0.877435	0.182194
	C181	C	0.600353	0.127492	0.178737
	C182	C	0.378457	0.129487	0.815061
	C183	C	0.600458	0.881489	0.817409
	C184	C	0.866413	0.183446	0.387460
	C185	C	0.113376	0.185541	0.608070
	C186	C	0.109299	0.824266	0.385754
	C187	C	0.862183	0.818038	0.607829
	C188	C	0.171535	0.392855	0.874316
	C189	C	0.170552	0.615410	0.120745
	C190	C	0.806851	0.392555	0.122078
	C191	C	0.808661	0.615894	0.873497
	C192	C	0.393048	0.094977	0.593621
	C193	C	0.584725	0.911358	0.595648
	C194	C	0.585234	0.096792	0.402121
	C195	C	0.394039	0.912656	0.403544
	C196	C	0.584797	0.408346	0.088960
	C197	C	0.586131	0.601678	0.905922
	C198	C	0.393764	0.599506	0.089303
	C199	C	0.393243	0.409084	0.907244
	C200	C	0.081395	0.600019	0.400395
	C201	C	0.898311	0.596692	0.593306
	C202	C	0.080752	0.408180	0.593255
	C203	C	0.897276	0.407195	0.400503
	C204	C	0.894028	0.596394	0.093264
	C205	C	0.085303	0.410972	0.093870
	C206	C	0.084340	0.595538	0.902208
	C207	C	0.893462	0.411714	0.902604
	C208	C	0.083274	0.906790	0.589524
	C209	C	0.084896	0.098511	0.406669
	C210	C	0.892550	0.098908	0.590772
	C211	C	0.890465	0.905757	0.406306
	C212	C	0.581576	0.101744	0.899789
	C213	C	0.397392	0.098620	0.093735
	C214	C	0.580733	0.909292	0.095274
	C215	C	0.397480	0.909398	0.902904
	Zn216	Zn	0.489237	0.003833	0.747923
	Zn217	Zn	0.488696	0.004748	0.248632
	Zn218	Zn	0.739794	0.504503	-0.002333
	Zn219	Zn	0.238799	0.504696	-0.001886
	Zn220	Zn	-0.011811	0.752682	0.497331
	Zn221	Zn	-0.011304	0.253360	0.498041
	Zn222	Zn	-0.010509	0.502996	0.748077
	Zn223	Zn	-0.010092	0.503257	0.246873
	Zn224	Zn	0.489409	0.755195	-0.002253
	Zn225	Zn	0.489261	0.253788	-0.001836
	Zn226	Zn	0.738522	0.003450	0.498980
	Zn227	Zn	0.238659	0.002789	0.498259
	N228	N	0.400839	0.967751	0.679539
	N229	N	0.575047	0.040754	0.676779
	N230	N	0.576985	0.969872	0.317199
	N231	N	0.400152	0.039381	0.316999
	N232	N	0.670276	0.416886	0.962628
	N233	N	0.670706	0.592691	0.032934
	N234	N	0.308526	0.592735	0.963199
	N235	N	0.308273	0.416207	0.033575
	N236	N	0.952578	0.681609	0.411007
	N237	N	0.025619	0.681814	0.582768
	N238	N	0.952955	0.323775	0.584370
	N239	N	0.024442	0.322842	0.410362
	N240	N	0.954530	0.414128	0.679723
	N241	N	0.024828	0.591563	0.679000
	N242	N	0.954590	0.591391	0.315593
	N243	N	0.024953	0.414998	0.316272
	N244	N	0.403146	0.684023	0.961821
	N245	N	0.576360	0.684616	0.033263
	N246	N	0.575660	0.324978	0.961485
	N247	N	0.400972	0.322797	0.033075
	N248	N	0.667392	0.968042	0.412361
	N249	N	0.669815	0.039191	0.586245
	N250	N	0.308117	0.967022	0.585953
	N251	N	0.309172	0.039829	0.412002
	N252	N	0.902996	0.467614	0.176888
	N253	N	0.077177	0.539038	0.177542
	N254	N	0.076777	0.467921	0.817800
	N255	N	0.901189	0.538807	0.816442
	N256	N	0.169345	0.914476	0.463329
	N257	N	0.169543	0.090924	0.533437
	N258	N	0.810650	0.088587	0.462696
	N259	N	0.807361	0.914304	0.533929
	N260	N	0.453803	0.185868	0.909181
	N261	N	0.525591	0.181859	0.082737
	N262	N	0.453461	0.824441	0.085004
	N263	N	0.525619	0.826971	0.913008
	N264	N	0.454189	0.914399	0.181321
	N265	N	0.524273	0.091858	0.178672
	N266	N	0.454098	0.093120	0.816081
	N267	N	0.524674	0.917639	0.818549
	N268	N	0.902082	0.182819	0.463032
	N269	N	0.076595	0.184023	0.533020
	N270	N	0.072244	0.825766	0.460965
	N271	N	0.898240	0.819627	0.532269
	N272	N	0.169524	0.468379	0.910999
	N273	N	0.169615	0.539185	0.085134
	N274	N	0.808156	0.468771	0.085720
	N275	N	0.810230	0.540298	0.911012
	O276	O	0.320753	0.322038	0.683582
	H277	H	0.366588	0.308074	0.691129
	H278	H	0.309238	0.328193	0.666300
	O279	O	0.706181	0.525970	0.715590
	H280	H	0.725090	0.547546	0.738271
	H281	H	0.705831	0.564224	0.719175
	O282	O	0.495539	0.491203	0.684104
	H283	H	0.479980	0.502265	0.682379
	H284	H	0.507184	0.504912	0.676624
	O285	O	0.968785	1.001529	-0.172780
	H286	H	0.967064	1.011313	-0.184815
	H287	H	0.989295	0.998493	-0.185753
	O288	O	0.325121	0.447815	0.414592
	H289	H	0.317027	0.458782	0.423010
	H290	H	0.326030	0.447554	0.417550
	O291	O	0.658228	0.680508	0.678956
	H292	H	0.634731	0.693306	0.660763
	H293	H	0.642153	0.691502	0.651872
	O294	O	0.972457	1.131501	1.142597
	H295	H	0.960462	1.143101	1.157523
	H296	H	0.963707	1.112252	1.145848
	O297	O	0.274402	0.294687	0.543939
	H298	H	0.252234	0.274053	0.542426
	H299	H	0.281367	0.306767	0.549074
	O300	O	0.273267	0.531321	0.283998
	H301	H	0.285758	0.503399	0.297774
	H302	H	0.243821	0.529384	0.252700
	O303	O	0.536852	0.505230	0.286148
	H304	H	0.524499	0.527398	0.278049
	H305	H	0.529617	0.487396	0.303228
	O306	O	0.180361	-0.176555	0.977825
	H307	H	0.173985	-0.161155	0.976474
	H308	H	0.179069	-0.196747	0.980190
	O309	O	1.162390	-0.109668	0.111539
	H310	H	1.161620	-0.100830	0.118714
	H311	H	1.158407	-0.124302	0.103524
	O312	O	1.183816	0.193991	0.054053
	H313	H	1.170003	0.203006	0.070713
	H314	H	1.178777	0.206497	0.043985
	O315	O	0.701695	0.482184	0.393410
	H316	H	0.679267	0.492711	0.398558
	H317	H	0.716181	0.479249	0.366092
	O318	O	0.189844	-0.015887	-0.192507
	H319	H	0.211426	-0.010005	-0.216800
	H320	H	0.174541	0.011387	-0.176647
	O321	O	0.692640	0.319028	0.480719
	H322	H	0.680290	0.301428	0.488854
	H323	H	0.704570	0.336271	0.501197
	O324	O	0.910354	-0.098311	0.928938
	H325	H	0.899004	-0.089313	0.930956
	H326	H	0.906417	-0.081123	0.938874
	O327	O	0.526113	0.455392	0.297860
	H328	H	0.533430	0.433630	0.307314
	H329	H	0.542712	0.452588	0.291941
	O330	O	-0.120897	0.813854	0.994404
	H331	H	-0.114974	0.809597	1.020297
	H332	H	-0.127322	0.810774	0.988776
	O333	O	-0.191093	0.878811	0.184103
	H334	H	-0.190346	0.884781	0.172073
	H335	H	-0.186042	0.865463	0.196281
	O336	O	0.911461	0.885032	-0.034370
	H337	H	0.919321	0.891130	-0.042228
	H338	H	0.921843	0.882099	-0.046281
	O339	O	-0.317602	1.309878	1.307388
	H340	H	-0.323506	1.313472	1.334511
	H341	H	-0.309008	1.338979	1.318073
	O342	O	0.481398	0.656681	0.697043
	H343	H	0.468034	0.657176	0.702035
	H344	H	0.462319	0.650252	0.692402
	O345	O	-0.513109	-0.654887	1.538230
	H346	H	-0.521373	-0.650575	1.532710
	H347	H	-0.528578	-0.659740	1.567585
	O348	O	0.417727	0.700800	0.296603
	H349	H	0.410741	0.719366	0.277179
	H350	H	0.429477	0.697410	0.309601
	O351	O	1.110233	1.038070	0.196385
	H352	H	1.112580	1.039026	0.188170
	H353	H	1.111596	1.041633	0.205144
	O354	O	0.869187	1.113938	1.009094
	H355	H	0.867101	1.101032	1.004796
	H356	H	0.873444	1.132588	1.013743
	O357	O	0.157607	0.150720	0.088443
	H358	H	0.157646	0.140230	0.092280
	H359	H	0.135298	0.141531	0.094518
	O360	O	0.811529	-0.119332	0.042501
	H361	H	0.801489	-0.143110	0.043288
	H362	H	0.810329	-0.127010	0.012367
	O363	O	1.402143	-0.325385	0.559318
	H364	H	1.376392	-0.312386	0.546666
	H365	H	1.404456	-0.350189	0.566463
	O366	O	0.294515	0.701634	1.368773
	H367	H	0.302678	0.709665	1.357392
	H368	H	0.292601	0.673134	1.354918
	O369	O	1.135671	0.035930	1.057521
	H370	H	1.134921	0.031640	1.071412
	H371	H	1.138170	0.033731	1.053572
	O372	O	0.467750	0.289599	0.664553
	H373	H	0.471815	0.268214	0.693610
	H374	H	0.492376	0.319164	0.669986
	O375	O	-0.179738	0.029056	0.867817
	H376	H	-0.160082	0.019215	0.858095
	H377	H	-0.190250	0.018872	0.854667
	O378	O	0.580547	0.630381	0.399161
	H379	H	0.576499	0.612495	0.403140
	H380	H	0.558213	0.639538	0.414159
	O381	O	-0.117525	1.032251	0.176339
	H382	H	-0.124935	1.032538	0.168198
	H383	H	-0.130277	1.030352	0.191468
	O384	O	0.403396	0.341909	0.456278
	H385	H	0.402498	0.330324	0.458350
	H386	H	0.408597	0.354981	0.456723
	O387	O	0.288129	0.524698	0.579408
	H388	H	0.278923	0.529251	0.590296
	H389	H	0.294428	0.515212	0.592778
	O390	O	0.950223	1.135556	0.064143
	H391	H	0.941772	1.110716	0.054111
	H392	H	0.949389	1.143337	0.066982
	O393	O	1.024526	-0.007255	0.950195
	H394	H	1.019902	-0.010809	0.939378
	H395	H	1.029455	-0.001519	0.949546
	O396	O	1.167667	-0.164356	-0.178288
	H397	H	1.182412	-0.143076	-0.163908
	H398	H	1.162250	-0.145730	-0.174934
	O399	O	0.441820	0.578693	0.459981
	H400	H	0.444703	0.569058	0.438331
	H401	H	0.430264	0.570468	0.480203
	O402	O	0.918034	1.205335	-0.171751
	H403	H	0.890874	1.198685	-0.156639
	H404	H	0.909618	1.230297	-0.183371
	O405	O	0.333407	0.496016	0.711275
	H406	H	0.322479	0.484978	0.727506
	H407	H	0.332828	0.483557	0.701153
	O408	O	0.528573	0.658501	0.497468
	H409	H	0.554212	0.664868	0.497741
	H410	H	0.520218	0.652656	0.511509
	O411	O	0.871931	1.106778	0.905893
	H412	H	0.866479	1.126268	0.903412
	H413	H	0.883106	1.108195	0.925733
	O414	O	0.696783	0.586785	0.419803
	H415	H	0.705536	0.560533	0.406325
	H416	H	0.668839	0.580546	0.428660
	O417	O	-0.041625	0.893623	1.198779
	H418	H	-0.046578	0.873015	1.217040
	H419	H	-0.059589	0.896671	1.189190
	O420	O	0.009156	0.794476	0.786937
	H421	H	0.012808	0.772386	0.774573
	H422	H	0.033806	0.798033	0.786883
	O423	O	-0.045521	1.209708	-0.020575
	H424	H	-0.031134	1.213684	-0.027673
	H425	H	-0.034654	1.212006	-0.004206
	O426	O	0.695505	0.713394	0.518499
	H427	H	0.714695	0.702447	0.499741
	H428	H	0.711612	0.722340	0.511078
	O429	O	0.422660	0.556931	0.503452
	H430	H	0.403884	0.557054	0.517367
	H431	H	0.423873	0.552722	0.462633
	O432	O	0.632215	0.449041	0.602122
	H433	H	0.640968	0.459954	0.618568
	H434	H	0.626670	0.476880	0.596275
	O435	O	-0.111492	0.092471	-0.076861
	H436	H	-0.119281	0.095736	-0.058557
	H437	H	-0.127992	0.065569	-0.071145
	O438	O	0.087998	1.081097	0.975004
	H439	H	0.082553	1.090642	0.965460
	H440	H	0.095665	1.087021	0.977520
	O441	O	0.496239	0.302420	0.289715
	H442	H	0.501497	0.270478	0.265485
	H443	H	0.506021	0.310426	0.308925
