data_Molecule from HDF5

_cell_length_a		16.413529
_cell_length_b		16.424650
_cell_length_c		16.565605
_cell_angle_alpha	89.904321
_cell_angle_beta	89.983337
_cell_angle_gamma	90.085114
_symmetry_space_group_name_H-M	'P 1'
_symmetry_Int_Tables_number		1

loop_
	_symmetry_equiv_pos_as_xyz
	x,y,z

loop_
	_atom_site_label
	_atom_site_type_symbol
	_atom_site_fract_x
	_atom_site_fract_y
	_atom_site_fract_z
	H0	H	0.396909	0.844170	0.712263
	H1	H	0.608138	0.160415	0.711421
	H2	H	0.606698	0.844195	0.267243
	H3	H	0.398213	0.160281	0.271901
	H4	H	0.724328	0.393971	0.833709
	H5	H	0.720346	0.604594	0.147154
	H6	H	0.279439	0.605650	0.831830
	H7	H	0.281346	0.400854	0.148645
	H8	H	0.839013	0.720091	0.385888
	H9	H	0.156207	0.719678	0.591167
	H10	H	0.839060	0.279535	0.591819
	H11	H	0.159177	0.284777	0.388733
	H12	H	0.839807	0.391792	0.712037
	H13	H	0.154973	0.605074	0.710459
	H14	H	0.839778	0.605516	0.268041
	H15	H	0.157741	0.399792	0.271286
	H16	H	0.395324	0.723349	0.832642
	H17	H	0.602222	0.720549	0.147913
	H18	H	0.607359	0.278051	0.832825
	H19	H	0.398487	0.283572	0.149016
	H20	H	0.720442	0.843347	0.384959
	H21	H	0.721528	0.160623	0.592614
	H22	H	0.282255	0.841996	0.593830
	H23	H	0.283303	0.160300	0.390566
	H24	H	0.891193	0.343184	0.212828
	H25	H	0.102131	0.660693	0.209800
	H26	H	0.102542	0.343236	0.770426
	H27	H	0.889685	0.657631	0.765281
	H28	H	0.218648	0.898051	0.330959
	H29	H	0.218661	0.103125	0.647932
	H30	H	0.778591	0.106207	0.331508
	H31	H	0.773708	0.892331	0.645673
	H32	H	0.341482	0.218209	0.889672
	H33	H	0.658808	0.224998	0.097114
	H34	H	0.340011	0.783763	0.091421
	H35	H	0.659412	0.780292	0.885349
	H36	H	0.341102	0.898410	0.209725
	H37	H	0.657777	0.109926	0.214045
	H38	H	0.343782	0.103839	0.771313
	H39	H	0.659351	0.894778	0.767824
	H40	H	0.895165	0.222222	0.331681
	H41	H	0.104823	0.222576	0.646173
	H42	H	0.100499	0.781957	0.331248
	H43	H	0.890988	0.776974	0.646351
	H44	H	0.215046	0.341643	0.889964
	H45	H	0.216812	0.662242	0.091913
	H46	H	0.777266	0.342117	0.095350
	H47	H	0.779016	0.660098	0.885778
	H48	H	0.411177	0.115876	0.582799
	H49	H	0.580442	0.890037	0.582446
	H50	H	0.593303	0.113943	0.408544
	H51	H	0.409976	0.887446	0.403131
	H52	H	0.589547	0.417002	0.100151
	H53	H	0.593373	0.589993	0.876380
	H54	H	0.403744	0.597255	0.105487
	H55	H	0.410338	0.409998	0.876789
	H56	H	0.111744	0.591860	0.399300
	H57	H	0.880746	0.592681	0.582088
	H58	H	0.111723	0.414521	0.583247
	H59	H	0.885197	0.411657	0.400968
	H60	H	0.111642	0.409128	0.580228
	H61	H	0.885902	0.588725	0.571542
	H62	H	0.110808	0.589471	0.399133
	H63	H	0.885120	0.412776	0.400487
	H64	H	0.405380	0.586628	0.101916
	H65	H	0.586275	0.587817	0.879296
	H66	H	0.583396	0.414476	0.098032
	H67	H	0.407149	0.408232	0.875143
	H68	H	0.591381	0.117853	0.394436
	H69	H	0.586401	0.892089	0.571419
	H70	H	0.410641	0.114431	0.578891
	H71	H	0.406114	0.884523	0.396151
	H72	H	0.910702	0.613090	0.078321
	H73	H	0.095468	0.387150	0.077173
	H74	H	0.083770	0.613922	0.901136
	H75	H	0.910747	0.390628	0.906902
	H76	H	0.093170	0.903040	0.605423
	H77	H	0.092004	0.083955	0.378759
	H78	H	0.909727	0.088905	0.601018
	H79	H	0.910606	0.917097	0.380491
	H80	H	0.615940	0.094871	0.902852
	H81	H	0.388385	0.089318	0.080939
	H82	H	0.613646	0.910771	0.077916
	H83	H	0.390304	0.914852	0.902525
	H84	H	0.612184	0.915433	0.077879
	H85	H	0.385353	0.092657	0.083089
	H86	H	0.613431	0.086789	0.905491
	H87	H	0.387936	0.914983	0.898414
	H88	H	0.912897	0.084723	0.598930
	H89	H	0.084516	0.095769	0.377140
	H90	H	0.094633	0.915156	0.602333
	H91	H	0.914983	0.907922	0.378071
	H92	H	0.091743	0.616004	0.901238
	H93	H	0.089452	0.386058	0.087866
	H94	H	0.912927	0.612895	0.078118
	H95	H	0.907824	0.386257	0.899132
	H96	H	0.407595	0.116566	0.580926
	H97	H	0.592911	0.887944	0.581433
	H98	H	0.579927	0.111081	0.401369
	H99	H	0.414363	0.887201	0.396137
	H100	H	0.587621	0.410577	0.101978
	H101	H	0.586968	0.595097	0.876758
	H102	H	0.414171	0.594456	0.101313
	H103	H	0.406691	0.412074	0.876854
	H104	H	0.113140	0.590667	0.398024
	H105	H	0.885443	0.581083	0.581428
	H106	H	0.109767	0.414358	0.577321
	H107	H	0.884695	0.412254	0.400298
	H108	H	0.911469	0.612261	0.077227
	H109	H	0.083125	0.390768	0.078061
	H110	H	0.087434	0.617300	0.894201
	H111	H	0.916531	0.389380	0.899312
	H112	H	0.083413	0.909219	0.600437
	H113	H	0.097531	0.095330	0.373633
	H114	H	0.914706	0.089707	0.600086
	H115	H	0.905378	0.909727	0.375536
	H116	H	0.616415	0.088017	0.896961
	H117	H	0.386917	0.093647	0.078869
	H118	H	0.614679	0.913336	0.082148
	H119	H	0.387649	0.911090	0.901134
	C120	C	0.379052	0.010404	0.612132
	C121	C	0.620951	0.993893	0.610788
	C122	C	0.620861	0.010301	0.368555
	C123	C	0.379460	0.992189	0.368911
	C124	C	0.621510	0.379777	-0.002443
	C125	C	0.620939	0.622673	0.981641
	C126	C	0.377205	0.623906	-0.001587
	C127	C	0.378144	0.380221	0.981593
	C128	C	0.006744	0.622471	0.367180
	C129	C	0.988356	0.620614	0.610604
	C130	C	0.006601	0.379082	0.611740
	C131	C	0.990292	0.381349	0.369270
	C132	C	0.878081	0.508562	0.110707
	C133	C	0.120105	0.493335	0.111472
	C134	C	0.119090	0.510512	0.868484
	C135	C	0.877779	0.492701	0.868664
	C136	C	0.120988	0.878551	0.498091
	C137	C	0.122087	0.122853	0.480914
	C138	C	0.879528	0.120935	0.496464
	C139	C	0.876663	0.878343	0.481372
	C140	C	0.510386	0.122195	0.870200
	C141	C	0.491719	0.124346	0.112813
	C142	C	0.508545	0.881590	0.110603
	C143	C	0.493136	0.880582	0.868431
	C144	C	0.378347	0.891060	0.671859
	C145	C	0.625168	0.113210	0.670906
	C146	C	0.624350	0.891655	0.307557
	C147	C	0.378882	0.112684	0.311415
	C148	C	0.683494	0.376286	0.880404
	C149	C	0.680617	0.623794	0.100133
	C150	C	0.319078	0.624458	0.879114
	C151	C	0.320826	0.381178	0.101271
	C152	C	0.886761	0.680893	0.366688
	C153	C	0.108391	0.680349	0.611337
	C154	C	0.887041	0.318513	0.612134
	C155	C	0.110957	0.323713	0.369218
	C156	C	0.887320	0.374487	0.671825
	C157	C	0.107926	0.623523	0.670221
	C158	C	0.887253	0.624045	0.308065
	C159	C	0.110337	0.380450	0.310579
	C160	C	0.376322	0.683320	0.879854
	C161	C	0.621960	0.681562	0.100347
	C162	C	0.625421	0.318280	0.880133
	C163	C	0.379066	0.323025	0.101281
	C164	C	0.680808	0.890883	0.366292
	C165	C	0.681867	0.112993	0.612161
	C166	C	0.321231	0.890157	0.613081
	C167	C	0.321966	0.112647	0.370256
	C168	C	0.873810	0.390335	0.172233
	C169	C	0.120787	0.613323	0.169911
	C170	C	0.120487	0.390662	0.810499
	C171	C	0.873057	0.610852	0.806727
	C172	C	0.179122	0.878659	0.378681
	C173	C	0.179891	0.123023	0.599994
	C174	C	0.818960	0.123954	0.378644
	C175	C	0.814504	0.874575	0.598679
	C176	C	0.389959	0.179985	0.869673
	C177	C	0.611037	0.184883	0.115146
	C178	C	0.388011	0.822835	0.111171
	C179	C	0.611881	0.819879	0.866798
	C180	C	0.388461	0.879978	0.169606
	C181	C	0.610623	0.127389	0.173236
	C182	C	0.390809	0.123330	0.811092
	C183	C	0.611966	0.877249	0.808234
	C184	C	0.876899	0.181927	0.378780
	C185	C	0.122980	0.182197	0.599146
	C186	C	0.120431	0.820797	0.378908
	C187	C	0.872892	0.817042	0.599213
	C188	C	0.176736	0.389989	0.869823
	C189	C	0.178077	0.613941	0.111575
	C190	C	0.816844	0.390070	0.113797
	C191	C	0.817934	0.611965	0.866724
	C192	C	0.402996	0.093902	0.587849
	C193	C	0.594268	0.911572	0.585716
	C194	C	0.595403	0.092687	0.393896
	C195	C	0.403389	0.908361	0.391800
	C196	C	0.594480	0.406309	0.078999
	C197	C	0.596047	0.598044	0.899125
	C198	C	0.401026	0.599666	0.081235
	C199	C	0.401305	0.403449	0.898137
	C200	C	0.090196	0.597949	0.391775
	C201	C	0.905784	0.594874	0.585649
	C202	C	0.089423	0.405218	0.587153
	C203	C	0.906892	0.405462	0.393463
	C204	C	0.904350	0.591181	0.085321
	C205	C	0.096149	0.409758	0.087927
	C206	C	0.094743	0.593967	0.891937
	C207	C	0.904063	0.410347	0.894386
	C208	C	0.097316	0.902200	0.581146
	C209	C	0.098273	0.098648	0.398106
	C210	C	0.905138	0.095008	0.578700
	C211	C	0.902833	0.904220	0.399366
	C212	C	0.593566	0.097206	0.894679
	C213	C	0.408609	0.099087	0.087998
	C214	C	0.591640	0.906236	0.086378
	C215	C	0.410044	0.906486	0.893332
	Zn216	Zn	0.501964	0.002583	0.740445
	Zn217	Zn	0.500458	0.001844	0.239751
	Zn218	Zn	0.750106	0.501027	-0.010238
	Zn219	Zn	0.248195	0.502462	-0.010288
	Zn220	Zn	-0.002476	0.749696	0.489729
	Zn221	Zn	-0.001090	0.251661	0.489250
	Zn222	Zn	-0.003050	0.500452	0.739838
	Zn223	Zn	-0.001707	0.500944	0.239566
	Zn224	Zn	0.499894	0.752389	-0.010068
	Zn225	Zn	0.500680	0.250748	-0.010076
	Zn226	Zn	0.749284	0.001284	0.489367
	Zn227	Zn	0.250540	-0.000025	0.489952
	N228	N	0.413532	0.966956	0.671545
	N229	N	0.588358	0.037871	0.670477
	N230	N	0.587930	0.966930	0.308735
	N231	N	0.413633	0.036761	0.310315
	N232	N	0.681144	0.413465	0.954519
	N233	N	0.680255	0.588381	0.025110
	N234	N	0.319186	0.588605	0.953978
	N235	N	0.319778	0.415776	0.025702
	N236	N	0.962165	0.680376	0.402409
	N237	N	0.033112	0.678896	0.575206
	N238	N	0.962255	0.321106	0.575710
	N239	N	0.035317	0.324003	0.404880
	N240	N	0.962662	0.411210	0.671943
	N241	N	0.032420	0.587383	0.669980
	N242	N	0.962990	0.588602	0.308353
	N243	N	0.034375	0.415457	0.310524
	N244	N	0.411641	0.683203	0.955002
	N245	N	0.585725	0.681015	0.025701
	N246	N	0.587576	0.320355	0.954137
	N247	N	0.413774	0.322050	0.025779
	N248	N	0.678801	0.965577	0.403517
	N249	N	0.679438	0.038045	0.575596
	N250	N	0.321429	0.965301	0.576703
	N251	N	0.322227	0.036782	0.405270
	N252	N	0.911225	0.465145	0.170369
	N253	N	0.085595	0.537334	0.170179
	N254	N	0.085580	0.466585	0.809347
	N255	N	0.909281	0.535599	0.807596
	N256	N	0.180001	0.913339	0.454111
	N257	N	0.179540	0.086894	0.525362
	N258	N	0.820801	0.086395	0.452809
	N259	N	0.816542	0.911755	0.524300
	N260	N	0.465443	0.179458	0.905451
	N261	N	0.536039	0.183186	0.078320
	N262	N	0.463674	0.823248	0.075480
	N263	N	0.536873	0.821820	0.903357
	N264	N	0.464255	0.915429	0.169664
	N265	N	0.535351	0.090628	0.171981
	N266	N	0.466790	0.088375	0.811189
	N267	N	0.536836	0.914232	0.809243
	N268	N	0.913951	0.180034	0.453123
	N269	N	0.087696	0.182364	0.524045
	N270	N	0.085302	0.820261	0.454167
	N271	N	0.910594	0.819228	0.525145
	N272	N	0.176043	0.465526	0.905243
	N273	N	0.177785	0.538407	0.075989
	N274	N	0.819465	0.464601	0.076280
	N275	N	0.820918	0.537551	0.904519
	O276	O	1.024535	0.795258	-0.176631
	H277	H	1.020818	0.795161	-0.180408
	H278	H	1.011591	0.789675	-0.176149
	O279	O	0.006605	-0.154109	0.193598
	H280	H	0.004498	-0.133071	0.192249
	H281	H	-0.005281	-0.172553	0.204471
	O282	O	1.011218	0.942693	0.156291
	H283	H	1.004588	0.960178	0.160724
	H284	H	1.014079	0.955874	0.151609
	O285	O	0.645690	0.370881	0.571012
	H286	H	0.653977	0.359520	0.561511
	H287	H	0.650941	0.392747	0.554276
	O288	O	-0.295602	0.550745	-0.505809
	H289	H	-0.308730	0.567982	-0.501801
	H290	H	-0.287934	0.572861	-0.498185
	O291	O	1.284893	0.565682	0.541097
	H292	H	1.279195	0.548907	0.521009
	H293	H	1.280789	0.556206	0.548592
	O294	O	0.027618	1.213732	0.204265
	H295	H	0.032602	1.235865	0.225491
	H296	H	0.046510	1.220372	0.191941
	O297	O	0.027327	0.056460	0.023225
	H298	H	0.027011	0.067747	0.022668
	H299	H	0.018631	0.058675	0.040845
	O300	O	0.317010	0.315850	0.303353
	H301	H	0.322721	0.317060	0.313661
	H302	H	0.328209	0.336667	0.322814
	O303	O	0.562683	0.446734	0.664174
	H304	H	0.581309	0.454610	0.652713
	H305	H	0.552985	0.459706	0.668249
	O306	O	0.700927	0.495942	0.674182
	H307	H	0.707010	0.536942	0.669833
	H308	H	0.727347	0.483673	0.669272
	O309	O	0.528557	0.296516	0.291889
	H310	H	0.516029	0.295008	0.289345
	H311	H	0.520515	0.275084	0.294521
	O312	O	0.569477	0.693594	0.398142
	H313	H	0.542459	0.692695	0.400046
	H314	H	0.543903	0.698912	0.388346
	O315	O	0.447519	-0.590303	1.418594
	H316	H	0.439178	-0.592079	1.443105
	H317	H	0.456297	-0.599545	1.425061
	O318	O	0.155279	0.801956	-0.211444
	H319	H	0.149119	0.792016	-0.232291
	H320	H	0.132737	0.804750	-0.216578
	O321	O	0.288631	0.293697	-0.471582
	H322	H	0.288221	0.288757	-0.446946
	H323	H	0.273181	0.273814	-0.444669
	O324	O	0.941330	-0.106283	0.910687
	H325	H	0.944785	-0.081297	0.910866
	H326	H	0.953967	-0.104883	0.916250
	O327	O	0.553103	0.486599	1.444969
	H328	H	0.547408	0.497587	1.453396
	H329	H	0.553049	0.499092	1.442345
	O330	O	0.494719	0.488011	0.467462
	H331	H	0.509660	0.480539	0.471133
	H332	H	0.501662	0.497085	0.455095
	O333	O	1.440012	0.552312	1.700677
	H334	H	1.408463	0.555700	1.703890
	H335	H	1.444492	0.546868	1.700238
	O336	O	0.684290	0.684092	0.683210
	H337	H	0.691193	0.684774	0.641978
	H338	H	0.662075	0.683716	0.687590
	O339	O	0.209625	-0.103646	1.029533
	H340	H	0.216936	-0.106011	1.005316
	H341	H	0.201913	-0.110667	1.008217
	O342	O	-0.022108	1.212946	0.776495
	H343	H	-0.032543	1.227882	0.774949
	H344	H	-0.043131	1.220292	0.775330
	O345	O	-0.178908	0.181248	-0.194435
	H346	H	-0.167715	0.185579	-0.163392
	H347	H	-0.189545	0.157159	-0.180647
	O348	O	0.790966	0.206321	0.963269
	H349	H	0.776834	0.232226	0.972425
	H350	H	0.778885	0.174985	0.988541
	O351	O	0.951591	0.842546	-0.031062
	H352	H	0.956760	0.844275	-0.020838
	H353	H	0.970481	0.843492	-0.023767
	O354	O	0.447230	0.700007	0.525902
	H355	H	0.426941	0.691902	0.521964
	H356	H	0.438401	0.700391	0.541519
	O357	O	1.389529	1.468695	0.427069
	H358	H	1.402004	1.445349	0.444263
	H359	H	1.398476	1.465415	0.436576
	O360	O	0.518256	0.706624	0.693496
	H361	H	0.524849	0.684150	0.695053
	H362	H	0.518777	0.727777	0.701194
	O363	O	0.291348	0.293237	0.698381
	H364	H	0.343153	0.287117	0.706351
	H365	H	0.262232	0.258177	0.732175
	O366	O	1.213191	0.175777	1.071806
	H367	H	1.215399	0.167819	1.104386
	H368	H	1.229690	0.184412	1.085549
	O369	O	1.084499	1.012122	1.047626
	H370	H	1.067796	0.996870	1.058434
	H371	H	1.083599	1.010231	1.043851
	O372	O	0.188739	0.188628	0.798328
	H373	H	0.159125	0.169072	0.806581
	H374	H	0.180581	0.168372	0.826203
	O375	O	0.051758	1.086440	0.798052
	H376	H	0.053090	1.103588	0.795414
	H377	H	0.047770	1.091342	0.804008
	O378	O	0.310403	0.689757	0.674552
	H379	H	0.321373	0.669698	0.656789
	H380	H	0.322351	0.678574	0.663762
	O381	O	1.300819	-0.308829	0.287966
	H382	H	1.296287	-0.363488	0.283855
	H383	H	1.273273	-0.290743	0.282727
	O384	O	0.280717	-0.529387	1.699200
	H385	H	0.269284	-0.543490	1.705673
	H386	H	0.269004	-0.565031	1.709398
	O387	O	-0.218862	1.026248	1.108260
	H388	H	-0.231962	1.009590	1.130536
	H389	H	-0.216370	0.984559	1.103016
	O390	O	0.160311	0.004826	1.157581
	H391	H	0.165980	-0.016077	1.134011
	H392	H	0.166732	-0.001303	1.169631
	O393	O	1.042297	1.185704	-0.027844
	H394	H	1.056161	1.186797	-0.041660
	H395	H	1.060969	1.191318	-0.011699
	O396	O	0.637128	0.619461	0.317192
	H397	H	0.634841	0.616089	0.311044
	H398	H	0.622188	0.616158	0.323130
	O399	O	0.847997	0.902495	0.202666
	H400	H	0.821431	0.894982	0.211215
	H401	H	0.850169	0.867096	0.217611
	O402	O	-0.044842	-0.053925	0.768856
	H403	H	-0.052407	-0.049843	0.767162
	H404	H	-0.032645	-0.035496	0.768924
	O405	O	-0.075506	0.187486	0.051742
	H406	H	-0.052357	0.190161	0.038764
	H407	H	-0.090574	0.191511	0.062553
	O408	O	0.461969	0.297953	0.697286
	H409	H	0.475050	0.293326	0.712149
	H410	H	0.489994	0.319145	0.706047
	O411	O	0.084545	0.808435	1.074969
	H412	H	0.062563	0.822730	1.074214
	H413	H	0.083289	0.818854	1.067487
	O414	O	0.701174	0.511108	0.449879
	H415	H	0.700227	0.509075	0.462402
	H416	H	0.703592	0.497030	0.449872
	O417	O	0.512210	0.299697	0.500469
	H418	H	0.529231	0.298746	0.505778
	H419	H	0.523258	0.295844	0.514809
	O420	O	0.311037	0.530929	0.297909
	H421	H	0.312990	0.516457	0.287888
	H422	H	0.314097	0.511794	0.322259
	O423	O	0.203968	1.210534	0.199056
	H424	H	0.219128	1.227159	0.225216
	H425	H	0.208054	1.161999	0.200180
	O426	O	0.805471	0.811325	1.183656
	H427	H	0.795862	0.788823	1.174618
	H428	H	0.822786	0.801430	1.171362
	O429	O	0.656308	0.304667	0.445274
	H430	H	0.652289	0.298622	0.449006
	H431	H	0.650791	0.324803	0.436746
	O432	O	0.693348	0.363568	0.335630
	H433	H	0.673296	0.368667	0.338126
	H434	H	0.690460	0.356293	0.330916
	O435	O	0.214017	0.009693	-0.172578
	H436	H	0.233779	-0.012286	-0.182764
	H437	H	0.209794	-0.007489	-0.164452
	O438	O	1.210611	-0.045222	-0.025022
	H439	H	1.198678	-0.051083	-0.035513
	H440	H	1.220800	-0.054797	-0.039507
	O441	O	0.463926	0.449734	0.283445
	H442	H	0.474756	0.447506	0.273491
	H443	H	0.475309	0.447911	0.293780
	O444	O	-0.160568	0.945864	0.938601
	H445	H	-0.147460	0.939475	0.937393
	H446	H	-0.161019	0.955377	0.921539
	O447	O	0.468803	0.721446	0.273162
	H448	H	0.436102	0.729427	0.259907
	H449	H	0.449620	0.728246	0.256470
	O450	O	0.203645	0.851292	0.861632
	H451	H	0.218050	0.840024	0.830473
	H452	H	0.185673	0.852252	0.850459
	O453	O	0.677169	0.712072	0.511867
	H454	H	0.650019	0.712928	0.487206
	H455	H	0.685894	0.738907	0.510179
	O456	O	0.857801	0.088719	0.120918
	H457	H	0.844803	0.066690	0.135353
	H458	H	0.871622	0.108471	0.118022
	O459	O	0.784280	-0.212612	1.022620
	H460	H	0.783965	-0.214550	1.020413
	H461	H	0.777848	-0.233689	1.007525
	O462	O	0.283221	0.719746	0.453277
	H463	H	0.266041	0.726546	0.454537
	H464	H	0.268761	0.727759	0.429445
	O465	O	0.786602	0.023325	-0.228241
	H466	H	0.769555	0.021339	-0.237053
	H467	H	0.789726	0.031326	-0.232292
