data_Molecule from HDF5

_cell_length_a		16.314828
_cell_length_b		16.344742
_cell_length_c		16.452821
_cell_angle_alpha	90.052747
_cell_angle_beta	90.197345
_cell_angle_gamma	90.060832
_symmetry_space_group_name_H-M	'P 1'
_symmetry_Int_Tables_number		1

loop_
	_symmetry_equiv_pos_as_xyz
	x,y,z

loop_
	_atom_site_label
	_atom_site_type_symbol
	_atom_site_fract_x
	_atom_site_fract_y
	_atom_site_fract_z
	H0	H	0.384434	0.844392	0.719123
	H1	H	0.600448	0.161437	0.723410
	H2	H	0.597261	0.846221	0.273620
	H3	H	0.379073	0.161120	0.271866
	H4	H	0.710734	0.398126	0.839384
	H5	H	0.714918	0.612825	0.154436
	H6	H	0.270584	0.606894	0.836804
	H7	H	0.267731	0.398973	0.155576
	H8	H	0.830409	0.724357	0.390960
	H9	H	0.150017	0.723058	0.600522
	H10	H	0.831478	0.279516	0.604798
	H11	H	0.149064	0.281334	0.390718
	H12	H	0.832010	0.394295	0.720763
	H13	H	0.149951	0.608198	0.717476
	H14	H	0.832405	0.611626	0.272438
	H15	H	0.149605	0.396586	0.275775
	H16	H	0.386893	0.723302	0.837757
	H17	H	0.597301	0.727111	0.155143
	H18	H	0.596062	0.281120	0.840002
	H19	H	0.379227	0.279598	0.154112
	H20	H	0.710301	0.845375	0.391879
	H21	H	0.713514	0.162723	0.605530
	H22	H	0.270102	0.843859	0.600742
	H23	H	0.267184	0.162634	0.390234
	H24	H	0.883558	0.345416	0.219076
	H25	H	0.097824	0.662118	0.219536
	H26	H	0.097062	0.343980	0.774022
	H27	H	0.884513	0.662386	0.775252
	H28	H	0.209640	0.900044	0.338522
	H29	H	0.211937	0.109557	0.656477
	H30	H	0.764752	0.111965	0.340599
	H31	H	0.768971	0.898810	0.655407
	H32	H	0.329051	0.224103	0.892390
	H33	H	0.647260	0.228615	0.107247
	H34	H	0.328710	0.785021	0.099510
	H35	H	0.649612	0.782768	0.892805
	H36	H	0.329769	0.898652	0.217512
	H37	H	0.647879	0.112078	0.221694
	H38	H	0.329964	0.109129	0.775577
	H39	H	0.648432	0.897160	0.775655
	H40	H	0.882818	0.225272	0.339170
	H41	H	0.097648	0.227265	0.654743
	H42	H	0.094579	0.783699	0.338128
	H43	H	0.883941	0.781451	0.654806
	H44	H	0.209723	0.342778	0.893325
	H45	H	0.208512	0.664507	0.098739
	H46	H	0.766241	0.345937	0.104705
	H47	H	0.769633	0.663015	0.892391
	H48	H	0.399499	0.119666	0.589992
	H49	H	0.579590	0.889468	0.589054
	H50	H	0.572792	0.115478	0.412566
	H51	H	0.403839	0.890021	0.406367
	H52	H	0.576001	0.416289	0.109840
	H53	H	0.584121	0.592525	0.882374
	H54	H	0.406754	0.595940	0.108364
	H55	H	0.403145	0.410073	0.884487
	H56	H	0.103734	0.590190	0.405905
	H57	H	0.871942	0.600109	0.591561
	H58	H	0.104661	0.412348	0.586056
	H59	H	0.876045	0.416935	0.406229
	H60	H	0.101409	0.417284	0.581855
	H61	H	0.878024	0.592912	0.576115
	H62	H	0.106282	0.595582	0.407413
	H63	H	0.875951	0.413911	0.407831
	H64	H	0.395580	0.600312	0.114068
	H65	H	0.575463	0.589212	0.886821
	H66	H	0.578610	0.419195	0.109715
	H67	H	0.394168	0.414175	0.882350
	H68	H	0.577431	0.117011	0.411992
	H69	H	0.574515	0.891882	0.587048
	H70	H	0.404937	0.117487	0.588864
	H71	H	0.400417	0.891437	0.411376
	H72	H	0.901335	0.618288	0.085951
	H73	H	0.084367	0.387618	0.086750
	H74	H	0.080887	0.617131	0.907055
	H75	H	0.906234	0.387697	0.897778
	H76	H	0.081225	0.914968	0.611164
	H77	H	0.079955	0.092805	0.383701
	H78	H	0.905086	0.097780	0.610851
	H79	H	0.900753	0.918803	0.385195
	H80	H	0.603217	0.090301	0.907757
	H81	H	0.377575	0.085465	0.085212
	H82	H	0.603234	0.914296	0.085472
	H83	H	0.375397	0.907615	0.915315
	H84	H	0.602626	0.918120	0.085705
	H85	H	0.374098	0.093810	0.088517
	H86	H	0.603195	0.095379	0.910842
	H87	H	0.379376	0.924036	0.908818
	H88	H	0.896344	0.089327	0.610976
	H89	H	0.078831	0.090341	0.385290
	H90	H	0.078241	0.914349	0.609931
	H91	H	0.902481	0.913047	0.384507
	H92	H	0.081374	0.619118	0.904069
	H93	H	0.074429	0.389996	0.091051
	H94	H	0.907164	0.616502	0.086719
	H95	H	0.908977	0.395093	0.916245
	H96	H	0.400615	0.117446	0.584509
	H97	H	0.579439	0.890811	0.584073
	H98	H	0.574020	0.117537	0.408174
	H99	H	0.397906	0.888778	0.406531
	H100	H	0.575355	0.419494	0.108095
	H101	H	0.576195	0.598123	0.883519
	H102	H	0.396419	0.587647	0.109959
	H103	H	0.401370	0.419460	0.886820
	H104	H	0.103703	0.592400	0.410785
	H105	H	0.877336	0.582954	0.591219
	H106	H	0.102803	0.418635	0.588418
	H107	H	0.877403	0.416959	0.409083
	H108	H	0.904530	0.615420	0.081411
	H109	H	0.076247	0.392375	0.080902
	H110	H	0.078148	0.617851	0.904829
	H111	H	0.890794	0.387029	0.911385
	H112	H	0.079946	0.912248	0.611224
	H113	H	0.077127	0.093336	0.385373
	H114	H	0.907341	0.087095	0.606180
	H115	H	0.896947	0.914337	0.382434
	H116	H	0.600910	0.089665	0.913469
	H117	H	0.377582	0.093262	0.079342
	H118	H	0.604070	0.916275	0.088295
	H119	H	0.371387	0.911671	0.898249
	C120	C	0.369175	0.012425	0.619065
	C121	C	0.611642	0.995611	0.619709
	C122	C	0.609302	0.012557	0.377016
	C123	C	0.368005	0.995389	0.375808
	C124	C	0.610186	0.383833	0.005410
	C125	C	0.612125	0.626773	0.988527
	C126	C	0.368238	0.625608	0.005369
	C127	C	0.366884	0.382146	0.988895
	C128	C	-0.000555	0.625247	0.375140
	C129	C	0.981094	0.624734	0.618213
	C130	C	-0.001849	0.382145	0.618491
	C131	C	0.981622	0.382737	0.375557
	C132	C	0.870306	0.512295	0.117859
	C133	C	0.111460	0.495114	0.118312
	C134	C	0.111876	0.511915	0.874526
	C135	C	0.869047	0.494960	0.875776
	C136	C	0.111514	0.882159	0.505727
	C137	C	0.112075	0.125517	0.489006
	C138	C	0.868672	0.124987	0.505590
	C139	C	0.867716	0.882303	0.488391
	C140	C	0.497672	0.124667	0.877156
	C141	C	0.480595	0.125838	0.119193
	C142	C	0.497901	0.883369	0.118200
	C143	C	0.480991	0.882334	0.875719
	C144	C	0.366682	0.892179	0.678675
	C145	C	0.616653	0.114254	0.682098
	C146	C	0.614344	0.893660	0.314676
	C147	C	0.362975	0.113966	0.313645
	C148	C	0.671073	0.380059	0.887050
	C149	C	0.674080	0.630170	0.107232
	C150	C	0.309464	0.626359	0.885112
	C151	C	0.306619	0.379899	0.107807
	C152	C	0.878660	0.685155	0.372452
	C153	C	0.101746	0.684229	0.619705
	C154	C	0.879180	0.320109	0.622113
	C155	C	0.101231	0.321670	0.372875
	C156	C	0.879365	0.377300	0.679975
	C157	C	0.101613	0.626820	0.677685
	C158	C	0.879702	0.628980	0.313424
	C159	C	0.101451	0.379384	0.315582
	C160	C	0.367457	0.684148	0.885373
	C161	C	0.615383	0.687064	0.107622
	C162	C	0.613661	0.321854	0.887188
	C163	C	0.362460	0.320482	0.106909
	C164	C	0.670819	0.893263	0.373539
	C165	C	0.673392	0.114848	0.623506
	C166	C	0.309489	0.892063	0.620124
	C167	C	0.307051	0.114879	0.372948
	C168	C	0.866076	0.393040	0.178772
	C169	C	0.114905	0.614712	0.178775
	C170	C	0.114396	0.391637	0.814806
	C171	C	0.866685	0.614806	0.815726
	C172	C	0.170215	0.881297	0.386206
	C173	C	0.172561	0.128146	0.608392
	C174	C	0.805674	0.129394	0.387552
	C175	C	0.807850	0.879954	0.607370
	C176	C	0.377235	0.184588	0.874284
	C177	C	0.599663	0.188073	0.124384
	C178	C	0.377198	0.823868	0.118769
	C179	C	0.601585	0.822618	0.874188
	C180	C	0.377588	0.880400	0.177598
	C181	C	0.599601	0.130080	0.181639
	C182	C	0.377744	0.127317	0.816082
	C183	C	0.601148	0.879462	0.815930
	C184	C	0.864751	0.185571	0.386834
	C185	C	0.115431	0.186784	0.607637
	C186	C	0.112811	0.823357	0.385874
	C187	C	0.865488	0.821661	0.607201
	C188	C	0.170737	0.391009	0.874031
	C189	C	0.169935	0.616002	0.118609
	C190	C	0.807630	0.393332	0.121705
	C191	C	0.809371	0.615156	0.873945
	C192	C	0.394356	0.096335	0.594808
	C193	C	0.585335	0.912301	0.593993
	C194	C	0.582499	0.094985	0.403457
	C195	C	0.393724	0.911978	0.400988
	C196	C	0.584212	0.410380	0.087633
	C197	C	0.586023	0.600772	0.905832
	C198	C	0.392499	0.601617	0.089021
	C199	C	0.392436	0.407270	0.906061
	C200	C	0.082635	0.599866	0.400684
	C201	C	0.897585	0.599356	0.593551
	C202	C	0.081256	0.408566	0.592632
	C203	C	0.898117	0.408476	0.400685
	C204	C	0.896658	0.595171	0.091888
	C205	C	0.085741	0.411561	0.093489
	C206	C	0.087225	0.596080	0.898331
	C207	C	0.894570	0.411623	0.901110
	C208	C	0.086727	0.906757	0.589120
	C209	C	0.086099	0.099750	0.406378
	C210	C	0.895347	0.099007	0.587905
	C211	C	0.892965	0.907982	0.405486
	C212	C	0.580624	0.099164	0.903252
	C213	C	0.397912	0.098723	0.092157
	C214	C	0.581575	0.908981	0.093633
	C215	C	0.397287	0.907247	0.900208
	Zn216	Zn	0.490362	0.003498	0.748084
	Zn217	Zn	0.489144	0.003797	0.247390
	Zn218	Zn	0.740239	0.504237	-0.002814
	Zn219	Zn	0.239392	0.503879	-0.003313
	Zn220	Zn	-0.009876	0.753485	0.496410
	Zn221	Zn	-0.010373	0.254494	0.496891
	Zn222	Zn	-0.009955	0.502911	0.746952
	Zn223	Zn	-0.009261	0.503712	0.247372
	Zn224	Zn	0.489748	0.754433	-0.002741
	Zn225	Zn	0.489242	0.254409	-0.002141
	Zn226	Zn	0.738902	0.004603	0.497215
	Zn227	Zn	0.240266	0.003737	0.497467
	N228	N	0.402870	0.968235	0.678302
	N229	N	0.579148	0.038756	0.680057
	N230	N	0.576678	0.968816	0.316685
	N231	N	0.400113	0.038610	0.315189
	N232	N	0.669041	0.417724	0.961741
	N233	N	0.672267	0.593424	0.032021
	N234	N	0.309699	0.590673	0.960783
	N235	N	0.309358	0.417568	0.033347
	N236	N	0.953901	0.683180	0.409968
	N237	N	0.025693	0.683410	0.583548
	N238	N	0.954221	0.323149	0.584517
	N239	N	0.025688	0.323626	0.409470
	N240	N	0.954316	0.415306	0.677692
	N241	N	0.025651	0.590518	0.677094
	N242	N	0.955775	0.592979	0.314519
	N243	N	0.025796	0.416455	0.316913
	N244	N	0.402999	0.683867	0.961117
	N245	N	0.577724	0.685014	0.032818
	N246	N	0.576410	0.324004	0.961887
	N247	N	0.399368	0.321951	0.031898
	N248	N	0.667889	0.968108	0.411477
	N249	N	0.670508	0.040009	0.585677
	N250	N	0.310829	0.967758	0.583990
	N251	N	0.310199	0.040134	0.411184
	N252	N	0.904086	0.467928	0.176545
	N253	N	0.079369	0.538436	0.178574
	N254	N	0.078895	0.467871	0.814912
	N255	N	0.903187	0.539014	0.816778
	N256	N	0.169443	0.917261	0.461883
	N257	N	0.170773	0.091141	0.533385
	N258	N	0.807885	0.092417	0.462569
	N259	N	0.809055	0.916802	0.532310
	N260	N	0.452932	0.183462	0.911366
	N261	N	0.524462	0.185856	0.086517
	N262	N	0.453083	0.825602	0.082639
	N263	N	0.525934	0.824201	0.910596
	N264	N	0.453702	0.916556	0.177467
	N265	N	0.524337	0.092292	0.178693
	N266	N	0.453625	0.091014	0.817536
	N267	N	0.525123	0.915564	0.816698
	N268	N	0.903168	0.183041	0.461173
	N269	N	0.078721	0.185574	0.532437
	N270	N	0.077221	0.823739	0.461335
	N271	N	0.901692	0.822701	0.531948
	N272	N	0.169241	0.466778	0.910553
	N273	N	0.168183	0.540521	0.081971
	N274	N	0.809965	0.468549	0.084287
	N275	N	0.810821	0.539768	0.910615
	O276	O	0.355784	0.621289	0.582056
	H277	H	0.360056	0.632095	0.588915
	H278	H	0.352725	0.619979	0.565442
	O279	O	0.677451	0.692638	0.691440
	H280	H	0.646229	0.682278	0.692185
	H281	H	0.682633	0.698957	0.644796
	O282	O	0.637682	0.295260	0.504430
	H283	H	0.634784	0.290892	0.518655
	H284	H	0.612748	0.280488	0.519433
	O285	O	0.838375	0.923813	0.018422
	H286	H	0.824540	0.931221	0.023479
	H287	H	0.831913	0.934644	0.013389
	O288	O	0.493415	0.613835	0.540645
	H289	H	0.492288	0.608395	0.540055
	H290	H	0.497533	0.607840	0.535382
	O291	O	0.509302	0.701527	0.702934
	H292	H	0.498503	0.694891	0.693184
	H293	H	0.513349	0.719242	0.712875
	O294	O	0.805874	0.809945	1.114899
	H295	H	0.818322	0.817817	1.112520
	H296	H	0.794959	0.815782	1.107995
	O297	O	0.277844	0.291458	0.523875
	H298	H	0.267199	0.287418	0.507941
	H299	H	0.282462	0.272307	0.508426
	O300	O	0.321508	0.509555	0.285601
	H301	H	0.302077	0.514063	0.274234
	H302	H	0.328284	0.509206	0.285645
	O303	O	0.701378	0.717601	0.526514
	H304	H	0.705022	0.701777	0.502642
	H305	H	0.721910	0.741980	0.518007
	O306	O	0.060858	-0.042971	1.188899
	H307	H	0.067493	-0.044360	1.179832
	H308	H	0.049542	-0.054670	1.190950
	O309	O	1.119466	-0.100709	0.149787
	H310	H	1.114348	-0.097728	0.151545
	H311	H	1.098118	-0.087969	0.152623
	O312	O	1.110252	0.102514	-0.044651
	H313	H	1.103979	0.090740	-0.052225
	H314	H	1.118512	0.103836	-0.044093
	O315	O	0.499966	0.318660	0.580862
	H316	H	0.485316	0.327953	0.603409
	H317	H	0.497208	0.321731	0.594633
	O318	O	-0.056463	0.051890	-0.073036
	H319	H	-0.059120	0.055676	-0.046682
	H320	H	-0.063228	0.032370	-0.086306
	O321	O	0.360551	0.508027	0.662291
	H322	H	0.376193	0.513880	0.664945
	H323	H	0.356719	0.520338	0.666473
	O324	O	1.097251	0.056537	0.972658
	H325	H	1.115437	0.053984	0.966762
	H326	H	1.079822	0.069320	0.957518
	O327	O	0.669685	0.329150	0.318672
	H328	H	0.683356	0.340489	0.342486
	H329	H	0.646338	0.318286	0.338635
	O330	O	-0.156622	0.899373	0.924492
	H331	H	-0.154008	0.910999	0.925160
	H332	H	-0.159249	0.904761	0.924844
	O333	O	0.025690	1.172695	-0.178579
	H334	H	0.033210	1.154936	-0.190626
	H335	H	0.031339	1.178425	-0.198762
	O336	O	1.181936	1.002627	-0.079376
	H337	H	1.183460	0.987247	-0.081706
	H338	H	1.185542	0.981552	-0.080090
	O339	O	-0.304418	1.490526	1.288963
	H340	H	-0.303172	1.490548	1.285853
	H341	H	-0.305402	1.469027	1.278958
	O342	O	0.473954	0.509307	0.602616
	H343	H	0.481453	0.506763	0.613632
	H344	H	0.479432	0.503723	0.600630
	O345	O	-0.526930	-0.407793	1.531508
	H346	H	-0.503136	-0.417524	1.530937
	H347	H	-0.518919	-0.417836	1.518891
	O348	O	0.702258	0.454463	0.560614
	H349	H	0.703462	0.450431	0.575419
	H350	H	0.710311	0.449551	0.541667
	O351	O	0.777719	1.204811	-0.019774
	H352	H	0.782862	1.196541	-0.056197
	H353	H	0.751713	1.234323	-0.026337
	O354	O	0.879235	0.857989	1.191332
	H355	H	0.867826	0.861319	1.178127
	H356	H	0.891554	0.854158	1.207163
	O357	O	0.029254	0.164306	0.141950
	H358	H	0.021429	0.175992	0.125188
	H359	H	0.017746	0.171930	0.148240
	O360	O	1.153222	-0.068995	-0.023613
	H361	H	1.152377	-0.061722	-0.016346
	H362	H	1.152217	-0.061756	-0.011010
	O363	O	1.691918	-0.526139	0.463675
	H364	H	1.683991	-0.544579	0.464876
	H365	H	1.690341	-0.523560	0.473848
	O366	O	0.468007	0.422029	1.343485
	H367	H	0.484612	0.414313	1.336481
	H368	H	0.478432	0.424347	1.344833
	O369	O	0.999000	0.210821	1.084124
	H370	H	1.011797	0.210822	1.080525
	H371	H	0.993022	0.218265	1.096381
	O372	O	0.434602	0.291632	0.709502
	H373	H	0.402076	0.301039	0.702810
	H374	H	0.429269	0.263084	0.727661
	O375	O	-0.185410	0.183281	0.834801
	H376	H	-0.170404	0.170276	0.826895
	H377	H	-0.169546	0.160193	0.822124
	O378	O	0.355871	0.462388	0.396133
	H379	H	0.357372	0.466479	0.409255
	H380	H	0.350728	0.474153	0.398096
	O381	O	0.065011	0.993413	0.049348
	H382	H	0.060714	1.000024	0.045130
	H383	H	0.058792	1.001522	0.042925
	O384	O	0.299460	0.358085	0.692429
	H385	H	0.283072	0.397954	0.706582
	H386	H	0.292267	0.340668	0.648741
	O387	O	0.510224	0.290283	0.282248
	H388	H	0.499688	0.287222	0.262477
	H389	H	0.532953	0.282422	0.274099
	O390	O	0.826100	1.047197	0.153631
	H391	H	0.820378	1.055186	0.150900
	H392	H	0.822614	1.051425	0.145493
	O393	O	0.994748	-0.062333	0.978393
	H394	H	0.995394	-0.050525	0.987205
	H395	H	0.998357	-0.061489	0.982200
	O396	O	1.026000	-0.189350	-0.139366
	H397	H	1.041472	-0.192758	-0.125428
	H398	H	1.031137	-0.204232	-0.139317
	O399	O	0.316922	0.443327	0.546630
	H400	H	0.326560	0.456285	0.535723
	H401	H	0.307877	0.463059	0.547763
	O402	O	1.139204	1.037961	-0.103663
	H403	H	1.145583	1.037003	-0.100366
	H404	H	1.136755	1.048879	-0.102326
	O405	O	0.546996	0.658758	0.386948
	H406	H	0.533688	0.638180	0.398658
	H407	H	0.557703	0.675208	0.379931
	O408	O	0.289102	0.694416	0.477374
	H409	H	0.304969	0.691391	0.465289
	H410	H	0.276284	0.708119	0.478098
	O411	O	1.017101	0.961967	1.117093
	H412	H	1.007123	0.937122	1.103598
	H413	H	1.006091	0.968765	1.140445
	O414	O	0.535031	0.405374	0.571633
	H415	H	0.514529	0.405603	0.583916
	H416	H	0.539477	0.400622	0.575001
	O417	O	0.053552	0.970751	1.126052
	H418	H	0.053257	0.964718	1.133750
	H419	H	0.046203	1.000710	1.132801
	O420	O	0.181018	0.810711	0.856986
	H421	H	0.171411	0.800500	0.867946
	H422	H	0.184337	0.813122	0.862007
	O423	O	-0.141134	1.079413	0.033648
	H424	H	-0.134060	1.082193	0.025909
	H425	H	-0.139910	1.095980	0.024102
	O426	O	0.468177	0.710244	0.288046
	H427	H	0.479366	0.723869	0.280456
	H428	H	0.450162	0.710243	0.296515
	O429	O	0.307421	0.686160	0.317812
	H430	H	0.329785	0.677889	0.320688
	H431	H	0.297966	0.685323	0.326875
	O432	O	0.542526	0.547339	0.353939
	H433	H	0.553104	0.519090	0.354680
	H434	H	0.538593	0.553974	0.339930
	O435	O	-0.213155	0.025498	-0.197331
	H436	H	-0.227092	0.012792	-0.216851
	H437	H	-0.205415	0.004930	-0.199785
	O438	O	-0.015074	0.951712	0.791784
	H439	H	-0.011611	0.942425	0.798633
	H440	H	-0.013512	0.938103	0.797840
	O441	O	0.699405	0.526331	0.710684
	H442	H	0.695463	0.548846	0.693858
	H443	H	0.728554	0.525448	0.730216
