data_Molecule from HDF5

_cell_length_a		16.179499
_cell_length_b		16.227512
_cell_length_c		16.322006
_cell_angle_alpha	90.169741
_cell_angle_beta	90.106820
_cell_angle_gamma	89.912857
_symmetry_space_group_name_H-M	'P 1'
_symmetry_Int_Tables_number		1

loop_
	_symmetry_equiv_pos_as_xyz
	x,y,z

loop_
	_atom_site_label
	_atom_site_type_symbol
	_atom_site_fract_x
	_atom_site_fract_y
	_atom_site_fract_z
	H0	H	0.397477	0.835959	0.719701
	H1	H	0.595149	0.164059	0.721628
	H2	H	0.592800	0.835923	0.292398
	H3	H	0.396686	0.165493	0.293558
	H4	H	0.707594	0.402215	0.842080
	H5	H	0.707820	0.596800	0.170404
	H6	H	0.282112	0.594464	0.842479
	H7	H	0.281517	0.404069	0.170942
	H8	H	0.830139	0.710843	0.410659
	H9	H	0.160174	0.712533	0.604595
	H10	H	0.828528	0.288266	0.602400
	H11	H	0.160183	0.286020	0.410424
	H12	H	0.829526	0.401199	0.719897
	H13	H	0.159473	0.598406	0.722618
	H14	H	0.830836	0.597926	0.292864
	H15	H	0.159876	0.399365	0.291944
	H16	H	0.396140	0.712831	0.842715
	H17	H	0.592679	0.714483	0.169824
	H18	H	0.592136	0.283981	0.843792
	H19	H	0.395888	0.285645	0.170807
	H20	H	0.706961	0.834830	0.409454
	H21	H	0.707884	0.164983	0.603003
	H22	H	0.283773	0.834911	0.601798
	H23	H	0.280871	0.164318	0.409904
	H24	H	0.895148	0.335464	0.220849
	H25	H	0.094389	0.663194	0.222903
	H26	H	0.093640	0.334715	0.792229
	H27	H	0.894760	0.663112	0.792700
	H28	H	0.208750	0.901175	0.342270
	H29	H	0.208826	0.096844	0.671011
	H30	H	0.781393	0.095888	0.342937
	H31	H	0.782417	0.903565	0.670340
	H32	H	0.329462	0.211923	0.910528
	H33	H	0.659785	0.213240	0.104536
	H34	H	0.329276	0.788892	0.102739
	H35	H	0.659666	0.785457	0.909072
	H36	H	0.330824	0.902528	0.220434
	H37	H	0.660162	0.099038	0.220395
	H38	H	0.331001	0.099178	0.790972
	H39	H	0.660255	0.901301	0.793327
	H40	H	0.895706	0.213205	0.343137
	H41	H	0.093292	0.214495	0.670651
	H42	H	0.094510	0.783190	0.343280
	H43	H	0.898724	0.787212	0.671019
	H44	H	0.208369	0.334692	0.909484
	H45	H	0.207085	0.665022	0.104571
	H46	H	0.782021	0.334871	0.102694
	H47	H	0.781757	0.664185	0.910874
	H48	H	0.387243	0.119433	0.592947
	H49	H	0.584131	0.886899	0.590755
	H50	H	0.593453	0.118334	0.412894
	H51	H	0.397001	0.883286	0.417668
	H52	H	0.580730	0.408487	0.120755
	H53	H	0.588766	0.600056	0.887732
	H54	H	0.404010	0.595924	0.123100
	H55	H	0.398460	0.402505	0.889199
	H56	H	0.114365	0.598378	0.416299
	H57	H	0.876820	0.592518	0.601401
	H58	H	0.113935	0.398236	0.600640
	H59	H	0.879382	0.403789	0.420849
	H60	H	0.107992	0.410140	0.593171
	H61	H	0.876902	0.594202	0.602001
	H62	H	0.110058	0.585049	0.417314
	H63	H	0.879056	0.415003	0.409435
	H64	H	0.399025	0.598048	0.124966
	H65	H	0.593269	0.588788	0.889648
	H66	H	0.590642	0.399962	0.125290
	H67	H	0.400015	0.408848	0.891217
	H68	H	0.584443	0.118402	0.409089
	H69	H	0.600408	0.879131	0.600948
	H70	H	0.405414	0.121770	0.615835
	H71	H	0.399334	0.879602	0.404059
	H72	H	0.892085	0.618783	0.099604
	H73	H	0.097259	0.380127	0.101196
	H74	H	0.090270	0.618968	0.907222
	H75	H	0.903482	0.383659	0.916459
	H76	H	0.087595	0.893697	0.625592
	H77	H	0.088714	0.083790	0.392794
	H78	H	0.907220	0.092420	0.621196
	H79	H	0.899586	0.901258	0.388382
	H80	H	0.606719	0.083786	0.923509
	H81	H	0.379504	0.090273	0.093637
	H82	H	0.613561	0.907814	0.101954
	H83	H	0.375569	0.911039	0.900521
	H84	H	0.612752	0.904589	0.099342
	H85	H	0.377100	0.088301	0.105968
	H86	H	0.615167	0.086912	0.900775
	H87	H	0.375096	0.895568	0.915743
	H88	H	0.900076	0.099805	0.625709
	H89	H	0.078717	0.095849	0.392688
	H90	H	0.100199	0.910968	0.623858
	H91	H	0.898841	0.908165	0.390156
	H92	H	0.079421	0.614364	0.913076
	H93	H	0.082235	0.382295	0.106104
	H94	H	0.906013	0.618413	0.110179
	H95	H	0.897430	0.379928	0.912680
	H96	H	0.415395	0.110088	0.590654
	H97	H	0.582226	0.881976	0.610404
	H98	H	0.586361	0.115217	0.418072
	H99	H	0.409831	0.885859	0.411723
	H100	H	0.593678	0.413246	0.123076
	H101	H	0.581554	0.591148	0.891684
	H102	H	0.399363	0.592415	0.123187
	H103	H	0.404824	0.404058	0.891209
	H104	H	0.115063	0.589818	0.405387
	H105	H	0.877764	0.593794	0.600031
	H106	H	0.112973	0.412105	0.607860
	H107	H	0.873450	0.400095	0.406225
	H108	H	0.907121	0.613038	0.093344
	H109	H	0.085404	0.385642	0.091327
	H110	H	0.090866	0.615527	0.919827
	H111	H	0.903949	0.381765	0.908527
	H112	H	0.079640	0.911884	0.618514
	H113	H	0.093497	0.098147	0.387074
	H114	H	0.896385	0.089284	0.623820
	H115	H	0.905610	0.904873	0.391158
	H116	H	0.615480	0.105285	0.916639
	H117	H	0.375851	0.100110	0.101275
	H118	H	0.611345	0.908089	0.098142
	H119	H	0.382232	0.915544	0.920495
	C120	C	0.374251	0.008681	0.627738
	C121	C	0.617049	0.991511	0.628495
	C122	C	0.616620	0.008545	0.384973
	C123	C	0.373653	0.991732	0.383774
	C124	C	0.616103	0.378311	0.014952
	C125	C	0.616514	0.621724	0.997742
	C126	C	0.372469	0.622754	0.015032
	C127	C	0.372821	0.377658	0.999004
	C128	C	0.003803	0.619556	0.385708
	C129	C	0.986409	0.621198	0.629043
	C130	C	0.002627	0.378659	0.628087
	C131	C	0.986631	0.377698	0.384499
	C132	C	0.873476	0.508078	0.128448
	C133	C	0.116426	0.491396	0.128363
	C134	C	0.116122	0.507658	0.884800
	C135	C	0.873071	0.490547	0.884980
	C136	C	0.117473	0.876700	0.514754
	C137	C	0.116056	0.121421	0.498899
	C138	C	0.873135	0.121513	0.515134
	C139	C	0.873498	0.877426	0.498286
	C140	C	0.503417	0.120491	0.885527
	C141	C	0.486540	0.121475	0.128401
	C142	C	0.503536	0.878901	0.127671
	C143	C	0.486574	0.878444	0.884305
	C144	C	0.376942	0.884808	0.682102
	C145	C	0.614876	0.115182	0.683204
	C146	C	0.613774	0.885058	0.329874
	C147	C	0.376146	0.116063	0.330738
	C148	C	0.670371	0.381006	0.891338
	C149	C	0.670669	0.618295	0.121422
	C150	C	0.318808	0.617089	0.891518
	C151	C	0.318543	0.382193	0.122101
	C152	C	0.879500	0.674147	0.389276
	C153	C	0.110932	0.675199	0.625754
	C154	C	0.878005	0.324859	0.623804
	C155	C	0.110831	0.323069	0.388640
	C156	C	0.878517	0.380996	0.682318
	C157	C	0.110454	0.618438	0.684249
	C158	C	0.879723	0.617688	0.331210
	C159	C	0.110786	0.379720	0.330171
	C160	C	0.375345	0.675916	0.891744
	C161	C	0.613332	0.676415	0.121174
	C162	C	0.613008	0.322465	0.892118
	C163	C	0.375488	0.323563	0.122170
	C164	C	0.670159	0.884356	0.388163
	C165	C	0.671158	0.115516	0.624513
	C166	C	0.320815	0.884164	0.623258
	C167	C	0.319011	0.115655	0.388782
	C168	C	0.875698	0.384285	0.182555
	C169	C	0.114001	0.614765	0.183819
	C170	C	0.114106	0.383804	0.829996
	C171	C	0.874781	0.614475	0.830662
	C172	C	0.171519	0.880029	0.391338
	C173	C	0.171412	0.118060	0.621982
	C174	C	0.818873	0.117227	0.391693
	C175	C	0.819637	0.882083	0.621571
	C176	C	0.378943	0.174883	0.889139
	C177	C	0.610638	0.176072	0.125276
	C178	C	0.378865	0.825767	0.123666
	C179	C	0.610654	0.823606	0.887942
	C180	C	0.379497	0.882336	0.182170
	C181	C	0.610747	0.119582	0.183198
	C182	C	0.379464	0.118873	0.829977
	C183	C	0.610709	0.880856	0.830148
	C184	C	0.875457	0.175779	0.392122
	C185	C	0.114015	0.176495	0.621951
	C186	C	0.114882	0.821341	0.391853
	C187	C	0.877461	0.824182	0.621792
	C188	C	0.171178	0.383897	0.888114
	C189	C	0.170336	0.615529	0.125612
	C190	C	0.819204	0.384087	0.124217
	C191	C	0.818492	0.614926	0.889162
	C192	C	0.396225	0.094890	0.606210
	C193	C	0.595194	0.904939	0.606981
	C194	C	0.594754	0.095056	0.406979
	C195	C	0.395776	0.905242	0.404710
	C196	C	0.594825	0.400606	0.100848
	C197	C	0.594593	0.599874	0.911829
	C198	C	0.394450	0.601766	0.101567
	C199	C	0.394673	0.398727	0.912740
	C200	C	0.090684	0.597609	0.406855
	C201	C	0.899561	0.599884	0.607514
	C202	C	0.089365	0.400332	0.606705
	C203	C	0.899622	0.399839	0.405749
	C204	C	0.895294	0.594477	0.107345
	C205	C	0.094619	0.405053	0.106312
	C206	C	0.093466	0.594048	0.906738
	C207	C	0.895030	0.404183	0.906208
	C208	C	0.095669	0.898942	0.600477
	C209	C	0.093660	0.099145	0.413066
	C210	C	0.894813	0.100116	0.601482
	C211	C	0.894913	0.898392	0.412258
	C212	C	0.590071	0.098428	0.907261
	C213	C	0.399983	0.099316	0.106749
	C214	C	0.590195	0.900333	0.106247
	C215	C	0.400000	0.900849	0.905857
	Zn216	Zn	0.495303	-0.000078	0.756469
	Zn217	Zn	0.495452	0.000633	0.255968
	Zn218	Zn	0.745345	0.499690	0.006477
	Zn219	Zn	0.244431	0.500217	0.006694
	Zn220	Zn	-0.004417	0.748063	0.506520
	Zn221	Zn	-0.005632	0.250168	0.506795
	Zn222	Zn	-0.005792	0.499115	0.756918
	Zn223	Zn	-0.004802	0.499097	0.256666
	Zn224	Zn	0.494699	0.750652	0.006019
	Zn225	Zn	0.494555	0.248891	0.007610
	Zn226	Zn	0.744910	-0.000463	0.506301
	Zn227	Zn	0.245670	-0.000451	0.506056
	N228	N	0.409453	0.963106	0.684817
	N229	N	0.581943	0.037106	0.685775
	N230	N	0.580854	0.963220	0.327997
	N231	N	0.409342	0.038046	0.327570
	N232	N	0.672286	0.414997	0.968594
	N233	N	0.672955	0.585161	0.043704
	N234	N	0.317054	0.585075	0.969365
	N235	N	0.316933	0.414898	0.044458
	N236	N	0.957673	0.675196	0.422708
	N237	N	0.032879	0.677019	0.592282
	N238	N	0.956312	0.323183	0.590945
	N239	N	0.032662	0.321938	0.421868
	N240	N	0.956749	0.413980	0.684758
	N241	N	0.032107	0.585668	0.686251
	N242	N	0.957979	0.584501	0.328794
	N243	N	0.032412	0.412682	0.327365
	N244	N	0.407919	0.679409	0.969691
	N245	N	0.580275	0.678591	0.043473
	N246	N	0.580152	0.320780	0.969762
	N247	N	0.408607	0.320774	0.044577
	N248	N	0.671906	0.962248	0.421579
	N249	N	0.672373	0.037627	0.590911
	N250	N	0.318894	0.962065	0.590068
	N251	N	0.317105	0.037324	0.420815
	N252	N	0.908661	0.462325	0.185319
	N253	N	0.081245	0.536562	0.185764
	N254	N	0.080645	0.461883	0.827825
	N255	N	0.907982	0.536405	0.827878
	N256	N	0.173342	0.913832	0.468653
	N257	N	0.172835	0.084436	0.544313
	N258	N	0.817213	0.084434	0.469232
	N259	N	0.817245	0.914611	0.543832
	N260	N	0.457004	0.176103	0.922936
	N261	N	0.532500	0.177355	0.091981
	N262	N	0.457038	0.823560	0.090569
	N263	N	0.532511	0.822078	0.920835
	N264	N	0.458033	0.914717	0.184766
	N265	N	0.532573	0.086269	0.185057
	N266	N	0.457791	0.085871	0.827711
	N267	N	0.532399	0.914176	0.827817
	N268	N	0.908661	0.178173	0.469869
	N269	N	0.080654	0.178605	0.544436
	N270	N	0.081833	0.819367	0.469505
	N271	N	0.910367	0.821169	0.544190
	N272	N	0.172461	0.461772	0.921529
	N273	N	0.171718	0.537915	0.091411
	N274	N	0.817780	0.462061	0.091144
	N275	N	0.817455	0.537013	0.922294
	O276	O	1.073432	0.013264	1.031816
	H277	H	1.076503	0.000551	1.023329
	H278	H	1.066844	0.020400	1.034076
	O279	O	1.080530	-0.012626	0.041988
	H280	H	1.087362	-0.024074	0.044126
	H281	H	1.082926	-0.009623	0.041792
	O282	O	1.068691	1.001337	0.042374
	H283	H	1.066631	0.998855	0.048743
	H284	H	1.073429	1.003538	0.040369
	O285	O	0.054445	0.998516	0.029380
	H286	H	0.051398	1.008704	0.031867
	H287	H	0.060991	1.001964	0.027473
