data_Molecule from HDF5

_cell_length_a		16.100202
_cell_length_b		16.276875
_cell_length_c		16.170124
_cell_angle_alpha	90.111415
_cell_angle_beta	89.670236
_cell_angle_gamma	90.177698
_symmetry_space_group_name_H-M	'P 1'
_symmetry_Int_Tables_number		1

loop_
	_symmetry_equiv_pos_as_xyz
	x,y,z

loop_
	_atom_site_label
	_atom_site_type_symbol
	_atom_site_fract_x
	_atom_site_fract_y
	_atom_site_fract_z
	H0	H	0.389572	0.838075	0.721015
	H1	H	0.589334	0.166169	0.721866
	H2	H	0.591326	0.838084	0.290093
	H3	H	0.391504	0.165038	0.290676
	H4	H	0.705074	0.402734	0.841228
	H5	H	0.701558	0.597648	0.171882
	H6	H	0.280549	0.597322	0.840496
	H7	H	0.276955	0.403342	0.171167
	H8	H	0.825780	0.716819	0.406661
	H9	H	0.155850	0.717921	0.603215
	H10	H	0.827439	0.287292	0.606568
	H11	H	0.155398	0.289050	0.403868
	H12	H	0.826126	0.403918	0.719224
	H13	H	0.157452	0.602607	0.716723
	H14	H	0.823661	0.598765	0.295376
	H15	H	0.155523	0.405417	0.291204
	H16	H	0.390934	0.716135	0.842094
	H17	H	0.591758	0.717488	0.169773
	H18	H	0.590393	0.286407	0.841942
	H19	H	0.388671	0.285934	0.169982
	H20	H	0.705515	0.838212	0.407648
	H21	H	0.703537	0.167034	0.602932
	H22	H	0.274629	0.838700	0.604114
	H23	H	0.279814	0.167529	0.409847
	H24	H	0.889738	0.338929	0.220975
	H25	H	0.089950	0.666042	0.219471
	H26	H	0.090403	0.338930	0.788352
	H27	H	0.892748	0.666208	0.791915
	H28	H	0.203813	0.907796	0.340955
	H29	H	0.202629	0.101853	0.671872
	H30	H	0.779583	0.100365	0.340959
	H31	H	0.776776	0.905589	0.670561
	H32	H	0.326477	0.214193	0.908754
	H33	H	0.654778	0.218005	0.107635
	H34	H	0.326113	0.785128	0.107367
	H35	H	0.655483	0.786509	0.903905
	H36	H	0.325248	0.901811	0.220376
	H37	H	0.656311	0.099495	0.217820
	H38	H	0.324930	0.098569	0.796555
	H39	H	0.655758	0.901929	0.791406
	H40	H	0.893773	0.215614	0.341183
	H41	H	0.091960	0.220442	0.669658
	H42	H	0.091760	0.789351	0.341090
	H43	H	0.889002	0.787645	0.669610
	H44	H	0.204712	0.337062	0.905248
	H45	H	0.206098	0.665389	0.103469
	H46	H	0.777545	0.337390	0.103559
	H47	H	0.778196	0.666663	0.909425
	H48	H	0.397766	0.120573	0.607177
	H49	H	0.586232	0.883450	0.599809
	H50	H	0.588076	0.123243	0.403190
	H51	H	0.399193	0.886272	0.417422
	H52	H	0.587979	0.412005	0.124702
	H53	H	0.584121	0.590835	0.888891
	H54	H	0.395894	0.602217	0.127579
	H55	H	0.395533	0.400030	0.885278
	H56	H	0.111018	0.595505	0.405815
	H57	H	0.871857	0.606188	0.587452
	H58	H	0.109996	0.415586	0.599461
	H59	H	0.869760	0.406332	0.411833
	H60	H	0.112394	0.406559	0.597900
	H61	H	0.878342	0.580782	0.595624
	H62	H	0.109927	0.602473	0.415171
	H63	H	0.871998	0.406183	0.416772
	H64	H	0.391117	0.588779	0.123790
	H65	H	0.580878	0.596447	0.888119
	H66	H	0.576994	0.408713	0.122580
	H67	H	0.395542	0.410863	0.888020
	H68	H	0.575918	0.116589	0.412211
	H69	H	0.581020	0.885513	0.602350
	H70	H	0.400396	0.119229	0.600218
	H71	H	0.392630	0.883311	0.413148
	H72	H	0.901058	0.622161	0.112862
	H73	H	0.081221	0.384250	0.103213
	H74	H	0.085594	0.617807	0.912623
	H75	H	0.896188	0.382277	0.906178
	H76	H	0.079175	0.902558	0.625052
	H77	H	0.085977	0.100261	0.386413
	H78	H	0.901864	0.095382	0.622672
	H79	H	0.900818	0.896896	0.384103
	H80	H	0.612306	0.102492	0.914436
	H81	H	0.370329	0.098167	0.102176
	H82	H	0.608264	0.911512	0.096804
	H83	H	0.372039	0.913945	0.905682
	H84	H	0.610661	0.906550	0.102532
	H85	H	0.373932	0.093272	0.092471
	H86	H	0.606794	0.090745	0.920125
	H87	H	0.368257	0.895442	0.913243
	H88	H	0.897141	0.100257	0.626163
	H89	H	0.088403	0.094186	0.388076
	H90	H	0.090165	0.910579	0.625709
	H91	H	0.888602	0.913419	0.385640
	H92	H	0.089265	0.620139	0.912371
	H93	H	0.078644	0.386579	0.095399
	H94	H	0.905624	0.614629	0.091072
	H95	H	0.905206	0.387070	0.912024
	H96	H	0.392957	0.120703	0.600907
	H97	H	0.581697	0.886141	0.596140
	H98	H	0.590519	0.119061	0.418525
	H99	H	0.400604	0.885006	0.409274
	H100	H	0.584599	0.402121	0.127212
	H101	H	0.587724	0.596515	0.886283
	H102	H	0.405917	0.591807	0.122253
	H103	H	0.403996	0.404642	0.889187
	H104	H	0.106552	0.591772	0.414805
	H105	H	0.867364	0.599172	0.613863
	H106	H	0.108016	0.411016	0.590836
	H107	H	0.873140	0.411066	0.413253
	H108	H	0.884196	0.622897	0.097175
	H109	H	0.087082	0.384042	0.096450
	H110	H	0.085875	0.619930	0.909405
	H111	H	0.894525	0.385015	0.917131
	H112	H	0.077507	0.914986	0.622017
	H113	H	0.082168	0.095757	0.390104
	H114	H	0.895111	0.093210	0.624685
	H115	H	0.908290	0.914605	0.392275
	H116	H	0.610521	0.091100	0.907601
	H117	H	0.372437	0.087773	0.102552
	H118	H	0.610290	0.904552	0.095866
	H119	H	0.376003	0.909071	0.925548
	C120	C	0.367864	0.011327	0.630206
	C121	C	0.611830	0.993711	0.628220
	C122	C	0.613247	0.010928	0.383319
	C123	C	0.369273	0.993536	0.384990
	C124	C	0.612404	0.379164	0.015434
	C125	C	0.612580	0.623045	0.997054
	C126	C	0.369986	0.622345	0.015235
	C127	C	0.368975	0.378220	0.996974
	C128	C	-0.000472	0.624348	0.383896
	C129	C	0.982029	0.624611	0.626701
	C130	C	0.000828	0.381806	0.626053
	C131	C	0.981224	0.380339	0.384115
	C132	C	0.868484	0.511238	0.128286
	C133	C	0.111858	0.493179	0.127183
	C134	C	0.114780	0.510799	0.882431
	C135	C	0.869746	0.493284	0.883892
	C136	C	0.111663	0.881705	0.514985
	C137	C	0.113427	0.125411	0.497116
	C138	C	0.869925	0.124428	0.515164
	C139	C	0.869168	0.880333	0.496499
	C140	C	0.500223	0.122226	0.886374
	C141	C	0.481612	0.122455	0.127697
	C142	C	0.499956	0.878745	0.127784
	C143	C	0.481564	0.878878	0.884828
	C144	C	0.369769	0.887392	0.683658
	C145	C	0.609709	0.117186	0.683775
	C146	C	0.610959	0.887130	0.328435
	C147	C	0.372121	0.116683	0.329342
	C148	C	0.667627	0.382000	0.890791
	C149	C	0.665665	0.619214	0.121952
	C150	C	0.316981	0.618678	0.890336
	C151	C	0.313956	0.382230	0.121501
	C152	C	0.874940	0.678846	0.386583
	C153	C	0.106589	0.680185	0.623534
	C154	C	0.876366	0.325853	0.625464
	C155	C	0.106145	0.326714	0.384725
	C156	C	0.875899	0.383828	0.681727
	C157	C	0.107391	0.622575	0.679978
	C158	C	0.873846	0.620238	0.331330
	C159	C	0.106013	0.384337	0.328601
	C160	C	0.372018	0.677697	0.891252
	C161	C	0.610983	0.678665	0.120886
	C162	C	0.610555	0.323955	0.891258
	C163	C	0.369540	0.323744	0.120913
	C164	C	0.667929	0.887215	0.386685
	C165	C	0.666692	0.117575	0.624833
	C166	C	0.312604	0.887637	0.625462
	C167	C	0.316431	0.117917	0.388626
	C168	C	0.870148	0.387745	0.183075
	C169	C	0.110044	0.616881	0.181646
	C170	C	0.111647	0.387653	0.826386
	C171	C	0.872190	0.617149	0.829637
	C172	C	0.166814	0.885811	0.390335
	C173	C	0.166302	0.122551	0.622066
	C174	C	0.816284	0.121238	0.390663
	C175	C	0.813939	0.884179	0.620897
	C176	C	0.375509	0.176483	0.888978
	C177	C	0.605745	0.179067	0.126506
	C178	C	0.375769	0.822954	0.126923
	C179	C	0.606250	0.824256	0.885219
	C180	C	0.374995	0.881086	0.182972
	C181	C	0.606510	0.119956	0.181485
	C182	C	0.374703	0.118944	0.833047
	C183	C	0.606174	0.881488	0.828766
	C184	C	0.873275	0.178597	0.390877
	C185	C	0.111578	0.181793	0.620738
	C186	C	0.110950	0.826925	0.390601
	C187	C	0.869841	0.825619	0.620412
	C188	C	0.168042	0.386721	0.884916
	C189	C	0.167755	0.616510	0.123968
	C190	C	0.814099	0.387057	0.124692
	C191	C	0.815226	0.617323	0.888041
	C192	C	0.390328	0.097864	0.608976
	C193	C	0.589448	0.907447	0.606078
	C194	C	0.591280	0.097262	0.404889
	C195	C	0.390969	0.907180	0.406852
	C196	C	0.589981	0.401151	0.102325
	C197	C	0.590756	0.601139	0.910151
	C198	C	0.391376	0.600686	0.102212
	C199	C	0.391746	0.399079	0.909991
	C200	C	0.086645	0.602944	0.405516
	C201	C	0.895014	0.602085	0.605514
	C202	C	0.087606	0.404357	0.602808
	C203	C	0.894270	0.401566	0.407181
	C204	C	0.890472	0.597588	0.106781
	C205	C	0.089067	0.407150	0.104988
	C206	C	0.093364	0.596973	0.904814
	C207	C	0.891931	0.407243	0.905300
	C208	C	0.088952	0.903099	0.601705
	C209	C	0.091973	0.103287	0.410617
	C210	C	0.891703	0.102666	0.602173
	C211	C	0.892382	0.901986	0.409788
	C212	C	0.587335	0.101023	0.907658
	C213	C	0.394633	0.099822	0.105655
	C214	C	0.587341	0.900898	0.105233
	C215	C	0.394550	0.900199	0.907873
	Zn216	Zn	0.490486	0.001619	0.758504
	Zn217	Zn	0.490629	0.000816	0.255182
	Zn218	Zn	0.740644	0.501807	0.006195
	Zn219	Zn	0.241994	0.500359	0.005724
	Zn220	Zn	-0.009281	0.752416	0.505141
	Zn221	Zn	-0.008117	0.252855	0.505464
	Zn222	Zn	-0.007948	0.503077	0.754511
	Zn223	Zn	-0.010479	0.502531	0.256750
	Zn224	Zn	0.491041	0.750847	0.005985
	Zn225	Zn	0.490852	0.250485	0.006738
	Zn226	Zn	0.741725	0.002522	0.505599
	Zn227	Zn	0.240570	0.003419	0.506956
	N228	N	0.403184	0.965337	0.686794
	N229	N	0.576586	0.039127	0.686106
	N230	N	0.577762	0.964893	0.326171
	N231	N	0.404409	0.038447	0.327142
	N232	N	0.668982	0.415494	0.968937
	N233	N	0.666739	0.585204	0.043880
	N234	N	0.315535	0.584728	0.968416
	N235	N	0.313601	0.415631	0.043296
	N236	N	0.954071	0.681570	0.418617
	N237	N	0.027737	0.681900	0.591269
	N238	N	0.954968	0.324381	0.591596
	N239	N	0.027645	0.323944	0.418617
	N240	N	0.954246	0.418104	0.682206
	N241	N	0.028941	0.588717	0.682146
	N242	N	0.952363	0.587157	0.329492
	N243	N	0.027390	0.417234	0.328312
	N244	N	0.404379	0.679806	0.969749
	N245	N	0.578840	0.681187	0.042184
	N246	N	0.577084	0.322086	0.969828
	N247	N	0.403191	0.321325	0.042585
	N248	N	0.669564	0.965200	0.420087
	N249	N	0.668038	0.039873	0.590976
	N250	N	0.311093	0.965849	0.593046
	N251	N	0.314463	0.040216	0.422468
	N252	N	0.903284	0.465791	0.185379
	N253	N	0.076090	0.539262	0.183947
	N254	N	0.079048	0.465616	0.824937
	N255	N	0.905359	0.539268	0.826977
	N256	N	0.167672	0.918983	0.468707
	N257	N	0.167792	0.088348	0.544223
	N258	N	0.813953	0.088343	0.469049
	N259	N	0.813326	0.917557	0.542770
	N260	N	0.454458	0.178629	0.921252
	N261	N	0.527168	0.180591	0.093703
	N262	N	0.454501	0.821620	0.093290
	N263	N	0.527713	0.822423	0.919435
	N264	N	0.453458	0.915099	0.183831
	N265	N	0.528228	0.085158	0.182212
	N266	N	0.453237	0.085725	0.831242
	N267	N	0.527703	0.914802	0.828255
	N268	N	0.905932	0.180664	0.469505
	N269	N	0.079132	0.183478	0.542126
	N270	N	0.077360	0.824341	0.469109
	N271	N	0.903479	0.823262	0.541983
	N272	N	0.170386	0.464421	0.918984
	N273	N	0.168886	0.538499	0.090506
	N274	N	0.812734	0.464837	0.091303
	N275	N	0.813479	0.539349	0.921090
	O276	O	-0.045885	-0.034924	0.019574
	H277	H	-0.037711	-0.038961	0.028336
	H278	H	-0.044856	-0.032050	0.020555
	O279	O	0.519723	0.535175	0.471664
	H280	H	0.512515	0.542133	0.472635
	H281	H	0.516747	0.530694	0.476670
	O282	O	0.506500	0.434301	0.496744
	H283	H	0.500911	0.432045	0.500501
	H284	H	0.505855	0.441538	0.498187
	O285	O	1.005431	0.006734	1.052834
	H286	H	1.011822	0.006381	1.062994
	H287	H	1.003310	0.000471	1.050340
	O288	O	1.081172	-0.060566	-0.055773
	H289	H	1.086601	-0.051285	-0.054494
	H290	H	1.077052	-0.072529	-0.052195
	O291	O	0.491397	0.526759	0.519634
	H292	H	0.493110	0.529189	0.521636
	H293	H	0.499273	0.525560	0.530454
	O294	O	0.950443	-0.060101	1.060238
	H295	H	0.961873	-0.059815	1.056631
	H296	H	0.938220	-0.061460	1.061369
	O297	O	-0.035045	0.035631	-0.046776
	H298	H	-0.037291	0.039623	-0.037404
	H299	H	-0.026832	0.046815	-0.047686
	O300	O	1.090581	0.945769	0.921003
	H301	H	1.089104	0.943014	0.915519
	H302	H	1.090895	0.935496	0.928835
	O303	O	0.503895	0.587664	0.440564
	H304	H	0.488679	0.581924	0.445753
	H305	H	0.506410	0.583663	0.432597
	O306	O	1.002057	-0.093659	-0.018319
	H307	H	1.000708	-0.100330	-0.024139
	H308	H	0.994703	-0.089644	-0.024423
	O309	O	-0.048005	0.041522	1.070769
	H310	H	-0.044697	0.022461	1.065174
	H311	H	-0.053832	0.043795	1.061640
	O312	O	1.568127	0.477975	0.554947
	H313	H	1.574217	0.477615	0.556291
	H314	H	1.556395	0.481877	0.550664
	O315	O	1.075813	0.045476	-0.029187
	H316	H	1.085098	0.056929	-0.017878
	H317	H	1.074742	0.049128	-0.022258
	O318	O	0.514644	0.573618	0.523930
	H319	H	0.514148	0.579275	0.512293
	H320	H	0.528286	0.580509	0.528971
	O321	O	-0.060867	1.107229	0.984619
	H322	H	-0.060071	1.117487	0.983821
	H323	H	-0.075318	1.109580	0.976368
	O324	O	0.927741	1.037142	0.045528
	H325	H	0.928601	1.030682	0.039215
	H326	H	0.926586	1.031603	0.035205
	O327	O	0.457410	0.545736	0.486246
	H328	H	0.456654	0.553512	0.494046
	H329	H	0.456982	0.535774	0.483629
	O330	O	0.968719	0.966416	0.012485
	H331	H	0.968478	0.977286	-0.000056
	H332	H	0.977515	0.951966	0.006707
	O333	O	0.534858	0.555201	0.565033
	H334	H	0.540052	0.556681	0.562853
	H335	H	0.524225	0.546102	0.564619
	O336	O	0.511029	0.489505	0.483076
	H337	H	0.515317	0.480974	0.475849
	H338	H	0.505290	0.486451	0.480493
	O339	O	0.477324	0.524053	-0.428231
	H340	H	0.485133	0.521655	-0.431923
	H341	H	0.476202	0.527975	-0.427293
	O342	O	0.424636	0.518667	0.552476
	H343	H	0.420488	0.523798	0.556532
	H344	H	0.428388	0.523324	0.549428
	O345	O	0.880005	0.839932	0.822050
	H346	H	0.882534	0.835318	0.831385
	H347	H	0.888019	0.837826	0.818493
	O348	O	-0.052250	-0.053069	-0.059626
	H349	H	-0.053073	-0.061924	-0.064472
	H350	H	-0.056628	-0.040836	-0.035231
	O351	O	0.016950	1.102342	0.978454
	H352	H	0.012243	1.102698	0.975772
	H353	H	0.018127	1.099116	0.978654
	O354	O	0.399641	0.497098	0.545843
	H355	H	0.404578	0.495230	0.549744
	H356	H	0.395660	0.497340	0.539861
	O357	O	0.060603	0.936698	1.073299
	H358	H	0.068853	0.946123	1.074581
	H359	H	0.064511	0.944622	1.071575
