data_Molecule from HDF5

_cell_length_a		16.469160
_cell_length_b		16.300728
_cell_length_c		16.366256
_cell_angle_alpha	90.120735
_cell_angle_beta	89.761889
_cell_angle_gamma	90.005192
_symmetry_space_group_name_H-M	'P 1'
_symmetry_Int_Tables_number		1

loop_
	_symmetry_equiv_pos_as_xyz
	x,y,z

loop_
	_atom_site_label
	_atom_site_type_symbol
	_atom_site_fract_x
	_atom_site_fract_y
	_atom_site_fract_z
	H0	H	0.386235	0.838015	0.714496
	H1	H	0.599939	0.155297	0.718305
	H2	H	0.597508	0.838644	0.271300
	H3	H	0.382524	0.155543	0.269943
	H4	H	0.714263	0.390796	0.837051
	H5	H	0.714238	0.605765	0.152954
	H6	H	0.268146	0.604783	0.838066
	H7	H	0.265737	0.386574	0.151998
	H8	H	0.832571	0.719974	0.391269
	H9	H	0.149680	0.719541	0.600195
	H10	H	0.833198	0.273653	0.603589
	H11	H	0.148170	0.273301	0.385602
	H12	H	0.833165	0.391365	0.719198
	H13	H	0.150978	0.601169	0.713896
	H14	H	0.834755	0.609758	0.269850
	H15	H	0.146985	0.388552	0.268250
	H16	H	0.385784	0.719531	0.836487
	H17	H	0.600412	0.722411	0.152489
	H18	H	0.596604	0.276863	0.835462
	H19	H	0.384646	0.274401	0.153844
	H20	H	0.716281	0.840228	0.382352
	H21	H	0.717253	0.154170	0.604262
	H22	H	0.270446	0.837932	0.598916
	H23	H	0.266585	0.155304	0.384926
	H24	H	0.883013	0.339598	0.219293
	H25	H	0.095507	0.657047	0.214855
	H26	H	0.096414	0.336844	0.774634
	H27	H	0.889976	0.658061	0.778657
	H28	H	0.211207	0.891780	0.334673
	H29	H	0.212923	0.104644	0.653167
	H30	H	0.770305	0.103620	0.334650
	H31	H	0.764324	0.888752	0.650884
	H32	H	0.333149	0.217956	0.891234
	H33	H	0.651116	0.216170	0.098225
	H34	H	0.334776	0.774838	0.101251
	H35	H	0.650698	0.777105	0.888644
	H36	H	0.333768	0.892250	0.215227
	H37	H	0.648939	0.104611	0.217275
	H38	H	0.333269	0.105457	0.772086
	H39	H	0.648869	0.891429	0.770083
	H40	H	0.886263	0.218860	0.335140
	H41	H	0.095038	0.218624	0.654367
	H42	H	0.092620	0.778683	0.334272
	H43	H	0.887901	0.781212	0.655839
	H44	H	0.214362	0.337851	0.887144
	H45	H	0.215488	0.654576	0.104065
	H46	H	0.769957	0.337749	0.102444
	H47	H	0.770657	0.655893	0.891398
	H48	H	0.407908	0.109273	0.580622
	H49	H	0.576104	0.883276	0.585960
	H50	H	0.581606	0.111211	0.409052
	H51	H	0.400224	0.884620	0.409168
	H52	H	0.570732	0.402009	0.108170
	H53	H	0.585039	0.588878	0.879821
	H54	H	0.400194	0.587299	0.110257
	H55	H	0.403506	0.405901	0.881219
	H56	H	0.103867	0.592200	0.408493
	H57	H	0.876862	0.587891	0.588987
	H58	H	0.100804	0.414398	0.584228
	H59	H	0.881304	0.409749	0.414644
	H60	H	0.106332	0.406112	0.589338
	H61	H	0.876458	0.589337	0.589091
	H62	H	0.100137	0.582305	0.409811
	H63	H	0.881073	0.416524	0.406769
	H64	H	0.402914	0.579168	0.105941
	H65	H	0.583547	0.580735	0.882018
	H66	H	0.590444	0.402158	0.114822
	H67	H	0.399746	0.410368	0.881318
	H68	H	0.579627	0.112261	0.404602
	H69	H	0.573518	0.886613	0.576399
	H70	H	0.397411	0.111718	0.578097
	H71	H	0.400133	0.882405	0.401708
	H72	H	0.902511	0.612409	0.083904
	H73	H	0.075297	0.386727	0.078559
	H74	H	0.076218	0.608738	0.907691
	H75	H	0.896742	0.379237	0.904040
	H76	H	0.085437	0.908116	0.610142
	H77	H	0.079776	0.085505	0.381401
	H78	H	0.903770	0.082356	0.606242
	H79	H	0.904627	0.907370	0.380525
	H80	H	0.604484	0.088433	0.904432
	H81	H	0.376952	0.083522	0.090108
	H82	H	0.604698	0.908329	0.078128
	H83	H	0.379460	0.907365	0.909619
	H84	H	0.603815	0.914438	0.083919
	H85	H	0.376981	0.092468	0.081627
	H86	H	0.603465	0.085323	0.906498
	H87	H	0.379807	0.912352	0.904416
	H88	H	0.903298	0.085562	0.606824
	H89	H	0.080591	0.084408	0.380178
	H90	H	0.080279	0.912545	0.607632
	H91	H	0.901515	0.908720	0.380118
	H92	H	0.085683	0.612150	0.910709
	H93	H	0.082390	0.382430	0.079735
	H94	H	0.904189	0.610059	0.081529
	H95	H	0.908108	0.382676	0.902725
	H96	H	0.401128	0.113698	0.587619
	H97	H	0.583337	0.883520	0.578396
	H98	H	0.576643	0.109323	0.407784
	H99	H	0.406665	0.884204	0.405194
	H100	H	0.581862	0.419644	0.106813
	H101	H	0.577208	0.585719	0.882804
	H102	H	0.409288	0.586266	0.107000
	H103	H	0.405191	0.410800	0.883701
	H104	H	0.104597	0.584843	0.400524
	H105	H	0.877717	0.589318	0.587731
	H106	H	0.103197	0.404979	0.578877
	H107	H	0.877127	0.407006	0.405852
	H108	H	0.900581	0.611150	0.080981
	H109	H	0.076577	0.382849	0.085336
	H110	H	0.083038	0.613379	0.900790
	H111	H	0.902396	0.384722	0.913584
	H112	H	0.078619	0.905603	0.609699
	H113	H	0.080018	0.084304	0.382577
	H114	H	0.900844	0.083139	0.607525
	H115	H	0.904033	0.910790	0.381729
	H116	H	0.604739	0.084860	0.902506
	H117	H	0.381749	0.080883	0.078917
	H118	H	0.606961	0.906840	0.086040
	H119	H	0.377011	0.905923	0.902932
	C120	C	0.369763	0.006455	0.615195
	C121	C	0.612213	0.988654	0.614693
	C122	C	0.612288	0.006161	0.372997
	C123	C	0.369155	0.988703	0.371992
	C124	C	0.613395	0.375446	0.004475
	C125	C	0.613723	0.618404	0.986500
	C126	C	0.370807	0.618005	0.003485
	C127	C	0.369787	0.375285	0.986774
	C128	C	-0.000823	0.619981	0.373460
	C129	C	0.982310	0.620616	0.618939
	C130	C	-0.000722	0.375434	0.617615
	C131	C	0.983144	0.376856	0.374049
	C132	C	0.869379	0.506436	0.116722
	C133	C	0.111682	0.488454	0.115358
	C134	C	0.113781	0.505576	0.873825
	C135	C	0.871016	0.488146	0.875248
	C136	C	0.112772	0.876083	0.503525
	C137	C	0.112558	0.118751	0.486072
	C138	C	0.869636	0.117968	0.502414
	C139	C	0.869555	0.876204	0.485823
	C140	C	0.499884	0.118711	0.872614
	C141	C	0.482887	0.118804	0.116356
	C142	C	0.500846	0.876393	0.115779
	C143	C	0.483069	0.876036	0.872446
	C144	C	0.367146	0.886219	0.675347
	C145	C	0.617330	0.107336	0.677858
	C146	C	0.615598	0.886622	0.311148
	C147	C	0.365218	0.107702	0.310454
	C148	C	0.673862	0.372511	0.884712
	C149	C	0.674046	0.622951	0.105548
	C150	C	0.308840	0.622224	0.885335
	C151	C	0.307343	0.370266	0.105238
	C152	C	0.880248	0.680671	0.372116
	C153	C	0.102044	0.679606	0.619027
	C154	C	0.880614	0.314303	0.621141
	C155	C	0.100810	0.314175	0.368749
	C156	C	0.880597	0.372820	0.678822
	C157	C	0.102665	0.620809	0.676007
	C158	C	0.881319	0.625261	0.311755
	C159	C	0.100284	0.371948	0.310299
	C160	C	0.367518	0.679480	0.884649
	C161	C	0.617038	0.680974	0.105291
	C162	C	0.615081	0.315913	0.883928
	C163	C	0.366807	0.314601	0.106219
	C164	C	0.674821	0.887309	0.366823
	C165	C	0.675860	0.106788	0.620738
	C166	C	0.309544	0.886193	0.617815
	C167	C	0.307379	0.107907	0.367919
	C168	C	0.865330	0.387300	0.179042
	C169	C	0.114111	0.608619	0.175650
	C170	C	0.115101	0.385183	0.814021
	C171	C	0.870919	0.609643	0.817691
	C172	C	0.171650	0.873785	0.382794
	C173	C	0.172776	0.122289	0.605458
	C174	C	0.809895	0.121504	0.382673
	C175	C	0.806421	0.872225	0.604310
	C176	C	0.380651	0.178703	0.871840
	C177	C	0.602753	0.177729	0.117530
	C178	C	0.382162	0.815255	0.119098
	C179	C	0.602899	0.816682	0.870115
	C180	C	0.381536	0.873842	0.175893
	C181	C	0.601751	0.121909	0.176835
	C182	C	0.380815	0.122199	0.812588
	C183	C	0.601896	0.873538	0.811128
	C184	C	0.867614	0.179222	0.383056
	C185	C	0.114003	0.179147	0.606102
	C186	C	0.112717	0.817305	0.382631
	C187	C	0.867888	0.818633	0.606853
	C188	C	0.173775	0.385495	0.870511
	C189	C	0.173977	0.607320	0.120377
	C190	C	0.809231	0.386278	0.120531
	C191	C	0.811337	0.608548	0.873656
	C192	C	0.394991	0.089853	0.589672
	C193	C	0.585311	0.905960	0.587814
	C194	C	0.586517	0.089214	0.399494
	C195	C	0.394945	0.905518	0.397850
	C196	C	0.588182	0.400791	0.088173
	C197	C	0.589013	0.592415	0.903304
	C198	C	0.396848	0.591870	0.086217
	C199	C	0.395507	0.401492	0.903789
	C200	C	0.081424	0.593858	0.398830
	C201	C	0.898711	0.595962	0.595486
	C202	C	0.082040	0.401150	0.591513
	C203	C	0.901132	0.403589	0.401137
	C204	C	0.895089	0.589654	0.090077
	C205	C	0.085513	0.405413	0.089032
	C206	C	0.089040	0.589559	0.899226
	C207	C	0.895400	0.404033	0.899604
	C208	C	0.088466	0.901327	0.587225
	C209	C	0.087458	0.092519	0.402993
	C210	C	0.895106	0.091538	0.585290
	C211	C	0.895769	0.901654	0.402553
	C212	C	0.582734	0.093444	0.897164
	C213	C	0.400188	0.093129	0.090962
	C214	C	0.583573	0.902239	0.090038
	C215	C	0.400540	0.901172	0.898448
	Zn216	Zn	0.490447	-0.002522	0.743097
	Zn217	Zn	0.491344	-0.002379	0.244427
	Zn218	Zn	0.741705	0.496418	-0.004252
	Zn219	Zn	0.241410	0.496263	-0.004665
	Zn220	Zn	-0.009163	0.747938	0.495708
	Zn221	Zn	-0.009533	0.246794	0.494728
	Zn222	Zn	-0.008432	0.497485	0.746449
	Zn223	Zn	-0.009476	0.498430	0.244036
	Zn224	Zn	0.492642	0.747170	-0.005415
	Zn225	Zn	0.491753	0.247612	-0.004669
	Zn226	Zn	0.741047	-0.002922	0.492933
	Zn227	Zn	0.241589	-0.002730	0.493884
	N228	N	0.403357	0.962082	0.674040
	N229	N	0.578462	0.032741	0.674220
	N230	N	0.577213	0.961367	0.314741
	N231	N	0.403181	0.032649	0.313094
	N232	N	0.673080	0.408573	0.960802
	N233	N	0.672001	0.584502	0.030740
	N234	N	0.310532	0.584898	0.960500
	N235	N	0.309257	0.407412	0.030037
	N236	N	0.954435	0.677218	0.410081
	N237	N	0.026156	0.679633	0.584315
	N238	N	0.955479	0.315916	0.583543
	N239	N	0.027107	0.317586	0.408013
	N240	N	0.955438	0.409996	0.676661
	N241	N	0.027051	0.585129	0.676345
	N242	N	0.955956	0.587956	0.312638
	N243	N	0.026064	0.410237	0.313443
	N244	N	0.405291	0.676979	0.959316
	N245	N	0.580130	0.678363	0.030153
	N246	N	0.578313	0.317624	0.959381
	N247	N	0.404956	0.317557	0.031454
	N248	N	0.672569	0.962463	0.404846
	N249	N	0.672785	0.032011	0.582084
	N250	N	0.310846	0.962028	0.581072
	N251	N	0.309707	0.032756	0.405464
	N252	N	0.901843	0.463177	0.176936
	N253	N	0.076085	0.533607	0.172825
	N254	N	0.078353	0.460910	0.815922
	N255	N	0.907144	0.533677	0.818327
	N256	N	0.172046	0.909317	0.459086
	N257	N	0.172121	0.085613	0.529784
	N258	N	0.810921	0.084296	0.458000
	N259	N	0.807316	0.907055	0.527903
	N260	N	0.455603	0.176869	0.908311
	N261	N	0.527771	0.176072	0.080915
	N262	N	0.457333	0.816677	0.082684
	N263	N	0.528026	0.818009	0.907511
	N264	N	0.456432	0.911038	0.174045
	N265	N	0.526114	0.086257	0.176382
	N266	N	0.456097	0.085953	0.812790
	N267	N	0.526530	0.909648	0.812443
	N268	N	0.903767	0.177233	0.458617
	N269	N	0.077610	0.177299	0.530704
	N270	N	0.076819	0.818598	0.458657
	N271	N	0.906186	0.820832	0.532122
	N272	N	0.172952	0.461476	0.906933
	N273	N	0.172464	0.531663	0.083437
	N274	N	0.811200	0.461617	0.082932
	N275	N	0.811614	0.532095	0.908810
	O276	O	0.709297	0.280532	0.474722
	H277	H	0.744131	0.247092	0.470602
	H278	H	0.696667	0.291384	0.421378
	O279	O	0.294336	0.495227	0.458017
	H280	H	0.294675	0.483296	0.467789
	H281	H	0.290367	0.493171	0.448761
	O282	O	0.497794	0.425227	0.471761
	H283	H	0.516614	0.433862	0.482333
	H284	H	0.474127	0.427671	0.484349
	O285	O	1.019730	1.086481	-0.089939
	H286	H	1.029070	1.076071	-0.081329
	H287	H	1.019916	1.088500	-0.086198
	O288	O	0.710621	0.439318	0.549187
	H289	H	0.713420	0.422168	0.532833
	H290	H	0.715462	0.432728	0.537620
	O291	O	0.286687	0.474154	0.702838
	H292	H	0.297204	0.488574	0.725112
	H293	H	0.286632	0.499401	0.699453
	O294	O	0.861377	1.005259	0.840315
	H295	H	0.879524	1.007171	0.842908
	H296	H	0.865133	0.994166	0.830407
	O297	O	0.466393	0.281706	0.712175
	H298	H	0.472979	0.279139	0.693676
	H299	H	0.467750	0.248288	0.732332
	O300	O	0.525042	0.584778	0.579442
	H301	H	0.530228	0.593965	0.569411
	H302	H	0.522605	0.610746	0.576525
	O303	O	0.671829	0.315739	0.317001
	H304	H	0.682706	0.369266	0.302626
	H305	H	0.618744	0.305464	0.303270
	O306	O	-0.162126	0.033034	0.797585
	H307	H	-0.140000	0.030358	0.794976
	H308	H	-0.166975	0.030837	0.794939
	O309	O	1.151840	-0.196054	-0.005645
	H310	H	1.157698	-0.205809	-0.028331
	H311	H	1.143592	-0.203776	-0.004429
	O312	O	0.558248	0.548391	0.309102
	H313	H	0.558513	0.528419	0.299107
	H314	H	0.565602	0.544744	0.309155
	O315	O	0.511722	0.287586	0.283536
	H316	H	0.509942	0.256722	0.254772
	H317	H	0.486274	0.279096	0.327061
	O318	O	-0.156535	-0.009245	0.192296
	H319	H	-0.150947	-0.029806	0.195867
	H320	H	-0.160060	-0.010254	0.213991
	O321	O	0.678721	0.683455	0.683364
	H322	H	0.691692	0.684306	0.638427
	H323	H	0.677037	0.641133	0.692154
	O324	O	0.826241	0.017845	1.023394
	H325	H	0.829913	0.023875	1.007632
	H326	H	0.811644	0.026761	1.015630
	O327	O	0.705599	0.477015	0.280309
	H328	H	0.730583	0.492602	0.291992
	H329	H	0.718990	0.489952	0.270415
	O330	O	0.068242	0.869221	0.880389
	H331	H	0.071583	0.867151	0.880632
	H332	H	0.058792	0.851732	0.883261
	O333	O	-0.202194	1.125441	-0.077813
	H334	H	-0.208145	1.141584	-0.086106
	H335	H	-0.196353	1.120300	-0.101145
	O336	O	0.976205	1.137671	0.027166
	H337	H	0.973099	1.136431	0.027661
	H338	H	0.983010	1.137341	0.046924
	O339	O	0.051427	0.916865	1.116891
	H340	H	0.044983	0.925923	1.100363
	H341	H	0.030045	0.911943	1.140607
	O342	O	0.465185	0.710408	0.284050
	H343	H	0.465925	0.725606	0.257613
	H344	H	0.461762	0.693510	0.275702
	O345	O	-0.142683	-0.189590	1.089314
	H346	H	-0.150017	-0.191204	1.086050
	H347	H	-0.168143	-0.193497	1.080946
	O348	O	0.559076	0.679600	0.401799
	H349	H	0.531697	0.691451	0.385172
	H350	H	0.531419	0.662858	0.404215
	O351	O	0.852088	0.814966	0.081791
	H352	H	0.863559	0.811336	0.059557
	H353	H	0.851576	0.815251	0.071548
	O354	O	1.057577	1.189518	1.189257
	H355	H	1.048153	1.195094	1.196917
	H356	H	1.079383	1.180794	1.202220
	O357	O	0.032959	0.066135	-0.034134
	H358	H	0.042445	0.087073	-0.046156
	H359	H	0.018876	0.061075	-0.018824
	O360	O	0.449539	0.539905	0.706798
	H361	H	0.471895	0.545222	0.696865
	H362	H	0.462886	0.539472	0.707105
	O363	O	1.429713	-0.687745	0.404563
	H364	H	1.408578	-0.672529	0.408591
	H365	H	1.426494	-0.697860	0.431037
	O366	O	0.273123	0.278818	1.514511
	H367	H	0.263799	0.269763	1.542691
	H368	H	0.252687	0.277053	1.525844
	O369	O	0.954091	-0.119514	0.964353
	H370	H	0.972126	-0.104388	0.978173
	H371	H	0.948911	-0.114378	0.957476
	O372	O	0.694017	0.519279	0.700770
	H373	H	0.702423	0.510954	0.715434
	H374	H	0.683077	0.492543	0.680781
	O375	O	0.070710	0.090183	1.102641
	H376	H	0.067731	0.079144	1.082674
	H377	H	0.063419	0.091002	1.102892
	O378	O	0.301816	0.687106	0.308151
	H379	H	0.325136	0.697552	0.307674
	H380	H	0.295137	0.635312	0.301155
	O381	O	0.108324	0.949048	-0.063881
	H382	H	0.113135	0.933658	-0.056634
	H383	H	0.080115	0.946790	-0.071178
	O384	O	0.372833	0.432409	0.335105
	H385	H	0.389271	0.408699	0.339440
	H386	H	0.372489	0.432963	0.362897
	O387	O	0.513167	0.324109	0.552039
	H388	H	0.526012	0.320501	0.529140
	H389	H	0.529686	0.339214	0.551718
	O390	O	0.941083	0.999965	0.147023
	H391	H	0.936913	1.005320	0.139318
	H392	H	0.931953	1.002909	0.137163
	O393	O	0.873957	0.083202	0.946850
	H394	H	0.885578	0.082376	0.940714
	H395	H	0.862862	0.083081	0.967792
	O396	O	0.680729	0.540106	0.443488
	H397	H	0.691987	0.544179	0.462655
	H398	H	0.666169	0.555027	0.456486
	O399	O	0.525434	0.410608	0.650032
	H400	H	0.513425	0.394729	0.652759
	H401	H	0.521650	0.410227	0.643081
	O402	O	1.185953	0.876201	-0.069488
	H403	H	1.181983	0.880529	-0.083188
	H404	H	1.177350	0.872031	-0.080350
	O405	O	0.285938	0.514297	0.297549
	H406	H	0.280681	0.499706	0.279078
	H407	H	0.292575	0.490430	0.302706
	O408	O	0.307510	0.312641	0.673961
	H409	H	0.297716	0.352064	0.669571
	H410	H	0.342074	0.315349	0.688206
	O411	O	0.958079	0.930423	0.831571
	H412	H	0.961255	0.946041	0.823047
	H413	H	0.956019	0.927392	0.835932
	O414	O	0.283105	0.702373	0.541576
	H415	H	0.301019	0.687573	0.511533
	H416	H	0.263300	0.719060	0.524234
	O417	O	0.174958	1.044389	1.161805
	H418	H	0.187338	1.040602	1.143288
	H419	H	0.172652	1.021930	1.152868
	O420	O	0.085313	0.876454	1.101400
	H421	H	0.087647	0.880884	1.107032
	H422	H	0.107676	0.874538	1.095486
	O423	O	0.062104	0.938747	-0.174239
	H424	H	0.056509	0.929723	-0.171945
	H425	H	0.077488	0.930266	-0.171732
	O426	O	0.694384	0.710526	0.507460
	H427	H	0.659149	0.724478	0.482436
	H428	H	0.712887	0.744804	0.517076
	O429	O	0.509606	0.689035	0.652323
	H430	H	0.534577	0.703438	0.661412
	H431	H	0.528641	0.686878	0.646860
	O432	O	0.446819	0.624007	0.577287
	H433	H	0.463091	0.617253	0.614478
	H434	H	0.417099	0.621258	0.566112
	O435	O	0.190415	0.184763	0.006099
	H436	H	0.205826	0.197388	-0.000739
	H437	H	0.184414	0.178953	0.007761
	O438	O	0.121910	1.059325	0.801760
	H439	H	0.136777	1.051627	0.810604
	H440	H	0.137730	1.064448	0.786368
	O441	O	0.322173	0.606453	0.525604
	H442	H	0.321804	0.616589	0.520277
	H443	H	0.313948	0.602268	0.512684
