data_Molecule from HDF5

_cell_length_a		16.262255
_cell_length_b		15.952656
_cell_length_c		16.337834
_cell_angle_alpha	89.422618
_cell_angle_beta	90.942856
_cell_angle_gamma	88.675583
_symmetry_space_group_name_H-M	'P 1'
_symmetry_Int_Tables_number		1

loop_
	_symmetry_equiv_pos_as_xyz
	x,y,z

loop_
	_atom_site_label
	_atom_site_type_symbol
	_atom_site_fract_x
	_atom_site_fract_y
	_atom_site_fract_z
	H0	H	0.408560	0.837722	0.722311
	H1	H	0.598395	0.169696	0.725380
	H2	H	0.603386	0.837649	0.299248
	H3	H	0.393066	0.169317	0.290040
	H4	H	0.717161	0.399096	0.844450
	H5	H	0.719743	0.598394	0.170761
	H6	H	0.278281	0.608762	0.848335
	H7	H	0.290635	0.399203	0.172054
	H8	H	0.837457	0.724166	0.409077
	H9	H	0.167595	0.707258	0.605256
	H10	H	0.834467	0.296995	0.602620
	H11	H	0.164912	0.287942	0.418737
	H12	H	0.836797	0.406474	0.723492
	H13	H	0.162383	0.602579	0.730047
	H14	H	0.839424	0.613950	0.286935
	H15	H	0.164957	0.399101	0.298391
	H16	H	0.397186	0.719651	0.846626
	H17	H	0.598343	0.710095	0.173752
	H18	H	0.595897	0.288164	0.843964
	H19	H	0.414800	0.292579	0.173774
	H20	H	0.718986	0.839225	0.413872
	H21	H	0.709641	0.172752	0.607552
	H22	H	0.295360	0.837241	0.607646
	H23	H	0.281379	0.170275	0.406594
	H24	H	0.906018	0.338628	0.225979
	H25	H	0.101280	0.670414	0.223367
	H26	H	0.099896	0.337182	0.799513
	H27	H	0.893267	0.669334	0.791513
	H28	H	0.218688	0.902488	0.346676
	H29	H	0.219000	0.102278	0.671844
	H30	H	0.776325	0.113401	0.348486
	H31	H	0.791717	0.905554	0.673444
	H32	H	0.337169	0.221613	0.907986
	H33	H	0.667439	0.204815	0.105144
	H34	H	0.334203	0.794219	0.102387
	H35	H	0.664875	0.784678	0.917724
	H36	H	0.337266	0.903675	0.224969
	H37	H	0.661793	0.100345	0.229248
	H38	H	0.338902	0.110107	0.787988
	H39	H	0.664604	0.897458	0.798232
	H40	H	0.897803	0.222112	0.346161
	H41	H	0.095561	0.211583	0.675346
	H42	H	0.098782	0.790969	0.345253
	H43	H	0.913335	0.794343	0.674572
	H44	H	0.215592	0.336051	0.914531
	H45	H	0.214152	0.669404	0.108102
	H46	H	0.798305	0.334021	0.105109
	H47	H	0.779852	0.667794	0.904075
	H48	H	0.409986	0.127373	0.610643
	H49	H	0.603225	0.881580	0.613138
	H50	H	0.574735	0.118550	0.420124
	H51	H	0.417979	0.885826	0.412554
	H52	H	0.608921	0.405646	0.126164
	H53	H	0.597286	0.594572	0.888848
	H54	H	0.411064	0.580471	0.121206
	H55	H	0.403799	0.414499	0.891938
	H56	H	0.120672	0.606499	0.424318
	H57	H	0.880225	0.603909	0.606274
	H58	H	0.118357	0.412127	0.613387
	H59	H	0.880824	0.415298	0.405172
	H60	H	0.119432	0.401054	0.606599
	H61	H	0.884068	0.605703	0.594220
	H62	H	0.113716	0.581481	0.419329
	H63	H	0.883817	0.413177	0.419714
	H64	H	0.418376	0.604439	0.126835
	H65	H	0.588510	0.585674	0.895391
	H66	H	0.599774	0.407866	0.122860
	H67	H	0.408139	0.413316	0.892451
	H68	H	0.596375	0.124540	0.425812
	H69	H	0.590278	0.887353	0.604803
	H70	H	0.416480	0.120146	0.592253
	H71	H	0.411759	0.886755	0.426218
	H72	H	0.906915	0.623307	0.100916
	H73	H	0.094725	0.381929	0.113340
	H74	H	0.091522	0.624785	0.916178
	H75	H	0.914880	0.385223	0.917974
	H76	H	0.109033	0.906270	0.628471
	H77	H	0.087730	0.095017	0.394105
	H78	H	0.896954	0.101544	0.629740
	H79	H	0.914398	0.913616	0.394353
	H80	H	0.621460	0.096511	0.911188
	H81	H	0.384077	0.090457	0.105284
	H82	H	0.614544	0.907218	0.099689
	H83	H	0.380060	0.911119	0.904639
	H84	H	0.616734	0.912098	0.112651
	H85	H	0.378201	0.106357	0.105191
	H86	H	0.617711	0.093109	0.923179
	H87	H	0.384008	0.909065	0.919126
	H88	H	0.906685	0.090968	0.625057
	H89	H	0.091094	0.098709	0.392414
	H90	H	0.100058	0.914822	0.623379
	H91	H	0.900006	0.913265	0.390331
	H92	H	0.085320	0.622597	0.914818
	H93	H	0.090968	0.387962	0.100086
	H94	H	0.911914	0.621401	0.094996
	H95	H	0.906766	0.382198	0.915999
	H96	H	0.396654	0.125620	0.594762
	H97	H	0.604370	0.884586	0.597268
	H98	H	0.587895	0.128108	0.404618
	H99	H	0.404138	0.881476	0.414215
	H100	H	0.602388	0.397906	0.127024
	H101	H	0.584614	0.599141	0.892585
	H102	H	0.395144	0.597014	0.131541
	H103	H	0.404841	0.410935	0.891021
	H104	H	0.124418	0.596939	0.400623
	H105	H	0.885682	0.593830	0.599851
	H106	H	0.115172	0.412095	0.600235
	H107	H	0.886840	0.427203	0.412933
	H108	H	0.903767	0.622496	0.093966
	H109	H	0.105192	0.382341	0.102929
	H110	H	0.087925	0.621934	0.920614
	H111	H	0.913373	0.381591	0.910384
	H112	H	0.096828	0.902131	0.626977
	H113	H	0.092909	0.094151	0.393660
	H114	H	0.911433	0.105151	0.627044
	H115	H	0.905876	0.925684	0.395361
	H116	H	0.617167	0.084658	0.913974
	H117	H	0.384834	0.099751	0.091350
	H118	H	0.619667	0.898421	0.109472
	H119	H	0.385886	0.923092	0.913201
	C120	C	0.382194	0.013603	0.628706
	C121	C	0.624342	0.995445	0.632546
	C122	C	0.619155	0.013650	0.389986
	C123	C	0.378846	0.994726	0.387191
	C124	C	0.627954	0.376242	0.016717
	C125	C	0.620682	0.620884	1.000375
	C126	C	0.376922	0.625223	0.018888
	C127	C	0.380973	0.382272	1.000144
	C128	C	0.011175	0.628056	0.385178
	C129	C	0.992076	0.625977	0.630058
	C130	C	0.008457	0.382780	0.632084
	C131	C	0.991851	0.384858	0.387427
	C132	C	0.882375	0.512048	0.127158
	C133	C	0.124328	0.494624	0.132549
	C134	C	0.119430	0.512536	0.889751
	C135	C	0.878890	0.493489	0.885359
	C136	C	0.128108	0.879798	0.517979
	C137	C	0.120788	0.123915	0.501613
	C138	C	0.874681	0.129877	0.519069
	C139	C	0.881868	0.886697	0.501530
	C140	C	0.510222	0.124345	0.886322
	C141	C	0.491392	0.123716	0.130354
	C142	C	0.508387	0.879670	0.132746
	C143	C	0.491855	0.881628	0.887200
	C144	C	0.387561	0.887508	0.684268
	C145	C	0.619230	0.120408	0.687343
	C146	C	0.621687	0.887736	0.336604
	C147	C	0.375824	0.119856	0.329273
	C148	C	0.680210	0.378909	0.893499
	C149	C	0.679618	0.618440	0.122623
	C150	C	0.318090	0.626946	0.896652
	C151	C	0.328615	0.381696	0.123407
	C152	C	0.887132	0.686271	0.387487
	C153	C	0.117367	0.673855	0.626866
	C154	C	0.884266	0.331813	0.625550
	C155	C	0.115602	0.325692	0.395046
	C156	C	0.885380	0.386396	0.685548
	C157	C	0.114657	0.621821	0.688987
	C158	C	0.888183	0.631675	0.326706
	C159	C	0.115870	0.381665	0.335706
	C160	C	0.377370	0.682159	0.895804
	C161	C	0.619122	0.673776	0.124172
	C162	C	0.620131	0.323601	0.893133
	C163	C	0.390126	0.328468	0.124415
	C164	C	0.679048	0.888508	0.393631
	C165	C	0.674479	0.122101	0.628813
	C166	C	0.331414	0.887265	0.627361
	C167	C	0.320679	0.120676	0.387510
	C168	C	0.886604	0.387382	0.185636
	C169	C	0.120816	0.620411	0.185892
	C170	C	0.119681	0.386989	0.836225
	C171	C	0.875627	0.619261	0.829543
	C172	C	0.181187	0.882709	0.395156
	C173	C	0.178530	0.121244	0.623856
	C174	C	0.816167	0.131129	0.396920
	C175	C	0.829452	0.886678	0.624684
	C176	C	0.386462	0.182958	0.887534
	C177	C	0.616918	0.171733	0.126978
	C178	C	0.384108	0.828888	0.126037
	C179	C	0.615577	0.822908	0.894491
	C180	C	0.385423	0.883523	0.186515
	C181	C	0.614194	0.119463	0.188449
	C182	C	0.387526	0.127841	0.827691
	C183	C	0.615445	0.878991	0.835020
	C184	C	0.876284	0.185718	0.395780
	C185	C	0.117137	0.175976	0.625648
	C186	C	0.121726	0.826705	0.394733
	C187	C	0.890098	0.831464	0.625278
	C188	C	0.176757	0.386332	0.893847
	C189	C	0.177233	0.619969	0.128730
	C190	C	0.832522	0.385172	0.125998
	C191	C	0.818802	0.618203	0.885447
	C192	C	0.401689	0.101487	0.606033
	C193	C	0.605138	0.907386	0.611324
	C194	C	0.593651	0.101072	0.410657
	C195	C	0.403908	0.907339	0.410667
	C196	C	0.609226	0.397260	0.102867
	C197	C	0.597169	0.599311	0.914613
	C198	C	0.401106	0.601097	0.104576
	C199	C	0.399943	0.405746	0.914145
	C200	C	0.097327	0.602496	0.408044
	C201	C	0.905574	0.606932	0.606914
	C202	C	0.095165	0.402743	0.612533
	C203	C	0.905971	0.410738	0.406839
	C204	C	0.901690	0.599751	0.103501
	C205	C	0.103418	0.406738	0.111596
	C206	C	0.095261	0.600399	0.910931
	C207	C	0.904366	0.405678	0.907878
	C208	C	0.108095	0.901378	0.604187
	C209	C	0.097347	0.102322	0.415708
	C210	C	0.898066	0.106212	0.605018
	C211	C	0.901173	0.910504	0.415467
	C212	C	0.596466	0.098859	0.909426
	C213	C	0.404717	0.104740	0.107405
	C214	C	0.594592	0.900018	0.113252
	C215	C	0.405599	0.907159	0.906537
	Zn216	Zn	0.501681	0.003464	0.757676
	Zn217	Zn	0.499162	0.003143	0.260418
	Zn218	Zn	0.753756	0.500893	0.007003
	Zn219	Zn	0.249635	0.503165	0.010234
	Zn220	Zn	0.002854	0.754470	0.509342
	Zn221	Zn	-0.000975	0.255002	0.509958
	Zn222	Zn	-0.000187	0.504744	0.759524
	Zn223	Zn	0.001842	0.505121	0.257224
	Zn224	Zn	0.499508	0.752088	0.009871
	Zn225	Zn	0.502440	0.251651	0.008947
	Zn226	Zn	0.748637	0.006470	0.510286
	Zn227	Zn	0.254121	0.004054	0.508920
	N228	N	0.418471	0.967063	0.685145
	N229	N	0.588954	0.040581	0.689662
	N230	N	0.585121	0.966341	0.334213
	N231	N	0.411258	0.040417	0.328992
	N232	N	0.685496	0.410684	0.971382
	N233	N	0.680798	0.586497	0.044497
	N234	N	0.317802	0.591898	0.974015
	N235	N	0.322705	0.414602	0.045112
	N236	N	0.964636	0.684245	0.423038
	N237	N	0.040172	0.676593	0.590853
	N238	N	0.961749	0.329384	0.593006
	N239	N	0.037685	0.327609	0.426663
	N240	N	0.963810	0.417272	0.689659
	N241	N	0.035601	0.593054	0.691253
	N242	N	0.966097	0.596047	0.325248
	N243	N	0.037989	0.417798	0.330782
	N244	N	0.413049	0.681334	0.973005
	N245	N	0.583246	0.675488	0.047250
	N246	N	0.588480	0.321720	0.970699
	N247	N	0.422215	0.328706	0.046893
	N248	N	0.677561	0.967916	0.426082
	N249	N	0.677746	0.043259	0.595515
	N250	N	0.327979	0.966570	0.593268
	N251	N	0.322417	0.041991	0.422755
	N252	N	0.916954	0.467317	0.186402
	N253	N	0.088673	0.541320	0.188234
	N254	N	0.084497	0.466391	0.833791
	N255	N	0.912304	0.540635	0.829208
	N256	N	0.185203	0.914898	0.473059
	N257	N	0.180764	0.090026	0.545650
	N258	N	0.814929	0.097431	0.474903
	N259	N	0.824338	0.920552	0.546875
	N260	N	0.463708	0.180929	0.923461
	N261	N	0.539576	0.174540	0.091309
	N262	N	0.461519	0.826346	0.093415
	N263	N	0.537693	0.824393	0.925965
	N264	N	0.463763	0.914137	0.191151
	N265	N	0.535207	0.090329	0.190630
	N266	N	0.465532	0.092238	0.826850
	N267	N	0.537560	0.914733	0.830271
	N268	N	0.912105	0.184905	0.472653
	N269	N	0.081696	0.177588	0.548475
	N270	N	0.089713	0.824535	0.472183
	N271	N	0.921890	0.831239	0.547538
	N272	N	0.176649	0.465563	0.926446
	N273	N	0.179574	0.540635	0.096510
	N274	N	0.829763	0.463634	0.090254
	N275	N	0.820996	0.538929	0.919683
	O276	O	-0.129538	-0.080293	0.022269
	H277	H	-0.118143	-0.080594	0.019381
	H278	H	-0.136685	-0.074314	0.014993
	O279	O	0.506597	0.523981	0.525057
	H280	H	0.516867	0.517575	0.534959
	H281	H	0.512251	0.518323	0.520754
	O282	O	0.458886	0.527404	0.459520
	H283	H	0.458373	0.523379	0.458120
	H284	H	0.464022	0.526343	0.467042
	O285	O	0.971597	0.007849	0.980964
	H286	H	0.970103	0.007984	0.986466
	H287	H	0.969632	0.002730	0.981427
	O288	O	0.983885	-0.025406	0.021610
	H289	H	0.985518	-0.029499	0.019159
	H290	H	0.988170	-0.020292	0.020877
	O291	O	0.612276	0.567358	0.481682
	H292	H	0.605836	0.572741	0.477594
	H293	H	0.605496	0.561815	0.487637
	O294	O	0.950267	0.086277	1.047599
	H295	H	0.941064	0.093726	1.053532
	H296	H	0.945504	0.086012	1.056439
	O297	O	0.017080	0.077682	0.029704
	H298	H	0.009023	0.075454	0.024540
	H299	H	0.022814	0.080081	0.032535
	O300	O	0.497723	0.473455	0.462986
	H301	H	0.502150	0.471682	0.459616
	H302	H	0.495975	0.477453	0.459383
	O303	O	0.452384	0.612324	0.412109
	H304	H	0.449935	0.604541	0.425379
	H305	H	0.456169	0.624441	0.405780
	O306	O	0.932889	-0.038857	0.033348
	H307	H	0.931278	-0.035512	0.022935
	H308	H	0.936872	-0.047055	0.036474
	O309	O	-0.055902	-0.033555	1.050361
	H310	H	-0.059411	-0.044626	1.047605
	H311	H	-0.058725	-0.045638	1.054537
	O312	O	1.561417	0.497001	0.611797
	H313	H	1.568312	0.495408	0.609542
	H314	H	1.559332	0.495288	0.606506
	O315	O	0.612998	0.468652	0.557274
	H316	H	0.620515	0.457614	0.565382
	H317	H	0.611048	0.482539	0.552465
	O318	O	0.522357	0.549166	0.458247
	H319	H	0.530568	0.548658	0.465921
	H320	H	0.521555	0.546081	0.455922
	O321	O	-0.019908	0.966904	1.068589
	H322	H	-0.023305	0.971173	1.058247
	H323	H	-0.012504	0.969571	1.065450
	O324	O	1.009618	1.029892	-0.039434
	H325	H	0.998541	1.029091	-0.043720
	H326	H	1.008823	1.038984	-0.028581
	O327	O	0.541683	0.478734	0.573522
	H328	H	0.544629	0.467494	0.567983
	H329	H	0.542304	0.486606	0.580618
	O330	O	1.023326	1.007495	0.030957
	H331	H	1.024791	1.011647	0.023212
	H332	H	1.025167	1.019628	0.031951
	O333	O	0.480666	0.455102	0.436149
	H334	H	0.484088	0.458564	0.416118
	H335	H	0.471025	0.455985	0.438670
	O336	O	0.537445	0.537367	0.520583
	H337	H	0.533818	0.541360	0.517404
	H338	H	0.538449	0.545782	0.517482
	O339	O	0.440979	0.461998	-0.482125
	H340	H	0.444522	0.456918	-0.488565
	H341	H	0.432407	0.448756	-0.494969
	O342	O	0.530606	0.471259	0.439584
	H343	H	0.524388	0.483390	0.434295
	H344	H	0.537381	0.468116	0.436850
	O345	O	0.377502	0.580260	0.409234
	H346	H	0.381147	0.591002	0.398699
	H347	H	0.374987	0.595822	0.424441
	O348	O	0.020262	0.013364	-0.043414
	H349	H	0.017147	0.017472	-0.044461
	H350	H	0.021642	0.019271	-0.046449
	O351	O	-0.062900	0.969806	1.028141
	H352	H	-0.058228	0.972622	1.027358
	H353	H	-0.060050	0.969077	1.022638
	O354	O	0.375367	0.576416	0.439121
	H355	H	0.358661	0.600266	0.441156
	H356	H	0.374120	0.571274	0.437146
	O357	O	0.038939	1.009799	1.025063
	H358	H	0.040753	1.006976	1.022982
	H359	H	0.025605	1.013483	1.033498
