data_Molecule from HDF5

_cell_length_a		16.048339
_cell_length_b		16.329828
_cell_length_c		16.285996
_cell_angle_alpha	90.252762
_cell_angle_beta	90.031858
_cell_angle_gamma	90.034654
_symmetry_space_group_name_H-M	'P 1'
_symmetry_Int_Tables_number		1

loop_
	_symmetry_equiv_pos_as_xyz
	x,y,z

loop_
	_atom_site_label
	_atom_site_type_symbol
	_atom_site_fract_x
	_atom_site_fract_y
	_atom_site_fract_z
	H0	H	0.400013	0.832869	0.717196
	H1	H	0.600843	0.158647	0.718812
	H2	H	0.601485	0.833145	0.284213
	H3	H	0.400564	0.159261	0.287589
	H4	H	0.711228	0.400530	0.836577
	H5	H	0.711299	0.593557	0.167130
	H6	H	0.288124	0.589619	0.837445
	H7	H	0.288424	0.400754	0.166773
	H8	H	0.835094	0.708282	0.404639
	H9	H	0.166004	0.710570	0.603999
	H10	H	0.835411	0.283183	0.601369
	H11	H	0.165905	0.282460	0.403579
	H12	H	0.834688	0.398442	0.714643
	H13	H	0.165599	0.594226	0.717058
	H14	H	0.834620	0.595736	0.289962
	H15	H	0.165201	0.396820	0.288731
	H16	H	0.398286	0.711743	0.839334
	H17	H	0.601476	0.714902	0.164741
	H18	H	0.601317	0.278186	0.839416
	H19	H	0.398957	0.280461	0.164751
	H20	H	0.712500	0.831535	0.406037
	H21	H	0.712241	0.160540	0.598594
	H22	H	0.287342	0.831875	0.597356
	H23	H	0.287669	0.160927	0.407256
	H24	H	0.899024	0.333834	0.218326
	H25	H	0.101784	0.658780	0.220395
	H26	H	0.101686	0.334024	0.785321
	H27	H	0.899609	0.659521	0.787923
	H28	H	0.211088	0.900987	0.337275
	H29	H	0.213122	0.093578	0.667070
	H30	H	0.788721	0.090631	0.338147
	H31	H	0.786875	0.900613	0.667450
	H32	H	0.333197	0.207461	0.903667
	H33	H	0.664550	0.211105	0.102393
	H34	H	0.334557	0.783234	0.100317
	H35	H	0.664373	0.781551	0.901224
	H36	H	0.334447	0.897927	0.214256
	H37	H	0.665890	0.094515	0.214430
	H38	H	0.334504	0.093856	0.788765
	H39	H	0.665104	0.896671	0.788251
	H40	H	0.898936	0.212127	0.340100
	H41	H	0.102587	0.213373	0.665191
	H42	H	0.101408	0.778537	0.339925
	H43	H	0.899776	0.781215	0.666152
	H44	H	0.212062	0.331666	0.905439
	H45	H	0.214014	0.659631	0.100296
	H46	H	0.786021	0.332424	0.098266
	H47	H	0.787765	0.661220	0.907445
	H48	H	0.404325	0.117994	0.610100
	H49	H	0.593711	0.880349	0.592433
	H50	H	0.591324	0.113604	0.401672
	H51	H	0.397059	0.875435	0.402220
	H52	H	0.593365	0.408519	0.117750
	H53	H	0.594680	0.587708	0.885148
	H54	H	0.413861	0.591913	0.116947
	H55	H	0.406926	0.405639	0.886222
	H56	H	0.122525	0.585471	0.396644
	H57	H	0.882554	0.591343	0.592010
	H58	H	0.118267	0.408216	0.594048
	H59	H	0.881423	0.400889	0.412540
	H60	H	0.120241	0.403052	0.598233
	H61	H	0.883152	0.586550	0.595744
	H62	H	0.121387	0.602481	0.417104
	H63	H	0.883332	0.406166	0.413168
	H64	H	0.405688	0.595068	0.120699
	H65	H	0.589288	0.590652	0.886467
	H66	H	0.585751	0.400437	0.117679
	H67	H	0.410206	0.395883	0.884767
	H68	H	0.589095	0.110384	0.411165
	H69	H	0.595477	0.878398	0.598559
	H70	H	0.422302	0.106852	0.595028
	H71	H	0.416741	0.881335	0.400350
	H72	H	0.905104	0.614525	0.101120
	H73	H	0.085739	0.381511	0.096037
	H74	H	0.089208	0.611439	0.911146
	H75	H	0.898193	0.376613	0.906777
	H76	H	0.091790	0.892311	0.622204
	H77	H	0.093198	0.088568	0.385712
	H78	H	0.912808	0.083787	0.616217
	H79	H	0.906760	0.913120	0.388420
	H80	H	0.613448	0.087390	0.925466
	H81	H	0.379284	0.095312	0.095360
	H82	H	0.621731	0.902614	0.100426
	H83	H	0.380513	0.902778	0.908672
	H84	H	0.617908	0.899992	0.086996
	H85	H	0.382789	0.087843	0.089477
	H86	H	0.616983	0.075603	0.902333
	H87	H	0.380302	0.903399	0.907984
	H88	H	0.912245	0.099638	0.621174
	H89	H	0.090810	0.090641	0.385769
	H90	H	0.102348	0.906615	0.620990
	H91	H	0.918765	0.895737	0.387739
	H92	H	0.096031	0.612534	0.911832
	H93	H	0.096476	0.380530	0.091756
	H94	H	0.910549	0.612685	0.098854
	H95	H	0.913299	0.379542	0.900523
	H96	H	0.398461	0.111786	0.585731
	H97	H	0.589560	0.879474	0.597199
	H98	H	0.598420	0.113528	0.409021
	H99	H	0.407283	0.882891	0.418449
	H100	H	0.596177	0.398572	0.120764
	H101	H	0.593966	0.594290	0.883285
	H102	H	0.406170	0.585714	0.118361
	H103	H	0.400954	0.398011	0.882268
	H104	H	0.113313	0.576356	0.420849
	H105	H	0.879796	0.591492	0.598855
	H106	H	0.119015	0.401987	0.591339
	H107	H	0.880696	0.404528	0.407418
	H108	H	0.905587	0.612522	0.095131
	H109	H	0.094374	0.378392	0.103095
	H110	H	0.092535	0.613455	0.905868
	H111	H	0.909619	0.383964	0.916276
	H112	H	0.085427	0.907709	0.616248
	H113	H	0.093569	0.091289	0.384888
	H114	H	0.898613	0.090333	0.622600
	H115	H	0.899223	0.894852	0.381947
	H116	H	0.624037	0.100567	0.905487
	H117	H	0.380553	0.084706	0.099408
	H118	H	0.616344	0.912464	0.092132
	H119	H	0.380634	0.902360	0.909168
	C120	C	0.378868	0.004464	0.624669
	C121	C	0.621725	0.987430	0.624585
	C122	C	0.622285	0.004411	0.379187
	C123	C	0.378648	0.987960	0.379696
	C124	C	0.621120	0.374254	0.010164
	C125	C	0.621294	0.619265	0.993601
	C126	C	0.378905	0.618022	0.010530
	C127	C	0.378059	0.373173	0.992876
	C128	C	0.009375	0.616828	0.382730
	C129	C	0.991618	0.617595	0.624482
	C130	C	0.009747	0.375419	0.623597
	C131	C	0.991329	0.374851	0.381856
	C132	C	0.877830	0.505161	0.125313
	C133	C	0.121663	0.487573	0.125535
	C134	C	0.121264	0.504417	0.881103
	C135	C	0.878298	0.488250	0.880306
	C136	C	0.121784	0.874297	0.511113
	C137	C	0.121839	0.118635	0.493816
	C138	C	0.878965	0.118587	0.511393
	C139	C	0.879019	0.873742	0.494489
	C140	C	0.508243	0.116590	0.881997
	C141	C	0.490662	0.117987	0.123674
	C142	C	0.509076	0.875877	0.121514
	C143	C	0.490307	0.874760	0.880303
	C144	C	0.380757	0.881284	0.678756
	C145	C	0.620241	0.110418	0.680170
	C146	C	0.620732	0.881623	0.323383
	C147	C	0.380501	0.110778	0.325337
	C148	C	0.674740	0.378500	0.886300
	C149	C	0.675100	0.615464	0.117557
	C150	C	0.324309	0.612569	0.886974
	C151	C	0.324523	0.378129	0.117229
	C152	C	0.884450	0.671240	0.384664
	C153	C	0.116386	0.672470	0.623056
	C154	C	0.884677	0.320780	0.621576
	C155	C	0.116135	0.319732	0.383618
	C156	C	0.884638	0.377883	0.677992
	C157	C	0.116509	0.614939	0.679351
	C158	C	0.884272	0.614737	0.327932
	C159	C	0.115999	0.376658	0.326616
	C160	C	0.378824	0.673345	0.888012
	C161	C	0.620325	0.675829	0.116251
	C162	C	0.620056	0.317691	0.887765
	C163	C	0.379873	0.319003	0.116471
	C164	C	0.676083	0.880747	0.383764
	C165	C	0.675574	0.111323	0.620320
	C166	C	0.324437	0.880803	0.619601
	C167	C	0.324559	0.111671	0.385007
	C168	C	0.879228	0.382375	0.179997
	C169	C	0.120886	0.610303	0.181475
	C170	C	0.120313	0.382203	0.824541
	C171	C	0.880279	0.611097	0.826203
	C172	C	0.175377	0.878537	0.386887
	C173	C	0.176704	0.115088	0.617524
	C174	C	0.824935	0.113387	0.387530
	C175	C	0.824188	0.878570	0.618158
	C176	C	0.383182	0.170662	0.883747
	C177	C	0.615196	0.172981	0.121839
	C178	C	0.383955	0.821106	0.119907
	C179	C	0.615112	0.819583	0.881839
	C180	C	0.384098	0.877591	0.176860
	C181	C	0.615731	0.115242	0.177925
	C182	C	0.383721	0.114117	0.826591
	C183	C	0.615474	0.876648	0.825642
	C184	C	0.879653	0.173723	0.388549
	C185	C	0.121081	0.174229	0.616844
	C186	C	0.120929	0.817628	0.388378
	C187	C	0.880024	0.819114	0.617404
	C188	C	0.175355	0.380944	0.884368
	C189	C	0.177180	0.610662	0.122255
	C190	C	0.823071	0.381578	0.120570
	C191	C	0.824659	0.611966	0.885842
	C192	C	0.401671	0.090055	0.603270
	C193	C	0.599380	0.901765	0.602688
	C194	C	0.599891	0.090278	0.400993
	C195	C	0.400386	0.902052	0.400663
	C196	C	0.598682	0.396136	0.096445
	C197	C	0.599068	0.597290	0.907145
	C198	C	0.401763	0.597054	0.096412
	C199	C	0.399863	0.393729	0.906780
	C200	C	0.096637	0.594610	0.405097
	C201	C	0.904359	0.596087	0.602177
	C202	C	0.096745	0.397705	0.601204
	C203	C	0.904176	0.397226	0.404525
	C204	C	0.900335	0.590867	0.104565
	C205	C	0.099047	0.402324	0.103330
	C206	C	0.099125	0.590196	0.903211
	C207	C	0.900472	0.402150	0.901544
	C208	C	0.099658	0.895785	0.597323
	C209	C	0.099086	0.096756	0.407718
	C210	C	0.901233	0.097598	0.597592
	C211	C	0.901657	0.894982	0.408335
	C212	C	0.595636	0.094403	0.904516
	C213	C	0.403344	0.095722	0.101415
	C214	C	0.596032	0.898338	0.099549
	C215	C	0.403051	0.896567	0.902105
	Zn216	Zn	0.500265	-0.004068	0.753827
	Zn217	Zn	0.500015	-0.004064	0.249758
	Zn218	Zn	0.749418	0.496979	0.002261
	Zn219	Zn	0.250288	0.495682	0.002728
	Zn220	Zn	0.000677	0.744648	0.502710
	Zn221	Zn	0.000644	0.247543	0.502998
	Zn222	Zn	0.000136	0.496174	0.751263
	Zn223	Zn	-0.000162	0.496570	0.255073
	Zn224	Zn	0.499954	0.748024	0.001773
	Zn225	Zn	0.499186	0.244550	0.001893
	Zn226	Zn	0.750500	-0.003827	0.502683
	Zn227	Zn	0.249805	-0.003444	0.502558
	N228	N	0.413677	0.959151	0.682195
	N229	N	0.587854	0.032472	0.683107
	N230	N	0.588098	0.959490	0.320287
	N231	N	0.413751	0.033023	0.322077
	N232	N	0.675501	0.412907	0.963641
	N233	N	0.675951	0.581050	0.040226
	N234	N	0.323985	0.578936	0.964248
	N235	N	0.323379	0.411322	0.039731
	N236	N	0.963092	0.672289	0.418204
	N237	N	0.037637	0.674240	0.589473
	N238	N	0.963400	0.318983	0.588454
	N239	N	0.037390	0.318687	0.417319
	N240	N	0.963457	0.411056	0.679281
	N241	N	0.037952	0.581570	0.680235
	N242	N	0.963071	0.581498	0.326561
	N243	N	0.037444	0.410137	0.325377
	N244	N	0.412241	0.676593	0.965752
	N245	N	0.587954	0.678414	0.037936
	N246	N	0.587334	0.314967	0.965914
	N247	N	0.412355	0.315563	0.038312
	N248	N	0.677244	0.958068	0.417761
	N249	N	0.676650	0.034006	0.586428
	N250	N	0.323144	0.958225	0.586634
	N251	N	0.323224	0.034355	0.418102
	N252	N	0.912428	0.460118	0.183349
	N253	N	0.087166	0.532905	0.183743
	N254	N	0.087277	0.459903	0.822417
	N255	N	0.912884	0.533178	0.822648
	N256	N	0.176089	0.913030	0.464301
	N257	N	0.176979	0.080968	0.540105
	N258	N	0.824096	0.080022	0.464932
	N259	N	0.823411	0.911879	0.540699
	N260	N	0.461841	0.172166	0.917553
	N261	N	0.536317	0.174853	0.088863
	N262	N	0.462595	0.819933	0.086381
	N263	N	0.536387	0.818145	0.915028
	N264	N	0.462785	0.911026	0.178042
	N265	N	0.537073	0.081862	0.179103
	N266	N	0.462646	0.081178	0.825481
	N267	N	0.536837	0.910398	0.824574
	N268	N	0.912604	0.177029	0.466584
	N269	N	0.087817	0.176768	0.538989
	N270	N	0.088327	0.815020	0.466438
	N271	N	0.913500	0.816141	0.539567
	N272	N	0.176169	0.457978	0.918863
	N273	N	0.177604	0.533590	0.087830
	N274	N	0.821846	0.458873	0.087485
	N275	N	0.823468	0.534478	0.918956
	O276	O	1.028997	0.956851	-0.029943
	H277	H	1.026300	0.958313	-0.022972
	H278	H	1.034833	0.952131	-0.038180
	O279	O	-0.021021	0.051868	-0.069042
	H280	H	-0.017318	0.048848	-0.070553
	H281	H	-0.022059	0.051016	-0.069160
	O282	O	-0.071618	0.041062	1.003913
	H283	H	-0.069410	0.045095	1.000810
	H284	H	-0.072706	0.040535	1.000120
	O285	O	0.535272	0.515243	0.436662
	H286	H	0.532923	0.511489	0.435265
	H287	H	0.534367	0.525845	0.437105
	O288	O	0.525169	0.544912	0.463529
	H289	H	0.529534	0.538966	0.461889
	H290	H	0.524724	0.538603	0.462061
	O291	O	0.556543	0.537194	0.502584
	H292	H	0.562787	0.537853	0.507287
	H293	H	0.556484	0.542259	0.498865
	O294	O	0.044894	0.036361	-0.052614
	H295	H	0.036108	0.027427	-0.045403
	H296	H	0.048837	0.029634	-0.053110
	O297	O	0.537324	0.481242	0.454852
	H298	H	0.540488	0.481102	0.455107
	H299	H	0.541892	0.478700	0.455283
	O300	O	-0.039959	0.961865	1.017213
	H301	H	-0.034609	0.971306	1.015866
	H302	H	-0.043913	0.962119	1.011673
	O303	O	0.555097	0.485557	0.463159
	H304	H	0.547973	0.489099	0.463042
	H305	H	0.555560	0.487322	0.459069
	O306	O	-0.011401	-0.049956	0.969032
	H307	H	-0.016548	-0.045788	0.969839
	H308	H	-0.008475	-0.059273	0.967275
	O309	O	0.966034	1.029537	1.004637
	H310	H	0.961368	1.032280	1.008371
	H311	H	0.967427	1.033362	0.999747
	O312	O	0.567749	0.502326	0.484327
	H313	H	0.573137	0.493689	0.481465
	H314	H	0.565402	0.507992	0.481420
	O315	O	0.509326	0.507067	0.503205
	H316	H	0.510987	0.503356	0.494848
	H317	H	0.516715	0.505175	0.508098
	O318	O	-0.019217	1.086541	0.010221
	H319	H	-0.015794	1.092805	0.014092
	H320	H	-0.019353	1.082323	0.008591
	O321	O	0.986527	1.030582	-0.083052
	H322	H	0.980403	1.026678	-0.085819
	H323	H	0.989539	1.038718	-0.081328
