data_Molecule from HDF5

_cell_length_a		16.512222
_cell_length_b		15.987629
_cell_length_c		16.020874
_cell_angle_alpha	88.639655
_cell_angle_beta	90.240658
_cell_angle_gamma	89.686130
_symmetry_space_group_name_H-M	'P 1'
_symmetry_Int_Tables_number		1

loop_
	_symmetry_equiv_pos_as_xyz
	x,y,z

loop_
	_atom_site_label
	_atom_site_type_symbol
	_atom_site_fract_x
	_atom_site_fract_y
	_atom_site_fract_z
	H0	H	0.403299	0.835863	0.711739
	H1	H	0.591378	0.170662	0.698800
	H2	H	0.591397	0.832585	0.294510
	H3	H	0.401762	0.168485	0.280373
	H4	H	0.716261	0.401266	0.833497
	H5	H	0.714444	0.600832	0.160937
	H6	H	0.277862	0.612800	0.833203
	H7	H	0.283285	0.395452	0.161731
	H8	H	0.835279	0.720568	0.394908
	H9	H	0.161184	0.712622	0.592773
	H10	H	0.835750	0.284577	0.598972
	H11	H	0.161149	0.288046	0.404612
	H12	H	0.836681	0.398921	0.716643
	H13	H	0.160726	0.595062	0.710096
	H14	H	0.835453	0.604338	0.277817
	H15	H	0.160900	0.405242	0.285598
	H16	H	0.400977	0.718901	0.830222
	H17	H	0.590831	0.704613	0.165607
	H18	H	0.591653	0.300378	0.825969
	H19	H	0.405147	0.286498	0.161819
	H20	H	0.715654	0.838301	0.396443
	H21	H	0.712598	0.166512	0.595882
	H22	H	0.282523	0.837423	0.602571
	H23	H	0.279090	0.166365	0.387159
	H24	H	0.906481	0.334613	0.210160
	H25	H	0.091098	0.670977	0.200422
	H26	H	0.092432	0.332023	0.796700
	H27	H	0.902048	0.667754	0.781028
	H28	H	0.213124	0.902574	0.331129
	H29	H	0.215569	0.101197	0.659740
	H30	H	0.779646	0.111061	0.332166
	H31	H	0.781571	0.894905	0.660920
	H32	H	0.336019	0.222253	0.892265
	H33	H	0.661578	0.211727	0.089195
	H34	H	0.336001	0.785639	0.097038
	H35	H	0.660328	0.788474	0.903241
	H36	H	0.335666	0.901100	0.213200
	H37	H	0.660538	0.096148	0.209590
	H38	H	0.336083	0.105426	0.775864
	H39	H	0.661081	0.906475	0.785102
	H40	H	0.900504	0.219463	0.331681
	H41	H	0.090105	0.201169	0.666794
	H42	H	0.090498	0.797217	0.327790
	H43	H	0.905613	0.788923	0.664601
	H44	H	0.216334	0.338334	0.898327
	H45	H	0.213847	0.666562	0.097934
	H46	H	0.782247	0.337203	0.105642
	H47	H	0.780146	0.666866	0.890191
	H48	H	0.397519	0.125282	0.587332
	H49	H	0.588664	0.880717	0.600619
	H50	H	0.591333	0.122858	0.400741
	H51	H	0.402859	0.880219	0.403503
	H52	H	0.591020	0.417181	0.112650
	H53	H	0.591739	0.588002	0.879806
	H54	H	0.402685	0.579317	0.112756
	H55	H	0.401361	0.425790	0.879384
	H56	H	0.110533	0.586472	0.399214
	H57	H	0.888885	0.591939	0.572045
	H58	H	0.111904	0.403521	0.591267
	H59	H	0.884261	0.408015	0.407584
	H60	H	0.114059	0.405068	0.602758
	H61	H	0.883301	0.580131	0.599850
	H62	H	0.118039	0.604981	0.388693
	H63	H	0.884774	0.414654	0.404777
	H64	H	0.411730	0.595294	0.115749
	H65	H	0.583371	0.599130	0.878932
	H66	H	0.582916	0.399453	0.114888
	H67	H	0.409812	0.412574	0.878177
	H68	H	0.587523	0.121457	0.400039
	H69	H	0.585562	0.886312	0.582554
	H70	H	0.410326	0.119951	0.583286
	H71	H	0.405696	0.883101	0.410630
	H72	H	0.895344	0.622751	0.082638
	H73	H	0.086909	0.385565	0.085547
	H74	H	0.078813	0.616433	0.908451
	H75	H	0.899094	0.383011	0.918876
	H76	H	0.086004	0.899714	0.616166
	H77	H	0.084595	0.095520	0.379021
	H78	H	0.904646	0.091459	0.616572
	H79	H	0.905174	0.920615	0.379592
	H80	H	0.613779	0.098275	0.896552
	H81	H	0.381228	0.093849	0.092635
	H82	H	0.614677	0.901401	0.095913
	H83	H	0.382469	0.913829	0.901127
	H84	H	0.612694	0.903434	0.093168
	H85	H	0.381677	0.100529	0.084422
	H86	H	0.614360	0.101624	0.894385
	H87	H	0.382222	0.909084	0.902644
	H88	H	0.898217	0.089696	0.618260
	H89	H	0.090939	0.101418	0.375016
	H90	H	0.103149	0.904250	0.618510
	H91	H	0.905860	0.910125	0.377072
	H92	H	0.100793	0.623048	0.910192
	H93	H	0.102925	0.380713	0.089073
	H94	H	0.905560	0.622542	0.088785
	H95	H	0.898858	0.378196	0.902949
	H96	H	0.398998	0.120085	0.573896
	H97	H	0.601885	0.879347	0.588134
	H98	H	0.589932	0.121905	0.403366
	H99	H	0.397829	0.881657	0.409621
	H100	H	0.601834	0.401750	0.119243
	H101	H	0.595991	0.600197	0.874465
	H102	H	0.394012	0.593563	0.119230
	H103	H	0.395617	0.413202	0.873222
	H104	H	0.111802	0.605318	0.410026
	H105	H	0.876929	0.609486	0.593626
	H106	H	0.116315	0.394608	0.597983
	H107	H	0.881237	0.409821	0.400710
	H108	H	0.905015	0.618850	0.078024
	H109	H	0.091461	0.379700	0.101571
	H110	H	0.089945	0.625882	0.889448
	H111	H	0.912037	0.384839	0.908871
	H112	H	0.090578	0.917711	0.612596
	H113	H	0.093457	0.092573	0.377688
	H114	H	0.902650	0.084761	0.614998
	H115	H	0.897424	0.915744	0.376743
	H116	H	0.614548	0.101024	0.898735
	H117	H	0.385476	0.091153	0.082596
	H118	H	0.613949	0.905628	0.096316
	H119	H	0.383421	0.912770	0.905540
	C120	C	0.375607	0.012006	0.615144
	C121	C	0.618984	0.992895	0.616142
	C122	C	0.618061	0.011293	0.375468
	C123	C	0.374349	0.992000	0.375000
	C124	C	0.619418	0.380822	0.005119
	C125	C	0.618296	0.621960	0.987708
	C126	C	0.374420	0.623060	0.006229
	C127	C	0.375835	0.383057	0.986566
	C128	C	0.005956	0.627652	0.370762
	C129	C	0.990118	0.621445	0.617566
	C130	C	0.006771	0.374387	0.624492
	C131	C	0.990192	0.381005	0.376781
	C132	C	0.875768	0.511315	0.116729
	C133	C	0.120254	0.492852	0.118468
	C134	C	0.118497	0.511195	0.877084
	C135	C	0.875270	0.491859	0.876773
	C136	C	0.119591	0.880822	0.505426
	C137	C	0.117860	0.122114	0.487575
	C138	C	0.874364	0.122430	0.506670
	C139	C	0.875588	0.882157	0.487528
	C140	C	0.506573	0.128982	0.868371
	C141	C	0.490231	0.122428	0.115339
	C142	C	0.506177	0.875937	0.122151
	C143	C	0.489846	0.882399	0.875783
	C144	C	0.381192	0.885933	0.673529
	C145	C	0.613530	0.119537	0.665638
	C146	C	0.613688	0.883860	0.327394
	C147	C	0.379124	0.118121	0.317040
	C148	C	0.676137	0.383103	0.881477
	C149	C	0.674925	0.619749	0.112292
	C150	C	0.317630	0.628662	0.882024
	C151	C	0.321493	0.378524	0.111650
	C152	C	0.883926	0.682621	0.374184
	C153	C	0.112525	0.674890	0.613645
	C154	C	0.884351	0.320946	0.620760
	C155	C	0.112525	0.325889	0.382672
	C156	C	0.884770	0.378215	0.678906
	C157	C	0.112427	0.616536	0.672231
	C158	C	0.883970	0.624752	0.315829
	C159	C	0.112468	0.384144	0.323272
	C160	C	0.378467	0.681843	0.880817
	C161	C	0.613274	0.671228	0.114663
	C162	C	0.614058	0.332937	0.877667
	C163	C	0.381940	0.324146	0.111860
	C164	C	0.675490	0.886829	0.378237
	C165	C	0.673816	0.117562	0.614136
	C166	C	0.321014	0.886749	0.619297
	C167	C	0.318760	0.117355	0.370781
	C168	C	0.882735	0.385107	0.173755
	C169	C	0.114174	0.619675	0.167689
	C170	C	0.114476	0.383638	0.829295
	C171	C	0.879407	0.617738	0.818450
	C172	C	0.174373	0.883350	0.380411
	C173	C	0.175535	0.119308	0.611399
	C174	C	0.818591	0.127448	0.381835
	C175	C	0.820279	0.878047	0.611979
	C176	C	0.384673	0.184458	0.871342
	C177	C	0.612784	0.174906	0.110731
	C178	C	0.384388	0.822490	0.117976
	C179	C	0.612060	0.826720	0.881085
	C180	C	0.384128	0.880191	0.175722
	C181	C	0.612142	0.117424	0.170911
	C182	C	0.384621	0.126198	0.813605
	C183	C	0.612238	0.885343	0.822181
	C184	C	0.878419	0.181669	0.381518
	C185	C	0.113005	0.169461	0.615060
	C186	C	0.113241	0.831057	0.378819
	C187	C	0.881713	0.824995	0.613774
	C188	C	0.176108	0.386835	0.879825
	C189	C	0.174992	0.617579	0.116096
	C190	C	0.821266	0.386391	0.121542
	C191	C	0.819058	0.617089	0.873046
	C192	C	0.396150	0.099158	0.589179
	C193	C	0.598332	0.904846	0.596128
	C194	C	0.596164	0.099168	0.395397
	C195	C	0.395720	0.904512	0.400480
	C196	C	0.598140	0.400228	0.092832
	C197	C	0.596827	0.601763	0.900265
	C198	C	0.396355	0.596990	0.093258
	C199	C	0.396157	0.409524	0.899325
	C200	C	0.091487	0.605341	0.392709
	C201	C	0.905069	0.600122	0.595218
	C202	C	0.091831	0.395056	0.603494
	C203	C	0.905412	0.404007	0.398155
	C204	C	0.895906	0.598871	0.090793
	C205	C	0.099787	0.404804	0.098286
	C206	C	0.096377	0.598978	0.896988
	C207	C	0.896915	0.404427	0.902543
	C208	C	0.099372	0.901165	0.593143
	C209	C	0.096050	0.102413	0.399837
	C210	C	0.895596	0.096283	0.593861
	C211	C	0.896606	0.908077	0.400384
	C212	C	0.592139	0.107041	0.890118
	C213	C	0.404819	0.101280	0.093192
	C214	C	0.591716	0.897069	0.101282
	C215	C	0.404744	0.904894	0.897016
	Zn216	Zn	0.498057	0.004113	0.741828
	Zn217	Zn	0.497596	-0.000053	0.249096
	Zn218	Zn	0.746467	0.501080	-0.002435
	Zn219	Zn	0.245955	0.503017	-0.002939
	Zn220	Zn	-0.001920	0.754284	0.495899
	Zn221	Zn	-0.002652	0.248611	0.499639
	Zn222	Zn	-0.001244	0.499031	0.750695
	Zn223	Zn	-0.001640	0.503522	0.243320
	Zn224	Zn	0.497530	0.749150	-0.001819
	Zn225	Zn	0.498503	0.255466	-0.007159
	Zn226	Zn	0.745734	0.002414	0.496387
	Zn227	Zn	0.246465	0.002140	0.495213
	N228	N	0.414286	0.964725	0.671133
	N229	N	0.580183	0.040838	0.667129
	N230	N	0.578621	0.962242	0.325211
	N231	N	0.413064	0.039154	0.319632
	N232	N	0.679606	0.412125	0.961666
	N233	N	0.678422	0.589983	0.032369
	N234	N	0.314867	0.592984	0.961031
	N235	N	0.317629	0.414508	0.032630
	N236	N	0.960910	0.684436	0.407669
	N237	N	0.035563	0.677903	0.580264
	N238	N	0.960967	0.318346	0.587590
	N239	N	0.035317	0.323793	0.415202
	N240	N	0.961724	0.410789	0.681342
	N241	N	0.035459	0.583820	0.674718
	N242	N	0.960993	0.591385	0.313474
	N243	N	0.035628	0.417798	0.319449
	N244	N	0.413557	0.678169	0.958869
	N245	N	0.578770	0.672722	0.036328
	N246	N	0.579336	0.331264	0.955704
	N247	N	0.415131	0.327012	0.033263
	N248	N	0.678502	0.967191	0.407240
	N249	N	0.677430	0.037599	0.584129
	N250	N	0.317327	0.965972	0.583611
	N251	N	0.315302	0.037972	0.405662
	N252	N	0.916034	0.463990	0.170992
	N253	N	0.080557	0.541078	0.169186
	N254	N	0.079224	0.462021	0.827215
	N255	N	0.913787	0.539037	0.820806
	N256	N	0.178498	0.913508	0.460155
	N257	N	0.178753	0.090575	0.531078
	N258	N	0.815996	0.091353	0.460581
	N259	N	0.816274	0.912915	0.532598
	N260	N	0.461651	0.186276	0.904594
	N261	N	0.535795	0.178147	0.076951
	N262	N	0.461299	0.819845	0.085415
	N263	N	0.534949	0.824723	0.913637
	N264	N	0.461118	0.912444	0.178599
	N265	N	0.534875	0.085434	0.173839
	N266	N	0.461505	0.092694	0.811560
	N267	N	0.535348	0.919341	0.818982
	N268	N	0.912331	0.178890	0.460227
	N269	N	0.077691	0.171200	0.537001
	N270	N	0.079871	0.829159	0.457566
	N271	N	0.915356	0.827229	0.535211
	N272	N	0.178760	0.467090	0.908738
	N273	N	0.179001	0.537630	0.086309
	N274	N	0.816833	0.465880	0.086897
	N275	N	0.816131	0.537638	0.908385
	O276	O	-0.005888	0.034091	0.005965
	H277	H	-0.008265	0.037282	0.003108
	H278	H	0.000384	0.045398	0.003989
	O279	O	0.378486	0.563577	0.455898
	H280	H	0.381267	0.557803	0.464090
	H281	H	0.379014	0.561314	0.448684
	O282	O	0.538729	0.488931	0.394127
	H283	H	0.544123	0.488007	0.396969
	H284	H	0.537277	0.481810	0.401570
	O285	O	0.030517	0.962925	0.994746
	H286	H	0.035349	0.973134	0.985084
	H287	H	0.033696	0.965505	0.988357
	O288	O	0.498515	0.579242	0.523712
	H289	H	0.498195	0.575233	0.528653
	H290	H	0.503782	0.575209	0.519371
	O291	O	1.096021	0.988499	1.006500
	H292	H	1.094503	0.991758	1.018556
	H293	H	1.089871	0.990096	1.000493
	O294	O	0.969351	1.056305	0.974033
	H295	H	0.968788	1.067552	0.972170
	H296	H	0.977389	1.047096	0.979663
	O297	O	0.919875	-0.019308	1.001670
	H298	H	0.923484	-0.019747	1.000309
	H299	H	0.914883	-0.022295	1.000608
	O300	O	0.551051	0.533267	0.492974
	H301	H	0.559590	0.528122	0.485656
	H302	H	0.544254	0.539242	0.495273
	O303	O	0.900768	-0.101642	0.049990
	H304	H	0.903344	-0.100727	0.048821
	H305	H	0.898337	-0.104314	0.053835
	O306	O	0.031664	1.005355	1.071107
	H307	H	0.029496	0.997425	1.069712
	H308	H	0.043044	1.005762	1.078859
	O309	O	0.476801	0.463059	0.460282
	H310	H	0.484109	0.449186	0.460881
	H311	H	0.476811	0.458288	0.459425
	O312	O	1.080035	-0.081535	0.978813
	H313	H	1.091442	-0.089397	0.985378
	H314	H	1.080053	-0.078961	0.977035
	O315	O	0.584993	0.477984	0.505388
	H316	H	0.592182	0.476817	0.507942
	H317	H	0.583161	0.480033	0.514438
	O318	O	0.484642	0.410632	0.511215
	H319	H	0.479134	0.410538	0.510041
	H320	H	0.482819	0.412958	0.512647
	O321	O	0.930122	1.024832	0.973860
	H322	H	0.916137	1.030011	0.976924
	H323	H	0.921922	1.007788	0.973693
	O324	O	0.515940	0.596547	0.504779
	H325	H	0.501962	0.591538	0.506676
	H326	H	0.503986	0.595956	0.512774
	O327	O	0.480345	0.452437	0.479947
	H328	H	0.490480	0.453565	0.495507
	H329	H	0.470829	0.457436	0.491157
	O330	O	0.989945	-0.012137	0.970985
	H331	H	0.986375	-0.010825	0.981769
	H332	H	0.986557	-0.006938	0.972194
	O333	O	0.965965	1.061979	-0.007516
	H334	H	0.971803	1.052721	0.003018
	H335	H	0.965831	1.056371	-0.000432
	O336	O	0.440371	0.499714	0.555393
	H337	H	0.443777	0.495313	0.556440
	H338	H	0.447546	0.503108	0.554880
	O339	O	0.506080	0.450311	0.437835
	H340	H	0.512034	0.449458	0.427782
	H341	H	0.502409	0.459641	0.445317
	O342	O	-0.013051	1.047940	0.011198
	H343	H	-0.016835	1.050577	0.005674
	H344	H	-0.010553	1.046192	0.024794
	O345	O	-0.019642	-0.060401	0.091474
	H346	H	-0.013654	-0.057971	0.089309
	H347	H	-0.010036	-0.062912	0.107231
	O348	O	0.470181	0.516553	0.518863
	H349	H	0.459773	0.513534	0.528792
	H350	H	0.464328	0.520022	0.523912
	O351	O	0.495401	0.524520	0.473298
	H352	H	0.500292	0.517353	0.453276
	H353	H	0.483755	0.542207	0.472084
	O354	O	0.520031	0.483470	0.460422
	H355	H	0.516818	0.477746	0.465879
	H356	H	0.529596	0.480772	0.453066
	O357	O	0.491992	0.559470	0.470153
	H358	H	0.501294	0.560374	0.465323
	H359	H	0.491022	0.573807	0.459075
	O360	O	0.003063	0.045147	-0.080832
	H361	H	-0.001139	0.047624	-0.095948
	H362	H	-0.008568	0.038788	-0.076634
	O363	O	0.518039	0.593582	0.589002
	H364	H	0.518798	0.591514	0.602098
	H365	H	0.507947	0.605820	0.592583
	O366	O	0.006636	-0.019457	1.034328
	H367	H	0.007308	-0.026900	1.033115
	H368	H	-0.004207	-0.019596	1.036391
	O369	O	0.520328	0.420503	0.488133
	H370	H	0.532258	0.419889	0.481110
	H371	H	0.526472	0.404217	0.486516
