data_Molecule from HDF5

_cell_length_a		16.304432
_cell_length_b		16.445179
_cell_length_c		16.648371
_cell_angle_alpha	89.882208
_cell_angle_beta	90.101333
_cell_angle_gamma	89.944019
_symmetry_space_group_name_H-M	'P 1'
_symmetry_Int_Tables_number		1

loop_
	_symmetry_equiv_pos_as_xyz
	x,y,z

loop_
	_atom_site_label
	_atom_site_type_symbol
	_atom_site_fract_x
	_atom_site_fract_y
	_atom_site_fract_z
	H0	H	0.378870	0.842225	0.727074
	H1	H	0.600166	0.154657	0.724441
	H2	H	0.596921	0.840564	0.277151
	H3	H	0.380609	0.152125	0.276403
	H4	H	0.714545	0.390699	0.841941
	H5	H	0.714001	0.604224	0.152712
	H6	H	0.265225	0.606586	0.842001
	H7	H	0.270117	0.395445	0.155428
	H8	H	0.831246	0.718317	0.394379
	H9	H	0.148088	0.722191	0.607860
	H10	H	0.830120	0.278594	0.604674
	H11	H	0.149691	0.280259	0.398853
	H12	H	0.833037	0.387032	0.725179
	H13	H	0.146744	0.610265	0.726639
	H14	H	0.831830	0.604614	0.277345
	H15	H	0.148099	0.391096	0.277945
	H16	H	0.380853	0.724139	0.842245
	H17	H	0.599095	0.722981	0.152460
	H18	H	0.598714	0.272655	0.842719
	H19	H	0.380447	0.272475	0.151799
	H20	H	0.709317	0.838465	0.398183
	H21	H	0.710231	0.157195	0.603206
	H22	H	0.267084	0.839254	0.607573
	H23	H	0.273295	0.156353	0.400646
	H24	H	0.885634	0.341456	0.219232
	H25	H	0.097036	0.657576	0.221293
	H26	H	0.103697	0.343216	0.772842
	H27	H	0.881387	0.653566	0.773329
	H28	H	0.213089	0.891582	0.342559
	H29	H	0.213920	0.103365	0.656610
	H30	H	0.767806	0.103142	0.343789
	H31	H	0.769162	0.893497	0.656420
	H32	H	0.330869	0.220501	0.892641
	H33	H	0.646892	0.218437	0.103585
	H34	H	0.330678	0.774297	0.105355
	H35	H	0.648921	0.779478	0.896530
	H36	H	0.331269	0.885857	0.223134
	H37	H	0.645741	0.103049	0.220916
	H38	H	0.332427	0.108860	0.773974
	H39	H	0.647017	0.890885	0.777440
	H40	H	0.885815	0.219806	0.344014
	H41	H	0.101880	0.225068	0.654100
	H42	H	0.099630	0.772650	0.343516
	H43	H	0.884569	0.773816	0.654619
	H44	H	0.213635	0.341189	0.894353
	H45	H	0.209018	0.659408	0.101264
	H46	H	0.771598	0.340340	0.100764
	H47	H	0.769171	0.656845	0.893258
	H48	H	0.408642	0.106822	0.587490
	H49	H	0.575415	0.886862	0.588458
	H50	H	0.571011	0.107029	0.412920
	H51	H	0.402288	0.880890	0.406210
	H52	H	0.581146	0.406558	0.110097
	H53	H	0.576027	0.588109	0.886670
	H54	H	0.398885	0.590753	0.110516
	H55	H	0.401568	0.413451	0.887115
	H56	H	0.103580	0.584876	0.414186
	H57	H	0.876138	0.584380	0.589357
	H58	H	0.103896	0.412724	0.588348
	H59	H	0.875184	0.414961	0.405880
	H60	H	0.102600	0.410572	0.586266
	H61	H	0.879534	0.584958	0.581764
	H62	H	0.103677	0.581055	0.408766
	H63	H	0.871572	0.404790	0.403477
	H64	H	0.400117	0.583735	0.107897
	H65	H	0.578536	0.590353	0.885248
	H66	H	0.580221	0.410406	0.108738
	H67	H	0.405030	0.409123	0.887744
	H68	H	0.583752	0.111554	0.411940
	H69	H	0.577265	0.885708	0.589491
	H70	H	0.398984	0.109241	0.583721
	H71	H	0.406539	0.883950	0.412256
	H72	H	0.899336	0.615107	0.093930
	H73	H	0.081414	0.384539	0.095114
	H74	H	0.072276	0.608135	0.912137
	H75	H	0.906510	0.385806	0.907069
	H76	H	0.074301	0.909495	0.608372
	H77	H	0.074223	0.086558	0.391654
	H78	H	0.897636	0.084885	0.611634
	H79	H	0.899153	0.914069	0.389003
	H80	H	0.601524	0.083891	0.914350
	H81	H	0.374105	0.086420	0.087930
	H82	H	0.603228	0.911235	0.090593
	H83	H	0.377187	0.910938	0.915975
	H84	H	0.602439	0.908256	0.088904
	H85	H	0.374735	0.084913	0.084153
	H86	H	0.602985	0.081641	0.906877
	H87	H	0.377181	0.916532	0.911438
	H88	H	0.904515	0.087576	0.611040
	H89	H	0.079212	0.093169	0.388158
	H90	H	0.077023	0.906152	0.609851
	H91	H	0.905905	0.905903	0.388737
	H92	H	0.075409	0.609017	0.912452
	H93	H	0.074707	0.388334	0.089242
	H94	H	0.907869	0.610536	0.088820
	H95	H	0.904812	0.387565	0.914070
	H96	H	0.401597	0.112067	0.592760
	H97	H	0.575290	0.885967	0.590618
	H98	H	0.575343	0.112385	0.401241
	H99	H	0.398687	0.882459	0.412773
	H100	H	0.576877	0.407302	0.108403
	H101	H	0.579018	0.587094	0.885785
	H102	H	0.406262	0.588955	0.108069
	H103	H	0.400452	0.408761	0.885388
	H104	H	0.105662	0.587364	0.408204
	H105	H	0.881041	0.578068	0.585958
	H106	H	0.101373	0.413582	0.586029
	H107	H	0.875777	0.406835	0.413190
	H108	H	0.898948	0.611995	0.083786
	H109	H	0.083331	0.386218	0.086481
	H110	H	0.073930	0.610454	0.909618
	H111	H	0.899655	0.384180	0.909841
	H112	H	0.078592	0.910911	0.609451
	H113	H	0.082662	0.084672	0.389071
	H114	H	0.899163	0.091543	0.614294
	H115	H	0.896102	0.905182	0.385384
	H116	H	0.604069	0.089040	0.909562
	H117	H	0.374948	0.082910	0.087122
	H118	H	0.601466	0.911649	0.087372
	H119	H	0.374163	0.910157	0.908924
	C120	C	0.368495	0.005757	0.622122
	C121	C	0.610533	0.989968	0.621536
	C122	C	0.610191	0.006157	0.377604
	C123	C	0.369163	0.987232	0.378855
	C124	C	0.612393	0.375270	0.006183
	C125	C	0.611405	0.620415	0.988987
	C126	C	0.368309	0.621330	0.005933
	C127	C	0.368793	0.377365	0.989520
	C128	C	-0.000867	0.618019	0.377966
	C129	C	0.982508	0.617723	0.620196
	C130	C	-0.001625	0.377848	0.620759
	C131	C	0.980090	0.377050	0.377247
	C132	C	0.869902	0.507630	0.119595
	C133	C	0.112027	0.491067	0.121431
	C134	C	0.110132	0.506295	0.878075
	C135	C	0.869558	0.489594	0.876962
	C136	C	0.111712	0.875325	0.507002
	C137	C	0.112211	0.120425	0.492553
	C138	C	0.868031	0.120478	0.508959
	C139	C	0.868098	0.875444	0.490871
	C140	C	0.498509	0.119342	0.877164
	C141	C	0.479727	0.117382	0.118967
	C142	C	0.497646	0.876021	0.121123
	C143	C	0.480889	0.878859	0.879296
	C144	C	0.362828	0.888595	0.685257
	C145	C	0.616157	0.107935	0.682784
	C146	C	0.614581	0.887560	0.317507
	C147	C	0.364496	0.105800	0.318029
	C148	C	0.673650	0.372783	0.888756
	C149	C	0.673484	0.622936	0.105991
	C150	C	0.305770	0.625000	0.888799
	C151	C	0.309131	0.376057	0.107629
	C152	C	0.879165	0.678298	0.376005
	C153	C	0.100747	0.681011	0.625106
	C154	C	0.878590	0.316990	0.623689
	C155	C	0.101221	0.318786	0.378499
	C156	C	0.880396	0.371486	0.683515
	C157	C	0.100103	0.624944	0.684144
	C158	C	0.879439	0.621835	0.317544
	C159	C	0.100501	0.373988	0.318401
	C160	C	0.363736	0.683274	0.888899
	C161	C	0.615886	0.681619	0.105966
	C162	C	0.615973	0.313792	0.889147
	C163	C	0.364222	0.314782	0.105893
	C164	C	0.670496	0.886712	0.377734
	C165	C	0.671134	0.109145	0.622534
	C166	C	0.306806	0.887375	0.625727
	C167	C	0.311036	0.107715	0.379445
	C168	C	0.867316	0.388859	0.179100
	C169	C	0.114756	0.610109	0.181154
	C170	C	0.118347	0.389319	0.815149
	C171	C	0.864539	0.607303	0.814878
	C172	C	0.173296	0.873056	0.389941
	C173	C	0.173575	0.122227	0.609564
	C174	C	0.808065	0.122013	0.390712
	C175	C	0.808962	0.874300	0.609059
	C176	C	0.378711	0.180452	0.874271
	C177	C	0.599209	0.178271	0.121971
	C178	C	0.378684	0.814075	0.123651
	C179	C	0.600824	0.818544	0.877203
	C180	C	0.378769	0.870309	0.182164
	C181	C	0.598675	0.121046	0.180308
	C182	C	0.379701	0.124942	0.815083
	C183	C	0.599761	0.874105	0.818104
	C184	C	0.866300	0.180219	0.391068
	C185	C	0.117743	0.183013	0.608198
	C186	C	0.116705	0.813432	0.390290
	C187	C	0.865888	0.814488	0.608172
	C188	C	0.173131	0.388280	0.875578
	C189	C	0.170697	0.611114	0.121504
	C190	C	0.810888	0.388212	0.120025
	C191	C	0.808915	0.608793	0.874397
	C192	C	0.395497	0.087858	0.595713
	C193	C	0.583780	0.907825	0.596744
	C194	C	0.584060	0.088808	0.401602
	C195	C	0.395013	0.904174	0.403347
	C196	C	0.586818	0.400772	0.087588
	C197	C	0.585452	0.595666	0.907388
	C198	C	0.394405	0.595491	0.087467
	C199	C	0.394858	0.402973	0.908130
	C200	C	0.082590	0.591894	0.403349
	C201	C	0.900246	0.590208	0.593476
	C202	C	0.081106	0.404597	0.594355
	C203	C	0.896124	0.401829	0.400725
	C204	C	0.894906	0.590963	0.095564
	C205	C	0.087093	0.408131	0.097286
	C206	C	0.081871	0.587827	0.904051
	C207	C	0.896124	0.407330	0.902911
	C208	C	0.084415	0.901288	0.588127
	C209	C	0.086194	0.095358	0.410834
	C210	C	0.893113	0.095240	0.590953
	C211	C	0.893390	0.900971	0.409184
	C212	C	0.581340	0.092471	0.902997
	C213	C	0.396461	0.091833	0.093690
	C214	C	0.580710	0.902744	0.096087
	C215	C	0.397712	0.905016	0.904855
	Zn216	Zn	0.489982	-0.001564	0.750268
	Zn217	Zn	0.488169	-0.003170	0.248696
	Zn218	Zn	0.741010	0.498581	-0.002591
	Zn219	Zn	0.239202	0.500011	-0.001942
	Zn220	Zn	-0.009614	0.745536	0.498675
	Zn221	Zn	-0.009844	0.250266	0.500869
	Zn222	Zn	-0.009268	0.497407	0.748487
	Zn223	Zn	-0.009140	0.498731	0.249656
	Zn224	Zn	0.489560	0.750284	-0.002022
	Zn225	Zn	0.489602	0.246525	-0.002255
	Zn226	Zn	0.738792	-0.002079	0.499994
	Zn227	Zn	0.241012	-0.002923	0.500142
	N228	N	0.400163	0.963567	0.683432
	N229	N	0.579100	0.032948	0.682379
	N230	N	0.577773	0.962707	0.317334
	N231	N	0.399669	0.029855	0.317382
	N232	N	0.671437	0.410415	0.962338
	N233	N	0.670601	0.585420	0.032511
	N234	N	0.308308	0.587383	0.962406
	N235	N	0.311586	0.414317	0.034183
	N236	N	0.954509	0.675895	0.412927
	N237	N	0.026714	0.676704	0.585727
	N238	N	0.953162	0.320713	0.585285
	N239	N	0.025376	0.320430	0.414354
	N240	N	0.956006	0.408233	0.681975
	N241	N	0.025635	0.586047	0.680961
	N242	N	0.955344	0.585228	0.318708
	N243	N	0.024169	0.409331	0.317359
	N244	N	0.401615	0.681216	0.962817
	N245	N	0.577726	0.680212	0.032281
	N246	N	0.578683	0.315025	0.963080
	N247	N	0.400545	0.315516	0.031492
	N248	N	0.668012	0.961449	0.414246
	N249	N	0.667996	0.034741	0.585166
	N250	N	0.310259	0.961284	0.587282
	N251	N	0.313480	0.032864	0.416266
	N252	N	0.903294	0.464377	0.179101
	N253	N	0.079381	0.534223	0.181568
	N254	N	0.079897	0.463542	0.816789
	N255	N	0.901320	0.532068	0.816078
	N256	N	0.170265	0.910919	0.463429
	N257	N	0.169918	0.083419	0.536687
	N258	N	0.808877	0.085684	0.465060
	N259	N	0.809966	0.911155	0.535015
	N260	N	0.453729	0.177114	0.911936
	N261	N	0.524217	0.176205	0.084558
	N262	N	0.453657	0.817491	0.086195
	N263	N	0.526027	0.821803	0.914654
	N264	N	0.453936	0.908035	0.180803
	N265	N	0.523252	0.083981	0.178591
	N266	N	0.455285	0.087709	0.816684
	N267	N	0.524052	0.910917	0.819284
	N268	N	0.902563	0.179624	0.465655
	N269	N	0.079759	0.181439	0.534589
	N270	N	0.079376	0.814597	0.464290
	N271	N	0.901807	0.814928	0.533549
	N272	N	0.167966	0.462020	0.914180
	N273	N	0.169436	0.536160	0.085209
	N274	N	0.812235	0.463313	0.083951
	N275	N	0.811856	0.534499	0.912120
	O276	O	1.168495	1.040910	-0.033971
	H277	H	1.167950	1.033546	-0.003694
	H278	H	1.159390	1.039718	-0.025091
	O279	O	-0.172424	-0.147785	0.085223
	H280	H	-0.166847	-0.134995	0.068891
	H281	H	-0.177796	-0.138940	0.069615
	O282	O	1.010265	1.029978	0.145042
	H283	H	1.015953	1.024609	0.130872
	H284	H	1.027238	1.036210	0.158793
	O285	O	0.537871	0.448151	0.333881
	H286	H	0.547491	0.433194	0.344010
	H287	H	0.524974	0.446449	0.337203
	O288	O	-0.198591	-0.012093	-0.200100
	H289	H	-0.221565	-0.028889	-0.209592
	H290	H	-0.187431	-0.031465	-0.193376
	O291	O	1.433568	0.551819	0.679971
	H292	H	1.433715	0.527847	0.682571
	H293	H	1.423031	0.537414	0.679959
	O294	O	-0.222991	0.966716	0.216207
	H295	H	-0.236265	0.971879	0.233024
	H296	H	-0.217820	0.959434	0.217098
	O297	O	0.195180	0.202456	0.207900
	H298	H	0.198232	0.220676	0.222581
	H299	H	0.189620	0.213573	0.216671
	O300	O	0.511634	0.479118	0.723592
	H301	H	0.501631	0.467381	0.717853
	H302	H	0.521283	0.475007	0.722261
	O303	O	0.542616	0.295227	0.283022
	H304	H	0.558439	0.291787	0.302531
	H305	H	0.558890	0.284253	0.276594
	O306	O	0.683200	0.691253	0.697909
	H307	H	0.651252	0.694206	0.684192
	H308	H	0.677742	0.684564	0.666473
	O309	O	0.294147	0.298712	0.521000
	H310	H	0.297936	0.320259	0.502996
	H311	H	0.280149	0.297307	0.511296
	O312	O	0.513544	0.709630	0.711845
	H313	H	0.502616	0.712393	0.732755
	H314	H	0.502526	0.704040	0.703727
	O315	O	0.707669	-0.481020	1.717046
	H316	H	0.696647	-0.454478	1.710598
	H317	H	0.735573	-0.469673	1.745668
	O318	O	-0.006278	0.804453	-0.202785
	H319	H	-0.001608	0.815552	-0.208940
	H320	H	-0.009213	0.797081	-0.187917
	O321	O	0.277925	0.445241	-0.572397
	H322	H	0.276453	0.472241	-0.580106
	H323	H	0.277398	0.472447	-0.579408
	O324	O	0.807718	0.189805	1.150012
	H325	H	0.824461	0.178722	1.124465
	H326	H	0.819722	0.174853	1.138328
	O327	O	0.945004	-0.215744	0.981022
	H328	H	0.935395	-0.224728	0.983164
	H329	H	0.966571	-0.209978	0.985873
	O330	O	0.721957	0.270290	0.266799
	H331	H	0.746580	0.235750	0.243922
	H332	H	0.716084	0.264251	0.292867
	O333	O	1.308849	0.679803	1.319084
	H334	H	1.332286	0.692114	1.338923
	H335	H	1.330277	0.692415	1.340180
	O336	O	0.438256	0.724691	0.551378
	H337	H	0.454027	0.729906	0.546954
	H338	H	0.423635	0.721813	0.553577
	O339	O	0.302749	0.318581	0.687161
	H340	H	0.294041	0.313092	0.645811
	H341	H	0.356109	0.305504	0.698609
	O342	O	0.099839	0.971414	1.159158
	H343	H	0.097031	0.972846	1.159040
	H344	H	0.108880	0.987052	1.169335
	O345	O	-0.032333	0.211441	-0.219239
	H346	H	-0.022272	0.223792	-0.204031
	H347	H	-0.025251	0.225623	-0.240067
	O348	O	0.807014	0.149786	0.817705
	H349	H	0.803948	0.101837	0.807986
	H350	H	0.842496	0.158116	0.804543
	O351	O	1.137061	1.204672	0.089965
	H352	H	1.149598	1.227138	0.098400
	H353	H	1.140154	1.184765	0.108210
	O354	O	0.456424	0.287946	0.473936
	H355	H	0.461570	0.306810	0.494044
	H356	H	0.450003	0.289942	0.462473
	O357	O	1.270095	1.480013	0.716606
	H358	H	1.275711	1.436193	0.708000
	H359	H	1.236307	1.476271	0.738437
	O360	O	0.274388	0.678586	0.496982
	H361	H	0.287997	0.679216	0.512696
	H362	H	0.246696	0.680449	0.511855
	O363	O	0.641636	0.415129	0.623082
	H364	H	0.656659	0.435605	0.625871
	H365	H	0.625302	0.439789	0.627271
	O366	O	1.202313	-0.188338	0.973324
	H367	H	1.191752	-0.186506	0.942358
	H368	H	1.219980	-0.204200	0.976725
	O369	O	0.810061	0.926219	1.022671
	H370	H	0.815152	0.925489	1.017564
	H371	H	0.818083	0.924100	1.020145
	O372	O	0.526462	0.559623	0.448387
	H373	H	0.514440	0.566692	0.440649
	H374	H	0.511392	0.569720	0.444853
	O375	O	0.037867	1.225393	0.943221
	H376	H	0.039886	1.231894	0.949620
	H377	H	0.044057	1.216539	0.955995
	O378	O	0.496773	0.663083	0.389807
	H379	H	0.513898	0.650635	0.390702
	H380	H	0.499402	0.650182	0.380473
	O381	O	0.964626	-0.045371	-0.150759
	H382	H	0.945428	-0.045786	-0.143646
	H383	H	0.992383	-0.032052	-0.143979
	O384	O	-0.019761	-0.184919	1.219060
	H385	H	-0.034984	-0.199598	1.230490
	H386	H	-0.012250	-0.180929	1.225370
	O387	O	-0.220604	1.205488	0.954311
	H388	H	-0.226419	1.202775	0.925777
	H389	H	-0.234695	1.210000	0.938354
	O390	O	0.079793	0.151661	1.213169
	H391	H	0.092687	0.167112	1.226760
	H392	H	0.072366	0.171713	1.199121
	O393	O	0.876840	0.969237	0.004566
	H394	H	0.888779	0.960725	0.000866
	H395	H	0.878433	0.979708	-0.005888
	O396	O	0.269146	0.526749	0.274454
	H397	H	0.260785	0.560058	0.266516
	H398	H	0.251097	0.552344	0.257828
	O399	O	0.749912	0.755645	0.221797
	H400	H	0.744168	0.741288	0.189674
	H401	H	0.772698	0.778615	0.217467
	O402	O	-0.043526	0.198701	1.059868
	H403	H	-0.034132	0.194574	1.051333
	H404	H	-0.068078	0.198452	1.050445
	O405	O	0.163064	-0.187542	-0.184095
	H406	H	0.169930	-0.156051	-0.183343
	H407	H	0.131589	-0.175189	-0.193261
	O408	O	0.470718	0.706753	0.287332
	H409	H	0.492252	0.702237	0.267881
	H410	H	0.487195	0.704347	0.272167
	O411	O	0.192743	0.970958	0.788245
	H412	H	0.191175	0.992485	0.806342
	H413	H	0.215617	0.979844	0.768316
	O414	O	0.465201	0.423525	0.329492
	H415	H	0.477629	0.415508	0.320313
	H416	H	0.454834	0.430002	0.318212
	O417	O	0.685748	0.499004	0.483934
	H418	H	0.693787	0.492385	0.469694
	H419	H	0.673315	0.496623	0.495312
	O420	O	0.518998	0.496892	0.556354
	H421	H	0.517380	0.526179	0.551776
	H422	H	0.517520	0.497926	0.579050
	O423	O	0.308263	1.310419	0.312272
	H424	H	0.335006	1.323906	0.321639
	H425	H	0.320514	1.326159	0.339419
	O426	O	1.200447	1.093510	1.146777
	H427	H	1.208019	1.097284	1.148650
	H428	H	1.214809	1.113906	1.159823
	O429	O	0.466402	0.282052	0.714049
	H430	H	0.487197	0.280186	0.699376
	H431	H	0.478372	0.259669	0.730903
	O432	O	0.701257	0.474210	0.279012
	H433	H	0.717780	0.453421	0.275008
	H434	H	0.707835	0.447037	0.268398
	O435	O	-0.179083	-0.149598	-0.141297
	H436	H	-0.192660	-0.170686	-0.160492
	H437	H	-0.151049	-0.156630	-0.150250
	O438	O	1.114657	-0.153909	0.082670
	H439	H	1.109707	-0.171630	0.093493
	H440	H	1.123081	-0.143410	0.072227
	O441	O	0.297972	0.542437	0.557798
	H442	H	0.316896	0.534519	0.559802
	H443	H	0.303695	0.542763	0.570408
	O444	O	0.114814	1.032503	0.908597
	H445	H	0.123070	1.020535	0.921332
	H446	H	0.114678	1.058266	0.928644
	O447	O	0.704573	0.286802	0.464015
	H448	H	0.718035	0.279956	0.481955
	H449	H	0.713832	0.282376	0.463760
	O450	O	0.662015	0.627820	0.407815
	H451	H	0.654862	0.643854	0.397571
	H452	H	0.663139	0.608297	0.380570
	O453	O	0.705022	0.702319	0.539230
	H454	H	0.708270	0.694898	0.520438
	H455	H	0.711986	0.722695	0.524338
	O456	O	1.030638	0.047825	-0.227912
	H457	H	1.032983	0.048262	-0.217017
	H458	H	1.042800	0.066858	-0.233910
	O459	O	0.897500	0.023286	1.150026
	H460	H	0.881847	0.026087	1.143566
	H461	H	0.905814	0.009024	1.152407
	O462	O	0.515941	0.350292	0.466612
	H463	H	0.505205	0.377914	0.457536
	H464	H	0.526043	0.329142	0.449744
	O465	O	0.990239	-0.074179	0.042931
	H466	H	0.996652	-0.080984	0.035423
	H467	H	0.992224	-0.080161	0.040607
