data_Molecule from HDF5

_cell_length_a		16.264156
_cell_length_b		16.263263
_cell_length_c		16.118132
_cell_angle_alpha	90.102684
_cell_angle_beta	90.016635
_cell_angle_gamma	90.112749
_symmetry_space_group_name_H-M	'P 1'
_symmetry_Int_Tables_number		1

loop_
	_symmetry_equiv_pos_as_xyz
	x,y,z

loop_
	_atom_site_label
	_atom_site_type_symbol
	_atom_site_fract_x
	_atom_site_fract_y
	_atom_site_fract_z
	H0	H	0.398715	0.833687	0.712506
	H1	H	0.594083	0.162584	0.715387
	H2	H	0.592054	0.834857	0.287219
	H3	H	0.397644	0.162713	0.287812
	H4	H	0.709816	0.401209	0.837510
	H5	H	0.708896	0.598324	0.168074
	H6	H	0.281990	0.597687	0.838002
	H7	H	0.281804	0.399828	0.167622
	H8	H	0.831858	0.713634	0.402261
	H9	H	0.158727	0.714453	0.602957
	H10	H	0.831539	0.283317	0.601944
	H11	H	0.159068	0.284366	0.403237
	H12	H	0.831219	0.401107	0.716629
	H13	H	0.160312	0.595817	0.715442
	H14	H	0.830122	0.594072	0.290974
	H15	H	0.159156	0.399683	0.287696
	H16	H	0.398846	0.709807	0.836688
	H17	H	0.594364	0.713422	0.167382
	H18	H	0.595063	0.285585	0.836956
	H19	H	0.396177	0.284171	0.166557
	H20	H	0.711547	0.836023	0.398536
	H21	H	0.710576	0.162056	0.600719
	H22	H	0.280566	0.835448	0.599268
	H23	H	0.279991	0.162249	0.400708
	H24	H	0.899332	0.333754	0.212806
	H25	H	0.093726	0.662108	0.217772
	H26	H	0.093855	0.334532	0.790237
	H27	H	0.899755	0.662921	0.789926
	H28	H	0.207649	0.900054	0.335798
	H29	H	0.210195	0.097274	0.666190
	H30	H	0.782770	0.096590	0.336106
	H31	H	0.779990	0.899040	0.665899
	H32	H	0.333057	0.214679	0.900412
	H33	H	0.658975	0.215366	0.101757
	H34	H	0.331951	0.783049	0.100689
	H35	H	0.658714	0.782726	0.901290
	H36	H	0.331122	0.901590	0.213785
	H37	H	0.659788	0.095709	0.214778
	H38	H	0.332131	0.095062	0.788392
	H39	H	0.660394	0.901497	0.788993
	H40	H	0.897855	0.212236	0.336870
	H41	H	0.094904	0.212130	0.666764
	H42	H	0.093765	0.782980	0.337032
	H43	H	0.895947	0.786319	0.667550
	H44	H	0.209978	0.335184	0.904007
	H45	H	0.211089	0.662447	0.103434
	H46	H	0.779527	0.336080	0.103937
	H47	H	0.782786	0.663058	0.904643
	H48	H	0.399709	0.120058	0.604068
	H49	H	0.587333	0.883200	0.586810
	H50	H	0.589526	0.113877	0.416255
	H51	H	0.393853	0.879460	0.406983
	H52	H	0.593202	0.417000	0.118790
	H53	H	0.596517	0.588869	0.883045
	H54	H	0.412245	0.590633	0.117618
	H55	H	0.395122	0.405673	0.882059
	H56	H	0.111243	0.591715	0.412508
	H57	H	0.877240	0.596875	0.594626
	H58	H	0.113174	0.402331	0.596923
	H59	H	0.877530	0.395990	0.416681
	H60	H	0.112228	0.404483	0.593426
	H61	H	0.879824	0.589064	0.592937
	H62	H	0.111466	0.590175	0.409824
	H63	H	0.881777	0.412901	0.412395
	H64	H	0.401074	0.600170	0.124265
	H65	H	0.585610	0.587940	0.886717
	H66	H	0.576287	0.405889	0.117769
	H67	H	0.405502	0.414188	0.887588
	H68	H	0.596224	0.119070	0.404615
	H69	H	0.596483	0.878378	0.595081
	H70	H	0.412327	0.112840	0.592854
	H71	H	0.405274	0.881192	0.402771
	H72	H	0.900811	0.617513	0.096933
	H73	H	0.082307	0.383689	0.093126
	H74	H	0.083401	0.616116	0.902257
	H75	H	0.899185	0.381682	0.912108
	H76	H	0.081150	0.905886	0.617980
	H77	H	0.085134	0.089248	0.384351
	H78	H	0.909441	0.090312	0.617743
	H79	H	0.906801	0.905835	0.385205
	H80	H	0.609363	0.081016	0.912826
	H81	H	0.378726	0.099210	0.088267
	H82	H	0.612032	0.897893	0.084641
	H83	H	0.378997	0.902386	0.912300
	H84	H	0.608881	0.917168	0.092210
	H85	H	0.381085	0.084667	0.093323
	H86	H	0.617186	0.094552	0.897146
	H87	H	0.379233	0.908240	0.906294
	H88	H	0.900112	0.096439	0.622730
	H89	H	0.087860	0.095510	0.382889
	H90	H	0.094018	0.899882	0.623164
	H91	H	0.903137	0.901949	0.382166
	H92	H	0.086485	0.612517	0.919969
	H93	H	0.095182	0.382224	0.089132
	H94	H	0.903145	0.616888	0.098059
	H95	H	0.901167	0.380492	0.907151
	H96	H	0.395290	0.115395	0.587215
	H97	H	0.584510	0.881468	0.600622
	H98	H	0.582199	0.114851	0.404006
	H99	H	0.402065	0.883325	0.413620
	H100	H	0.593585	0.396845	0.125290
	H101	H	0.589122	0.598824	0.881348
	H102	H	0.397125	0.586011	0.120657
	H103	H	0.407701	0.400762	0.883552
	H104	H	0.112983	0.593180	0.410155
	H105	H	0.877763	0.591315	0.600815
	H106	H	0.111763	0.406170	0.596906
	H107	H	0.875257	0.401919	0.399699
	H108	H	0.902215	0.616057	0.096086
	H109	H	0.091219	0.378944	0.102662
	H110	H	0.099976	0.619520	0.909064
	H111	H	0.904820	0.382952	0.910844
	H112	H	0.093961	0.914069	0.618624
	H113	H	0.091371	0.090209	0.382464
	H114	H	0.898861	0.084781	0.619339
	H115	H	0.901116	0.907162	0.383749
	H116	H	0.613481	0.102756	0.917834
	H117	H	0.375375	0.095136	0.102618
	H118	H	0.616506	0.902608	0.104909
	H119	H	0.376425	0.900466	0.904423
	C120	C	0.374134	0.007444	0.622674
	C121	C	0.617826	0.989685	0.622884
	C122	C	0.617313	0.007755	0.379587
	C123	C	0.372931	0.989753	0.379467
	C124	C	0.616560	0.378167	0.011259
	C125	C	0.617687	0.620435	0.993515
	C126	C	0.375061	0.619983	0.011263
	C127	C	0.374087	0.377696	0.993372
	C128	C	0.003500	0.619653	0.381638
	C129	C	0.986732	0.620465	0.624688
	C130	C	0.003943	0.376150	0.624584
	C131	C	0.986696	0.376010	0.380819
	C132	C	0.873821	0.507865	0.124731
	C133	C	0.117960	0.490047	0.124492
	C134	C	0.118048	0.507565	0.881707
	C135	C	0.874146	0.490177	0.881482
	C136	C	0.117308	0.877334	0.510408
	C137	C	0.117116	0.120316	0.492548
	C138	C	0.874173	0.119576	0.510613
	C139	C	0.874187	0.877128	0.493214
	C140	C	0.504877	0.120585	0.880287
	C141	C	0.486610	0.121357	0.123421
	C142	C	0.504146	0.877055	0.122643
	C143	C	0.487217	0.876023	0.879480
	C144	C	0.377282	0.883385	0.676225
	C145	C	0.614667	0.113477	0.677623
	C146	C	0.613441	0.883943	0.324685
	C147	C	0.376617	0.113747	0.325072
	C148	C	0.672392	0.380326	0.886986
	C149	C	0.671415	0.618413	0.118549
	C150	C	0.319773	0.617599	0.887217
	C151	C	0.319563	0.379748	0.118002
	C152	C	0.880406	0.675087	0.382973
	C153	C	0.110103	0.675987	0.622748
	C154	C	0.880415	0.321400	0.622111
	C155	C	0.110153	0.321717	0.383012
	C156	C	0.880152	0.379875	0.679059
	C157	C	0.110907	0.616974	0.678503
	C158	C	0.879668	0.615916	0.327182
	C159	C	0.110124	0.379054	0.325372
	C160	C	0.378149	0.673231	0.886434
	C161	C	0.614803	0.675965	0.117851
	C162	C	0.614890	0.323298	0.886546
	C163	C	0.376324	0.322185	0.117444
	C164	C	0.672684	0.884578	0.380202
	C165	C	0.672688	0.113129	0.620950
	C166	C	0.318673	0.884102	0.619707
	C167	C	0.318168	0.113512	0.381362
	C168	C	0.877504	0.383410	0.177283
	C169	C	0.114829	0.613115	0.180264
	C170	C	0.114359	0.383861	0.827251
	C171	C	0.878281	0.613976	0.827254
	C172	C	0.171099	0.879391	0.385576
	C173	C	0.172221	0.117692	0.616995
	C174	C	0.820113	0.117112	0.385668
	C175	C	0.818573	0.879388	0.617096
	C176	C	0.381624	0.176027	0.881189
	C177	C	0.610124	0.176848	0.121795
	C178	C	0.380871	0.821356	0.120719
	C179	C	0.610237	0.821039	0.881533
	C180	C	0.380245	0.880403	0.176551
	C181	C	0.610672	0.117369	0.177681
	C182	C	0.381173	0.116843	0.825423
	C183	C	0.611067	0.880077	0.825626
	C184	C	0.877172	0.174500	0.386194
	C185	C	0.115058	0.174709	0.617233
	C186	C	0.114397	0.821172	0.386249
	C187	C	0.876259	0.823046	0.617638
	C188	C	0.172324	0.384101	0.883892
	C189	C	0.173438	0.613190	0.123962
	C190	C	0.818123	0.384635	0.122816
	C191	C	0.820158	0.613952	0.884237
	C192	C	0.395967	0.093724	0.601114
	C193	C	0.596079	0.903494	0.600636
	C194	C	0.595720	0.093752	0.401757
	C195	C	0.394114	0.903577	0.401227
	C196	C	0.594256	0.400102	0.098001
	C197	C	0.596518	0.598366	0.906173
	C198	C	0.396937	0.598607	0.098522
	C199	C	0.396297	0.400331	0.906679
	C200	C	0.089378	0.597961	0.404150
	C201	C	0.900533	0.598755	0.602573
	C202	C	0.090135	0.397831	0.602628
	C203	C	0.900602	0.397321	0.403138
	C204	C	0.895546	0.594501	0.103463
	C205	C	0.096043	0.403773	0.101794
	C206	C	0.096398	0.593927	0.904054
	C207	C	0.895270	0.403962	0.903490
	C208	C	0.095992	0.899873	0.597594
	C209	C	0.094749	0.098187	0.405728
	C210	C	0.895974	0.097061	0.597501
	C211	C	0.896876	0.898846	0.406144
	C212	C	0.591041	0.099215	0.902710
	C213	C	0.400588	0.099633	0.101180
	C214	C	0.590191	0.899194	0.100493
	C215	C	0.400466	0.897326	0.901361
	Zn216	Zn	0.496103	-0.001670	0.751464
	Zn217	Zn	0.494905	-0.001164	0.251628
	Zn218	Zn	0.745410	0.499402	0.003556
	Zn219	Zn	0.246410	0.499189	0.002731
	Zn220	Zn	-0.004673	0.749186	0.502870
	Zn221	Zn	-0.004678	0.247333	0.502537
	Zn222	Zn	-0.003938	0.498573	0.752874
	Zn223	Zn	-0.005018	0.497986	0.252489
	Zn224	Zn	0.496003	0.748031	0.001863
	Zn225	Zn	0.495529	0.249875	0.001436
	Zn226	Zn	0.746277	-0.001405	0.501223
	Zn227	Zn	0.244849	-0.000756	0.500936
	N228	N	0.410977	0.961117	0.678502
	N229	N	0.581050	0.035792	0.678937
	N230	N	0.579764	0.961454	0.324141
	N231	N	0.409994	0.036057	0.323763
	N232	N	0.673574	0.413911	0.965440
	N233	N	0.673509	0.584623	0.040238
	N234	N	0.317678	0.585108	0.965987
	N235	N	0.317886	0.413486	0.039812
	N236	N	0.958295	0.677689	0.416071
	N237	N	0.032145	0.678314	0.589898
	N238	N	0.958494	0.318871	0.589137
	N239	N	0.032436	0.319716	0.416745
	N240	N	0.957860	0.413339	0.680654
	N241	N	0.033154	0.583164	0.679839
	N242	N	0.957165	0.581949	0.326221
	N243	N	0.032431	0.412156	0.323873
	N244	N	0.411890	0.674697	0.964656
	N245	N	0.582125	0.677202	0.039078
	N246	N	0.581037	0.321743	0.964781
	N247	N	0.409414	0.320695	0.038843
	N248	N	0.675325	0.962593	0.413745
	N249	N	0.674740	0.035298	0.587498
	N250	N	0.316581	0.962121	0.587003
	N251	N	0.315642	0.035585	0.414324
	N252	N	0.911576	0.460913	0.178405
	N253	N	0.081085	0.535347	0.180970
	N254	N	0.081476	0.461796	0.825590
	N255	N	0.911354	0.536235	0.825619
	N256	N	0.172868	0.913470	0.463710
	N257	N	0.173842	0.084799	0.538354
	N258	N	0.818262	0.083470	0.464059
	N259	N	0.816926	0.912170	0.538510
	N260	N	0.459660	0.178606	0.914345
	N261	N	0.532070	0.179593	0.088967
	N262	N	0.458907	0.819434	0.087713
	N263	N	0.532210	0.818723	0.914376
	N264	N	0.457788	0.914374	0.177912
	N265	N	0.532864	0.083844	0.179093
	N266	N	0.458651	0.082798	0.824772
	N267	N	0.533337	0.913713	0.824338
	N268	N	0.910164	0.175913	0.464837
	N269	N	0.081603	0.176356	0.538798
	N270	N	0.081544	0.819808	0.465050
	N271	N	0.910366	0.821807	0.539398
	N272	N	0.174498	0.462010	0.917180
	N273	N	0.175326	0.535599	0.089974
	N274	N	0.815590	0.463118	0.090905
	N275	N	0.817443	0.536009	0.917471
	O276	O	0.506658	0.498761	0.525713
	H277	H	0.503740	0.492775	0.523701
	H278	H	0.501451	0.505753	0.525079
	O279	O	0.512554	0.480082	0.421279
	H280	H	0.506697	0.483854	0.417338
	H281	H	0.514899	0.482797	0.414700
	O282	O	0.454088	0.523976	0.467287
	H283	H	0.447765	0.517550	0.459311
	H284	H	0.461743	0.531452	0.472234
	O285	O	-0.022118	0.981476	0.979139
	H286	H	-0.025015	0.982360	0.978228
	H287	H	-0.010311	0.987850	0.989094
	O288	O	0.485051	0.469042	0.594681
	H289	H	0.486728	0.472657	0.591557
	H290	H	0.492591	0.470540	0.591208
	O291	O	0.001973	0.018461	0.965383
	H292	H	0.008278	0.020051	0.957802
	H293	H	-0.000813	0.009990	0.972113
	O294	O	0.522400	0.497527	0.502737
	H295	H	0.517821	0.495831	0.497058
	H296	H	0.525471	0.505588	0.500182
	O297	O	0.483625	0.548911	0.523864
	H298	H	0.481120	0.533773	0.524797
	H299	H	0.477207	0.545144	0.538540
	O300	O	0.506191	0.539887	0.498798
	H301	H	0.503262	0.542338	0.498145
	H302	H	0.497943	0.532860	0.508998
	O303	O	0.428737	0.436934	0.477245
	H304	H	0.417371	0.429855	0.477446
	H305	H	0.423849	0.435834	0.482663
	O306	O	0.999673	-0.009830	1.006990
	H307	H	1.001240	0.002674	1.001900
	H308	H	1.003046	-0.004625	1.001469
	O309	O	0.425066	0.523158	0.497996
	H310	H	0.424997	0.519941	0.493114
	H311	H	0.422499	0.520872	0.496692
	O312	O	0.474649	0.464745	0.494388
	H313	H	0.485047	0.468760	0.483043
	H314	H	0.477511	0.465887	0.489699
	O315	O	0.994267	0.024398	1.024208
	H316	H	0.985679	0.013376	1.023394
	H317	H	0.989994	0.035331	1.039933
	O318	O	-0.012752	0.018971	-0.014945
	H319	H	-0.016223	0.013651	-0.010466
	H320	H	-0.012053	0.011685	-0.021941
	O321	O	0.461735	0.429237	0.486095
	H322	H	0.470130	0.430667	0.487596
	H323	H	0.462975	0.424795	0.476868
	O324	O	0.981369	0.048889	-0.004477
	H325	H	0.991928	0.049116	-0.015181
	H326	H	0.979116	0.051943	-0.010606
	O327	O	1.579334	1.561262	-0.478116
	H328	H	1.580706	1.556709	-0.476046
	H329	H	1.585353	1.559994	-0.471212
	O330	O	0.489629	0.553862	0.507314
	H331	H	0.505081	0.563446	0.507924
	H332	H	0.485624	0.550965	0.509996
	O333	O	0.446917	0.463433	0.462347
	H334	H	0.452461	0.466742	0.468160
	H335	H	0.440433	0.469629	0.464088
