data_Molecule from HDF5

_cell_length_a		16.313377
_cell_length_b		16.153069
_cell_length_c		16.349540
_cell_angle_alpha	90.221628
_cell_angle_beta	89.730760
_cell_angle_gamma	90.098494
_symmetry_space_group_name_H-M	'P 1'
_symmetry_Int_Tables_number		1

loop_
	_symmetry_equiv_pos_as_xyz
	x,y,z

loop_
	_atom_site_label
	_atom_site_type_symbol
	_atom_site_fract_x
	_atom_site_fract_y
	_atom_site_fract_z
	H0	H	0.393866	0.823909	0.723511
	H1	H	0.601209	0.147776	0.725595
	H2	H	0.600763	0.824007	0.287721
	H3	H	0.394348	0.148757	0.291435
	H4	H	0.720054	0.382976	0.846963
	H5	H	0.717022	0.591876	0.169070
	H6	H	0.279689	0.589103	0.847129
	H7	H	0.276816	0.379978	0.168101
	H8	H	0.836034	0.703754	0.407211
	H9	H	0.158609	0.705389	0.609631
	H10	H	0.836060	0.268400	0.610532
	H11	H	0.160545	0.269551	0.406226
	H12	H	0.837848	0.380586	0.729875
	H13	H	0.159315	0.588456	0.724771
	H14	H	0.837949	0.590390	0.289349
	H15	H	0.158355	0.377677	0.286058
	H16	H	0.398582	0.702922	0.845610
	H17	H	0.600158	0.705380	0.169014
	H18	H	0.602358	0.267196	0.845585
	H19	H	0.396390	0.267685	0.169407
	H20	H	0.715107	0.823593	0.402482
	H21	H	0.714730	0.149015	0.610080
	H22	H	0.281137	0.824179	0.607484
	H23	H	0.283201	0.149387	0.406484
	H24	H	0.893770	0.323236	0.224451
	H25	H	0.101942	0.647979	0.227467
	H26	H	0.100981	0.323270	0.789955
	H27	H	0.897884	0.648869	0.793698
	H28	H	0.216689	0.883040	0.345597
	H29	H	0.215181	0.088769	0.668772
	H30	H	0.780246	0.088518	0.346027
	H31	H	0.776702	0.883815	0.667298
	H32	H	0.337712	0.203113	0.906455
	H33	H	0.661975	0.200821	0.105426
	H34	H	0.335664	0.770994	0.105407
	H35	H	0.662801	0.771790	0.907601
	H36	H	0.336899	0.882322	0.226256
	H37	H	0.659058	0.090840	0.226617
	H38	H	0.337108	0.087538	0.791643
	H39	H	0.659796	0.883168	0.787111
	H40	H	0.898535	0.203172	0.345647
	H41	H	0.096327	0.202225	0.670184
	H42	H	0.098008	0.767967	0.346408
	H43	H	0.897305	0.773894	0.670966
	H44	H	0.215747	0.323100	0.904640
	H45	H	0.214321	0.649714	0.108058
	H46	H	0.780295	0.324261	0.110137
	H47	H	0.785461	0.649616	0.908776
	H48	H	0.410219	0.102756	0.598207
	H49	H	0.590196	0.869714	0.592161
	H50	H	0.589953	0.104600	0.411023
	H51	H	0.410580	0.869092	0.413878
	H52	H	0.592577	0.397852	0.122488
	H53	H	0.593312	0.571923	0.893506
	H54	H	0.412801	0.577836	0.121042
	H55	H	0.408292	0.400895	0.895287
	H56	H	0.111610	0.573837	0.421378
	H57	H	0.884692	0.567498	0.602600
	H58	H	0.114366	0.394762	0.601799
	H59	H	0.881983	0.392876	0.418127
	H60	H	0.112863	0.393987	0.597444
	H61	H	0.877114	0.582937	0.613564
	H62	H	0.112339	0.573719	0.415575
	H63	H	0.884933	0.397363	0.419548
	H64	H	0.405093	0.581289	0.124594
	H65	H	0.589070	0.581524	0.892931
	H66	H	0.587069	0.398272	0.120542
	H67	H	0.412681	0.391880	0.893047
	H68	H	0.582243	0.100486	0.418631
	H69	H	0.586575	0.867181	0.599854
	H70	H	0.402274	0.104904	0.598201
	H71	H	0.406739	0.870080	0.419574
	H72	H	0.907805	0.603657	0.098775
	H73	H	0.086793	0.372008	0.092292
	H74	H	0.080487	0.602917	0.910301
	H75	H	0.915121	0.369892	0.913099
	H76	H	0.086531	0.894164	0.621646
	H77	H	0.085981	0.077769	0.392994
	H78	H	0.899876	0.075123	0.623931
	H79	H	0.901412	0.891203	0.389556
	H80	H	0.614247	0.075189	0.916463
	H81	H	0.383850	0.075142	0.101006
	H82	H	0.612877	0.898409	0.097382
	H83	H	0.384434	0.891930	0.920962
	H84	H	0.613981	0.897360	0.098890
	H85	H	0.382493	0.077111	0.100115
	H86	H	0.614899	0.073689	0.913986
	H87	H	0.384355	0.900356	0.912244
	H88	H	0.909255	0.072281	0.620138
	H89	H	0.093803	0.080990	0.389938
	H90	H	0.094011	0.897015	0.624017
	H91	H	0.905896	0.900869	0.393348
	H92	H	0.089823	0.598945	0.928376
	H93	H	0.093229	0.367855	0.098634
	H94	H	0.909149	0.603790	0.102392
	H95	H	0.910904	0.371722	0.925136
	H96	H	0.406823	0.105712	0.604516
	H97	H	0.581921	0.871818	0.594504
	H98	H	0.592800	0.102836	0.421808
	H99	H	0.403703	0.867573	0.413841
	H100	H	0.589558	0.393024	0.122490
	H101	H	0.598721	0.580057	0.889440
	H102	H	0.405356	0.572282	0.121610
	H103	H	0.402951	0.393411	0.891128
	H104	H	0.113279	0.578110	0.419655
	H105	H	0.881854	0.585939	0.594581
	H106	H	0.112879	0.398659	0.599319
	H107	H	0.882923	0.397223	0.414669
	H108	H	0.912193	0.602322	0.099923
	H109	H	0.083915	0.369255	0.101853
	H110	H	0.100969	0.607790	0.913141
	H111	H	0.902540	0.365622	0.915587
	H112	H	0.088968	0.902076	0.621401
	H113	H	0.093172	0.072622	0.393872
	H114	H	0.906981	0.081805	0.623115
	H115	H	0.912360	0.891148	0.392500
	H116	H	0.614771	0.076424	0.913986
	H117	H	0.383323	0.075762	0.098222
	H118	H	0.613744	0.896961	0.097299
	H119	H	0.380344	0.889235	0.910253
	C120	C	0.376204	-0.004001	0.629290
	C121	C	0.617826	0.977194	0.627101
	C122	C	0.619239	-0.004789	0.385501
	C123	C	0.377049	0.977082	0.386274
	C124	C	0.621082	0.365085	0.015437
	C125	C	0.622631	0.609118	0.998770
	C126	C	0.377596	0.607491	0.015861
	C127	C	0.376385	0.363614	0.999128
	C128	C	0.006149	0.606980	0.387799
	C129	C	0.988345	0.608876	0.632304
	C130	C	0.006507	0.364878	0.630157
	C131	C	0.989690	0.364423	0.386349
	C132	C	0.877588	0.495654	0.130009
	C133	C	0.119083	0.477298	0.128931
	C134	C	0.120250	0.495003	0.886517
	C135	C	0.879111	0.476817	0.888025
	C136	C	0.120124	0.865734	0.515919
	C137	C	0.119837	0.107766	0.499283
	C138	C	0.875667	0.107835	0.516025
	C139	C	0.875599	0.864890	0.498398
	C140	C	0.507557	0.106024	0.885555
	C141	C	0.490051	0.107237	0.129530
	C142	C	0.506743	0.865781	0.128299
	C143	C	0.490518	0.863540	0.884525
	C144	C	0.375451	0.872959	0.685325
	C145	C	0.619483	0.099307	0.686365
	C146	C	0.619802	0.872814	0.326753
	C147	C	0.376348	0.099835	0.329582
	C148	C	0.680323	0.363989	0.894926
	C149	C	0.679041	0.610563	0.120364
	C150	C	0.319567	0.607676	0.894847
	C151	C	0.316911	0.361972	0.120055
	C152	C	0.884777	0.665160	0.387861
	C153	C	0.110404	0.666319	0.630023
	C154	C	0.884761	0.306823	0.630011
	C155	C	0.111564	0.307257	0.386548
	C156	C	0.885707	0.362694	0.689613
	C157	C	0.110709	0.608463	0.687398
	C158	C	0.885704	0.608436	0.329142
	C159	C	0.110327	0.361326	0.326381
	C160	C	0.378583	0.664582	0.894207
	C161	C	0.620310	0.667140	0.120386
	C162	C	0.621638	0.306358	0.894160
	C163	C	0.376560	0.306061	0.120775
	C164	C	0.676973	0.872573	0.383888
	C165	C	0.676291	0.099826	0.628724
	C166	C	0.319307	0.873072	0.627649
	C167	C	0.320866	0.100309	0.386830
	C168	C	0.875583	0.372524	0.186465
	C169	C	0.120553	0.599591	0.187832
	C170	C	0.120018	0.372167	0.828715
	C171	C	0.879591	0.600177	0.832267
	C172	C	0.177828	0.864201	0.394325
	C173	C	0.176228	0.107745	0.620892
	C174	C	0.819170	0.107934	0.394278
	C175	C	0.816436	0.864598	0.619486
	C176	C	0.385902	0.163833	0.886869
	C177	C	0.612659	0.163730	0.126826
	C178	C	0.384705	0.808635	0.126482
	C179	C	0.613325	0.808453	0.886155
	C180	C	0.385117	0.864449	0.186287
	C181	C	0.611135	0.108891	0.187087
	C182	C	0.385750	0.106320	0.829739
	C183	C	0.611768	0.863780	0.826411
	C184	C	0.877853	0.165100	0.394303
	C185	C	0.117113	0.164017	0.621586
	C186	C	0.118819	0.806891	0.394783
	C187	C	0.876734	0.810273	0.621432
	C188	C	0.177092	0.371972	0.885847
	C189	C	0.176239	0.600535	0.128414
	C190	C	0.818832	0.373063	0.129451
	C191	C	0.823444	0.600621	0.889312
	C192	C	0.399649	0.081991	0.606949
	C193	C	0.593328	0.891739	0.602499
	C194	C	0.595230	0.080515	0.410100
	C195	C	0.400045	0.891327	0.409319
	C196	C	0.596585	0.389464	0.099951
	C197	C	0.600192	0.584656	0.913937
	C198	C	0.400880	0.583938	0.100420
	C199	C	0.400981	0.388271	0.915125
	C200	C	0.090451	0.582515	0.411960
	C201	C	0.903527	0.585527	0.610158
	C202	C	0.091380	0.388858	0.606507
	C203	C	0.905173	0.388843	0.410550
	C204	C	0.902455	0.581022	0.107110
	C205	C	0.094969	0.391796	0.104641
	C206	C	0.097271	0.580927	0.910125
	C207	C	0.902530	0.391209	0.911254
	C208	C	0.096672	0.890597	0.600388
	C209	C	0.097586	0.084070	0.414308
	C210	C	0.898636	0.083585	0.600381
	C211	C	0.899712	0.887577	0.413806
	C212	C	0.592643	0.082178	0.908115
	C213	C	0.405183	0.083225	0.106462
	C214	C	0.591669	0.890346	0.104711
	C215	C	0.405056	0.886707	0.907717
	Zn216	Zn	0.497702	-0.014210	0.755933
	Zn217	Zn	0.497623	-0.013509	0.258899
	Zn218	Zn	0.751303	0.487224	0.008224
	Zn219	Zn	0.247864	0.485579	0.007847
	Zn220	Zn	-0.003047	0.736814	0.509314
	Zn221	Zn	-0.001585	0.236636	0.508022
	Zn222	Zn	-0.001896	0.485859	0.759836
	Zn223	Zn	-0.001803	0.485020	0.258045
	Zn224	Zn	0.499579	0.736172	0.006855
	Zn225	Zn	0.499315	0.235003	0.006945
	Zn226	Zn	0.746407	-0.014101	0.506784
	Zn227	Zn	0.250101	-0.012773	0.506700
	N228	N	0.410268	0.950573	0.686423
	N229	N	0.584046	0.021990	0.685536
	N230	N	0.584859	0.950215	0.327548
	N231	N	0.410579	0.022158	0.328861
	N232	N	0.680065	0.399804	0.971419
	N233	N	0.680407	0.574763	0.043806
	N234	N	0.318452	0.573147	0.971546
	N235	N	0.316735	0.397027	0.043526
	N236	N	0.960734	0.664320	0.423934
	N237	N	0.033308	0.667003	0.596723
	N238	N	0.960869	0.308170	0.593649
	N239	N	0.035541	0.308884	0.423328
	N240	N	0.962310	0.398155	0.689481
	N241	N	0.033939	0.573509	0.689042
	N242	N	0.962225	0.572842	0.329014
	N243	N	0.033493	0.396155	0.326154
	N244	N	0.414165	0.664285	0.970207
	N245	N	0.586139	0.666440	0.043690
	N246	N	0.585211	0.307235	0.970069
	N247	N	0.412964	0.306773	0.044683
	N248	N	0.676913	0.949725	0.419495
	N249	N	0.675379	0.022809	0.592625
	N250	N	0.319553	0.950586	0.593571
	N251	N	0.320998	0.022948	0.421354
	N252	N	0.911438	0.449626	0.187072
	N253	N	0.085904	0.521912	0.188312
	N254	N	0.085546	0.449813	0.829032
	N255	N	0.913421	0.522278	0.831287
	N256	N	0.179005	0.899728	0.470858
	N257	N	0.178195	0.073580	0.543744
	N258	N	0.817540	0.073206	0.470913
	N259	N	0.815608	0.897574	0.542241
	N260	N	0.462778	0.163826	0.921043
	N261	N	0.536248	0.162918	0.091776
	N262	N	0.461359	0.809552	0.091091
	N263	N	0.536595	0.808029	0.921257
	N264	N	0.462000	0.899408	0.187441
	N265	N	0.533842	0.074435	0.188802
	N266	N	0.462472	0.071252	0.828777
	N267	N	0.534169	0.897047	0.825151
	N268	N	0.912384	0.165050	0.470926
	N269	N	0.083073	0.164331	0.544773
	N270	N	0.083632	0.807779	0.471334
	N271	N	0.912821	0.810090	0.545068
	N272	N	0.177536	0.449406	0.920942
	N273	N	0.175497	0.523344	0.092663
	N274	N	0.819772	0.450652	0.095319
	N275	N	0.822927	0.522863	0.923289
	O276	O	0.052789	0.084804	0.072121
	H277	H	0.057363	0.091281	0.052423
	H278	H	0.044094	0.090297	0.078841
	O279	O	0.391087	0.539760	0.428830
	H280	H	0.387932	0.550400	0.433436
	H281	H	0.378936	0.538111	0.423845
	O282	O	1.106093	0.016330	0.049450
	H283	H	1.110165	0.015877	0.043303
	H284	H	1.098287	0.008261	0.059528
	O285	O	-0.021609	0.912036	-0.084582
	H286	H	-0.007403	0.921196	-0.087339
	H287	H	-0.025805	0.903920	-0.092698
	O288	O	0.464193	0.320219	0.510470
	H289	H	0.472660	0.338629	0.493536
	H290	H	0.460904	0.303439	0.493870
	O291	O	0.460974	0.473110	0.694098
	H292	H	0.444409	0.450627	0.700458
	H293	H	0.454528	0.477603	0.713730
	O294	O	1.150510	0.990866	1.118161
	H295	H	1.165370	0.987959	1.120863
	H296	H	1.137944	0.985349	1.119893
	O297	O	0.154073	-0.040679	-0.019558
	H298	H	0.141062	-0.051379	-0.006591
	H299	H	0.145999	-0.046320	-0.015024
	O300	O	0.545059	0.295138	0.388924
	H301	H	0.531387	0.286982	0.373341
	H302	H	0.546549	0.303293	0.402907
	O303	O	-0.099725	1.095672	0.913480
	H304	H	-0.087943	1.096718	0.918008
	H305	H	-0.098508	1.102406	0.905704
	O306	O	0.475482	0.373469	0.337574
	H307	H	0.458923	0.376028	0.333006
	H308	H	0.482845	0.392027	0.345303
	O309	O	1.077098	-0.032122	0.052173
	H310	H	1.077717	-0.024529	0.063222
	H311	H	1.070540	-0.024173	0.045475
	O312	O	0.033549	-0.066993	0.924238
	H313	H	0.026923	-0.067551	0.924204
	H314	H	0.039219	-0.077354	0.920088
	O315	O	-0.072618	1.083120	0.008909
	H316	H	-0.068712	1.076910	0.019521
	H317	H	-0.074071	1.079989	0.006648
	O318	O	0.328283	0.431060	0.563374
	H319	H	0.340665	0.439596	0.561904
	H320	H	0.324329	0.449864	0.565593
	O321	O	1.038028	0.014085	-0.005946
	H322	H	1.030359	0.014574	-0.013732
	H323	H	1.037375	0.017704	-0.016691
	O324	O	0.398048	0.616400	0.447997
	H325	H	0.409920	0.608050	0.441614
	H326	H	0.384825	0.600413	0.456773
	O327	O	-0.393812	1.532012	0.640726
	H328	H	-0.391073	1.512167	0.649231
	H329	H	-0.415930	1.540143	0.645832
	O330	O	0.646932	0.425215	0.323274
	H331	H	0.646663	0.414091	0.319945
	H332	H	0.656173	0.416971	0.302900
	O333	O	0.013966	0.916581	1.005091
	H334	H	0.009358	0.928340	1.006767
	H335	H	0.018266	0.915889	0.997846
	O336	O	0.963997	1.115440	1.079128
	H337	H	0.968546	1.113831	1.086142
	H338	H	0.971449	1.102800	1.087955
	O339	O	1.137040	0.915211	-0.160161
	H340	H	1.150257	0.911969	-0.169875
	H341	H	1.136430	0.915864	-0.152054
	O342	O	0.860448	-0.115536	-0.011375
	H343	H	0.861765	-0.121265	-0.020623
	H344	H	0.872598	-0.107816	-0.003626
	O345	O	0.331764	0.366797	0.691500
	H346	H	0.328490	0.365987	0.687797
	H347	H	0.336124	0.356634	0.675565
	O348	O	1.518061	1.526307	0.730626
	H349	H	1.544860	1.524327	0.742109
	H350	H	1.510789	1.514027	0.715903
	O351	O	0.352379	0.619307	-0.327086
	H352	H	0.352889	0.593299	-0.316342
	H353	H	0.354300	0.616616	-0.327755
	O354	O	0.601847	0.590586	0.487607
	H355	H	0.613999	0.601774	0.497907
	H356	H	0.592023	0.586250	0.471199
	O357	O	0.640202	0.364114	0.434708
	H358	H	0.635822	0.367434	0.448204
	H359	H	0.636270	0.363276	0.436625
	O360	O	-0.012499	0.162327	0.037055
	H361	H	-0.004431	0.167571	0.047030
	H362	H	-0.000452	0.152223	0.023835
	O363	O	0.370256	0.561569	0.340464
	H364	H	0.380115	0.582727	0.345401
	H365	H	0.345551	0.567062	0.332842
	O366	O	0.483517	0.334198	0.483197
	H367	H	0.474941	0.334388	0.481808
	H368	H	0.489575	0.343372	0.487643
	O369	O	0.473479	0.555003	0.413074
	H370	H	0.476502	0.560889	0.399205
	H371	H	0.487929	0.551457	0.418122
	O372	O	0.661902	0.619241	0.563125
	H373	H	0.676206	0.621151	0.567046
	H374	H	0.660173	0.614576	0.584746
	O375	O	0.562655	0.623634	0.485926
	H376	H	0.577840	0.628371	0.499074
	H377	H	0.566087	0.625000	0.482652
	O378	O	0.338481	0.645936	0.428687
	H379	H	0.326556	0.650313	0.441415
	H380	H	0.360296	0.648359	0.429577
	O381	O	0.492437	0.568218	0.566086
	H382	H	0.490789	0.557299	0.564758
	H383	H	0.512944	0.577596	0.549450
	O384	O	-0.090514	0.998433	0.007629
	H385	H	-0.093384	0.999227	0.011022
	H386	H	-0.098350	1.005209	-0.003662
	O387	O	0.443193	0.351134	1.513551
	H388	H	0.434278	0.349667	1.525868
	H389	H	0.455002	0.346431	1.507624
	O390	O	-0.112559	1.048536	0.047483
	H391	H	-0.102382	1.054923	0.054750
	H392	H	-0.110359	1.050366	0.059114
	O393	O	1.046018	0.939575	0.081371
	H394	H	1.038638	0.936017	0.089996
	H395	H	1.044294	0.941195	0.077306
	O396	O	0.364024	0.574454	0.506264
	H397	H	0.374341	0.569126	0.531294
	H398	H	0.358980	0.567552	0.514126
	O399	O	0.668661	1.402820	1.529015
	H400	H	0.660777	1.402657	1.524593
	H401	H	0.668336	1.403187	1.511193
	O402	O	0.977780	0.850268	1.095065
	H403	H	0.970389	0.844818	1.089406
	H404	H	0.982879	0.851360	1.086807
	O405	O	0.669973	0.566441	0.534347
	H406	H	0.667993	0.555728	0.535369
	H407	H	0.677291	0.577725	0.518729
