data_Molecule from HDF5

_cell_length_a		16.430250
_cell_length_b		16.206851
_cell_length_c		16.003637
_cell_angle_alpha	90.470553
_cell_angle_beta	89.531753
_cell_angle_gamma	90.123821
_symmetry_space_group_name_H-M	'P 1'
_symmetry_Int_Tables_number		1

loop_
	_symmetry_equiv_pos_as_xyz
	x,y,z

loop_
	_atom_site_label
	_atom_site_type_symbol
	_atom_site_fract_x
	_atom_site_fract_y
	_atom_site_fract_z
	H0	H	0.403059	0.832880	0.706950
	H1	H	0.597195	0.162284	0.708239
	H2	H	0.600937	0.833942	0.277018
	H3	H	0.408688	0.164191	0.288205
	H4	H	0.719421	0.393585	0.831551
	H5	H	0.713974	0.599068	0.160906
	H6	H	0.284801	0.600729	0.832225
	H7	H	0.280525	0.393674	0.158730
	H8	H	0.839680	0.715585	0.394658
	H9	H	0.161179	0.717259	0.599861
	H10	H	0.840432	0.278405	0.598194
	H11	H	0.162730	0.279504	0.391400
	H12	H	0.838159	0.399334	0.710304
	H13	H	0.162871	0.598136	0.710640
	H14	H	0.835040	0.591224	0.285776
	H15	H	0.161365	0.396506	0.274905
	H16	H	0.406058	0.706672	0.828805
	H17	H	0.600514	0.714056	0.159941
	H18	H	0.599574	0.284418	0.828697
	H19	H	0.400962	0.285422	0.161512
	H20	H	0.721534	0.834750	0.387909
	H21	H	0.720059	0.159121	0.600881
	H22	H	0.281273	0.836488	0.600218
	H23	H	0.284589	0.159832	0.392863
	H24	H	0.903190	0.331518	0.203576
	H25	H	0.095404	0.661311	0.210382
	H26	H	0.098262	0.333156	0.779082
	H27	H	0.905381	0.663090	0.784918
	H28	H	0.220815	0.892642	0.331207
	H29	H	0.217806	0.102061	0.660089
	H30	H	0.786781	0.098741	0.331598
	H31	H	0.782096	0.893760	0.659274
	H32	H	0.340357	0.214951	0.893960
	H33	H	0.663180	0.215879	0.094009
	H34	H	0.339282	0.779467	0.097966
	H35	H	0.662561	0.779067	0.890870
	H36	H	0.337899	0.901671	0.211195
	H37	H	0.663947	0.098183	0.208195
	H38	H	0.337711	0.093949	0.783397
	H39	H	0.663865	0.898379	0.776527
	H40	H	0.906394	0.206139	0.329050
	H41	H	0.099942	0.212403	0.661154
	H42	H	0.102421	0.780732	0.329935
	H43	H	0.901364	0.784648	0.662219
	H44	H	0.220388	0.335459	0.888377
	H45	H	0.219106	0.659669	0.103042
	H46	H	0.783309	0.334827	0.096810
	H47	H	0.783304	0.658659	0.893461
	H48	H	0.410046	0.115651	0.591616
	H49	H	0.588431	0.881061	0.585750
	H50	H	0.593128	0.110853	0.411029
	H51	H	0.402015	0.879909	0.411288
	H52	H	0.587622	0.406878	0.112853
	H53	H	0.595796	0.581431	0.879065
	H54	H	0.403966	0.587374	0.115850
	H55	H	0.404171	0.410808	0.876814
	H56	H	0.113869	0.583356	0.403353
	H57	H	0.884046	0.600985	0.583997
	H58	H	0.112757	0.415952	0.582804
	H59	H	0.883770	0.395903	0.403831
	H60	H	0.121332	0.400699	0.596514
	H61	H	0.889800	0.582870	0.584604
	H62	H	0.115406	0.589433	0.400167
	H63	H	0.885973	0.401702	0.404351
	H64	H	0.411916	0.584378	0.112220
	H65	H	0.591901	0.590445	0.876957
	H66	H	0.594879	0.404659	0.115934
	H67	H	0.416121	0.408833	0.880088
	H68	H	0.606279	0.116690	0.405253
	H69	H	0.594871	0.881810	0.576456
	H70	H	0.410828	0.113417	0.584326
	H71	H	0.408777	0.878108	0.394604
	H72	H	0.905735	0.616168	0.090979
	H73	H	0.089443	0.382983	0.080853
	H74	H	0.098811	0.613071	0.912629
	H75	H	0.905395	0.376297	0.893091
	H76	H	0.093994	0.902318	0.616235
	H77	H	0.091914	0.085416	0.378373
	H78	H	0.910670	0.094201	0.615253
	H79	H	0.917564	0.904074	0.379376
	H80	H	0.618057	0.098710	0.904979
	H81	H	0.382620	0.090391	0.101047
	H82	H	0.613933	0.905887	0.079719
	H83	H	0.388877	0.904567	0.909206
	H84	H	0.614982	0.909424	0.085658
	H85	H	0.383359	0.103531	0.086506
	H86	H	0.613849	0.085492	0.906405
	H87	H	0.385256	0.906689	0.896241
	H88	H	0.903036	0.085660	0.615767
	H89	H	0.097228	0.091335	0.374824
	H90	H	0.098230	0.914456	0.612982
	H91	H	0.908116	0.902234	0.375546
	H92	H	0.098585	0.616671	0.899871
	H93	H	0.096563	0.379951	0.079895
	H94	H	0.906289	0.614618	0.088718
	H95	H	0.919217	0.383951	0.905725
	H96	H	0.404218	0.115763	0.586529
	H97	H	0.598905	0.877654	0.586368
	H98	H	0.594727	0.116063	0.396849
	H99	H	0.419233	0.884464	0.407015
	H100	H	0.593963	0.412511	0.113223
	H101	H	0.601657	0.587977	0.873699
	H102	H	0.411145	0.592921	0.114711
	H103	H	0.409534	0.399056	0.874774
	H104	H	0.113542	0.589240	0.407376
	H105	H	0.881623	0.591179	0.599725
	H106	H	0.115779	0.395870	0.576053
	H107	H	0.884497	0.399967	0.398302
	H108	H	0.904453	0.616146	0.089671
	H109	H	0.093379	0.379482	0.086282
	H110	H	0.087903	0.612548	0.905520
	H111	H	0.900476	0.380505	0.912674
	H112	H	0.086013	0.910073	0.609010
	H113	H	0.100230	0.082887	0.377166
	H114	H	0.912891	0.083363	0.612359
	H115	H	0.910574	0.911371	0.379147
	H116	H	0.618716	0.090375	0.893867
	H117	H	0.389582	0.084937	0.083395
	H118	H	0.616177	0.902988	0.085466
	H119	H	0.383617	0.895448	0.902315
	C120	C	0.378654	0.006826	0.617092
	C121	C	0.623111	0.988284	0.615195
	C122	C	0.626451	0.006756	0.372069
	C123	C	0.381665	0.989138	0.375817
	C124	C	0.622145	0.376928	0.004492
	C125	C	0.623595	0.618049	0.985996
	C126	C	0.380718	0.617166	0.004829
	C127	C	0.379420	0.376305	0.986133
	C128	C	0.007628	0.617432	0.374352
	C129	C	0.992020	0.621059	0.618993
	C130	C	0.009588	0.375266	0.616069
	C131	C	0.991634	0.371524	0.371398
	C132	C	0.877635	0.506610	0.117402
	C133	C	0.121734	0.488629	0.115389
	C134	C	0.124154	0.506264	0.873425
	C135	C	0.880108	0.488696	0.874968
	C136	C	0.123428	0.876675	0.503974
	C137	C	0.124265	0.117860	0.486279
	C138	C	0.880934	0.116793	0.504799
	C139	C	0.880759	0.876023	0.487104
	C140	C	0.509437	0.119579	0.873376
	C141	C	0.492635	0.122127	0.118338
	C142	C	0.508539	0.876460	0.115692
	C143	C	0.492857	0.873365	0.871583
	C144	C	0.381544	0.882764	0.671081
	C145	C	0.619038	0.112436	0.671296
	C146	C	0.622869	0.883266	0.314365
	C147	C	0.386522	0.114081	0.323359
	C148	C	0.679935	0.375494	0.880466
	C149	C	0.677403	0.618818	0.110941
	C150	C	0.323943	0.617849	0.880868
	C151	C	0.321028	0.376264	0.110069
	C152	C	0.887050	0.675295	0.375835
	C153	C	0.113200	0.678063	0.618283
	C154	C	0.888501	0.317916	0.616993
	C155	C	0.113922	0.317212	0.371574
	C156	C	0.887399	0.377864	0.673195
	C157	C	0.114132	0.618638	0.673571
	C158	C	0.884827	0.613591	0.321132
	C159	C	0.113374	0.375643	0.313846
	C160	C	0.384005	0.671167	0.879191
	C161	C	0.620485	0.675695	0.110458
	C162	C	0.620248	0.321345	0.879169
	C163	C	0.380628	0.321874	0.111135
	C164	C	0.682670	0.883689	0.369974
	C165	C	0.680075	0.110863	0.617749
	C166	C	0.320921	0.884570	0.617903
	C167	C	0.324897	0.111972	0.375390
	C168	C	0.881757	0.381547	0.168817
	C169	C	0.117804	0.611886	0.172950
	C170	C	0.120819	0.382941	0.815713
	C171	C	0.883944	0.612966	0.821168
	C172	C	0.181375	0.874737	0.380223
	C173	C	0.179320	0.119551	0.610934
	C174	C	0.825753	0.116305	0.380554
	C175	C	0.821901	0.875589	0.610633
	C176	C	0.388084	0.175655	0.875096
	C177	C	0.614659	0.177865	0.115017
	C178	C	0.387295	0.818963	0.116744
	C179	C	0.614331	0.817351	0.871322
	C180	C	0.386672	0.879685	0.173287
	C181	C	0.615147	0.119092	0.171539
	C182	C	0.386886	0.115088	0.819994
	C183	C	0.614909	0.876877	0.814562
	C184	C	0.885094	0.170108	0.379419
	C185	C	0.120849	0.174859	0.611312
	C186	C	0.122449	0.818834	0.379672
	C187	C	0.881523	0.821669	0.612219
	C188	C	0.181104	0.383926	0.870656
	C189	C	0.179136	0.611161	0.119271
	C190	C	0.821822	0.383416	0.115817
	C191	C	0.823330	0.610994	0.875293
	C192	C	0.401575	0.092644	0.594299
	C193	C	0.600738	0.902407	0.590256
	C194	C	0.604664	0.092473	0.396998
	C195	C	0.403485	0.903266	0.397990
	C196	C	0.598940	0.400916	0.091446
	C197	C	0.602626	0.593670	0.899080
	C198	C	0.402646	0.594829	0.091736
	C199	C	0.402967	0.399555	0.899368
	C200	C	0.092146	0.594251	0.396894
	C201	C	0.907153	0.598418	0.596186
	C202	C	0.094512	0.397653	0.592209
	C203	C	0.906868	0.392824	0.395261
	C204	C	0.899087	0.593212	0.096032
	C205	C	0.099636	0.403062	0.089725
	C206	C	0.101813	0.591773	0.898695
	C207	C	0.901948	0.402498	0.897356
	C208	C	0.099691	0.901693	0.590506
	C209	C	0.102723	0.093668	0.399366
	C210	C	0.902442	0.094359	0.591886
	C211	C	0.904899	0.899025	0.400442
	C212	C	0.594860	0.097865	0.895239
	C213	C	0.407362	0.099557	0.096639
	C214	C	0.593104	0.899368	0.090993
	C215	C	0.407895	0.895550	0.895569
	Zn216	Zn	0.500802	-0.002816	0.743628
	Zn217	Zn	0.501388	-0.001092	0.246718
	Zn218	Zn	0.751159	0.496861	-0.003641
	Zn219	Zn	0.252336	0.497906	-0.004582
	Zn220	Zn	0.001590	0.749124	0.496322
	Zn221	Zn	0.001862	0.243720	0.495249
	Zn222	Zn	0.001106	0.497940	0.745933
	Zn223	Zn	-0.001335	0.496187	0.243323
	Zn224	Zn	0.501257	0.743942	-0.005560
	Zn225	Zn	0.501145	0.249694	-0.004933
	Zn226	Zn	0.753239	-0.003395	0.495509
	Zn227	Zn	0.251936	-0.001945	0.495248
	N228	N	0.416851	0.959779	0.670735
	N229	N	0.584254	0.035128	0.669931
	N230	N	0.588731	0.960716	0.315364
	N231	N	0.421201	0.036818	0.323473
	N232	N	0.681261	0.409485	0.959413
	N233	N	0.679667	0.583701	0.032440
	N234	N	0.321603	0.585320	0.959939
	N235	N	0.320020	0.409305	0.031390
	N236	N	0.964427	0.678068	0.407903
	N237	N	0.036210	0.679844	0.585137
	N238	N	0.965440	0.316096	0.582178
	N239	N	0.037343	0.314387	0.406462
	N240	N	0.963730	0.412898	0.672693
	N241	N	0.037767	0.583844	0.674045
	N242	N	0.960973	0.578304	0.320242
	N243	N	0.036340	0.408700	0.313545
	N244	N	0.418602	0.670899	0.957232
	N245	N	0.587688	0.675268	0.031733
	N246	N	0.584990	0.322151	0.957369
	N247	N	0.416418	0.321865	0.033035
	N248	N	0.684963	0.961487	0.405051
	N249	N	0.682521	0.032582	0.583635
	N250	N	0.318901	0.962806	0.585154
	N251	N	0.321754	0.033420	0.407406
	N252	N	0.915571	0.459226	0.170205
	N253	N	0.082887	0.534728	0.170746
	N254	N	0.086188	0.459958	0.817281
	N255	N	0.918404	0.535774	0.820866
	N256	N	0.181887	0.910131	0.458595
	N257	N	0.181585	0.084900	0.532206
	N258	N	0.823036	0.083981	0.459752
	N259	N	0.821451	0.908794	0.531851
	N260	N	0.465490	0.178603	0.907560
	N261	N	0.537586	0.179689	0.082454
	N262	N	0.464071	0.816941	0.081697
	N263	N	0.537450	0.815058	0.905977
	N264	N	0.463123	0.914502	0.172823
	N265	N	0.538137	0.085242	0.174029
	N266	N	0.463456	0.081148	0.818745
	N267	N	0.538269	0.910823	0.814572
	N268	N	0.918881	0.170325	0.457677
	N269	N	0.087436	0.174044	0.532689
	N270	N	0.086946	0.820263	0.457784
	N271	N	0.917347	0.821710	0.534206
	N272	N	0.183675	0.461838	0.905498
	N273	N	0.181764	0.533410	0.084231
	N274	N	0.819074	0.462296	0.084542
	N275	N	0.820600	0.532633	0.907784
	O276	O	0.959496	-0.008024	1.056111
	H277	H	0.958227	-0.016767	1.059500
	H278	H	0.952659	-0.003887	1.066474
	O279	O	0.482255	0.524408	0.523097
	H280	H	0.481316	0.534179	0.528577
	H281	H	0.485066	0.528615	0.515169
	O282	O	0.491692	0.554918	0.448303
	H283	H	0.479752	0.557491	0.445829
	H284	H	0.507379	0.547262	0.451580
	O285	O	0.519119	0.589136	0.382953
	H286	H	0.515711	0.585615	0.385945
	H287	H	0.511504	0.614426	0.383070
	O288	O	0.490078	0.566244	0.344826
	H289	H	0.495841	0.561267	0.353444
	H290	H	0.490935	0.572822	0.337319
	O291	O	-0.104129	-0.113510	0.897895
	H292	H	-0.104095	-0.105165	0.900134
	H293	H	-0.113928	-0.123318	0.902279
	O294	O	1.012905	0.993369	-0.135585
	H295	H	1.013222	0.995520	-0.142717
	H296	H	1.010188	1.002136	-0.133140
	O297	O	1.039108	0.985863	-0.033943
	H298	H	1.049485	0.985825	-0.032876
	H299	H	1.035015	0.989153	-0.044187
	O300	O	0.436632	0.340372	0.524032
	H301	H	0.444366	0.337531	0.522960
	H302	H	0.422815	0.354923	0.529543
	O303	O	0.511143	0.456937	0.566264
	H304	H	0.511610	0.452746	0.581477
	H305	H	0.520670	0.464349	0.557158
	O306	O	0.510108	0.403067	0.449218
	H307	H	0.509493	0.404069	0.432985
	H308	H	0.519458	0.396482	0.445430
	O309	O	0.545519	0.415525	0.552832
	H310	H	0.557645	0.415133	0.546709
	H311	H	0.537111	0.416958	0.564607
	O312	O	1.505473	1.397751	1.419555
	H313	H	1.511401	1.397786	1.426168
	H314	H	1.513051	1.391548	1.430198
	O315	O	1.115360	1.022255	0.058331
	H316	H	1.093892	1.029259	0.071381
	H317	H	1.126120	1.006599	0.055413
	O318	O	-0.046478	0.956638	1.102540
	H319	H	-0.040039	0.949482	1.095241
	H320	H	-0.055873	0.950824	1.112885
	O321	O	0.529273	0.565067	0.586875
	H322	H	0.529306	0.557809	0.583753
	H323	H	0.517001	0.564821	0.594044
	O324	O	-0.089096	1.024849	0.866371
	H325	H	-0.085408	1.017558	0.865046
	H326	H	-0.098091	1.043452	0.852300
	O327	O	-0.042011	1.108492	1.134121
	H328	H	-0.053539	1.104868	1.134526
	H329	H	-0.042097	1.093328	1.142765
	O330	O	0.089769	0.051780	0.034836
	H331	H	0.094456	0.055457	0.041103
	H332	H	0.091096	0.055050	0.019948
	O333	O	0.352550	0.424285	0.407506
	H334	H	0.365433	0.418839	0.394087
	H335	H	0.352241	0.404262	0.408202
	O336	O	-0.489855	-0.446022	0.459031
	H337	H	-0.478515	-0.456382	0.465242
	H338	H	-0.499729	-0.444949	0.459751
	O339	O	-0.099098	-0.017884	0.149468
	H340	H	-0.085487	-0.022922	0.155159
	H341	H	-0.101531	-0.023060	0.153360
	O342	O	0.445685	0.544791	0.530525
	H343	H	0.454098	0.542751	0.517918
	H344	H	0.426496	0.553418	0.532638
	O345	O	0.029952	0.965500	0.878314
	H346	H	0.026521	0.971757	0.855612
	H347	H	0.035710	0.961005	0.885660
	O348	O	0.486088	0.550828	0.512810
	H349	H	0.490012	0.553483	0.512167
	H350	H	0.490497	0.555185	0.510166
	O351	O	0.631857	0.492546	-0.512032
	H352	H	0.644584	0.488491	-0.511003
	H353	H	0.638371	0.493689	-0.516491
	O354	O	0.042337	1.032046	0.086629
	H355	H	0.042230	1.021094	0.099138
	H356	H	0.043248	1.022746	0.090070
	O357	O	0.547805	0.512758	0.557658
	H358	H	0.540831	0.516267	0.553078
	H359	H	0.544551	0.516436	0.571581
	O360	O	1.025636	-0.023008	0.913284
	H361	H	1.018010	-0.027472	0.899848
	H362	H	1.036773	-0.016873	0.924778
	O363	O	0.437188	0.549696	0.413363
	H364	H	0.451897	0.552447	0.418534
	H365	H	0.435371	0.540892	0.411304
	O366	O	0.603974	0.566382	0.603426
	H367	H	0.598278	0.573015	0.598809
	H368	H	0.599715	0.547331	0.597947
	O369	O	1.093982	-0.105919	-0.041415
	H370	H	1.105796	-0.100774	-0.052965
	H371	H	1.095623	-0.105199	-0.042094
	O372	O	0.402325	0.538440	0.460197
	H373	H	0.403651	0.535286	0.461850
	H374	H	0.397293	0.535975	0.454449
	O375	O	1.007618	-0.005645	0.948934
	H376	H	1.011497	-0.015533	0.960012
	H377	H	1.006892	-0.010828	0.952713
	O378	O	-0.007624	1.062256	-0.040563
	H379	H	-0.008377	1.068298	-0.047233
	H380	H	-0.019748	1.059706	-0.041073
	O381	O	-0.031907	0.906787	0.999123
	H382	H	-0.022544	0.896492	0.992888
	H383	H	-0.025359	0.907511	0.995430
	O384	O	0.832181	0.957587	0.040091
	H385	H	0.831335	0.953474	0.059683
	H386	H	0.830688	0.961943	0.029162
	O387	O	1.146029	0.003772	1.001904
	H388	H	1.153215	0.017340	0.997204
	H389	H	1.150343	0.010825	1.006146
	O390	O	1.043381	0.999697	-0.001039
	H391	H	1.037345	0.995670	-0.007695
	H392	H	1.035831	1.008143	0.006143
	O393	O	0.497397	0.471733	0.623715
	H394	H	0.490046	0.474160	0.624270
	H395	H	0.480797	0.466612	0.630158
