data_Molecule from HDF5

_cell_length_a		16.160025
_cell_length_b		16.287780
_cell_length_c		16.275279
_cell_angle_alpha	90.055348
_cell_angle_beta	90.151834
_cell_angle_gamma	90.141214
_symmetry_space_group_name_H-M	'P 1'
_symmetry_Int_Tables_number		1

loop_
	_symmetry_equiv_pos_as_xyz
	x,y,z

loop_
	_atom_site_label
	_atom_site_type_symbol
	_atom_site_fract_x
	_atom_site_fract_y
	_atom_site_fract_z
	H0	H	0.397777	0.836063	0.719938
	H1	H	0.597316	0.162877	0.721097
	H2	H	0.595216	0.835630	0.290462
	H3	H	0.399239	0.163104	0.290664
	H4	H	0.709633	0.403025	0.841653
	H5	H	0.711156	0.596020	0.170230
	H6	H	0.283481	0.595038	0.842242
	H7	H	0.284812	0.402357	0.171346
	H8	H	0.831828	0.711516	0.408517
	H9	H	0.161008	0.714004	0.605384
	H10	H	0.832491	0.284295	0.604629
	H11	H	0.161797	0.285477	0.408361
	H12	H	0.831576	0.401619	0.718344
	H13	H	0.162088	0.596389	0.718787
	H14	H	0.832066	0.596528	0.292635
	H15	H	0.162516	0.402056	0.294013
	H16	H	0.398250	0.712331	0.841949
	H17	H	0.597122	0.714828	0.168871
	H18	H	0.593920	0.286357	0.841651
	H19	H	0.398676	0.283954	0.168904
	H20	H	0.707242	0.834203	0.409840
	H21	H	0.710655	0.162883	0.602132
	H22	H	0.284084	0.834967	0.601119
	H23	H	0.283471	0.163415	0.407016
	H24	H	0.898497	0.335276	0.220887
	H25	H	0.097491	0.662654	0.222411
	H26	H	0.096242	0.335774	0.790815
	H27	H	0.898537	0.662403	0.791302
	H28	H	0.208892	0.901466	0.341030
	H29	H	0.212091	0.096915	0.669180
	H30	H	0.784406	0.094268	0.340642
	H31	H	0.783737	0.902313	0.670358
	H32	H	0.332532	0.212315	0.907472
	H33	H	0.662200	0.213467	0.104621
	H34	H	0.331851	0.785174	0.104016
	H35	H	0.661068	0.785655	0.906658
	H36	H	0.331948	0.902412	0.217598
	H37	H	0.662443	0.097667	0.219046
	H38	H	0.332084	0.097884	0.791755
	H39	H	0.661817	0.903166	0.793436
	H40	H	0.897259	0.213636	0.342154
	H41	H	0.097041	0.213289	0.669517
	H42	H	0.095534	0.782826	0.343246
	H43	H	0.898472	0.784993	0.670124
	H44	H	0.208498	0.334179	0.910346
	H45	H	0.210436	0.663386	0.103056
	H46	H	0.783879	0.334663	0.102673
	H47	H	0.784857	0.663190	0.908669
	H48	H	0.405727	0.115999	0.599945
	H49	H	0.581173	0.883615	0.605003
	H50	H	0.594701	0.117672	0.410039
	H51	H	0.402580	0.882356	0.411329
	H52	H	0.594369	0.403556	0.124679
	H53	H	0.583577	0.594513	0.891137
	H54	H	0.412122	0.598876	0.122755
	H55	H	0.403353	0.388155	0.884485
	H56	H	0.116260	0.597020	0.414556
	H57	H	0.880388	0.589133	0.596170
	H58	H	0.112640	0.410411	0.598174
	H59	H	0.881282	0.413245	0.411669
	H60	H	0.116224	0.405128	0.605100
	H61	H	0.878184	0.590187	0.604071
	H62	H	0.112751	0.589772	0.417964
	H63	H	0.876078	0.400573	0.407494
	H64	H	0.395785	0.596752	0.126644
	H65	H	0.594801	0.597489	0.885612
	H66	H	0.590941	0.408620	0.122053
	H67	H	0.386678	0.412763	0.886749
	H68	H	0.587531	0.116254	0.409395
	H69	H	0.590188	0.883992	0.590262
	H70	H	0.405510	0.115111	0.597894
	H71	H	0.402156	0.881947	0.409656
	H72	H	0.900587	0.617388	0.101899
	H73	H	0.100534	0.379249	0.102365
	H74	H	0.083426	0.616225	0.905551
	H75	H	0.910911	0.383240	0.910380
	H76	H	0.092045	0.911995	0.621333
	H77	H	0.097194	0.085258	0.388291
	H78	H	0.907138	0.091008	0.620506
	H79	H	0.897984	0.911373	0.390002
	H80	H	0.613153	0.086354	0.911207
	H81	H	0.383823	0.086827	0.091856
	H82	H	0.614912	0.906705	0.099527
	H83	H	0.378624	0.898580	0.918741
	H84	H	0.614774	0.905598	0.097605
	H85	H	0.377622	0.089953	0.106625
	H86	H	0.616905	0.096338	0.907955
	H87	H	0.381875	0.914023	0.914452
	H88	H	0.903948	0.096770	0.623645
	H89	H	0.078845	0.089749	0.392671
	H90	H	0.084486	0.904011	0.621377
	H91	H	0.911570	0.902612	0.390687
	H92	H	0.088708	0.612974	0.921067
	H93	H	0.083733	0.381287	0.109589
	H94	H	0.907305	0.615941	0.103535
	H95	H	0.900922	0.383772	0.918753
	H96	H	0.404656	0.116576	0.598555
	H97	H	0.597911	0.878253	0.605081
	H98	H	0.590862	0.114732	0.415575
	H99	H	0.404112	0.882200	0.410426
	H100	H	0.588002	0.402843	0.122915
	H101	H	0.592270	0.586063	0.890579
	H102	H	0.404831	0.584607	0.120868
	H103	H	0.416297	0.413234	0.895138
	H104	H	0.115609	0.589661	0.409948
	H105	H	0.877005	0.596677	0.598885
	H106	H	0.115871	0.401820	0.596241
	H107	H	0.880570	0.402516	0.420746
	H108	H	0.904938	0.615074	0.097275
	H109	H	0.086676	0.385735	0.092004
	H110	H	0.099213	0.618907	0.909815
	H111	H	0.899672	0.378967	0.906866
	H112	H	0.094884	0.902018	0.625646
	H113	H	0.091174	0.102849	0.385533
	H114	H	0.900817	0.089985	0.623024
	H115	H	0.897833	0.896518	0.385375
	H116	H	0.614235	0.095406	0.918748
	H117	H	0.377526	0.101204	0.095175
	H118	H	0.613904	0.907413	0.097130
	H119	H	0.375543	0.903412	0.903385
	C120	C	0.375809	0.007744	0.626710
	C121	C	0.618995	0.990465	0.628144
	C122	C	0.618542	0.007606	0.383603
	C123	C	0.374966	0.990945	0.382797
	C124	C	0.618559	0.377567	0.014353
	C125	C	0.619341	0.621295	0.997363
	C126	C	0.375504	0.620638	0.014678
	C127	C	0.374751	0.376929	0.997744
	C128	C	0.005721	0.620174	0.385593
	C129	C	0.987913	0.620300	0.627558
	C130	C	0.005724	0.377715	0.627474
	C131	C	0.988503	0.377565	0.385035
	C132	C	0.876086	0.507515	0.128272
	C133	C	0.118906	0.490576	0.129217
	C134	C	0.118796	0.507418	0.884218
	C135	C	0.876127	0.490519	0.884126
	C136	C	0.118134	0.877668	0.514368
	C137	C	0.118632	0.120841	0.496870
	C138	C	0.875441	0.120419	0.514131
	C139	C	0.874955	0.876651	0.497468
	C140	C	0.505893	0.121000	0.884161
	C141	C	0.488706	0.120778	0.126486
	C142	C	0.505327	0.877854	0.126480
	C143	C	0.487866	0.877928	0.883999
	C144	C	0.377573	0.884698	0.681764
	C145	C	0.617108	0.113929	0.682907
	C146	C	0.615250	0.884288	0.328662
	C147	C	0.378474	0.114182	0.328457
	C148	C	0.672399	0.381352	0.890655
	C149	C	0.674005	0.617681	0.120909
	C150	C	0.320966	0.616303	0.890984
	C151	C	0.321637	0.381061	0.121803
	C152	C	0.881144	0.673920	0.388365
	C153	C	0.112073	0.675791	0.625670
	C154	C	0.881601	0.322368	0.625004
	C155	C	0.112849	0.323731	0.388296
	C156	C	0.880965	0.380931	0.681202
	C157	C	0.112500	0.617387	0.681804
	C158	C	0.881077	0.616848	0.331016
	C159	C	0.112960	0.381192	0.331142
	C160	C	0.378202	0.674438	0.890754
	C161	C	0.617328	0.676490	0.120315
	C162	C	0.615129	0.323461	0.890738
	C163	C	0.378313	0.322442	0.120813
	C164	C	0.671231	0.883484	0.387476
	C165	C	0.673438	0.114116	0.624003
	C166	C	0.321447	0.884083	0.622487
	C167	C	0.320917	0.114364	0.386350
	C168	C	0.878115	0.384130	0.182876
	C169	C	0.117037	0.613986	0.183942
	C170	C	0.115915	0.384271	0.829422
	C171	C	0.878749	0.613701	0.829514
	C172	C	0.171801	0.880579	0.390356
	C173	C	0.174264	0.117785	0.620355
	C174	C	0.821033	0.116023	0.390248
	C175	C	0.820838	0.880631	0.621351
	C176	C	0.381508	0.174953	0.886890
	C177	C	0.612876	0.175754	0.124713
	C178	C	0.381270	0.823091	0.123987
	C179	C	0.612066	0.823726	0.886453
	C180	C	0.381103	0.881445	0.180348
	C181	C	0.612934	0.118143	0.181464
	C182	C	0.381312	0.117954	0.829492
	C183	C	0.612373	0.881946	0.830355
	C184	C	0.877193	0.175157	0.390856
	C185	C	0.117221	0.175635	0.620443
	C186	C	0.115778	0.821496	0.391446
	C187	C	0.877734	0.822357	0.621216
	C188	C	0.171914	0.383669	0.888639
	C189	C	0.173207	0.614344	0.124864
	C190	C	0.821590	0.383670	0.124037
	C191	C	0.822118	0.614121	0.887818
	C192	C	0.398561	0.093826	0.605109
	C193	C	0.596495	0.904322	0.606613
	C194	C	0.597351	0.093875	0.405170
	C195	C	0.396442	0.904510	0.404364
	C196	C	0.597336	0.398708	0.100906
	C197	C	0.596696	0.599282	0.911097
	C198	C	0.397626	0.599591	0.101035
	C199	C	0.395875	0.398325	0.911229
	C200	C	0.092423	0.598663	0.407639
	C201	C	0.901102	0.598693	0.605926
	C202	C	0.092537	0.399313	0.606318
	C203	C	0.901623	0.399210	0.406742
	C204	C	0.897902	0.593586	0.107094
	C205	C	0.096763	0.404564	0.107837
	C206	C	0.096979	0.593941	0.905843
	C207	C	0.897530	0.404172	0.905730
	C208	C	0.096789	0.899613	0.600453
	C209	C	0.095891	0.099026	0.411034
	C210	C	0.897618	0.099025	0.600303
	C211	C	0.896383	0.897380	0.411038
	C212	C	0.592296	0.099295	0.906124
	C213	C	0.402012	0.098969	0.104377
	C214	C	0.592115	0.900042	0.104476
	C215	C	0.401147	0.899054	0.905743
	Zn216	Zn	0.496889	-0.000566	0.756449
	Zn217	Zn	0.497287	-0.000594	0.254682
	Zn218	Zn	0.747473	0.499090	0.005844
	Zn219	Zn	0.246463	0.498806	0.006561
	Zn220	Zn	-0.003363	0.748343	0.506682
	Zn221	Zn	-0.002738	0.249315	0.505931
	Zn222	Zn	-0.003010	0.498817	0.755535
	Zn223	Zn	-0.002571	0.499286	0.257783
	Zn224	Zn	0.496797	0.749468	0.005368
	Zn225	Zn	0.497233	0.248822	0.005523
	Zn226	Zn	0.746923	-0.001731	0.505677
	Zn227	Zn	0.246591	-0.000528	0.504822
	N228	N	0.410754	0.962620	0.684453
	N229	N	0.584072	0.036045	0.685580
	N230	N	0.583119	0.962544	0.326196
	N231	N	0.411113	0.036331	0.326024
	N232	N	0.674801	0.414126	0.968489
	N233	N	0.675348	0.584191	0.043352
	N234	N	0.319091	0.583687	0.968826
	N235	N	0.319284	0.414084	0.044126
	N236	N	0.959597	0.676004	0.421827
	N237	N	0.033812	0.677526	0.592575
	N238	N	0.959931	0.320680	0.591975
	N239	N	0.034536	0.321454	0.421079
	N240	N	0.959313	0.414375	0.683070
	N241	N	0.034339	0.583566	0.683169
	N242	N	0.959408	0.584246	0.329122
	N243	N	0.034496	0.413899	0.329072
	N244	N	0.411616	0.677030	0.968729
	N245	N	0.583916	0.678729	0.042413
	N246	N	0.582205	0.321277	0.968579
	N247	N	0.410511	0.319705	0.042640
	N248	N	0.673397	0.961060	0.420911
	N249	N	0.674704	0.036506	0.590481
	N250	N	0.320218	0.961631	0.589105
	N251	N	0.318795	0.036695	0.419462
	N252	N	0.911259	0.461973	0.185700
	N253	N	0.084052	0.536070	0.186752
	N254	N	0.083803	0.462438	0.826425
	N255	N	0.911580	0.535959	0.827270
	N256	N	0.173411	0.914671	0.467720
	N257	N	0.175531	0.084728	0.542607
	N258	N	0.819803	0.082509	0.467863
	N259	N	0.819033	0.913539	0.543476
	N260	N	0.459748	0.176714	0.920363
	N261	N	0.534644	0.177619	0.091061
	N262	N	0.459515	0.821222	0.090823
	N263	N	0.533683	0.821013	0.919324
	N264	N	0.459443	0.914706	0.182077
	N265	N	0.534853	0.084713	0.182759
	N266	N	0.459490	0.084935	0.827681
	N267	N	0.534279	0.915122	0.828865
	N268	N	0.910274	0.178043	0.468842
	N269	N	0.083150	0.177585	0.542760
	N270	N	0.082992	0.819513	0.469362
	N271	N	0.910919	0.820005	0.543394
	N272	N	0.173511	0.461269	0.922018
	N273	N	0.174207	0.536874	0.091377
	N274	N	0.819742	0.461440	0.090917
	N275	N	0.820249	0.536427	0.921161
	O276	O	0.970865	0.022595	1.044155
	H277	H	0.972322	0.022950	1.050113
	H278	H	0.960256	0.020996	1.039245
	O279	O	1.007422	0.017830	0.065422
	H280	H	1.004489	0.015139	0.067953
	H281	H	1.004372	0.020328	0.056338
	O282	O	0.977113	1.020420	0.060077
	H283	H	0.982811	1.023540	0.066868
	H284	H	0.982484	1.021733	0.063712
	O285	O	0.007283	1.028885	0.082952
	H286	H	0.007480	1.025094	0.080442
	H287	H	0.011279	1.029815	0.090061
