data_Molecule from HDF5

_cell_length_a		16.194461
_cell_length_b		16.246456
_cell_length_c		16.311182
_cell_angle_alpha	89.971785
_cell_angle_beta	90.016449
_cell_angle_gamma	90.139605
_symmetry_space_group_name_H-M	'P 1'
_symmetry_Int_Tables_number		1

loop_
	_symmetry_equiv_pos_as_xyz
	x,y,z

loop_
	_atom_site_label
	_atom_site_type_symbol
	_atom_site_fract_x
	_atom_site_fract_y
	_atom_site_fract_z
	H0	H	0.401463	0.836162	0.714191
	H1	H	0.600521	0.163619	0.715867
	H2	H	0.597835	0.835937	0.286311
	H3	H	0.401753	0.163801	0.286070
	H4	H	0.713650	0.402944	0.836093
	H5	H	0.714126	0.597895	0.163784
	H6	H	0.286949	0.595995	0.835808
	H7	H	0.285649	0.401994	0.163325
	H8	H	0.834741	0.712998	0.402052
	H9	H	0.165253	0.713027	0.596379
	H10	H	0.835495	0.287049	0.596253
	H11	H	0.165197	0.287896	0.402044
	H12	H	0.836089	0.401336	0.713530
	H13	H	0.164348	0.599182	0.714096
	H14	H	0.835698	0.599008	0.284501
	H15	H	0.163799	0.401744	0.284321
	H16	H	0.401173	0.715348	0.836609
	H17	H	0.597725	0.713841	0.164017
	H18	H	0.599388	0.283952	0.837073
	H19	H	0.401690	0.285912	0.163925
	H20	H	0.712272	0.835392	0.403801
	H21	H	0.713556	0.164579	0.597682
	H22	H	0.285900	0.835587	0.597560
	H23	H	0.287281	0.164488	0.403182
	H24	H	0.899801	0.336396	0.214786
	H25	H	0.099796	0.663423	0.214487
	H26	H	0.098594	0.336613	0.784988
	H27	H	0.901699	0.664006	0.785193
	H28	H	0.214253	0.901737	0.336404
	H29	H	0.213709	0.097386	0.663993
	H30	H	0.787194	0.096989	0.336798
	H31	H	0.786644	0.902617	0.664414
	H32	H	0.335048	0.212997	0.902602
	H33	H	0.664815	0.212833	0.097368
	H34	H	0.334581	0.787263	0.097039
	H35	H	0.665079	0.787722	0.903822
	H36	H	0.335452	0.901842	0.214009
	H37	H	0.664288	0.098646	0.214109
	H38	H	0.336644	0.099617	0.784552
	H39	H	0.663585	0.900264	0.784671
	H40	H	0.901342	0.215422	0.337148
	H41	H	0.098110	0.213849	0.664282
	H42	H	0.098455	0.785327	0.336425
	H43	H	0.901868	0.784260	0.663867
	H44	H	0.211457	0.334718	0.903235
	H45	H	0.213803	0.664420	0.096609
	H46	H	0.787048	0.335512	0.096385
	H47	H	0.787162	0.664787	0.903176
	H48	H	0.407138	0.116894	0.593987
	H49	H	0.590512	0.884149	0.590189
	H50	H	0.601779	0.121055	0.402547
	H51	H	0.402992	0.879145	0.400745
	H52	H	0.597845	0.400972	0.120044
	H53	H	0.583306	0.591692	0.886868
	H54	H	0.412347	0.591601	0.113932
	H55	H	0.413937	0.400865	0.883635
	H56	H	0.121058	0.602876	0.403166
	H57	H	0.881703	0.594203	0.593819
	H58	H	0.118926	0.403567	0.592487
	H59	H	0.881634	0.394623	0.414773
	H60	H	0.116547	0.410198	0.591018
	H61	H	0.882910	0.592837	0.590929
	H62	H	0.113843	0.591759	0.417655
	H63	H	0.888126	0.420201	0.412816
	H64	H	0.405485	0.599500	0.118663
	H65	H	0.595726	0.604771	0.879747
	H66	H	0.595424	0.411932	0.115171
	H67	H	0.398615	0.401529	0.879621
	H68	H	0.586214	0.116363	0.400665
	H69	H	0.596969	0.882076	0.592647
	H70	H	0.407855	0.116755	0.592995
	H71	H	0.414551	0.884877	0.405167
	H72	H	0.911663	0.616214	0.094914
	H73	H	0.095224	0.379522	0.100378
	H74	H	0.091122	0.617134	0.905207
	H75	H	0.911049	0.381657	0.895351
	H76	H	0.104911	0.907543	0.619422
	H77	H	0.092349	0.083951	0.387385
	H78	H	0.904474	0.087270	0.615841
	H79	H	0.907151	0.895401	0.380996
	H80	H	0.617888	0.087352	0.902040
	H81	H	0.380012	0.097072	0.095522
	H82	H	0.616214	0.911685	0.092899
	H83	H	0.384709	0.912987	0.908591
	H84	H	0.619410	0.905433	0.100228
	H85	H	0.383214	0.092578	0.089728
	H86	H	0.619445	0.099731	0.907307
	H87	H	0.380096	0.906123	0.901113
	H88	H	0.915216	0.095490	0.615101
	H89	H	0.085135	0.102408	0.383413
	H90	H	0.086743	0.914851	0.611973
	H91	H	0.896489	0.911716	0.383146
	H92	H	0.094326	0.616587	0.908406
	H93	H	0.083841	0.385306	0.091836
	H94	H	0.906671	0.616530	0.088628
	H95	H	0.914376	0.387697	0.914813
	H96	H	0.406294	0.117316	0.593105
	H97	H	0.591245	0.882838	0.597275
	H98	H	0.593466	0.114437	0.414786
	H99	H	0.403336	0.884117	0.413818
	H100	H	0.586869	0.404274	0.115298
	H101	H	0.602075	0.586669	0.883511
	H102	H	0.401423	0.589053	0.117161
	H103	H	0.406320	0.415023	0.885741
	H104	H	0.115824	0.583964	0.400169
	H105	H	0.883165	0.591131	0.593736
	H106	H	0.118651	0.408809	0.597385
	H107	H	0.877631	0.407201	0.391517
	H108	H	0.903803	0.619603	0.096461
	H109	H	0.097494	0.383138	0.085676
	H110	H	0.095734	0.618563	0.904343
	H111	H	0.896058	0.380855	0.908757
	H112	H	0.088467	0.895252	0.618538
	H113	H	0.103988	0.098133	0.379714
	H114	H	0.903477	0.099934	0.620189
	H115	H	0.915876	0.911469	0.387400
	H116	H	0.614498	0.089437	0.914683
	H117	H	0.382520	0.089301	0.096702
	H118	H	0.617952	0.902558	0.090849
	H119	H	0.382173	0.902399	0.910738
	C120	C	0.378389	0.008438	0.621580
	C121	C	0.621531	0.991734	0.621720
	C122	C	0.621476	0.008513	0.378654
	C123	C	0.378603	0.991316	0.378576
	C124	C	0.621577	0.377895	0.008378
	C125	C	0.621742	0.622148	0.991813
	C126	C	0.378011	0.621490	0.008508
	C127	C	0.378082	0.377955	0.991449
	C128	C	0.008076	0.621330	0.378267
	C129	C	0.991642	0.621297	0.620775
	C130	C	0.009185	0.378893	0.621291
	C131	C	0.991507	0.378964	0.378061
	C132	C	0.878499	0.508576	0.121310
	C133	C	0.121193	0.491223	0.120859
	C134	C	0.121576	0.508561	0.877740
	C135	C	0.878775	0.492001	0.878354
	C136	C	0.121480	0.878170	0.508303
	C137	C	0.122126	0.122719	0.491583
	C138	C	0.879081	0.122238	0.508792
	C139	C	0.878129	0.877704	0.492023
	C140	C	0.508617	0.121008	0.879006
	C141	C	0.491228	0.121171	0.121827
	C142	C	0.508483	0.878391	0.121988
	C143	C	0.491402	0.878669	0.878856
	C144	C	0.380869	0.884954	0.676392
	C145	C	0.620344	0.114750	0.677554
	C146	C	0.618404	0.884877	0.324106
	C147	C	0.381061	0.115091	0.323926
	C148	C	0.676383	0.381413	0.885178
	C149	C	0.676207	0.618534	0.115087
	C150	C	0.324042	0.617747	0.884697
	C151	C	0.322898	0.381129	0.114543
	C152	C	0.884164	0.675779	0.381169
	C153	C	0.115923	0.675946	0.617851
	C154	C	0.884689	0.324644	0.617651
	C155	C	0.115801	0.324970	0.381385
	C156	C	0.884905	0.381357	0.675535
	C157	C	0.115480	0.619057	0.675872
	C158	C	0.884597	0.619041	0.322823
	C159	C	0.115268	0.381430	0.322800
	C160	C	0.380502	0.676856	0.885274
	C161	C	0.618533	0.676324	0.115210
	C162	C	0.619540	0.322427	0.885514
	C163	C	0.380716	0.323666	0.114995
	C164	C	0.675398	0.884644	0.382353
	C165	C	0.676467	0.115402	0.618880
	C166	C	0.323865	0.884621	0.618296
	C167	C	0.324399	0.115332	0.382321
	C168	C	0.880214	0.385078	0.176251
	C169	C	0.119579	0.614823	0.176174
	C170	C	0.118866	0.385099	0.823024
	C171	C	0.881014	0.615242	0.823070
	C172	C	0.176210	0.881407	0.385079
	C173	C	0.176130	0.118723	0.615199
	C174	C	0.824136	0.118762	0.385938
	C175	C	0.823956	0.881084	0.615574
	C176	C	0.384441	0.175456	0.881751
	C177	C	0.615378	0.175664	0.118531
	C178	C	0.384003	0.824366	0.118080
	C179	C	0.615506	0.824684	0.882588
	C180	C	0.384494	0.881168	0.176315
	C181	C	0.615354	0.118608	0.176262
	C182	C	0.385093	0.119282	0.823092
	C183	C	0.615144	0.880719	0.823581
	C184	C	0.880957	0.177380	0.385834
	C185	C	0.119163	0.176912	0.615141
	C186	C	0.118982	0.823387	0.385050
	C187	C	0.881204	0.822682	0.615142
	C188	C	0.174936	0.384248	0.881569
	C189	C	0.176337	0.615165	0.117916
	C190	C	0.823989	0.384678	0.117791
	C191	C	0.824230	0.615534	0.881805
	C192	C	0.400687	0.094703	0.599989
	C193	C	0.599398	0.905297	0.599738
	C194	C	0.600055	0.094927	0.399794
	C195	C	0.400629	0.905027	0.400225
	C196	C	0.599830	0.399476	0.094448
	C197	C	0.600095	0.600791	0.905527
	C198	C	0.399962	0.599838	0.094294
	C199	C	0.399923	0.399408	0.905478
	C200	C	0.094718	0.599220	0.400379
	C201	C	0.904878	0.599278	0.599137
	C202	C	0.095643	0.400953	0.599892
	C203	C	0.904871	0.400962	0.399921
	C204	C	0.900888	0.594925	0.099672
	C205	C	0.098747	0.405153	0.099115
	C206	C	0.100172	0.595134	0.899382
	C207	C	0.900822	0.405522	0.899857
	C208	C	0.099754	0.899577	0.594389
	C209	C	0.100303	0.101177	0.405820
	C210	C	0.901119	0.100555	0.594903
	C211	C	0.899991	0.899666	0.406146
	C212	C	0.594933	0.098735	0.901428
	C213	C	0.404367	0.099441	0.100419
	C214	C	0.595447	0.900049	0.100871
	C215	C	0.404686	0.900806	0.900482
	Zn216	Zn	0.500315	0.000059	0.750144
	Zn217	Zn	0.499763	0.000127	0.249853
	Zn218	Zn	0.750148	0.500181	0.000297
	Zn219	Zn	0.249249	0.499316	-0.000835
	Zn220	Zn	0.000043	0.749430	0.499785
	Zn221	Zn	0.000681	0.251441	0.499901
	Zn222	Zn	0.000118	0.500139	0.749223
	Zn223	Zn	-0.000243	0.499927	0.249617
	Zn224	Zn	0.499636	0.750284	0.000411
	Zn225	Zn	0.499488	0.248935	0.000416
	Zn226	Zn	0.750132	-0.000057	0.500748
	Zn227	Zn	0.250004	0.000051	0.499929
	N228	N	0.414318	0.962955	0.678352
	N229	N	0.586955	0.036629	0.679501
	N230	N	0.585741	0.962942	0.321584
	N231	N	0.413801	0.037003	0.321278
	N232	N	0.677567	0.415189	0.962646
	N233	N	0.678161	0.585436	0.037317
	N234	N	0.322483	0.583838	0.962079
	N235	N	0.321308	0.414195	0.036804
	N236	N	0.962016	0.677128	0.415113
	N237	N	0.037936	0.677253	0.584178
	N238	N	0.962922	0.322854	0.584845
	N239	N	0.037841	0.323535	0.414993
	N240	N	0.963264	0.414482	0.677863
	N241	N	0.037129	0.585908	0.677876
	N242	N	0.962725	0.585709	0.321074
	N243	N	0.036924	0.414326	0.320707
	N244	N	0.413280	0.679282	0.963214
	N245	N	0.585437	0.678584	0.037467
	N246	N	0.585969	0.320351	0.963032
	N247	N	0.414360	0.321428	0.037452
	N248	N	0.677498	0.962573	0.415524
	N249	N	0.677333	0.037862	0.584860
	N250	N	0.322016	0.962435	0.585113
	N251	N	0.323000	0.037430	0.415711
	N252	N	0.913331	0.463256	0.178689
	N253	N	0.085979	0.536864	0.178392
	N254	N	0.086335	0.463365	0.820608
	N255	N	0.914413	0.537397	0.821099
	N256	N	0.178017	0.914582	0.462777
	N257	N	0.178137	0.085530	0.537492
	N258	N	0.823023	0.084829	0.463348
	N259	N	0.822193	0.914761	0.538119
	N260	N	0.462300	0.176785	0.915749
	N261	N	0.537174	0.177377	0.085470
	N262	N	0.462143	0.822686	0.085134
	N263	N	0.537534	0.823413	0.916195
	N264	N	0.462988	0.913965	0.178924
	N265	N	0.537075	0.085548	0.178392
	N266	N	0.463320	0.086040	0.821490
	N267	N	0.536833	0.913618	0.821271
	N268	N	0.914441	0.179481	0.463359
	N269	N	0.085992	0.179404	0.537419
	N270	N	0.085657	0.821290	0.462617
	N271	N	0.913968	0.820381	0.537212
	N272	N	0.176753	0.462118	0.914708
	N273	N	0.177485	0.537422	0.084235
	N274	N	0.822950	0.462462	0.084324
	N275	N	0.822726	0.537831	0.915479
