data_Molecule from HDF5

_cell_length_a		16.823178
_cell_length_b		16.618820
_cell_length_c		16.433711
_cell_angle_alpha	89.973495
_cell_angle_beta	90.315819
_cell_angle_gamma	89.997690
_symmetry_space_group_name_H-M	'P 1'
_symmetry_Int_Tables_number		1

loop_
	_symmetry_equiv_pos_as_xyz
	x,y,z

loop_
	_atom_site_label
	_atom_site_type_symbol
	_atom_site_fract_x
	_atom_site_fract_y
	_atom_site_fract_z
	H0	H	0.394292	0.833050	0.729006
	H1	H	0.600267	0.145163	0.725770
	H2	H	0.603196	0.831457	0.286614
	H3	H	0.394085	0.142070	0.286048
	H4	H	0.719873	0.377885	0.851516
	H5	H	0.724028	0.596330	0.161416
	H6	H	0.277062	0.593637	0.850760
	H7	H	0.279934	0.384223	0.164691
	H8	H	0.844498	0.711500	0.398282
	H9	H	0.152382	0.707856	0.610703
	H10	H	0.846576	0.263612	0.614370
	H11	H	0.148765	0.260199	0.395718
	H12	H	0.845207	0.381703	0.729194
	H13	H	0.152400	0.592009	0.727923
	H14	H	0.845236	0.593268	0.281857
	H15	H	0.152869	0.382378	0.285078
	H16	H	0.394053	0.707716	0.850315
	H17	H	0.606987	0.709578	0.162561
	H18	H	0.601489	0.265176	0.851232
	H19	H	0.397369	0.270425	0.166540
	H20	H	0.722538	0.833266	0.399068
	H21	H	0.720877	0.142748	0.615631
	H22	H	0.274487	0.834567	0.615776
	H23	H	0.273164	0.139357	0.396434
	H24	H	0.895549	0.332385	0.228913
	H25	H	0.101235	0.645217	0.225069
	H26	H	0.099108	0.330938	0.789681
	H27	H	0.894166	0.643881	0.787486
	H28	H	0.221175	0.878850	0.352078
	H29	H	0.224934	0.098609	0.660279
	H30	H	0.776074	0.093713	0.351207
	H31	H	0.780449	0.883660	0.665654
	H32	H	0.344865	0.210874	0.899727
	H33	H	0.648139	0.215132	0.120808
	H34	H	0.348459	0.759031	0.118294
	H35	H	0.649646	0.761087	0.897871
	H36	H	0.346893	0.876980	0.233517
	H37	H	0.649739	0.094634	0.232737
	H38	H	0.345218	0.093732	0.783712
	H39	H	0.652079	0.881210	0.785256
	H40	H	0.893584	0.207628	0.349286
	H41	H	0.107361	0.211136	0.661119
	H42	H	0.102436	0.767089	0.349347
	H43	H	0.895668	0.768294	0.664651
	H44	H	0.218938	0.332369	0.902353
	H45	H	0.223250	0.641397	0.115616
	H46	H	0.774259	0.333517	0.117203
	H47	H	0.771748	0.639091	0.895522
	H48	H	0.410716	0.098511	0.594649
	H49	H	0.585872	0.876619	0.595888
	H50	H	0.583141	0.096567	0.421824
	H51	H	0.410274	0.876144	0.422872
	H52	H	0.594122	0.393705	0.124945
	H53	H	0.584326	0.574868	0.894212
	H54	H	0.404576	0.571463	0.120488
	H55	H	0.408718	0.398525	0.894075
	H56	H	0.112022	0.582719	0.413899
	H57	H	0.887108	0.579885	0.593613
	H58	H	0.110207	0.396516	0.598868
	H59	H	0.893283	0.404206	0.425948
	H60	H	0.107616	0.397237	0.592018
	H61	H	0.887650	0.576520	0.596093
	H62	H	0.107356	0.581752	0.423773
	H63	H	0.889642	0.404022	0.413055
	H64	H	0.416137	0.568985	0.116537
	H65	H	0.587255	0.570705	0.894884
	H66	H	0.591942	0.411169	0.117338
	H67	H	0.407200	0.398305	0.892880
	H68	H	0.588111	0.096961	0.425121
	H69	H	0.591841	0.876396	0.592602
	H70	H	0.410612	0.098640	0.592136
	H71	H	0.408412	0.876406	0.423202
	H72	H	0.918294	0.594491	0.090069
	H73	H	0.084303	0.377537	0.095249
	H74	H	0.085208	0.599877	0.914755
	H75	H	0.912235	0.378332	0.921394
	H76	H	0.080641	0.899756	0.617193
	H77	H	0.094390	0.074510	0.391198
	H78	H	0.910968	0.083272	0.621915
	H79	H	0.910046	0.901797	0.396281
	H80	H	0.605598	0.071180	0.919578
	H81	H	0.387470	0.075889	0.097944
	H82	H	0.605741	0.898977	0.090342
	H83	H	0.387722	0.900381	0.912560
	H84	H	0.606243	0.903637	0.096565
	H85	H	0.387211	0.080071	0.095282
	H86	H	0.611180	0.079611	0.914843
	H87	H	0.386929	0.891798	0.922547
	H88	H	0.904396	0.072086	0.621201
	H89	H	0.082244	0.062443	0.399806
	H90	H	0.089449	0.896589	0.621432
	H91	H	0.907321	0.895033	0.392153
	H92	H	0.091401	0.599503	0.924717
	H93	H	0.092951	0.376515	0.090007
	H94	H	0.906836	0.595548	0.083484
	H95	H	0.903122	0.374532	0.921429
	H96	H	0.408556	0.099149	0.593493
	H97	H	0.591920	0.874988	0.599227
	H98	H	0.588026	0.099433	0.419417
	H99	H	0.409135	0.875525	0.421367
	H100	H	0.577722	0.399101	0.117050
	H101	H	0.582549	0.570600	0.897221
	H102	H	0.413713	0.579942	0.121842
	H103	H	0.407907	0.399383	0.894536
	H104	H	0.106897	0.573137	0.416862
	H105	H	0.885686	0.579542	0.597594
	H106	H	0.106816	0.402709	0.597334
	H107	H	0.888000	0.393167	0.420225
	H108	H	0.907896	0.600243	0.096254
	H109	H	0.092816	0.373817	0.099930
	H110	H	0.096073	0.603193	0.914671
	H111	H	0.909345	0.373267	0.913853
	H112	H	0.088796	0.906186	0.618068
	H113	H	0.076936	0.080509	0.395527
	H114	H	0.916153	0.072971	0.617305
	H115	H	0.902532	0.901476	0.392697
	H116	H	0.608015	0.080797	0.925257
	H117	H	0.388194	0.075608	0.092926
	H118	H	0.609384	0.896566	0.096585
	H119	H	0.392471	0.903529	0.924499
	C120	C	0.377087	-0.003006	0.627928
	C121	C	0.621198	0.979195	0.629347
	C122	C	0.619015	-0.004589	0.388104
	C123	C	0.376539	0.977997	0.386804
	C124	C	0.619239	0.366715	0.016304
	C125	C	0.619129	0.606755	0.998202
	C126	C	0.378575	0.607086	0.016028
	C127	C	0.377651	0.367379	0.998610
	C128	C	0.006863	0.611062	0.384225
	C129	C	0.989213	0.609839	0.628014
	C130	C	0.007037	0.366059	0.628725
	C131	C	0.991001	0.366641	0.385470
	C132	C	0.878351	0.494973	0.125757
	C133	C	0.121097	0.479206	0.128114
	C134	C	0.120625	0.497030	0.886500
	C135	C	0.875933	0.477861	0.885130
	C136	C	0.118681	0.867346	0.515437
	C137	C	0.119469	0.108096	0.497668
	C138	C	0.877585	0.108730	0.516138
	C139	C	0.876528	0.867252	0.498100
	C140	C	0.506467	0.109614	0.886578
	C141	C	0.488694	0.109853	0.129850
	C142	C	0.506838	0.865100	0.129046
	C143	C	0.489910	0.865278	0.885794
	C144	C	0.375076	0.879912	0.688943
	C145	C	0.620817	0.097268	0.688155
	C146	C	0.621441	0.878356	0.326838
	C147	C	0.374715	0.094856	0.325291
	C148	C	0.678971	0.361540	0.898459
	C149	C	0.682429	0.612548	0.114724
	C150	C	0.317715	0.611108	0.897837
	C151	C	0.319551	0.365708	0.117581
	C152	C	0.890654	0.670722	0.380633
	C153	C	0.105614	0.668724	0.629731
	C154	C	0.892119	0.304935	0.631642
	C155	C	0.104510	0.303322	0.380147
	C156	C	0.891470	0.363641	0.688933
	C157	C	0.105590	0.610775	0.687964
	C158	C	0.891044	0.612162	0.322768
	C159	C	0.106151	0.364001	0.324844
	C160	C	0.375765	0.667810	0.897748
	C161	C	0.623831	0.668633	0.115681
	C162	C	0.620390	0.305160	0.898462
	C163	C	0.377698	0.309225	0.118563
	C164	C	0.680837	0.879419	0.382923
	C165	C	0.680451	0.096244	0.632856
	C166	C	0.315678	0.880770	0.632829
	C167	C	0.315090	0.093752	0.380597
	C168	C	0.876134	0.378839	0.188602
	C169	C	0.121588	0.597178	0.186957
	C170	C	0.119351	0.378433	0.828256
	C171	C	0.874407	0.595876	0.825709
	C172	C	0.180020	0.862452	0.398435
	C173	C	0.183162	0.114723	0.613688
	C174	C	0.816749	0.111499	0.397974
	C175	C	0.819374	0.865441	0.617716
	C176	C	0.391071	0.170256	0.882364
	C177	C	0.602753	0.172724	0.136401
	C178	C	0.393379	0.801111	0.134889
	C179	C	0.604298	0.802790	0.880903
	C180	C	0.392706	0.859866	0.192104
	C181	C	0.603590	0.112938	0.192403
	C182	C	0.390993	0.111746	0.824911
	C183	C	0.605327	0.862628	0.824864
	C184	C	0.875015	0.168081	0.397051
	C185	C	0.124581	0.170819	0.614292
	C186	C	0.121014	0.806660	0.397391
	C187	C	0.876419	0.807774	0.617323
	C188	C	0.179032	0.379167	0.884106
	C189	C	0.181928	0.595564	0.132430
	C190	C	0.816177	0.379446	0.132857
	C191	C	0.813628	0.593557	0.879451
	C192	C	0.402575	0.077736	0.601016
	C193	C	0.596909	0.897160	0.603340
	C194	C	0.593590	0.076497	0.414773
	C195	C	0.402077	0.897027	0.414380
	C196	C	0.594784	0.393536	0.098356
	C197	C	0.592323	0.579692	0.916645
	C198	C	0.404153	0.580923	0.098232
	C199	C	0.401110	0.391828	0.915434
	C200	C	0.087596	0.586479	0.410630
	C201	C	0.907914	0.585507	0.602765
	C202	C	0.087321	0.391427	0.603482
	C203	C	0.911135	0.393017	0.412220
	C204	C	0.903883	0.575602	0.097930
	C205	C	0.096893	0.397320	0.102391
	C206	C	0.097535	0.579367	0.911072
	C207	C	0.901031	0.396580	0.911319
	C208	C	0.093337	0.893504	0.597490
	C209	C	0.092310	0.080467	0.416641
	C210	C	0.903203	0.083464	0.598619
	C211	C	0.900089	0.892062	0.415428
	C212	C	0.587256	0.084409	0.912595
	C213	C	0.408488	0.084234	0.103068
	C214	C	0.586344	0.892087	0.101921
	C215	C	0.410011	0.891159	0.912259
	Zn216	Zn	0.499144	-0.011848	0.756525
	Zn217	Zn	0.498019	-0.012996	0.258327
	Zn218	Zn	0.748010	0.486696	0.006229
	Zn219	Zn	0.249936	0.487724	0.007513
	Zn220	Zn	-0.002371	0.739683	0.506724
	Zn221	Zn	-0.001338	0.236451	0.506503
	Zn222	Zn	-0.001957	0.488061	0.758266
	Zn223	Zn	-0.000833	0.488116	0.255549
	Zn224	Zn	0.499061	0.735340	0.007383
	Zn225	Zn	0.497405	0.239101	0.008134
	Zn226	Zn	0.749127	-0.011739	0.508060
	Zn227	Zn	0.247600	-0.012448	0.507120
	N228	N	0.412359	0.953261	0.686360
	N229	N	0.584650	0.023133	0.686142
	N230	N	0.583351	0.951487	0.330024
	N231	N	0.412321	0.021662	0.329054
	N232	N	0.678595	0.398918	0.972932
	N233	N	0.679667	0.574632	0.040567
	N234	N	0.319174	0.574055	0.972495
	N235	N	0.319184	0.400815	0.041935
	N236	N	0.963764	0.670375	0.417997
	N237	N	0.032049	0.668414	0.593433
	N238	N	0.965138	0.306024	0.594898
	N239	N	0.031867	0.305055	0.417383
	N240	N	0.963967	0.401012	0.687209
	N241	N	0.031970	0.575161	0.687468
	N242	N	0.964309	0.575911	0.324845
	N243	N	0.034545	0.402960	0.328217
	N244	N	0.412952	0.665298	0.972271
	N245	N	0.585000	0.665155	0.042127
	N246	N	0.584151	0.308089	0.972981
	N247	N	0.412948	0.309986	0.043446
	N248	N	0.679646	0.953233	0.420244
	N249	N	0.681054	0.021570	0.597221
	N250	N	0.316450	0.954738	0.595785
	N251	N	0.315813	0.019980	0.417849
	N252	N	0.914146	0.451781	0.184343
	N253	N	0.084489	0.523703	0.184505
	N254	N	0.083783	0.452798	0.829279
	N255	N	0.912723	0.522849	0.828994
	N256	N	0.178665	0.899729	0.472994
	N257	N	0.180164	0.076466	0.540104
	N258	N	0.818037	0.075557	0.473295
	N259	N	0.819119	0.901677	0.542731
	N260	N	0.463923	0.169103	0.919938
	N261	N	0.530208	0.171039	0.098082
	N262	N	0.465492	0.804234	0.096311
	N263	N	0.531420	0.804306	0.918077
	N264	N	0.464195	0.899139	0.188685
	N265	N	0.531569	0.074367	0.188284
	N266	N	0.464026	0.074800	0.827101
	N267	N	0.533128	0.901007	0.827534
	N268	N	0.911964	0.166836	0.471771
	N269	N	0.085365	0.166826	0.541074
	N270	N	0.083412	0.809551	0.471214
	N271	N	0.911028	0.808339	0.541795
	N272	N	0.180094	0.454002	0.919487
	N273	N	0.181886	0.521001	0.096579
	N274	N	0.817482	0.452746	0.094580
	N275	N	0.814256	0.519073	0.915378
	O276	O	-0.110081	1.023993	-0.024166
	H277	H	-0.105601	1.004504	-0.026550
	H278	H	-0.103514	1.008853	-0.022395
	O279	O	0.294313	0.666844	0.303228
	H280	H	0.310282	0.665233	0.318077
	H281	H	0.308918	0.666397	0.309405
	O282	O	0.771449	0.208703	0.987382
	H283	H	0.777309	0.188199	0.992168
	H284	H	0.743460	0.237261	0.982121
	O285	O	0.723541	0.714892	0.537696
	H286	H	0.742110	0.702923	0.533251
	H287	H	0.747243	0.718882	0.538020
	O288	O	0.662819	0.654596	0.315351
	H289	H	0.668024	0.649154	0.320373
	H290	H	0.667434	0.646186	0.315344
	O291	O	0.704753	0.691259	0.707517
	H292	H	0.684137	0.678763	0.691658
	H293	H	0.710210	0.661953	0.689334
	O294	O	1.258261	0.245003	0.753665
	H295	H	1.260858	0.234509	0.760473
	H296	H	1.238254	0.246937	0.762679
	O297	O	0.484632	0.463683	0.298997
	H298	H	0.501018	0.476699	0.309116
	H299	H	0.472367	0.477389	0.290053
	O300	O	0.114679	0.122689	1.137310
	H301	H	0.120310	0.131531	1.156877
	H302	H	0.129907	0.110376	1.132692
	O303	O	0.519884	0.329783	0.711502
	H304	H	0.532327	0.323424	0.675990
	H305	H	0.530318	0.334037	0.718210
	O306	O	0.558249	0.722442	0.455698
	H307	H	0.576082	0.723154	0.449107
	H308	H	0.577661	0.724468	0.461490
	O309	O	0.570462	0.539932	0.578520
	H310	H	0.558317	0.529688	0.582157
	H311	H	0.568826	0.540457	0.564978
	O312	O	0.659040	0.748754	0.247497
	H313	H	0.656834	0.763917	0.240209
	H314	H	0.692646	0.751072	0.243546
	O315	O	0.864777	0.940825	0.834296
	H316	H	0.846611	0.933560	0.829416
	H317	H	0.888276	0.930411	0.826555
	O318	O	0.708044	1.287244	0.305960
	H319	H	0.727299	1.264510	0.275776
	H320	H	0.669858	1.281147	0.298490
	O321	O	0.082872	0.933292	1.213945
	H322	H	0.092822	0.920809	1.202906
	H323	H	0.091114	0.937471	1.218419
	O324	O	0.952798	1.010342	0.214622
	H325	H	0.966891	1.033860	0.205699
	H326	H	0.979535	0.988681	0.218862
	O327	O	-0.094702	-0.183776	1.212399
	H328	H	-0.075006	-0.174202	1.210963
	H329	H	-0.091046	-0.192543	1.216471
	O330	O	0.428037	0.516232	0.479965
	H331	H	0.430311	0.534255	0.496833
	H332	H	0.411824	0.515967	0.486953
	O333	O	0.510549	0.539466	0.719910
	H334	H	0.492455	0.534226	0.723081
	H335	H	0.528466	0.525181	0.721940
	O336	O	0.721402	0.510210	0.722721
	H337	H	0.713029	0.491691	0.724577
	H338	H	0.742308	0.500113	0.740787
	O339	O	1.221501	-0.042895	0.786891
	H340	H	1.228483	-0.033709	0.781441
	H341	H	1.236629	-0.047481	0.775559
	O342	O	0.215809	-0.234077	-0.011782
	H343	H	0.205904	-0.238488	-0.030865
	H344	H	0.227250	-0.254729	-0.014989
	O345	O	0.211022	1.022487	0.963206
	H346	H	0.211381	1.027267	0.967625
	H347	H	0.207742	1.027338	0.954481
	O348	O	0.221316	0.013091	0.221798
	H349	H	0.246371	0.011841	0.233944
	H350	H	0.224114	0.022857	0.212356
	O351	O	0.782988	0.775593	0.020422
	H352	H	0.777779	0.777697	0.043480
	H353	H	0.781831	0.762272	0.022596
	O354	O	0.054771	0.065073	1.016454
	H355	H	0.053484	0.068481	1.021497
	H356	H	0.056230	0.070689	1.008293
	O357	O	0.725294	0.268391	0.484067
	H358	H	0.712182	0.280979	0.444379
	H359	H	0.759369	0.234550	0.473430
	O360	O	0.309444	0.678694	0.694120
	H361	H	0.322819	0.661932	0.671190
	H362	H	0.327072	0.660115	0.674727
	O363	O	-0.048030	0.200253	-0.198973
	H364	H	-0.059728	0.200914	-0.196828
	H365	H	-0.054222	0.212007	-0.213266
	O366	O	0.733285	0.432007	0.556824
	H367	H	0.733880	0.427822	0.549440
	H368	H	0.731913	0.408779	0.566465
	O369	O	0.803565	-0.011342	0.215389
	H370	H	0.840719	-0.011858	0.215280
	H371	H	0.787388	-0.022197	0.236901
	O372	O	1.001242	1.148896	0.198492
	H373	H	0.996397	1.165870	0.174308
	H374	H	1.017321	1.144773	0.201433
	O375	O	1.228845	0.209670	0.040646
	H376	H	1.242152	0.224786	0.056125
	H377	H	1.229473	0.223404	0.046803
	O378	O	0.567604	0.499057	0.351062
	H379	H	0.567445	0.505715	0.348365
	H380	H	0.574568	0.501003	0.363733
	O381	O	0.023751	0.963495	0.874765
	H382	H	0.018428	0.963320	0.884500
	H383	H	0.031991	0.952378	0.872515
	O384	O	0.847850	0.005247	0.789157
	H385	H	0.838557	-0.021788	0.776475
	H386	H	0.871114	-0.004003	0.786110
	O387	O	1.066769	1.047503	-0.218636
	H388	H	1.059080	1.051946	-0.219840
	H389	H	1.064826	1.036782	-0.214543
	O390	O	0.661145	0.290258	0.662090
	H391	H	0.647050	0.278570	0.660413
	H392	H	0.681974	0.273769	0.655936
	O393	O	0.305822	0.297346	0.324739
	H394	H	0.330138	0.318300	0.333485
	H395	H	0.301318	0.288449	0.332407
	O396	O	0.383190	0.286838	0.698472
	H397	H	0.390094	0.293988	0.714159
	H398	H	0.398888	0.282451	0.714718
	O399	O	0.204931	-0.203207	0.830376
	H400	H	0.212094	-0.170588	0.842404
	H401	H	0.233892	-0.223835	0.801599
	O402	O	0.758462	0.046706	0.060229
	H403	H	0.750059	0.038762	0.069281
	H404	H	0.759670	0.031280	0.042463
	O405	O	1.144423	0.170694	0.837824
	H406	H	1.139109	0.140718	0.849097
	H407	H	1.114359	0.172270	0.842428
	O408	O	-0.062293	0.216760	0.052635
	H409	H	-0.071190	0.202156	0.039929
	H410	H	-0.075240	0.218328	0.044591
	O411	O	1.034400	0.767009	1.031179
	H412	H	1.034742	0.772697	1.035015
	H413	H	1.020322	0.772499	1.020143
	O414	O	0.523562	0.704862	0.715795
	H415	H	0.546949	0.693288	0.712181
	H416	H	0.524738	0.719334	0.734626
	O417	O	0.472403	0.590153	0.307968
	H418	H	0.462703	0.589485	0.322398
	H419	H	0.484447	0.603810	0.300082
	O420	O	0.293720	0.505215	0.288888
	H421	H	0.291786	0.526708	0.283754
	H422	H	0.288669	0.514459	0.274353
	O423	O	-0.139997	-0.221220	1.097567
	H424	H	-0.134203	-0.215741	1.104232
	H425	H	-0.149945	-0.203305	1.101256
	O426	O	0.537346	0.271999	0.299664
	H427	H	0.521404	0.294330	0.299952
	H428	H	0.527824	0.252160	0.281779
	O429	O	1.088432	0.874107	1.063713
	H430	H	1.082891	0.886268	1.053647
	H431	H	1.109537	0.864505	1.062388
	O432	O	0.719474	0.458487	0.300466
	H433	H	0.718604	0.438280	0.291848
	H434	H	0.733370	0.444673	0.293158
	O435	O	0.078611	0.769307	-0.178312
	H436	H	0.114622	0.770413	-0.173792
	H437	H	0.083762	0.746866	-0.196767
	O438	O	-0.201546	0.179337	0.194509
	H439	H	-0.177851	0.165028	0.178381
	H440	H	-0.192688	0.153627	0.177968
	O441	O	-0.024880	-0.214458	-0.144391
	H442	H	-0.013210	-0.228172	-0.152414
	H443	H	-0.032296	-0.224595	-0.157709
	O444	O	0.218412	0.200014	0.210649
	H445	H	0.197789	0.206153	0.200288
	H446	H	0.224107	0.192000	0.233920
	O447	O	-0.779754	1.766972	1.230548
	H448	H	-0.768349	1.763542	1.231546
	H449	H	-0.773383	1.763999	1.224175
	O450	O	-0.199907	0.795569	0.817164
	H451	H	-0.197906	0.788455	0.844577
	H452	H	-0.218736	0.765954	0.791459
	O453	O	0.731712	0.561323	0.455195
	H454	H	0.718540	0.559110	0.465737
	H455	H	0.735206	0.535173	0.444082
	O456	O	0.272616	0.265995	0.517429
	H457	H	0.260872	0.247389	0.541176
	H458	H	0.286361	0.256747	0.536580
	O459	O	0.935847	0.907282	0.090487
	H460	H	0.932263	0.892290	0.095673
	H461	H	0.917761	0.913233	0.091483
	O462	O	0.517882	0.446059	0.514346
	H463	H	0.516606	0.440690	0.511634
	H464	H	0.510659	0.443285	0.518966
	O465	O	0.430151	-0.382823	0.650523
	H466	H	0.439042	-0.388643	0.634621
	H467	H	0.419011	-0.378775	0.650340
	O468	O	0.253418	0.433745	0.461790
	H469	H	0.251044	0.420090	0.436183
	H470	H	0.247436	0.406719	0.450192
	O471	O	0.273383	0.455225	0.724773
	H472	H	0.244949	0.456380	0.756752
	H473	H	0.286358	0.444712	0.708798
	O474	O	0.050646	1.213396	-0.039923
	H475	H	0.034769	1.204567	-0.033536
	H476	H	0.059714	1.214309	-0.049155
	O477	O	0.463548	0.641909	1.519444
	H478	H	0.473138	0.645108	1.540408
	H479	H	0.474648	0.649076	1.507667
	O480	O	0.544588	0.311010	0.542317
	H481	H	0.567379	0.306340	0.536814
	H482	H	0.533595	0.309470	0.514005
	O483	O	0.427675	0.297063	0.425055
	H484	H	0.427150	0.309008	0.429028
	H485	H	0.411938	0.307416	0.426009
	O486	O	0.505929	0.360964	0.622900
	H487	H	0.504991	0.370776	0.610015
	H488	H	0.509755	0.354475	0.635343
	O489	O	1.267251	0.547111	0.573921
	H490	H	1.259504	0.532408	0.567254
	H491	H	1.263254	0.524397	0.562537
	O492	O	-0.204510	-0.060847	-0.029543
	H493	H	-0.203748	-0.055055	-0.052711
	H494	H	-0.206224	-0.072746	-0.033535
	O495	O	0.197193	0.900649	1.079422
	H496	H	0.210360	0.899528	1.063701
	H497	H	0.196891	0.883236	1.070774
	O498	O	0.786303	1.194905	0.800221
	H499	H	0.778648	1.153389	0.793557
	H500	H	0.800592	1.197133	0.837977
	O501	O	0.285387	0.701103	0.481794
	H502	H	0.291947	0.715876	0.488658
	H503	H	0.270360	0.693951	0.488910
