data_Molecule from HDF5

_cell_length_a		16.508967
_cell_length_b		16.385753
_cell_length_c		16.513372
_cell_angle_alpha	89.962166
_cell_angle_beta	90.179400
_cell_angle_gamma	89.927593
_symmetry_space_group_name_H-M	'P 1'
_symmetry_Int_Tables_number		1

loop_
	_symmetry_equiv_pos_as_xyz
	x,y,z

loop_
	_atom_site_label
	_atom_site_type_symbol
	_atom_site_fract_x
	_atom_site_fract_y
	_atom_site_fract_z
	H0	H	0.383927	0.839658	0.719964
	H1	H	0.594183	0.155990	0.721472
	H2	H	0.598414	0.839384	0.277429
	H3	H	0.384026	0.155382	0.276465
	H4	H	0.709848	0.390321	0.841942
	H5	H	0.712583	0.602721	0.155869
	H6	H	0.263103	0.608337	0.843606
	H7	H	0.264483	0.387903	0.154430
	H8	H	0.832221	0.724896	0.390401
	H9	H	0.147447	0.716723	0.600981
	H10	H	0.832693	0.274018	0.604133
	H11	H	0.146639	0.278217	0.394721
	H12	H	0.832929	0.389014	0.721771
	H13	H	0.146104	0.603513	0.720593
	H14	H	0.832811	0.610504	0.272064
	H15	H	0.145226	0.393985	0.277992
	H16	H	0.383768	0.720634	0.842295
	H17	H	0.596560	0.718448	0.156980
	H18	H	0.592653	0.275320	0.842347
	H19	H	0.385566	0.276757	0.157566
	H20	H	0.712725	0.839729	0.393974
	H21	H	0.709927	0.155978	0.605559
	H22	H	0.270753	0.839150	0.601860
	H23	H	0.269427	0.156922	0.393532
	H24	H	0.878930	0.341481	0.224287
	H25	H	0.091957	0.655998	0.218068
	H26	H	0.092789	0.338879	0.778412
	H27	H	0.882511	0.656426	0.777216
	H28	H	0.208620	0.895062	0.341895
	H29	H	0.213270	0.106337	0.654872
	H30	H	0.762003	0.108199	0.344135
	H31	H	0.765467	0.889796	0.656576
	H32	H	0.330492	0.216211	0.899134
	H33	H	0.648180	0.220272	0.107462
	H34	H	0.333463	0.776010	0.101936
	H35	H	0.647238	0.774713	0.891472
	H36	H	0.334213	0.891119	0.220599
	H37	H	0.647150	0.105483	0.224500
	H38	H	0.331976	0.104069	0.778697
	H39	H	0.646030	0.890242	0.775357
	H40	H	0.881451	0.221321	0.342101
	H41	H	0.094493	0.219763	0.656091
	H42	H	0.091096	0.777942	0.342394
	H43	H	0.883967	0.775802	0.657397
	H44	H	0.211330	0.339949	0.891841
	H45	H	0.208147	0.655850	0.100565
	H46	H	0.768382	0.338263	0.104554
	H47	H	0.765788	0.655331	0.891755
	H48	H	0.400039	0.112179	0.588925
	H49	H	0.575489	0.884555	0.589579
	H50	H	0.576531	0.112556	0.405635
	H51	H	0.397200	0.881819	0.405062
	H52	H	0.580774	0.412831	0.111153
	H53	H	0.577626	0.584394	0.887326
	H54	H	0.402502	0.583103	0.109577
	H55	H	0.402849	0.413968	0.890064
	H56	H	0.099590	0.589007	0.410155
	H57	H	0.878299	0.584320	0.584806
	H58	H	0.100426	0.414444	0.590113
	H59	H	0.875861	0.419435	0.402246
	H60	H	0.102933	0.406217	0.591390
	H61	H	0.874090	0.586856	0.593540
	H62	H	0.099466	0.585289	0.410074
	H63	H	0.872036	0.400062	0.408625
	H64	H	0.401418	0.587090	0.110653
	H65	H	0.577546	0.585910	0.887438
	H66	H	0.577208	0.406127	0.112289
	H67	H	0.404697	0.404286	0.886713
	H68	H	0.567901	0.105509	0.413709
	H69	H	0.575386	0.886388	0.584553
	H70	H	0.399822	0.113091	0.589644
	H71	H	0.406175	0.886011	0.409922
	H72	H	0.902473	0.606771	0.078707
	H73	H	0.075686	0.384384	0.086969
	H74	H	0.077021	0.612998	0.902904
	H75	H	0.900850	0.385615	0.911869
	H76	H	0.082747	0.907967	0.614336
	H77	H	0.081099	0.078262	0.388036
	H78	H	0.895170	0.081812	0.610924
	H79	H	0.906523	0.912538	0.391007
	H80	H	0.601916	0.085253	0.912074
	H81	H	0.377250	0.088503	0.089834
	H82	H	0.601410	0.913673	0.087014
	H83	H	0.374617	0.906746	0.904489
	H84	H	0.605674	0.908654	0.094623
	H85	H	0.378986	0.086589	0.087825
	H86	H	0.601544	0.084631	0.910695
	H87	H	0.378683	0.904437	0.916501
	H88	H	0.906896	0.083648	0.607988
	H89	H	0.070203	0.091080	0.387911
	H90	H	0.080827	0.912421	0.611942
	H91	H	0.898766	0.908883	0.386311
	H92	H	0.071447	0.608408	0.912702
	H93	H	0.078742	0.383558	0.087312
	H94	H	0.895853	0.612954	0.086072
	H95	H	0.897695	0.383581	0.908388
	H96	H	0.400388	0.111909	0.589625
	H97	H	0.579567	0.884322	0.587146
	H98	H	0.580374	0.108845	0.418327
	H99	H	0.396839	0.885054	0.415615
	H100	H	0.584941	0.407181	0.114679
	H101	H	0.578315	0.585335	0.886593
	H102	H	0.398367	0.584271	0.111006
	H103	H	0.395576	0.408660	0.885142
	H104	H	0.101162	0.587662	0.407375
	H105	H	0.875040	0.592856	0.585769
	H106	H	0.100387	0.408938	0.583664
	H107	H	0.880620	0.413871	0.421526
	H108	H	0.906442	0.610072	0.088947
	H109	H	0.076587	0.383008	0.089609
	H110	H	0.082980	0.611825	0.913275
	H111	H	0.902706	0.384435	0.906924
	H112	H	0.077660	0.907712	0.611831
	H113	H	0.085875	0.093250	0.382000
	H114	H	0.900806	0.092376	0.613831
	H115	H	0.898204	0.918148	0.389861
	H116	H	0.602631	0.086362	0.910494
	H117	H	0.378113	0.085343	0.090491
	H118	H	0.603454	0.903751	0.085921
	H119	H	0.380800	0.916365	0.911148
	C120	C	0.367926	0.007369	0.620749
	C121	C	0.609518	0.989503	0.620510
	C122	C	0.609718	0.005446	0.379391
	C123	C	0.368027	0.989108	0.377417
	C124	C	0.611973	0.375616	0.008527
	C125	C	0.611141	0.617994	0.990767
	C126	C	0.367878	0.619057	0.007237
	C127	C	0.368579	0.376344	0.990971
	C128	C	-0.003345	0.621499	0.376198
	C129	C	0.980495	0.619488	0.619408
	C130	C	-0.002247	0.376247	0.620441
	C131	C	0.979882	0.377970	0.377782
	C132	C	0.867874	0.505736	0.118795
	C133	C	0.109130	0.488803	0.119392
	C134	C	0.110088	0.506572	0.876994
	C135	C	0.867129	0.488934	0.876415
	C136	C	0.111078	0.877182	0.508394
	C137	C	0.111351	0.120177	0.490002
	C138	C	0.867037	0.119996	0.507747
	C139	C	0.868032	0.878520	0.492278
	C140	C	0.497749	0.118258	0.879506
	C141	C	0.482144	0.119833	0.122467
	C142	C	0.499606	0.876188	0.120556
	C143	C	0.481341	0.876044	0.877481
	C144	C	0.365922	0.887442	0.679938
	C145	C	0.612110	0.108585	0.681027
	C146	C	0.614797	0.886753	0.318045
	C147	C	0.365702	0.108022	0.316682
	C148	C	0.670352	0.372483	0.889186
	C149	C	0.671852	0.620558	0.108970
	C150	C	0.305285	0.624362	0.890046
	C151	C	0.306355	0.371860	0.108151
	C152	C	0.879263	0.684063	0.372550
	C153	C	0.099900	0.677737	0.620248
	C154	C	0.879791	0.314501	0.622807
	C155	C	0.098843	0.318041	0.375978
	C156	C	0.879989	0.371977	0.681055
	C157	C	0.099195	0.621163	0.679438
	C158	C	0.879491	0.626899	0.313525
	C159	C	0.098304	0.375780	0.317991
	C160	C	0.365065	0.680750	0.889554
	C161	C	0.614168	0.678415	0.109407
	C162	C	0.612308	0.315113	0.889694
	C163	C	0.366503	0.316320	0.109760
	C164	C	0.672154	0.887125	0.376004
	C165	C	0.669708	0.108725	0.623311
	C166	C	0.309533	0.887090	0.621077
	C167	C	0.308495	0.108627	0.374884
	C168	C	0.862582	0.388114	0.182312
	C169	C	0.111068	0.608420	0.178569
	C170	C	0.112079	0.387149	0.817525
	C171	C	0.864229	0.608378	0.816639
	C172	C	0.169128	0.875816	0.389187
	C173	C	0.172616	0.123828	0.607739
	C174	C	0.803852	0.124902	0.390680
	C175	C	0.806600	0.873253	0.609946
	C176	C	0.378495	0.177639	0.879064
	C177	C	0.600675	0.180088	0.125191
	C178	C	0.380975	0.815776	0.121709
	C179	C	0.599770	0.814808	0.873958
	C180	C	0.381174	0.873120	0.180383
	C181	C	0.600199	0.122748	0.183634
	C182	C	0.379114	0.121436	0.819449
	C183	C	0.598967	0.872334	0.815845
	C184	C	0.863345	0.181316	0.389567
	C185	C	0.113375	0.180522	0.608413
	C186	C	0.110836	0.818015	0.389395
	C187	C	0.865401	0.816290	0.610213
	C188	C	0.171002	0.387427	0.874116
	C189	C	0.168695	0.608223	0.120423
	C190	C	0.807847	0.386333	0.122152
	C191	C	0.806144	0.607992	0.873735
	C192	C	0.393096	0.090718	0.596480
	C193	C	0.584154	0.906617	0.594528
	C194	C	0.582699	0.087821	0.405323
	C195	C	0.393066	0.905919	0.402756
	C196	C	0.587955	0.401154	0.091013
	C197	C	0.585280	0.592436	0.908582
	C198	C	0.393584	0.592360	0.089127
	C199	C	0.393924	0.401784	0.908754
	C200	C	0.078842	0.594785	0.401834
	C201	C	0.897489	0.595000	0.595001
	C202	C	0.079857	0.402266	0.595503
	C203	C	0.897631	0.403820	0.403268
	C204	C	0.894064	0.588188	0.092351
	C205	C	0.084074	0.405404	0.094995
	C206	C	0.084667	0.589522	0.902241
	C207	C	0.892859	0.406126	0.901879
	C208	C	0.087154	0.902141	0.591143
	C209	C	0.086087	0.094867	0.407522
	C210	C	0.893532	0.093557	0.589602
	C211	C	0.893781	0.905398	0.410484
	C212	C	0.580454	0.092779	0.904053
	C213	C	0.399645	0.094062	0.096745
	C214	C	0.582020	0.901530	0.096228
	C215	C	0.399331	0.901796	0.903281
	Zn216	Zn	0.489193	-0.001855	0.749422
	Zn217	Zn	0.490589	-0.002826	0.249738
	Zn218	Zn	0.739992	0.496886	-0.001761
	Zn219	Zn	0.238740	0.497197	-0.001466
	Zn220	Zn	-0.011399	0.749061	0.499383
	Zn221	Zn	-0.010981	0.248294	0.498049
	Zn222	Zn	-0.011496	0.498614	0.748530
	Zn223	Zn	-0.012609	0.498387	0.248046
	Zn224	Zn	0.490803	0.747605	-0.001339
	Zn225	Zn	0.490031	0.247820	0.000469
	Zn226	Zn	0.738579	-0.001799	0.500316
	Zn227	Zn	0.240435	-0.001519	0.498904
	N228	N	0.401564	0.963261	0.679954
	N229	N	0.575502	0.033474	0.679235
	N230	N	0.576763	0.961461	0.319976
	N231	N	0.401796	0.032426	0.317723
	N232	N	0.670643	0.409045	0.964050
	N233	N	0.670392	0.584097	0.034197
	N234	N	0.306943	0.586548	0.964218
	N235	N	0.307502	0.408731	0.033308
	N236	N	0.953082	0.680625	0.410967
	N237	N	0.025152	0.676770	0.583777
	N238	N	0.954122	0.316864	0.585884
	N239	N	0.023969	0.318799	0.411992
	N240	N	0.954304	0.409422	0.680023
	N241	N	0.023771	0.585801	0.679196
	N242	N	0.953537	0.588520	0.315776
	N243	N	0.023262	0.412091	0.318880
	N244	N	0.403518	0.677387	0.963375
	N245	N	0.576909	0.676999	0.034800
	N246	N	0.576888	0.316708	0.964800
	N247	N	0.404503	0.319009	0.035934
	N248	N	0.669202	0.961951	0.413345
	N249	N	0.668158	0.033667	0.586286
	N250	N	0.310431	0.962843	0.585279
	N251	N	0.309845	0.033531	0.411744
	N252	N	0.899068	0.463418	0.180348
	N253	N	0.074994	0.532918	0.178336
	N254	N	0.075152	0.462262	0.819074
	N255	N	0.901133	0.533388	0.817881
	N256	N	0.169278	0.911785	0.464184
	N257	N	0.171644	0.087146	0.533051
	N258	N	0.805945	0.087552	0.465160
	N259	N	0.808006	0.910967	0.535619
	N260	N	0.453389	0.175781	0.915756
	N261	N	0.526090	0.178430	0.088037
	N262	N	0.455768	0.817231	0.085731
	N263	N	0.525734	0.817095	0.911705
	N264	N	0.455926	0.909846	0.179872
	N265	N	0.525404	0.086041	0.182036
	N266	N	0.454096	0.085035	0.819735
	N267	N	0.524353	0.909607	0.817775
	N268	N	0.901867	0.178489	0.463390
	N269	N	0.075860	0.178215	0.534190
	N270	N	0.075599	0.818718	0.464478
	N271	N	0.902717	0.819289	0.535896
	N272	N	0.170093	0.462957	0.910263
	N273	N	0.167715	0.532589	0.084652
	N274	N	0.810914	0.460664	0.083462
	N275	N	0.807752	0.532540	0.910154
	O276	O	1.092321	0.940690	0.181819
	H277	H	1.109203	0.946873	0.179812
	H278	H	1.095319	0.956857	0.178098
	O279	O	0.196855	-0.075787	-0.206469
	H280	H	0.204313	-0.058209	-0.205239
	H281	H	0.208281	-0.089568	-0.201804
	O282	O	0.943863	0.945596	-0.222357
	H283	H	0.939190	0.933705	-0.215935
	H284	H	0.927071	0.947352	-0.223492
	O285	O	0.702781	0.293250	0.481884
	H286	H	0.704002	0.281893	0.460318
	H287	H	0.708154	0.294109	0.492413
	O288	O	-0.226193	0.019860	-0.215391
	H289	H	-0.234884	0.052441	-0.221110
	H290	H	-0.236613	0.037290	-0.227286
	O291	O	1.450175	0.544485	0.358001
	H292	H	1.432218	0.560339	0.368062
	H293	H	1.468743	0.550879	0.361169
	O294	O	-0.186255	0.997014	0.218456
	H295	H	-0.200746	0.984441	0.241743
	H296	H	-0.168801	0.976624	0.207967
	O297	O	0.182846	0.196309	0.194486
	H298	H	0.182605	0.188186	0.211543
	H299	H	0.179430	0.199293	0.153483
	O300	O	0.546104	0.313962	0.538580
	H301	H	0.551216	0.321495	0.525158
	H302	H	0.539995	0.303280	0.554310
	O303	O	0.515061	0.368213	0.548369
	H304	H	0.503125	0.346634	0.536655
	H305	H	0.494449	0.380478	0.537367
	O306	O	0.710440	0.520042	0.715126
	H307	H	0.706333	0.503865	0.707665
	H308	H	0.732162	0.522264	0.741114
	O309	O	0.499987	0.333957	0.287791
	H310	H	0.501355	0.345378	0.268643
	H311	H	0.503051	0.341514	0.272927
	O312	O	0.509348	0.707105	0.701785
	H313	H	0.519196	0.734284	0.729523
	H314	H	0.530745	0.678786	0.695042
	O315	O	0.711664	-0.508036	1.503010
	H316	H	0.708186	-0.508476	1.506488
	H317	H	0.704928	-0.501072	1.499631
	O318	O	0.017754	0.786398	-0.213615
	H319	H	0.010708	0.770619	-0.234842
	H320	H	0.055014	0.791782	-0.213733
	O321	O	0.289033	0.291530	-0.471992
	H322	H	0.291105	0.284748	-0.494376
	H323	H	0.294857	0.284419	-0.489139
	O324	O	0.775068	-0.217018	1.029654
	H325	H	0.760817	-0.229213	1.035711
	H326	H	0.762155	-0.213079	1.015134
	O327	O	0.775919	0.010898	1.019243
	H328	H	0.765549	0.030993	1.014806
	H329	H	0.779660	0.003044	1.045660
	O330	O	0.672143	0.318446	0.321535
	H331	H	0.657881	0.317012	0.331375
	H332	H	0.663766	0.345321	0.324777
	O333	O	1.285958	0.703934	1.294542
	H334	H	1.283813	0.692859	1.322753
	H335	H	1.260066	0.732561	1.271349
	O336	O	0.675830	0.686844	0.679485
	H337	H	0.673805	0.666140	0.666478
	H338	H	0.676240	0.670713	0.665675
	O339	O	0.300821	0.301540	0.694980
	H340	H	0.282540	0.290408	0.670021
	H341	H	0.288690	0.328913	0.684281
	O342	O	0.000974	0.799505	1.013196
	H343	H	-0.013692	0.810975	1.016781
	H344	H	-0.025752	0.791926	0.987117
	O345	O	-0.042085	0.203453	-0.205940
	H346	H	-0.028328	0.197645	-0.210758
	H347	H	-0.023717	0.196406	-0.220084
	O348	O	0.790321	0.191863	0.799306
	H349	H	0.823193	0.202339	0.811091
	H350	H	0.788179	0.213772	0.779318
	O351	O	1.020281	1.146028	0.198882
	H352	H	1.018304	1.150548	0.191932
	H353	H	1.022691	1.161037	0.207657
	O354	O	0.483096	0.450968	0.536988
	H355	H	0.481749	0.460774	0.537757
	H356	H	0.484339	0.445255	0.552243
	O357	O	1.315269	1.516109	0.637280
	H358	H	1.326623	1.515131	0.634023
	H359	H	1.316484	1.510623	0.638616
	O360	O	0.411973	0.668186	0.548411
	H361	H	0.418475	0.667847	0.553982
	H362	H	0.400657	0.665255	0.556432
	O363	O	0.419443	0.593104	0.597239
	H364	H	0.421807	0.590182	0.594689
	H365	H	0.422680	0.591866	0.598080
	O366	O	0.973720	0.018841	0.951627
	H367	H	0.958625	0.031249	0.955074
	H368	H	0.955000	0.005617	0.953326
	O369	O	0.793272	0.893306	0.885321
	H370	H	0.791939	0.918858	0.869398
	H371	H	0.776476	0.911365	0.888231
	O372	O	0.513370	0.562802	0.384486
	H373	H	0.508462	0.585070	0.383484
	H374	H	0.525401	0.562665	0.394666
	O375	O	0.047951	1.216081	0.941031
	H376	H	0.032007	1.224950	0.950917
	H377	H	0.024600	1.209681	0.939504
	O378	O	0.286692	0.562403	0.691122
	H379	H	0.292634	0.553937	0.672223
	H380	H	0.279216	0.562002	0.706336
	O381	O	1.186905	-0.200824	-0.144359
	H382	H	1.187892	-0.216241	-0.116940
	H383	H	1.200082	-0.195682	-0.154999
	O384	O	0.181189	-0.194345	1.193937
	H385	H	0.160519	-0.189970	1.171301
	H386	H	0.174439	-0.172635	1.183477
	O387	O	-0.120896	0.864982	0.966608
	H388	H	-0.132462	0.870221	0.964377
	H389	H	-0.124418	0.857649	0.949215
	O390	O	0.143192	0.053154	1.153823
	H391	H	0.166564	0.071679	1.179475
	H392	H	0.152209	0.067461	1.131014
	O393	O	0.927763	1.210928	0.060444
	H394	H	0.905064	1.203870	0.072628
	H395	H	0.918625	1.210992	0.073057
	O396	O	0.279368	0.522022	0.276748
	H397	H	0.279048	0.532542	0.282306
	H398	H	0.263134	0.543407	0.256764
	O399	O	0.810827	0.818110	0.187554
	H400	H	0.821973	0.816698	0.171839
	H401	H	0.842385	0.813574	0.178240
	O402	O	-0.106378	0.081968	1.121068
	H403	H	-0.098083	0.074431	1.128485
	H404	H	-0.129068	0.061761	1.134108
	O405	O	0.194172	0.025192	-0.019160
	H406	H	0.187949	0.029269	-0.027836
	H407	H	0.179688	0.028003	-0.026450
	O408	O	0.563321	0.641882	0.371245
	H409	H	0.555097	0.645524	0.372757
	H410	H	0.549648	0.649694	0.355649
	O411	O	0.146480	0.802040	0.992827
	H412	H	0.120217	0.797833	0.992523
	H413	H	0.150963	0.808965	0.992474
	O414	O	0.689484	0.359626	0.643123
	H415	H	0.671797	0.365678	0.630745
	H416	H	0.684258	0.377945	0.643223
	O417	O	0.467668	0.718110	0.280841
	H418	H	0.438677	0.733654	0.265273
	H419	H	0.454463	0.721744	0.265298
	O420	O	0.615068	0.520750	0.465500
	H421	H	0.604158	0.509953	0.455326
	H422	H	0.621336	0.514692	0.454366
	O423	O	0.326088	1.320373	0.338865
	H424	H	0.338412	1.333529	0.345894
	H425	H	0.334479	1.332240	0.332514
	O426	O	1.087249	1.061703	0.818533
	H427	H	1.093690	1.054610	0.807863
	H428	H	1.070208	1.037384	0.815003
	O429	O	0.468681	0.295962	0.706093
	H430	H	0.431415	0.288144	0.702928
	H431	H	0.458275	0.291195	0.720241
	O432	O	0.701644	0.480321	0.290368
	H433	H	0.725155	0.479805	0.259215
	H434	H	0.690680	0.485628	0.314635
	O435	O	0.156887	0.097729	-0.203235
	H436	H	0.149378	0.088202	-0.198017
	H437	H	0.160025	0.098527	-0.201329
	O438	O	1.151802	0.029422	0.196630
	H439	H	1.163688	0.038022	0.207221
	H440	H	1.157914	0.048015	0.194608
	O441	O	0.271290	0.469228	0.522151
	H442	H	0.272691	0.471228	0.528712
	H443	H	0.275858	0.474486	0.522739
	O444	O	-0.071622	0.840588	1.205153
	H445	H	-0.071866	0.826769	1.219658
	H446	H	-0.051585	0.860637	1.205627
	O447	O	0.383317	0.371833	0.418268
	H448	H	0.393733	0.367603	0.422060
	H449	H	0.408576	0.372275	0.393336
	O450	O	0.447151	0.556063	0.623831
	H451	H	0.441708	0.576837	0.631617
	H452	H	0.429630	0.541597	0.618980
	O453	O	0.693391	0.702042	0.515447
	H454	H	0.683403	0.705127	0.504296
	H455	H	0.702084	0.714071	0.510792
	O456	O	0.774531	0.211977	-0.026265
	H457	H	0.767637	0.214176	-0.052673
	H458	H	0.757911	0.227552	-0.021584
	O459	O	1.014509	-0.049074	1.061555
	H460	H	1.012294	-0.045131	1.049953
	H461	H	1.015459	-0.046261	1.051368
	O462	O	0.341272	0.661313	0.524176
	H463	H	0.343105	0.654228	0.529123
	H464	H	0.332431	0.657553	0.533606
	O465	O	1.186713	0.190954	0.026956
	H466	H	1.195172	0.200625	0.015029
	H467	H	1.169119	0.192603	0.018526
