data_Molecule from HDF5

_cell_length_a		16.409227
_cell_length_b		16.176890
_cell_length_c		16.015411
_cell_angle_alpha	90.585423
_cell_angle_beta	89.646711
_cell_angle_gamma	89.985658
_symmetry_space_group_name_H-M	'P 1'
_symmetry_Int_Tables_number		1

loop_
	_symmetry_equiv_pos_as_xyz
	x,y,z

loop_
	_atom_site_label
	_atom_site_type_symbol
	_atom_site_fract_x
	_atom_site_fract_y
	_atom_site_fract_z
	H0	H	0.397932	0.828612	0.705227
	H1	H	0.587067	0.161487	0.711746
	H2	H	0.590477	0.831326	0.284087
	H3	H	0.400529	0.163028	0.290454
	H4	H	0.709998	0.393083	0.833102
	H5	H	0.707044	0.597233	0.164322
	H6	H	0.279209	0.595123	0.833533
	H7	H	0.276993	0.396193	0.162790
	H8	H	0.831597	0.711989	0.400330
	H9	H	0.156440	0.714964	0.597300
	H10	H	0.832646	0.281944	0.598985
	H11	H	0.156956	0.280655	0.396028
	H12	H	0.830193	0.403267	0.709470
	H13	H	0.157740	0.596809	0.712839
	H14	H	0.830124	0.591825	0.287797
	H15	H	0.156844	0.397899	0.281724
	H16	H	0.398576	0.704937	0.831240
	H17	H	0.590476	0.710153	0.164373
	H18	H	0.593501	0.281137	0.831740
	H19	H	0.397250	0.287547	0.165490
	H20	H	0.711522	0.833812	0.392483
	H21	H	0.709140	0.160648	0.602084
	H22	H	0.275601	0.833395	0.598583
	H23	H	0.278580	0.160273	0.398957
	H24	H	0.897728	0.330462	0.208776
	H25	H	0.088075	0.662298	0.210148
	H26	H	0.089551	0.331415	0.783011
	H27	H	0.898431	0.662640	0.791866
	H28	H	0.210053	0.895057	0.332851
	H29	H	0.207639	0.100779	0.663091
	H30	H	0.780596	0.096896	0.332281
	H31	H	0.777500	0.898796	0.662533
	H32	H	0.331503	0.211519	0.899482
	H33	H	0.655903	0.213827	0.097981
	H34	H	0.331472	0.780377	0.099452
	H35	H	0.656420	0.779630	0.896520
	H36	H	0.330530	0.900713	0.212335
	H37	H	0.657577	0.094494	0.211726
	H38	H	0.329260	0.089413	0.788444
	H39	H	0.656022	0.896255	0.781413
	H40	H	0.899752	0.207185	0.330423
	H41	H	0.089790	0.211026	0.664494
	H42	H	0.091913	0.783906	0.331684
	H43	H	0.896487	0.789060	0.665014
	H44	H	0.211083	0.332845	0.891627
	H45	H	0.210639	0.658931	0.102135
	H46	H	0.776525	0.332334	0.099045
	H47	H	0.777158	0.658462	0.898702
	H48	H	0.395215	0.116780	0.596039
	H49	H	0.590186	0.876909	0.593028
	H50	H	0.597164	0.115608	0.413403
	H51	H	0.397058	0.877621	0.404796
	H52	H	0.584823	0.409822	0.115308
	H53	H	0.588378	0.588993	0.878184
	H54	H	0.397942	0.576773	0.114621
	H55	H	0.391590	0.403512	0.875766
	H56	H	0.110296	0.593685	0.405654
	H57	H	0.878351	0.591170	0.594191
	H58	H	0.111025	0.402390	0.591082
	H59	H	0.879420	0.409990	0.402858
	H60	H	0.110680	0.403842	0.588589
	H61	H	0.877011	0.595338	0.596816
	H62	H	0.109977	0.588932	0.404354
	H63	H	0.874110	0.394838	0.399298
	H64	H	0.411532	0.591296	0.114095
	H65	H	0.591647	0.584663	0.878743
	H66	H	0.584183	0.401240	0.117823
	H67	H	0.406942	0.412226	0.884195
	H68	H	0.590015	0.118157	0.397539
	H69	H	0.582538	0.880605	0.585460
	H70	H	0.403674	0.113847	0.594530
	H71	H	0.403907	0.878860	0.403995
	H72	H	0.901734	0.612868	0.092951
	H73	H	0.088535	0.379415	0.083872
	H74	H	0.081950	0.615850	0.897039
	H75	H	0.908388	0.383003	0.912516
	H76	H	0.081105	0.901200	0.617703
	H77	H	0.085299	0.083204	0.381554
	H78	H	0.897914	0.094002	0.618884
	H79	H	0.900442	0.909684	0.380204
	H80	H	0.611194	0.090634	0.902547
	H81	H	0.373382	0.083148	0.115332
	H82	H	0.609604	0.895091	0.083614
	H83	H	0.374262	0.898065	0.896203
	H84	H	0.606535	0.910562	0.087233
	H85	H	0.373470	0.113213	0.089648
	H86	H	0.609159	0.089847	0.907341
	H87	H	0.375787	0.892624	0.907854
	H88	H	0.898590	0.087245	0.616229
	H89	H	0.086177	0.094170	0.377182
	H90	H	0.093468	0.906961	0.619385
	H91	H	0.906407	0.901816	0.379461
	H92	H	0.083618	0.608684	0.919288
	H93	H	0.089071	0.377101	0.089981
	H94	H	0.897655	0.612924	0.088118
	H95	H	0.888558	0.375260	0.907748
	H96	H	0.398210	0.112955	0.588906
	H97	H	0.592867	0.879237	0.581451
	H98	H	0.580229	0.111959	0.410066
	H99	H	0.400542	0.880013	0.410693
	H100	H	0.591893	0.405698	0.118436
	H101	H	0.586052	0.584018	0.880723
	H102	H	0.393590	0.595550	0.122092
	H103	H	0.408616	0.393579	0.877339
	H104	H	0.111345	0.592162	0.401818
	H105	H	0.878177	0.595503	0.592282
	H106	H	0.110965	0.404919	0.591397
	H107	H	0.880487	0.399091	0.413197
	H108	H	0.896223	0.615351	0.094261
	H109	H	0.083641	0.378945	0.088240
	H110	H	0.101919	0.618607	0.907394
	H111	H	0.903468	0.374761	0.891384
	H112	H	0.083111	0.914828	0.613915
	H113	H	0.094605	0.086437	0.377353
	H114	H	0.903845	0.092472	0.616142
	H115	H	0.897677	0.901077	0.375823
	H116	H	0.608333	0.085221	0.904588
	H117	H	0.386611	0.078519	0.076572
	H118	H	0.612461	0.900694	0.098478
	H119	H	0.379796	0.904661	0.906779
	C120	C	0.370937	0.004998	0.620233
	C121	C	0.615704	0.987960	0.618356
	C122	C	0.616749	0.006199	0.376224
	C123	C	0.373016	0.987963	0.378099
	C124	C	0.615546	0.374881	0.006988
	C125	C	0.615799	0.616013	0.989528
	C126	C	0.372799	0.616233	0.007227
	C127	C	0.373059	0.374871	0.989193
	C128	C	0.002712	0.618972	0.376542
	C129	C	0.985630	0.621896	0.622387
	C130	C	0.003049	0.376147	0.619467
	C131	C	0.985651	0.373311	0.375423
	C132	C	0.870934	0.504624	0.119746
	C133	C	0.115178	0.487204	0.118592
	C134	C	0.116702	0.505359	0.876428
	C135	C	0.872487	0.486736	0.877147
	C136	C	0.114769	0.877197	0.506991
	C137	C	0.115625	0.118316	0.488616
	C138	C	0.873162	0.118919	0.506708
	C139	C	0.872754	0.876638	0.488740
	C140	C	0.501789	0.116444	0.877475
	C141	C	0.485165	0.119975	0.121842
	C142	C	0.501907	0.874263	0.119404
	C143	C	0.484729	0.870856	0.874755
	C144	C	0.375586	0.879384	0.670894
	C145	C	0.609826	0.111945	0.674705
	C146	C	0.612241	0.881292	0.321018
	C147	C	0.377912	0.113064	0.325722
	C148	C	0.671446	0.374364	0.882357
	C149	C	0.669892	0.616398	0.114484
	C150	C	0.317814	0.614406	0.882484
	C151	C	0.315741	0.376533	0.113488
	C152	C	0.880004	0.673742	0.379835
	C153	C	0.108108	0.676972	0.618386
	C154	C	0.880963	0.320812	0.618111
	C155	C	0.108431	0.318665	0.376447
	C156	C	0.879836	0.380973	0.673309
	C157	C	0.108539	0.618058	0.675767
	C158	C	0.879231	0.613720	0.324069
	C159	C	0.108270	0.376731	0.319443
	C160	C	0.377099	0.669001	0.881328
	C161	C	0.611818	0.672264	0.114712
	C162	C	0.613255	0.318738	0.881744
	C163	C	0.375734	0.322648	0.114976
	C164	C	0.672577	0.882618	0.374724
	C165	C	0.670248	0.111778	0.619791
	C166	C	0.314553	0.881702	0.617896
	C167	C	0.317584	0.111832	0.379696
	C168	C	0.875831	0.379964	0.172536
	C169	C	0.110482	0.612221	0.173677
	C170	C	0.111940	0.381120	0.819795
	C171	C	0.876482	0.612373	0.826403
	C172	C	0.171232	0.876719	0.382184
	C173	C	0.169660	0.119066	0.613838
	C174	C	0.818652	0.116818	0.381677
	C175	C	0.816983	0.879705	0.613741
	C176	C	0.379678	0.172531	0.879536
	C177	C	0.607772	0.174982	0.118502
	C178	C	0.379836	0.818972	0.118900
	C179	C	0.607355	0.816817	0.876508
	C180	C	0.379341	0.879127	0.174725
	C181	C	0.608567	0.115607	0.174965
	C182	C	0.378366	0.111768	0.824709
	C183	C	0.607182	0.874686	0.818895
	C184	C	0.877944	0.171502	0.380697
	C185	C	0.111155	0.173975	0.614432
	C186	C	0.112539	0.821200	0.381615
	C187	C	0.875728	0.824674	0.614700
	C188	C	0.172148	0.381679	0.874032
	C189	C	0.171184	0.610704	0.119547
	C190	C	0.815766	0.381066	0.117948
	C191	C	0.816221	0.610185	0.879365
	C192	C	0.392734	0.092106	0.599456
	C193	C	0.594801	0.901154	0.593687
	C194	C	0.595397	0.092824	0.400054
	C195	C	0.394222	0.901324	0.399942
	C196	C	0.593318	0.398536	0.094719
	C197	C	0.594933	0.592559	0.901996
	C198	C	0.394492	0.594496	0.094313
	C199	C	0.395564	0.396646	0.901784
	C200	C	0.088454	0.597855	0.397542
	C201	C	0.900048	0.600483	0.600897
	C202	C	0.088787	0.397434	0.596861
	C203	C	0.900204	0.394853	0.398324
	C204	C	0.892189	0.591317	0.098155
	C205	C	0.093472	0.400953	0.094541
	C206	C	0.095523	0.591946	0.900778
	C207	C	0.893795	0.400169	0.897638
	C208	C	0.092549	0.900765	0.594421
	C209	C	0.094755	0.094936	0.401232
	C210	C	0.893808	0.097617	0.594306
	C211	C	0.894980	0.897828	0.401176
	C212	C	0.587097	0.095071	0.898535
	C213	C	0.399938	0.098135	0.100289
	C214	C	0.587521	0.895687	0.096457
	C215	C	0.398650	0.892204	0.896985
	Zn216	Zn	0.492791	-0.005280	0.746994
	Zn217	Zn	0.493960	-0.003295	0.249946
	Zn218	Zn	0.743471	0.495326	-0.002275
	Zn219	Zn	0.245019	0.495530	-0.002106
	Zn220	Zn	-0.005919	0.749494	0.498305
	Zn221	Zn	-0.004965	0.245452	0.497469
	Zn222	Zn	-0.005946	0.497765	0.749980
	Zn223	Zn	-0.006533	0.495795	0.247138
	Zn224	Zn	0.494110	0.743477	-0.002307
	Zn225	Zn	0.494126	0.248232	-0.001626
	Zn226	Zn	0.745432	-0.002203	0.497113
	Zn227	Zn	0.243320	-0.002583	0.498513
	N228	N	0.409821	0.957175	0.672517
	N229	N	0.576315	0.033921	0.673710
	N230	N	0.578399	0.959035	0.321652
	N231	N	0.411722	0.035256	0.324757
	N232	N	0.672757	0.408566	0.961288
	N233	N	0.672412	0.582020	0.035397
	N234	N	0.314978	0.582417	0.961707
	N235	N	0.314043	0.408216	0.034016
	N236	N	0.957539	0.677075	0.411672
	N237	N	0.030721	0.679441	0.585925
	N238	N	0.958723	0.317720	0.585273
	N239	N	0.031210	0.316515	0.410689
	N240	N	0.956859	0.414792	0.674395
	N241	N	0.031353	0.584919	0.678696
	N242	N	0.956428	0.580396	0.321639
	N243	N	0.031046	0.409934	0.318559
	N244	N	0.410639	0.670476	0.959970
	N245	N	0.578865	0.672281	0.036006
	N246	N	0.579256	0.319243	0.960533
	N247	N	0.410732	0.321565	0.036644
	N248	N	0.675560	0.961388	0.408686
	N249	N	0.673947	0.033424	0.585495
	N250	N	0.311603	0.960861	0.587134
	N251	N	0.314105	0.032968	0.411313
	N252	N	0.909507	0.457797	0.173741
	N253	N	0.076068	0.534602	0.173041
	N254	N	0.078208	0.459120	0.821043
	N255	N	0.910921	0.534791	0.824706
	N256	N	0.172620	0.910892	0.461111
	N257	N	0.172721	0.084971	0.534700
	N258	N	0.815722	0.084736	0.460860
	N259	N	0.814917	0.911172	0.534193
	N260	N	0.457377	0.175596	0.911692
	N261	N	0.530330	0.177793	0.086055
	N262	N	0.457056	0.816038	0.084965
	N263	N	0.529953	0.814185	0.910368
	N264	N	0.456474	0.912751	0.175294
	N265	N	0.531523	0.082112	0.177078
	N266	N	0.454996	0.077474	0.823193
	N267	N	0.529825	0.907441	0.817617
	N268	N	0.911368	0.172772	0.459395
	N269	N	0.078188	0.173542	0.535728
	N270	N	0.078056	0.821516	0.460356
	N271	N	0.909928	0.822934	0.536027
	N272	N	0.175215	0.459875	0.908624
	N273	N	0.174151	0.532001	0.086024
	N274	N	0.812626	0.459625	0.085874
	N275	N	0.813359	0.531260	0.910235
	O276	O	0.935573	1.033833	-0.007846
	H277	H	0.937608	1.026622	-0.012207
	H278	H	0.930538	1.038924	-0.017142
	O279	O	0.009617	-0.033563	0.978411
	H280	H	0.006666	-0.033182	0.981056
	H281	H	0.004100	-0.033957	0.984859
	O282	O	-0.093454	-0.108322	0.021430
	H283	H	-0.093670	-0.113184	0.015630
	H284	H	-0.090047	-0.114449	0.024796
	O285	O	0.509454	0.451083	0.401393
	H286	H	0.506433	0.450500	0.390993
	H287	H	0.525876	0.451087	0.411629
	O288	O	0.024800	-0.051280	0.020790
	H289	H	0.023143	-0.056501	0.016152
	H290	H	0.016107	-0.062412	0.034467
	O291	O	-0.029485	1.023583	0.019331
	H292	H	-0.027693	1.032673	0.017833
	H293	H	-0.030055	1.020162	0.021899
	O294	O	-0.023208	0.985256	0.007773
	H295	H	-0.027517	0.991885	0.005143
	H296	H	-0.028170	0.992364	0.000492
	O297	O	0.526528	0.457108	0.526533
	H298	H	0.524663	0.454504	0.529707
	H299	H	0.530898	0.454528	0.529647
	O300	O	0.462578	0.476499	0.481515
	H301	H	0.469134	0.471839	0.471748
	H302	H	0.462011	0.473888	0.484430
	O303	O	0.995069	-0.060436	0.876026
	H304	H	1.007831	-0.063934	0.869270
	H305	H	1.004136	-0.058571	0.891573
	O306	O	1.044418	1.936719	0.931375
	H307	H	1.042591	1.937619	0.930753
	H308	H	1.052540	1.940101	0.937594
	O309	O	-0.027336	0.985086	1.002576
	H310	H	-0.029093	0.977811	0.994906
	H311	H	-0.016656	0.979996	1.001241
	O312	O	-0.111760	-0.007668	0.929056
	H313	H	-0.102389	-0.012464	0.940041
	H314	H	-0.114819	-0.008636	0.930296
	O315	O	0.530960	0.514000	0.500830
	H316	H	0.539446	0.521665	0.512935
	H317	H	0.517718	0.514090	0.501540
	O318	O	0.520552	-0.456467	0.553270
	H319	H	0.518887	-0.458350	0.545074
	H320	H	0.522257	-0.460578	0.561656
	O321	O	0.565766	0.399252	0.518770
	H322	H	0.569790	0.409095	0.518944
	H323	H	0.568719	0.394485	0.516632
	O324	O	1.016439	0.007963	1.020751
	H325	H	1.024682	0.002637	1.023055
	H326	H	1.016434	0.009999	1.025868
	O327	O	1.034389	0.995551	0.937391
	H328	H	1.019280	0.990418	0.936507
	H329	H	1.040486	1.000904	0.937358
	O330	O	0.566914	0.471847	0.595717
	H331	H	0.565652	0.482041	0.599578
	H332	H	0.575682	0.476397	0.599649
	O333	O	0.462172	0.495312	0.521051
	H334	H	0.467026	0.489488	0.513905
	H335	H	0.458863	0.498501	0.521075
	O336	O	0.513883	0.507533	0.464662
	H337	H	0.520001	0.503037	0.467516
	H338	H	0.512135	0.509594	0.466990
	O339	O	0.455026	0.505830	0.543792
	H340	H	0.455178	0.501665	0.554090
	H341	H	0.464122	0.497641	0.536626
	O342	O	0.505097	0.579118	0.539336
	H343	H	0.494648	0.575268	0.543155
	H344	H	0.512653	0.583349	0.538796
	O345	O	0.538391	0.583244	0.496265
	H346	H	0.524067	0.585087	0.495068
	H347	H	0.538991	0.594999	0.490577
