data_Molecule from HDF5

_cell_length_a		16.126254
_cell_length_b		16.414933
_cell_length_c		16.331377
_cell_angle_alpha	89.878244
_cell_angle_beta	89.961542
_cell_angle_gamma	90.124758
_symmetry_space_group_name_H-M	'P 1'
_symmetry_Int_Tables_number		1

loop_
	_symmetry_equiv_pos_as_xyz
	x,y,z

loop_
	_atom_site_label
	_atom_site_type_symbol
	_atom_site_fract_x
	_atom_site_fract_y
	_atom_site_fract_z
	H0	H	0.394741	0.830017	0.719373
	H1	H	0.604656	0.150298	0.719915
	H2	H	0.603687	0.831035	0.279404
	H3	H	0.396594	0.151136	0.280891
	H4	H	0.711059	0.395308	0.834486
	H5	H	0.717047	0.591475	0.159701
	H6	H	0.284586	0.590598	0.836323
	H7	H	0.280573	0.389724	0.159582
	H8	H	0.837076	0.709652	0.391453
	H9	H	0.161878	0.704791	0.597331
	H10	H	0.836610	0.269848	0.601396
	H11	H	0.162532	0.273091	0.396216
	H12	H	0.834996	0.388425	0.713731
	H13	H	0.162631	0.589535	0.712013
	H14	H	0.835746	0.591534	0.280278
	H15	H	0.161587	0.388157	0.279299
	H16	H	0.396672	0.710092	0.838308
	H17	H	0.604999	0.709566	0.159670
	H18	H	0.605802	0.269975	0.839667
	H19	H	0.391402	0.269955	0.158432
	H20	H	0.715005	0.827903	0.399804
	H21	H	0.719301	0.150323	0.601556
	H22	H	0.284986	0.827414	0.598409
	H23	H	0.282938	0.151231	0.400052
	H24	H	0.892164	0.330438	0.217010
	H25	H	0.101507	0.650103	0.217012
	H26	H	0.103084	0.329599	0.777479
	H27	H	0.897494	0.651195	0.777535
	H28	H	0.215331	0.892237	0.335878
	H29	H	0.213197	0.086786	0.662263
	H30	H	0.784443	0.088163	0.336739
	H31	H	0.784027	0.888404	0.661398
	H32	H	0.335919	0.209510	0.896433
	H33	H	0.661016	0.212620	0.104370
	H34	H	0.336203	0.774686	0.101072
	H35	H	0.662875	0.775819	0.899445
	H36	H	0.335233	0.893323	0.214029
	H37	H	0.662918	0.094712	0.216315
	H38	H	0.334715	0.092132	0.783200
	H39	H	0.662186	0.889557	0.782783
	H40	H	0.896381	0.206971	0.337913
	H41	H	0.105118	0.208879	0.659154
	H42	H	0.102430	0.772069	0.336824
	H43	H	0.894407	0.767956	0.658715
	H44	H	0.218108	0.329427	0.896515
	H45	H	0.213342	0.652434	0.096689
	H46	H	0.781310	0.328990	0.096507
	H47	H	0.783333	0.653171	0.895591
	H48	H	0.405530	0.106041	0.593501
	H49	H	0.588807	0.874834	0.592639
	H50	H	0.591029	0.104714	0.406415
	H51	H	0.404253	0.874941	0.410525
	H52	H	0.594053	0.399871	0.115620
	H53	H	0.583523	0.581412	0.885743
	H54	H	0.413994	0.581476	0.112453
	H55	H	0.402415	0.401318	0.881789
	H56	H	0.115973	0.580384	0.405126
	H57	H	0.883315	0.576183	0.584468
	H58	H	0.114920	0.400396	0.587946
	H59	H	0.883149	0.395319	0.411296
	H60	H	0.115733	0.397853	0.589216
	H61	H	0.881026	0.578801	0.590891
	H62	H	0.114704	0.581386	0.409523
	H63	H	0.883305	0.400727	0.406768
	H64	H	0.407405	0.590805	0.117244
	H65	H	0.588267	0.593705	0.881396
	H66	H	0.586594	0.407768	0.110755
	H67	H	0.415175	0.406003	0.887574
	H68	H	0.590199	0.104377	0.409528
	H69	H	0.588704	0.876622	0.592448
	H70	H	0.410668	0.104839	0.593470
	H71	H	0.408363	0.874179	0.401271
	H72	H	0.911417	0.604321	0.087017
	H73	H	0.091713	0.372424	0.096874
	H74	H	0.086890	0.605134	0.900292
	H75	H	0.902160	0.376357	0.909721
	H76	H	0.089969	0.906393	0.610346
	H77	H	0.085922	0.086374	0.383787
	H78	H	0.905868	0.080774	0.616329
	H79	H	0.914220	0.896776	0.385176
	H80	H	0.613475	0.073622	0.906338
	H81	H	0.383046	0.083171	0.091001
	H82	H	0.618458	0.898769	0.096381
	H83	H	0.376700	0.897323	0.894165
	H84	H	0.617148	0.895796	0.086024
	H85	H	0.383393	0.081614	0.087259
	H86	H	0.618331	0.087881	0.907193
	H87	H	0.381379	0.886483	0.920794
	H88	H	0.913248	0.076218	0.612363
	H89	H	0.097154	0.082871	0.380983
	H90	H	0.080983	0.888949	0.613083
	H91	H	0.905819	0.892583	0.380222
	H92	H	0.088910	0.602690	0.907887
	H93	H	0.080213	0.379038	0.087636
	H94	H	0.906603	0.605521	0.088184
	H95	H	0.903707	0.372766	0.898878
	H96	H	0.408002	0.104188	0.588675
	H97	H	0.589230	0.875770	0.592116
	H98	H	0.593337	0.104775	0.408270
	H99	H	0.414818	0.877882	0.408492
	H100	H	0.583312	0.396937	0.113179
	H101	H	0.596830	0.583079	0.880954
	H102	H	0.402007	0.579996	0.115014
	H103	H	0.414531	0.393115	0.882514
	H104	H	0.113898	0.576919	0.407617
	H105	H	0.881409	0.583233	0.585151
	H106	H	0.116459	0.397865	0.585961
	H107	H	0.880366	0.395147	0.404781
	H108	H	0.910056	0.604938	0.092997
	H109	H	0.094520	0.376294	0.081793
	H110	H	0.094751	0.606089	0.902637
	H111	H	0.912480	0.377414	0.905205
	H112	H	0.100013	0.891400	0.618375
	H113	H	0.089833	0.075057	0.385840
	H114	H	0.913572	0.084472	0.614028
	H115	H	0.905099	0.902311	0.384237
	H116	H	0.611250	0.081289	0.918843
	H117	H	0.383475	0.079456	0.091103
	H118	H	0.614448	0.905967	0.088610
	H119	H	0.388590	0.914272	0.914775
	C120	C	0.377112	-0.001354	0.621920
	C121	C	0.621184	0.981668	0.622498
	C122	C	0.621893	-0.001217	0.377621
	C123	C	0.378767	0.982050	0.377535
	C124	C	0.619664	0.370891	0.006935
	C125	C	0.621175	0.614567	0.989489
	C126	C	0.377913	0.613533	0.007773
	C127	C	0.378283	0.369591	0.990118
	C128	C	0.007228	0.610477	0.376402
	C129	C	0.989866	0.609835	0.617025
	C130	C	0.007800	0.368091	0.618571
	C131	C	0.990429	0.367911	0.376682
	C132	C	0.876853	0.498864	0.119223
	C133	C	0.119571	0.481890	0.119043
	C134	C	0.121176	0.498608	0.874175
	C135	C	0.876832	0.482593	0.874680
	C136	C	0.121292	0.867131	0.506917
	C137	C	0.121799	0.111311	0.490059
	C138	C	0.879391	0.110232	0.507526
	C139	C	0.877553	0.866808	0.489911
	C140	C	0.506843	0.111742	0.879323
	C141	C	0.490915	0.113120	0.120890
	C142	C	0.508484	0.870311	0.120846
	C143	C	0.490401	0.869969	0.879332
	C144	C	0.376319	0.877976	0.679684
	C145	C	0.622613	0.102161	0.680321
	C146	C	0.622106	0.878385	0.319108
	C147	C	0.378104	0.103061	0.320119
	C148	C	0.674892	0.373440	0.884171
	C149	C	0.679024	0.612275	0.111062
	C150	C	0.322103	0.611481	0.885294
	C151	C	0.319304	0.370083	0.111356
	C152	C	0.885544	0.669652	0.374024
	C153	C	0.113124	0.666506	0.616852
	C154	C	0.885084	0.309777	0.619457
	C155	C	0.113331	0.311267	0.376644
	C156	C	0.884129	0.368510	0.675508
	C157	C	0.113345	0.609200	0.673831
	C158	C	0.884754	0.610676	0.318638
	C159	C	0.112923	0.368334	0.318413
	C160	C	0.377812	0.670941	0.886363
	C161	C	0.622779	0.670822	0.111215
	C162	C	0.622399	0.311208	0.886801
	C163	C	0.374630	0.310482	0.110859
	C164	C	0.677602	0.876884	0.379121
	C165	C	0.680006	0.102336	0.621528
	C166	C	0.321563	0.876411	0.619497
	C167	C	0.321775	0.103145	0.379495
	C168	C	0.874627	0.378247	0.177156
	C169	C	0.120542	0.602312	0.177500
	C170	C	0.121922	0.377545	0.817004
	C171	C	0.877840	0.603479	0.816853
	C172	C	0.177569	0.870868	0.384587
	C173	C	0.176803	0.108359	0.612886
	C174	C	0.822480	0.108333	0.385443
	C175	C	0.821158	0.867747	0.612215
	C176	C	0.384446	0.170052	0.878115
	C177	C	0.612791	0.172624	0.122192
	C178	C	0.385097	0.813607	0.120500
	C179	C	0.613744	0.813634	0.879357
	C180	C	0.384520	0.872415	0.176617
	C181	C	0.613674	0.113955	0.178178
	C182	C	0.383985	0.111795	0.821575
	C183	C	0.613452	0.870718	0.821757
	C184	C	0.878075	0.167583	0.385929
	C185	C	0.122667	0.169021	0.611270
	C186	C	0.121503	0.811143	0.385023
	C187	C	0.876289	0.807807	0.610972
	C188	C	0.179008	0.377476	0.876230
	C189	C	0.176317	0.603369	0.117763
	C190	C	0.819390	0.377526	0.117053
	C191	C	0.820935	0.604258	0.875709
	C192	C	0.400840	0.083219	0.598709
	C193	C	0.596290	0.897671	0.599059
	C194	C	0.598570	0.082841	0.401295
	C195	C	0.402392	0.897529	0.400189
	C196	C	0.595069	0.394574	0.091300
	C197	C	0.596821	0.592420	0.904732
	C198	C	0.401028	0.590758	0.092866
	C199	C	0.403682	0.393287	0.905917
	C200	C	0.092726	0.586444	0.400482
	C201	C	0.904159	0.586224	0.593848
	C202	C	0.093344	0.391771	0.594806
	C203	C	0.904465	0.390595	0.400663
	C204	C	0.901986	0.583036	0.096130
	C205	C	0.095733	0.397761	0.095752
	C206	C	0.097122	0.582790	0.897014
	C207	C	0.899550	0.397690	0.897790
	C208	C	0.097373	0.889074	0.591938
	C209	C	0.098085	0.088394	0.405452
	C210	C	0.903673	0.087280	0.592196
	C211	C	0.901514	0.890218	0.405211
	C212	C	0.592167	0.087938	0.903769
	C213	C	0.405408	0.088541	0.096849
	C214	C	0.594299	0.893433	0.097248
	C215	C	0.404572	0.892813	0.903141
	Zn216	Zn	0.498265	-0.009401	0.750915
	Zn217	Zn	0.500255	-0.008400	0.248400
	Zn218	Zn	0.748258	0.491674	-0.002709
	Zn219	Zn	0.249783	0.490911	-0.001949
	Zn220	Zn	-0.001067	0.738257	0.497404
	Zn221	Zn	-0.000180	0.239742	0.498452
	Zn222	Zn	-0.001621	0.489736	0.745663
	Zn223	Zn	-0.001856	0.489753	0.248287
	Zn224	Zn	0.499228	0.742100	-0.000337
	Zn225	Zn	0.498970	0.240883	-0.000659
	Zn226	Zn	0.750136	-0.010835	0.499483
	Zn227	Zn	0.249317	-0.010630	0.499565
	N228	N	0.410060	0.954878	0.681336
	N229	N	0.586814	0.026131	0.680899
	N230	N	0.588617	0.955228	0.317874
	N231	N	0.412969	0.026668	0.318936
	N232	N	0.673325	0.409828	0.959849
	N233	N	0.678142	0.577914	0.034464
	N234	N	0.321920	0.576504	0.961779
	N235	N	0.321307	0.405960	0.035275
	N236	N	0.962806	0.669495	0.409313
	N237	N	0.035222	0.667281	0.582518
	N238	N	0.962897	0.309350	0.584997
	N239	N	0.035864	0.310645	0.411748
	N240	N	0.961516	0.403936	0.675369
	N241	N	0.035725	0.574659	0.673991
	N242	N	0.961566	0.574282	0.320193
	N243	N	0.035404	0.402987	0.318500
	N244	N	0.411565	0.672428	0.963743
	N245	N	0.587657	0.672558	0.034593
	N246	N	0.588398	0.309581	0.964135
	N247	N	0.410714	0.310241	0.034480
	N248	N	0.677652	0.952697	0.414832
	N249	N	0.679272	0.026284	0.586289
	N250	N	0.321720	0.952707	0.584396
	N251	N	0.321873	0.026887	0.414258
	N252	N	0.909633	0.454805	0.178747
	N253	N	0.086083	0.525695	0.178579
	N254	N	0.086716	0.453711	0.815540
	N255	N	0.911792	0.526611	0.816176
	N256	N	0.177601	0.904696	0.461507
	N257	N	0.176521	0.073204	0.536615
	N258	N	0.823000	0.073440	0.462202
	N259	N	0.821743	0.903400	0.536101
	N260	N	0.461982	0.170326	0.913204
	N261	N	0.535173	0.172211	0.087343
	N262	N	0.463297	0.811932	0.086865
	N263	N	0.536376	0.813150	0.914500
	N264	N	0.462250	0.906866	0.177001
	N265	N	0.536889	0.077508	0.177236
	N266	N	0.461155	0.076448	0.822126
	N267	N	0.535604	0.904892	0.821483
	N268	N	0.912536	0.169093	0.462826
	N269	N	0.088956	0.170961	0.533908
	N270	N	0.087294	0.808623	0.462105
	N271	N	0.910595	0.806957	0.533768
	N272	N	0.178752	0.453734	0.910983
	N273	N	0.175657	0.527592	0.082016
	N274	N	0.820453	0.453626	0.081949
	N275	N	0.820209	0.528120	0.911023
	O276	O	0.549980	0.488492	0.336717
	H277	H	0.559741	0.502218	0.330009
	H278	H	0.547175	0.482952	0.334209
	O279	O	0.589456	0.625650	0.503205
	H280	H	0.597982	0.628060	0.515935
	H281	H	0.589845	0.629867	0.511840
	O282	O	0.985150	-0.113150	0.994609
	H283	H	0.991016	-0.111559	0.996975
	H284	H	0.982673	-0.124714	0.980512
	O285	O	0.622985	0.506960	0.649642
	H286	H	0.627548	0.492663	0.649506
	H287	H	0.610174	0.482841	0.661150
	O288	O	1.141590	0.835115	0.959405
	H289	H	1.131750	0.833514	0.967713
	H290	H	1.145109	0.839198	0.957703
	O291	O	0.122728	1.068019	0.024017
	H292	H	0.108364	1.059770	0.031214
	H293	H	0.136773	1.085585	0.031431
	O294	O	0.622494	0.451258	0.667646
	H295	H	0.601216	0.434673	0.661271
	H296	H	0.633425	0.432124	0.674335
	O297	O	0.399997	0.586284	0.362194
	H298	H	0.400616	0.602713	0.334855
	H299	H	0.396251	0.566072	0.371022
	O300	O	0.614456	0.651284	0.607675
	H301	H	0.616576	0.650284	0.618184
	H302	H	0.626156	0.656600	0.623054
	O303	O	0.643659	0.395383	0.391689
	H304	H	0.634875	0.401131	0.392961
	H305	H	0.652636	0.416635	0.387095
	O306	O	0.299873	0.687148	0.385196
	H307	H	0.309298	0.692053	0.391135
	H308	H	0.300500	0.691836	0.377623
	O309	O	0.393257	0.515394	0.636828
	H310	H	0.406901	0.522788	0.633897
	H311	H	0.390603	0.526583	0.619628
	O312	O	-0.059846	-0.101194	0.010093
	H313	H	-0.054695	-0.101235	-0.007868
	H314	H	-0.065468	-0.088588	0.015418
	O315	O	0.466640	0.411201	0.365342
	H316	H	0.460118	0.401727	0.358132
	H317	H	0.472754	0.417021	0.360709
	O318	O	0.113168	0.957304	0.929592
	H319	H	0.105633	0.953021	0.930949
	H320	H	0.122606	0.971892	0.930012
	O321	O	0.408047	0.466164	0.352763
	H322	H	0.411108	0.471260	0.348374
	H323	H	0.395502	0.473853	0.366698
	O324	O	-0.151203	1.002312	-0.040709
	H325	H	-0.145954	1.004696	-0.038629
	H326	H	-0.146958	1.006980	-0.027248
	O327	O	0.590904	0.551637	0.386235
	H328	H	0.607868	0.571049	0.388502
	H329	H	0.577190	0.543626	0.387484
	O330	O	-0.039616	-0.026001	1.152679
	H331	H	-0.044642	-0.040488	1.158353
	H332	H	-0.041093	-0.034146	1.156642
	O333	O	0.011627	-0.045588	1.064969
	H334	H	0.008210	-0.038692	1.054099
	H335	H	0.019642	-0.052572	1.080192
	O336	O	0.578104	0.481996	0.582342
	H337	H	0.574760	0.474409	0.591679
	H338	H	0.582486	0.476598	0.575811
	O339	O	0.873602	0.080779	-0.084568
	H340	H	0.872577	0.087825	-0.081954
	H341	H	0.874579	0.096775	-0.089685
	O342	O	0.324010	-0.656352	0.606455
	H343	H	0.319609	-0.641911	0.601977
	H344	H	0.313622	-0.659381	0.597004
	O345	O	0.890156	-0.126786	1.027545
	H346	H	0.897562	-0.146160	1.021389
	H347	H	0.880483	-0.118668	1.043434
	O348	O	1.026290	1.161233	0.074956
	H349	H	1.026696	1.188957	0.089227
	H350	H	1.042242	1.154058	0.074729
	O351	O	0.420449	0.337201	0.616569
	H352	H	0.410991	0.329039	0.623112
	H353	H	0.399611	0.342242	0.614876
	O354	O	1.056184	-0.166128	0.996071
	H355	H	1.061564	-0.174961	0.972586
	H356	H	1.051214	-0.164427	0.984062
	O357	O	0.617966	0.394530	0.489232
	H358	H	0.617457	0.385522	0.510273
	H359	H	0.615911	0.408755	0.473396
	O360	O	0.419192	0.645188	0.532542
	H361	H	0.412394	0.645769	0.546121
	H362	H	0.423897	0.643848	0.516237
	O363	O	0.097536	1.108361	0.925338
	H364	H	0.094235	1.112353	0.932838
	H365	H	0.103181	1.120461	0.918585
	O366	O	0.455768	0.615523	0.488925
	H367	H	0.466715	0.598906	0.485625
	H368	H	0.457393	0.616743	0.495540
	O369	O	-0.119824	1.059941	-0.040429
	H370	H	-0.115762	1.061246	-0.032321
	H371	H	-0.111321	1.065374	-0.029903
	O372	O	0.415078	0.459814	0.439529
	H373	H	0.411791	0.462344	0.443828
	H374	H	0.419134	0.458072	0.447399
	O375	O	0.448211	0.617729	0.542666
	H376	H	0.447684	0.616140	0.544268
	H377	H	0.454319	0.621584	0.543504
	O378	O	0.839463	1.123624	-0.106671
	H379	H	0.838433	1.103618	-0.101628
	H380	H	0.838110	1.126682	-0.100186
	O381	O	0.953033	-0.132736	-0.079880
	H382	H	0.948215	-0.134733	-0.079818
	H383	H	0.955250	-0.115205	-0.082756
	O384	O	1.030964	0.910188	0.170985
	H385	H	1.029757	0.898721	0.170803
	H386	H	1.024839	0.908346	0.165589
	O387	O	-0.585842	0.377354	0.588127
	H388	H	-0.590501	0.385758	0.588211
	H389	H	-0.575184	0.373409	0.582442
	O390	O	-0.090624	1.070669	0.017189
	H391	H	-0.078146	1.080565	0.018844
	H392	H	-0.106181	1.063011	0.028415
	O393	O	0.875520	0.951869	0.976222
	H394	H	0.886908	0.947646	0.975497
	H395	H	0.865641	0.961559	0.972601
	O396	O	0.553069	0.477715	0.435856
	H397	H	0.562860	0.479302	0.434567
	H398	H	0.557138	0.472638	0.434119
	O399	O	0.155663	1.088034	1.075832
	H400	H	0.153858	1.079172	1.080694
	H401	H	0.158671	1.088364	1.076202
	O402	O	0.604622	0.290259	0.448945
	H403	H	0.600353	0.301371	0.429841
	H404	H	0.630584	0.278416	0.431484
	O405	O	0.968626	0.998080	-0.125669
	H406	H	0.956322	1.006196	-0.133598
	H407	H	0.970004	0.985971	-0.120274
	O408	O	1.125186	1.005339	-0.028451
	H409	H	1.141090	1.014180	-0.034113
	H410	H	1.110991	0.997075	-0.036428
	O411	O	1.088692	-0.002070	1.029330
	H412	H	1.072453	-0.009367	1.019561
	H413	H	1.094298	-0.004272	1.020347
	O414	O	0.555259	0.459683	0.618604
	H415	H	0.538528	0.457549	0.620536
	H416	H	0.552740	0.463077	0.628762
	O417	O	0.380007	0.466329	0.400508
	H418	H	0.370319	0.459211	0.409688
	H419	H	0.397998	0.478083	0.394928
