data_Molecule from HDF5

_cell_length_a		16.601056
_cell_length_b		16.543038
_cell_length_c		16.733669
_cell_angle_alpha	90.026709
_cell_angle_beta	90.100442
_cell_angle_gamma	90.043798
_symmetry_space_group_name_H-M	'P 1'
_symmetry_Int_Tables_number		1

loop_
	_symmetry_equiv_pos_as_xyz
	x,y,z

loop_
	_atom_site_label
	_atom_site_type_symbol
	_atom_site_fract_x
	_atom_site_fract_y
	_atom_site_fract_z
	H0	H	0.385361	0.842542	0.723202
	H1	H	0.604702	0.149662	0.723221
	H2	H	0.602098	0.842337	0.275874
	H3	H	0.391470	0.153700	0.278584
	H4	H	0.721247	0.387359	0.845892
	H5	H	0.719542	0.604077	0.151885
	H6	H	0.268750	0.605705	0.846141
	H7	H	0.269965	0.386144	0.150252
	H8	H	0.840801	0.719565	0.392178
	H9	H	0.151803	0.719077	0.604713
	H10	H	0.838721	0.277664	0.601475
	H11	H	0.149996	0.274697	0.392323
	H12	H	0.839704	0.392833	0.718142
	H13	H	0.150491	0.605216	0.722553
	H14	H	0.841704	0.605709	0.274202
	H15	H	0.147894	0.387220	0.272825
	H16	H	0.384655	0.722552	0.846585
	H17	H	0.600330	0.718542	0.152874
	H18	H	0.607730	0.268977	0.846679
	H19	H	0.389269	0.273601	0.152033
	H20	H	0.718251	0.842273	0.392267
	H21	H	0.717497	0.151958	0.604668
	H22	H	0.272600	0.841234	0.605473
	H23	H	0.276586	0.154043	0.396065
	H24	H	0.888844	0.341445	0.219767
	H25	H	0.104961	0.649502	0.223801
	H26	H	0.102563	0.342203	0.775711
	H27	H	0.887793	0.651900	0.775208
	H28	H	0.216293	0.892805	0.343884
	H29	H	0.221161	0.104945	0.652821
	H30	H	0.772905	0.103405	0.344981
	H31	H	0.770500	0.887869	0.651165
	H32	H	0.343334	0.223064	0.887089
	H33	H	0.652039	0.215687	0.099679
	H34	H	0.340018	0.774667	0.103396
	H35	H	0.648407	0.771389	0.890676
	H36	H	0.340567	0.890638	0.220547
	H37	H	0.650995	0.102021	0.219037
	H38	H	0.343206	0.108510	0.770091
	H39	H	0.647238	0.884936	0.772603
	H40	H	0.891839	0.217706	0.344210
	H41	H	0.104417	0.220920	0.653082
	H42	H	0.101678	0.773383	0.345510
	H43	H	0.888284	0.773544	0.652823
	H44	H	0.216911	0.341599	0.893129
	H45	H	0.220715	0.649774	0.108013
	H46	H	0.777610	0.339195	0.100063
	H47	H	0.772078	0.651839	0.891673
	H48	H	0.414444	0.105857	0.586322
	H49	H	0.584408	0.884414	0.584058
	H50	H	0.585208	0.108644	0.411158
	H51	H	0.404103	0.884877	0.411883
	H52	H	0.581550	0.413069	0.105541
	H53	H	0.584573	0.576887	0.890923
	H54	H	0.408170	0.581260	0.107419
	H55	H	0.410154	0.415087	0.891628
	H56	H	0.105990	0.585079	0.412903
	H57	H	0.882116	0.589627	0.589786
	H58	H	0.107344	0.408981	0.587744
	H59	H	0.883645	0.407739	0.409310
	H60	H	0.107070	0.410021	0.589304
	H61	H	0.887173	0.586192	0.581887
	H62	H	0.103806	0.580450	0.414238
	H63	H	0.883885	0.409243	0.409373
	H64	H	0.409990	0.584378	0.108265
	H65	H	0.576636	0.587172	0.888921
	H66	H	0.582094	0.400460	0.109997
	H67	H	0.412214	0.406031	0.887650
	H68	H	0.585836	0.110071	0.407172
	H69	H	0.578861	0.885251	0.586823
	H70	H	0.409798	0.105640	0.581852
	H71	H	0.403913	0.882403	0.405218
	H72	H	0.903299	0.608050	0.080365
	H73	H	0.080503	0.385447	0.086778
	H74	H	0.080232	0.606969	0.914316
	H75	H	0.909290	0.382999	0.901133
	H76	H	0.089742	0.906862	0.611373
	H77	H	0.086900	0.090776	0.387093
	H78	H	0.908854	0.082907	0.607262
	H79	H	0.904995	0.913167	0.389440
	H80	H	0.606582	0.076577	0.902198
	H81	H	0.382457	0.086572	0.088515
	H82	H	0.609072	0.903813	0.088707
	H83	H	0.386536	0.917418	0.909328
	H84	H	0.605173	0.908814	0.083972
	H85	H	0.382907	0.085318	0.088686
	H86	H	0.608025	0.090750	0.913680
	H87	H	0.382498	0.905961	0.907518
	H88	H	0.908730	0.089110	0.610533
	H89	H	0.088762	0.082104	0.389045
	H90	H	0.085100	0.914752	0.607725
	H91	H	0.912556	0.909324	0.391340
	H92	H	0.086371	0.609516	0.911638
	H93	H	0.081358	0.385688	0.084370
	H94	H	0.904876	0.612232	0.093529
	H95	H	0.914111	0.388580	0.912983
	H96	H	0.408063	0.108073	0.587243
	H97	H	0.580096	0.887971	0.581485
	H98	H	0.581781	0.108707	0.408470
	H99	H	0.409614	0.885647	0.407619
	H100	H	0.592027	0.408510	0.110547
	H101	H	0.589273	0.587556	0.885166
	H102	H	0.406958	0.584227	0.108998
	H103	H	0.403039	0.410337	0.886611
	H104	H	0.105482	0.581501	0.409056
	H105	H	0.885220	0.580282	0.590244
	H106	H	0.108258	0.408425	0.588865
	H107	H	0.883739	0.408711	0.408097
	H108	H	0.915703	0.606737	0.086978
	H109	H	0.082884	0.384456	0.085900
	H110	H	0.080159	0.609374	0.907616
	H111	H	0.901276	0.384162	0.912476
	H112	H	0.080192	0.906346	0.608713
	H113	H	0.080345	0.086001	0.390954
	H114	H	0.903242	0.084755	0.610390
	H115	H	0.906566	0.905011	0.386803
	H116	H	0.599837	0.075148	0.918970
	H117	H	0.382112	0.085929	0.089734
	H118	H	0.607226	0.911328	0.091101
	H119	H	0.386550	0.909581	0.918272
	C120	C	0.375204	0.004741	0.619364
	C121	C	0.615658	0.987635	0.618667
	C122	C	0.616803	0.005838	0.376774
	C123	C	0.374700	0.988438	0.377194
	C124	C	0.618547	0.374116	0.007108
	C125	C	0.616631	0.617633	0.990072
	C126	C	0.373154	0.617830	0.007302
	C127	C	0.374715	0.375792	0.989763
	C128	C	0.003390	0.616723	0.378127
	C129	C	0.987433	0.618674	0.620383
	C130	C	0.004273	0.376648	0.619983
	C131	C	0.986128	0.375093	0.376363
	C132	C	0.875756	0.505193	0.118333
	C133	C	0.116461	0.487076	0.120140
	C134	C	0.115470	0.505729	0.878230
	C135	C	0.874718	0.488428	0.876844
	C136	C	0.117359	0.876388	0.507270
	C137	C	0.118048	0.119101	0.491127
	C138	C	0.874573	0.118235	0.507303
	C139	C	0.874615	0.875800	0.490736
	C140	C	0.503949	0.117079	0.876516
	C141	C	0.486346	0.117803	0.119471
	C142	C	0.504058	0.875512	0.119988
	C143	C	0.486519	0.875618	0.877499
	C144	C	0.369387	0.888727	0.681712
	C145	C	0.621105	0.103671	0.681465
	C146	C	0.620020	0.888790	0.316213
	C147	C	0.373185	0.106594	0.318585
	C148	C	0.680773	0.369758	0.891903
	C149	C	0.678291	0.621366	0.105787
	C150	C	0.309881	0.622982	0.892326
	C151	C	0.311797	0.369932	0.104454
	C152	C	0.887590	0.679259	0.374009
	C153	C	0.104759	0.679210	0.622941
	C154	C	0.886200	0.317279	0.620460
	C155	C	0.103116	0.314333	0.373700
	C156	C	0.886523	0.374491	0.678629
	C157	C	0.104198	0.622308	0.681399
	C158	C	0.887996	0.622502	0.315385
	C159	C	0.102052	0.370512	0.314545
	C160	C	0.367706	0.681016	0.892369
	C161	C	0.619517	0.678644	0.106240
	C162	C	0.623962	0.310991	0.892415
	C163	C	0.370948	0.313526	0.105215
	C164	C	0.677744	0.888877	0.374008
	C165	C	0.677439	0.104692	0.622828
	C166	C	0.312787	0.888261	0.623413
	C167	C	0.316178	0.106977	0.376858
	C168	C	0.872219	0.387883	0.178657
	C169	C	0.122042	0.603174	0.182680
	C170	C	0.119753	0.388998	0.816634
	C171	C	0.870481	0.605552	0.816070
	C172	C	0.176848	0.873730	0.390444
	C173	C	0.179998	0.122696	0.606620
	C174	C	0.813772	0.121176	0.391175
	C175	C	0.812115	0.871236	0.605581
	C176	C	0.389195	0.181314	0.870675
	C177	C	0.604810	0.176568	0.119588
	C178	C	0.386625	0.815354	0.121914
	C179	C	0.602054	0.812443	0.873180
	C180	C	0.387233	0.872786	0.180024
	C181	C	0.604333	0.120242	0.178753
	C182	C	0.389299	0.124120	0.812590
	C183	C	0.601597	0.869109	0.814552
	C184	C	0.872823	0.178025	0.390704
	C185	C	0.121866	0.180449	0.606757
	C186	C	0.119547	0.814984	0.391279
	C187	C	0.870738	0.814188	0.606258
	C188	C	0.176464	0.388281	0.875100
	C189	C	0.179636	0.603215	0.125214
	C190	C	0.816543	0.386776	0.119339
	C191	C	0.812893	0.605258	0.873743
	C192	C	0.402777	0.085604	0.592575
	C193	C	0.588784	0.906913	0.591805
	C194	C	0.591388	0.087809	0.401893
	C195	C	0.398889	0.906084	0.401206
	C196	C	0.592455	0.400138	0.087673
	C197	C	0.590733	0.591626	0.909348
	C198	C	0.400430	0.590796	0.087297
	C199	C	0.401082	0.402748	0.909583
	C200	C	0.084082	0.589755	0.404595
	C201	C	0.905968	0.592786	0.594684
	C202	C	0.086312	0.401945	0.595628
	C203	C	0.904939	0.401024	0.401715
	C204	C	0.900763	0.587432	0.093879
	C205	C	0.089317	0.406108	0.093217
	C206	C	0.089656	0.587300	0.904167
	C207	C	0.900841	0.406577	0.901753
	C208	C	0.092289	0.902151	0.588284
	C209	C	0.092493	0.093572	0.410204
	C210	C	0.899694	0.092921	0.588322
	C211	C	0.900663	0.901829	0.410137
	C212	C	0.583973	0.088945	0.904011
	C213	C	0.404123	0.092968	0.095745
	C214	C	0.585782	0.900815	0.094816
	C215	C	0.405994	0.903112	0.904065
	Zn216	Zn	0.495572	-0.004353	0.747792
	Zn217	Zn	0.495707	-0.002987	0.248421
	Zn218	Zn	0.746342	0.496350	-0.001849
	Zn219	Zn	0.244338	0.495935	-0.001196
	Zn220	Zn	-0.004107	0.746684	0.498661
	Zn221	Zn	-0.003948	0.247977	0.499067
	Zn222	Zn	-0.004586	0.497405	0.748674
	Zn223	Zn	-0.004877	0.496863	0.247757
	Zn224	Zn	0.494896	0.746687	-0.001378
	Zn225	Zn	0.495588	0.246102	-0.002545
	Zn226	Zn	0.744698	-0.003629	0.498914
	Zn227	Zn	0.247013	-0.002984	0.498530
	N228	N	0.407323	0.962407	0.679510
	N229	N	0.583565	0.029770	0.679165
	N230	N	0.582815	0.962668	0.317741
	N231	N	0.408922	0.031862	0.318598
	N232	N	0.677615	0.408276	0.964296
	N233	N	0.676940	0.584299	0.032368
	N234	N	0.313133	0.584374	0.964882
	N235	N	0.313770	0.407723	0.031470
	N236	N	0.960430	0.675946	0.412553
	N237	N	0.030996	0.677392	0.585783
	N238	N	0.960773	0.318042	0.585004
	N239	N	0.029989	0.316963	0.411458
	N240	N	0.961085	0.410381	0.678662
	N241	N	0.030005	0.585503	0.680024
	N242	N	0.961194	0.584368	0.317722
	N243	N	0.028250	0.407484	0.315853
	N244	N	0.406473	0.677960	0.964886
	N245	N	0.581857	0.676423	0.033153
	N246	N	0.585827	0.313444	0.965098
	N247	N	0.409293	0.316707	0.032568
	N248	N	0.675900	0.962802	0.410860
	N249	N	0.674340	0.031544	0.584407
	N250	N	0.316348	0.961580	0.585199
	N251	N	0.316952	0.032388	0.412718
	N252	N	0.908187	0.462634	0.178270
	N253	N	0.083492	0.529938	0.179565
	N254	N	0.082718	0.463161	0.818230
	N255	N	0.908058	0.531677	0.817823
	N256	N	0.175711	0.911007	0.463776
	N257	N	0.177928	0.085261	0.533470
	N258	N	0.814477	0.084650	0.464785
	N259	N	0.814372	0.908944	0.532644
	N260	N	0.461593	0.176866	0.910138
	N261	N	0.530308	0.175591	0.083763
	N262	N	0.460521	0.816774	0.085236
	N263	N	0.529471	0.816420	0.911926
	N264	N	0.461467	0.909198	0.179102
	N265	N	0.529520	0.084787	0.179231
	N266	N	0.461873	0.084762	0.816097
	N267	N	0.528689	0.907739	0.817102
	N268	N	0.909904	0.176399	0.464019
	N269	N	0.084218	0.178570	0.533647
	N270	N	0.083513	0.816217	0.464939
	N271	N	0.908893	0.816765	0.533697
	N272	N	0.174057	0.462015	0.912507
	N273	N	0.176409	0.529875	0.086976
	N274	N	0.818378	0.460842	0.082583
	N275	N	0.815321	0.531368	0.910810
	O276	O	-0.012883	0.768450	-0.008651
	H277	H	-0.017082	0.768528	-0.025255
	H278	H	-0.007618	0.778552	-0.016526
	O279	O	0.567534	0.585437	0.338561
	H280	H	0.569642	0.567403	0.340117
	H281	H	0.585214	0.570786	0.351398
	O282	O	0.803769	0.184348	1.191583
	H283	H	0.811610	0.157006	1.174657
	H284	H	0.820993	0.185754	1.181027
	O285	O	0.560719	0.440884	0.621052
	H286	H	0.536927	0.441496	0.627252
	H287	H	0.551551	0.448594	0.613369
	O288	O	0.698535	0.713684	0.535123
	H289	H	0.709350	0.713728	0.551417
	H290	H	0.710400	0.723570	0.556257
	O291	O	0.334129	0.612017	0.550176
	H292	H	0.322067	0.616904	0.548162
	H293	H	0.333058	0.623034	0.553400
	O294	O	1.006848	0.221501	0.964187
	H295	H	1.019083	0.225905	0.952109
	H296	H	1.019590	0.225829	0.955606
	O297	O	0.464381	0.712139	0.296121
	H298	H	0.485016	0.702202	0.304475
	H299	H	0.475951	0.730654	0.290915
	O300	O	-0.032341	0.219387	0.769439
	H301	H	-0.027876	0.223591	0.758741
	H302	H	-0.038774	0.232800	0.764767
	O303	O	0.565600	0.363790	0.545797
	H304	H	0.559501	0.372554	0.560072
	H305	H	0.569128	0.367617	0.532384
	O306	O	0.291334	0.498990	0.281162
	H307	H	0.276711	0.522331	0.273805
	H308	H	0.295427	0.520698	0.269303
	O309	O	0.496682	0.715306	0.654685
	H310	H	0.509103	0.721081	0.669858
	H311	H	0.509585	0.715414	0.661126
	O312	O	0.546036	0.621454	0.659786
	H313	H	0.553413	0.636571	0.663840
	H314	H	0.547451	0.622717	0.665960
	O315	O	1.145139	1.043184	0.948322
	H316	H	1.137941	1.041616	0.948443
	H317	H	1.143098	1.059815	0.959656
	O318	O	0.453899	0.490309	0.268640
	H319	H	0.462736	0.498261	0.287644
	H320	H	0.449155	0.485870	0.258689
	O321	O	0.127976	0.989795	0.778476
	H322	H	0.143438	0.998556	0.784343
	H323	H	0.135554	1.005978	0.770772
	O324	O	0.979306	0.784701	0.214652
	H325	H	0.963925	0.765401	0.216534
	H326	H	0.955841	0.776951	0.214811
	O327	O	0.085516	-0.023107	1.023829
	H328	H	0.082640	-0.022696	1.024508
	H329	H	0.093249	-0.009447	1.025933
	O330	O	0.390860	0.339994	0.560587
	H331	H	0.389550	0.336875	0.543354
	H332	H	0.371925	0.347382	0.551583
	O333	O	0.482604	0.286706	0.724825
	H334	H	0.465216	0.275787	0.721170
	H335	H	0.464366	0.274720	0.731610
	O336	O	0.701689	0.291869	0.288752
	H337	H	0.697636	0.277585	0.298730
	H338	H	0.717888	0.271988	0.300173
	O339	O	0.935416	-0.066252	0.781275
	H340	H	0.939418	-0.068661	0.779400
	H341	H	0.927610	-0.055914	0.783279
	O342	O	-0.048417	0.173391	0.072701
	H343	H	-0.037661	0.169828	0.060066
	H344	H	-0.039702	0.183927	0.094481
	O345	O	0.010186	0.980135	0.951730
	H346	H	0.003602	1.002768	0.951852
	H347	H	0.010350	0.976323	0.955825
	O348	O	0.306720	0.307991	0.308737
	H349	H	0.331341	0.317858	0.331735
	H350	H	0.312176	0.339476	0.320307
	O351	O	0.777406	0.774930	0.218694
	H352	H	0.768290	0.767780	0.200096
	H353	H	0.752986	0.762896	0.239618
	O354	O	-0.019272	0.050709	0.827108
	H355	H	-0.031171	0.046715	0.827950
	H356	H	-0.019350	0.059639	0.831800
	O357	O	0.668239	0.687450	0.328190
	H358	H	0.655182	0.670540	0.349595
	H359	H	0.652496	0.672392	0.343325
	O360	O	0.285825	0.295495	0.714137
	H361	H	0.292712	0.298701	0.675165
	H362	H	0.285401	0.310766	0.718426
	O363	O	-0.205646	0.202647	-0.018232
	H364	H	-0.215095	0.208357	-0.019199
	H365	H	-0.206076	0.210283	-0.017088
	O366	O	0.294798	0.290581	0.519142
	H367	H	0.297579	0.298958	0.507724
	H368	H	0.275445	0.300132	0.510353
	O369	O	0.771466	0.051611	0.063724
	H370	H	0.775962	0.045657	0.078587
	H371	H	0.765927	0.046078	0.046265
	O372	O	0.940538	0.937525	0.115727
	H373	H	0.939370	0.937914	0.115879
	H374	H	0.928167	0.937562	0.111168
	O375	O	0.782731	-0.034232	0.220175
	H376	H	0.776359	-0.046858	0.220506
	H377	H	0.772710	-0.045963	0.232560
	O378	O	0.337970	0.641564	0.676761
	H379	H	0.339828	0.651173	0.660257
	H380	H	0.327526	0.652087	0.683928
	O381	O	0.024454	0.774587	0.777188
	H382	H	0.031900	0.759110	0.757930
	H383	H	0.028087	0.783945	0.769154
	O384	O	0.757749	-0.063435	0.945398
	H385	H	0.763195	-0.051574	0.941093
	H386	H	0.753699	-0.073053	0.929566
	O387	O	1.198694	0.794925	-0.207375
	H388	H	1.204849	0.827674	-0.213275
	H389	H	1.180135	0.796077	-0.185720
	O390	O	0.516085	0.683202	0.525666
	H391	H	0.509705	0.693511	0.534248
	H392	H	0.515764	0.687869	0.543719
	O393	O	0.693035	0.458755	0.627332
	H394	H	0.684132	0.462946	0.628519
	H395	H	0.687732	0.462971	0.621176
	O396	O	0.411591	0.538159	0.626917
	H397	H	0.419383	0.551110	0.625914
	H398	H	0.411555	0.538856	0.613092
	O399	O	0.221584	0.212507	1.016475
	H400	H	0.213754	0.212039	1.044292
	H401	H	0.244052	0.238555	1.038068
	O402	O	0.504576	0.296879	0.448936
	H403	H	0.513495	0.300172	0.450238
	H404	H	0.501438	0.298519	0.437925
	O405	O	0.772893	0.018136	0.778716
	H406	H	0.758897	0.034023	0.760334
	H407	H	0.774819	0.042925	0.775899
	O408	O	0.035002	0.006602	0.224759
	H409	H	0.033516	0.009979	0.214827
	H410	H	0.039106	-0.016791	0.227954
	O411	O	0.699916	0.706248	0.705199
	H412	H	0.706414	0.675281	0.715123
	H413	H	0.727493	0.718257	0.725248
	O414	O	0.684661	0.309145	0.689338
	H415	H	0.678603	0.333367	0.673760
	H416	H	0.665383	0.310328	0.690096
	O417	O	0.530916	0.276784	0.270406
	H418	H	0.557131	0.274512	0.268962
	H419	H	0.525277	0.262857	0.244264
	O420	O	0.696731	0.530246	0.433758
	H421	H	0.697445	0.531921	0.438886
	H422	H	0.703195	0.516905	0.425988
	O423	O	0.211694	-0.219290	0.977149
	H424	H	0.224851	-0.234010	0.960573
	H425	H	0.201608	-0.230801	0.979157
	O426	O	0.485728	0.437083	0.554404
	H427	H	0.480186	0.444228	0.551059
	H428	H	0.479298	0.436636	0.556462
	O429	O	0.807327	0.811070	0.813879
	H430	H	0.824385	0.825220	0.834280
	H431	H	0.825455	0.835394	0.822286
	O432	O	0.599984	0.474836	0.471874
	H433	H	0.595452	0.479299	0.471535
	H434	H	0.595553	0.477072	0.477916
	O435	O	0.187397	0.806871	0.189133
	H436	H	0.165808	0.819885	0.171926
	H437	H	0.168152	0.821672	0.167572
	O438	O	0.182770	0.145676	0.107184
	H439	H	0.192702	0.128337	0.118242
	H440	H	0.185625	0.168211	0.122677
	O441	O	0.022526	0.218550	0.216550
	H442	H	0.028802	0.220828	0.228107
	H443	H	0.037701	0.223690	0.232457
	O444	O	0.369203	0.391708	0.425028
	H445	H	0.367723	0.413394	0.431519
	H446	H	0.375388	0.395896	0.420743
	O447	O	0.157377	0.948149	0.854500
	H448	H	0.164448	0.962240	0.862486
	H449	H	0.170619	0.961156	0.862147
	O450	O	0.194639	0.996092	1.125323
	H451	H	0.193652	0.995478	1.119523
	H452	H	0.181951	0.989265	1.126290
	O453	O	0.274947	0.468234	0.721742
	H454	H	0.256087	0.474588	0.724276
	H455	H	0.275265	0.470823	0.730419
	O456	O	0.164581	0.163171	0.831389
	H457	H	0.175627	0.178390	0.822478
	H458	H	0.162491	0.155789	0.845205
	O459	O	0.909981	0.915923	0.062445
	H460	H	0.903153	0.924743	0.068573
	H461	H	0.910114	0.928318	0.059767
	O462	O	0.714255	0.467835	0.271342
	H463	H	0.718149	0.434466	0.266100
	H464	H	0.731161	0.448286	0.252663
	O465	O	0.780439	-0.219012	0.026861
	H466	H	0.770680	-0.233201	0.017834
	H467	H	0.784221	-0.213503	0.032499
	O468	O	0.271984	0.717589	0.469524
	H469	H	0.261906	0.728947	0.441533
	H470	H	0.259445	0.728998	0.448547
	O471	O	0.269420	0.473258	0.516684
	H472	H	0.269904	0.484657	0.527949
	H473	H	0.277273	0.497980	0.517016
	O474	O	0.283336	0.705143	0.290460
	H475	H	0.268560	0.731920	0.260265
	H476	H	0.317432	0.712553	0.279132
	O477	O	0.423485	0.561755	1.331223
	H478	H	0.425631	0.575794	1.333876
	H479	H	0.428276	0.574764	1.316499
	O480	O	0.713531	0.281461	0.454715
	H481	H	0.722053	0.265027	0.461362
	H482	H	0.702014	0.277038	0.474558
	O483	O	0.686233	0.540262	0.686537
	H484	H	0.685638	0.535575	0.693074
	H485	H	0.689409	0.519739	0.697894
	O486	O	0.790595	0.203831	0.787886
	H487	H	0.774416	0.216565	0.777720
	H488	H	0.814678	0.213862	0.798428
	O489	O	1.049258	0.838584	0.134424
	H490	H	1.033518	0.840527	0.119833
	H491	H	1.043696	0.827138	0.144409
	O492	O	0.211776	0.127306	0.217494
	H493	H	0.225926	0.137470	0.240333
	H494	H	0.213933	0.102461	0.220992
	O495	O	0.121535	1.011659	0.994516
	H496	H	0.134067	1.018947	0.995206
	H497	H	0.117529	1.009921	0.993833
	O498	O	0.917430	1.071636	0.980348
	H499	H	0.926561	1.081628	0.984666
	H500	H	0.915052	1.080924	0.986039
	O501	O	0.513787	0.598153	0.542843
	H502	H	0.510970	0.600284	0.535498
	H503	H	0.513607	0.603037	0.543083
