data_Molecule from HDF5

_cell_length_a		16.306840
_cell_length_b		16.169111
_cell_length_c		16.188748
_cell_angle_alpha	89.687787
_cell_angle_beta	90.090552
_cell_angle_gamma	90.118160
_symmetry_space_group_name_H-M	'P 1'
_symmetry_Int_Tables_number		1

loop_
	_symmetry_equiv_pos_as_xyz
	x,y,z

loop_
	_atom_site_label
	_atom_site_type_symbol
	_atom_site_fract_x
	_atom_site_fract_y
	_atom_site_fract_z
	H0	H	0.412700	0.831219	0.711624
	H1	H	0.607801	0.161294	0.712123
	H2	H	0.607061	0.830941	0.289293
	H3	H	0.411654	0.161417	0.284275
	H4	H	0.723191	0.396711	0.835208
	H5	H	0.723784	0.593460	0.163741
	H6	H	0.295494	0.594838	0.834172
	H7	H	0.293777	0.393550	0.163164
	H8	H	0.845010	0.712068	0.399721
	H9	H	0.172981	0.710427	0.597431
	H10	H	0.845860	0.281025	0.598445
	H11	H	0.172912	0.284234	0.402576
	H12	H	0.844872	0.398465	0.713295
	H13	H	0.172334	0.595141	0.714616
	H14	H	0.844966	0.595989	0.282948
	H15	H	0.172030	0.398414	0.285234
	H16	H	0.412659	0.709325	0.833689
	H17	H	0.607499	0.707257	0.164439
	H18	H	0.605476	0.283299	0.834519
	H19	H	0.412227	0.280854	0.164024
	H20	H	0.724273	0.832990	0.402284
	H21	H	0.724519	0.160755	0.598542
	H22	H	0.293331	0.833756	0.600688
	H23	H	0.295928	0.161848	0.398919
	H24	H	0.910160	0.331934	0.214428
	H25	H	0.106704	0.661847	0.210864
	H26	H	0.105549	0.331558	0.787419
	H27	H	0.911880	0.661497	0.786828
	H28	H	0.224704	0.897958	0.335012
	H29	H	0.223534	0.095637	0.664238
	H30	H	0.793897	0.098836	0.335916
	H31	H	0.795219	0.895916	0.663900
	H32	H	0.345317	0.209354	0.899317
	H33	H	0.672895	0.208999	0.097323
	H34	H	0.344742	0.780722	0.097078
	H35	H	0.674739	0.783986	0.903455
	H36	H	0.345461	0.896572	0.215064
	H37	H	0.672637	0.093319	0.213271
	H38	H	0.345620	0.093118	0.784475
	H39	H	0.673703	0.898461	0.785836
	H40	H	0.911666	0.211035	0.334891
	H41	H	0.106732	0.209292	0.664509
	H42	H	0.106523	0.784063	0.334763
	H43	H	0.912385	0.782358	0.664601
	H44	H	0.222609	0.331375	0.900071
	H45	H	0.226153	0.660037	0.098841
	H46	H	0.793550	0.331994	0.100779
	H47	H	0.795119	0.660479	0.898900
	H48	H	0.421310	0.110941	0.583689
	H49	H	0.600871	0.878435	0.597879
	H50	H	0.608640	0.114980	0.410780
	H51	H	0.420109	0.878997	0.403178
	H52	H	0.590946	0.398523	0.114533
	H53	H	0.608362	0.584890	0.881165
	H54	H	0.415545	0.585375	0.116371
	H55	H	0.403980	0.408396	0.879612
	H56	H	0.125423	0.582726	0.397774
	H57	H	0.890941	0.591180	0.596544
	H58	H	0.125388	0.407169	0.597475
	H59	H	0.890949	0.401900	0.402820
	H60	H	0.128001	0.399708	0.596151
	H61	H	0.892108	0.592290	0.589766
	H62	H	0.129013	0.601449	0.402401
	H63	H	0.892179	0.401386	0.409594
	H64	H	0.418119	0.586217	0.115614
	H65	H	0.597318	0.586757	0.884033
	H66	H	0.610979	0.395552	0.121826
	H67	H	0.423853	0.408834	0.886427
	H68	H	0.603468	0.116657	0.398852
	H69	H	0.601700	0.880411	0.587615
	H70	H	0.406274	0.118044	0.591225
	H71	H	0.417357	0.882647	0.414997
	H72	H	0.914659	0.617672	0.100421
	H73	H	0.097030	0.376986	0.103882
	H74	H	0.096740	0.611489	0.908574
	H75	H	0.916987	0.376782	0.901385
	H76	H	0.101506	0.900095	0.617531
	H77	H	0.107315	0.094769	0.379368
	H78	H	0.913097	0.072723	0.613762
	H79	H	0.908523	0.908468	0.379901
	H80	H	0.623121	0.094366	0.920810
	H81	H	0.393387	0.085452	0.092072
	H82	H	0.624844	0.905619	0.097240
	H83	H	0.393321	0.903113	0.904712
	H84	H	0.627869	0.896481	0.097028
	H85	H	0.391184	0.088043	0.094331
	H86	H	0.622878	0.074513	0.902787
	H87	H	0.392601	0.899326	0.904103
	H88	H	0.931703	0.094918	0.615113
	H89	H	0.104196	0.084185	0.383112
	H90	H	0.106349	0.903571	0.617094
	H91	H	0.921504	0.910364	0.385384
	H92	H	0.108889	0.613997	0.911924
	H93	H	0.094636	0.383945	0.083867
	H94	H	0.926154	0.609494	0.087441
	H95	H	0.918468	0.380981	0.911363
	H96	H	0.420240	0.116174	0.600672
	H97	H	0.609186	0.877001	0.593822
	H98	H	0.596602	0.112426	0.408916
	H99	H	0.408631	0.876559	0.407581
	H100	H	0.604797	0.415003	0.113851
	H101	H	0.603572	0.594965	0.880105
	H102	H	0.416412	0.587942	0.116771
	H103	H	0.416079	0.391750	0.878185
	H104	H	0.120997	0.588473	0.416827
	H105	H	0.893431	0.585362	0.592789
	H106	H	0.124609	0.404232	0.589886
	H107	H	0.892702	0.407379	0.406884
	H108	H	0.908106	0.613662	0.082473
	H109	H	0.112667	0.376187	0.090054
	H110	H	0.105452	0.616933	0.900335
	H111	H	0.909315	0.376553	0.908786
	H112	H	0.101049	0.906381	0.615904
	H113	H	0.096140	0.093417	0.382943
	H114	H	0.904522	0.098391	0.623600
	H115	H	0.917658	0.898017	0.381009
	H116	H	0.631556	0.099487	0.895792
	H117	H	0.392153	0.088844	0.090755
	H118	H	0.624559	0.901648	0.089060
	H119	H	0.392921	0.901597	0.908343
	C120	C	0.387714	0.006044	0.620561
	C121	C	0.631662	0.987939	0.621022
	C122	C	0.631195	0.005529	0.378477
	C123	C	0.387387	0.988300	0.378515
	C124	C	0.630853	0.374230	0.008301
	C125	C	0.631664	0.617174	0.990479
	C126	C	0.388301	0.615772	0.007532
	C127	C	0.386470	0.373292	0.990208
	C128	C	0.016881	0.619024	0.376783
	C129	C	1.000375	0.618189	0.621502
	C130	C	0.017689	0.374773	0.622212
	C131	C	1.000387	0.375286	0.378369
	C132	C	0.887583	0.504951	0.120064
	C133	C	0.130939	0.487624	0.120993
	C134	C	0.130872	0.504623	0.878473
	C135	C	0.887106	0.487312	0.878130
	C136	C	0.131339	0.875310	0.507907
	C137	C	0.130814	0.118750	0.490905
	C138	C	0.888320	0.118123	0.508325
	C139	C	0.888224	0.875763	0.491169
	C140	C	0.517516	0.117457	0.877549
	C141	C	0.500418	0.116388	0.120885
	C142	C	0.517414	0.872534	0.122661
	C143	C	0.501686	0.873975	0.878010
	C144	C	0.391234	0.881022	0.674914
	C145	C	0.628313	0.112174	0.674979
	C146	C	0.627701	0.880889	0.325588
	C147	C	0.391153	0.112360	0.322354
	C148	C	0.685415	0.376788	0.884153
	C149	C	0.686452	0.614121	0.114535
	C150	C	0.333580	0.614444	0.883171
	C151	C	0.331692	0.374259	0.114049
	C152	C	0.893688	0.673985	0.379423
	C153	C	0.123966	0.673117	0.618433
	C154	C	0.894343	0.319520	0.618838
	C155	C	0.123771	0.321220	0.381731
	C156	C	0.893915	0.377599	0.676020
	C157	C	0.123552	0.615949	0.676630
	C158	C	0.893771	0.616479	0.321412
	C159	C	0.123246	0.377822	0.323220
	C160	C	0.391429	0.671509	0.882859
	C161	C	0.628298	0.670535	0.114886
	C162	C	0.626836	0.320582	0.883893
	C163	C	0.390266	0.318001	0.114665
	C164	C	0.686098	0.881664	0.381800
	C165	C	0.686447	0.111963	0.618648
	C166	C	0.331996	0.882150	0.619577
	C167	C	0.333398	0.112507	0.379110
	C168	C	0.890138	0.380901	0.176165
	C169	C	0.128098	0.612244	0.174286
	C170	C	0.126575	0.380687	0.824652
	C171	C	0.890507	0.611824	0.823329
	C172	C	0.186230	0.878282	0.383981
	C173	C	0.185579	0.115712	0.615099
	C174	C	0.832673	0.117456	0.384753
	C175	C	0.833276	0.876619	0.614868
	C176	C	0.394413	0.171957	0.879489
	C177	C	0.623863	0.171472	0.118018
	C178	C	0.393959	0.818092	0.118386
	C179	C	0.625364	0.820645	0.882042
	C180	C	0.394213	0.875538	0.177128
	C181	C	0.623897	0.113776	0.175364
	C182	C	0.394486	0.114272	0.822138
	C183	C	0.624821	0.877606	0.823419
	C184	C	0.890944	0.173608	0.384280
	C185	C	0.127678	0.172478	0.615314
	C186	C	0.127434	0.821610	0.383802
	C187	C	0.891611	0.820217	0.615269
	C188	C	0.184832	0.380630	0.880430
	C189	C	0.187403	0.611125	0.118684
	C190	C	0.832062	0.380880	0.119917
	C191	C	0.832539	0.611249	0.879412
	C192	C	0.409348	0.092689	0.598322
	C193	C	0.610151	0.901064	0.599406
	C194	C	0.609333	0.092407	0.399755
	C195	C	0.409126	0.901719	0.401682
	C196	C	0.608823	0.396496	0.094574
	C197	C	0.609777	0.595307	0.904009
	C198	C	0.410166	0.593228	0.093657
	C199	C	0.408108	0.396220	0.903857
	C200	C	0.102825	0.597325	0.399131
	C201	C	0.914317	0.596322	0.599430
	C202	C	0.103603	0.397126	0.600837
	C203	C	0.914359	0.397037	0.400162
	C204	C	0.909734	0.591222	0.097019
	C205	C	0.107989	0.401327	0.099231
	C206	C	0.109856	0.591814	0.900437
	C207	C	0.908549	0.400453	0.900668
	C208	C	0.109573	0.896852	0.594450
	C209	C	0.108992	0.097142	0.404246
	C210	C	0.909996	0.095264	0.595093
	C211	C	0.909596	0.898780	0.404638
	C212	C	0.603741	0.095833	0.899758
	C213	C	0.414347	0.094046	0.098911
	C214	C	0.603540	0.894726	0.100926
	C215	C	0.415140	0.895167	0.899379
	Zn216	Zn	0.509845	-0.003628	0.748329
	Zn217	Zn	0.509079	-0.004172	0.250909
	Zn218	Zn	0.759437	0.495655	-0.001012
	Zn219	Zn	0.259018	0.495412	-0.001191
	Zn220	Zn	0.009095	0.746930	0.499676
	Zn221	Zn	0.009537	0.246381	0.500010
	Zn222	Zn	0.008862	0.496406	0.750984
	Zn223	Zn	0.008493	0.496769	0.248761
	Zn224	Zn	0.509662	0.744081	-0.000760
	Zn225	Zn	0.508761	0.246143	-0.000341
	Zn226	Zn	0.759764	-0.002817	0.499730
	Zn227	Zn	0.259130	-0.002274	0.499294
	N228	N	0.425044	0.959165	0.675864
	N229	N	0.595115	0.033915	0.676554
	N230	N	0.594566	0.959107	0.323344
	N231	N	0.423932	0.033891	0.321685
	N232	N	0.688134	0.409389	0.962589
	N233	N	0.688433	0.581634	0.036163
	N234	N	0.331545	0.580736	0.961355
	N235	N	0.329278	0.407842	0.035683
	N236	N	0.971251	0.675665	0.413194
	N237	N	0.046259	0.674584	0.584977
	N238	N	0.972149	0.317630	0.586174
	N239	N	0.046353	0.319585	0.415357
	N240	N	0.971589	0.411215	0.678371
	N241	N	0.045942	0.582449	0.678612
	N242	N	0.971310	0.583358	0.319565
	N243	N	0.045550	0.410765	0.321054
	N244	N	0.425025	0.672418	0.960964
	N245	N	0.594940	0.672579	0.036878
	N246	N	0.593649	0.318796	0.961900
	N247	N	0.423564	0.317321	0.036792
	N248	N	0.688272	0.960205	0.413932
	N249	N	0.688579	0.033768	0.585744
	N250	N	0.329846	0.960572	0.586412
	N251	N	0.331125	0.034560	0.413350
	N252	N	0.923948	0.459042	0.176480
	N253	N	0.093857	0.534422	0.176143
	N254	N	0.093637	0.458999	0.823423
	N255	N	0.923746	0.533678	0.822384
	N256	N	0.188570	0.910966	0.462263
	N257	N	0.187748	0.083196	0.536622
	N258	N	0.830869	0.083630	0.463044
	N259	N	0.831059	0.910431	0.536566
	N260	N	0.472007	0.174007	0.913271
	N261	N	0.546148	0.173201	0.084864
	N262	N	0.471696	0.816031	0.085457
	N263	N	0.547699	0.818335	0.915248
	N264	N	0.472067	0.908519	0.180037
	N265	N	0.546193	0.080402	0.177269
	N266	N	0.472059	0.081019	0.820842
	N267	N	0.546722	0.909900	0.820771
	N268	N	0.924859	0.174133	0.462141
	N269	N	0.093999	0.174044	0.537366
	N270	N	0.094001	0.819758	0.461721
	N271	N	0.925025	0.819556	0.537343
	N272	N	0.187396	0.458866	0.913202
	N273	N	0.189338	0.532599	0.086362
	N274	N	0.830514	0.458700	0.085545
	N275	N	0.830428	0.532858	0.912834
	O276	O	0.926235	0.986051	0.034758
	H277	H	0.926005	0.983288	0.040127
	H278	H	0.919377	0.983026	0.033121
	O279	O	0.031978	0.002459	0.055852
	H280	H	0.040271	0.002929	0.048599
	H281	H	0.023784	0.014258	0.048413
	O282	O	0.089357	-0.007438	0.999629
	H283	H	0.081440	-0.006536	1.004334
	H284	H	0.088370	-0.004995	0.997051
	O285	O	0.404323	0.580735	0.448535
	H286	H	0.393362	0.573633	0.450333
	H287	H	0.395848	0.586253	0.440012
	O288	O	0.023760	-0.013234	0.984101
	H289	H	0.028760	-0.010372	0.980639
	H290	H	0.019056	-0.011736	0.979661
	O291	O	0.022109	0.939361	0.016521
	H292	H	0.024673	0.943323	0.025585
	H293	H	0.027907	0.934405	0.008464
	O294	O	0.060794	0.069639	0.016153
	H295	H	0.061908	0.071933	0.016760
	H296	H	0.069769	0.071004	0.017844
	O297	O	0.444448	0.577532	0.424898
	H298	H	0.435619	0.580700	0.427932
	H299	H	0.446605	0.584692	0.417348
	O300	O	0.014942	0.984756	1.068412
	H301	H	0.014458	0.970584	1.073442
	H302	H	0.002532	0.982934	1.064500
	O303	O	0.428980	0.577226	0.460928
	H304	H	0.429067	0.588243	0.465891
	H305	H	0.431990	0.578230	0.456556
	O306	O	-0.040552	-0.055169	0.998352
	H307	H	-0.044558	-0.053156	0.998897
	H308	H	-0.037428	-0.050359	1.005028
	O309	O	0.954904	0.946798	1.043314
	H310	H	0.953147	0.949037	1.039895
	H311	H	0.955379	0.948918	1.045004
	O312	O	0.442401	0.557624	0.453812
	H313	H	0.445968	0.556071	0.456722
	H314	H	0.444031	0.558015	0.459752
	O315	O	0.421763	0.559140	0.490619
	H316	H	0.425139	0.561167	0.485106
	H317	H	0.422568	0.560319	0.482460
	O318	O	0.011093	1.049095	0.051345
	H319	H	0.008788	1.040621	0.054707
	H320	H	0.008199	1.058948	0.060584
	O321	O	1.025657	0.960928	-0.024357
	H322	H	1.017868	0.960311	-0.027567
	H323	H	1.036377	0.955963	-0.025739
