data_Molecule from HDF5

_cell_length_a		16.422106
_cell_length_b		16.415675
_cell_length_c		16.719156
_cell_angle_alpha	89.995387
_cell_angle_beta	89.986496
_cell_angle_gamma	90.080683
_symmetry_space_group_name_H-M	'P 1'
_symmetry_Int_Tables_number		1

loop_
	_symmetry_equiv_pos_as_xyz
	x,y,z

loop_
	_atom_site_label
	_atom_site_type_symbol
	_atom_site_fract_x
	_atom_site_fract_y
	_atom_site_fract_z
	H0	H	0.416287	0.867632	0.712779
	H1	H	0.632248	0.179945	0.712530
	H2	H	0.629771	0.866646	0.266316
	H3	H	0.412903	0.179168	0.263566
	H4	H	0.746368	0.419234	0.833946
	H5	H	0.744840	0.626452	0.146392
	H6	H	0.297524	0.632946	0.836784
	H7	H	0.301012	0.416877	0.145335
	H8	H	0.865709	0.740310	0.387902
	H9	H	0.182058	0.743439	0.593074
	H10	H	0.866782	0.300929	0.592631
	H11	H	0.181882	0.298658	0.381556
	H12	H	0.867930	0.413204	0.712713
	H13	H	0.178636	0.632692	0.714514
	H14	H	0.866902	0.626450	0.268916
	H15	H	0.180934	0.412386	0.264468
	H16	H	0.418362	0.747015	0.835134
	H17	H	0.629494	0.745473	0.144995
	H18	H	0.628050	0.302664	0.833839
	H19	H	0.417046	0.299251	0.145150
	H20	H	0.740971	0.864182	0.387783
	H21	H	0.744798	0.180971	0.592990
	H22	H	0.305071	0.865183	0.591299
	H23	H	0.303592	0.181920	0.384620
	H24	H	0.918469	0.364206	0.211084
	H25	H	0.131660	0.679885	0.212377
	H26	H	0.136743	0.369189	0.761466
	H27	H	0.915680	0.678620	0.765208
	H28	H	0.247451	0.917901	0.333583
	H29	H	0.247188	0.129157	0.643501
	H30	H	0.802199	0.126037	0.332354
	H31	H	0.802240	0.917646	0.645026
	H32	H	0.366567	0.245209	0.883159
	H33	H	0.683177	0.240789	0.090142
	H34	H	0.366840	0.801782	0.093741
	H35	H	0.684009	0.805228	0.886927
	H36	H	0.367273	0.915336	0.211762
	H37	H	0.679870	0.131527	0.212151
	H38	H	0.368350	0.133162	0.764775
	H39	H	0.681772	0.917026	0.767143
	H40	H	0.917980	0.244888	0.333171
	H41	H	0.130676	0.246457	0.643416
	H42	H	0.127905	0.802889	0.332273
	H43	H	0.921886	0.802565	0.645743
	H44	H	0.247734	0.366225	0.882510
	H45	H	0.246030	0.680802	0.094135
	H46	H	0.805805	0.363002	0.092013
	H47	H	0.808273	0.683046	0.889561
	H48	H	0.436438	0.137142	0.579502
	H49	H	0.612805	0.909908	0.579824
	H50	H	0.609060	0.135731	0.400308
	H51	H	0.430247	0.906945	0.396976
	H52	H	0.614835	0.435227	0.101267
	H53	H	0.612561	0.617324	0.878672
	H54	H	0.437778	0.618284	0.101147
	H55	H	0.439452	0.433301	0.880279
	H56	H	0.137491	0.608163	0.398591
	H57	H	0.910052	0.619514	0.572259
	H58	H	0.133274	0.432466	0.567442
	H59	H	0.912737	0.437214	0.399067
	H60	H	0.132510	0.448033	0.577345
	H61	H	0.915775	0.601530	0.573968
	H62	H	0.140181	0.612375	0.395909
	H63	H	0.911942	0.434284	0.398205
	H64	H	0.431204	0.607178	0.099780
	H65	H	0.621416	0.616343	0.875650
	H66	H	0.613250	0.429960	0.101362
	H67	H	0.432546	0.435079	0.878528
	H68	H	0.612362	0.136473	0.400838
	H69	H	0.610909	0.910301	0.580933
	H70	H	0.439574	0.136327	0.579231
	H71	H	0.443475	0.911737	0.395238
	H72	H	0.944153	0.634267	0.083862
	H73	H	0.105894	0.413381	0.076071
	H74	H	0.108201	0.633584	0.902815
	H75	H	0.933577	0.408032	0.898676
	H76	H	0.118371	0.932400	0.602208
	H77	H	0.117057	0.108691	0.377673
	H78	H	0.935074	0.117478	0.600758
	H79	H	0.937235	0.932613	0.379449
	H80	H	0.635597	0.111064	0.905044
	H81	H	0.410788	0.109332	0.077126
	H82	H	0.637677	0.934026	0.077898
	H83	H	0.412333	0.929199	0.909109
	H84	H	0.635222	0.939298	0.077516
	H85	H	0.410035	0.110275	0.079861
	H86	H	0.635817	0.106708	0.897797
	H87	H	0.415248	0.946776	0.900454
	H88	H	0.929946	0.108044	0.599377
	H89	H	0.109739	0.108165	0.380073
	H90	H	0.113754	0.935887	0.598203
	H91	H	0.930722	0.926028	0.375050
	H92	H	0.107776	0.633638	0.902933
	H93	H	0.115348	0.410100	0.074183
	H94	H	0.932684	0.634247	0.073209
	H95	H	0.939524	0.409388	0.897181
	H96	H	0.437670	0.136418	0.576978
	H97	H	0.610484	0.910379	0.578614
	H98	H	0.610754	0.137796	0.397998
	H99	H	0.437223	0.913915	0.407336
	H100	H	0.618301	0.431229	0.102529
	H101	H	0.616696	0.608685	0.878970
	H102	H	0.443391	0.607519	0.096784
	H103	H	0.436799	0.440280	0.881679
	H104	H	0.137659	0.612720	0.401040
	H105	H	0.907432	0.610257	0.588016
	H106	H	0.140907	0.433609	0.583739
	H107	H	0.913083	0.434693	0.401124
	H108	H	0.930123	0.640057	0.087413
	H109	H	0.110859	0.408771	0.083005
	H110	H	0.107678	0.634175	0.903381
	H111	H	0.936938	0.411075	0.902256
	H112	H	0.112296	0.929515	0.599596
	H113	H	0.111816	0.114905	0.377456
	H114	H	0.940606	0.108570	0.596485
	H115	H	0.928256	0.936024	0.376164
	H116	H	0.638512	0.114149	0.898343
	H117	H	0.409961	0.111861	0.077347
	H118	H	0.638509	0.937980	0.082343
	H119	H	0.407195	0.932159	0.890933
	C120	C	0.404307	0.032320	0.610603
	C121	C	0.644799	1.014424	0.611410
	C122	C	0.643033	0.031955	0.368034
	C123	C	0.402962	1.014817	0.367588
	C124	C	0.646786	0.401229	-0.001774
	C125	C	0.647627	0.645645	0.980859
	C126	C	0.403397	0.644976	-0.002292
	C127	C	0.402470	0.402125	0.981834
	C128	C	0.033573	0.643121	0.367524
	C129	C	1.015173	0.643862	0.610177
	C130	C	0.032208	0.403103	0.609303
	C131	C	1.016451	0.401057	0.366998
	C132	C	0.903509	0.531053	0.111856
	C133	C	0.144817	0.514517	0.110811
	C134	C	0.144120	0.531254	0.868695
	C135	C	0.903724	0.513980	0.868268
	C136	C	0.146708	0.900784	0.497041
	C137	C	0.145819	0.144256	0.480532
	C138	C	0.902064	0.144221	0.496404
	C139	C	0.901661	0.900550	0.480697
	C140	C	0.532455	0.143828	0.868236
	C141	C	0.514747	0.143814	0.109983
	C142	C	0.532804	0.903053	0.111010
	C143	C	0.515934	0.902872	0.867896
	C144	C	0.399494	0.914286	0.671607
	C145	C	0.649005	0.133035	0.671742
	C146	C	0.646725	0.913328	0.307527
	C147	C	0.397094	0.132631	0.305304
	C148	C	0.706342	0.400136	0.880794
	C149	C	0.705847	0.646364	0.098929
	C150	C	0.339789	0.650166	0.882428
	C151	C	0.341254	0.398554	0.098758
	C152	C	0.913512	0.701511	0.367826
	C153	C	0.134311	0.704062	0.612118
	C154	C	0.914178	0.340747	0.611751
	C155	C	0.134339	0.338786	0.363439
	C156	C	0.914663	0.396860	0.671205
	C157	C	0.132705	0.648985	0.672332
	C158	C	0.914153	0.644980	0.308842
	C159	C	0.134123	0.395744	0.305390
	C160	C	0.399837	0.706903	0.881542
	C161	C	0.648291	0.705264	0.098357
	C162	C	0.647470	0.342326	0.880582
	C163	C	0.399263	0.340178	0.098483
	C164	C	0.702112	0.912292	0.367582
	C165	C	0.704895	0.133655	0.612247
	C166	C	0.344034	0.913218	0.611674
	C167	C	0.342733	0.134115	0.365797
	C168	C	0.900979	0.411607	0.170650
	C169	C	0.149094	0.632743	0.171751
	C170	C	0.151817	0.415069	0.804400
	C171	C	0.899276	0.632307	0.807126
	C172	C	0.206880	0.899233	0.380050
	C173	C	0.206738	0.147444	0.597095
	C174	C	0.841879	0.145471	0.379386
	C175	C	0.842530	0.899146	0.598337
	C176	C	0.414205	0.205325	0.864929
	C177	C	0.634523	0.203084	0.110529
	C178	C	0.414117	0.841945	0.112391
	C179	C	0.635687	0.843869	0.867123
	C180	C	0.414495	0.898097	0.171397
	C181	C	0.633075	0.148409	0.170887
	C182	C	0.415101	0.149249	0.805913
	C183	C	0.634458	0.899507	0.807467
	C184	C	0.899824	0.204270	0.379609
	C185	C	0.148643	0.205686	0.596960
	C186	C	0.147378	0.842104	0.379433
	C187	C	0.902012	0.841875	0.598653
	C188	C	0.207334	0.413697	0.864415
	C189	C	0.205739	0.633346	0.112928
	C190	C	0.845021	0.411007	0.111291
	C191	C	0.845983	0.634433	0.868933
	C192	C	0.430443	0.115085	0.585730
	C193	C	0.618833	0.931654	0.586946
	C194	C	0.617932	0.114796	0.392394
	C195	C	0.429443	0.932399	0.392639
	C196	C	0.622420	0.425353	0.080174
	C197	C	0.623770	0.621194	0.899019
	C198	C	0.429902	0.618453	0.078314
	C199	C	0.428661	0.428741	0.901224
	C200	C	0.116767	0.618201	0.391572
	C201	C	0.932601	0.617862	0.584991
	C202	C	0.114207	0.430411	0.583609
	C203	C	0.934052	0.427687	0.392399
	C204	C	0.928525	0.614521	0.088306
	C205	C	0.118319	0.432078	0.085219
	C206	C	0.116106	0.612668	0.895496
	C207	C	0.929364	0.431015	0.892374
	C208	C	0.121937	0.925656	0.578723
	C209	C	0.120139	0.118132	0.399487
	C210	C	0.927730	0.118693	0.577662
	C211	C	0.925288	0.924567	0.398289
	C212	C	0.615043	0.117976	0.893332
	C213	C	0.431806	0.117826	0.085418
	C214	C	0.615449	0.929429	0.086290
	C215	C	0.433308	0.928602	0.893006
	Zn216	Zn	0.524366	0.023838	0.739682
	Zn217	Zn	0.523134	0.023708	0.239010
	Zn218	Zn	0.776509	0.523287	-0.009826
	Zn219	Zn	0.273161	0.523267	-0.010427
	Zn220	Zn	0.024467	0.771457	0.488854
	Zn221	Zn	0.024598	0.274226	0.488282
	Zn222	Zn	0.023740	0.523003	0.739078
	Zn223	Zn	0.025125	0.522058	0.239597
	Zn224	Zn	0.525105	0.775129	-0.010268
	Zn225	Zn	0.523323	0.272032	-0.011047
	Zn226	Zn	0.772005	0.022774	0.489279
	Zn227	Zn	0.276122	0.023528	0.488913
	N228	N	0.435973	0.989603	0.671201
	N229	N	0.612711	0.057823	0.671377
	N230	N	0.610933	0.988880	0.307657
	N231	N	0.433762	0.057423	0.306104
	N232	N	0.706465	0.435667	0.955115
	N233	N	0.705731	0.610190	0.024838
	N234	N	0.341888	0.612527	0.955739
	N235	N	0.343050	0.436128	0.025352
	N236	N	0.988809	0.700440	0.403662
	N237	N	0.060087	0.701308	0.574467
	N238	N	0.988421	0.344316	0.574122
	N239	N	0.059982	0.341955	0.400879
	N240	N	0.989178	0.434766	0.669874
	N241	N	0.057586	0.612241	0.671272
	N242	N	0.989943	0.609684	0.308455
	N243	N	0.059630	0.433602	0.307337
	N244	N	0.438574	0.703892	0.954217
	N245	N	0.613082	0.705231	0.023901
	N246	N	0.611349	0.342618	0.954769
	N247	N	0.436302	0.341932	0.024714
	N248	N	0.700155	0.987031	0.404475
	N249	N	0.702616	0.058848	0.575481
	N250	N	0.346928	0.987575	0.574371
	N251	N	0.346159	0.059973	0.403763
	N252	N	0.936502	0.487402	0.171278
	N253	N	0.112239	0.557614	0.170760
	N254	N	0.113109	0.489253	0.806929
	N255	N	0.934157	0.556347	0.806306
	N256	N	0.206650	0.934970	0.454235
	N257	N	0.205075	0.109940	0.523781
	N258	N	0.842836	0.109313	0.453378
	N259	N	0.842073	0.934724	0.523931
	N260	N	0.488187	0.202069	0.903071
	N261	N	0.559917	0.200271	0.073321
	N262	N	0.488818	0.844769	0.075601
	N263	N	0.560852	0.845497	0.903816
	N264	N	0.489392	0.935276	0.170655
	N265	N	0.557377	0.112582	0.170980
	N266	N	0.489777	0.111731	0.807803
	N267	N	0.558928	0.935346	0.807783
	N268	N	0.936349	0.203900	0.453461
	N269	N	0.111627	0.203986	0.523327
	N270	N	0.110779	0.842939	0.453217
	N271	N	0.937814	0.842424	0.524432
	N272	N	0.202440	0.486884	0.903948
	N273	N	0.203137	0.558801	0.075762
	N274	N	0.846335	0.486420	0.075645
	N275	N	0.848612	0.559808	0.906183
	O276	O	0.723452	0.458229	0.420191
	H277	H	0.724879	0.461675	0.418366
	H278	H	0.736433	0.472831	0.398263
	O279	O	-0.013901	-0.188534	1.204573
	H280	H	0.003336	-0.207996	1.220480
	H281	H	0.012457	-0.191191	1.179096
	O282	O	0.477776	0.424633	0.446976
	H283	H	0.474469	0.421349	0.463873
	H284	H	0.475542	0.421968	0.459562
	O285	O	0.659561	0.542220	0.482769
	H286	H	0.674936	0.528467	0.497999
	H287	H	0.635605	0.537130	0.490469
	O288	O	1.003039	0.187931	1.003930
	H289	H	1.023689	0.192751	1.014012
	H290	H	1.013799	0.185598	0.993574
	O291	O	0.169140	1.182880	-0.105965
	H292	H	0.185343	1.188031	-0.106784
	H293	H	0.163997	1.190901	-0.105395
	O294	O	0.074500	-0.181837	-0.075023
	H295	H	0.077346	-0.175120	-0.086263
	H296	H	0.061491	-0.191468	-0.093795
	O297	O	0.726200	0.324477	1.290664
	H298	H	0.736363	0.305770	1.263754
	H299	H	0.713862	0.357743	1.278711
	O300	O	-0.196111	-0.195597	0.026931
	H301	H	-0.192775	-0.192153	0.072041
	H302	H	-0.227568	-0.228381	0.033946
	O303	O	0.141307	0.030199	-0.214229
	H304	H	0.133640	0.045992	-0.221356
	H305	H	0.148809	0.046553	-0.216845
	O306	O	1.236388	-0.190220	-0.032724
	H307	H	1.260473	-0.218307	-0.049168
	H308	H	1.231833	-0.178418	-0.068837
	O309	O	0.496568	0.731957	0.277374
	H310	H	0.506504	0.746879	0.273492
	H311	H	0.504366	0.727005	0.283598
	O312	O	0.544935	0.516402	0.719576
	H313	H	0.558241	0.522834	0.708712
	H314	H	0.544539	0.518691	0.722090
	O315	O	0.328509	0.718940	0.288748
	H316	H	0.337594	0.716003	0.296118
	H317	H	0.349706	0.703892	0.290467
	O318	O	0.320203	0.509381	-0.305164
	H319	H	0.303110	0.497948	-0.308208
	H320	H	0.318077	0.498053	-0.316941
	O321	O	0.746082	0.299876	0.457157
	H322	H	0.760215	0.285652	0.430939
	H323	H	0.757157	0.291292	0.428212
	O324	O	1.422444	-0.535166	0.407797
	H325	H	1.420272	-0.525429	0.413696
	H326	H	1.420007	-0.528327	0.389132
	O327	O	0.341984	0.715258	0.674069
	H328	H	0.342907	0.688784	0.684784
	H329	H	0.341146	0.725237	0.672666
	O330	O	0.008520	1.028623	0.207893
	H331	H	-0.001990	0.997564	0.212460
	H332	H	0.005801	1.011334	0.204608
	O333	O	0.040206	-0.095154	1.034769
	H334	H	0.050559	-0.095675	1.032019
	H335	H	0.043554	-0.094022	1.017108
	O336	O	0.566113	0.467871	0.526974
	H337	H	0.564518	0.465180	0.540772
	H338	H	0.578002	0.471348	0.515210
	O339	O	0.685066	0.502371	0.435314
	H340	H	0.691964	0.509559	0.440024
	H341	H	0.688556	0.481811	0.438253
	O342	O	-0.172460	1.224188	-0.208408
	H343	H	-0.167539	1.196016	-0.207204
	H344	H	-0.170578	1.236377	-0.194063
	O345	O	0.875595	0.868474	-0.210359
	H346	H	0.875971	0.888320	-0.183554
	H347	H	0.894908	0.888618	-0.216351
	O348	O	0.721127	0.597802	0.524246
	H349	H	0.726710	0.599394	0.526702
	H350	H	0.721379	0.596675	0.550198
	O351	O	-0.273848	-0.278119	0.689567
	H352	H	-0.317072	-0.279242	0.700337
	H353	H	-0.251370	-0.280644	0.714971
	O354	O	0.931194	-0.006282	0.979032
	H355	H	0.916747	-0.017536	0.987533
	H356	H	0.932250	0.010826	0.981888
	O357	O	0.276487	0.203849	0.788597
	H358	H	0.286953	0.208927	0.800072
	H359	H	0.272581	0.209796	0.764948
	O360	O	-0.186924	0.234302	0.957055
	H361	H	-0.205291	0.249198	0.955474
	H362	H	-0.168199	0.237834	0.962778
	O363	O	0.498931	0.333708	0.687421
	H364	H	0.501087	0.332403	0.688021
	H365	H	0.509127	0.326943	0.696505
	O366	O	1.504268	0.314694	0.510311
	H367	H	1.510859	0.313208	0.499357
	H368	H	1.538084	0.312304	0.528429
	O369	O	-0.530811	-0.268551	0.504382
	H370	H	-0.534448	-0.269237	0.512492
	H371	H	-0.521972	-0.264574	0.513220
	O372	O	-0.069611	1.160356	1.005610
	H373	H	-0.052842	1.166898	0.996451
	H374	H	-0.068182	1.148816	1.013910
	O375	O	1.041565	-0.041939	-0.203857
	H376	H	1.051516	-0.025470	-0.202471
	H377	H	1.037771	-0.034354	-0.206825
	O378	O	0.524179	0.489266	0.463879
	H379	H	0.530490	0.482503	0.454971
	H380	H	0.516202	0.485240	0.463146
	O381	O	-0.486095	0.605944	-0.630735
	H382	H	-0.484529	0.599804	-0.626739
	H383	H	-0.478721	0.604137	-0.610176
	O384	O	0.577721	0.696907	0.481056
	H385	H	0.588016	0.690440	0.489722
	H386	H	0.576237	0.711807	0.490169
	O387	O	0.407653	0.477982	0.703966
	H388	H	0.399992	0.468674	0.693056
	H389	H	0.423313	0.460753	0.701389
	O390	O	0.000125	1.234171	0.772396
	H391	H	0.004448	1.240582	0.774037
	H392	H	-0.001264	1.256435	0.767706
	O393	O	1.214459	0.206365	0.177716
	H394	H	1.160382	0.217534	0.188161
	H395	H	1.221495	0.152612	0.185959
	O396	O	-0.057299	0.074094	-0.004328
	H397	H	-0.051120	0.056797	-0.002770
	H398	H	-0.056420	0.085710	-0.006841
	O399	O	-0.117538	1.172699	1.190135
	H400	H	-0.095325	1.153611	1.172299
	H401	H	-0.126270	1.146383	1.180922
	O402	O	1.225794	0.038064	1.196912
	H403	H	1.227977	0.019431	1.177433
	H404	H	1.240710	0.027606	1.205087
	O405	O	0.735818	0.646331	0.439844
	H406	H	0.724803	0.641182	0.453345
	H407	H	0.754263	0.672058	0.443633
	O408	O	0.982090	0.990879	0.871621
	H409	H	0.969675	1.011913	0.885940
	H410	H	0.994336	0.999560	0.863474
	O411	O	0.309748	0.716743	0.448709
	H412	H	0.301823	0.733149	0.439042
	H413	H	0.313707	0.725185	0.443835
	O414	O	0.145199	-0.093973	0.199873
	H415	H	0.166893	-0.103636	0.205764
	H416	H	0.159487	-0.094378	0.186229
	O417	O	0.558414	0.734659	0.707540
	H418	H	0.534749	0.711106	0.708717
	H419	H	0.556580	0.759940	0.732066
	O420	O	1.050537	0.231556	1.201841
	H421	H	1.026153	0.216194	1.206010
	H422	H	1.039104	0.236948	1.225874
	O423	O	1.306057	1.568531	0.538597
	H424	H	1.307829	1.591842	0.535419
	H425	H	1.304535	1.569806	0.527172
	O426	O	-0.071840	0.907001	0.852741
	H427	H	-0.086557	0.895831	0.861489
	H428	H	-0.093521	0.907272	0.839462
	O429	O	0.469648	0.443267	0.275095
	H430	H	0.468812	0.441963	0.271538
	H431	H	0.463429	0.422265	0.277142
	O432	O	1.241851	0.241304	1.017013
	H433	H	1.268145	0.269513	1.031549
	H434	H	1.237885	0.237945	1.057385
	O435	O	0.652220	0.400680	0.671493
	H436	H	0.647582	0.420217	0.655908
	H437	H	0.653176	0.407645	0.673122
	O438	O	0.310079	0.549943	0.274280
	H439	H	0.295375	0.559316	0.261327
	H440	H	0.301530	0.545041	0.283729
	O441	O	0.740711	0.554451	0.704476
	H442	H	0.747676	0.558468	0.689069
	H443	H	0.770876	0.550557	0.719142
	O444	O	1.201514	0.034258	-0.167853
	H445	H	1.215119	0.023946	-0.171387
	H446	H	1.214072	0.053845	-0.168768
	O447	O	0.714882	-0.288026	1.300147
	H448	H	0.700897	-0.309772	1.316238
	H449	H	0.691990	-0.302779	1.317095
	O450	O	0.317269	0.315178	0.525687
	H451	H	0.314715	0.290851	0.523856
	H452	H	0.312599	0.324456	0.512406
	O453	O	0.396666	0.475630	0.345191
	H454	H	0.393308	0.478831	0.342034
	H455	H	0.385281	0.467949	0.357565
	O456	O	-0.180444	0.824071	1.192700
	H457	H	-0.124473	0.816775	1.201521
	H458	H	-0.206842	0.796173	1.225906
	O459	O	0.919433	0.903371	0.898105
	H460	H	0.909817	0.909036	0.900919
	H461	H	0.926558	0.903073	0.900005
	O462	O	0.550473	0.306734	0.273766
	H463	H	0.560647	0.292377	0.260071
	H464	H	0.543109	0.298099	0.281831
	O465	O	0.811965	-0.000968	1.205901
	H466	H	0.788516	-0.026240	1.222567
	H467	H	0.803968	-0.022706	1.191017
	O468	O	-0.852224	-0.032057	0.051039
	H469	H	-0.856277	-0.034636	0.047288
	H470	H	-0.851382	-0.039698	0.044228
	O471	O	-0.169295	0.101138	0.893542
	H472	H	-0.172577	0.095983	0.901763
	H473	H	-0.189515	0.112178	0.886134
	O474	O	1.206209	1.080660	-0.092369
	H475	H	1.209256	1.086167	-0.108101
	H476	H	1.209576	1.077219	-0.087750
	O477	O	0.226339	0.818578	0.787062
	H478	H	0.185110	0.824600	0.781715
	H479	H	0.241258	0.842158	0.770969
