data_Molecule from HDF5

_cell_length_a		16.494986
_cell_length_b		16.428503
_cell_length_c		16.772909
_cell_angle_alpha	89.980993
_cell_angle_beta	90.095808
_cell_angle_gamma	90.116915
_symmetry_space_group_name_H-M	'P 1'
_symmetry_Int_Tables_number		1

loop_
	_symmetry_equiv_pos_as_xyz
	x,y,z

loop_
	_atom_site_label
	_atom_site_type_symbol
	_atom_site_fract_x
	_atom_site_fract_y
	_atom_site_fract_z
	H0	H	0.408619	0.835846	0.734813
	H1	H	0.617954	0.151371	0.732402
	H2	H	0.618627	0.835943	0.293253
	H3	H	0.406283	0.149746	0.291626
	H4	H	0.737113	0.389608	0.860169
	H5	H	0.733342	0.596194	0.171301
	H6	H	0.293475	0.596456	0.858679
	H7	H	0.290701	0.385750	0.167058
	H8	H	0.854117	0.708918	0.414163
	H9	H	0.171315	0.712973	0.615673
	H10	H	0.854560	0.277765	0.614011
	H11	H	0.174355	0.279443	0.416682
	H12	H	0.856130	0.390685	0.733314
	H13	H	0.169501	0.601465	0.736674
	H14	H	0.857479	0.599007	0.292160
	H15	H	0.172626	0.390788	0.295700
	H16	H	0.410122	0.715239	0.859197
	H17	H	0.615840	0.712783	0.171263
	H18	H	0.620241	0.271413	0.859455
	H19	H	0.409370	0.269424	0.167047
	H20	H	0.734393	0.836523	0.409751
	H21	H	0.727364	0.154685	0.610652
	H22	H	0.295148	0.833995	0.615990
	H23	H	0.296386	0.152381	0.413176
	H24	H	0.912311	0.335667	0.233317
	H25	H	0.122668	0.651945	0.235674
	H26	H	0.118162	0.336689	0.793580
	H27	H	0.907222	0.652141	0.794464
	H28	H	0.237605	0.885267	0.359668
	H29	H	0.233308	0.094736	0.670813
	H30	H	0.794239	0.098219	0.357585
	H31	H	0.791615	0.890126	0.669176
	H32	H	0.356991	0.211478	0.911958
	H33	H	0.672714	0.209614	0.114629
	H34	H	0.354097	0.775689	0.114538
	H35	H	0.674297	0.777751	0.915517
	H36	H	0.356681	0.885522	0.236570
	H37	H	0.670215	0.098151	0.235736
	H38	H	0.358316	0.098898	0.791798
	H39	H	0.672947	0.889103	0.794598
	H40	H	0.912967	0.214014	0.357741
	H41	H	0.116950	0.213279	0.670525
	H42	H	0.118781	0.770276	0.358484
	H43	H	0.908128	0.772052	0.669131
	H44	H	0.232094	0.334669	0.911653
	H45	H	0.235775	0.652130	0.116809
	H46	H	0.796247	0.335869	0.117160
	H47	H	0.795516	0.653102	0.913808
	H48	H	0.425775	0.105335	0.601649
	H49	H	0.601459	0.881696	0.599804
	H50	H	0.600186	0.108262	0.419560
	H51	H	0.423054	0.881070	0.427698
	H52	H	0.601766	0.401561	0.123491
	H53	H	0.605803	0.586937	0.903206
	H54	H	0.421522	0.579850	0.124725
	H55	H	0.427853	0.406977	0.904436
	H56	H	0.125876	0.578116	0.423452
	H57	H	0.896732	0.588026	0.608937
	H58	H	0.126398	0.403207	0.601262
	H59	H	0.902240	0.404022	0.425746
	H60	H	0.125305	0.412485	0.606452
	H61	H	0.901777	0.582871	0.598718
	H62	H	0.128725	0.584583	0.421886
	H63	H	0.901971	0.408910	0.421350
	H64	H	0.428318	0.581542	0.123483
	H65	H	0.607730	0.584256	0.902597
	H66	H	0.606049	0.401563	0.126969
	H67	H	0.425685	0.400590	0.901624
	H68	H	0.599815	0.105501	0.425506
	H69	H	0.607944	0.876819	0.605470
	H70	H	0.422136	0.107304	0.604788
	H71	H	0.426052	0.879333	0.420891
	H72	H	0.919277	0.610532	0.103747
	H73	H	0.105469	0.379305	0.107109
	H74	H	0.104659	0.607256	0.925358
	H75	H	0.921588	0.379936	0.922097
	H76	H	0.101494	0.902710	0.623712
	H77	H	0.110915	0.089936	0.400687
	H78	H	0.918934	0.086887	0.627153
	H79	H	0.931453	0.903002	0.406015
	H80	H	0.629276	0.080653	0.918642
	H81	H	0.401658	0.075223	0.108126
	H82	H	0.627509	0.904840	0.109391
	H83	H	0.401820	0.905917	0.920707
	H84	H	0.625964	0.901670	0.103412
	H85	H	0.397923	0.086220	0.105240
	H86	H	0.628135	0.085403	0.924271
	H87	H	0.401227	0.903362	0.921722
	H88	H	0.920727	0.083587	0.624572
	H89	H	0.106515	0.079823	0.404067
	H90	H	0.105839	0.905998	0.623517
	H91	H	0.918879	0.898221	0.399731
	H92	H	0.101116	0.607442	0.923346
	H93	H	0.099586	0.381517	0.107356
	H94	H	0.928464	0.608515	0.110977
	H95	H	0.929965	0.381873	0.922566
	H96	H	0.427153	0.106719	0.607096
	H97	H	0.599220	0.879207	0.609063
	H98	H	0.605063	0.108191	0.423388
	H99	H	0.430590	0.882496	0.426789
	H100	H	0.604699	0.406083	0.124315
	H101	H	0.604553	0.584452	0.904340
	H102	H	0.424288	0.586524	0.125961
	H103	H	0.420781	0.405864	0.902957
	H104	H	0.125804	0.583222	0.428757
	H105	H	0.901454	0.575973	0.609311
	H106	H	0.129916	0.403765	0.611464
	H107	H	0.899525	0.402863	0.420065
	H108	H	0.928994	0.604987	0.100023
	H109	H	0.103127	0.382457	0.101936
	H110	H	0.101402	0.606188	0.926981
	H111	H	0.924975	0.382341	0.929213
	H112	H	0.101092	0.907670	0.620888
	H113	H	0.099628	0.088891	0.403250
	H114	H	0.923187	0.087520	0.626080
	H115	H	0.919609	0.911961	0.404600
	H116	H	0.626124	0.077875	0.924695
	H117	H	0.403059	0.079540	0.097024
	H118	H	0.624562	0.908592	0.104228
	H119	H	0.402671	0.905056	0.923211
	C120	C	0.393005	0.001684	0.635559
	C121	C	0.633963	0.984921	0.634163
	C122	C	0.633776	0.002420	0.392105
	C123	C	0.393203	0.984918	0.393431
	C124	C	0.636858	0.371373	0.022723
	C125	C	0.636451	0.615857	1.006667
	C126	C	0.392801	0.614776	0.022235
	C127	C	0.392520	0.371412	1.005060
	C128	C	0.022341	0.614043	0.393280
	C129	C	1.004287	0.615155	0.636318
	C130	C	0.022453	0.374200	0.636257
	C131	C	1.006141	0.374173	0.393142
	C132	C	0.894577	0.502988	0.135760
	C133	C	0.136233	0.485354	0.136332
	C134	C	0.133635	0.502221	0.894110
	C135	C	0.893479	0.485994	0.894084
	C136	C	0.135325	0.871901	0.521206
	C137	C	0.136372	0.116006	0.505916
	C138	C	0.891763	0.116603	0.522324
	C139	C	0.891023	0.872150	0.505877
	C140	C	0.523809	0.113909	0.891548
	C141	C	0.505133	0.113121	0.135068
	C142	C	0.521836	0.872524	0.136101
	C143	C	0.506667	0.873033	0.892424
	C144	C	0.390931	0.882849	0.694511
	C145	C	0.635708	0.104348	0.692250
	C146	C	0.636505	0.883406	0.333180
	C147	C	0.389492	0.103301	0.332891
	C148	C	0.696793	0.370326	0.906402
	C149	C	0.693849	0.615505	0.124572
	C150	C	0.333242	0.616111	0.905263
	C151	C	0.331517	0.367638	0.120812
	C152	C	0.902504	0.671348	0.393574
	C153	C	0.123523	0.674267	0.635979
	C154	C	0.902787	0.316021	0.634722
	C155	C	0.126218	0.317351	0.395687
	C156	C	0.903222	0.372273	0.693863
	C157	C	0.122602	0.618973	0.696032
	C158	C	0.904210	0.616587	0.333112
	C159	C	0.125379	0.372598	0.335608
	C160	C	0.391390	0.674637	0.905355
	C161	C	0.635442	0.673412	0.124644
	C162	C	0.638797	0.311681	0.906054
	C163	C	0.390342	0.309957	0.121005
	C164	C	0.693958	0.883673	0.391118
	C165	C	0.690219	0.106030	0.632024
	C166	C	0.334644	0.881901	0.635415
	C167	C	0.334784	0.104437	0.393070
	C168	C	0.893408	0.383469	0.193884
	C169	C	0.139862	0.604517	0.195332
	C170	C	0.136130	0.383618	0.833970
	C171	C	0.890365	0.604961	0.834917
	C172	C	0.196561	0.868134	0.405590
	C173	C	0.194119	0.114718	0.623883
	C174	C	0.833897	0.117171	0.404535
	C175	C	0.831435	0.870886	0.622388
	C176	C	0.404426	0.172477	0.891919
	C177	C	0.624830	0.171209	0.134916
	C178	C	0.402160	0.813794	0.134975
	C179	C	0.626342	0.815846	0.894666
	C180	C	0.403138	0.868822	0.195233
	C181	C	0.623347	0.115956	0.195069
	C182	C	0.405161	0.116671	0.832373
	C183	C	0.625660	0.871262	0.834561
	C184	C	0.893117	0.174614	0.404558
	C185	C	0.136564	0.173814	0.623742
	C186	C	0.137566	0.810699	0.405162
	C187	C	0.889507	0.812434	0.622565
	C188	C	0.192517	0.382652	0.892913
	C189	C	0.196285	0.604515	0.136485
	C190	C	0.835933	0.383189	0.136057
	C191	C	0.834764	0.605590	0.894207
	C192	C	0.417891	0.084979	0.611388
	C193	C	0.609853	0.901164	0.611286
	C194	C	0.608715	0.085665	0.415918
	C195	C	0.419126	0.902467	0.418047
	C196	C	0.611576	0.396059	0.103881
	C197	C	0.612678	0.591925	0.924750
	C198	C	0.417561	0.589821	0.103499
	C199	C	0.417782	0.397068	0.924065
	C200	C	0.105233	0.589189	0.417611
	C201	C	0.921530	0.589608	0.612457
	C202	C	0.105624	0.399142	0.613249
	C203	C	0.922770	0.398572	0.415825
	C204	C	0.918827	0.586289	0.111878
	C205	C	0.110262	0.402681	0.112350
	C206	C	0.109298	0.585227	0.918270
	C207	C	0.918367	0.402915	0.917980
	C208	C	0.109883	0.897964	0.601806
	C209	C	0.112582	0.092800	0.423870
	C210	C	0.914537	0.092850	0.604567
	C211	C	0.916029	0.897184	0.424697
	C212	C	0.606214	0.088889	0.915757
	C213	C	0.422593	0.087793	0.110400
	C214	C	0.604529	0.897896	0.112643
	C215	C	0.423564	0.897592	0.915299
	Zn216	Zn	0.514685	-0.006982	0.763228
	Zn217	Zn	0.512277	-0.006767	0.264129
	Zn218	Zn	0.765786	0.494292	0.015303
	Zn219	Zn	0.262812	0.493404	0.013697
	Zn220	Zn	0.013055	0.742738	0.514029
	Zn221	Zn	0.014270	0.245925	0.514671
	Zn222	Zn	0.013050	0.494953	0.764988
	Zn223	Zn	0.014886	0.494490	0.263755
	Zn224	Zn	0.514399	0.744678	0.014477
	Zn225	Zn	0.515061	0.241802	0.013638
	Zn226	Zn	0.761606	-0.005372	0.513431
	Zn227	Zn	0.265245	-0.006912	0.513693
	N228	N	0.426505	0.958500	0.694644
	N229	N	0.601529	0.028038	0.693808
	N230	N	0.599908	0.958486	0.333614
	N231	N	0.425171	0.027869	0.332857
	N232	N	0.695790	0.406469	0.980063
	N233	N	0.694776	0.580723	0.050185
	N234	N	0.333855	0.579739	0.978934
	N235	N	0.332879	0.405175	0.047824
	N236	N	0.977140	0.670151	0.430020
	N237	N	0.048859	0.672209	0.599667
	N238	N	0.978000	0.316825	0.599757
	N239	N	0.050923	0.317997	0.430440
	N240	N	0.978802	0.407379	0.695154
	N241	N	0.047295	0.583333	0.696658
	N242	N	0.980067	0.582208	0.332368
	N243	N	0.049460	0.407049	0.333600
	N244	N	0.427596	0.673923	0.979156
	N245	N	0.600775	0.674148	0.050170
	N246	N	0.602387	0.312100	0.979497
	N247	N	0.427496	0.311995	0.047870
	N248	N	0.692517	0.958860	0.426903
	N249	N	0.689598	0.030549	0.596868
	N250	N	0.335865	0.956937	0.599436
	N251	N	0.336910	0.029862	0.429745
	N252	N	0.929006	0.458911	0.193669
	N253	N	0.103354	0.529244	0.195524
	N254	N	0.100398	0.459076	0.834287
	N255	N	0.926073	0.529512	0.834614
	N256	N	0.195327	0.905536	0.478751
	N257	N	0.194633	0.080016	0.549392
	N258	N	0.832761	0.081850	0.478802
	N259	N	0.832439	0.907526	0.548922
	N260	N	0.479180	0.171119	0.928046
	N261	N	0.550386	0.169638	0.098296
	N262	N	0.476908	0.815845	0.098847
	N263	N	0.551248	0.816618	0.929822
	N264	N	0.478481	0.904406	0.196214
	N265	N	0.547748	0.080732	0.195335
	N266	N	0.480420	0.081335	0.831754
	N267	N	0.549921	0.905941	0.832907
	N268	N	0.928124	0.174525	0.478886
	N269	N	0.101778	0.175104	0.549385
	N270	N	0.100136	0.812909	0.478088
	N271	N	0.925775	0.812976	0.548910
	N272	N	0.191003	0.457250	0.929613
	N273	N	0.194550	0.529285	0.100947
	N274	N	0.836260	0.458605	0.100822
	N275	N	0.836428	0.530474	0.930371
	O276	O	-0.040172	0.802914	-0.027570
	H277	H	-0.047086	0.809411	-0.022078
	H278	H	-0.026281	0.806193	-0.026708
	O279	O	0.588419	0.515912	0.328875
	H280	H	0.583248	0.530761	0.325619
	H281	H	0.610858	0.500761	0.328538
	O282	O	1.110696	-0.026189	1.126563
	H283	H	1.106762	-0.029424	1.124893
	H284	H	1.123920	-0.032865	1.130580
	O285	O	0.460558	0.320456	0.689072
	H286	H	0.472174	0.301792	0.673178
	H287	H	0.447456	0.303695	0.699156
	O288	O	0.802809	0.204261	0.802334
	H289	H	0.795006	0.155640	0.800211
	H290	H	0.768316	0.232972	0.769234
	O291	O	0.292775	0.272064	0.556980
	H292	H	0.293061	0.272672	0.600591
	H293	H	0.264888	0.242999	0.564990
	O294	O	0.894200	-0.135091	0.808071
	H295	H	0.889324	-0.133416	0.828926
	H296	H	0.915067	-0.143098	0.806312
	O297	O	-0.014770	1.214576	0.792500
	H298	H	-0.047145	1.212076	0.800209
	H299	H	-0.027039	1.236892	0.765599
	O300	O	0.227871	0.173053	1.079486
	H301	H	0.213650	0.171375	1.068763
	H302	H	0.248992	0.194242	1.079973
	O303	O	0.715657	0.386174	0.559431
	H304	H	0.709848	0.402659	0.544322
	H305	H	0.723937	0.376678	0.533125
	O306	O	0.484450	0.710087	0.298190
	H307	H	0.476639	0.728151	0.291719
	H308	H	0.466075	0.712820	0.294117
	O309	O	0.543332	0.712959	0.733489
	H310	H	0.551922	0.716231	0.739424
	H311	H	0.577459	0.728126	0.746613
	O312	O	0.726840	0.282605	0.305087
	H313	H	0.755543	0.250862	0.278865
	H314	H	0.690809	0.294589	0.298798
	O315	O	1.256456	1.235742	1.252795
	H316	H	1.250292	1.242348	1.250495
	H317	H	1.266440	1.251138	1.266779
	O318	O	0.298467	0.562944	0.578044
	H319	H	0.305810	0.534169	0.573872
	H320	H	0.296483	0.586227	0.558527
	O321	O	0.512763	0.535715	0.479133
	H322	H	0.500862	0.551433	0.491689
	H323	H	0.514085	0.541114	0.476854
	O324	O	0.978058	0.774575	0.237341
	H325	H	0.976199	0.760789	0.238426
	H326	H	0.974523	0.767124	0.248872
	O327	O	0.080705	-0.192029	1.041235
	H328	H	0.082433	-0.207199	1.035348
	H329	H	0.078854	-0.166714	1.033081
	O330	O	0.425618	0.665169	0.510626
	H331	H	0.400109	0.680641	0.509778
	H332	H	0.422042	0.660563	0.506602
	O333	O	0.307341	0.286428	0.724208
	H334	H	0.275161	0.255479	0.758350
	H335	H	0.322041	0.320264	0.733186
	O336	O	0.332555	0.695273	0.415601
	H337	H	0.318393	0.714453	0.380872
	H338	H	0.321587	0.680596	0.415692
	O339	O	1.104234	-0.082486	1.117234
	H340	H	1.104027	-0.073224	1.134781
	H341	H	1.099852	-0.080235	1.109327
	O342	O	0.157188	0.044635	0.034790
	H343	H	0.154880	0.049960	0.038644
	H344	H	0.157643	0.043602	0.021836
	O345	O	-0.476040	1.565530	1.543649
	H346	H	-0.490149	1.582098	1.551471
	H347	H	-0.468521	1.569857	1.555605
	O348	O	0.046449	-0.219972	-0.208565
	H349	H	0.043273	-0.241744	-0.208578
	H350	H	0.068631	-0.228777	-0.210778
	O351	O	0.295540	0.526943	0.290286
	H352	H	0.281038	0.513459	0.262988
	H353	H	0.308693	0.506782	0.283593
	O354	O	0.450003	0.430826	1.281031
	H355	H	0.467795	0.422120	1.283121
	H356	H	0.466824	0.446429	1.292432
	O357	O	0.206870	-0.014901	0.025651
	H358	H	0.191985	-0.025162	0.034159
	H359	H	0.213509	-0.006189	0.032959
	O360	O	0.221927	-0.214960	0.804909
	H361	H	0.224547	-0.223452	0.784185
	H362	H	0.228321	-0.210393	0.824047
	O363	O	-0.004677	0.060330	-0.041685
	H364	H	0.005710	0.070149	-0.050344
	H365	H	-0.013642	0.051731	-0.049257
	O366	O	0.698540	0.307188	0.703071
	H367	H	0.692517	0.332771	0.680793
	H368	H	0.675349	0.325745	0.689084
	O369	O	0.977633	-0.108822	0.103780
	H370	H	0.970139	-0.099401	0.111330
	H371	H	0.978664	-0.109572	0.108805
	O372	O	0.810328	0.976997	-0.200327
	H373	H	0.809767	0.956011	-0.207202
	H374	H	0.810106	0.975808	-0.186479
	O375	O	0.913597	0.026846	-0.019485
	H376	H	0.904947	0.021515	-0.014873
	H377	H	0.910658	0.030208	-0.007653
	O378	O	-0.093123	1.100601	0.074880
	H379	H	-0.094788	1.088439	0.087261
	H380	H	-0.102960	1.120207	0.069843
	O381	O	-0.199763	1.209737	0.985653
	H382	H	-0.212319	1.218118	0.966825
	H383	H	-0.207827	1.214579	0.959506
	O384	O	0.709989	0.300273	0.454710
	H385	H	0.723717	0.282614	0.441528
	H386	H	0.711703	0.290507	0.428987
	O387	O	0.729755	0.528684	-0.503310
	H388	H	0.722990	0.529564	-0.507976
	H389	H	0.726437	0.544718	-0.508583
	O390	O	0.299021	0.456779	0.732586
	H391	H	0.293687	0.458109	0.735922
	H392	H	0.287739	0.464915	0.730395
	O393	O	0.552253	0.278149	0.290116
	H394	H	0.552030	0.264694	0.280155
	H395	H	0.543552	0.264143	0.307179
	O396	O	0.228948	0.780892	0.973412
	H397	H	0.240676	0.777807	0.969016
	H398	H	0.229063	0.769291	0.979731
	O399	O	0.052141	0.199623	1.227441
	H400	H	0.059151	0.202432	1.224883
	H401	H	0.047758	0.217428	1.234072
	O402	O	0.484671	0.502561	0.508239
	H403	H	0.488007	0.512460	0.507883
	H404	H	0.479579	0.511665	0.508870
	O405	O	1.041538	0.072278	0.873605
	H406	H	1.044747	0.079934	0.878205
	H407	H	1.046668	0.068193	0.871610
	O408	O	0.082905	0.084704	0.130602
	H409	H	0.084518	0.098928	0.129286
	H410	H	0.084606	0.093098	0.123056
	O411	O	0.651135	0.668702	0.346692
	H412	H	0.620403	0.674605	0.345244
	H413	H	0.640128	0.659780	0.376586
	O414	O	1.065082	0.027069	-0.182142
	H415	H	1.056933	0.019820	-0.184053
	H416	H	1.060709	0.031671	-0.187827
	O417	O	0.724436	0.711575	0.543870
	H418	H	0.715385	0.699853	0.563550
	H419	H	0.745588	0.738175	0.554309
	O420	O	0.272099	0.737816	0.276683
	H421	H	0.282030	0.751454	0.267729
	H422	H	0.255831	0.721093	0.265671
	O423	O	0.338277	0.322827	0.369271
	H424	H	0.345538	0.316423	0.399948
	H425	H	0.351345	0.323830	0.362063
	O426	O	0.730710	0.459891	0.295136
	H427	H	0.758517	0.459849	0.278490
	H428	H	0.721088	0.430945	0.300328
	O429	O	1.298754	1.469235	0.466726
	H430	H	1.297508	1.459837	0.452241
	H431	H	1.293922	1.456072	0.465582
	O432	O	0.720966	0.527450	0.725972
	H433	H	0.711964	0.504629	0.718978
	H434	H	0.726521	0.510406	0.735830
	O435	O	0.227273	0.961036	-0.206212
	H436	H	0.224894	0.949553	-0.203892
	H437	H	0.246964	0.959741	-0.220804
	O438	O	-0.049039	0.098230	0.023045
	H439	H	-0.034552	0.103208	0.009961
	H440	H	-0.058258	0.106816	0.022571
	O441	O	-0.156006	-0.096136	-0.060797
	H442	H	-0.145512	-0.093257	-0.068099
	H443	H	-0.163400	-0.102793	-0.043559
	O444	O	-0.045836	0.132296	-0.078704
	H445	H	-0.039407	0.123395	-0.065005
	H446	H	-0.059867	0.136154	-0.086176
	O447	O	0.204802	1.180816	0.825045
	H448	H	0.187686	1.166875	0.850569
	H449	H	0.183170	1.153605	0.828877
	O450	O	-0.202035	0.778135	1.056816
	H451	H	-0.201451	0.780674	1.063325
	H452	H	-0.222246	0.759761	1.067577
	O453	O	0.526059	0.278448	0.620544
	H454	H	0.530306	0.280851	0.613966
	H455	H	0.516294	0.279688	0.617882
	O456	O	-0.047698	0.067132	1.238825
	H457	H	-0.036279	0.063390	1.235739
	H458	H	-0.041976	0.067019	1.245792
	O459	O	0.526331	0.678549	0.543687
	H460	H	0.528618	0.675738	0.540163
	H461	H	0.521380	0.681495	0.552639
	O462	O	0.505749	0.277700	0.472653
	H463	H	0.510624	0.273419	0.478907
	H464	H	0.505428	0.297974	0.478481
	O465	O	0.848412	0.183718	0.183604
	H466	H	0.860492	0.166797	0.159232
	H467	H	0.868999	0.168839	0.170781
	O468	O	-0.203793	0.961402	0.231634
	H469	H	-0.208436	0.940148	0.245925
	H470	H	-0.208565	0.965072	0.240567
	O471	O	0.618218	0.536790	0.478296
	H472	H	0.606906	0.543294	0.482252
	H473	H	0.619253	0.534375	0.483462
	O474	O	-0.287833	1.693558	-0.284645
	H475	H	-0.267018	1.677560	-0.264600
	H476	H	-0.282121	1.674963	-0.289076
	O477	O	0.233180	1.007790	1.209938
	H478	H	0.229535	1.019553	1.186511
	H479	H	0.258801	1.024657	1.240730
	O480	O	0.576510	0.434649	0.748360
	H481	H	0.559469	0.430784	0.751162
	H482	H	0.560123	0.424013	0.746986
	O483	O	0.329463	0.676631	0.699937
	H484	H	0.341810	0.652387	0.687698
	H485	H	0.338381	0.671400	0.693791
	O486	O	1.460560	-0.474971	0.670392
	H487	H	1.457645	-0.466976	0.668717
	H488	H	1.448023	-0.470800	0.670159
	O489	O	0.809898	0.789905	0.223418
	H490	H	0.824106	0.785802	0.215738
	H491	H	0.795058	0.782554	0.245988
