data_Molecule from HDF5

_cell_length_a		16.060688
_cell_length_b		16.402802
_cell_length_c		16.126988
_cell_angle_alpha	89.764490
_cell_angle_beta	90.317270
_cell_angle_gamma	89.466751
_symmetry_space_group_name_H-M	'P 1'
_symmetry_Int_Tables_number		1

loop_
	_symmetry_equiv_pos_as_xyz
	x,y,z

loop_
	_atom_site_label
	_atom_site_type_symbol
	_atom_site_fract_x
	_atom_site_fract_y
	_atom_site_fract_z
	H0	H	0.398564	0.832056	0.716128
	H1	H	0.591533	0.158341	0.713175
	H2	H	0.594436	0.831734	0.284730
	H3	H	0.391288	0.156571	0.282546
	H4	H	0.705316	0.401586	0.833368
	H5	H	0.704729	0.589005	0.166537
	H6	H	0.279617	0.595167	0.834325
	H7	H	0.286908	0.400302	0.166658
	H8	H	0.830864	0.712819	0.395141
	H9	H	0.159731	0.705770	0.600943
	H10	H	0.829439	0.278715	0.602484
	H11	H	0.159129	0.275167	0.400269
	H12	H	0.827276	0.399466	0.710365
	H13	H	0.160852	0.586472	0.711821
	H14	H	0.827606	0.590643	0.288119
	H15	H	0.161860	0.396051	0.291361
	H16	H	0.390620	0.713343	0.835823
	H17	H	0.596418	0.708450	0.164039
	H18	H	0.598087	0.279966	0.835385
	H19	H	0.395360	0.278685	0.162768
	H20	H	0.708884	0.830745	0.403951
	H21	H	0.707487	0.157056	0.597394
	H22	H	0.284893	0.829304	0.596272
	H23	H	0.275806	0.155624	0.399119
	H24	H	0.897867	0.330842	0.214718
	H25	H	0.092797	0.656873	0.216797
	H26	H	0.093821	0.330685	0.787745
	H27	H	0.891975	0.656812	0.782277
	H28	H	0.205897	0.897251	0.333121
	H29	H	0.205731	0.087532	0.665911
	H30	H	0.780722	0.091814	0.334563
	H31	H	0.786321	0.898212	0.666085
	H32	H	0.331073	0.214485	0.894937
	H33	H	0.660233	0.206407	0.100813
	H34	H	0.329846	0.780876	0.100953
	H35	H	0.659512	0.777870	0.900058
	H36	H	0.327655	0.900518	0.209536
	H37	H	0.660661	0.089716	0.213235
	H38	H	0.328595	0.093855	0.786888
	H39	H	0.662055	0.899114	0.791009
	H40	H	0.889578	0.212240	0.336692
	H41	H	0.096200	0.206613	0.664550
	H42	H	0.096089	0.778093	0.335676
	H43	H	0.895988	0.778609	0.663454
	H44	H	0.212623	0.332308	0.902513
	H45	H	0.207057	0.658757	0.097945
	H46	H	0.782569	0.331646	0.097793
	H47	H	0.780323	0.658891	0.903068
	H48	H	0.397023	0.111370	0.594514
	H49	H	0.600651	0.874575	0.600456
	H50	H	0.591332	0.111331	0.407286
	H51	H	0.397273	0.877765	0.408948
	H52	H	0.582668	0.401995	0.115650
	H53	H	0.580693	0.588132	0.882693
	H54	H	0.407742	0.595455	0.118466
	H55	H	0.406554	0.396104	0.881038
	H56	H	0.112095	0.588807	0.415033
	H57	H	0.874753	0.591683	0.589707
	H58	H	0.112079	0.400005	0.591433
	H59	H	0.877409	0.400747	0.411831
	H60	H	0.113499	0.396470	0.597417
	H61	H	0.877162	0.586393	0.587170
	H62	H	0.112404	0.580017	0.408006
	H63	H	0.876240	0.404874	0.405562
	H64	H	0.395324	0.590944	0.120945
	H65	H	0.586536	0.593486	0.879492
	H66	H	0.586831	0.392472	0.119168
	H67	H	0.396533	0.406775	0.879870
	H68	H	0.583101	0.111054	0.400465
	H69	H	0.580662	0.878101	0.602607
	H70	H	0.401990	0.110046	0.593146
	H71	H	0.400688	0.875420	0.398945
	H72	H	0.895103	0.613546	0.097378
	H73	H	0.087116	0.379323	0.096605
	H74	H	0.091484	0.609145	0.915845
	H75	H	0.908851	0.379394	0.900304
	H76	H	0.091320	0.881783	0.623237
	H77	H	0.085161	0.086707	0.381805
	H78	H	0.905120	0.097132	0.620260
	H79	H	0.899902	0.892797	0.377795
	H80	H	0.613412	0.088794	0.913030
	H81	H	0.374874	0.080688	0.101791
	H82	H	0.611960	0.896162	0.082221
	H83	H	0.378005	0.900918	0.914980
	H84	H	0.611112	0.910228	0.094396
	H85	H	0.371947	0.103999	0.089682
	H86	H	0.613462	0.082789	0.905019
	H87	H	0.377403	0.910244	0.907210
	H88	H	0.893124	0.083309	0.620018
	H89	H	0.082293	0.084522	0.382380
	H90	H	0.101424	0.908064	0.618926
	H91	H	0.895254	0.908212	0.381522
	H92	H	0.091852	0.614952	0.895823
	H93	H	0.092606	0.379484	0.091045
	H94	H	0.904577	0.610163	0.097198
	H95	H	0.901478	0.381223	0.915521
	H96	H	0.398419	0.109659	0.589531
	H97	H	0.589806	0.881000	0.585594
	H98	H	0.581741	0.107349	0.411055
	H99	H	0.407819	0.879729	0.406220
	H100	H	0.594290	0.401805	0.118902
	H101	H	0.588226	0.585757	0.881301
	H102	H	0.404501	0.582930	0.115564
	H103	H	0.410565	0.409367	0.885056
	H104	H	0.115451	0.590195	0.404802
	H105	H	0.874847	0.586936	0.592879
	H106	H	0.114147	0.393722	0.591803
	H107	H	0.874411	0.398208	0.406649
	H108	H	0.899668	0.609606	0.089377
	H109	H	0.094643	0.376219	0.099458
	H110	H	0.073975	0.607496	0.904759
	H111	H	0.892602	0.374109	0.902040
	H112	H	0.073960	0.901959	0.613190
	H113	H	0.081479	0.088460	0.382051
	H114	H	0.910810	0.081015	0.614158
	H115	H	0.910834	0.903972	0.384227
	H116	H	0.616206	0.093500	0.904280
	H117	H	0.381859	0.085032	0.076043
	H118	H	0.617558	0.892785	0.099599
	H119	H	0.373212	0.898813	0.902449
	C120	C	0.372272	0.002175	0.621467
	C121	C	0.617716	0.985768	0.623439
	C122	C	0.615708	0.002859	0.377945
	C123	C	0.371275	0.985254	0.376002
	C124	C	0.616816	0.372586	0.008331
	C125	C	0.614424	0.615614	0.990792
	C126	C	0.372814	0.618622	0.008907
	C127	C	0.375450	0.374942	0.990885
	C128	C	0.003919	0.615587	0.378973
	C129	C	0.985451	0.614706	0.619675
	C130	C	0.003264	0.370475	0.622224
	C131	C	0.986004	0.372038	0.380057
	C132	C	0.872310	0.502935	0.122827
	C133	C	0.118196	0.486102	0.123459
	C134	C	0.115957	0.503061	0.877887
	C135	C	0.871542	0.486184	0.877476
	C136	C	0.117042	0.870484	0.508762
	C137	C	0.113811	0.113977	0.491372
	C138	C	0.872638	0.116206	0.509125
	C139	C	0.873995	0.872914	0.490384
	C140	C	0.504519	0.117657	0.877825
	C141	C	0.485862	0.116442	0.119755
	C142	C	0.503547	0.873031	0.120587
	C143	C	0.486032	0.874446	0.879959
	C144	C	0.377115	0.880087	0.677408
	C145	C	0.613019	0.109115	0.676615
	C146	C	0.614826	0.880282	0.322815
	C147	C	0.372061	0.107766	0.320712
	C148	C	0.670373	0.378176	0.883575
	C149	C	0.668817	0.610682	0.116308
	C150	C	0.317001	0.615607	0.884059
	C151	C	0.322266	0.378457	0.116120
	C152	C	0.879750	0.673251	0.377435
	C153	C	0.110314	0.668288	0.619930
	C154	C	0.878613	0.317102	0.620547
	C155	C	0.110260	0.314857	0.381866
	C156	C	0.877525	0.376759	0.674612
	C157	C	0.110976	0.608933	0.674843
	C158	C	0.878287	0.612760	0.324006
	C159	C	0.111616	0.374498	0.327054
	C160	C	0.372277	0.674382	0.884696
	C161	C	0.614813	0.670365	0.114944
	C162	C	0.616485	0.318212	0.884463
	C163	C	0.376663	0.318302	0.114369
	C164	C	0.671636	0.879840	0.381952
	C165	C	0.670856	0.108565	0.619071
	C166	C	0.320790	0.878942	0.617721
	C167	C	0.314167	0.107191	0.378454
	C168	C	0.876580	0.380052	0.177481
	C169	C	0.113993	0.608587	0.178651
	C170	C	0.114732	0.379760	0.824266
	C171	C	0.872858	0.608558	0.821462
	C172	C	0.170009	0.875351	0.383351
	C173	C	0.168952	0.108945	0.615993
	C174	C	0.817324	0.113304	0.384386
	C175	C	0.821612	0.876453	0.615920
	C176	C	0.380114	0.174819	0.877490
	C177	C	0.610724	0.169389	0.119954
	C178	C	0.379053	0.818536	0.119800
	C179	C	0.610475	0.817216	0.880802
	C180	C	0.377932	0.878123	0.174124
	C181	C	0.610939	0.111205	0.175666
	C182	C	0.378583	0.114836	0.823560
	C183	C	0.611840	0.877410	0.826699
	C184	C	0.871522	0.173074	0.385577
	C185	C	0.114448	0.168273	0.615408
	C186	C	0.115313	0.816216	0.384481
	C187	C	0.876287	0.816985	0.614657
	C188	C	0.173366	0.380494	0.881595
	C189	C	0.170758	0.609391	0.119608
	C190	C	0.819252	0.380442	0.118990
	C191	C	0.817259	0.609668	0.881574
	C192	C	0.393110	0.088231	0.599197
	C193	C	0.596559	0.899956	0.602402
	C194	C	0.592295	0.087833	0.399835
	C195	C	0.394963	0.899708	0.398112
	C196	C	0.594462	0.392894	0.095491
	C197	C	0.591769	0.595172	0.903770
	C198	C	0.395837	0.596286	0.095575
	C199	C	0.397770	0.397477	0.904304
	C200	C	0.090910	0.592974	0.402319
	C201	C	0.898232	0.594429	0.596675
	C202	C	0.090899	0.390832	0.600303
	C203	C	0.898560	0.394672	0.401597
	C204	C	0.893567	0.589058	0.101092
	C205	C	0.097593	0.400428	0.102127
	C206	C	0.092535	0.588482	0.899096
	C207	C	0.894348	0.400334	0.899416
	C208	C	0.095461	0.891157	0.595862
	C209	C	0.089932	0.092936	0.404448
	C210	C	0.896109	0.093743	0.595791
	C211	C	0.895666	0.894910	0.403660
	C212	C	0.591664	0.095223	0.900643
	C213	C	0.398748	0.096002	0.095972
	C214	C	0.590785	0.893548	0.098596
	C215	C	0.398863	0.896780	0.901596
	Zn216	Zn	0.494828	-0.004533	0.751398
	Zn217	Zn	0.494059	-0.005469	0.247403
	Zn218	Zn	0.743088	0.495463	0.000098
	Zn219	Zn	0.246400	0.496116	-0.000169
	Zn220	Zn	-0.004754	0.743659	0.499482
	Zn221	Zn	-0.006517	0.243443	0.501013
	Zn222	Zn	-0.006281	0.493294	0.748008
	Zn223	Zn	-0.004965	0.493642	0.251945
	Zn224	Zn	0.494683	0.745246	0.000028
	Zn225	Zn	0.495812	0.244874	-0.001036
	Zn226	Zn	0.745742	-0.005949	0.500378
	Zn227	Zn	0.242659	-0.007230	0.499278
	N228	N	0.408417	0.957940	0.679612
	N229	N	0.580826	0.031548	0.679503
	N230	N	0.580678	0.957502	0.320167
	N231	N	0.406780	0.030690	0.318866
	N232	N	0.670723	0.411315	0.961768
	N233	N	0.668715	0.577297	0.038238
	N234	N	0.316968	0.581593	0.962242
	N235	N	0.321559	0.413201	0.038170
	N236	N	0.958882	0.675086	0.411016
	N237	N	0.031314	0.671899	0.586391
	N238	N	0.957890	0.313262	0.588549
	N239	N	0.030974	0.313246	0.414011
	N240	N	0.956120	0.409223	0.675788
	N241	N	0.032406	0.576275	0.674968
	N242	N	0.956369	0.577413	0.324763
	N243	N	0.033408	0.409575	0.325926
	N244	N	0.406091	0.676570	0.963272
	N245	N	0.581426	0.673408	0.036140
	N246	N	0.584117	0.314466	0.963283
	N247	N	0.408880	0.315944	0.035608
	N248	N	0.672412	0.956891	0.415520
	N249	N	0.673874	0.031060	0.586800
	N250	N	0.317706	0.956054	0.583772
	N251	N	0.313811	0.030181	0.412223
	N252	N	0.908998	0.457482	0.179706
	N253	N	0.082374	0.530761	0.181347
	N254	N	0.079801	0.456844	0.821836
	N255	N	0.905841	0.530761	0.818679
	N256	N	0.171163	0.908347	0.461537
	N257	N	0.168862	0.075858	0.537627
	N258	N	0.817834	0.078529	0.462191
	N259	N	0.820074	0.910601	0.537792
	N260	N	0.459566	0.176704	0.910555
	N261	N	0.531988	0.172677	0.085724
	N262	N	0.458290	0.815177	0.087391
	N263	N	0.531399	0.815268	0.913198
	N264	N	0.456280	0.911322	0.174805
	N265	N	0.532149	0.079079	0.175945
	N266	N	0.456677	0.079765	0.823706
	N267	N	0.533644	0.912381	0.825991
	N268	N	0.905074	0.175014	0.464307
	N269	N	0.080902	0.171711	0.536798
	N270	N	0.082887	0.813179	0.463406
	N271	N	0.908172	0.814728	0.535767
	N272	N	0.174501	0.458103	0.913943
	N273	N	0.173511	0.532449	0.085960
	N274	N	0.816530	0.457977	0.085907
	N275	N	0.816181	0.532434	0.915535
	O276	O	1.054075	0.982952	0.034545
	H277	H	1.052633	0.977638	0.037016
	H278	H	1.065698	0.979196	0.035256
	O279	O	-0.000623	-0.003147	1.005703
	H280	H	-0.014521	-0.003529	1.006929
	H281	H	-0.005002	0.005036	1.003938
	O282	O	0.032095	-0.040214	-0.001727
	H283	H	0.017673	-0.038754	-0.002635
	H284	H	0.037682	-0.039582	-0.001945
	O285	O	0.472028	0.503761	0.465555
	H286	H	0.471703	0.503613	0.469798
	H287	H	0.479634	0.509551	0.465866
	O288	O	-0.009776	0.012881	-0.043283
	H289	H	-0.010913	0.015295	-0.048928
	H290	H	-0.009217	0.022749	-0.045839
	O291	O	0.017800	1.084104	-0.039040
	H292	H	0.025925	1.084123	-0.031232
	H293	H	0.021204	1.077985	-0.034708
	O294	O	0.037254	1.019495	-0.004025
	H295	H	0.039993	1.019757	-0.007645
	H296	H	0.032668	1.014773	0.000525
	O297	O	0.515173	0.531272	0.482476
	H298	H	0.523718	0.535054	0.472174
	H299	H	0.521276	0.528809	0.486981
	O300	O	0.537275	0.512592	0.462110
	H301	H	0.530515	0.514607	0.456308
	H302	H	0.537036	0.508141	0.461521
	O303	O	0.925243	0.056493	0.872771
	H304	H	0.931534	0.056340	0.874774
	H305	H	0.935368	0.067743	0.866104
	O306	O	0.905639	2.017883	1.001832
	H307	H	0.897582	2.019992	0.991801
	H308	H	0.912031	2.015082	1.000130
	O309	O	-0.102134	1.030279	1.028113
	H310	H	-0.098421	1.033584	1.029910
	H311	H	-0.116720	1.032427	1.010987
	O312	O	-0.042798	-0.034973	0.965905
	H313	H	-0.048748	-0.035518	0.963723
	H314	H	-0.045121	-0.037755	0.968187
	O315	O	0.530798	0.496053	0.552741
	H316	H	0.531163	0.500246	0.552507
	H317	H	0.527929	0.501464	0.555182
	O318	O	0.446509	-0.439915	0.430984
	H319	H	0.438833	-0.440673	0.428439
	H320	H	0.445114	-0.430525	0.429114
	O321	O	0.480527	0.466480	0.422278
	H322	H	0.483794	0.470010	0.424122
	H323	H	0.478958	0.469708	0.420161
	O324	O	1.065603	-0.034125	1.001819
	H325	H	1.061877	-0.024519	0.999960
	H326	H	1.072498	-0.041869	1.001504
	O327	O	0.970529	0.994258	1.039836
	H328	H	0.965013	0.999071	1.033211
	H329	H	0.977009	0.988378	1.055209
	O330	O	0.516996	0.503084	0.463759
	H331	H	0.514747	0.498262	0.460881
	H332	H	0.505940	0.502179	0.465070
	O333	O	0.545530	0.439768	0.520054
	H334	H	0.538830	0.427387	0.521261
	H335	H	0.557310	0.442847	0.519186
	O336	O	0.488723	0.495511	0.544946
	H337	H	0.500944	0.493002	0.544619
	H338	H	0.484671	0.499241	0.538485
	O339	O	0.524018	0.528222	0.458707
	H340	H	0.524074	0.524461	0.458872
	H341	H	0.521732	0.529704	0.457525
	O342	O	0.454152	0.468261	0.477821
	H343	H	0.456305	0.458582	0.476833
	H344	H	0.449227	0.462307	0.472682
	O345	O	0.477794	0.426812	0.471178
	H346	H	0.471859	0.432712	0.471012
	H347	H	0.476048	0.430653	0.468082
