data_Molecule from HDF5

_cell_length_a		16.006184
_cell_length_b		16.267958
_cell_length_c		16.591286
_cell_angle_alpha	89.908906
_cell_angle_beta	90.120620
_cell_angle_gamma	90.845582
_symmetry_space_group_name_H-M	'P 1'
_symmetry_Int_Tables_number		1

loop_
	_symmetry_equiv_pos_as_xyz
	x,y,z

loop_
	_atom_site_label
	_atom_site_type_symbol
	_atom_site_fract_x
	_atom_site_fract_y
	_atom_site_fract_z
	H0	H	0.384805	0.821183	0.709809
	H1	H	0.606472	0.140341	0.707583
	H2	H	0.603376	0.823302	0.262794
	H3	H	0.387379	0.140138	0.264416
	H4	H	0.712709	0.383847	0.826236
	H5	H	0.718626	0.586927	0.145538
	H6	H	0.281629	0.579092	0.824867
	H7	H	0.275857	0.377549	0.144341
	H8	H	0.830217	0.690129	0.387353
	H9	H	0.160061	0.700354	0.587200
	H10	H	0.832388	0.262128	0.587353
	H11	H	0.161209	0.269398	0.388483
	H12	H	0.833419	0.373820	0.705845
	H13	H	0.160174	0.587244	0.703696
	H14	H	0.835163	0.587823	0.264370
	H15	H	0.157654	0.376722	0.267463
	H16	H	0.393464	0.702437	0.828068
	H17	H	0.604755	0.706709	0.145208
	H18	H	0.603364	0.261617	0.828709
	H19	H	0.388514	0.256337	0.142042
	H20	H	0.705481	0.817434	0.389305
	H21	H	0.714216	0.142774	0.584857
	H22	H	0.277709	0.818090	0.585860
	H23	H	0.286217	0.145647	0.391608
	H24	H	0.884630	0.322048	0.208141
	H25	H	0.107440	0.641469	0.208801
	H26	H	0.100815	0.322760	0.765930
	H27	H	0.891206	0.642445	0.764326
	H28	H	0.210404	0.883924	0.324186
	H29	H	0.214282	0.080936	0.647587
	H30	H	0.780170	0.077807	0.326389
	H31	H	0.775727	0.876269	0.646377
	H32	H	0.330897	0.192736	0.886287
	H33	H	0.661018	0.200449	0.086015
	H34	H	0.330879	0.766013	0.085579
	H35	H	0.662068	0.772102	0.889219
	H36	H	0.332475	0.874621	0.205437
	H37	H	0.658361	0.091775	0.207513
	H38	H	0.333554	0.083467	0.767892
	H39	H	0.658283	0.877663	0.768245
	H40	H	0.889818	0.202583	0.328992
	H41	H	0.102543	0.202725	0.646089
	H42	H	0.095936	0.763292	0.325567
	H43	H	0.890005	0.756803	0.644752
	H44	H	0.204674	0.317860	0.889573
	H45	H	0.213870	0.645338	0.084253
	H46	H	0.776093	0.320740	0.085947
	H47	H	0.786418	0.647499	0.890146
	H48	H	0.416515	0.093745	0.579627
	H49	H	0.572169	0.868402	0.580046
	H50	H	0.588345	0.100188	0.390255
	H51	H	0.400165	0.865415	0.399922
	H52	H	0.578199	0.396439	0.094694
	H53	H	0.579957	0.581725	0.875371
	H54	H	0.399398	0.573893	0.100856
	H55	H	0.407277	0.379823	0.870687
	H56	H	0.113093	0.567677	0.394424
	H57	H	0.879700	0.569738	0.572055
	H58	H	0.111566	0.393093	0.571182
	H59	H	0.875920	0.390216	0.390263
	H60	H	0.113097	0.401756	0.581430
	H61	H	0.879769	0.561210	0.579377
	H62	H	0.115616	0.575231	0.394358
	H63	H	0.878401	0.387883	0.401573
	H64	H	0.408850	0.567019	0.096912
	H65	H	0.594909	0.583958	0.870246
	H66	H	0.582453	0.386395	0.099115
	H67	H	0.393137	0.387538	0.868726
	H68	H	0.578947	0.094374	0.395389
	H69	H	0.586546	0.865250	0.572609
	H70	H	0.404138	0.096264	0.574575
	H71	H	0.403452	0.862466	0.388090
	H72	H	0.906831	0.601274	0.087923
	H73	H	0.090887	0.365702	0.073813
	H74	H	0.092007	0.601784	0.889397
	H75	H	0.909449	0.366765	0.890070
	H76	H	0.092980	0.887252	0.600449
	H77	H	0.094925	0.076560	0.371804
	H78	H	0.910094	0.071634	0.598564
	H79	H	0.908047	0.886219	0.374792
	H80	H	0.614849	0.074070	0.895932
	H81	H	0.378736	0.068780	0.076791
	H82	H	0.612751	0.891612	0.070425
	H83	H	0.383504	0.904173	0.900904
	H84	H	0.609794	0.906461	0.077248
	H85	H	0.379212	0.066967	0.076104
	H86	H	0.612750	0.070999	0.897442
	H87	H	0.373992	0.890738	0.883264
	H88	H	0.906529	0.072548	0.600001
	H89	H	0.085470	0.071194	0.375944
	H90	H	0.083000	0.897533	0.595703
	H91	H	0.899742	0.878888	0.370300
	H92	H	0.080185	0.597093	0.890444
	H93	H	0.082946	0.363148	0.089917
	H94	H	0.923281	0.593305	0.078054
	H95	H	0.907060	0.369318	0.899163
	H96	H	0.407035	0.098506	0.586236
	H97	H	0.584570	0.860802	0.588128
	H98	H	0.589506	0.096188	0.401630
	H99	H	0.412467	0.868244	0.395392
	H100	H	0.589544	0.395950	0.098679
	H101	H	0.590293	0.569862	0.875282
	H102	H	0.411250	0.578639	0.099835
	H103	H	0.405519	0.394628	0.875481
	H104	H	0.112395	0.571722	0.400434
	H105	H	0.876375	0.570842	0.582033
	H106	H	0.117585	0.388413	0.583670
	H107	H	0.880854	0.398267	0.397740
	H108	H	0.904397	0.596451	0.068273
	H109	H	0.073041	0.371053	0.076671
	H110	H	0.088928	0.597206	0.899809
	H111	H	0.900440	0.365370	0.893285
	H112	H	0.078784	0.883146	0.598092
	H113	H	0.085502	0.082159	0.372433
	H114	H	0.906839	0.068643	0.599339
	H115	H	0.896787	0.890309	0.373174
	H116	H	0.614176	0.071243	0.894627
	H117	H	0.379303	0.067242	0.077791
	H118	H	0.616350	0.894927	0.086061
	H119	H	0.378226	0.881292	0.904869
	C120	C	0.374846	-0.010385	0.610013
	C121	C	0.616085	0.971438	0.609533
	C122	C	0.616212	-0.009592	0.365288
	C123	C	0.375190	0.972553	0.365194
	C124	C	0.615824	0.362313	-0.006601
	C125	C	0.620187	0.608417	0.978486
	C126	C	0.375752	0.603228	-0.006005
	C127	C	0.371209	0.356471	0.976505
	C128	C	0.005311	0.601130	0.365634
	C129	C	0.986948	0.601117	0.607575
	C130	C	0.005438	0.361322	0.608283
	C131	C	0.986999	0.361863	0.366618
	C132	C	0.876177	0.490903	0.108488
	C133	C	0.117126	0.473316	0.109294
	C134	C	0.116521	0.491402	0.864423
	C135	C	0.875182	0.474267	0.864316
	C136	C	0.115927	0.859806	0.492970
	C137	C	0.119827	0.105862	0.478701
	C138	C	0.875582	0.101418	0.494623
	C139	C	0.870754	0.854745	0.478007
	C140	C	0.505589	0.101722	0.865326
	C141	C	0.486992	0.102347	0.107779
	C142	C	0.504526	0.863286	0.107897
	C143	C	0.487143	0.862238	0.866554
	C144	C	0.369171	0.868950	0.668958
	C145	C	0.622411	0.092368	0.667531
	C146	C	0.618903	0.870253	0.304867
	C147	C	0.371989	0.093106	0.305994
	C148	C	0.674449	0.363504	0.874108
	C149	C	0.679601	0.607399	0.097870
	C150	C	0.319355	0.600553	0.873224
	C151	C	0.313838	0.357068	0.096205
	C152	C	0.880457	0.654942	0.366858
	C153	C	0.110907	0.661097	0.606840
	C154	C	0.881729	0.300985	0.607839
	C155	C	0.111316	0.306454	0.368152
	C156	C	0.882248	0.356782	0.666275
	C157	C	0.111057	0.604881	0.664628
	C158	C	0.882987	0.603718	0.305620
	C159	C	0.109571	0.359959	0.307868
	C160	C	0.374983	0.661841	0.874826
	C161	C	0.623020	0.667071	0.097743
	C162	C	0.619369	0.302618	0.875203
	C163	C	0.370080	0.296879	0.095115
	C164	C	0.670379	0.867194	0.367523
	C165	C	0.676360	0.093694	0.606775
	C166	C	0.315604	0.867303	0.607441
	C167	C	0.321199	0.095767	0.369019
	C168	C	0.869431	0.370094	0.167705
	C169	C	0.122927	0.594015	0.167963
	C170	C	0.117810	0.370175	0.806265
	C171	C	0.873915	0.595141	0.805457
	C172	C	0.172693	0.862572	0.372461
	C173	C	0.176723	0.102597	0.599221
	C174	C	0.817615	0.099362	0.374710
	C175	C	0.813804	0.856041	0.598333
	C176	C	0.380953	0.156323	0.866307
	C177	C	0.611304	0.161860	0.106569
	C178	C	0.380619	0.803775	0.106387
	C179	C	0.611597	0.807693	0.868401
	C180	C	0.381270	0.858449	0.165683
	C181	C	0.609754	0.108134	0.167254
	C182	C	0.382271	0.101720	0.807366
	C183	C	0.609916	0.860237	0.808049
	C184	C	0.872871	0.161130	0.375803
	C185	C	0.120839	0.163127	0.598503
	C186	C	0.115398	0.802719	0.373100
	C187	C	0.870637	0.796492	0.597367
	C188	C	0.169611	0.367784	0.867988
	C189	C	0.176220	0.595794	0.106091
	C190	C	0.815338	0.369159	0.106710
	C191	C	0.821741	0.597686	0.868059
	C192	C	0.401419	0.074287	0.586912
	C193	C	0.588918	0.886783	0.586825
	C194	C	0.592531	0.074930	0.388959
	C195	C	0.398753	0.887562	0.387730
	C196	C	0.590601	0.386200	0.076147
	C197	C	0.595508	0.585425	0.895364
	C198	C	0.399513	0.579958	0.077464
	C199	C	0.394955	0.380267	0.893286
	C200	C	0.091302	0.578091	0.389520
	C201	C	0.900947	0.574948	0.584568
	C202	C	0.091488	0.387174	0.585361
	C203	C	0.900555	0.385378	0.389789
	C204	C	0.903567	0.575157	0.085052
	C205	C	0.090205	0.388649	0.086620
	C206	C	0.093759	0.576505	0.886814
	C207	C	0.898680	0.389201	0.887479
	C208	C	0.092077	0.882681	0.576332
	C209	C	0.095836	0.083242	0.395111
	C210	C	0.900550	0.077856	0.577732
	C211	C	0.894702	0.878061	0.394534
	C212	C	0.591656	0.078706	0.888925
	C213	C	0.401433	0.075534	0.083860
	C214	C	0.590757	0.889845	0.084673
	C215	C	0.401012	0.885412	0.889529
	Zn216	Zn	0.496296	-0.019290	0.738447
	Zn217	Zn	0.495539	-0.017510	0.236629
	Zn218	Zn	0.747329	0.483480	-0.013605
	Zn219	Zn	0.244087	0.481681	-0.014400
	Zn220	Zn	-0.004872	0.726827	0.485539
	Zn221	Zn	-0.003787	0.234264	0.486916
	Zn222	Zn	-0.003554	0.482181	0.736080
	Zn223	Zn	-0.004124	0.481658	0.238762
	Zn224	Zn	0.496266	0.735918	-0.012583
	Zn225	Zn	0.496392	0.229022	-0.014829
	Zn226	Zn	0.743207	-0.020599	0.487038
	Zn227	Zn	0.247927	-0.018867	0.486087
	N228	N	0.405535	0.946008	0.670388
	N229	N	0.585804	0.015372	0.669338
	N230	N	0.586143	0.947888	0.303139
	N231	N	0.404843	0.015499	0.303590
	N232	N	0.672208	0.400211	0.948514
	N233	N	0.678158	0.571745	0.022806
	N234	N	0.319927	0.564498	0.948304
	N235	N	0.314301	0.393268	0.021441
	N236	N	0.957414	0.653389	0.403629
	N237	N	0.032831	0.658751	0.571953
	N238	N	0.959334	0.303536	0.572604
	N239	N	0.033943	0.307465	0.404036
	N240	N	0.960139	0.393494	0.666808
	N241	N	0.033036	0.568551	0.665405
	N242	N	0.961611	0.570915	0.304781
	N243	N	0.031218	0.393454	0.306767
	N244	N	0.409264	0.663576	0.950837
	N245	N	0.586711	0.667807	0.022607
	N246	N	0.583445	0.301769	0.950287
	N247	N	0.405087	0.296393	0.019578
	N248	N	0.668544	0.942732	0.404707
	N249	N	0.672477	0.017379	0.571408
	N250	N	0.318877	0.943340	0.571320
	N251	N	0.322964	0.019814	0.405211
	N252	N	0.906717	0.446834	0.168840
	N253	N	0.087150	0.516643	0.170386
	N254	N	0.085474	0.448029	0.803846
	N255	N	0.906009	0.517152	0.802809
	N256	N	0.172988	0.897525	0.448043
	N257	N	0.176329	0.067680	0.523831
	N258	N	0.819207	0.062958	0.449419
	N259	N	0.813675	0.891509	0.523143
	N260	N	0.458634	0.156450	0.901804
	N261	N	0.533851	0.158886	0.070652
	N262	N	0.458444	0.806552	0.071605
	N263	N	0.534114	0.808595	0.904120
	N264	N	0.459627	0.894418	0.167001
	N265	N	0.531559	0.071903	0.168111
	N266	N	0.460842	0.068658	0.806638
	N267	N	0.531410	0.893133	0.806657
	N268	N	0.908241	0.162618	0.451453
	N269	N	0.086258	0.165438	0.522524
	N270	N	0.081115	0.800650	0.449006
	N271	N	0.905089	0.795348	0.521516
	N272	N	0.169038	0.444058	0.903618
	N273	N	0.172914	0.519648	0.070416
	N274	N	0.819189	0.445194	0.070690
	N275	N	0.822452	0.521487	0.904036
	O276	O	0.324508	0.426264	0.510180
	H277	H	0.324405	0.432931	0.507060
	H278	H	0.326890	0.428165	0.510579
	O279	O	0.507320	0.282680	0.275179
	H280	H	0.540329	0.277372	0.273089
	H281	H	0.528316	0.268218	0.265074
	O282	O	0.913725	0.093275	0.948049
	H283	H	0.926138	0.081439	0.956837
	H284	H	0.916992	0.093677	0.950517
	O285	O	0.624245	0.658189	0.501329
	H286	H	0.624249	0.666499	0.512043
	H287	H	0.625245	0.662893	0.497834
	O288	O	1.114045	0.897317	0.909488
	H289	H	1.118253	0.887446	0.906639
	H290	H	1.121704	0.889383	0.920606
	O291	O	0.036286	0.943637	0.052303
	H292	H	0.031008	0.946777	0.046807
	H293	H	0.033236	0.928681	0.062672
	O294	O	0.642569	0.605942	0.599805
	H295	H	0.633355	0.599800	0.592715
	H296	H	0.630333	0.600651	0.608272
	O297	O	0.489825	0.591510	0.634782
	H298	H	0.488536	0.605632	0.622929
	H299	H	0.485570	0.592672	0.637024
	O300	O	0.556434	0.384796	0.484558
	H301	H	0.568130	0.389045	0.480200
	H302	H	0.532803	0.382956	0.485291
	O303	O	0.670333	0.316751	0.412155
	H304	H	0.674991	0.317730	0.428123
	H305	H	0.664907	0.328499	0.423205
	O306	O	0.412513	0.346438	0.351044
	H307	H	0.445546	0.329295	0.340026
	H308	H	0.416363	0.349883	0.355740
	O309	O	0.593338	0.449800	0.303686
	H310	H	0.585269	0.449971	0.299367
	H311	H	0.619430	0.463541	0.305908
	O312	O	-0.081876	-0.010649	0.051567
	H313	H	-0.093912	-0.009760	0.053730
	H314	H	-0.085365	-0.008662	0.062216
	O315	O	0.316840	0.662722	0.320312
	H316	H	0.303387	0.622364	0.312461
	H317	H	0.340322	0.665904	0.331492
	O318	O	-0.162472	1.085069	0.973071
	H319	H	-0.148942	1.079758	0.980707
	H320	H	-0.170465	1.079356	0.978395
	O321	O	0.366598	0.345647	0.528739
	H322	H	0.361141	0.342811	0.533324
	H323	H	0.361170	0.332869	0.535680
	O324	O	0.019767	0.897957	0.115775
	H325	H	0.009421	0.903729	0.100593
	H326	H	0.028375	0.892317	0.125256
	O327	O	0.467377	0.569746	0.600060
	H328	H	0.455275	0.561485	0.601022
	H329	H	0.479114	0.554012	0.581562
	O330	O	-0.003889	0.109335	0.993908
	H331	H	-0.012211	0.116158	0.988017
	H332	H	-0.008979	0.115991	0.999413
	O333	O	0.094873	-0.049876	1.031381
	H334	H	0.106978	-0.037588	1.037020
	H335	H	0.083059	-0.033833	1.027417
	O336	O	0.546416	0.607986	0.441067
	H337	H	0.539816	0.602353	0.449486
	H338	H	0.554344	0.608874	0.448561
	O339	O	0.470458	0.528170	0.557260
	H340	H	0.468034	0.551378	0.552688
	H341	H	0.484237	0.527544	0.555924
	O342	O	0.569250	-0.532631	0.583825
	H343	H	0.562421	-0.524476	0.591573
	H344	H	0.570096	-0.529747	0.574729
	O345	O	1.544424	0.532895	1.285845
	H346	H	1.532454	0.543566	1.293323
	H347	H	1.525876	0.530530	1.279496
	O348	O	0.959707	1.005236	-0.179716
	H349	H	0.960772	0.987597	-0.186558
	H350	H	0.957571	1.015879	-0.172015
	O351	O	0.468377	0.684024	0.276368
	H352	H	0.458094	0.681662	0.300863
	H353	H	0.471943	0.710339	0.248229
	O354	O	1.018471	0.033486	1.003774
	H355	H	1.027361	0.036946	0.984759
	H356	H	1.020018	0.040492	1.008599
	O357	O	0.414119	0.394289	0.622692
	H358	H	0.418934	0.401215	0.626833
	H359	H	0.400072	0.377796	0.636498
	O360	O	1.135895	1.105021	1.074376
	H361	H	1.138984	1.122943	1.075493
	H362	H	1.141845	1.096571	1.060252
	O363	O	-0.107770	0.963355	1.067116
	H364	H	-0.105616	0.976835	1.061846
	H365	H	-0.112673	0.945711	1.065690
	O366	O	0.694106	0.513059	0.546235
	H367	H	0.691655	0.506541	0.544757
	H368	H	0.699036	0.512930	0.557076
	O369	O	0.030499	1.031567	-0.165748
	H370	H	0.024197	1.025221	-0.162903
	H371	H	0.038769	1.029896	-0.158012
	O372	O	0.422159	0.475769	0.675918
	H373	H	0.415172	0.459742	0.677929
	H374	H	0.429396	0.482610	0.690081
	O375	O	0.665813	0.381722	0.322988
	H376	H	0.676454	0.389335	0.351770
	H377	H	0.661593	0.409406	0.316370
	O378	O	1.022418	1.016485	-0.019015
	H379	H	1.013995	1.019770	-0.012898
	H380	H	1.012880	1.011574	-0.024440
	O381	O	0.860661	-0.077249	-0.020934
	H382	H	0.859356	-0.067710	-0.021377
	H383	H	0.868998	-0.080784	-0.023712
	O384	O	1.068642	0.877239	-0.011264
	H385	H	1.064051	0.885266	-0.006609
	H386	H	1.067029	0.868703	-0.009479
	O387	O	-0.473490	0.499955	0.624523
	H388	H	-0.487104	0.496802	0.637372
	H389	H	-0.483169	0.495029	0.617991
	O390	O	-0.016021	1.043956	-0.082279
	H391	H	-0.007981	1.043475	-0.086396
	H392	H	-0.014081	1.048587	-0.065148
	O393	O	0.936013	0.908281	0.939078
	H394	H	0.938224	0.918290	0.920522
	H395	H	0.950570	0.920856	0.943106
	O396	O	0.492943	0.300592	0.572293
	H397	H	0.490342	0.301838	0.573593
	H398	H	0.504807	0.299417	0.581727
	O399	O	0.110939	1.138964	0.992294
	H400	H	0.108853	1.126084	0.994080
	H401	H	0.112722	1.145597	0.976241
	O402	O	0.299734	0.503305	0.300285
	H403	H	0.283837	0.496574	0.283315
	H404	H	0.307359	0.481299	0.302042
	O405	O	0.987579	1.074938	0.109041
	H406	H	0.995193	1.072989	0.122493
	H407	H	0.998274	1.089913	0.115793
	O408	O	0.889452	0.890558	0.052512
	H409	H	0.869425	0.888752	0.074540
	H410	H	0.898189	0.873280	0.043950
	O411	O	1.456837	0.328787	1.666354
	H412	H	1.457987	0.326507	1.676718
	H413	H	1.459790	0.331593	1.658940
	O414	O	0.310529	0.635605	0.486552
	H415	H	0.307536	0.642605	0.481030
	H416	H	0.298270	0.624154	0.472062
	O417	O	0.099861	-0.136006	0.829559
	H418	H	0.090413	-0.151682	0.832849
	H419	H	0.113879	-0.137754	0.833719
