data_Molecule from HDF5

_cell_length_a		16.152148
_cell_length_b		16.335581
_cell_length_c		16.180088
_cell_angle_alpha	89.981942
_cell_angle_beta	89.842667
_cell_angle_gamma	90.082244
_symmetry_space_group_name_H-M	'P 1'
_symmetry_Int_Tables_number		1

loop_
	_symmetry_equiv_pos_as_xyz
	x,y,z

loop_
	_atom_site_label
	_atom_site_type_symbol
	_atom_site_fract_x
	_atom_site_fract_y
	_atom_site_fract_z
	H0	H	0.401711	0.833846	0.719352
	H1	H	0.597884	0.160771	0.717659
	H2	H	0.598031	0.833224	0.289332
	H3	H	0.399181	0.159384	0.288814
	H4	H	0.712575	0.401201	0.838118
	H5	H	0.712203	0.594514	0.169276
	H6	H	0.287550	0.595043	0.838514
	H7	H	0.285648	0.399494	0.167907
	H8	H	0.835011	0.710372	0.405245
	H9	H	0.163353	0.712888	0.603895
	H10	H	0.836934	0.281262	0.606523
	H11	H	0.164197	0.283070	0.402889
	H12	H	0.835740	0.398328	0.719298
	H13	H	0.165362	0.594923	0.716533
	H14	H	0.834419	0.594143	0.292644
	H15	H	0.164004	0.398478	0.289392
	H16	H	0.399427	0.713473	0.840252
	H17	H	0.600296	0.712952	0.168099
	H18	H	0.599607	0.282713	0.839342
	H19	H	0.397827	0.282616	0.166992
	H20	H	0.714267	0.832883	0.404464
	H21	H	0.716378	0.159646	0.602715
	H22	H	0.284705	0.833526	0.602636
	H23	H	0.285807	0.160383	0.406231
	H24	H	0.899992	0.333723	0.218935
	H25	H	0.096634	0.660730	0.218267
	H26	H	0.100363	0.334609	0.788806
	H27	H	0.901480	0.660195	0.789242
	H28	H	0.214296	0.898840	0.339111
	H29	H	0.211421	0.094008	0.668644
	H30	H	0.789132	0.091601	0.337720
	H31	H	0.786409	0.899148	0.668283
	H32	H	0.334492	0.210699	0.906036
	H33	H	0.663419	0.214329	0.105435
	H34	H	0.335910	0.781938	0.105765
	H35	H	0.664459	0.783463	0.904287
	H36	H	0.334838	0.900099	0.217963
	H37	H	0.664764	0.095131	0.217472
	H38	H	0.333986	0.094472	0.792272
	H39	H	0.664857	0.900101	0.790847
	H40	H	0.898788	0.213369	0.340199
	H41	H	0.100485	0.212413	0.667691
	H42	H	0.099396	0.782103	0.339934
	H43	H	0.897024	0.780684	0.667165
	H44	H	0.214867	0.334750	0.904794
	H45	H	0.213717	0.660329	0.102646
	H46	H	0.783747	0.334395	0.102411
	H47	H	0.787469	0.661409	0.906290
	H48	H	0.405166	0.114433	0.597484
	H49	H	0.590357	0.880628	0.601712
	H50	H	0.599565	0.114427	0.409739
	H51	H	0.409838	0.880575	0.408952
	H52	H	0.593129	0.398925	0.123178
	H53	H	0.592959	0.598190	0.883852
	H54	H	0.401140	0.588493	0.123155
	H55	H	0.410794	0.401995	0.886168
	H56	H	0.118595	0.589256	0.409613
	H57	H	0.887067	0.577012	0.594104
	H58	H	0.120509	0.403508	0.603494
	H59	H	0.879839	0.395170	0.413761
	H60	H	0.118645	0.398402	0.591466
	H61	H	0.877395	0.592658	0.609506
	H62	H	0.118378	0.592397	0.411516
	H63	H	0.885841	0.407413	0.420703
	H64	H	0.411552	0.586178	0.118738
	H65	H	0.598116	0.588066	0.885418
	H66	H	0.594733	0.410113	0.119809
	H67	H	0.405510	0.401916	0.884167
	H68	H	0.589394	0.113274	0.407021
	H69	H	0.591336	0.881830	0.595063
	H70	H	0.404073	0.113954	0.598834
	H71	H	0.408111	0.882251	0.416077
	H72	H	0.906653	0.610633	0.086582
	H73	H	0.096719	0.378609	0.100166
	H74	H	0.102533	0.617116	0.910681
	H75	H	0.907355	0.382425	0.916496
	H76	H	0.084938	0.899375	0.620728
	H77	H	0.091596	0.090252	0.385927
	H78	H	0.913200	0.092761	0.620600
	H79	H	0.916884	0.907235	0.389726
	H80	H	0.619278	0.092050	0.905326
	H81	H	0.385554	0.086831	0.089958
	H82	H	0.620000	0.899107	0.097887
	H83	H	0.385866	0.908241	0.920515
	H84	H	0.615672	0.905204	0.089885
	H85	H	0.380659	0.086263	0.105492
	H86	H	0.618114	0.096690	0.915838
	H87	H	0.381047	0.909859	0.905686
	H88	H	0.903313	0.091539	0.623445
	H89	H	0.092176	0.092242	0.385712
	H90	H	0.097002	0.900342	0.624302
	H91	H	0.908113	0.892401	0.382729
	H92	H	0.087197	0.615293	0.902084
	H93	H	0.086907	0.381332	0.100943
	H94	H	0.894197	0.618027	0.103563
	H95	H	0.901118	0.379337	0.910345
	H96	H	0.405589	0.113221	0.599236
	H97	H	0.596755	0.878135	0.598339
	H98	H	0.591959	0.110288	0.416794
	H99	H	0.403871	0.879465	0.411610
	H100	H	0.584374	0.405518	0.118961
	H101	H	0.587044	0.590216	0.888969
	H102	H	0.409463	0.596216	0.121780
	H103	H	0.407640	0.406970	0.886604
	H104	H	0.117423	0.589914	0.412409
	H105	H	0.882090	0.599002	0.587901
	H106	H	0.115391	0.411001	0.593940
	H107	H	0.880370	0.408499	0.405449
	H108	H	0.915595	0.613434	0.107111
	H109	H	0.092294	0.382919	0.091747
	H110	H	0.089659	0.609948	0.919232
	H111	H	0.910403	0.380349	0.907912
	H112	H	0.091971	0.910346	0.619265
	H113	H	0.093918	0.090237	0.385478
	H114	H	0.908918	0.083963	0.618545
	H115	H	0.898307	0.907943	0.383954
	H116	H	0.614825	0.085791	0.914462
	H117	H	0.379291	0.100139	0.096767
	H118	H	0.617794	0.909823	0.099880
	H119	H	0.379210	0.896152	0.912807
	C120	C	0.376753	0.005777	0.627188
	C121	C	0.621742	0.988470	0.626426
	C122	C	0.622077	0.004644	0.382321
	C123	C	0.378211	0.988385	0.383189
	C124	C	0.620542	0.376344	0.012093
	C125	C	0.621422	0.619976	0.995325
	C126	C	0.378577	0.619072	0.012537
	C127	C	0.377942	0.375498	0.994156
	C128	C	0.008601	0.618341	0.383154
	C129	C	0.991007	0.618549	0.625754
	C130	C	0.009439	0.375229	0.626062
	C131	C	0.990932	0.375454	0.383680
	C132	C	0.876781	0.506025	0.127262
	C133	C	0.120892	0.488779	0.126153
	C134	C	0.121778	0.506111	0.882444
	C135	C	0.878478	0.488764	0.882911
	C136	C	0.120864	0.875092	0.512518
	C137	C	0.121077	0.118862	0.494739
	C138	C	0.879249	0.117972	0.512245
	C139	C	0.878442	0.874607	0.494465
	C140	C	0.508110	0.119159	0.883500
	C141	C	0.490782	0.119687	0.126412
	C142	C	0.508870	0.875787	0.125718
	C143	C	0.490995	0.876181	0.883410
	C144	C	0.380191	0.882706	0.681807
	C145	C	0.619330	0.111503	0.680737
	C146	C	0.619526	0.882154	0.326387
	C147	C	0.379776	0.111039	0.327446
	C148	C	0.675622	0.379713	0.887854
	C149	C	0.675285	0.615934	0.119642
	C150	C	0.324229	0.616067	0.888056
	C151	C	0.322851	0.378794	0.118572
	C152	C	0.884290	0.673083	0.385285
	C153	C	0.114630	0.674423	0.623952
	C154	C	0.885935	0.319433	0.625740
	C155	C	0.114933	0.320605	0.383735
	C156	C	0.885510	0.377582	0.682167
	C157	C	0.115466	0.616064	0.680016
	C158	C	0.883949	0.615260	0.329327
	C159	C	0.114849	0.378494	0.327657
	C160	C	0.379827	0.675183	0.888978
	C161	C	0.619636	0.674681	0.119104
	C162	C	0.619413	0.320896	0.888468
	C163	C	0.378902	0.320685	0.118226
	C164	C	0.676540	0.881757	0.384573
	C165	C	0.677972	0.110984	0.623282
	C166	C	0.322684	0.882352	0.623526
	C167	C	0.323013	0.111353	0.385392
	C168	C	0.879358	0.382816	0.181613
	C169	C	0.118108	0.611776	0.181153
	C170	C	0.120064	0.383256	0.827059
	C171	C	0.881369	0.611869	0.827799
	C172	C	0.176291	0.878481	0.388459
	C173	C	0.174605	0.115047	0.619317
	C174	C	0.825283	0.114096	0.387600
	C175	C	0.823402	0.877661	0.618959
	C176	C	0.383718	0.173399	0.885818
	C177	C	0.614680	0.175452	0.124443
	C178	C	0.385073	0.820035	0.125282
	C179	C	0.615280	0.821618	0.884870
	C180	C	0.384452	0.879154	0.180703
	C181	C	0.615265	0.116423	0.180410
	C182	C	0.383599	0.115721	0.829101
	C183	C	0.615496	0.879577	0.828576
	C184	C	0.879926	0.174420	0.388702
	C185	C	0.119576	0.174110	0.618682
	C186	C	0.119342	0.820224	0.388763
	C187	C	0.878580	0.819135	0.618363
	C188	C	0.176960	0.383296	0.884626
	C189	C	0.176046	0.611572	0.123387
	C190	C	0.821559	0.383081	0.123693
	C191	C	0.824349	0.612219	0.885641
	C192	C	0.398420	0.091653	0.605157
	C193	C	0.599416	0.902365	0.604859
	C194	C	0.599920	0.090380	0.404589
	C195	C	0.400607	0.903059	0.405612
	C196	C	0.597491	0.398240	0.098372
	C197	C	0.599264	0.598473	0.908433
	C198	C	0.400715	0.596751	0.098955
	C199	C	0.401168	0.397192	0.908119
	C200	C	0.095516	0.596980	0.404740
	C201	C	0.904495	0.595944	0.603622
	C202	C	0.095790	0.397510	0.602954
	C203	C	0.904286	0.397188	0.406546
	C204	C	0.899072	0.591940	0.105623
	C205	C	0.098546	0.403051	0.104197
	C206	C	0.099748	0.592031	0.904244
	C207	C	0.899847	0.402936	0.905087
	C208	C	0.097985	0.897000	0.599188
	C209	C	0.099166	0.097188	0.408036
	C210	C	0.901964	0.095954	0.598500
	C211	C	0.901278	0.895958	0.407914
	C212	C	0.594964	0.097703	0.905430
	C213	C	0.404168	0.097559	0.104046
	C214	C	0.595593	0.898082	0.102574
	C215	C	0.404379	0.898320	0.906293
	Zn216	Zn	0.499380	-0.002347	0.756038
	Zn217	Zn	0.499850	-0.002990	0.253878
	Zn218	Zn	0.749158	0.497970	0.003674
	Zn219	Zn	0.250446	0.497240	0.003434
	Zn220	Zn	-0.000849	0.746483	0.504107
	Zn221	Zn	0.000658	0.247017	0.503980
	Zn222	Zn	0.000399	0.497270	0.753878
	Zn223	Zn	-0.000651	0.496808	0.255580
	Zn224	Zn	0.499855	0.747791	0.004303
	Zn225	Zn	0.499073	0.247538	0.003908
	Zn226	Zn	0.751237	-0.004138	0.503712
	Zn227	Zn	0.248872	-0.002878	0.503924
	N228	N	0.413085	0.960394	0.684089
	N229	N	0.585036	0.034402	0.682653
	N230	N	0.586107	0.959637	0.325173
	N231	N	0.413573	0.033660	0.325753
	N232	N	0.676550	0.413477	0.965713
	N233	N	0.676400	0.582450	0.041525
	N234	N	0.323266	0.581931	0.965869
	N235	N	0.322231	0.412398	0.040645
	N236	N	0.962718	0.674921	0.418323
	N237	N	0.036149	0.676220	0.591148
	N238	N	0.964024	0.317494	0.591860
	N239	N	0.036938	0.318624	0.417952
	N240	N	0.963491	0.411478	0.682640
	N241	N	0.037717	0.581728	0.680804
	N242	N	0.962077	0.581880	0.327754
	N243	N	0.036580	0.411977	0.327385
	N244	N	0.412970	0.677199	0.967283
	N245	N	0.586791	0.677153	0.040737
	N246	N	0.585906	0.318602	0.966813
	N247	N	0.412119	0.318121	0.039959
	N248	N	0.678630	0.959066	0.418214
	N249	N	0.679657	0.033246	0.590347
	N250	N	0.320148	0.959962	0.590636
	N251	N	0.322343	0.034313	0.419664
	N252	N	0.912965	0.460248	0.183881
	N253	N	0.084501	0.534317	0.182844
	N254	N	0.086498	0.460525	0.825518
	N255	N	0.914495	0.534249	0.826026
	N256	N	0.177278	0.911866	0.466642
	N257	N	0.175641	0.081209	0.541310
	N258	N	0.824723	0.079671	0.465152
	N259	N	0.823038	0.911331	0.541004
	N260	N	0.462050	0.175600	0.918882
	N261	N	0.536058	0.177692	0.091668
	N262	N	0.463428	0.817956	0.091746
	N263	N	0.536897	0.819587	0.918419
	N264	N	0.462494	0.913002	0.181123
	N265	N	0.537283	0.082600	0.181757
	N266	N	0.461992	0.082610	0.827599
	N267	N	0.537183	0.912742	0.827532
	N268	N	0.912489	0.177299	0.467336
	N269	N	0.086941	0.176391	0.540231
	N270	N	0.085817	0.818022	0.466906
	N271	N	0.911936	0.816894	0.539974
	N272	N	0.178042	0.460649	0.918457
	N273	N	0.177714	0.534176	0.089750
	N274	N	0.819863	0.460637	0.090733
	N275	N	0.822552	0.534840	0.919196
	O276	O	0.981006	1.020184	-0.014662
	H277	H	0.987315	1.022342	-0.010487
	H278	H	0.978657	1.023439	-0.006602
	O279	O	-0.062381	0.068331	-0.075362
	H280	H	-0.064083	0.066730	-0.077362
	H281	H	-0.064390	0.074662	-0.081429
	O282	O	0.017020	0.055760	0.978005
	H283	H	0.018166	0.064648	0.973888
	H284	H	0.023341	0.055885	0.976212
	O285	O	0.507567	0.445828	0.448397
	H286	H	0.514940	0.430023	0.448196
	H287	H	0.514910	0.438224	0.446210
	O288	O	0.516552	0.499151	0.495773
	H289	H	0.528534	0.494021	0.501481
	H290	H	0.509908	0.497585	0.493354
	O291	O	0.549963	0.518239	0.428911
	H292	H	0.548870	0.525683	0.423621
	H293	H	0.544730	0.517717	0.436206
	O294	O	0.005288	0.042572	-0.090392
	H295	H	-0.001409	0.049768	-0.083559
	H296	H	0.002615	0.037861	-0.093264
	O297	O	0.533940	0.442246	0.454365
	H298	H	0.540079	0.445135	0.453845
	H299	H	0.531885	0.448949	0.451522
	O300	O	0.012067	0.995192	0.976830
	H301	H	0.017134	0.984475	0.980714
	H302	H	0.003441	0.997714	0.975546
	O303	O	0.513754	0.457447	0.447619
	H304	H	0.525638	0.460769	0.451801
	H305	H	0.510689	0.460968	0.446156
	O306	O	0.040447	0.013001	0.987881
	H307	H	0.039885	0.021594	0.987171
	H308	H	0.035052	0.011857	0.982944
	O309	O	0.984831	1.028200	0.984124
	H310	H	0.993223	1.029304	0.983602
	H311	H	0.987325	1.028217	0.977134
	O312	O	0.589200	0.437698	0.425025
	H313	H	0.587937	0.435734	0.417198
	H314	H	0.589772	0.442727	0.419682
	O315	O	0.542105	0.486098	0.395535
	H316	H	0.535281	0.482378	0.388195
	H317	H	0.533590	0.483939	0.384579
	O318	O	0.011324	1.040777	-0.035204
	H319	H	0.010093	1.029208	-0.039756
	H320	H	0.014878	1.043668	-0.038695
	O321	O	0.957616	1.020687	0.001362
	H322	H	0.953180	1.020540	-0.007811
	H323	H	0.958786	1.028277	0.006782
