data_Molecule from HDF5

_cell_length_a		16.075885
_cell_length_b		16.338702
_cell_length_c		16.271592
_cell_angle_alpha	90.095571
_cell_angle_beta	90.079079
_cell_angle_gamma	90.274400
_symmetry_space_group_name_H-M	'P 1'
_symmetry_Int_Tables_number		1

loop_
	_symmetry_equiv_pos_as_xyz
	x,y,z

loop_
	_atom_site_label
	_atom_site_type_symbol
	_atom_site_fract_x
	_atom_site_fract_y
	_atom_site_fract_z
	H0	H	0.395145	0.838293	0.715094
	H1	H	0.597857	0.163410	0.716339
	H2	H	0.596871	0.837781	0.282342
	H3	H	0.396453	0.163555	0.284227
	H4	H	0.707451	0.405805	0.834719
	H5	H	0.709631	0.597085	0.163760
	H6	H	0.285885	0.595136	0.834226
	H7	H	0.283359	0.404000	0.164185
	H8	H	0.831049	0.713336	0.399297
	H9	H	0.160919	0.715330	0.599326
	H10	H	0.831412	0.285493	0.598179
	H11	H	0.162081	0.288341	0.399725
	H12	H	0.830352	0.401937	0.711008
	H13	H	0.161648	0.598957	0.711826
	H14	H	0.831319	0.597054	0.285807
	H15	H	0.161668	0.404290	0.286835
	H16	H	0.396955	0.715382	0.836320
	H17	H	0.598458	0.717524	0.162805
	H18	H	0.596674	0.285200	0.836786
	H19	H	0.396181	0.285390	0.162830
	H20	H	0.708637	0.836458	0.402506
	H21	H	0.711513	0.163807	0.596889
	H22	H	0.282176	0.836852	0.595946
	H23	H	0.284320	0.165056	0.404584
	H24	H	0.896494	0.337094	0.213951
	H25	H	0.097622	0.663362	0.215941
	H26	H	0.095396	0.337277	0.782813
	H27	H	0.896402	0.663292	0.783522
	H28	H	0.207009	0.905638	0.334358
	H29	H	0.208401	0.096175	0.664643
	H30	H	0.784353	0.095583	0.334439
	H31	H	0.783856	0.904462	0.663550
	H32	H	0.331988	0.214338	0.899878
	H33	H	0.661922	0.214980	0.099114
	H34	H	0.332009	0.785129	0.099282
	H35	H	0.661819	0.787866	0.900493
	H36	H	0.330479	0.902480	0.211679
	H37	H	0.661383	0.099511	0.213839
	H38	H	0.330928	0.097202	0.787692
	H39	H	0.661736	0.903522	0.786523
	H40	H	0.894512	0.216555	0.336314
	H41	H	0.098696	0.218154	0.662157
	H42	H	0.096013	0.784082	0.336561
	H43	H	0.894196	0.784482	0.662546
	H44	H	0.208406	0.335940	0.902491
	H45	H	0.209370	0.665215	0.095003
	H46	H	0.782419	0.337257	0.095626
	H47	H	0.785230	0.664990	0.903735
	H48	H	0.407830	0.118170	0.599132
	H49	H	0.595192	0.882369	0.594979
	H50	H	0.593190	0.115759	0.412677
	H51	H	0.399508	0.884319	0.407546
	H52	H	0.586274	0.412982	0.114434
	H53	H	0.595927	0.584565	0.883688
	H54	H	0.408864	0.595578	0.115914
	H55	H	0.410485	0.415273	0.886729
	H56	H	0.118625	0.600681	0.403320
	H57	H	0.880146	0.585491	0.587820
	H58	H	0.113943	0.409953	0.591978
	H59	H	0.878705	0.404712	0.413041
	H60	H	0.115147	0.407688	0.593021
	H61	H	0.875385	0.591529	0.600541
	H62	H	0.111852	0.595131	0.418590
	H63	H	0.879103	0.412629	0.404957
	H64	H	0.402954	0.596133	0.118216
	H65	H	0.576098	0.597153	0.885792
	H66	H	0.584458	0.402143	0.116820
	H67	H	0.408703	0.394930	0.880878
	H68	H	0.591744	0.118702	0.400585
	H69	H	0.583972	0.883643	0.599205
	H70	H	0.404232	0.115131	0.589426
	H71	H	0.401664	0.883364	0.401573
	H72	H	0.900488	0.618073	0.092175
	H73	H	0.094921	0.384174	0.088345
	H74	H	0.083405	0.617452	0.896581
	H75	H	0.904891	0.383607	0.901410
	H76	H	0.092279	0.902862	0.618980
	H77	H	0.095981	0.088986	0.381498
	H78	H	0.910280	0.095027	0.614423
	H79	H	0.901470	0.910783	0.383049
	H80	H	0.615876	0.097839	0.908536
	H81	H	0.376939	0.097457	0.093247
	H82	H	0.616124	0.912286	0.097192
	H83	H	0.378547	0.910049	0.904741
	H84	H	0.615761	0.903518	0.090490
	H85	H	0.377836	0.093884	0.088745
	H86	H	0.614458	0.092302	0.910200
	H87	H	0.375861	0.903723	0.906045
	H88	H	0.902652	0.098193	0.617542
	H89	H	0.081144	0.092999	0.385249
	H90	H	0.089432	0.910794	0.615457
	H91	H	0.909145	0.902959	0.383376
	H92	H	0.086937	0.612967	0.914166
	H93	H	0.090977	0.381435	0.101818
	H94	H	0.906711	0.618620	0.099319
	H95	H	0.903695	0.385485	0.908181
	H96	H	0.397592	0.119210	0.596224
	H97	H	0.586326	0.887080	0.587976
	H98	H	0.581395	0.114222	0.407126
	H99	H	0.405974	0.885364	0.406369
	H100	H	0.595096	0.406361	0.118991
	H101	H	0.595487	0.606651	0.877340
	H102	H	0.404010	0.591185	0.115277
	H103	H	0.392494	0.407752	0.879202
	H104	H	0.112949	0.583762	0.404730
	H105	H	0.876019	0.600466	0.588338
	H106	H	0.115032	0.408024	0.590717
	H107	H	0.875292	0.402683	0.402714
	H108	H	0.909256	0.614664	0.091101
	H109	H	0.081545	0.386248	0.091961
	H110	H	0.101005	0.619912	0.903170
	H111	H	0.899329	0.382975	0.904553
	H112	H	0.083833	0.903793	0.616191
	H113	H	0.091337	0.103477	0.379759
	H114	H	0.902659	0.089524	0.614908
	H115	H	0.898938	0.900798	0.379549
	H116	H	0.616473	0.094087	0.904324
	H117	H	0.377294	0.091226	0.094145
	H118	H	0.612004	0.912842	0.087298
	H119	H	0.379859	0.907934	0.911518
	C120	C	0.374492	0.009524	0.621959
	C121	C	0.618214	0.992062	0.622184
	C122	C	0.617489	0.008589	0.377873
	C123	C	0.373986	0.992052	0.377274
	C124	C	0.617426	0.379331	0.008106
	C125	C	0.618328	0.623597	0.990924
	C126	C	0.375958	0.622375	0.007929
	C127	C	0.374839	0.378220	0.990795
	C128	C	0.004943	0.620806	0.379582
	C129	C	0.986872	0.621421	0.620412
	C130	C	0.004841	0.379715	0.620031
	C131	C	0.987233	0.379053	0.378347
	C132	C	0.875672	0.508876	0.121660
	C133	C	0.118585	0.492244	0.121884
	C134	C	0.118178	0.508704	0.876840
	C135	C	0.874662	0.492049	0.877020
	C136	C	0.117013	0.878402	0.508064
	C137	C	0.118552	0.123231	0.490871
	C138	C	0.875886	0.121835	0.507338
	C139	C	0.873941	0.877024	0.490401
	C140	C	0.505763	0.122263	0.879032
	C141	C	0.487145	0.122660	0.121221
	C142	C	0.505429	0.880105	0.120329
	C143	C	0.487478	0.879371	0.878805
	C144	C	0.375773	0.886763	0.676770
	C145	C	0.617443	0.114756	0.677734
	C146	C	0.615859	0.886202	0.321328
	C147	C	0.376192	0.114981	0.322365
	C148	C	0.670985	0.384022	0.884107
	C149	C	0.672879	0.619100	0.114624
	C150	C	0.322079	0.617415	0.884005
	C151	C	0.320472	0.382686	0.114773
	C152	C	0.880250	0.675239	0.380180
	C153	C	0.111443	0.677364	0.618876
	C154	C	0.880611	0.324201	0.617702
	C155	C	0.112453	0.325786	0.380326
	C156	C	0.880191	0.381514	0.674410
	C157	C	0.111985	0.619647	0.674917
	C158	C	0.880404	0.617829	0.323560
	C159	C	0.112397	0.383113	0.324085
	C160	C	0.377131	0.677412	0.885094
	C161	C	0.617702	0.679108	0.113986
	C162	C	0.616226	0.323798	0.885152
	C163	C	0.376324	0.323491	0.114013
	C164	C	0.671667	0.885384	0.381152
	C165	C	0.673835	0.114997	0.618297
	C166	C	0.319651	0.886030	0.617581
	C167	C	0.320541	0.115755	0.382124
	C168	C	0.876857	0.386036	0.176151
	C169	C	0.117566	0.614671	0.177598
	C170	C	0.115540	0.385638	0.821543
	C171	C	0.876856	0.614855	0.821924
	C172	C	0.170754	0.883432	0.383880
	C173	C	0.172225	0.118816	0.614897
	C174	C	0.821170	0.117379	0.383803
	C175	C	0.819543	0.881677	0.614026
	C176	C	0.381152	0.176618	0.880586
	C177	C	0.612233	0.177415	0.119148
	C178	C	0.381110	0.823508	0.118888
	C179	C	0.612289	0.825345	0.880684
	C180	C	0.380209	0.881780	0.174669
	C181	C	0.611998	0.119938	0.176031
	C182	C	0.380792	0.118613	0.824528
	C183	C	0.612212	0.882683	0.824003
	C184	C	0.876023	0.177554	0.384837
	C185	C	0.117663	0.179299	0.613699
	C186	C	0.115429	0.823256	0.384871
	C187	C	0.875025	0.822486	0.613601
	C188	C	0.171820	0.385127	0.880860
	C189	C	0.172866	0.615761	0.117354
	C190	C	0.820144	0.385934	0.117460
	C191	C	0.821510	0.615805	0.881630
	C192	C	0.396723	0.095342	0.601126
	C193	C	0.595268	0.906472	0.600494
	C194	C	0.595294	0.094166	0.400116
	C195	C	0.395851	0.906313	0.398714
	C196	C	0.595135	0.400754	0.094288
	C197	C	0.595915	0.602379	0.904787
	C198	C	0.398581	0.600667	0.094236
	C199	C	0.397280	0.399628	0.904700
	C200	C	0.091850	0.599533	0.402322
	C201	C	0.899719	0.599121	0.598578
	C202	C	0.092175	0.402098	0.598433
	C203	C	0.900231	0.400235	0.400365
	C204	C	0.898583	0.594820	0.100474
	C205	C	0.095788	0.406037	0.100409
	C206	C	0.096738	0.594635	0.898223
	C207	C	0.896266	0.406268	0.898396
	C208	C	0.095017	0.899564	0.594393
	C209	C	0.096028	0.101587	0.404431
	C210	C	0.898667	0.100421	0.593634
	C211	C	0.896404	0.898436	0.404245
	C212	C	0.593116	0.101189	0.901298
	C213	C	0.399854	0.100617	0.098718
	C214	C	0.592202	0.902834	0.098178
	C215	C	0.400470	0.900819	0.900965
	Zn216	Zn	0.496430	0.000810	0.751598
	Zn217	Zn	0.495671	0.000706	0.248359
	Zn218	Zn	0.746466	0.501115	-0.000886
	Zn219	Zn	0.247046	0.500441	-0.000491
	Zn220	Zn	-0.004522	0.749070	0.499628
	Zn221	Zn	-0.003151	0.251761	0.498949
	Zn222	Zn	-0.004052	0.500323	0.747510
	Zn223	Zn	-0.003468	0.500317	0.251744
	Zn224	Zn	0.496831	0.751888	-0.000233
	Zn225	Zn	0.496604	0.249930	-0.000442
	Zn226	Zn	0.746975	0.000074	0.499152
	Zn227	Zn	0.245843	0.000649	0.499767
	N228	N	0.409263	0.964467	0.679615
	N229	N	0.583825	0.037289	0.680343
	N230	N	0.582941	0.963902	0.319223
	N231	N	0.408766	0.037275	0.319351
	N232	N	0.671808	0.417824	0.961527
	N233	N	0.673351	0.585206	0.037199
	N234	N	0.321315	0.583745	0.961529
	N235	N	0.319199	0.415798	0.037071
	N236	N	0.958596	0.677169	0.414241
	N237	N	0.032571	0.678515	0.585643
	N238	N	0.959364	0.322638	0.584870
	N239	N	0.033810	0.323205	0.413544
	N240	N	0.958587	0.415463	0.675681
	N241	N	0.033613	0.585495	0.676063
	N242	N	0.958939	0.584691	0.323079
	N243	N	0.033661	0.415400	0.322619
	N244	N	0.409966	0.680414	0.963239
	N245	N	0.584467	0.681806	0.036063
	N246	N	0.583387	0.320931	0.963295
	N247	N	0.409439	0.320605	0.036043
	N248	N	0.672623	0.962280	0.415800
	N249	N	0.674458	0.037808	0.584209
	N250	N	0.318603	0.963129	0.584242
	N251	N	0.319078	0.038387	0.415456
	N252	N	0.910869	0.463522	0.178683
	N253	N	0.084531	0.536771	0.180519
	N254	N	0.082920	0.463419	0.818857
	N255	N	0.909217	0.536905	0.818905
	N256	N	0.171709	0.917125	0.461514
	N257	N	0.172991	0.084949	0.537616
	N258	N	0.820970	0.083367	0.461166
	N259	N	0.818772	0.915181	0.536341
	N260	N	0.459871	0.178845	0.913836
	N261	N	0.533619	0.179073	0.085549
	N262	N	0.459791	0.822513	0.085789
	N263	N	0.533726	0.823310	0.914037
	N264	N	0.458424	0.916451	0.175788
	N265	N	0.533131	0.086820	0.177511
	N266	N	0.459274	0.085507	0.823475
	N267	N	0.533489	0.915502	0.822542
	N268	N	0.909721	0.180114	0.462631
	N269	N	0.084865	0.182164	0.535398
	N270	N	0.082966	0.819788	0.463028
	N271	N	0.908170	0.819517	0.535778
	N272	N	0.173859	0.462520	0.914413
	N273	N	0.173672	0.538449	0.083602
	N274	N	0.819049	0.463430	0.084432
	N275	N	0.819874	0.538603	0.915161
	O276	O	0.477814	0.522665	0.497390
	H277	H	0.479362	0.519089	0.501723
	H278	H	0.471521	0.525728	0.501748
	O279	O	0.023616	0.043560	0.017570
	H280	H	0.023317	0.042486	0.018482
	H281	H	0.027395	0.050432	0.021730
	O282	O	0.458268	0.507208	0.459268
	H283	H	0.458149	0.511337	0.465030
	H284	H	0.454547	0.496694	0.461620
	O285	O	0.489086	0.533702	0.507971
	H286	H	0.489498	0.534072	0.507003
	H287	H	0.487185	0.543588	0.517710
	O288	O	1.016958	0.037905	0.005944
	H289	H	1.018821	0.040036	0.008223
	H290	H	1.020946	0.039586	0.008730
	O291	O	-0.483951	0.496265	-0.557904
	H292	H	-0.474696	0.494552	-0.560952
	H293	H	-0.490819	0.491710	-0.565897
	O294	O	0.556201	0.515327	0.525739
	H295	H	0.546236	0.510919	0.520822
	H296	H	0.561225	0.517324	0.525293
	O297	O	0.516222	1.517755	0.541323
	H298	H	0.521242	1.522924	0.540236
	H299	H	0.518981	1.520071	0.549909
	O300	O	1.388361	0.555039	0.496902
	H301	H	1.378268	0.553067	0.499173
	H302	H	1.384619	0.550005	0.488509
	O303	O	0.465102	0.538721	0.543961
	H304	H	0.471495	0.535512	0.540016
	H305	H	0.476630	0.547185	0.539494
	O306	O	0.484997	0.483168	1.480269
	H307	H	0.484971	0.487736	1.472789
	H308	H	0.486679	0.483808	1.479958
	O309	O	0.514535	0.530546	0.508275
	H310	H	0.516041	0.536142	0.503463
	H311	H	0.515669	0.532055	0.518513
