data_Molecule from HDF5

_cell_length_a		16.188822
_cell_length_b		16.279698
_cell_length_c		16.214789
_cell_angle_alpha	90.183942
_cell_angle_beta	89.833998
_cell_angle_gamma	89.929278
_symmetry_space_group_name_H-M	'P 1'
_symmetry_Int_Tables_number		1

loop_
	_symmetry_equiv_pos_as_xyz
	x,y,z

loop_
	_atom_site_label
	_atom_site_type_symbol
	_atom_site_fract_x
	_atom_site_fract_y
	_atom_site_fract_z
	H0	H	0.408125	0.834472	0.713253
	H1	H	0.607332	0.160738	0.714295
	H2	H	0.606553	0.834246	0.282401
	H3	H	0.407842	0.161076	0.282920
	H4	H	0.718343	0.399828	0.833404
	H5	H	0.718164	0.595498	0.161717
	H6	H	0.292908	0.595070	0.832649
	H7	H	0.292632	0.401208	0.162435
	H8	H	0.841977	0.712754	0.398516
	H9	H	0.169784	0.711210	0.596233
	H10	H	0.841342	0.282574	0.595299
	H11	H	0.170317	0.282150	0.396192
	H12	H	0.841114	0.398440	0.710834
	H13	H	0.169877	0.595719	0.710724
	H14	H	0.839268	0.592787	0.286093
	H15	H	0.169794	0.398464	0.281159
	H16	H	0.406214	0.712469	0.833719
	H17	H	0.603366	0.711052	0.162379
	H18	H	0.605916	0.281847	0.834392
	H19	H	0.406017	0.283998	0.161911
	H20	H	0.721394	0.834001	0.398295
	H21	H	0.721188	0.161916	0.596609
	H22	H	0.292408	0.833511	0.596928
	H23	H	0.291869	0.160548	0.399616
	H24	H	0.906115	0.332534	0.208893
	H25	H	0.102942	0.659933	0.211208
	H26	H	0.103016	0.332168	0.782988
	H27	H	0.905572	0.660491	0.782273
	H28	H	0.222828	0.897039	0.332974
	H29	H	0.218558	0.095015	0.662005
	H30	H	0.793834	0.094521	0.333450
	H31	H	0.793352	0.900396	0.661693
	H32	H	0.342177	0.212283	0.899111
	H33	H	0.669783	0.214330	0.098487
	H34	H	0.341460	0.784388	0.096979
	H35	H	0.670107	0.780566	0.896622
	H36	H	0.342398	0.899855	0.211815
	H37	H	0.671608	0.096038	0.210798
	H38	H	0.342386	0.096332	0.784030
	H39	H	0.671682	0.899483	0.783387
	H40	H	0.906503	0.209966	0.332635
	H41	H	0.106495	0.213811	0.659885
	H42	H	0.107900	0.781110	0.333305
	H43	H	0.906505	0.782849	0.660992
	H44	H	0.220037	0.333481	0.897417
	H45	H	0.217664	0.660946	0.095108
	H46	H	0.790011	0.333773	0.094601
	H47	H	0.790885	0.661362	0.899132
	H48	H	0.413285	0.114300	0.592678
	H49	H	0.609145	0.881784	0.578450
	H50	H	0.594368	0.112223	0.406817
	H51	H	0.413712	0.882492	0.411671
	H52	H	0.590691	0.402421	0.113610
	H53	H	0.601598	0.587070	0.880082
	H54	H	0.409846	0.597301	0.117597
	H55	H	0.409474	0.404591	0.879483
	H56	H	0.121820	0.590207	0.408286
	H57	H	0.889094	0.580825	0.596047
	H58	H	0.121700	0.411062	0.592476
	H59	H	0.883871	0.392924	0.399386
	H60	H	0.126243	0.396981	0.592071
	H61	H	0.883463	0.600116	0.594075
	H62	H	0.121634	0.583837	0.401700
	H63	H	0.890796	0.403316	0.412982
	H64	H	0.407385	0.588303	0.115001
	H65	H	0.593308	0.589379	0.881788
	H66	H	0.602472	0.401618	0.117804
	H67	H	0.416329	0.406536	0.881938
	H68	H	0.606756	0.114825	0.408504
	H69	H	0.606003	0.876541	0.603286
	H70	H	0.415048	0.112746	0.590095
	H71	H	0.410313	0.878355	0.400156
	H72	H	0.914887	0.613411	0.093436
	H73	H	0.090951	0.382507	0.083163
	H74	H	0.100671	0.615814	0.900234
	H75	H	0.906241	0.380041	0.908203
	H76	H	0.095700	0.903302	0.613440
	H77	H	0.099549	0.100136	0.375825
	H78	H	0.911373	0.094273	0.616714
	H79	H	0.914813	0.901057	0.379130
	H80	H	0.621332	0.086114	0.910002
	H81	H	0.391552	0.085629	0.087777
	H82	H	0.623858	0.904859	0.088798
	H83	H	0.391834	0.910472	0.906887
	H84	H	0.625270	0.902401	0.092196
	H85	H	0.387430	0.089625	0.097309
	H86	H	0.624864	0.089836	0.899383
	H87	H	0.387675	0.904819	0.899585
	H88	H	0.912876	0.084647	0.613346
	H89	H	0.109932	0.082613	0.378838
	H90	H	0.099821	0.901806	0.614963
	H91	H	0.912016	0.904015	0.379317
	H92	H	0.093124	0.612406	0.902924
	H93	H	0.107688	0.378349	0.084757
	H94	H	0.910808	0.614014	0.087823
	H95	H	0.911961	0.378665	0.896195
	H96	H	0.411886	0.114638	0.590021
	H97	H	0.586633	0.885536	0.589728
	H98	H	0.600971	0.116891	0.397140
	H99	H	0.421364	0.882184	0.401787
	H100	H	0.597850	0.412339	0.113042
	H101	H	0.598737	0.594896	0.878046
	H102	H	0.415815	0.590604	0.113218
	H103	H	0.414822	0.399740	0.879339
	H104	H	0.125197	0.591969	0.399865
	H105	H	0.892065	0.589778	0.577938
	H106	H	0.121154	0.403679	0.580667
	H107	H	0.888438	0.410579	0.396405
	H108	H	0.909049	0.616289	0.094331
	H109	H	0.097203	0.377621	0.097816
	H110	H	0.100296	0.612304	0.908338
	H111	H	0.920034	0.383192	0.906197
	H112	H	0.099839	0.906538	0.613939
	H113	H	0.089822	0.084612	0.384276
	H114	H	0.920534	0.092415	0.612787
	H115	H	0.915642	0.904112	0.380364
	H116	H	0.625157	0.096593	0.908077
	H117	H	0.388931	0.096791	0.087963
	H118	H	0.625055	0.901213	0.088736
	H119	H	0.389354	0.901164	0.909116
	C120	C	0.384878	0.005912	0.619809
	C121	C	0.629198	0.989511	0.619368
	C122	C	0.629427	0.006733	0.375157
	C123	C	0.385820	0.988671	0.375866
	C124	C	0.626197	0.376273	0.006455
	C125	C	0.625868	0.618812	0.988951
	C126	C	0.382753	0.620252	0.006417
	C127	C	0.384294	0.375778	0.989040
	C128	C	0.013873	0.617547	0.375408
	C129	C	0.996950	0.618784	0.618281
	C130	C	0.013932	0.375376	0.617187
	C131	C	0.996552	0.373747	0.373633
	C132	C	0.883228	0.505765	0.118742
	C133	C	0.126515	0.487949	0.117560
	C134	C	0.127425	0.505458	0.874573
	C135	C	0.883689	0.488779	0.875459
	C136	C	0.128346	0.874774	0.505728
	C137	C	0.128101	0.118464	0.488222
	C138	C	0.885645	0.118281	0.505754
	C139	C	0.885150	0.875199	0.488128
	C140	C	0.514950	0.119562	0.876764
	C141	C	0.498126	0.118890	0.119092
	C142	C	0.515466	0.875598	0.118716
	C143	C	0.498050	0.875755	0.875814
	C144	C	0.387508	0.883003	0.675163
	C145	C	0.627026	0.112317	0.675328
	C146	C	0.626819	0.883158	0.320319
	C147	C	0.387793	0.112306	0.321195
	C148	C	0.681401	0.378417	0.882456
	C149	C	0.680735	0.616329	0.112896
	C150	C	0.329101	0.616767	0.882242
	C151	C	0.329633	0.379961	0.112927
	C152	C	0.890680	0.673850	0.378163
	C153	C	0.120604	0.673459	0.616147
	C154	C	0.890380	0.320588	0.615220
	C155	C	0.120683	0.319138	0.375541
	C156	C	0.890374	0.377975	0.672892
	C157	C	0.120486	0.616008	0.673340
	C158	C	0.889304	0.614194	0.322287
	C159	C	0.120656	0.377195	0.318693
	C160	C	0.385638	0.674940	0.882705
	C161	C	0.623749	0.673730	0.112892
	C162	C	0.625300	0.320231	0.882963
	C163	C	0.385945	0.321472	0.112723
	C164	C	0.683796	0.883033	0.378085
	C165	C	0.683883	0.112686	0.617022
	C166	C	0.329844	0.882711	0.617671
	C167	C	0.329661	0.111813	0.378547
	C168	C	0.885757	0.381675	0.171882
	C169	C	0.123498	0.611275	0.173257
	C170	C	0.124402	0.381846	0.819679
	C171	C	0.885651	0.611632	0.820322
	C172	C	0.184299	0.877138	0.382033
	C173	C	0.182047	0.115920	0.612302
	C174	C	0.831267	0.114759	0.382257
	C175	C	0.830785	0.879082	0.612333
	C176	C	0.391389	0.174514	0.878892
	C177	C	0.621215	0.175598	0.117904
	C178	C	0.390779	0.821947	0.117030
	C179	C	0.621317	0.819223	0.877182
	C180	C	0.391450	0.879205	0.174290
	C181	C	0.622211	0.116731	0.173603
	C182	C	0.391458	0.116708	0.821615
	C183	C	0.622334	0.878090	0.820672
	C184	C	0.887271	0.172265	0.381818
	C185	C	0.126372	0.175312	0.611287
	C186	C	0.127477	0.819266	0.382236
	C187	C	0.886967	0.820823	0.612084
	C188	C	0.182410	0.382401	0.876755
	C189	C	0.180768	0.611663	0.115704
	C190	C	0.827944	0.382304	0.115199
	C191	C	0.828379	0.612092	0.878275
	C192	C	0.407003	0.091730	0.597546
	C193	C	0.607184	0.903398	0.597003
	C194	C	0.607342	0.092609	0.397548
	C195	C	0.408546	0.903103	0.397934
	C196	C	0.603521	0.398761	0.092464
	C197	C	0.604372	0.596807	0.902579
	C198	C	0.404544	0.598521	0.092944
	C199	C	0.406865	0.397242	0.902487
	C200	C	0.100666	0.595169	0.396921
	C201	C	0.910431	0.596816	0.595885
	C202	C	0.100636	0.397300	0.594769
	C203	C	0.910085	0.395580	0.396348
	C204	C	0.905166	0.591898	0.097829
	C205	C	0.104981	0.401881	0.095216
	C206	C	0.104796	0.591476	0.897262
	C207	C	0.906147	0.402747	0.897252
	C208	C	0.105193	0.897301	0.591703
	C209	C	0.106207	0.095778	0.402016
	C210	C	0.908313	0.096701	0.592271
	C211	C	0.907396	0.896748	0.401851
	C212	C	0.601516	0.097339	0.899008
	C213	C	0.411764	0.097069	0.097388
	C214	C	0.602106	0.896501	0.096579
	C215	C	0.411891	0.898785	0.898479
	Zn216	Zn	0.507310	-0.002121	0.748136
	Zn217	Zn	0.507506	-0.002556	0.246726
	Zn218	Zn	0.754494	0.497697	-0.002614
	Zn219	Zn	0.255991	0.497106	-0.003087
	Zn220	Zn	0.006212	0.747057	0.496983
	Zn221	Zn	0.005752	0.246273	0.496436
	Zn222	Zn	0.005394	0.496874	0.746103
	Zn223	Zn	0.004772	0.495903	0.246488
	Zn224	Zn	0.505083	0.747465	-0.002317
	Zn225	Zn	0.506141	0.247656	-0.001566
	Zn226	Zn	0.757503	-0.002021	0.497305
	Zn227	Zn	0.256377	-0.003470	0.497533
	N228	N	0.420971	0.960526	0.676645
	N229	N	0.593636	0.034781	0.676743
	N230	N	0.593715	0.960938	0.318178
	N231	N	0.421938	0.034885	0.319336
	N232	N	0.682069	0.412800	0.959897
	N233	N	0.682381	0.582800	0.034799
	N234	N	0.327215	0.583519	0.960116
	N235	N	0.328801	0.413191	0.034975
	N236	N	0.969099	0.675835	0.410457
	N237	N	0.042745	0.675152	0.582438
	N238	N	0.968372	0.318948	0.581452
	N239	N	0.042439	0.316779	0.409002
	N240	N	0.968337	0.411438	0.674050
	N241	N	0.042409	0.582734	0.674900
	N242	N	0.967155	0.579769	0.320529
	N243	N	0.042403	0.410173	0.317302
	N244	N	0.418234	0.677120	0.960917
	N245	N	0.590249	0.675226	0.035041
	N246	N	0.591794	0.318793	0.960957
	N247	N	0.419273	0.318876	0.034703
	N248	N	0.685498	0.960786	0.411510
	N249	N	0.685292	0.035096	0.582964
	N250	N	0.327901	0.960287	0.584076
	N251	N	0.328222	0.034136	0.411765
	N252	N	0.919184	0.459228	0.174483
	N253	N	0.090502	0.533392	0.174829
	N254	N	0.091003	0.459598	0.818029
	N255	N	0.919359	0.534032	0.818500
	N256	N	0.184968	0.910882	0.459886
	N257	N	0.183082	0.081230	0.534797
	N258	N	0.830033	0.082175	0.460512
	N259	N	0.829383	0.912300	0.534453
	N260	N	0.469241	0.176367	0.912222
	N261	N	0.543037	0.177127	0.084711
	N262	N	0.468627	0.819800	0.083123
	N263	N	0.543060	0.817633	0.910688
	N264	N	0.469847	0.912142	0.175414
	N265	N	0.544711	0.082111	0.174543
	N266	N	0.469638	0.083209	0.820361
	N267	N	0.544821	0.912664	0.819808
	N268	N	0.920564	0.174533	0.459733
	N269	N	0.093330	0.176817	0.533226
	N270	N	0.093398	0.817633	0.460053
	N271	N	0.920389	0.818410	0.533960
	N272	N	0.184662	0.460292	0.910006
	N273	N	0.182662	0.534028	0.081892
	N274	N	0.826210	0.460299	0.082688
	N275	N	0.826856	0.534494	0.911748
	O276	O	1.009824	0.959982	0.011036
	H277	H	1.009893	0.961377	0.014149
	H278	H	1.014747	0.964551	0.012291
	O279	O	0.071742	0.081766	-0.026617
	H280	H	0.073893	0.079050	-0.016743
	H281	H	0.073630	0.090806	-0.022781
	O282	O	0.047755	-0.070893	0.969827
	H283	H	0.045449	-0.063114	0.961422
	H284	H	0.046153	-0.078362	0.966892
	O285	O	0.479731	0.525547	0.592914
	H286	H	0.476621	0.527403	0.603289
	H287	H	0.486945	0.518963	0.594856
	O288	O	0.060230	-0.031032	1.024272
	H289	H	0.055671	-0.036187	1.026556
	H290	H	0.064578	-0.037009	1.024451
	O291	O	0.074029	0.978493	-0.028820
	H292	H	0.076357	0.971779	-0.033680
	H293	H	0.077140	0.978165	-0.033372
	O294	O	0.029003	0.043952	0.004203
	H295	H	0.033083	0.048208	0.002047
	H296	H	0.033738	0.046025	0.010714
	O297	O	0.480303	0.496605	0.560791
	H298	H	0.475307	0.493651	0.558298
	H299	H	0.488844	0.506972	0.569681
	O300	O	-0.054674	0.926245	1.030732
	H301	H	-0.056369	0.931290	1.032619
	H302	H	-0.061973	0.922593	1.029036
	O303	O	0.458187	0.564330	0.588383
	H304	H	0.443904	0.564351	0.587969
	H305	H	0.462428	0.556171	0.583478
	O306	O	-0.067160	0.035595	0.976581
	H307	H	-0.066027	0.038078	0.979705
	H308	H	-0.070439	0.047159	0.974302
	O309	O	1.059805	0.963357	0.950990
	H310	H	1.064138	0.966222	0.956598
	H311	H	1.052335	0.966956	0.956544
	O312	O	0.481450	0.579179	0.578188
	H313	H	0.476619	0.579152	0.574763
	H314	H	0.485630	0.587086	0.589932
	O315	O	0.469004	0.509446	0.543683
	H316	H	0.470946	0.502997	0.548517
	H317	H	0.468316	0.515520	0.535496
	O318	O	0.080306	0.985228	0.041294
	H319	H	0.080548	0.972686	0.049768
	H320	H	0.081006	0.983198	0.035707
	O321	O	1.066834	1.024590	0.061490
	H322	H	1.067049	1.017505	0.059952
	H323	H	1.070343	1.020169	0.058026
