data_Molecule from HDF5

_cell_length_a		16.194319
_cell_length_b		16.235718
_cell_length_c		16.309293
_cell_angle_alpha	90.080113
_cell_angle_beta	89.971508
_cell_angle_gamma	90.042691
_symmetry_space_group_name_H-M	'P 1'
_symmetry_Int_Tables_number		1

loop_
	_symmetry_equiv_pos_as_xyz
	x,y,z

loop_
	_atom_site_label
	_atom_site_type_symbol
	_atom_site_fract_x
	_atom_site_fract_y
	_atom_site_fract_z
	H0	H	0.400723	0.836040	0.714550
	H1	H	0.597124	0.164509	0.713327
	H2	H	0.599486	0.835919	0.284120
	H3	H	0.401012	0.164170	0.285398
	H4	H	0.713266	0.401931	0.835904
	H5	H	0.712874	0.596950	0.164061
	H6	H	0.286855	0.596907	0.835739
	H7	H	0.286895	0.403803	0.164113
	H8	H	0.835232	0.711958	0.403951
	H9	H	0.164553	0.712454	0.596200
	H10	H	0.834520	0.287972	0.596727
	H11	H	0.164579	0.287552	0.403068
	H12	H	0.835372	0.401894	0.714119
	H13	H	0.164084	0.599097	0.713225
	H14	H	0.835787	0.598535	0.285944
	H15	H	0.164659	0.402252	0.286235
	H16	H	0.403157	0.713186	0.836216
	H17	H	0.598445	0.714082	0.163715
	H18	H	0.598008	0.285025	0.836339
	H19	H	0.402181	0.286065	0.163763
	H20	H	0.712671	0.835404	0.403402
	H21	H	0.711678	0.165673	0.595764
	H22	H	0.287769	0.834683	0.595734
	H23	H	0.288009	0.164638	0.403648
	H24	H	0.900800	0.336318	0.214185
	H25	H	0.099013	0.664035	0.215014
	H26	H	0.099079	0.337032	0.784601
	H27	H	0.901871	0.664940	0.787606
	H28	H	0.212693	0.903379	0.336425
	H29	H	0.213698	0.097868	0.664093
	H30	H	0.786692	0.096881	0.335974
	H31	H	0.787860	0.905068	0.664144
	H32	H	0.335025	0.211350	0.902167
	H33	H	0.665305	0.212468	0.096820
	H34	H	0.335485	0.786661	0.097635
	H35	H	0.666007	0.787791	0.903479
	H36	H	0.335919	0.901150	0.213600
	H37	H	0.664813	0.097908	0.213261
	H38	H	0.335976	0.096724	0.786472
	H39	H	0.664703	0.902034	0.786540
	H40	H	0.902754	0.212900	0.335933
	H41	H	0.098195	0.215076	0.663880
	H42	H	0.098423	0.785131	0.337036
	H43	H	0.902338	0.786924	0.664214
	H44	H	0.211646	0.335164	0.903346
	H45	H	0.212483	0.664746	0.096665
	H46	H	0.787774	0.335247	0.095400
	H47	H	0.786445	0.664783	0.903866
	H48	H	0.410507	0.117536	0.598823
	H49	H	0.602673	0.878550	0.598822
	H50	H	0.585807	0.115300	0.403909
	H51	H	0.407554	0.883201	0.407457
	H52	H	0.591329	0.405326	0.116551
	H53	H	0.597286	0.599635	0.880170
	H54	H	0.410329	0.596691	0.116184
	H55	H	0.419234	0.405790	0.886761
	H56	H	0.115797	0.592379	0.412632
	H57	H	0.876803	0.599428	0.606922
	H58	H	0.120172	0.403198	0.600231
	H59	H	0.885360	0.414040	0.408199
	H60	H	0.116180	0.403958	0.585774
	H61	H	0.882557	0.602404	0.582514
	H62	H	0.117053	0.587079	0.403272
	H63	H	0.879351	0.405400	0.398530
	H64	H	0.401988	0.595115	0.118568
	H65	H	0.597397	0.587591	0.884459
	H66	H	0.595069	0.404231	0.117353
	H67	H	0.400115	0.392477	0.877763
	H68	H	0.596326	0.116418	0.413188
	H69	H	0.584796	0.883834	0.599597
	H70	H	0.409298	0.114757	0.589050
	H71	H	0.405412	0.882932	0.406140
	H72	H	0.908475	0.617334	0.094987
	H73	H	0.106596	0.377183	0.098155
	H74	H	0.094596	0.617004	0.912692
	H75	H	0.910025	0.384362	0.906442
	H76	H	0.091419	0.903469	0.617183
	H77	H	0.088323	0.091429	0.386241
	H78	H	0.911341	0.091712	0.614521
	H79	H	0.905301	0.909928	0.384264
	H80	H	0.617596	0.099099	0.912827
	H81	H	0.381328	0.096189	0.093187
	H82	H	0.618362	0.906755	0.091633
	H83	H	0.388627	0.920524	0.911732
	H84	H	0.616921	0.907974	0.092801
	H85	H	0.383815	0.091656	0.091503
	H86	H	0.615198	0.084297	0.908028
	H87	H	0.377941	0.904956	0.891931
	H88	H	0.905641	0.100812	0.619275
	H89	H	0.093478	0.099447	0.382496
	H90	H	0.097428	0.905480	0.618060
	H91	H	0.911098	0.903588	0.383993
	H92	H	0.098742	0.620025	0.901595
	H93	H	0.082449	0.383481	0.103658
	H94	H	0.906701	0.617485	0.092820
	H95	H	0.904240	0.382669	0.908349
	H96	H	0.401355	0.119039	0.594878
	H97	H	0.593833	0.885436	0.583854
	H98	H	0.598505	0.120577	0.399472
	H99	H	0.407888	0.882552	0.404990
	H100	H	0.594659	0.408100	0.115805
	H101	H	0.586507	0.593759	0.884905
	H102	H	0.406831	0.589704	0.114804
	H103	H	0.397091	0.415877	0.883726
	H104	H	0.119218	0.597779	0.403858
	H105	H	0.885972	0.579880	0.594083
	H106	H	0.115031	0.416168	0.594633
	H107	H	0.881584	0.400485	0.412362
	H108	H	0.905799	0.618305	0.094790
	H109	H	0.091210	0.387339	0.080068
	H110	H	0.086791	0.616403	0.903520
	H111	H	0.906256	0.382161	0.902402
	H112	H	0.092642	0.909076	0.616097
	H113	H	0.097661	0.089921	0.383418
	H114	H	0.900355	0.091184	0.616934
	H115	H	0.902881	0.902462	0.381542
	H116	H	0.620595	0.094824	0.898558
	H117	H	0.381865	0.091896	0.097074
	H118	H	0.618017	0.906603	0.093375
	H119	H	0.381898	0.893946	0.916755
	C120	C	0.378498	0.008327	0.621979
	C121	C	0.621333	0.991688	0.621552
	C122	C	0.621651	0.008500	0.378016
	C123	C	0.378639	0.991615	0.378226
	C124	C	0.621703	0.377618	0.008131
	C125	C	0.622016	0.621768	0.991705
	C126	C	0.378193	0.621709	0.008404
	C127	C	0.377778	0.377794	0.991328
	C128	C	0.008551	0.620620	0.378884
	C129	C	0.991024	0.621907	0.621734
	C130	C	0.008216	0.379240	0.621543
	C131	C	0.991121	0.378884	0.378553
	C132	C	0.878530	0.508777	0.122017
	C133	C	0.121541	0.491361	0.121847
	C134	C	0.121586	0.509000	0.878123
	C135	C	0.878426	0.491842	0.878109
	C136	C	0.122102	0.877740	0.508942
	C137	C	0.121787	0.122341	0.492018
	C138	C	0.878265	0.122279	0.508255
	C139	C	0.878187	0.877973	0.491514
	C140	C	0.508911	0.120935	0.878383
	C141	C	0.491638	0.121223	0.121544
	C142	C	0.508905	0.878506	0.121211
	C143	C	0.491640	0.877956	0.878418
	C144	C	0.380756	0.884637	0.676656
	C145	C	0.618414	0.115560	0.676043
	C146	C	0.619659	0.884849	0.322769
	C147	C	0.380923	0.115091	0.323468
	C148	C	0.675829	0.381135	0.884959
	C149	C	0.675997	0.618139	0.115040
	C150	C	0.324491	0.617576	0.884750
	C151	C	0.324162	0.382242	0.115240
	C152	C	0.884330	0.674629	0.382874
	C153	C	0.115295	0.675706	0.617861
	C154	C	0.884089	0.324733	0.618207
	C155	C	0.115365	0.324759	0.381875
	C156	C	0.884446	0.381481	0.676312
	C157	C	0.115035	0.619193	0.675683
	C158	C	0.884717	0.618462	0.324287
	C159	C	0.115458	0.381872	0.324116
	C160	C	0.382201	0.675356	0.884794
	C161	C	0.618994	0.676203	0.114750
	C162	C	0.617937	0.323553	0.884754
	C163	C	0.381545	0.324068	0.115096
	C164	C	0.676031	0.884490	0.381607
	C165	C	0.674832	0.116280	0.617203
	C166	C	0.324647	0.884270	0.617598
	C167	C	0.324381	0.115293	0.381909
	C168	C	0.880644	0.385323	0.176559
	C169	C	0.119186	0.615044	0.176770
	C170	C	0.118797	0.385484	0.823436
	C171	C	0.881344	0.615920	0.824826
	C172	C	0.175917	0.881568	0.385332
	C173	C	0.176154	0.118905	0.615297
	C174	C	0.824164	0.118136	0.384679
	C175	C	0.824300	0.882796	0.615160
	C176	C	0.384650	0.174699	0.881550
	C177	C	0.615804	0.175263	0.117842
	C178	C	0.384590	0.823993	0.117968
	C179	C	0.616126	0.824322	0.882043
	C180	C	0.384995	0.880690	0.175874
	C181	C	0.615732	0.118276	0.175607
	C182	C	0.384765	0.117640	0.824138
	C183	C	0.615741	0.881091	0.823786
	C184	C	0.881667	0.175959	0.384830
	C185	C	0.119038	0.177375	0.615045
	C186	C	0.118810	0.823300	0.385677
	C187	C	0.881588	0.824599	0.615130
	C188	C	0.174813	0.384753	0.882364
	C189	C	0.175576	0.615428	0.118068
	C190	C	0.824354	0.384604	0.117567
	C191	C	0.824277	0.615814	0.882616
	C192	C	0.400667	0.094803	0.600634
	C193	C	0.599945	0.905030	0.600470
	C194	C	0.599837	0.095038	0.399305
	C195	C	0.400448	0.905270	0.399598
	C196	C	0.600028	0.399488	0.094361
	C197	C	0.600217	0.600048	0.905284
	C198	C	0.399812	0.600343	0.094391
	C199	C	0.398988	0.398589	0.905043
	C200	C	0.095017	0.598695	0.400266
	C201	C	0.904092	0.600292	0.600780
	C202	C	0.095019	0.401309	0.600008
	C203	C	0.904374	0.400411	0.399990
	C204	C	0.900421	0.595338	0.100465
	C205	C	0.099904	0.404834	0.100447
	C206	C	0.099950	0.595561	0.899555
	C207	C	0.900253	0.405467	0.899311
	C208	C	0.100295	0.899388	0.594983
	C209	C	0.099754	0.100176	0.406092
	C210	C	0.899525	0.100991	0.594595
	C211	C	0.899953	0.898958	0.405518
	C212	C	0.595509	0.099093	0.900036
	C213	C	0.404876	0.099571	0.100270
	C214	C	0.595548	0.900479	0.099255
	C215	C	0.404857	0.899803	0.900166
	Zn216	Zn	0.499988	-0.000117	0.750451
	Zn217	Zn	0.500089	-0.000424	0.249557
	Zn218	Zn	0.750280	0.499953	0.000058
	Zn219	Zn	0.249410	0.500085	0.000178
	Zn220	Zn	-0.000036	0.749124	0.500427
	Zn221	Zn	-0.000149	0.250930	0.500260
	Zn222	Zn	0.000107	0.500892	0.749699
	Zn223	Zn	0.000009	0.500295	0.249966
	Zn224	Zn	0.500048	0.750338	0.000092
	Zn225	Zn	0.499653	0.248870	-0.000317
	Zn226	Zn	0.749851	0.000222	0.499556
	Zn227	Zn	0.250094	-0.000003	0.500023
	N228	N	0.413634	0.962799	0.679303
	N229	N	0.585906	0.037185	0.678854
	N230	N	0.586671	0.962916	0.320477
	N231	N	0.414101	0.037116	0.321076
	N232	N	0.677878	0.414569	0.962590
	N233	N	0.677723	0.584842	0.037396
	N234	N	0.321781	0.585227	0.962636
	N235	N	0.322011	0.415111	0.037607
	N236	N	0.962383	0.676317	0.416017
	N237	N	0.037159	0.677312	0.584911
	N238	N	0.962135	0.323347	0.584745
	N239	N	0.037355	0.323064	0.415202
	N240	N	0.962518	0.414936	0.678228
	N241	N	0.036719	0.586504	0.678120
	N242	N	0.962859	0.585491	0.321885
	N243	N	0.037050	0.414645	0.321751
	N244	N	0.414832	0.678033	0.962690
	N245	N	0.586108	0.678452	0.036991
	N246	N	0.585255	0.321070	0.962528
	N247	N	0.414145	0.321049	0.037144
	N248	N	0.677349	0.962355	0.415149
	N249	N	0.676763	0.038328	0.584111
	N250	N	0.322833	0.962216	0.584585
	N251	N	0.323044	0.037577	0.415482
	N252	N	0.913561	0.463379	0.179055
	N253	N	0.086167	0.536908	0.178917
	N254	N	0.086354	0.463750	0.820750
	N255	N	0.914462	0.537788	0.821974
	N256	N	0.177717	0.914950	0.462802
	N257	N	0.177909	0.085226	0.537808
	N258	N	0.821983	0.085446	0.462379
	N259	N	0.822358	0.915490	0.537366
	N260	N	0.462702	0.176501	0.914752
	N261	N	0.537671	0.176906	0.084764
	N262	N	0.462755	0.822546	0.084677
	N263	N	0.538001	0.822314	0.915206
	N264	N	0.462982	0.914064	0.177836
	N265	N	0.537446	0.085184	0.177859
	N266	N	0.463114	0.085131	0.821781
	N267	N	0.537271	0.913717	0.821494
	N268	N	0.914636	0.178388	0.462580
	N269	N	0.086037	0.179464	0.537397
	N270	N	0.086327	0.820626	0.463567
	N271	N	0.914193	0.821285	0.537224
	N272	N	0.176736	0.462661	0.915582
	N273	N	0.177006	0.537573	0.084586
	N274	N	0.823087	0.462465	0.084170
	N275	N	0.822380	0.537740	0.915069
