data_Molecule from HDF5

_cell_length_a		16.419792
_cell_length_b		16.172749
_cell_length_c		16.183061
_cell_angle_alpha	89.947901
_cell_angle_beta	89.842440
_cell_angle_gamma	89.753765
_symmetry_space_group_name_H-M	'P 1'
_symmetry_Int_Tables_number		1

loop_
	_symmetry_equiv_pos_as_xyz
	x,y,z

loop_
	_atom_site_label
	_atom_site_type_symbol
	_atom_site_fract_x
	_atom_site_fract_y
	_atom_site_fract_z
	H0	H	0.412391	0.816098	0.719501
	H1	H	0.609288	0.143964	0.719875
	H2	H	0.609455	0.815801	0.292234
	H3	H	0.408858	0.143322	0.287983
	H4	H	0.734275	0.376787	0.843874
	H5	H	0.729250	0.584735	0.167926
	H6	H	0.293438	0.586140	0.843369
	H7	H	0.293027	0.373400	0.166070
	H8	H	0.849888	0.699067	0.404645
	H9	H	0.171590	0.699531	0.606992
	H10	H	0.848173	0.266592	0.608237
	H11	H	0.170941	0.260619	0.403581
	H12	H	0.851470	0.379917	0.727619
	H13	H	0.172632	0.584938	0.723141
	H14	H	0.851134	0.584313	0.287024
	H15	H	0.173294	0.378621	0.289639
	H16	H	0.413334	0.695763	0.841292
	H17	H	0.610148	0.694277	0.169194
	H18	H	0.616418	0.263529	0.841851
	H19	H	0.415648	0.265818	0.168941
	H20	H	0.730664	0.819036	0.400355
	H21	H	0.726399	0.143450	0.608080
	H22	H	0.293301	0.817510	0.608963
	H23	H	0.290859	0.142786	0.401941
	H24	H	0.915046	0.317594	0.219919
	H25	H	0.112711	0.645240	0.220370
	H26	H	0.114852	0.318745	0.788410
	H27	H	0.914833	0.646247	0.792260
	H28	H	0.230201	0.875466	0.344752
	H29	H	0.226768	0.084233	0.669220
	H30	H	0.792060	0.085221	0.343176
	H31	H	0.792075	0.878395	0.668021
	H32	H	0.353854	0.202940	0.900154
	H33	H	0.674205	0.194870	0.107309
	H34	H	0.350191	0.762949	0.105739
	H35	H	0.673880	0.762814	0.904020
	H36	H	0.349982	0.877069	0.223716
	H37	H	0.671900	0.079963	0.224100
	H38	H	0.349980	0.082131	0.790296
	H39	H	0.672031	0.877194	0.785458
	H40	H	0.908224	0.198472	0.342362
	H41	H	0.106099	0.194987	0.670276
	H42	H	0.110675	0.766773	0.343285
	H43	H	0.912007	0.767085	0.670213
	H44	H	0.232833	0.319063	0.900024
	H45	H	0.231422	0.643278	0.107208
	H46	H	0.796167	0.319266	0.110007
	H47	H	0.792724	0.642988	0.900497
	H48	H	0.416702	0.096723	0.595878
	H49	H	0.609071	0.863033	0.590084
	H50	H	0.592153	0.094124	0.415358
	H51	H	0.405510	0.864945	0.433358
	H52	H	0.606064	0.383024	0.124768
	H53	H	0.601946	0.568106	0.890641
	H54	H	0.425839	0.572378	0.120071
	H55	H	0.428008	0.392549	0.890669
	H56	H	0.129434	0.576293	0.404876
	H57	H	0.901246	0.571477	0.585069
	H58	H	0.126069	0.384903	0.595031
	H59	H	0.898099	0.395568	0.414620
	H60	H	0.123800	0.389916	0.592929
	H61	H	0.897667	0.562165	0.607603
	H62	H	0.126655	0.579493	0.419265
	H63	H	0.894207	0.390820	0.408888
	H64	H	0.418014	0.571201	0.123161
	H65	H	0.605290	0.573991	0.886574
	H66	H	0.610648	0.392515	0.122386
	H67	H	0.422240	0.387499	0.887510
	H68	H	0.604823	0.095880	0.422857
	H69	H	0.601200	0.862283	0.602310
	H70	H	0.416022	0.098152	0.596537
	H71	H	0.412744	0.855711	0.398436
	H72	H	0.916704	0.598357	0.091572
	H73	H	0.101687	0.365891	0.093684
	H74	H	0.103068	0.599079	0.911724
	H75	H	0.920598	0.362534	0.912908
	H76	H	0.099817	0.886165	0.623764
	H77	H	0.103367	0.070969	0.388962
	H78	H	0.911648	0.062241	0.620390
	H79	H	0.915298	0.889375	0.387311
	H80	H	0.628479	0.070262	0.909541
	H81	H	0.396940	0.071842	0.097547
	H82	H	0.628206	0.883928	0.101151
	H83	H	0.395703	0.884003	0.913327
	H84	H	0.624447	0.886005	0.093609
	H85	H	0.397501	0.073085	0.094541
	H86	H	0.627333	0.071216	0.913265
	H87	H	0.397580	0.888988	0.915649
	H88	H	0.926706	0.074533	0.619926
	H89	H	0.101899	0.067103	0.390353
	H90	H	0.106327	0.892547	0.624814
	H91	H	0.919220	0.895917	0.390215
	H92	H	0.102917	0.596343	0.919234
	H93	H	0.109273	0.364310	0.094704
	H94	H	0.917715	0.601587	0.101054
	H95	H	0.929570	0.367339	0.917237
	H96	H	0.417857	0.097370	0.597750
	H97	H	0.595043	0.867244	0.589875
	H98	H	0.604379	0.100776	0.407622
	H99	H	0.438785	0.871345	0.418719
	H100	H	0.600300	0.390675	0.119362
	H101	H	0.608303	0.567314	0.888985
	H102	H	0.422365	0.564915	0.119563
	H103	H	0.420446	0.395914	0.889444
	H104	H	0.123940	0.565318	0.413561
	H105	H	0.891534	0.585449	0.602829
	H106	H	0.126016	0.389479	0.598665
	H107	H	0.896834	0.387924	0.416248
	H108	H	0.925276	0.596299	0.096194
	H109	H	0.104441	0.363281	0.100502
	H110	H	0.109746	0.599256	0.915891
	H111	H	0.920451	0.366241	0.922413
	H112	H	0.098148	0.894924	0.621474
	H113	H	0.098723	0.070846	0.390395
	H114	H	0.909644	0.080263	0.626903
	H115	H	0.923275	0.888860	0.389440
	H116	H	0.625826	0.066706	0.911481
	H117	H	0.398425	0.069346	0.094440
	H118	H	0.625050	0.891812	0.099704
	H119	H	0.396536	0.889176	0.910507
	C120	C	0.387979	-0.010566	0.627488
	C121	C	0.631246	0.971736	0.625082
	C122	C	0.631397	-0.010514	0.384525
	C123	C	0.388189	0.971417	0.384941
	C124	C	0.636278	0.358581	0.014345
	C125	C	0.633985	0.601011	0.996447
	C126	C	0.391922	0.600741	0.013376
	C127	C	0.392658	0.359665	0.996351
	C128	C	0.020146	0.604242	0.382661
	C129	C	1.002963	0.603443	0.627787
	C130	C	0.019126	0.359040	0.627493
	C131	C	1.002539	0.359364	0.383398
	C132	C	0.891345	0.490665	0.127031
	C133	C	0.135050	0.472173	0.126536
	C134	C	0.135565	0.490618	0.883958
	C135	C	0.892551	0.472953	0.885898
	C136	C	0.131984	0.860124	0.515622
	C137	C	0.130096	0.100601	0.497857
	C138	C	0.886739	0.103250	0.514519
	C139	C	0.889286	0.860813	0.497125
	C140	C	0.521052	0.101980	0.882038
	C141	C	0.503618	0.101050	0.126789
	C142	C	0.519450	0.857520	0.127671
	C143	C	0.503236	0.857229	0.882587
	C144	C	0.390999	0.865723	0.683102
	C145	C	0.629233	0.094924	0.681848
	C146	C	0.630327	0.865504	0.328865
	C147	C	0.388474	0.094296	0.326449
	C148	C	0.695007	0.357969	0.892121
	C149	C	0.690328	0.602340	0.119238
	C150	C	0.333787	0.603019	0.891425
	C151	C	0.333677	0.356711	0.117964
	C152	C	0.898637	0.661057	0.384271
	C153	C	0.123884	0.660770	0.626550
	C154	C	0.897200	0.304177	0.627750
	C155	C	0.123033	0.300191	0.384163
	C156	C	0.898837	0.360673	0.687154
	C157	C	0.124439	0.603674	0.684444
	C158	C	0.899384	0.603914	0.325495
	C159	C	0.124401	0.359098	0.327312
	C160	C	0.392936	0.658244	0.890538
	C161	C	0.631022	0.656975	0.119940
	C162	C	0.636358	0.301582	0.891185
	C163	C	0.394338	0.302631	0.119356
	C164	C	0.690445	0.867137	0.382903
	C165	C	0.687629	0.094731	0.626076
	C166	C	0.331721	0.866510	0.628029
	C167	C	0.329980	0.093891	0.383250
	C168	C	0.894198	0.366969	0.182805
	C169	C	0.133246	0.595696	0.182763
	C170	C	0.134624	0.367584	0.826679
	C171	C	0.893806	0.596421	0.829156
	C172	C	0.190416	0.858090	0.393233
	C173	C	0.187455	0.102389	0.620410
	C174	C	0.830571	0.103817	0.391807
	C175	C	0.831641	0.860016	0.619724
	C176	C	0.401177	0.162373	0.881927
	C177	C	0.625225	0.156942	0.126507
	C178	C	0.397957	0.801271	0.125828
	C179	C	0.624901	0.800898	0.883748
	C180	C	0.398074	0.857989	0.184496
	C181	C	0.624232	0.099906	0.185064
	C182	C	0.399200	0.102320	0.826838
	C183	C	0.624058	0.857731	0.824657
	C184	C	0.888394	0.160094	0.391355
	C185	C	0.127403	0.157356	0.621181
	C186	C	0.131161	0.803763	0.392413
	C187	C	0.890970	0.804363	0.620551
	C188	C	0.193260	0.367776	0.882145
	C189	C	0.192566	0.594600	0.126707
	C190	C	0.835191	0.367783	0.127863
	C191	C	0.833366	0.595000	0.883596
	C192	C	0.410350	0.075205	0.603632
	C193	C	0.608545	0.886399	0.600933
	C194	C	0.607368	0.074724	0.408079
	C195	C	0.412136	0.886064	0.409527
	C196	C	0.612508	0.381927	0.099731
	C197	C	0.611682	0.576893	0.911095
	C198	C	0.415328	0.576541	0.098849
	C199	C	0.416660	0.384654	0.911261
	C200	C	0.104691	0.580541	0.405828
	C201	C	0.918804	0.579888	0.605120
	C202	C	0.103355	0.381592	0.602808
	C203	C	0.918207	0.384101	0.406652
	C204	C	0.913404	0.576561	0.103244
	C205	C	0.111963	0.386536	0.103214
	C206	C	0.112226	0.575970	0.908522
	C207	C	0.916658	0.387620	0.910473
	C208	C	0.108403	0.884080	0.601080
	C209	C	0.107648	0.076765	0.412221
	C210	C	0.909383	0.079434	0.600211
	C211	C	0.912442	0.884503	0.411295
	C212	C	0.605387	0.076865	0.904847
	C213	C	0.419423	0.078223	0.102552
	C214	C	0.603998	0.880378	0.104765
	C215	C	0.418453	0.880631	0.906335
	Zn216	Zn	0.510869	-0.019736	0.753846
	Zn217	Zn	0.510408	-0.020378	0.256855
	Zn218	Zn	0.763646	0.481293	0.006289
	Zn219	Zn	0.263274	0.480199	0.004763
	Zn220	Zn	0.010715	0.732780	0.506060
	Zn221	Zn	0.008743	0.229516	0.505495
	Zn222	Zn	0.013151	0.481760	0.757060
	Zn223	Zn	0.012490	0.481411	0.254266
	Zn224	Zn	0.512343	0.728749	0.005574
	Zn225	Zn	0.513940	0.230610	0.004678
	Zn226	Zn	0.759840	-0.018905	0.504905
	Zn227	Zn	0.259749	-0.019693	0.506563
	N228	N	0.425239	0.943253	0.683070
	N229	N	0.594720	0.017527	0.681459
	N230	N	0.594257	0.942532	0.329689
	N231	N	0.423932	0.017062	0.327250
	N232	N	0.695078	0.392597	0.969697
	N233	N	0.692474	0.568253	0.041578
	N234	N	0.332939	0.568005	0.968888
	N235	N	0.332492	0.391270	0.040379
	N236	N	0.974779	0.661275	0.419242
	N237	N	0.047523	0.660829	0.592116
	N238	N	0.972909	0.303012	0.591307
	N239	N	0.046214	0.300104	0.418111
	N240	N	0.975739	0.394098	0.687304
	N241	N	0.048381	0.568530	0.685335
	N242	N	0.976159	0.569562	0.324239
	N243	N	0.048382	0.395116	0.326546
	N244	N	0.428451	0.656925	0.967365
	N245	N	0.596918	0.656772	0.042405
	N246	N	0.600666	0.301440	0.968184
	N247	N	0.430510	0.304324	0.042634
	N248	N	0.691439	0.945023	0.416744
	N249	N	0.689029	0.017145	0.591570
	N250	N	0.329769	0.944360	0.594003
	N251	N	0.329790	0.016650	0.418868
	N252	N	0.928405	0.444464	0.182480
	N253	N	0.098359	0.518502	0.182897
	N254	N	0.099796	0.445054	0.827169
	N255	N	0.929869	0.519538	0.830570
	N256	N	0.191014	0.892566	0.470878
	N257	N	0.189222	0.067871	0.542831
	N258	N	0.829305	0.069178	0.469400
	N259	N	0.830480	0.894228	0.541736
	N260	N	0.477983	0.162204	0.915671
	N261	N	0.549304	0.157710	0.090839
	N262	N	0.474431	0.800895	0.091048
	N263	N	0.548646	0.800515	0.919058
	N264	N	0.474486	0.892299	0.185858
	N265	N	0.547720	0.065720	0.185281
	N266	N	0.474875	0.065599	0.826757
	N267	N	0.547304	0.892071	0.823922
	N268	N	0.922720	0.159731	0.468675
	N269	N	0.092477	0.156596	0.543920
	N270	N	0.095547	0.804647	0.469343
	N271	N	0.926144	0.804777	0.543344
	N272	N	0.194130	0.445353	0.916848
	N273	N	0.193809	0.516771	0.092694
	N274	N	0.833099	0.445764	0.094038
	N275	N	0.832446	0.517177	0.917944
	O276	O	0.608491	0.570880	0.403019
	H277	H	0.593649	0.567254	0.397386
	H278	H	0.617985	0.557627	0.396244
	O279	O	0.626903	0.505475	0.474934
	H280	H	0.626205	0.489079	0.499105
	H281	H	0.623504	0.494618	0.463583
	O282	O	1.105549	-0.042690	-0.016092
	H283	H	1.104688	-0.028406	-0.016000
	H284	H	1.116030	-0.049528	-0.023126
	O285	O	-0.022127	0.931632	-0.121429
	H286	H	-0.020136	0.933064	-0.130102
	H287	H	-0.018827	0.921550	-0.122645
	O288	O	0.463166	0.513453	0.402507
	H289	H	0.454803	0.518714	0.396113
	H290	H	0.467110	0.514979	0.413534
	O291	O	0.422950	0.627187	0.404009
	H292	H	0.426730	0.627759	0.416146
	H293	H	0.425689	0.622661	0.403190
	O294	O	1.085487	1.077142	1.142600
	H295	H	1.079914	1.075788	1.142671
	H296	H	1.093229	1.077760	1.146873
	O297	O	0.094751	0.053830	0.011578
	H298	H	0.104172	0.058288	0.022825
	H299	H	0.097873	0.058284	0.005764
	O300	O	0.835468	-0.111377	-0.027066
	H301	H	0.836238	-0.125775	-0.028540
	H302	H	0.831526	-0.101946	-0.021770
	O303	O	0.052236	1.140660	1.153850
	H304	H	0.051027	1.134926	1.155663
	H305	H	0.053086	1.156790	1.154648
	O306	O	0.482707	0.508507	0.611665
	H307	H	0.471239	0.519595	0.611493
	H308	H	0.478305	0.509741	0.618807
	O309	O	1.026927	0.004812	0.073271
	H310	H	1.038855	-0.000627	0.066892
	H311	H	1.034710	0.008964	0.065419
	O312	O	0.026444	-0.031584	0.904958
	H313	H	0.027620	-0.015503	0.901075
	H314	H	0.029631	-0.033666	0.922090
	O315	O	0.155002	0.946187	-0.043008
	H316	H	0.155632	0.966690	-0.030575
	H317	H	0.157913	0.947035	-0.047004
	O318	O	0.661237	0.406329	0.439015
	H319	H	0.656073	0.399406	0.436766
	H320	H	0.679511	0.423695	0.441534
	O321	O	1.012922	-0.020083	0.096165
	H322	H	1.020217	-0.009677	0.098369
	H323	H	1.004427	-0.034042	0.102591
	O324	O	-0.092601	0.981101	0.024097
	H325	H	-0.091948	0.976413	0.023727
	H326	H	-0.103092	0.984926	0.023875
	O327	O	-0.648321	1.389147	0.652600
	H328	H	-0.655845	1.371272	0.649131
	H329	H	-0.658845	1.370892	0.655295
	O330	O	0.409166	0.369740	0.621598
	H331	H	0.413123	0.370563	0.614878
	H332	H	0.412056	0.365015	0.618151
	O333	O	0.006017	1.095157	1.033352
	H334	H	0.017295	1.099721	1.037329
	H335	H	0.012345	1.078828	1.034318
	O336	O	0.988382	0.890165	0.970002
	H337	H	0.997021	0.876060	0.965067
	H338	H	0.981241	0.888040	0.979990
	O339	O	0.669016	0.562845	-0.357715
	H340	H	0.665213	0.566997	-0.360570
	H341	H	0.679903	0.572807	-0.356715
	O342	O	0.869567	0.105665	0.070752
	H343	H	0.862188	0.102971	0.064248
	H344	H	0.865249	0.093146	0.062280
	O345	O	0.208700	0.778762	0.715022
	H346	H	0.220395	0.777217	0.714458
	H347	H	0.196554	0.769778	0.705306
	O348	O	1.160248	1.965502	1.062414
	H349	H	1.159851	1.966687	1.065204
	H350	H	1.160602	1.964030	1.047378
	O351	O	-0.112895	1.024753	-0.075110
	H352	H	-0.114158	1.022191	-0.079447
	H353	H	-0.121448	1.039821	-0.062534
	O354	O	-0.124839	0.875390	1.111578
	H355	H	-0.119845	0.882371	1.121493
	H356	H	-0.119650	0.869044	1.110619
	O357	O	0.514578	0.521350	0.559999
	H358	H	0.517894	0.521439	0.570801
	H359	H	0.508844	0.523453	0.569656
	O360	O	-0.016192	-0.153444	0.145796
	H361	H	-0.029785	-0.157063	0.145702
	H362	H	-0.019435	-0.164383	0.145751
	O363	O	0.512123	0.474963	0.624590
	H364	H	0.507206	0.472554	0.622133
	H365	H	0.515378	0.483345	0.623906
	O366	O	0.523989	0.509974	0.573972
	H367	H	0.506511	0.506408	0.586730
	H368	H	0.526433	0.512157	0.563470
	O369	O	0.503311	0.621080	0.494314
	H370	H	0.503454	0.628893	0.501473
	H371	H	0.508768	0.619827	0.497573
	O372	O	0.489343	0.327841	0.509030
	H373	H	0.489193	0.324909	0.489801
	H374	H	0.505297	0.323206	0.497526
	O375	O	0.404545	0.415083	0.389962
	H376	H	0.425923	0.430533	0.402137
	H377	H	0.382045	0.421327	0.372409
	O378	O	0.570090	0.343392	0.516453
	H379	H	0.579200	0.336921	0.538463
	H380	H	0.574887	0.350203	0.522970
	O381	O	0.520779	0.394672	0.495800
	H382	H	0.519624	0.397474	0.499632
	H383	H	0.519675	0.400035	0.497351
	O384	O	0.081054	0.919516	-0.066306
	H385	H	0.082336	0.910279	-0.069871
	H386	H	0.082063	0.924666	-0.061184
	O387	O	0.316406	0.421736	1.578075
	H388	H	0.322175	0.406017	1.579922
	H389	H	0.308563	0.427487	1.569564
	O390	O	0.025442	1.071515	-0.033808
	H391	H	0.020784	1.063239	-0.018609
	H392	H	0.024474	1.065892	-0.035433
	O393	O	0.419745	0.527739	-0.645116
	H394	H	0.433785	0.532731	-0.631682
	H395	H	0.430516	0.533842	-0.649655
	O396	O	0.612056	0.458768	0.516845
	H397	H	0.609758	0.451015	0.521517
	H398	H	0.602513	0.456747	0.518162
	O399	O	0.508213	1.439822	1.391708
	H400	H	0.504465	1.431630	1.375225
	H401	H	0.512643	1.429733	1.383190
	O402	O	0.959917	1.026843	1.011814
	H403	H	0.957226	1.037348	1.018307
	H404	H	0.949609	1.028851	1.014724
	O405	O	0.573954	0.555641	0.460714
	H406	H	0.575217	0.558620	0.466366
	H407	H	0.564312	0.569767	0.457340
