data_Molecule from HDF5

_cell_length_a		16.178830
_cell_length_b		16.106871
_cell_length_c		16.305954
_cell_angle_alpha	90.036735
_cell_angle_beta	90.305069
_cell_angle_gamma	90.235720
_symmetry_space_group_name_H-M	'P 1'
_symmetry_Int_Tables_number		1

loop_
	_symmetry_equiv_pos_as_xyz
	x,y,z

loop_
	_atom_site_label
	_atom_site_type_symbol
	_atom_site_fract_x
	_atom_site_fract_y
	_atom_site_fract_z
	H0	H	0.388736	0.830487	0.709964
	H1	H	0.593753	0.159142	0.713585
	H2	H	0.590261	0.831396	0.279836
	H3	H	0.389797	0.160270	0.279101
	H4	H	0.703909	0.394542	0.830641
	H5	H	0.706698	0.595661	0.156626
	H6	H	0.272777	0.592752	0.830911
	H7	H	0.273517	0.392631	0.157391
	H8	H	0.824383	0.706417	0.398888
	H9	H	0.154169	0.710971	0.595154
	H10	H	0.826036	0.282173	0.592778
	H11	H	0.154995	0.285153	0.399382
	H12	H	0.825984	0.395244	0.708479
	H13	H	0.153256	0.599431	0.712989
	H14	H	0.826002	0.598427	0.278064
	H15	H	0.153239	0.396690	0.281058
	H16	H	0.387911	0.709651	0.831277
	H17	H	0.590631	0.709810	0.156762
	H18	H	0.585907	0.278992	0.830526
	H19	H	0.391491	0.280132	0.158775
	H20	H	0.700201	0.829726	0.399656
	H21	H	0.707617	0.159548	0.597835
	H22	H	0.276193	0.830695	0.591460
	H23	H	0.278429	0.162256	0.396918
	H24	H	0.888228	0.331737	0.210688
	H25	H	0.089875	0.660706	0.209202
	H26	H	0.091063	0.331119	0.778536
	H27	H	0.890808	0.660928	0.780157
	H28	H	0.203096	0.898462	0.330557
	H29	H	0.207379	0.096898	0.658271
	H30	H	0.774381	0.094044	0.331602
	H31	H	0.774814	0.894563	0.659102
	H32	H	0.324248	0.204699	0.897904
	H33	H	0.653716	0.208360	0.093402
	H34	H	0.325007	0.780295	0.090991
	H35	H	0.653877	0.780016	0.895291
	H36	H	0.325918	0.893480	0.209992
	H37	H	0.653723	0.096531	0.210409
	H38	H	0.326800	0.095895	0.778077
	H39	H	0.653338	0.893666	0.779865
	H40	H	0.890387	0.211029	0.331730
	H41	H	0.089841	0.211323	0.658965
	H42	H	0.086661	0.781707	0.331024
	H43	H	0.892622	0.781292	0.659182
	H44	H	0.199065	0.328098	0.898863
	H45	H	0.206550	0.659468	0.094263
	H46	H	0.778369	0.329091	0.089719
	H47	H	0.774989	0.660059	0.894845
	H48	H	0.404482	0.113446	0.594568
	H49	H	0.574293	0.879618	0.591431
	H50	H	0.581179	0.113387	0.400594
	H51	H	0.398649	0.881104	0.409089
	H52	H	0.579130	0.399101	0.110134
	H53	H	0.584453	0.586106	0.876198
	H54	H	0.403698	0.579207	0.106311
	H55	H	0.387748	0.406690	0.877139
	H56	H	0.110651	0.595237	0.399386
	H57	H	0.871792	0.589309	0.589119
	H58	H	0.111070	0.402635	0.595331
	H59	H	0.878445	0.413680	0.413256
	H60	H	0.108671	0.401836	0.584991
	H61	H	0.872468	0.587852	0.586821
	H62	H	0.104888	0.588139	0.409151
	H63	H	0.869449	0.410165	0.387471
	H64	H	0.401614	0.593417	0.111911
	H65	H	0.581210	0.583211	0.878310
	H66	H	0.588455	0.398652	0.112615
	H67	H	0.403205	0.400749	0.880165
	H68	H	0.581021	0.113528	0.403951
	H69	H	0.582276	0.880055	0.580275
	H70	H	0.402169	0.110698	0.581765
	H71	H	0.388117	0.875059	0.399641
	H72	H	0.898121	0.613271	0.085354
	H73	H	0.087651	0.375893	0.086236
	H74	H	0.083506	0.614100	0.899954
	H75	H	0.893640	0.377381	0.904505
	H76	H	0.080890	0.909963	0.608246
	H77	H	0.080233	0.094231	0.377869
	H78	H	0.901173	0.093244	0.611725
	H79	H	0.886939	0.898226	0.375669
	H80	H	0.607435	0.080673	0.898395
	H81	H	0.368659	0.092504	0.090966
	H82	H	0.608248	0.903842	0.093634
	H83	H	0.374512	0.908226	0.904728
	H84	H	0.607556	0.898521	0.087582
	H85	H	0.374366	0.086322	0.081610
	H86	H	0.610492	0.093896	0.901765
	H87	H	0.369694	0.903021	0.893801
	H88	H	0.893472	0.087779	0.613517
	H89	H	0.088887	0.091614	0.376504
	H90	H	0.079521	0.897134	0.612092
	H91	H	0.895471	0.910003	0.381696
	H92	H	0.078013	0.611249	0.904705
	H93	H	0.081201	0.374586	0.097106
	H94	H	0.896507	0.613733	0.087872
	H95	H	0.896464	0.375872	0.896050
	H96	H	0.393083	0.116224	0.589312
	H97	H	0.587481	0.873781	0.591297
	H98	H	0.583874	0.114540	0.402702
	H99	H	0.402789	0.877563	0.396098
	H100	H	0.583868	0.407133	0.109129
	H101	H	0.579564	0.588386	0.877707
	H102	H	0.390297	0.583672	0.111416
	H103	H	0.390785	0.390416	0.874974
	H104	H	0.106777	0.582730	0.397974
	H105	H	0.872959	0.586326	0.589247
	H106	H	0.106020	0.410489	0.589821
	H107	H	0.867873	0.388914	0.405036
	H108	H	0.899945	0.614063	0.087718
	H109	H	0.075052	0.379421	0.086939
	H110	H	0.085808	0.611975	0.907026
	H111	H	0.901376	0.379379	0.901958
	H112	H	0.092043	0.903078	0.613000
	H113	H	0.082397	0.086020	0.380113
	H114	H	0.901443	0.084369	0.608502
	H115	H	0.901620	0.896120	0.379372
	H116	H	0.605208	0.084946	0.910178
	H117	H	0.371591	0.079945	0.092822
	H118	H	0.605717	0.906808	0.086226
	H119	H	0.371753	0.895966	0.904941
	C120	C	0.369911	0.004327	0.616455
	C121	C	0.611893	0.986549	0.617951
	C122	C	0.610465	0.004468	0.374420
	C123	C	0.368506	0.987132	0.372858
	C124	C	0.611501	0.372105	0.002810
	C125	C	0.611848	0.615967	0.985153
	C126	C	0.367904	0.615029	0.002491
	C127	C	0.366404	0.370670	0.985720
	C128	C	-0.001433	0.617807	0.373494
	C129	C	0.980915	0.617799	0.617518
	C130	C	-0.000341	0.375280	0.617706
	C131	C	0.980726	0.375604	0.373819
	C132	C	0.868691	0.504559	0.115806
	C133	C	0.111194	0.486063	0.117666
	C134	C	0.110570	0.503257	0.874462
	C135	C	0.868199	0.486822	0.872345
	C136	C	0.111923	0.874901	0.502977
	C137	C	0.113147	0.119486	0.486460
	C138	C	0.868819	0.117568	0.503522
	C139	C	0.867054	0.873023	0.487112
	C140	C	0.499000	0.115637	0.874022
	C141	C	0.480503	0.115869	0.117210
	C142	C	0.498507	0.873140	0.117243
	C143	C	0.480741	0.873309	0.872884
	C144	C	0.369980	0.879867	0.671597
	C145	C	0.612352	0.109990	0.674907
	C146	C	0.609074	0.880201	0.318725
	C147	C	0.370136	0.111279	0.317075
	C148	C	0.666197	0.374212	0.879601
	C149	C	0.668539	0.615306	0.107835
	C150	C	0.311063	0.612848	0.879850
	C151	C	0.312075	0.373090	0.108856
	C152	C	0.874017	0.671073	0.376679
	C153	C	0.104906	0.673411	0.615438
	C154	C	0.875454	0.319264	0.613980
	C155	C	0.105383	0.321702	0.377888
	C156	C	0.875568	0.375827	0.671564
	C157	C	0.104272	0.618016	0.674237
	C158	C	0.875080	0.617069	0.316877
	C159	C	0.104317	0.377189	0.319041
	C160	C	0.368009	0.671391	0.879969
	C161	C	0.610816	0.672372	0.107895
	C162	C	0.607533	0.316726	0.879541
	C163	C	0.370634	0.317028	0.109584
	C164	C	0.663971	0.879512	0.378097
	C165	C	0.669183	0.110248	0.617291
	C166	C	0.313603	0.879998	0.612970
	C167	C	0.314884	0.112224	0.375828
	C168	C	0.869522	0.380507	0.171661
	C169	C	0.110319	0.610811	0.172068
	C170	C	0.109319	0.379843	0.817853
	C171	C	0.870420	0.611246	0.817572
	C172	C	0.165515	0.877926	0.379462
	C173	C	0.169185	0.116930	0.609544
	C174	C	0.812411	0.115045	0.380579
	C175	C	0.812436	0.874687	0.609988
	C176	C	0.374073	0.168880	0.876787
	C177	C	0.604327	0.171357	0.114051
	C178	C	0.374539	0.817486	0.112932
	C179	C	0.604890	0.818112	0.875385
	C180	C	0.374966	0.873847	0.172075
	C181	C	0.604495	0.115390	0.172275
	C182	C	0.375462	0.114686	0.817190
	C183	C	0.604509	0.874364	0.817739
	C184	C	0.870258	0.173182	0.380634
	C185	C	0.110579	0.173792	0.610027
	C186	C	0.107734	0.819764	0.379901
	C187	C	0.871223	0.818195	0.610214
	C188	C	0.163366	0.378267	0.877549
	C189	C	0.168257	0.610177	0.114924
	C190	C	0.814531	0.379384	0.111940
	C191	C	0.812928	0.610810	0.874701
	C192	C	0.393133	0.091045	0.594876
	C193	C	0.588158	0.900207	0.594632
	C194	C	0.588523	0.091260	0.396064
	C195	C	0.390280	0.900250	0.395010
	C196	C	0.589990	0.394845	0.088274
	C197	C	0.588674	0.592893	0.899478
	C198	C	0.391557	0.592206	0.087870
	C199	C	0.387630	0.392638	0.899863
	C200	C	0.085125	0.595474	0.395681
	C201	C	0.894685	0.594696	0.595115
	C202	C	0.086200	0.398154	0.596215
	C203	C	0.894411	0.397647	0.395517
	C204	C	0.891503	0.591449	0.093565
	C205	C	0.088268	0.399060	0.096436
	C206	C	0.088791	0.590079	0.897290
	C207	C	0.890646	0.399889	0.894214
	C208	C	0.090470	0.896905	0.588951
	C209	C	0.090533	0.097345	0.400457
	C210	C	0.892087	0.095158	0.589186
	C211	C	0.888347	0.895063	0.401173
	C212	C	0.585346	0.093323	0.896737
	C213	C	0.393729	0.092888	0.095073
	C214	C	0.584837	0.896200	0.095590
	C215	C	0.394545	0.895707	0.894803
	Zn216	Zn	0.490688	-0.005114	0.745629
	Zn217	Zn	0.490235	-0.004243	0.245580
	Zn218	Zn	0.740582	0.495080	-0.006194
	Zn219	Zn	0.238756	0.493593	-0.005042
	Zn220	Zn	-0.010439	0.744837	0.494823
	Zn221	Zn	-0.009399	0.247752	0.495380
	Zn222	Zn	-0.009629	0.496107	0.745474
	Zn223	Zn	-0.010829	0.496549	0.245412
	Zn224	Zn	0.489935	0.744652	-0.006399
	Zn225	Zn	0.488604	0.242948	-0.004936
	Zn226	Zn	0.738778	-0.004599	0.495556
	Zn227	Zn	0.241495	-0.003152	0.494461
	N228	N	0.404196	0.958170	0.673968
	N229	N	0.577414	0.031943	0.675367
	N230	N	0.576670	0.958905	0.316168
	N231	N	0.402717	0.032360	0.314908
	N232	N	0.668930	0.407781	0.957291
	N233	N	0.669212	0.580926	0.030518
	N234	N	0.310734	0.578790	0.957260
	N235	N	0.309283	0.405861	0.031087
	N236	N	0.951767	0.671579	0.411276
	N237	N	0.027259	0.673410	0.580622
	N238	N	0.953543	0.318644	0.581137
	N239	N	0.027553	0.320632	0.411548
	N240	N	0.953793	0.409700	0.674218
	N241	N	0.026194	0.584056	0.675729
	N242	N	0.953698	0.584792	0.314578
	N243	N	0.025826	0.409787	0.316269
	N244	N	0.402821	0.672777	0.957146
	N245	N	0.576307	0.673008	0.030556
	N246	N	0.574293	0.315143	0.956997
	N247	N	0.403625	0.315274	0.031963
	N248	N	0.665142	0.957830	0.411936
	N249	N	0.669164	0.032577	0.582606
	N250	N	0.313361	0.958371	0.579463
	N251	N	0.313509	0.034068	0.409545
	N252	N	0.902592	0.459337	0.174067
	N253	N	0.075415	0.532797	0.173750
	N254	N	0.077297	0.458779	0.815688
	N255	N	0.904048	0.532848	0.816061
	N256	N	0.168074	0.911530	0.457009
	N257	N	0.170739	0.083932	0.531693
	N258	N	0.811215	0.081289	0.458116
	N259	N	0.810024	0.908119	0.532480
	N260	N	0.451757	0.169717	0.911260
	N261	N	0.526182	0.171572	0.080273
	N262	N	0.452355	0.816849	0.079535
	N263	N	0.527013	0.817380	0.909001
	N264	N	0.453241	0.907619	0.174849
	N265	N	0.526329	0.081831	0.174216
	N266	N	0.454022	0.082203	0.815360
	N267	N	0.526551	0.908113	0.816190
	N268	N	0.904484	0.174822	0.458095
	N269	N	0.076349	0.175488	0.532563
	N270	N	0.075037	0.817768	0.457725
	N271	N	0.904497	0.817054	0.532793
	N272	N	0.164305	0.456084	0.912132
	N273	N	0.168768	0.531495	0.081713
	N274	N	0.814135	0.457488	0.077825
	N275	N	0.811408	0.532419	0.907830
	O276	O	0.477847	0.536313	0.595090
	H277	H	0.473305	0.545917	0.598951
	H278	H	0.476318	0.537168	0.607301
	O279	O	0.512242	0.546220	0.496658
	H280	H	0.498918	0.556386	0.490223
	H281	H	0.518059	0.544885	0.495965
	O282	O	1.005848	0.917551	0.003840
	H283	H	0.992080	0.915920	0.005221
	H284	H	1.005116	0.922900	0.009017
	O285	O	1.014129	0.022272	1.094962
	H286	H	1.009540	0.034060	1.095360
	H287	H	1.004463	0.025880	1.099942
	O288	O	0.523479	0.581312	0.608848
	H289	H	0.525590	0.597946	0.598033
	H290	H	0.537744	0.588120	0.612115
	O291	O	0.505966	0.371673	0.501215
	H292	H	0.500757	0.375939	0.512140
	H293	H	0.524007	0.375106	0.489750
	O294	O	0.395675	0.402634	0.602522
	H295	H	0.403069	0.395367	0.611022
	H296	H	0.402761	0.404951	0.607065
	O297	O	0.063826	-0.026179	0.907486
	H298	H	0.069184	-0.034604	0.900679
	H299	H	0.084086	-0.017193	0.904579
	O300	O	0.424951	0.520158	0.359720
	H301	H	0.415923	0.531063	0.354384
	H302	H	0.413131	0.511115	0.354318
	O303	O	0.919849	1.032611	-0.054723
	H304	H	0.912627	1.032423	-0.062330
	H305	H	0.912120	1.037076	-0.070684
	O306	O	0.012803	0.925676	1.008832
	H307	H	0.011740	0.924551	1.018780
	H308	H	0.021642	0.921674	1.009080
	O309	O	0.429467	0.460862	0.342618
	H310	H	0.426674	0.461497	0.332937
	H311	H	0.416252	0.459314	0.357542
	O312	O	0.013703	0.056133	0.019561
	H313	H	0.016306	0.060575	0.020783
	H314	H	0.002584	0.066974	0.019126
	O315	O	1.033143	-0.049901	0.047529
	H316	H	1.042675	-0.043513	0.046745
	H317	H	1.043469	-0.051772	0.052718
	O318	O	0.929986	1.077100	0.825776
	H319	H	0.925043	1.083312	0.804661
	H320	H	0.938291	1.071908	0.825251
	O321	O	-0.023433	-0.002280	0.998504
	H322	H	-0.017010	-0.000336	1.008320
	H323	H	-0.017973	-0.014913	0.997343
	O324	O	0.486185	0.599975	0.420151
	H325	H	0.474510	0.601738	0.415463
	H326	H	0.486890	0.596599	0.436931
	O327	O	-0.070005	0.032802	0.014735
	H328	H	-0.090644	0.035291	0.007944
	H329	H	-0.054519	0.035757	0.013924
	O330	O	0.617243	0.370882	0.404341
	H331	H	0.624599	0.365012	0.398583
	H332	H	0.620576	0.372076	0.396217
	O333	O	0.552613	0.557130	1.569111
	H334	H	0.558137	0.533305	1.554669
	H335	H	0.553685	0.552956	1.569079
	O336	O	-0.058677	-0.007426	0.030188
	H337	H	-0.073352	-0.009270	0.023141
	H338	H	-0.053731	-0.004091	0.031970
	O339	O	0.501611	0.537069	0.497356
	H340	H	0.483669	0.535545	0.485390
	H341	H	0.491642	0.541683	0.505893
	O342	O	1.008536	1.065593	0.971015
	H343	H	0.996774	1.064324	0.975507
	H344	H	1.018400	1.069251	0.969702
	O345	O	1.601800	1.363531	-0.549162
	H346	H	1.612685	1.366166	-0.553642
	H347	H	1.605135	1.370660	-0.545731
	O348	O	0.555146	0.611997	0.527542
	H349	H	0.537367	0.617183	0.533173
	H350	H	0.563628	0.621412	0.525343
	O351	O	1.095360	0.972120	1.042833
	H352	H	1.109961	0.979268	1.046881
	H353	H	1.084256	0.978883	1.037757
	O354	O	0.414314	0.477528	0.496368
	H355	H	0.420418	0.470773	0.490944
	H356	H	0.422966	0.474028	0.493528
	O357	O	0.923238	0.004378	1.046125
	H358	H	0.903950	0.000595	1.049957
	H359	H	0.917764	0.000443	1.041458
	O360	O	1.020667	-0.043371	-0.141544
	H361	H	1.034231	-0.044809	-0.139083
	H362	H	1.018136	-0.047412	-0.149016
	O363	O	0.506864	0.539544	0.586951
	H364	H	0.507308	0.549279	0.589381
	H365	H	0.505551	0.545780	0.575142
	O366	O	1.006297	0.988010	0.997269
	H367	H	1.009850	0.987459	1.000705
	H368	H	1.001152	0.991414	0.988054
	O369	O	0.457304	0.462318	1.509175
	H370	H	0.455687	0.459259	1.504575
	H371	H	0.467974	0.449999	1.514290
	O372	O	-0.125039	-0.083823	0.073007
	H373	H	-0.121096	-0.077314	0.076111
	H374	H	-0.125846	-0.101420	0.085523
	O375	O	1.432091	0.535460	0.420646
	H376	H	1.429764	0.543028	0.419389
	H377	H	1.425260	0.536269	0.427660
	O378	O	0.519307	0.515502	0.421707
	H379	H	0.515617	0.527526	0.435508
	H380	H	0.503989	0.514258	0.416680
	O381	O	0.457025	0.462405	0.475228
	H382	H	0.452968	0.453488	0.475913
	H383	H	0.461842	0.457112	0.467851
