data_Molecule from HDF5

_cell_length_a		16.492850
_cell_length_b		16.045809
_cell_length_c		16.217902
_cell_angle_alpha	89.431173
_cell_angle_beta	89.940514
_cell_angle_gamma	90.272259
_symmetry_space_group_name_H-M	'P 1'
_symmetry_Int_Tables_number		1

loop_
	_symmetry_equiv_pos_as_xyz
	x,y,z

loop_
	_atom_site_label
	_atom_site_type_symbol
	_atom_site_fract_x
	_atom_site_fract_y
	_atom_site_fract_z
	H0	H	0.407832	0.816936	0.722317
	H1	H	0.607767	0.147445	0.718464
	H2	H	0.606052	0.817112	0.295742
	H3	H	0.411146	0.147895	0.290447
	H4	H	0.731569	0.376326	0.848616
	H5	H	0.729234	0.585071	0.170543
	H6	H	0.290412	0.590031	0.846663
	H7	H	0.288662	0.373946	0.169368
	H8	H	0.847794	0.698361	0.407645
	H9	H	0.170604	0.700566	0.605746
	H10	H	0.849043	0.264122	0.608807
	H11	H	0.171947	0.267687	0.408031
	H12	H	0.851263	0.376940	0.729868
	H13	H	0.170771	0.586641	0.725471
	H14	H	0.850273	0.587307	0.288650
	H15	H	0.171243	0.384940	0.291547
	H16	H	0.413985	0.695667	0.843185
	H17	H	0.606021	0.693180	0.173714
	H18	H	0.606190	0.273638	0.842336
	H19	H	0.410635	0.264397	0.171296
	H20	H	0.724476	0.819125	0.404296
	H21	H	0.726841	0.145150	0.609640
	H22	H	0.292265	0.818196	0.609272
	H23	H	0.292825	0.147039	0.401069
	H24	H	0.910902	0.318154	0.225968
	H25	H	0.108026	0.649628	0.218498
	H26	H	0.110459	0.318783	0.795592
	H27	H	0.911565	0.647172	0.792408
	H28	H	0.227102	0.880488	0.344437
	H29	H	0.227964	0.084650	0.668449
	H30	H	0.790183	0.088441	0.344979
	H31	H	0.788524	0.874713	0.669013
	H32	H	0.347711	0.198583	0.907649
	H33	H	0.671197	0.199008	0.105930
	H34	H	0.346336	0.765424	0.106257
	H35	H	0.671667	0.769011	0.910833
	H36	H	0.348080	0.879081	0.225492
	H37	H	0.669741	0.084212	0.224172
	H38	H	0.347412	0.082669	0.790314
	H39	H	0.670000	0.882511	0.789374
	H40	H	0.912722	0.199035	0.343454
	H41	H	0.105574	0.192064	0.672230
	H42	H	0.102462	0.773459	0.341412
	H43	H	0.912031	0.768048	0.671702
	H44	H	0.226165	0.320779	0.906616
	H45	H	0.227850	0.646152	0.110845
	H46	H	0.791357	0.318545	0.116074
	H47	H	0.793331	0.645665	0.904589
	H48	H	0.418038	0.097260	0.585753
	H49	H	0.598895	0.863714	0.599535
	H50	H	0.606501	0.099983	0.421906
	H51	H	0.416647	0.868273	0.425588
	H52	H	0.595112	0.386907	0.124650
	H53	H	0.604784	0.573911	0.891683
	H54	H	0.417453	0.570732	0.123599
	H55	H	0.421388	0.389992	0.891724
	H56	H	0.121784	0.569924	0.418653
	H57	H	0.898092	0.571261	0.595148
	H58	H	0.122710	0.395695	0.598664
	H59	H	0.894850	0.391168	0.413896
	H60	H	0.127103	0.390106	0.609192
	H61	H	0.895994	0.567943	0.606429
	H62	H	0.126611	0.576396	0.405983
	H63	H	0.896827	0.389382	0.418872
	H64	H	0.415633	0.571514	0.125437
	H65	H	0.604352	0.572250	0.892912
	H66	H	0.607947	0.388305	0.127031
	H67	H	0.408865	0.390188	0.888723
	H68	H	0.602604	0.103659	0.407246
	H69	H	0.598102	0.865162	0.596046
	H70	H	0.407517	0.103927	0.600166
	H71	H	0.407110	0.861492	0.415434
	H72	H	0.917470	0.598917	0.094471
	H73	H	0.099331	0.366148	0.098559
	H74	H	0.099448	0.601353	0.913916
	H75	H	0.916103	0.361900	0.913550
	H76	H	0.098307	0.884531	0.624323
	H77	H	0.105270	0.083571	0.386035
	H78	H	0.922646	0.076710	0.623559
	H79	H	0.912579	0.884323	0.387048
	H80	H	0.624341	0.080120	0.915855
	H81	H	0.396307	0.070189	0.098831
	H82	H	0.622592	0.888119	0.097299
	H83	H	0.393250	0.889910	0.911945
	H84	H	0.622556	0.893238	0.102831
	H85	H	0.394538	0.073415	0.100050
	H86	H	0.622178	0.071356	0.911938
	H87	H	0.393517	0.886981	0.915146
	H88	H	0.906696	0.073647	0.627187
	H89	H	0.109100	0.067107	0.389783
	H90	H	0.110151	0.892600	0.625782
	H91	H	0.907785	0.899616	0.390337
	H92	H	0.100763	0.599908	0.920082
	H93	H	0.101596	0.364914	0.099829
	H94	H	0.914618	0.601519	0.097965
	H95	H	0.925784	0.367091	0.920987
	H96	H	0.425162	0.100124	0.603403
	H97	H	0.601256	0.862842	0.597643
	H98	H	0.592815	0.097569	0.417909
	H99	H	0.422052	0.864638	0.411721
	H100	H	0.600651	0.399110	0.122153
	H101	H	0.602476	0.573863	0.892160
	H102	H	0.415951	0.569026	0.124183
	H103	H	0.414453	0.400351	0.893519
	H104	H	0.124980	0.585876	0.418259
	H105	H	0.892954	0.579414	0.602839
	H106	H	0.126021	0.383535	0.599207
	H107	H	0.897483	0.394865	0.417934
	H108	H	0.919580	0.600032	0.099751
	H109	H	0.099497	0.365092	0.101828
	H110	H	0.105203	0.602871	0.916823
	H111	H	0.914118	0.365074	0.926854
	H112	H	0.098135	0.898646	0.619482
	H113	H	0.093933	0.072646	0.393396
	H114	H	0.915760	0.061200	0.620262
	H115	H	0.921980	0.894678	0.394496
	H116	H	0.626349	0.079391	0.906221
	H117	H	0.396424	0.073062	0.096126
	H118	H	0.625670	0.885440	0.104182
	H119	H	0.395606	0.891091	0.915643
	C120	C	0.387194	-0.008400	0.627290
	C121	C	0.629353	0.972913	0.627324
	C122	C	0.629251	-0.008549	0.386617
	C123	C	0.386790	0.973910	0.385740
	C124	C	0.630652	0.361717	0.016985
	C125	C	0.632458	0.603418	1.000180
	C126	C	0.387674	0.602571	0.016599
	C127	C	0.385989	0.360937	0.999003
	C128	C	0.018114	0.606434	0.384941
	C129	C	1.001476	0.604488	0.630390
	C130	C	0.019016	0.359076	0.632023
	C131	C	1.002502	0.362103	0.386709
	C132	C	0.887897	0.491289	0.129922
	C133	C	0.130282	0.474421	0.129060
	C134	C	0.131141	0.492480	0.887799
	C135	C	0.889454	0.473272	0.888507
	C136	C	0.130484	0.862131	0.515129
	C137	C	0.131379	0.103306	0.497955
	C138	C	0.886698	0.103015	0.516011
	C139	C	0.885594	0.861102	0.498572
	C140	C	0.517445	0.105668	0.883017
	C141	C	0.501527	0.103333	0.128104
	C142	C	0.517081	0.858568	0.130945
	C143	C	0.501087	0.860533	0.885674
	C144	C	0.388262	0.866788	0.684365
	C145	C	0.628395	0.097364	0.682211
	C146	C	0.626760	0.866887	0.332217
	C147	C	0.389891	0.098140	0.328057
	C148	C	0.690352	0.359574	0.895780
	C149	C	0.689286	0.603198	0.122351
	C150	C	0.330331	0.606351	0.894908
	C151	C	0.328484	0.357126	0.120950
	C152	C	0.896566	0.661444	0.386844
	C153	C	0.122545	0.662248	0.627096
	C154	C	0.897793	0.302066	0.629841
	C155	C	0.123599	0.306064	0.388069
	C156	C	0.898834	0.358433	0.689717
	C157	C	0.122496	0.605585	0.686692
	C158	C	0.897818	0.606193	0.327544
	C159	C	0.123169	0.364265	0.329860
	C160	C	0.391832	0.659092	0.892814
	C161	C	0.628161	0.657482	0.123766
	C162	C	0.627959	0.308391	0.892713
	C163	C	0.389107	0.302361	0.122068
	C164	C	0.685537	0.867956	0.386416
	C165	C	0.687307	0.096393	0.627554
	C166	C	0.330782	0.867387	0.627912
	C167	C	0.331117	0.097680	0.383363
	C168	C	0.889993	0.367492	0.188140
	C169	C	0.128940	0.599366	0.182807
	C170	C	0.130028	0.368446	0.832817
	C171	C	0.891113	0.597359	0.830478
	C172	C	0.187327	0.862076	0.392687
	C173	C	0.188536	0.103034	0.620305
	C174	C	0.830184	0.105552	0.393222
	C175	C	0.828524	0.858144	0.620615
	C176	C	0.395943	0.160869	0.886453
	C177	C	0.622832	0.160454	0.125878
	C178	C	0.395163	0.802584	0.127926
	C179	C	0.623106	0.806276	0.889092
	C180	C	0.396012	0.859335	0.187014
	C181	C	0.622099	0.103296	0.184826
	C182	C	0.395965	0.103067	0.828158
	C183	C	0.622154	0.862882	0.828890
	C184	C	0.890774	0.160802	0.392415
	C185	C	0.127538	0.156184	0.622444
	C186	C	0.125775	0.808637	0.391209
	C187	C	0.889750	0.804734	0.622137
	C188	C	0.187763	0.369490	0.887961
	C189	C	0.188289	0.597586	0.128951
	C190	C	0.830879	0.367459	0.133136
	C191	C	0.832283	0.596726	0.886293
	C192	C	0.410160	0.077896	0.603319
	C193	C	0.606072	0.886468	0.604411
	C194	C	0.607073	0.077985	0.409112
	C195	C	0.408898	0.887337	0.410398
	C196	C	0.607772	0.384706	0.102336
	C197	C	0.610401	0.580139	0.914200
	C198	C	0.409959	0.577625	0.102294
	C199	C	0.408245	0.386226	0.913699
	C200	C	0.102563	0.583872	0.407645
	C201	C	0.917452	0.580029	0.608067
	C202	C	0.103337	0.382893	0.608946
	C203	C	0.918292	0.385064	0.410154
	C204	C	0.910541	0.577694	0.104803
	C205	C	0.106926	0.387967	0.106567
	C206	C	0.108443	0.579023	0.910293
	C207	C	0.911886	0.387121	0.913357
	C208	C	0.108644	0.885123	0.600984
	C209	C	0.109210	0.080993	0.412100
	C210	C	0.908554	0.077970	0.601536
	C211	C	0.907747	0.885696	0.412931
	C212	C	0.602354	0.083555	0.904953
	C213	C	0.417544	0.079297	0.105119
	C214	C	0.601576	0.882082	0.108098
	C215	C	0.416214	0.882728	0.907873
	Zn216	Zn	0.508442	-0.017795	0.754485
	Zn217	Zn	0.509011	-0.017848	0.259173
	Zn218	Zn	0.760444	0.480931	0.009004
	Zn219	Zn	0.257938	0.483195	0.008579
	Zn220	Zn	0.008352	0.733972	0.506889
	Zn221	Zn	0.010500	0.230807	0.508079
	Zn222	Zn	0.011044	0.482360	0.760771
	Zn223	Zn	0.010084	0.484637	0.256192
	Zn224	Zn	0.509192	0.730260	0.007980
	Zn225	Zn	0.509773	0.234474	0.006483
	Zn226	Zn	0.756769	-0.018113	0.506950
	Zn227	Zn	0.259778	-0.016784	0.506412
	N228	N	0.422786	0.944995	0.684163
	N229	N	0.592867	0.019650	0.682151
	N230	N	0.592308	0.944690	0.332149
	N231	N	0.423672	0.019980	0.329177
	N232	N	0.692208	0.392208	0.973988
	N233	N	0.692037	0.570492	0.044275
	N234	N	0.327901	0.571693	0.972862
	N235	N	0.326214	0.392571	0.043526
	N236	N	0.972403	0.661878	0.421760
	N237	N	0.046277	0.661820	0.592668
	N238	N	0.973700	0.302081	0.594837
	N239	N	0.047510	0.304757	0.422699
	N240	N	0.975258	0.393213	0.691137
	N241	N	0.046337	0.570571	0.688964
	N242	N	0.974411	0.572582	0.326288
	N243	N	0.046679	0.398360	0.328825
	N244	N	0.426820	0.656933	0.969657
	N245	N	0.593560	0.657712	0.046631
	N246	N	0.591403	0.309702	0.969020
	N247	N	0.424084	0.304264	0.045010
	N248	N	0.687411	0.946459	0.419318
	N249	N	0.688045	0.017942	0.594337
	N250	N	0.329862	0.945802	0.593106
	N251	N	0.329224	0.019412	0.418589
	N252	N	0.925002	0.445373	0.185984
	N253	N	0.093356	0.521630	0.182939
	N254	N	0.095505	0.446200	0.832604
	N255	N	0.925547	0.519635	0.831557
	N256	N	0.190400	0.894644	0.470829
	N257	N	0.191026	0.071064	0.541876
	N258	N	0.827423	0.070505	0.471014
	N259	N	0.825661	0.892275	0.542611
	N260	N	0.472578	0.162822	0.919667
	N261	N	0.546875	0.160667	0.091354
	N262	N	0.471469	0.801882	0.093655
	N263	N	0.546907	0.804842	0.923548
	N264	N	0.472865	0.893102	0.189266
	N265	N	0.545826	0.068260	0.186178
	N266	N	0.472650	0.069960	0.825591
	N267	N	0.545056	0.895680	0.826586
	N268	N	0.925336	0.159303	0.469610
	N269	N	0.092781	0.156580	0.545427
	N270	N	0.091430	0.808266	0.468392
	N271	N	0.924723	0.806499	0.545198
	N272	N	0.188481	0.447740	0.921459
	N273	N	0.189455	0.518779	0.096479
	N274	N	0.829545	0.445421	0.097501
	N275	N	0.830938	0.518413	0.921702
	O276	O	0.630269	0.353382	0.366183
	H277	H	0.618727	0.365381	0.384035
	H278	H	0.626977	0.338871	0.369875
	O279	O	0.477112	0.319091	0.577857
	H280	H	0.479494	0.337338	0.585431
	H281	H	0.475029	0.314103	0.577332
	O282	O	0.934888	-0.023670	-0.010287
	H283	H	0.931282	-0.029528	-0.018140
	H284	H	0.936770	-0.015920	-0.011504
	O285	O	-0.028312	1.060757	-0.138664
	H286	H	-0.030074	1.055253	-0.136301
	H287	H	-0.021500	1.058409	-0.143867
	O288	O	0.646581	0.365204	0.518073
	H289	H	0.654218	0.353753	0.523402
	H290	H	0.638745	0.369926	0.502169
	O291	O	0.676078	0.606587	0.535693
	H292	H	0.673043	0.602345	0.552804
	H293	H	0.685212	0.621533	0.533292
	O294	O	0.844723	0.952840	0.980006
	H295	H	0.849066	0.956887	0.982496
	H296	H	0.831680	0.940406	0.984623
	O297	O	0.028029	-0.056319	-0.060958
	H298	H	0.036457	-0.067839	-0.064431
	H299	H	0.025320	-0.055081	-0.062721
	O300	O	0.994334	0.086877	0.062971
	H301	H	1.003625	0.095722	0.062219
	H302	H	0.995648	0.091030	0.078750
	O303	O	0.008579	1.029024	1.027357
	H304	H	0.004725	1.037727	1.043396
	H305	H	0.007368	1.020764	1.028691
	O306	O	0.635148	0.539232	0.397293
	H307	H	0.631898	0.535815	0.388164
	H308	H	0.637153	0.546588	0.409787
	O309	O	1.041641	0.164294	0.047106
	H310	H	1.048018	0.174768	0.049586
	H311	H	1.047796	0.164673	0.049657
	O312	O	0.111442	-0.058031	0.987492
	H313	H	0.103241	-0.055062	0.991141
	H314	H	0.107579	-0.057822	0.974923
	O315	O	0.017875	0.838007	0.099039
	H316	H	0.011448	0.848210	0.099653
	H317	H	0.031129	0.843317	0.096911
	O318	O	0.489635	0.612120	0.487535
	H319	H	0.485233	0.606060	0.465944
	H320	H	0.493471	0.597467	0.495592
	O321	O	1.014586	0.059660	-0.033252
	H322	H	1.005223	0.047238	-0.028589
	H323	H	1.016516	0.061272	-0.039909
	O324	O	0.006726	1.063526	-0.038731
	H325	H	0.010310	1.081306	-0.041049
	H326	H	0.007116	1.058379	-0.038816
	O327	O	-0.647164	1.421862	0.594283
	H328	H	-0.641214	1.417225	0.580407
	H329	H	-0.646174	1.417337	0.590705
	O330	O	0.399646	0.468085	0.463404
	H331	H	0.402674	0.475540	0.444608
	H332	H	0.410305	0.459835	0.478113
	O333	O	0.149433	0.975869	0.970266
	H334	H	0.146877	0.982985	0.955105
	H335	H	0.164410	0.970867	0.963139
	O336	O	0.944301	0.904316	0.931245
	H337	H	0.947531	0.906296	0.938373
	H338	H	0.941510	0.908180	0.933609
	O339	O	0.436920	0.427883	-0.450892
	H340	H	0.440633	0.427160	-0.449772
	H341	H	0.445160	0.421637	-0.452437
	O342	O	0.926136	0.062757	0.019013
	H343	H	0.922245	0.066575	0.016599
	H344	H	0.924978	0.051253	0.015206
	O345	O	0.373846	0.446528	0.641153
	H346	H	0.386984	0.458271	0.632966
	H347	H	0.374653	0.446515	0.636168
	O348	O	0.936454	1.989782	1.032122
	H349	H	0.942581	2.003982	1.034722
	H350	H	0.932643	1.981896	1.036683
	O351	O	0.043512	0.983295	0.094542
	H352	H	0.052165	0.979295	0.101042
	H353	H	0.043247	0.974998	0.095659
	O354	O	-0.054479	0.871085	0.984151
	H355	H	-0.061558	0.862138	0.983559
	H356	H	-0.042284	0.875814	0.977026
	O357	O	0.426699	0.587384	0.505686
	H358	H	0.416976	0.579391	0.497689
	H359	H	0.438694	0.591247	0.509698
	O360	O	-0.003888	-0.039435	0.091276
	H361	H	-0.007879	-0.029216	0.104802
	H362	H	-0.001732	-0.036199	0.078279
	O363	O	0.448094	0.602900	0.489597
	H364	H	0.460912	0.585785	0.493794
	H365	H	0.456749	0.614633	0.479469
	O366	O	0.392340	0.444929	0.387439
	H367	H	0.386118	0.451052	0.391652
	H368	H	0.393240	0.454161	0.383811
	O369	O	0.533459	0.634917	0.575685
	H370	H	0.530679	0.631901	0.578861
	H371	H	0.520527	0.635855	0.578534
	O372	O	0.618361	0.438498	0.360396
	H373	H	0.621491	0.433916	0.353240
	H374	H	0.615697	0.433701	0.363551
	O375	O	0.474420	0.541164	0.369963
	H376	H	0.468107	0.556222	0.361583
	H377	H	0.473145	0.541519	0.370380
	O378	O	0.470230	0.507187	0.497617
	H379	H	0.477413	0.515566	0.497592
	H380	H	0.466229	0.517212	0.508305
	O381	O	0.480784	0.352867	0.626332
	H382	H	0.487703	0.356200	0.629706
	H383	H	0.488200	0.352576	0.636790
	O384	O	0.125064	1.023089	0.022300
	H385	H	0.127346	1.005358	0.019675
	H386	H	0.122389	1.035985	0.011477
	O387	O	0.506550	0.578235	1.571595
	H388	H	0.507611	0.579686	1.592137
	H389	H	0.497324	0.588485	1.575478
	O390	O	-0.042559	0.889479	0.106806
	H391	H	-0.040233	0.891750	0.103211
	H392	H	-0.046938	0.873429	0.105467
	O393	O	0.505764	0.436146	-0.345789
	H394	H	0.492400	0.436507	-0.344119
	H395	H	0.517913	0.444816	-0.347443
	O396	O	0.497473	0.341822	0.553034
	H397	H	0.494368	0.350164	0.558224
	H398	H	0.488719	0.340708	0.563284
	O399	O	0.677911	1.520158	1.577364
	H400	H	0.671910	1.531357	1.570772
	H401	H	0.680111	1.512168	1.563311
	O402	O	1.015932	0.957396	1.012932
	H403	H	1.014404	0.954436	1.016715
	H404	H	1.012838	0.958016	1.024446
	O405	O	0.683161	0.438260	0.453610
	H406	H	0.677236	0.419185	0.460882
	H407	H	0.692409	0.429931	0.434833
