data_Molecule from HDF5

_cell_length_a		16.360901
_cell_length_b		16.528332
_cell_length_c		16.513509
_cell_angle_alpha	90.029933
_cell_angle_beta	89.970706
_cell_angle_gamma	89.901134
_symmetry_space_group_name_H-M	'P 1'
_symmetry_Int_Tables_number		1

loop_
	_symmetry_equiv_pos_as_xyz
	x,y,z

loop_
	_atom_site_label
	_atom_site_type_symbol
	_atom_site_fract_x
	_atom_site_fract_y
	_atom_site_fract_z
	H0	H	0.392394	0.849619	0.712410
	H1	H	0.611101	0.159506	0.715539
	H2	H	0.606223	0.848212	0.267300
	H3	H	0.389480	0.161017	0.263088
	H4	H	0.724960	0.394098	0.831561
	H5	H	0.719528	0.605822	0.145528
	H6	H	0.277188	0.609557	0.831282
	H7	H	0.278628	0.400370	0.146074
	H8	H	0.841632	0.723776	0.385957
	H9	H	0.156894	0.726968	0.597402
	H10	H	0.843345	0.278383	0.600949
	H11	H	0.157627	0.279244	0.381846
	H12	H	0.843374	0.393168	0.715990
	H13	H	0.157766	0.609017	0.712039
	H14	H	0.841958	0.608341	0.268987
	H15	H	0.156986	0.392807	0.263647
	H16	H	0.390832	0.729223	0.832558
	H17	H	0.603392	0.723136	0.145601
	H18	H	0.609972	0.277719	0.832101
	H19	H	0.390124	0.280165	0.143840
	H20	H	0.721434	0.847583	0.384349
	H21	H	0.723488	0.161321	0.596204
	H22	H	0.279042	0.847880	0.592035
	H23	H	0.274610	0.161939	0.380357
	H24	H	0.893173	0.346553	0.212144
	H25	H	0.103665	0.659956	0.209897
	H26	H	0.113031	0.348380	0.761667
	H27	H	0.894940	0.660684	0.767551
	H28	H	0.218114	0.903254	0.331013
	H29	H	0.225534	0.112133	0.645402
	H30	H	0.781005	0.108250	0.331711
	H31	H	0.776567	0.897440	0.645880
	H32	H	0.342527	0.229042	0.878206
	H33	H	0.658155	0.225651	0.093103
	H34	H	0.340938	0.785632	0.091854
	H35	H	0.658544	0.782378	0.882061
	H36	H	0.341051	0.903073	0.207433
	H37	H	0.658303	0.109567	0.208874
	H38	H	0.342677	0.112751	0.763818
	H39	H	0.657972	0.895795	0.765419
	H40	H	0.892156	0.228715	0.334776
	H41	H	0.112065	0.230790	0.645179
	H42	H	0.105676	0.782322	0.333228
	H43	H	0.891643	0.779812	0.646048
	H44	H	0.225263	0.347236	0.880639
	H45	H	0.216594	0.662554	0.090136
	H46	H	0.779785	0.344572	0.092114
	H47	H	0.778499	0.659907	0.883740
	H48	H	0.419660	0.115276	0.577654
	H49	H	0.588717	0.893526	0.576374
	H50	H	0.590760	0.119244	0.397420
	H51	H	0.410068	0.891884	0.393831
	H52	H	0.587209	0.418378	0.098135
	H53	H	0.586075	0.594418	0.875277
	H54	H	0.410710	0.592721	0.100247
	H55	H	0.415939	0.414822	0.876668
	H56	H	0.115631	0.593304	0.397825
	H57	H	0.890055	0.582523	0.577355
	H58	H	0.111684	0.415993	0.573446
	H59	H	0.888591	0.414266	0.405318
	H60	H	0.109975	0.419553	0.574598
	H61	H	0.882769	0.594752	0.585105
	H62	H	0.114269	0.594003	0.402014
	H63	H	0.890359	0.420415	0.403279
	H64	H	0.411034	0.598482	0.101683
	H65	H	0.590673	0.594270	0.873836
	H66	H	0.584778	0.412659	0.098602
	H67	H	0.411311	0.416513	0.875453
	H68	H	0.586125	0.116850	0.399387
	H69	H	0.587295	0.893246	0.577631
	H70	H	0.412399	0.114268	0.570487
	H71	H	0.415065	0.895083	0.399156
	H72	H	0.904158	0.616503	0.075773
	H73	H	0.091766	0.390512	0.074285
	H74	H	0.087255	0.617705	0.892414
	H75	H	0.919519	0.393308	0.900881
	H76	H	0.087766	0.914639	0.602911
	H77	H	0.083721	0.090019	0.379957
	H78	H	0.913182	0.097457	0.604109
	H79	H	0.911436	0.912871	0.376620
	H80	H	0.609397	0.091259	0.908077
	H81	H	0.386711	0.091939	0.078465
	H82	H	0.614741	0.920542	0.084251
	H83	H	0.387717	0.914787	0.903977
	H84	H	0.619420	0.904644	0.082483
	H85	H	0.385015	0.095159	0.077599
	H86	H	0.609868	0.084917	0.901648
	H87	H	0.388266	0.920097	0.900924
	H88	H	0.908577	0.087732	0.602325
	H89	H	0.084614	0.095941	0.377539
	H90	H	0.090103	0.913060	0.603571
	H91	H	0.911815	0.914202	0.377760
	H92	H	0.081671	0.611639	0.902796
	H93	H	0.089565	0.388835	0.081216
	H94	H	0.909736	0.618367	0.085710
	H95	H	0.911748	0.392224	0.906218
	H96	H	0.410383	0.118356	0.579424
	H97	H	0.587390	0.893754	0.575906
	H98	H	0.590603	0.117381	0.402319
	H99	H	0.407726	0.893317	0.401275
	H100	H	0.590717	0.414065	0.101077
	H101	H	0.588401	0.590282	0.875192
	H102	H	0.405985	0.595296	0.103171
	H103	H	0.414368	0.419235	0.877401
	H104	H	0.113227	0.590488	0.399775
	H105	H	0.887377	0.597024	0.569748
	H106	H	0.112533	0.417532	0.577123
	H107	H	0.886735	0.416547	0.399490
	H108	H	0.915411	0.612859	0.077537
	H109	H	0.084458	0.392107	0.076086
	H110	H	0.093900	0.615822	0.903007
	H111	H	0.912043	0.389190	0.897015
	H112	H	0.090249	0.915976	0.603243
	H113	H	0.089409	0.091996	0.377870
	H114	H	0.919005	0.089226	0.598815
	H115	H	0.913075	0.913515	0.376873
	H116	H	0.614058	0.093362	0.900161
	H117	H	0.387216	0.093304	0.074870
	H118	H	0.612194	0.913150	0.069850
	H119	H	0.386324	0.914990	0.898264
	C120	C	0.379748	0.013320	0.609289
	C121	C	0.622139	0.996240	0.610782
	C122	C	0.621582	0.014037	0.367600
	C123	C	0.377565	0.996902	0.365799
	C124	C	0.621379	0.381494	-0.004012
	C125	C	0.620420	0.624129	0.979061
	C126	C	0.377049	0.627138	-0.002602
	C127	C	0.379187	0.383662	0.979914
	C128	C	0.009423	0.624767	0.368075
	C129	C	0.991174	0.624082	0.610601
	C130	C	0.008158	0.382619	0.610882
	C131	C	0.992372	0.382761	0.369046
	C132	C	0.877664	0.511738	0.111351
	C133	C	0.120489	0.494557	0.109345
	C134	C	0.122240	0.511879	0.866071
	C135	C	0.880292	0.494968	0.867821
	C136	C	0.121066	0.883179	0.498598
	C137	C	0.121506	0.126387	0.481416
	C138	C	0.879489	0.125497	0.498761
	C139	C	0.878561	0.881354	0.481008
	C140	C	0.507774	0.124795	0.867559
	C141	C	0.490891	0.126264	0.109688
	C142	C	0.509328	0.882854	0.110166
	C143	C	0.491832	0.883445	0.867736
	C144	C	0.375242	0.895761	0.670920
	C145	C	0.627446	0.112995	0.673780
	C146	C	0.624344	0.895641	0.307382
	C147	C	0.372813	0.114137	0.303918
	C148	C	0.684000	0.377042	0.878522
	C149	C	0.679832	0.624987	0.098219
	C150	C	0.316786	0.628765	0.878778
	C151	C	0.318227	0.381201	0.098319
	C152	C	0.889523	0.684282	0.366827
	C153	C	0.110025	0.685533	0.614869
	C154	C	0.890552	0.319405	0.617220
	C155	C	0.110467	0.320259	0.364443
	C156	C	0.890831	0.376632	0.674988
	C157	C	0.110392	0.627018	0.671641
	C158	C	0.889704	0.626805	0.308776
	C159	C	0.110200	0.376782	0.305572
	C160	C	0.373450	0.688086	0.879379
	C161	C	0.622172	0.683335	0.098209
	C162	C	0.626582	0.318942	0.878974
	C163	C	0.373830	0.321283	0.097185
	C164	C	0.681781	0.895230	0.365689
	C165	C	0.683721	0.113875	0.614192
	C166	C	0.318817	0.895138	0.611374
	C167	C	0.315327	0.114431	0.362435
	C168	C	0.875043	0.393394	0.171704
	C169	C	0.122079	0.613033	0.169549
	C170	C	0.128516	0.394840	0.803636
	C171	C	0.876520	0.613053	0.807340
	C172	C	0.179573	0.882973	0.378935
	C173	C	0.184567	0.130061	0.598695
	C174	C	0.819856	0.127741	0.379831
	C175	C	0.817309	0.879404	0.598937
	C176	C	0.389765	0.187594	0.861962
	C177	C	0.610442	0.185958	0.111595
	C178	C	0.388981	0.825028	0.110674
	C179	C	0.610812	0.822281	0.864178
	C180	C	0.388873	0.883388	0.168120
	C181	C	0.610655	0.128090	0.169095
	C182	C	0.390074	0.129922	0.804448
	C183	C	0.610487	0.879456	0.806335
	C184	C	0.874926	0.187899	0.381392
	C185	C	0.127760	0.188932	0.598571
	C186	C	0.123428	0.823092	0.380022
	C187	C	0.874653	0.820783	0.598996
	C188	C	0.184816	0.394299	0.862759
	C189	C	0.178147	0.614174	0.109842
	C190	C	0.818567	0.392634	0.112210
	C191	C	0.818649	0.612844	0.865320
	C192	C	0.406421	0.094775	0.583359
	C193	C	0.595455	0.914682	0.584294
	C194	C	0.596316	0.096377	0.392524
	C195	C	0.403567	0.914794	0.391075
	C196	C	0.594975	0.407490	0.078028
	C197	C	0.595544	0.600014	0.896407
	C198	C	0.402202	0.602534	0.080015
	C199	C	0.406005	0.409541	0.898071
	C200	C	0.092817	0.599730	0.392831
	C201	C	0.908410	0.598719	0.584808
	C202	C	0.090008	0.409995	0.582997
	C203	C	0.910174	0.409456	0.395313
	C204	C	0.902677	0.594383	0.086935
	C205	C	0.095769	0.411963	0.084302
	C206	C	0.095263	0.593683	0.891847
	C207	C	0.906705	0.413016	0.893678
	C208	C	0.096437	0.907568	0.581592
	C209	C	0.093901	0.100210	0.399838
	C210	C	0.906019	0.099150	0.580301
	C211	C	0.904722	0.906271	0.398530
	C212	C	0.589869	0.097466	0.895275
	C213	C	0.407815	0.100846	0.084348
	C214	C	0.593383	0.906284	0.086074
	C215	C	0.408946	0.909337	0.893761
	Zn216	Zn	0.500525	0.004199	0.739251
	Zn217	Zn	0.500364	0.005545	0.237901
	Zn218	Zn	0.749868	0.502429	-0.012206
	Zn219	Zn	0.249886	0.503586	-0.011741
	Zn220	Zn	0.000524	0.752732	0.489756
	Zn221	Zn	0.000027	0.254464	0.490218
	Zn222	Zn	0.000293	0.503223	0.738374
	Zn223	Zn	0.000198	0.502557	0.239462
	Zn224	Zn	0.500265	0.754395	-0.011992
	Zn225	Zn	0.499539	0.253865	-0.012316
	Zn226	Zn	0.750792	0.004825	0.488990
	Zn227	Zn	0.249944	0.005134	0.488818
	N228	N	0.412142	0.970324	0.670039
	N229	N	0.589906	0.038733	0.671844
	N230	N	0.587703	0.970473	0.308187
	N231	N	0.410986	0.040105	0.305944
	N232	N	0.680883	0.415196	0.952399
	N233	N	0.679223	0.589081	0.023176
	N234	N	0.318874	0.591714	0.953066
	N235	N	0.321459	0.418991	0.024368
	N236	N	0.965128	0.683085	0.403056
	N237	N	0.035030	0.683847	0.577480
	N238	N	0.964713	0.322850	0.578170
	N239	N	0.036328	0.324070	0.403526
	N240	N	0.965108	0.415094	0.671082
	N241	N	0.035541	0.589706	0.669031
	N242	N	0.965387	0.590545	0.309318
	N243	N	0.035723	0.415221	0.308456
	N244	N	0.410084	0.687500	0.954277
	N245	N	0.586006	0.682910	0.023178
	N246	N	0.588458	0.321429	0.953182
	N247	N	0.410861	0.322431	0.022416
	N248	N	0.680447	0.969840	0.402286
	N249	N	0.680646	0.040123	0.575928
	N250	N	0.321473	0.969162	0.573947
	N251	N	0.318507	0.040636	0.400566
	N252	N	0.910654	0.468639	0.171633
	N253	N	0.087344	0.537445	0.169633
	N254	N	0.090609	0.468971	0.805404
	N255	N	0.913891	0.538670	0.808858
	N256	N	0.178338	0.919462	0.453781
	N257	N	0.180876	0.092169	0.524712
	N258	N	0.822282	0.089891	0.453769
	N259	N	0.819566	0.916470	0.524520
	N260	N	0.464198	0.184373	0.900597
	N261	N	0.534703	0.185102	0.075748
	N262	N	0.465110	0.824396	0.075549
	N263	N	0.535986	0.824726	0.902032
	N264	N	0.464983	0.918417	0.167890
	N265	N	0.535150	0.091756	0.167939
	N266	N	0.464578	0.091583	0.807984
	N267	N	0.535370	0.916576	0.808302
	N268	N	0.911259	0.186684	0.456468
	N269	N	0.089274	0.186772	0.524606
	N270	N	0.088219	0.822804	0.455515
	N271	N	0.912488	0.822335	0.524738
	N272	N	0.181039	0.468116	0.901052
	N273	N	0.177218	0.539510	0.073150
	N274	N	0.819782	0.467262	0.075507
	N275	N	0.820774	0.538208	0.902084
	O276	O	1.175340	1.026836	0.177611
	H277	H	1.189907	1.022401	0.177687
	H278	H	1.172244	1.015134	0.167963
	O279	O	0.184002	-0.188111	0.185497
	H280	H	0.170406	-0.173672	0.170649
	H281	H	0.167973	-0.170732	0.176473
	O282	O	0.926127	0.864158	-0.132356
	H283	H	0.918248	0.868643	-0.131961
	H284	H	0.923365	0.866336	-0.127715
	O285	O	0.646392	0.645820	0.495188
	H286	H	0.639252	0.638657	0.484215
	H287	H	0.637604	0.632668	0.493169
	O288	O	-0.309935	0.690741	-0.322288
	H289	H	-0.325240	0.687647	-0.340150
	H290	H	-0.308593	0.689939	-0.345027
	O291	O	1.281373	0.600877	0.521071
	H292	H	1.280069	0.599821	0.530954
	H293	H	1.272321	0.615099	0.534340
	O294	O	-0.061284	1.219815	0.010029
	H295	H	-0.075585	1.216508	0.007263
	H296	H	-0.052870	1.216169	0.002115
	O297	O	0.203390	0.008834	-0.010320
	H298	H	0.190967	0.002541	-0.017936
	H299	H	0.210161	0.017495	-0.022669
	O300	O	0.398755	0.460646	0.373066
	H301	H	0.401076	0.465849	0.393629
	H302	H	0.395455	0.459804	0.377188
	O303	O	0.296874	0.692352	0.290711
	H304	H	0.282150	0.716413	0.261620
	H305	H	0.290940	0.658432	0.293658
	O306	O	0.534918	0.387606	0.639787
	H307	H	0.535285	0.391829	0.631508
	H308	H	0.547272	0.380113	0.627751
	O309	O	0.686454	0.307235	0.297003
	H310	H	0.654519	0.310393	0.289693
	H311	H	0.680278	0.313350	0.317875
	O312	O	0.468928	0.728738	0.269529
	H313	H	0.450280	0.732363	0.264506
	H314	H	0.459120	0.742693	0.246957
	O315	O	0.542669	-0.482546	1.310979
	H316	H	0.544960	-0.464568	1.314094
	H317	H	0.525401	-0.469117	1.318883
	O318	O	0.208000	0.893251	0.021243
	H319	H	0.219239	0.864342	0.006080
	H320	H	0.207625	0.907257	0.005698
	O321	O	0.504542	0.353259	-0.300332
	H322	H	0.523226	0.355701	-0.301182
	H323	H	0.495178	0.320794	-0.296602
	O324	O	1.028808	-0.192981	0.782867
	H325	H	1.006223	-0.189878	0.779209
	H326	H	1.024661	-0.193541	0.772981
	O327	O	0.677992	0.395715	1.584311
	H328	H	0.680831	0.410838	1.572458
	H329	H	0.684625	0.410048	1.580085
	O330	O	0.638018	0.506063	0.444526
	H331	H	0.644768	0.500876	0.432368
	H332	H	0.628869	0.480753	0.447473
	O333	O	1.498875	0.611027	1.597793
	H334	H	1.507963	0.611889	1.578710
	H335	H	1.506956	0.622985	1.600051
	O336	O	0.676236	0.696035	0.385400
	H337	H	0.665470	0.691156	0.392874
	H338	H	0.667180	0.686736	0.394814
	O339	O	-0.028281	0.013369	0.933425
	H340	H	-0.031522	0.016806	0.939980
	H341	H	-0.034816	0.012038	0.918176
	O342	O	-0.019444	1.218113	0.771734
	H343	H	0.005187	1.231353	0.788815
	H344	H	-0.011263	1.238413	0.751167
	O345	O	-0.062844	-0.122364	-0.164247
	H346	H	-0.074125	-0.121067	-0.165069
	H347	H	-0.046475	-0.106095	-0.152698
	O348	O	0.861024	0.084390	1.053938
	H349	H	0.853672	0.068391	1.066648
	H350	H	0.858068	0.075193	1.052114
	O351	O	0.738565	0.605585	0.198820
	H352	H	0.750515	0.594040	0.178715
	H353	H	0.730965	0.576958	0.193017
	O354	O	0.299296	0.302057	0.567939
	H355	H	0.319712	0.295496	0.583338
	H356	H	0.282025	0.288668	0.547688
	O357	O	1.297669	1.389595	0.449655
	H358	H	1.313161	1.376955	0.446960
	H359	H	1.290587	1.392082	0.440347
	O360	O	0.517789	0.714507	0.700323
	H361	H	0.531666	0.712015	0.706031
	H362	H	0.510375	0.725285	0.710734
	O363	O	0.495734	0.519731	0.496692
	H364	H	0.501979	0.522590	0.501515
	H365	H	0.487628	0.515149	0.510983
	O366	O	1.076080	0.168099	0.941263
	H367	H	1.082685	0.159161	0.951748
	H368	H	1.098654	0.168388	0.958708
	O369	O	0.978848	1.019163	1.209612
	H370	H	0.984227	1.035782	1.199729
	H371	H	0.962591	1.015540	1.211544
	O372	O	0.021654	-0.059497	1.032588
	H373	H	0.019523	-0.072695	1.026012
	H374	H	0.004305	-0.054149	1.023706
	O375	O	-0.214630	1.022226	0.770613
	H376	H	-0.196708	1.068670	0.781385
	H377	H	-0.251143	1.033059	0.736503
	O378	O	0.520424	0.583993	0.345004
	H379	H	0.499678	0.589267	0.349149
	H380	H	0.515233	0.598832	0.340408
	O381	O	1.532986	-0.475357	0.638656
	H382	H	1.549295	-0.481598	0.662591
	H383	H	1.522227	-0.468572	0.628068
	O384	O	0.716311	-0.712443	1.464779
	H385	H	0.743277	-0.719418	1.470151
	H386	H	0.717529	-0.715913	1.453886
	O387	O	-0.177799	1.176818	0.806714
	H388	H	-0.125356	1.192098	0.795374
	H389	H	-0.187171	1.189419	0.859746
	O390	O	0.195741	-0.189376	0.794891
	H391	H	0.181845	-0.170037	0.786196
	H392	H	0.180505	-0.190934	0.780108
	O393	O	0.802498	0.858604	0.186900
	H394	H	0.823488	0.843668	0.170090
	H395	H	0.775865	0.846948	0.208546
	O396	O	0.301027	0.378683	0.685480
	H397	H	0.281105	0.410500	0.706175
	H398	H	0.320723	0.353299	0.666505
	O399	O	0.863483	1.147017	0.151176
	H400	H	0.848016	1.139821	0.154325
	H401	H	0.873216	1.132454	0.149808
	O402	O	-0.158418	0.209486	0.963604
	H403	H	-0.182055	0.220540	0.971458
	H404	H	-0.147586	0.195719	0.982355
	O405	O	0.215232	-0.108447	-0.048447
	H406	H	0.200680	-0.099484	-0.070373
	H407	H	0.238649	-0.121345	-0.064913
	O408	O	0.495132	0.605843	0.468034
	H409	H	0.493134	0.596947	0.448693
	H410	H	0.491046	0.618095	0.489423
	O411	O	-0.210123	0.789261	0.965538
	H412	H	-0.224400	0.768349	0.956490
	H413	H	-0.208682	0.798238	0.963249
	O414	O	0.714236	0.599947	0.633686
	H415	H	0.701601	0.614643	0.633629
	H416	H	0.731546	0.600654	0.630788
	O417	O	0.493241	0.284460	0.572989
	H418	H	0.488892	0.265727	0.590746
	H419	H	0.508746	0.287482	0.551857
	O420	O	0.293282	0.522163	0.276617
	H421	H	0.297798	0.510495	0.293168
	H422	H	0.272813	0.519333	0.258416
	O423	O	0.175040	1.191119	0.172280
	H424	H	0.139958	1.198691	0.175509
	H425	H	0.181462	1.162460	0.183029
	O426	O	0.797712	0.937073	1.195224
	H427	H	0.798928	0.920477	1.181429
	H428	H	0.792780	0.923702	1.209438
	O429	O	0.406710	0.324761	0.367981
	H430	H	0.418846	0.327912	0.370312
	H431	H	0.410607	0.339929	0.376320
	O432	O	0.325669	0.655038	0.468119
	H433	H	0.326170	0.654196	0.447089
	H434	H	0.306977	0.668728	0.442783
	O435	O	0.221505	0.223740	0.009637
	H436	H	0.208893	0.206965	0.043326
	H437	H	0.258477	0.256712	0.016563
	O438	O	1.017197	0.168196	0.146084
	H439	H	0.999214	0.175719	0.143498
	H440	H	1.020829	0.168655	0.130308
	O441	O	0.521848	0.286254	0.271772
	H442	H	0.518928	0.265695	0.243820
	H443	H	0.505623	0.302219	0.269435
	O444	O	-0.201977	0.964534	0.960545
	H445	H	-0.195902	0.952332	0.948772
	H446	H	-0.207926	0.947328	0.945444
	O447	O	0.609304	0.472483	0.389882
	H448	H	0.611112	0.483209	0.403936
	H449	H	0.611367	0.476844	0.389797
	O450	O	0.214837	0.979259	0.774613
	H451	H	0.205198	0.980253	0.771384
	H452	H	0.234974	0.982799	0.754611
	O453	O	0.425296	0.699786	0.572416
	H454	H	0.425581	0.702172	0.577776
	H455	H	0.425617	0.694344	0.574332
	O456	O	1.002912	-0.164369	0.193240
	H457	H	1.006172	-0.155135	0.195113
	H458	H	0.989449	-0.156391	0.196548
	O459	O	1.021293	-0.207997	1.061879
	H460	H	1.020261	-0.192972	1.082382
	H461	H	1.042106	-0.217810	1.052315
	O462	O	0.349401	0.514137	0.696255
	H463	H	0.372375	0.516359	0.700879
	H464	H	0.335528	0.512190	0.712021
	O465	O	1.059324	0.055461	-0.232817
	H466	H	1.062023	0.062542	-0.234829
	H467	H	1.046806	0.053697	-0.223461
