data_Molecule from HDF5

_cell_length_a		16.238486
_cell_length_b		16.171703
_cell_length_c		16.214415
_cell_angle_alpha	89.889165
_cell_angle_beta	90.014808
_cell_angle_gamma	89.960828
_symmetry_space_group_name_H-M	'P 1'
_symmetry_Int_Tables_number		1

loop_
	_symmetry_equiv_pos_as_xyz
	x,y,z

loop_
	_atom_site_label
	_atom_site_type_symbol
	_atom_site_fract_x
	_atom_site_fract_y
	_atom_site_fract_z
	H0	H	0.397689	0.835767	0.715590
	H1	H	0.594505	0.165211	0.715166
	H2	H	0.593445	0.836053	0.288390
	H3	H	0.396022	0.165000	0.287656
	H4	H	0.710849	0.400185	0.838149
	H5	H	0.709422	0.599806	0.166021
	H6	H	0.279734	0.601678	0.837974
	H7	H	0.281893	0.401781	0.166580
	H8	H	0.830807	0.714172	0.404802
	H9	H	0.159781	0.714413	0.600263
	H10	H	0.831814	0.287007	0.600702
	H11	H	0.159640	0.287173	0.404263
	H12	H	0.831611	0.400612	0.717805
	H13	H	0.159978	0.599791	0.716633
	H14	H	0.831637	0.600637	0.287004
	H15	H	0.159284	0.401966	0.288069
	H16	H	0.399011	0.713895	0.836987
	H17	H	0.594336	0.713658	0.166034
	H18	H	0.592430	0.287665	0.836626
	H19	H	0.395562	0.285731	0.165701
	H20	H	0.708751	0.835742	0.404256
	H21	H	0.709544	0.164807	0.600457
	H22	H	0.281531	0.836158	0.600074
	H23	H	0.280037	0.164513	0.401273
	H24	H	0.896736	0.335962	0.217217
	H25	H	0.093032	0.665917	0.215198
	H26	H	0.093634	0.335557	0.790288
	H27	H	0.896634	0.665301	0.787666
	H28	H	0.209208	0.900850	0.337572
	H29	H	0.210683	0.099318	0.664953
	H30	H	0.780189	0.101671	0.337989
	H31	H	0.781025	0.901281	0.666168
	H32	H	0.330847	0.214707	0.902410
	H33	H	0.658510	0.214437	0.099156
	H34	H	0.331138	0.786696	0.098987
	H35	H	0.660454	0.787198	0.903443
	H36	H	0.330816	0.901355	0.216323
	H37	H	0.658319	0.099577	0.215583
	H38	H	0.331450	0.099250	0.786077
	H39	H	0.660542	0.902222	0.788348
	H40	H	0.896670	0.216037	0.338253
	H41	H	0.093928	0.213380	0.666391
	H42	H	0.093516	0.786904	0.338318
	H43	H	0.896825	0.787531	0.666641
	H44	H	0.208870	0.335748	0.905872
	H45	H	0.208921	0.665237	0.101169
	H46	H	0.779896	0.335825	0.102206
	H47	H	0.780948	0.665283	0.903224
	H48	H	0.403067	0.119592	0.599004
	H49	H	0.593301	0.880164	0.598271
	H50	H	0.585006	0.117515	0.410037
	H51	H	0.394422	0.880216	0.408113
	H52	H	0.594488	0.405644	0.121216
	H53	H	0.594753	0.587764	0.884375
	H54	H	0.397023	0.605246	0.123515
	H55	H	0.391790	0.414584	0.882902
	H56	H	0.109473	0.584862	0.410518
	H57	H	0.878335	0.597154	0.592969
	H58	H	0.113881	0.407882	0.600455
	H59	H	0.878832	0.409796	0.410428
	H60	H	0.114362	0.404268	0.595873
	H61	H	0.880790	0.589838	0.594271
	H62	H	0.114989	0.597075	0.401890
	H63	H	0.878237	0.409508	0.409328
	H64	H	0.394060	0.583698	0.118568
	H65	H	0.580944	0.591200	0.887246
	H66	H	0.586048	0.414764	0.117212
	H67	H	0.410391	0.413603	0.888480
	H68	H	0.591083	0.118820	0.410819
	H69	H	0.583364	0.883765	0.597043
	H70	H	0.407280	0.115728	0.591091
	H71	H	0.407782	0.882549	0.401983
	H72	H	0.904823	0.617475	0.093705
	H73	H	0.093834	0.381697	0.094424
	H74	H	0.097669	0.619722	0.917350
	H75	H	0.911827	0.388048	0.917668
	H76	H	0.096934	0.913183	0.619767
	H77	H	0.089738	0.093491	0.383961
	H78	H	0.903512	0.102347	0.621616
	H79	H	0.890482	0.905215	0.380575
	H80	H	0.610218	0.082771	0.905387
	H81	H	0.378484	0.090900	0.091502
	H82	H	0.610815	0.915150	0.096505
	H83	H	0.379128	0.906611	0.908504
	H84	H	0.615712	0.903036	0.101966
	H85	H	0.376825	0.091716	0.097714
	H86	H	0.616927	0.102167	0.900945
	H87	H	0.378860	0.908994	0.907883
	H88	H	0.893417	0.089706	0.621127
	H89	H	0.086913	0.094308	0.384104
	H90	H	0.080490	0.912152	0.616347
	H91	H	0.903763	0.918974	0.388195
	H92	H	0.089865	0.622604	0.897983
	H93	H	0.087171	0.381363	0.101958
	H94	H	0.899089	0.617818	0.093324
	H95	H	0.891551	0.380980	0.914635
	H96	H	0.398061	0.119593	0.591327
	H97	H	0.589521	0.883657	0.589355
	H98	H	0.588692	0.119672	0.404989
	H99	H	0.404931	0.885583	0.416649
	H100	H	0.582138	0.401688	0.118194
	H101	H	0.590159	0.602291	0.881028
	H102	H	0.414214	0.592426	0.116120
	H103	H	0.401934	0.396994	0.880848
	H104	H	0.111685	0.599346	0.416276
	H105	H	0.877054	0.594061	0.599129
	H106	H	0.112055	0.409731	0.594854
	H107	H	0.878909	0.408628	0.410446
	H108	H	0.901662	0.619015	0.098297
	H109	H	0.084705	0.385621	0.091970
	H110	H	0.077926	0.614574	0.913036
	H111	H	0.905512	0.379971	0.898884
	H112	H	0.088490	0.898924	0.622343
	H113	H	0.088595	0.095958	0.382887
	H114	H	0.908383	0.088701	0.616223
	H115	H	0.909991	0.899073	0.384450
	H116	H	0.609967	0.097460	0.919713
	H117	H	0.375875	0.097060	0.093818
	H118	H	0.610872	0.904119	0.088499
	H119	H	0.377575	0.907047	0.906692
	C120	C	0.374245	0.009245	0.622578
	C121	C	0.617027	0.991500	0.623282
	C122	C	0.616613	0.009771	0.380405
	C123	C	0.373173	0.991423	0.379643
	C124	C	0.616089	0.378960	0.010087
	C125	C	0.617268	0.622472	0.992875
	C126	C	0.373374	0.622566	0.010733
	C127	C	0.373166	0.379237	0.993051
	C128	C	0.004006	0.622986	0.380414
	C129	C	0.987056	0.622277	0.624322
	C130	C	0.004472	0.378953	0.624931
	C131	C	0.986867	0.379870	0.381214
	C132	C	0.873519	0.508904	0.123953
	C133	C	0.116851	0.491912	0.124366
	C134	C	0.116997	0.509555	0.881351
	C135	C	0.873926	0.491793	0.881022
	C136	C	0.116818	0.879153	0.510726
	C137	C	0.117080	0.122398	0.492564
	C138	C	0.873278	0.122720	0.510837
	C139	C	0.873422	0.879217	0.493482
	C140	C	0.503875	0.122540	0.879811
	C141	C	0.485459	0.122117	0.122924
	C142	C	0.503864	0.878949	0.123778
	C143	C	0.487366	0.878776	0.879663
	C144	C	0.377029	0.885059	0.677705
	C145	C	0.614933	0.115887	0.678006
	C146	C	0.614205	0.885372	0.325604
	C147	C	0.375470	0.115560	0.324857
	C148	C	0.672383	0.380460	0.886928
	C149	C	0.671751	0.619966	0.116749
	C150	C	0.318087	0.620976	0.887036
	C151	C	0.319327	0.381576	0.117310
	C152	C	0.880142	0.677456	0.383464
	C153	C	0.110837	0.676951	0.620960
	C154	C	0.880922	0.324146	0.622116
	C155	C	0.110478	0.324812	0.383869
	C156	C	0.880753	0.381145	0.679779
	C157	C	0.110705	0.620163	0.679169
	C158	C	0.880438	0.620670	0.325070
	C159	C	0.110245	0.381652	0.325717
	C160	C	0.377220	0.676959	0.886418
	C161	C	0.614854	0.677054	0.116707
	C162	C	0.613691	0.324300	0.886268
	C163	C	0.375624	0.323679	0.116712
	C164	C	0.671349	0.885232	0.383355
	C165	C	0.671832	0.115751	0.620562
	C166	C	0.319269	0.885213	0.620388
	C167	C	0.317674	0.115279	0.381263
	C168	C	0.876003	0.385044	0.179478
	C169	C	0.114007	0.616493	0.178494
	C170	C	0.114359	0.385038	0.827222
	C171	C	0.876320	0.616113	0.825681
	C172	C	0.171446	0.880982	0.386874
	C173	C	0.172544	0.119826	0.616219
	C174	C	0.818450	0.121095	0.387009
	C175	C	0.818699	0.881248	0.617084
	C176	C	0.379888	0.177013	0.881962
	C177	C	0.609168	0.177174	0.120194
	C178	C	0.380083	0.824289	0.119916
	C179	C	0.611162	0.824386	0.883018
	C180	C	0.379776	0.881086	0.178170
	C181	C	0.609298	0.119984	0.177948
	C182	C	0.380172	0.119550	0.824504
	C183	C	0.611027	0.881311	0.825188
	C184	C	0.876178	0.178172	0.387265
	C185	C	0.114317	0.176092	0.617029
	C186	C	0.114175	0.824226	0.387231
	C187	C	0.876420	0.824612	0.617347
	C188	C	0.171355	0.384992	0.884767
	C189	C	0.171987	0.615957	0.122094
	C190	C	0.818168	0.384874	0.122076
	C191	C	0.818701	0.616039	0.882915
	C192	C	0.396405	0.095966	0.600257
	C193	C	0.595171	0.904841	0.601478
	C194	C	0.594784	0.096292	0.402131
	C195	C	0.395634	0.904921	0.402294
	C196	C	0.594112	0.400913	0.096603
	C197	C	0.595233	0.600171	0.906388
	C198	C	0.395309	0.600381	0.097105
	C199	C	0.394830	0.401694	0.906476
	C200	C	0.089997	0.600421	0.402831
	C201	C	0.900953	0.600209	0.602086
	C202	C	0.091031	0.400803	0.603430
	C203	C	0.900774	0.402585	0.403595
	C204	C	0.895253	0.595684	0.101680
	C205	C	0.094954	0.405269	0.102637
	C206	C	0.095013	0.596290	0.903036
	C207	C	0.896292	0.405410	0.903802
	C208	C	0.095054	0.901501	0.597186
	C209	C	0.094970	0.101055	0.406126
	C210	C	0.895247	0.100099	0.597349
	C211	C	0.895044	0.901256	0.406618
	C212	C	0.590153	0.100623	0.902050
	C213	C	0.399412	0.099703	0.101022
	C214	C	0.590129	0.901018	0.102140
	C215	C	0.400812	0.900911	0.901381
	Zn216	Zn	0.495863	0.000658	0.751184
	Zn217	Zn	0.494554	0.000570	0.252223
	Zn218	Zn	0.744602	0.500445	0.002108
	Zn219	Zn	0.245175	0.500594	0.002750
	Zn220	Zn	-0.004812	0.751182	0.502471
	Zn221	Zn	-0.004543	0.250721	0.502825
	Zn222	Zn	-0.004281	0.500198	0.753153
	Zn223	Zn	-0.004486	0.500837	0.252019
	Zn224	Zn	0.496033	0.750230	0.001787
	Zn225	Zn	0.493932	0.250558	0.001131
	Zn226	Zn	0.744985	0.000905	0.501908
	Zn227	Zn	0.245040	0.000483	0.500813
	N228	N	0.410456	0.963294	0.679215
	N229	N	0.581619	0.037721	0.679881
	N230	N	0.580966	0.963666	0.323669
	N231	N	0.409366	0.037532	0.323823
	N232	N	0.673910	0.413779	0.964994
	N233	N	0.673565	0.587006	0.038650
	N234	N	0.315693	0.587882	0.965249
	N235	N	0.317579	0.415394	0.039465
	N236	N	0.957798	0.678711	0.417152
	N237	N	0.032857	0.678516	0.587557
	N238	N	0.958791	0.322575	0.588887
	N239	N	0.032675	0.323568	0.417653
	N240	N	0.958715	0.414518	0.681590
	N241	N	0.032764	0.586834	0.681304
	N242	N	0.958382	0.587106	0.323254
	N243	N	0.032390	0.415307	0.324043
	N244	N	0.410927	0.678117	0.964272
	N245	N	0.581585	0.678668	0.038621
	N246	N	0.579178	0.323478	0.963817
	N247	N	0.408586	0.322306	0.038393
	N248	N	0.673143	0.963462	0.416696
	N249	N	0.673349	0.037408	0.587392
	N250	N	0.317456	0.963460	0.586691
	N251	N	0.316171	0.037073	0.414678
	N252	N	0.909788	0.463145	0.180488
	N253	N	0.080322	0.538364	0.179970
	N254	N	0.081394	0.463630	0.824952
	N255	N	0.909910	0.537975	0.824306
	N256	N	0.173185	0.914453	0.464690
	N257	N	0.174249	0.086944	0.538027
	N258	N	0.816577	0.087305	0.464986
	N259	N	0.816797	0.914707	0.538902
	N260	N	0.457641	0.178914	0.915391
	N261	N	0.531391	0.178452	0.086577
	N262	N	0.458126	0.822873	0.086718
	N263	N	0.533045	0.822707	0.916302
	N264	N	0.457630	0.914216	0.180682
	N265	N	0.531510	0.086403	0.179799
	N266	N	0.458420	0.086466	0.822850
	N267	N	0.533076	0.914412	0.823014
	N268	N	0.909484	0.179342	0.465333
	N269	N	0.080616	0.177968	0.539140
	N270	N	0.080613	0.823067	0.465128
	N271	N	0.909537	0.823165	0.539285
	N272	N	0.173012	0.463304	0.917810
	N273	N	0.173899	0.537668	0.089221
	N274	N	0.816441	0.462958	0.088486
	N275	N	0.817037	0.537828	0.916574
	O276	O	0.508569	0.550915	0.488772
	H277	H	0.514154	0.562376	0.475578
	H278	H	0.500270	0.551793	0.489784
	O279	O	0.571523	0.479239	0.533942
	H280	H	0.576739	0.477661	0.540188
	H281	H	0.559680	0.483461	0.538770
	O282	O	0.513000	0.488599	0.517907
	H283	H	0.509611	0.490114	0.516525
	H284	H	0.510710	0.494128	0.514482
	O285	O	-0.009874	0.949081	0.966850
	H286	H	-0.010506	0.952111	0.971253
	H287	H	-0.007291	0.951293	0.972159
	O288	O	0.554022	0.521463	0.487610
	H289	H	0.557695	0.514526	0.494187
	H290	H	0.560976	0.517540	0.481388
	O291	O	-0.043155	0.007064	0.987093
	H292	H	-0.048637	0.006120	0.976134
	H293	H	-0.044029	0.005281	0.986621
	O294	O	0.518361	0.495301	0.447594
	H295	H	0.519937	0.506806	0.445125
	H296	H	0.525404	0.487890	0.450272
	O297	O	0.447813	0.483737	0.540678
	H298	H	0.440478	0.491468	0.536929
	H299	H	0.443220	0.489534	0.541225
	O300	O	0.500683	0.531596	0.567800
	H301	H	0.495219	0.530496	0.579030
	H302	H	0.500429	0.538802	0.565490
	O303	O	0.461795	0.477121	0.443074
	H304	H	0.467152	0.464844	0.426806
	H305	H	0.463740	0.478053	0.445173
	O306	O	0.957550	-0.038761	0.980389
	H307	H	0.952201	-0.034704	0.989552
	H308	H	0.951358	-0.038505	0.982313
	O309	O	0.572507	0.434859	0.490058
	H310	H	0.577686	0.434644	0.498210
	H311	H	0.567932	0.436323	0.489777
	O312	O	0.431533	0.441421	0.600217
	H313	H	0.438986	0.444622	0.605247
	H314	H	0.435733	0.435454	0.603419
	O315	O	0.948629	-0.029833	1.014197
	H316	H	0.949169	-0.030014	1.015823
	H317	H	0.952638	-0.032500	1.016592
	O318	O	-0.023885	0.010267	0.039118
	H319	H	-0.015300	0.020659	0.032059
	H320	H	-0.031040	0.009683	0.048198
	O321	O	0.417971	0.522061	0.448142
	H322	H	0.422580	0.522258	0.457450
	H323	H	0.420943	0.528336	0.447216
	O324	O	0.961649	-0.024957	-0.031981
	H325	H	0.957012	-0.030805	-0.039478
	H326	H	0.967439	-0.028991	-0.037980
	O327	O	1.426040	1.589671	-0.469512
	H328	H	1.426710	1.591509	-0.473020
	H329	H	1.421342	1.584263	-0.478374
	O330	O	0.544946	0.413664	0.491495
	H331	H	0.544333	0.402089	0.496173
	H332	H	0.545755	0.409774	0.492720
	O333	O	0.524090	0.468516	0.404121
	H334	H	0.524120	0.465742	0.413678
	H335	H	0.524300	0.465588	0.400000
