data_Molecule from HDF5

_cell_length_a		16.166851
_cell_length_b		16.267765
_cell_length_c		16.304819
_cell_angle_alpha	89.906870
_cell_angle_beta	90.071836
_cell_angle_gamma	90.033283
_symmetry_space_group_name_H-M	'P 1'
_symmetry_Int_Tables_number		1

loop_
	_symmetry_equiv_pos_as_xyz
	x,y,z

loop_
	_atom_site_label
	_atom_site_type_symbol
	_atom_site_fract_x
	_atom_site_fract_y
	_atom_site_fract_z
	H0	H	0.397587	0.835894	0.715135
	H1	H	0.597963	0.162561	0.714958
	H2	H	0.596800	0.835315	0.284847
	H3	H	0.398085	0.162927	0.284566
	H4	H	0.710571	0.401387	0.837260
	H5	H	0.708553	0.595207	0.165340
	H6	H	0.283414	0.595909	0.836201
	H7	H	0.284941	0.402631	0.164804
	H8	H	0.832475	0.712874	0.401580
	H9	H	0.162020	0.712892	0.598570
	H10	H	0.831508	0.285715	0.599232
	H11	H	0.162351	0.288007	0.404487
	H12	H	0.832075	0.399938	0.715131
	H13	H	0.161415	0.599323	0.716007
	H14	H	0.832515	0.597224	0.287497
	H15	H	0.161362	0.401140	0.287009
	H16	H	0.397352	0.714270	0.836567
	H17	H	0.594875	0.713962	0.163459
	H18	H	0.595316	0.285206	0.837444
	H19	H	0.398125	0.283478	0.164088
	H20	H	0.709433	0.834159	0.404835
	H21	H	0.710281	0.163685	0.595491
	H22	H	0.284224	0.834779	0.596500
	H23	H	0.284780	0.163624	0.402890
	H24	H	0.897205	0.336118	0.216813
	H25	H	0.096293	0.663324	0.215779
	H26	H	0.094943	0.335303	0.786639
	H27	H	0.897792	0.663247	0.786030
	H28	H	0.210274	0.902441	0.335967
	H29	H	0.211271	0.095805	0.663882
	H30	H	0.784416	0.096286	0.335269
	H31	H	0.783596	0.900688	0.664063
	H32	H	0.332274	0.211847	0.902042
	H33	H	0.661706	0.212022	0.098529
	H34	H	0.332150	0.784874	0.098065
	H35	H	0.661423	0.785517	0.902481
	H36	H	0.332106	0.901138	0.212940
	H37	H	0.660941	0.098005	0.214478
	H38	H	0.332433	0.097671	0.785508
	H39	H	0.661238	0.900453	0.786941
	H40	H	0.898591	0.214916	0.336598
	H41	H	0.096050	0.213001	0.664053
	H42	H	0.096815	0.784684	0.336893
	H43	H	0.899033	0.783844	0.663718
	H44	H	0.208181	0.333847	0.905498
	H45	H	0.210987	0.663694	0.097657
	H46	H	0.783459	0.334368	0.099025
	H47	H	0.783757	0.664002	0.904599
	H48	H	0.409501	0.111225	0.583026
	H49	H	0.593945	0.882429	0.588741
	H50	H	0.591380	0.113632	0.413975
	H51	H	0.398590	0.877641	0.396591
	H52	H	0.587349	0.406099	0.116173
	H53	H	0.586769	0.585147	0.886873
	H54	H	0.407900	0.598353	0.117796
	H55	H	0.397788	0.406351	0.882463
	H56	H	0.118418	0.602805	0.406769
	H57	H	0.885515	0.581287	0.584592
	H58	H	0.114103	0.407330	0.592794
	H59	H	0.881341	0.410249	0.412850
	H60	H	0.114312	0.407695	0.596046
	H61	H	0.876554	0.589177	0.606983
	H62	H	0.111300	0.588901	0.416865
	H63	H	0.879270	0.409725	0.403656
	H64	H	0.397393	0.593311	0.118527
	H65	H	0.585443	0.599735	0.882911
	H66	H	0.589459	0.400884	0.118611
	H67	H	0.408208	0.408007	0.886368
	H68	H	0.598080	0.119873	0.401283
	H69	H	0.593357	0.879994	0.599559
	H70	H	0.393143	0.120205	0.593890
	H71	H	0.415476	0.884748	0.404841
	H72	H	0.908420	0.617931	0.103334
	H73	H	0.097450	0.378771	0.099243
	H74	H	0.093091	0.615959	0.908865
	H75	H	0.906651	0.382818	0.904381
	H76	H	0.094139	0.914913	0.615265
	H77	H	0.088847	0.099549	0.382423
	H78	H	0.910384	0.095720	0.616010
	H79	H	0.914916	0.898194	0.384380
	H80	H	0.613605	0.086509	0.904563
	H81	H	0.382660	0.092528	0.080205
	H82	H	0.613427	0.911474	0.095996
	H83	H	0.378542	0.898191	0.913627
	H84	H	0.616814	0.901223	0.097263
	H85	H	0.380003	0.080046	0.098604
	H86	H	0.617618	0.095963	0.902816
	H87	H	0.382986	0.915108	0.908301
	H88	H	0.898839	0.096225	0.619289
	H89	H	0.095302	0.092764	0.382042
	H90	H	0.080865	0.903600	0.614705
	H91	H	0.892891	0.900330	0.379721
	H92	H	0.089513	0.616598	0.903767
	H93	H	0.081679	0.383367	0.100141
	H94	H	0.909069	0.612552	0.085663
	H95	H	0.905775	0.383862	0.910349
	H96	H	0.412482	0.117117	0.603379
	H97	H	0.583849	0.883913	0.594574
	H98	H	0.582967	0.115081	0.400771
	H99	H	0.399059	0.883680	0.415329
	H100	H	0.593326	0.405565	0.118224
	H101	H	0.598314	0.592332	0.881433
	H102	H	0.406368	0.587148	0.114593
	H103	H	0.404950	0.398621	0.882022
	H104	H	0.115627	0.586345	0.398430
	H105	H	0.877688	0.605405	0.587688
	H106	H	0.114912	0.404657	0.594541
	H107	H	0.878244	0.401761	0.408650
	H108	H	0.893129	0.618410	0.093773
	H109	H	0.090352	0.385265	0.085762
	H110	H	0.086771	0.614685	0.908853
	H111	H	0.900892	0.381146	0.906866
	H112	H	0.096884	0.897882	0.620212
	H113	H	0.086602	0.091531	0.385468
	H114	H	0.903352	0.086062	0.613939
	H115	H	0.904323	0.918028	0.387048
	H116	H	0.613760	0.094112	0.912348
	H117	H	0.374540	0.101540	0.098934
	H118	H	0.612986	0.904550	0.087276
	H119	H	0.375232	0.903986	0.897036
	C120	C	0.376182	0.007647	0.621220
	C121	C	0.619336	0.990575	0.621681
	C122	C	0.618912	0.007294	0.377830
	C123	C	0.375975	0.990660	0.377725
	C124	C	0.618721	0.376426	0.009364
	C125	C	0.618312	0.620743	0.991745
	C126	C	0.375168	0.620914	0.008728
	C127	C	0.375501	0.376542	0.992175
	C128	C	0.005882	0.620942	0.379036
	C129	C	0.988864	0.620660	0.621763
	C130	C	0.005271	0.377837	0.622488
	C131	C	0.988343	0.378508	0.379787
	C132	C	0.875247	0.507612	0.122435
	C133	C	0.118636	0.491201	0.122965
	C134	C	0.118198	0.507332	0.879060
	C135	C	0.875111	0.491054	0.879098
	C136	C	0.118904	0.877908	0.508267
	C137	C	0.119324	0.122041	0.491521
	C138	C	0.875832	0.121081	0.508231
	C139	C	0.875796	0.877181	0.491945
	C140	C	0.505783	0.120264	0.878223
	C141	C	0.488133	0.119986	0.121152
	C142	C	0.505317	0.877651	0.121252
	C143	C	0.487891	0.877519	0.878409
	C144	C	0.378117	0.884282	0.676272
	C145	C	0.617516	0.113806	0.676715
	C146	C	0.616420	0.884067	0.323222
	C147	C	0.378128	0.114128	0.322854
	C148	C	0.673274	0.380411	0.886109
	C149	C	0.671805	0.616905	0.115980
	C150	C	0.321142	0.616854	0.884918
	C151	C	0.321581	0.380747	0.115711
	C152	C	0.881807	0.675468	0.381655
	C153	C	0.112914	0.675279	0.619148
	C154	C	0.881114	0.322804	0.619771
	C155	C	0.112928	0.324777	0.383138
	C156	C	0.881117	0.380204	0.676879
	C157	C	0.112552	0.618837	0.677477
	C158	C	0.881552	0.617792	0.324996
	C159	C	0.112360	0.381015	0.324848
	C160	C	0.377673	0.675733	0.885234
	C161	C	0.615352	0.675625	0.114941
	C162	C	0.616004	0.322529	0.886126
	C163	C	0.377787	0.321398	0.115252
	C164	C	0.672734	0.883433	0.382573
	C165	C	0.673717	0.114453	0.617483
	C166	C	0.321743	0.883794	0.617501
	C167	C	0.321739	0.114450	0.381210
	C168	C	0.877414	0.384640	0.178236
	C169	C	0.116336	0.614517	0.177423
	C170	C	0.115623	0.384040	0.824202
	C171	C	0.876919	0.614193	0.823729
	C172	C	0.172911	0.881499	0.384708
	C173	C	0.174062	0.117566	0.614949
	C174	C	0.821907	0.117532	0.384323
	C175	C	0.821206	0.880168	0.615267
	C176	C	0.381498	0.174576	0.880997
	C177	C	0.612581	0.174146	0.118347
	C178	C	0.381337	0.822797	0.118423
	C179	C	0.612168	0.823092	0.881844
	C180	C	0.381270	0.880250	0.175570
	C181	C	0.612111	0.117570	0.176129
	C182	C	0.381742	0.117725	0.823138
	C183	C	0.612187	0.880431	0.824715
	C184	C	0.878355	0.176576	0.385075
	C185	C	0.116890	0.175876	0.615013
	C186	C	0.116716	0.822708	0.385413
	C187	C	0.878348	0.821975	0.615111
	C188	C	0.171942	0.383236	0.883252
	C189	C	0.173186	0.614773	0.118713
	C190	C	0.820844	0.383829	0.119687
	C191	C	0.820563	0.614839	0.882748
	C192	C	0.398446	0.093746	0.599738
	C193	C	0.597167	0.904445	0.600494
	C194	C	0.597372	0.093832	0.399196
	C195	C	0.397901	0.904435	0.399322
	C196	C	0.596537	0.397729	0.095448
	C197	C	0.596657	0.599008	0.905936
	C198	C	0.397365	0.599443	0.094788
	C199	C	0.397213	0.398249	0.905813
	C200	C	0.092807	0.599199	0.400921
	C201	C	0.902255	0.598521	0.599562
	C202	C	0.091913	0.399931	0.600840
	C203	C	0.901908	0.400592	0.401964
	C204	C	0.897085	0.594142	0.100587
	C205	C	0.096355	0.404751	0.101512
	C206	C	0.096352	0.593515	0.900767
	C207	C	0.897582	0.404887	0.900637
	C208	C	0.097120	0.899080	0.594516
	C209	C	0.096869	0.100858	0.405442
	C210	C	0.897757	0.099074	0.594172
	C211	C	0.897462	0.898993	0.405910
	C212	C	0.592635	0.098583	0.900039
	C213	C	0.401351	0.098032	0.098929
	C214	C	0.592186	0.899434	0.099871
	C215	C	0.401203	0.899335	0.899914
	Zn216	Zn	0.497471	-0.000801	0.750598
	Zn217	Zn	0.496844	-0.001030	0.249055
	Zn218	Zn	0.746986	0.499176	0.001178
	Zn219	Zn	0.247082	0.499236	0.000550
	Zn220	Zn	-0.002090	0.748799	0.499919
	Zn221	Zn	-0.002952	0.250248	0.500566
	Zn222	Zn	-0.003463	0.499245	0.750062
	Zn223	Zn	-0.003577	0.499529	0.251599
	Zn224	Zn	0.497072	0.749549	-0.000262
	Zn225	Zn	0.497050	0.247582	0.000071
	Zn226	Zn	0.747305	-0.000784	0.499956
	Zn227	Zn	0.247574	-0.000700	0.499556
	N228	N	0.411099	0.962244	0.678934
	N229	N	0.584451	0.035805	0.679671
	N230	N	0.583683	0.962119	0.320241
	N231	N	0.411052	0.036103	0.320440
	N232	N	0.675156	0.413060	0.963815
	N233	N	0.673740	0.583334	0.038579
	N234	N	0.319154	0.583765	0.962666
	N235	N	0.320028	0.414081	0.038102
	N236	N	0.960101	0.677359	0.414704
	N237	N	0.034966	0.676457	0.585199
	N238	N	0.959332	0.321275	0.586399
	N239	N	0.035050	0.323154	0.416608
	N240	N	0.959230	0.413700	0.678751
	N241	N	0.034332	0.585402	0.678968
	N242	N	0.959748	0.584526	0.323394
	N243	N	0.033730	0.413752	0.322617
	N244	N	0.410743	0.678019	0.963115
	N245	N	0.582875	0.678041	0.036866
	N246	N	0.582846	0.319920	0.963763
	N247	N	0.410697	0.318781	0.037411
	N248	N	0.674402	0.961160	0.415705
	N249	N	0.674643	0.036942	0.584061
	N250	N	0.320541	0.961499	0.583981
	N251	N	0.320176	0.036858	0.414644
	N252	N	0.910613	0.462639	0.179968
	N253	N	0.082968	0.536609	0.179914
	N254	N	0.082976	0.462144	0.821474
	N255	N	0.910200	0.536317	0.821565
	N256	N	0.174293	0.915006	0.462099
	N257	N	0.175532	0.084801	0.537113
	N258	N	0.820272	0.083719	0.461807
	N259	N	0.819555	0.913902	0.537719
	N260	N	0.459784	0.176481	0.914302
	N261	N	0.534429	0.175650	0.084711
	N262	N	0.459449	0.821183	0.085263
	N263	N	0.533934	0.821314	0.914501
	N264	N	0.459450	0.913766	0.177388
	N265	N	0.533741	0.084624	0.177869
	N266	N	0.460083	0.084829	0.821337
	N267	N	0.533839	0.913528	0.822300
	N268	N	0.910971	0.178914	0.463027
	N269	N	0.083296	0.178478	0.537486
	N270	N	0.083817	0.820331	0.463314
	N271	N	0.911339	0.819796	0.537460
	N272	N	0.173673	0.460981	0.916590
	N273	N	0.174731	0.536861	0.085684
	N274	N	0.819393	0.461299	0.085896
	N275	N	0.819148	0.537076	0.916165
	O276	O	0.972164	0.034603	0.969004
	H277	H	0.974025	0.041271	0.968766
	H278	H	0.969235	0.034082	0.972454
	O279	O	0.529791	0.488714	0.582898
	H280	H	0.529288	0.489720	0.588208
	H281	H	0.533298	0.489372	0.587970
	O282	O	0.950285	1.061398	-0.046941
	H283	H	0.949014	1.058383	-0.046738
	H284	H	0.945674	1.067236	-0.047532
	O285	O	0.500198	0.494523	0.596904
	H286	H	0.498264	0.499355	0.609013
	H287	H	0.496595	0.494834	0.593887
