data_Molecule from HDF5

_cell_length_a		16.408005
_cell_length_b		16.476459
_cell_length_c		16.394788
_cell_angle_alpha	89.994107
_cell_angle_beta	90.053568
_cell_angle_gamma	89.999468
_symmetry_space_group_name_H-M	'P 1'
_symmetry_Int_Tables_number		1

loop_
	_symmetry_equiv_pos_as_xyz
	x,y,z

loop_
	_atom_site_label
	_atom_site_type_symbol
	_atom_site_fract_x
	_atom_site_fract_y
	_atom_site_fract_z
	H0	H	0.396936	0.845921	0.714478
	H1	H	0.609060	0.161170	0.716811
	H2	H	0.606965	0.845474	0.272180
	H3	H	0.393701	0.160954	0.270670
	H4	H	0.722604	0.399038	0.836536
	H5	H	0.721384	0.608219	0.154073
	H6	H	0.281484	0.606579	0.835431
	H7	H	0.278922	0.395929	0.152708
	H8	H	0.842609	0.725150	0.388839
	H9	H	0.158584	0.725299	0.601497
	H10	H	0.843109	0.280516	0.600691
	H11	H	0.159128	0.280705	0.388122
	H12	H	0.841943	0.398510	0.715293
	H13	H	0.159238	0.608123	0.715531
	H14	H	0.841983	0.607887	0.274209
	H15	H	0.160656	0.399289	0.274568
	H16	H	0.395326	0.724629	0.835844
	H17	H	0.607643	0.725691	0.153026
	H18	H	0.608458	0.281462	0.837090
	H19	H	0.394196	0.280717	0.152607
	H20	H	0.723582	0.845487	0.387618
	H21	H	0.725526	0.160595	0.601057
	H22	H	0.280687	0.846308	0.599222
	H23	H	0.279238	0.161729	0.388385
	H24	H	0.892667	0.346495	0.218780
	H25	H	0.105904	0.660778	0.215760
	H26	H	0.110262	0.347370	0.767960
	H27	H	0.892614	0.659759	0.769706
	H28	H	0.220175	0.899338	0.335605
	H29	H	0.225016	0.112268	0.651751
	H30	H	0.779074	0.107933	0.336859
	H31	H	0.778546	0.896257	0.653377
	H32	H	0.343861	0.226386	0.887622
	H33	H	0.659144	0.225241	0.102074
	H34	H	0.345110	0.778336	0.102949
	H35	H	0.660250	0.780495	0.887257
	H36	H	0.344897	0.894199	0.219291
	H37	H	0.659808	0.108315	0.216409
	H38	H	0.342941	0.109690	0.772452
	H39	H	0.660237	0.898636	0.772644
	H40	H	0.892247	0.226124	0.337455
	H41	H	0.109342	0.227262	0.651900
	H42	H	0.103953	0.783879	0.335707
	H43	H	0.892702	0.780109	0.653178
	H44	H	0.225648	0.346351	0.885309
	H45	H	0.223082	0.660524	0.099920
	H46	H	0.776191	0.347220	0.103532
	H47	H	0.777813	0.660927	0.887485
	H48	H	0.411695	0.118221	0.584823
	H49	H	0.593844	0.890156	0.581723
	H50	H	0.589322	0.115415	0.405443
	H51	H	0.413516	0.891963	0.406092
	H52	H	0.592017	0.410767	0.110242
	H53	H	0.583915	0.593582	0.883757
	H54	H	0.416459	0.586276	0.105219
	H55	H	0.413102	0.411229	0.880509
	H56	H	0.115457	0.596618	0.409759
	H57	H	0.891259	0.588608	0.576345
	H58	H	0.111154	0.416542	0.578791
	H59	H	0.888181	0.411010	0.410274
	H60	H	0.113912	0.416941	0.582816
	H61	H	0.885979	0.588007	0.589753
	H62	H	0.112296	0.588574	0.406935
	H63	H	0.889617	0.418277	0.406608
	H64	H	0.416978	0.597596	0.108838
	H65	H	0.592987	0.595494	0.878822
	H66	H	0.591124	0.419236	0.107619
	H67	H	0.410130	0.416587	0.881198
	H68	H	0.588412	0.114266	0.407023
	H69	H	0.588755	0.890398	0.586224
	H70	H	0.415187	0.116149	0.583177
	H71	H	0.410156	0.890634	0.407897
	H72	H	0.905733	0.619724	0.089115
	H73	H	0.087794	0.391633	0.082033
	H74	H	0.091268	0.618819	0.896082
	H75	H	0.911891	0.393140	0.913087
	H76	H	0.092541	0.911419	0.610734
	H77	H	0.088087	0.088313	0.383229
	H78	H	0.910873	0.088548	0.607738
	H79	H	0.910930	0.905571	0.379113
	H80	H	0.615108	0.090963	0.901206
	H81	H	0.386594	0.094541	0.084693
	H82	H	0.615034	0.912850	0.081855
	H83	H	0.387950	0.915581	0.901276
	H84	H	0.613082	0.916697	0.080617
	H85	H	0.390267	0.093062	0.076683
	H86	H	0.616519	0.098072	0.906831
	H87	H	0.387515	0.909746	0.905768
	H88	H	0.917690	0.088367	0.605595
	H89	H	0.085973	0.093772	0.382087
	H90	H	0.092635	0.918068	0.608774
	H91	H	0.906236	0.920433	0.381718
	H92	H	0.079571	0.610515	0.908882
	H93	H	0.091735	0.389368	0.082763
	H94	H	0.920020	0.614757	0.088171
	H95	H	0.908409	0.388835	0.901839
	H96	H	0.411796	0.116809	0.580623
	H97	H	0.587775	0.892260	0.580524
	H98	H	0.590217	0.115618	0.407277
	H99	H	0.410953	0.890092	0.403720
	H100	H	0.583881	0.413744	0.106670
	H101	H	0.590946	0.586027	0.882609
	H102	H	0.406478	0.591583	0.110192
	H103	H	0.416044	0.416506	0.883257
	H104	H	0.116359	0.593899	0.401509
	H105	H	0.884878	0.600195	0.582209
	H106	H	0.113760	0.413360	0.580419
	H107	H	0.886267	0.412440	0.402418
	H108	H	0.910620	0.614177	0.075635
	H109	H	0.088619	0.389253	0.086314
	H110	H	0.097488	0.614879	0.913913
	H111	H	0.919992	0.392774	0.903655
	H112	H	0.087011	0.913632	0.607860
	H113	H	0.091675	0.092512	0.380315
	H114	H	0.914456	0.094595	0.608220
	H115	H	0.921181	0.915871	0.385957
	H116	H	0.612745	0.090387	0.909908
	H117	H	0.389760	0.086476	0.083000
	H118	H	0.614531	0.916282	0.084745
	H119	H	0.390188	0.916439	0.907944
	C120	C	0.380239	0.013002	0.615307
	C121	C	0.623249	0.995061	0.615697
	C122	C	0.622028	0.011193	0.373748
	C123	C	0.378648	0.994964	0.372187
	C124	C	0.622346	0.382477	0.003431
	C125	C	0.622592	0.624892	0.985876
	C126	C	0.380609	0.624523	0.003301
	C127	C	0.379940	0.381744	0.986123
	C128	C	0.009482	0.624501	0.374001
	C129	C	0.991700	0.625088	0.616154
	C130	C	0.008994	0.382397	0.614741
	C131	C	0.992523	0.381266	0.373270
	C132	C	0.879029	0.512092	0.116938
	C133	C	0.122252	0.494485	0.116053
	C134	C	0.122912	0.511307	0.872522
	C135	C	0.880155	0.495356	0.873535
	C136	C	0.122145	0.882411	0.503634
	C137	C	0.122359	0.125059	0.486064
	C138	C	0.880294	0.123655	0.503077
	C139	C	0.879814	0.881231	0.486739
	C140	C	0.510263	0.125667	0.872958
	C141	C	0.492893	0.124277	0.115204
	C142	C	0.510164	0.881881	0.115673
	C143	C	0.493585	0.881764	0.872702
	C144	C	0.378453	0.893599	0.674866
	C145	C	0.626868	0.113713	0.676591
	C146	C	0.624653	0.892752	0.312805
	C147	C	0.375786	0.113373	0.310996
	C148	C	0.683186	0.380060	0.884403
	C149	C	0.682113	0.626915	0.106059
	C150	C	0.320691	0.625788	0.883536
	C151	C	0.319054	0.378373	0.105111
	C152	C	0.890029	0.684538	0.371540
	C153	C	0.111092	0.685305	0.619083
	C154	C	0.890030	0.321374	0.618400
	C155	C	0.111695	0.320975	0.370265
	C156	C	0.889583	0.380234	0.675253
	C157	C	0.111542	0.626986	0.676021
	C158	C	0.889843	0.626212	0.314120
	C159	C	0.112306	0.379856	0.313430
	C160	C	0.377672	0.684419	0.883692
	C161	C	0.625316	0.685200	0.105616
	C162	C	0.625913	0.321639	0.884585
	C163	C	0.376518	0.320842	0.105080
	C164	C	0.683017	0.892619	0.370200
	C165	C	0.684882	0.113344	0.618835
	C166	C	0.320453	0.893919	0.617390
	C167	C	0.318567	0.113829	0.369550
	C168	C	0.875129	0.393989	0.178445
	C169	C	0.124825	0.613300	0.176412
	C170	C	0.127495	0.394107	0.809416
	C171	C	0.875798	0.613097	0.811231
	C172	C	0.180641	0.881046	0.383599
	C173	C	0.184011	0.128962	0.604563
	C174	C	0.819042	0.126490	0.384246
	C175	C	0.818557	0.878563	0.605681
	C176	C	0.391320	0.186226	0.869662
	C177	C	0.611787	0.184969	0.119258
	C178	C	0.392030	0.819630	0.120005
	C179	C	0.612434	0.821002	0.869619
	C180	C	0.391929	0.877438	0.178000
	C181	C	0.612043	0.126591	0.176215
	C182	C	0.390893	0.127881	0.812287
	C183	C	0.612731	0.879769	0.812380
	C184	C	0.875491	0.185281	0.384726
	C185	C	0.126178	0.186412	0.604724
	C186	C	0.123090	0.822977	0.383862
	C187	C	0.875634	0.820520	0.605508
	C188	C	0.184965	0.393671	0.868030
	C189	C	0.183083	0.612870	0.118727
	C190	C	0.816915	0.394261	0.120869
	C191	C	0.818340	0.613552	0.869823
	C192	C	0.405634	0.095370	0.590144
	C193	C	0.597453	0.912617	0.590234
	C194	C	0.596654	0.093827	0.399491
	C195	C	0.404049	0.912405	0.398418
	C196	C	0.596452	0.407426	0.086540
	C197	C	0.596703	0.599322	0.903446
	C198	C	0.406139	0.599356	0.086325
	C199	C	0.405778	0.407451	0.903091
	C200	C	0.093007	0.600078	0.398913
	C201	C	0.909051	0.599624	0.590477
	C202	C	0.091385	0.408211	0.588296
	C203	C	0.909682	0.406372	0.398790
	C204	C	0.904816	0.594670	0.091393
	C205	C	0.096603	0.411805	0.090842
	C206	C	0.096725	0.593376	0.898834
	C207	C	0.906101	0.412967	0.899073
	C208	C	0.097883	0.907240	0.587326
	C209	C	0.096037	0.098867	0.403300
	C210	C	0.906788	0.097609	0.585634
	C211	C	0.905422	0.906783	0.403914
	C212	C	0.593152	0.100403	0.898647
	C213	C	0.410368	0.098684	0.088874
	C214	C	0.592803	0.907882	0.089772
	C215	C	0.410504	0.906704	0.897809
	Zn216	Zn	0.501674	0.003983	0.744150
	Zn217	Zn	0.501301	0.003361	0.244377
	Zn218	Zn	0.750892	0.504077	-0.005209
	Zn219	Zn	0.251852	0.502426	-0.005300
	Zn220	Zn	0.000774	0.753287	0.495228
	Zn221	Zn	0.001106	0.252598	0.494429
	Zn222	Zn	0.000969	0.503139	0.743700
	Zn223	Zn	0.001097	0.503368	0.245203
	Zn224	Zn	0.501903	0.753238	-0.005222
	Zn225	Zn	0.501084	0.253648	-0.004721
	Zn226	Zn	0.751768	0.002498	0.494275
	Zn227	Zn	0.250645	0.004342	0.494665
	N228	N	0.414835	0.968556	0.673943
	N229	N	0.589487	0.039139	0.674866
	N230	N	0.587392	0.967405	0.315110
	N231	N	0.412202	0.038225	0.312326
	N232	N	0.681076	0.417084	0.959372
	N233	N	0.680638	0.590270	0.030739
	N234	N	0.322053	0.589522	0.959032
	N235	N	0.320972	0.415148	0.030024
	N236	N	0.965533	0.683421	0.408163
	N237	N	0.035632	0.684394	0.582953
	N238	N	0.965252	0.322371	0.581857
	N239	N	0.036086	0.321422	0.406232
	N240	N	0.964742	0.417254	0.673260
	N241	N	0.036213	0.590527	0.674655
	N242	N	0.964883	0.589182	0.315914
	N243	N	0.037032	0.416391	0.314945
	N244	N	0.413917	0.683943	0.959308
	N245	N	0.589348	0.684391	0.029873
	N246	N	0.588984	0.323039	0.959726
	N247	N	0.413490	0.322656	0.029843
	N248	N	0.681523	0.967391	0.407500
	N249	N	0.682937	0.038346	0.582066
	N250	N	0.321040	0.969199	0.581269
	N251	N	0.320008	0.038909	0.406615
	N252	N	0.913178	0.468248	0.176001
	N253	N	0.087912	0.538485	0.175005
	N254	N	0.089438	0.468285	0.812275
	N255	N	0.913720	0.538749	0.813443
	N256	N	0.180461	0.916990	0.459236
	N257	N	0.181538	0.091377	0.529795
	N258	N	0.821822	0.089033	0.458834
	N259	N	0.820816	0.915630	0.530591
	N260	N	0.466503	0.184936	0.906655
	N261	N	0.536635	0.183747	0.082138
	N262	N	0.466413	0.822505	0.081925
	N263	N	0.537082	0.821908	0.906145
	N264	N	0.466385	0.915556	0.175197
	N265	N	0.537129	0.089593	0.173976
	N266	N	0.466073	0.091008	0.814075
	N267	N	0.537744	0.916558	0.813904
	N268	N	0.912732	0.183764	0.459829
	N269	N	0.088533	0.183900	0.529962
	N270	N	0.087521	0.823736	0.459696
	N271	N	0.912812	0.822089	0.530594
	N272	N	0.182013	0.467502	0.906772
	N273	N	0.181650	0.537939	0.082040
	N274	N	0.819312	0.468755	0.083317
	N275	N	0.821041	0.539365	0.907750
	O276	O	0.705277	0.293532	0.475222
	H277	H	0.696055	0.317066	0.491116
	H278	H	0.736616	0.264668	0.470861
	O279	O	1.069370	-0.138541	0.819511
	H280	H	1.049182	-0.141001	0.850269
	H281	H	1.071740	-0.151465	0.796037
	O282	O	0.550881	0.581623	0.496954
	H283	H	0.536544	0.597753	0.504623
	H284	H	0.561046	0.595080	0.494481
	O285	O	0.550116	0.339100	0.517903
	H286	H	0.567568	0.346929	0.496625
	H287	H	0.559530	0.334037	0.522357
	O288	O	0.848702	1.119335	0.151469
	H289	H	0.861350	1.119628	0.158961
	H290	H	0.853993	1.132002	0.160938
	O291	O	0.660197	0.682352	0.680029
	H292	H	0.667053	0.637985	0.687175
	H293	H	0.652447	0.697451	0.665548
	O294	O	0.119924	0.169446	0.867390
	H295	H	0.111400	0.185837	0.846741
	H296	H	0.110752	0.171256	0.870275
	O297	O	0.350779	0.404728	0.489095
	H298	H	0.353058	0.397704	0.511627
	H299	H	0.357367	0.390242	0.487338
	O300	O	0.479673	0.436452	0.413072
	H301	H	0.485913	0.438753	0.405812
	H302	H	0.464007	0.447883	0.404354
	O303	O	0.588142	0.350793	0.612557
	H304	H	0.582451	0.355574	0.617166
	H305	H	0.581222	0.373156	0.614046
	O306	O	0.292133	0.515138	0.344297
	H307	H	0.284037	0.517848	0.336630
	H308	H	0.291006	0.506152	0.348629
	O309	O	0.421619	0.397646	0.572859
	H310	H	0.420704	0.384457	0.571335
	H311	H	0.438574	0.405330	0.576536
	O312	O	-0.180280	0.977849	1.196213
	H313	H	-0.194500	0.988693	1.210982
	H314	H	-0.152551	0.991157	1.197410
	O315	O	-0.058312	0.837420	0.890615
	H316	H	-0.044031	0.851488	0.907823
	H317	H	-0.074582	0.838531	0.915982
	O318	O	1.214399	0.028736	0.205050
	H319	H	1.211342	-0.001714	0.175007
	H320	H	1.244522	0.025937	0.236367
	O321	O	0.498040	-0.636779	-0.477815
	H322	H	0.514063	-0.638354	-0.488665
	H323	H	0.489076	-0.653231	-0.469785
	O324	O	0.514841	0.335395	0.520357
	H325	H	0.523962	0.325146	0.508384
	H326	H	0.498246	0.335973	0.515978
	O327	O	-0.211492	0.217828	0.968093
	H328	H	-0.236519	0.234883	0.976539
	H329	H	-0.184850	0.233306	0.993246
	O330	O	-0.020088	1.219771	-0.221542
	H331	H	-0.040589	1.245386	-0.245701
	H332	H	-0.054951	1.210946	-0.220039
	O333	O	0.497356	0.445322	0.711865
	H334	H	0.497139	0.435545	0.703507
	H335	H	0.485770	0.450034	0.715426
	O336	O	-0.195159	-0.245718	-0.011348
	H337	H	-0.175851	-0.247697	-0.015089
	H338	H	-0.197863	-0.229450	-0.016261
	O339	O	-0.009172	0.906709	0.834821
	H340	H	-0.020163	0.914726	0.831782
	H341	H	-0.007933	0.894247	0.829219
	O342	O	0.193650	0.810005	0.799856
	H343	H	0.140636	0.803725	0.790997
	H344	H	0.201026	0.861861	0.794855
	O345	O	1.220853	0.783908	-0.034005
	H346	H	1.213687	0.787292	-0.074817
	H347	H	1.249879	0.753516	-0.045986
	O348	O	0.685667	0.314197	0.304129
	H349	H	0.694613	0.322819	0.336226
	H350	H	0.678755	0.350411	0.305669
	O351	O	0.023884	1.221893	1.213713
	H352	H	0.066155	1.216206	1.210850
	H353	H	0.039998	1.248969	1.242388
	O354	O	0.020101	0.791201	-0.007787
	H355	H	0.029223	0.791769	-0.004779
	H356	H	0.022436	0.791554	-0.013699
	O357	O	0.183080	0.076213	0.956927
	H358	H	0.171437	0.079300	0.951772
	H359	H	0.176666	0.077941	0.958590
	O360	O	0.519655	0.291965	0.300505
	H361	H	0.534152	0.287976	0.301894
	H362	H	0.530825	0.283143	0.284268
	O363	O	-0.009555	-0.188683	1.195645
	H364	H	-0.012476	-0.209015	1.194052
	H365	H	0.008367	-0.159999	1.184502
	O366	O	0.313697	0.707972	0.444380
	H367	H	0.294885	0.725269	0.455704
	H368	H	0.322713	0.699013	0.415922
	O369	O	0.456701	0.703136	0.674288
	H370	H	0.477575	0.709522	0.679535
	H371	H	0.466115	0.704029	0.682860
	O372	O	0.907594	-0.037809	0.952522
	H373	H	0.904943	-0.056291	0.957857
	H374	H	0.899389	-0.028222	0.936369
	O375	O	0.374680	0.385484	0.668172
	H376	H	0.379855	0.404802	0.674529
	H377	H	0.393441	0.391071	0.664999
	O378	O	0.031282	0.981409	0.181952
	H379	H	0.054073	0.991863	0.179075
	H380	H	0.037116	0.999620	0.161932
	O381	O	0.630140	0.652901	0.465669
	H382	H	0.641171	0.670654	0.469165
	H383	H	0.606979	0.654862	0.449531
	O384	O	0.613104	0.517699	0.355273
	H385	H	0.600017	0.529882	0.356932
	H386	H	0.609289	0.531586	0.364651
	O387	O	0.001417	0.119056	0.989321
	H388	H	-0.002539	0.128875	0.993282
	H389	H	-0.020973	0.118478	0.969818
	O390	O	-0.041535	0.225129	0.036989
	H391	H	-0.025623	0.215582	0.043117
	H392	H	-0.035914	0.232677	0.052096
	O393	O	1.183395	1.189859	1.180509
	H394	H	1.194773	1.147676	1.179726
	H395	H	1.199524	1.190110	1.147052
	O396	O	0.554728	-0.465561	0.359465
	H397	H	0.546633	-0.450646	0.358057
	H398	H	0.549204	-0.466143	0.354994
	O399	O	1.212520	-0.023415	0.785341
	H400	H	1.235209	-0.009893	0.775846
	H401	H	1.198849	0.000683	0.785850
	O402	O	1.027475	1.022213	0.840348
	H403	H	1.026089	1.016524	0.841392
	H404	H	1.011862	1.030634	0.837057
	O405	O	0.856694	1.022525	-0.211558
	H406	H	0.871406	1.010209	-0.201053
	H407	H	0.843549	1.022947	-0.227817
	O408	O	0.783109	-0.007149	-0.078387
	H409	H	0.778892	-0.002811	-0.064624
	H410	H	0.782833	-0.025598	-0.069325
	O411	O	1.475369	1.471030	0.299906
	H412	H	1.489266	1.470967	0.323772
	H413	H	1.468170	1.458316	0.289321
	O414	O	0.320132	0.467450	0.544618
	H415	H	0.317209	0.471246	0.565210
	H416	H	0.314749	0.472352	0.549804
	O417	O	0.784498	0.783892	1.021606
	H418	H	0.762877	0.770773	1.013038
	H419	H	0.781386	0.779611	1.056093
	O420	O	-0.070648	0.002509	0.125594
	H421	H	-0.088369	0.024870	0.117259
	H422	H	-0.067426	-0.002781	0.144207
	O423	O	0.313177	0.644545	0.312445
	H424	H	0.313489	0.613174	0.311924
	H425	H	0.292804	0.657322	0.295552
	O426	O	0.498133	0.699796	0.440823
	H427	H	0.499204	0.708712	0.452342
	H428	H	0.487350	0.703783	0.442298
	O429	O	0.381128	0.626799	0.564390
	H430	H	0.373527	0.627648	0.547777
	H431	H	0.386124	0.648084	0.569771
	O432	O	0.818347	0.185840	0.806782
	H433	H	0.805698	0.166544	0.827244
	H434	H	0.806163	0.166152	0.827412
	O435	O	0.638721	0.759763	0.243894
	H436	H	0.659286	0.753740	0.241356
	H437	H	0.620414	0.793114	0.237678
	O438	O	0.165030	-0.044678	0.033967
	H439	H	0.153971	-0.047012	0.022068
	H440	H	0.168475	-0.052563	0.027176
	O441	O	1.154680	-0.164713	0.115991
	H442	H	1.162614	-0.160112	0.092600
	H443	H	1.133164	-0.160014	0.097486
	O444	O	0.171946	1.202164	1.027725
	H445	H	0.181670	1.216370	1.022127
	H446	H	0.154445	1.217009	1.016302
	O447	O	0.633996	0.540389	0.683227
	H448	H	0.619469	0.528071	0.681643
	H449	H	0.629429	0.525440	0.691323
	O450	O	0.477259	0.585652	0.631500
	H451	H	0.473098	0.603189	0.624636
	H452	H	0.472432	0.606179	0.633859
	O453	O	0.659880	0.660545	0.485625
	H454	H	0.643678	0.675635	0.471635
	H455	H	0.660096	0.654720	0.484675
