data_Molecule from HDF5

_cell_length_a		16.258954
_cell_length_b		16.223575
_cell_length_c		16.228072
_cell_angle_alpha	90.092910
_cell_angle_beta	90.005101
_cell_angle_gamma	89.973943
_symmetry_space_group_name_H-M	'P 1'
_symmetry_Int_Tables_number		1

loop_
	_symmetry_equiv_pos_as_xyz
	x,y,z

loop_
	_atom_site_label
	_atom_site_type_symbol
	_atom_site_fract_x
	_atom_site_fract_y
	_atom_site_fract_z
	H0	H	0.397372	0.835045	0.719924
	H1	H	0.592936	0.163876	0.720409
	H2	H	0.592601	0.835632	0.292499
	H3	H	0.395798	0.164171	0.293647
	H4	H	0.707532	0.402968	0.842438
	H5	H	0.707962	0.597440	0.171006
	H6	H	0.281353	0.597614	0.841674
	H7	H	0.279971	0.402167	0.170470
	H8	H	0.830262	0.713231	0.408014
	H9	H	0.159151	0.713277	0.603536
	H10	H	0.830655	0.285914	0.603461
	H11	H	0.159129	0.284389	0.407356
	H12	H	0.831122	0.401769	0.719848
	H13	H	0.160023	0.596520	0.719516
	H14	H	0.830035	0.595715	0.293345
	H15	H	0.158988	0.401161	0.291508
	H16	H	0.397442	0.713885	0.842009
	H17	H	0.592290	0.712734	0.171688
	H18	H	0.592690	0.286969	0.841922
	H19	H	0.397801	0.287547	0.171520
	H20	H	0.708293	0.835079	0.407794
	H21	H	0.708802	0.163487	0.605088
	H22	H	0.281459	0.834606	0.604248
	H23	H	0.279325	0.163321	0.408680
	H24	H	0.897374	0.334354	0.218577
	H25	H	0.091375	0.664014	0.219212
	H26	H	0.091409	0.334923	0.793732
	H27	H	0.897878	0.664247	0.793575
	H28	H	0.209069	0.899933	0.342490
	H29	H	0.207255	0.097299	0.671321
	H30	H	0.780218	0.096632	0.341961
	H31	H	0.780722	0.901137	0.670955
	H32	H	0.331586	0.215011	0.908204
	H33	H	0.659597	0.213754	0.105498
	H34	H	0.330430	0.785911	0.104343
	H35	H	0.659737	0.786606	0.908377
	H36	H	0.330107	0.902008	0.220440
	H37	H	0.658681	0.097091	0.221438
	H38	H	0.330645	0.098154	0.792830
	H39	H	0.658951	0.902838	0.792531
	H40	H	0.896688	0.211665	0.341268
	H41	H	0.092726	0.213713	0.670688
	H42	H	0.091750	0.785994	0.341624
	H43	H	0.896563	0.784872	0.670350
	H44	H	0.210024	0.335594	0.905401
	H45	H	0.207168	0.664520	0.103856
	H46	H	0.780306	0.335154	0.103785
	H47	H	0.780912	0.663879	0.909120
	H48	H	0.397177	0.118090	0.602387
	H49	H	0.591127	0.881796	0.598691
	H50	H	0.586069	0.117554	0.411816
	H51	H	0.399083	0.882482	0.415995
	H52	H	0.592041	0.406071	0.125488
	H53	H	0.588999	0.594577	0.888138
	H54	H	0.391372	0.589724	0.124982
	H55	H	0.395575	0.414357	0.889816
	H56	H	0.113240	0.589603	0.404577
	H57	H	0.877181	0.587489	0.608193
	H58	H	0.112962	0.403290	0.600906
	H59	H	0.876721	0.399241	0.415414
	H60	H	0.111079	0.405133	0.595410
	H61	H	0.875527	0.602236	0.600769
	H62	H	0.113717	0.600695	0.414586
	H63	H	0.880526	0.411099	0.414977
	H64	H	0.408180	0.586565	0.119046
	H65	H	0.588830	0.592504	0.890054
	H66	H	0.586897	0.409898	0.122969
	H67	H	0.410930	0.407223	0.892301
	H68	H	0.586638	0.115245	0.416710
	H69	H	0.586552	0.880932	0.603524
	H70	H	0.403452	0.117010	0.602633
	H71	H	0.399665	0.880286	0.410087
	H72	H	0.905694	0.615264	0.100705
	H73	H	0.089399	0.383582	0.094735
	H74	H	0.090616	0.618785	0.908960
	H75	H	0.890983	0.381398	0.919124
	H76	H	0.079950	0.899860	0.623206
	H77	H	0.086919	0.096292	0.388203
	H78	H	0.906406	0.088638	0.620730
	H79	H	0.905556	0.904764	0.390056
	H80	H	0.610445	0.090894	0.915941
	H81	H	0.376968	0.095032	0.102409
	H82	H	0.610513	0.913101	0.103765
	H83	H	0.380938	0.910636	0.919836
	H84	H	0.614744	0.900164	0.103867
	H85	H	0.378441	0.096087	0.096884
	H86	H	0.613847	0.091907	0.908590
	H87	H	0.377305	0.910121	0.906558
	H88	H	0.902679	0.099116	0.624728
	H89	H	0.092556	0.089241	0.388780
	H90	H	0.096652	0.900922	0.627956
	H91	H	0.897280	0.902205	0.386560
	H92	H	0.083266	0.615583	0.911987
	H93	H	0.090886	0.380902	0.100635
	H94	H	0.898502	0.615892	0.095624
	H95	H	0.900347	0.379053	0.901285
	H96	H	0.400379	0.115903	0.597023
	H97	H	0.585050	0.883927	0.597386
	H98	H	0.590371	0.117944	0.414420
	H99	H	0.405163	0.883769	0.413170
	H100	H	0.585911	0.403606	0.125029
	H101	H	0.586868	0.593674	0.889295
	H102	H	0.404028	0.602799	0.126261
	H103	H	0.398351	0.397752	0.885669
	H104	H	0.108359	0.587471	0.418421
	H105	H	0.881334	0.588565	0.592428
	H106	H	0.111119	0.408931	0.599942
	H107	H	0.876806	0.404928	0.405066
	H108	H	0.898621	0.618991	0.103023
	H109	H	0.084563	0.382639	0.099807
	H110	H	0.090105	0.615978	0.917100
	H111	H	0.911056	0.385599	0.916976
	H112	H	0.088386	0.915140	0.621246
	H113	H	0.084467	0.087908	0.391608
	H114	H	0.895589	0.089606	0.624325
	H115	H	0.898681	0.910866	0.390263
	H116	H	0.613289	0.098062	0.914095
	H117	H	0.379313	0.090480	0.098935
	H118	H	0.609384	0.905350	0.092877
	H119	H	0.376126	0.899014	0.914376
	C120	C	0.372512	0.008058	0.628685
	C121	C	0.615882	0.991183	0.627928
	C122	C	0.615915	0.008176	0.385418
	C123	C	0.372625	0.990916	0.385144
	C124	C	0.616450	0.378394	0.015726
	C125	C	0.616329	0.621460	0.998043
	C126	C	0.373310	0.621555	0.014728
	C127	C	0.373012	0.378374	0.998110
	C128	C	0.003020	0.620612	0.384787
	C129	C	0.986664	0.621064	0.628306
	C130	C	0.003375	0.377869	0.627342
	C131	C	0.986411	0.376823	0.383620
	C132	C	0.872926	0.507860	0.127750
	C133	C	0.116267	0.490966	0.127165
	C134	C	0.116134	0.508051	0.884577
	C135	C	0.873044	0.491207	0.884635
	C136	C	0.116422	0.877285	0.515076
	C137	C	0.116049	0.120020	0.498242
	C138	C	0.873177	0.120300	0.514596
	C139	C	0.872792	0.877738	0.497718
	C140	C	0.503685	0.121663	0.884696
	C141	C	0.486509	0.122063	0.128505
	C142	C	0.502908	0.877881	0.128624
	C143	C	0.486643	0.878205	0.885018
	C144	C	0.375935	0.884227	0.682999
	C145	C	0.613128	0.114930	0.682505
	C146	C	0.613337	0.884544	0.330208
	C147	C	0.375238	0.115032	0.331047
	C148	C	0.670385	0.381688	0.891468
	C149	C	0.670659	0.618764	0.121971
	C150	C	0.318911	0.618538	0.890835
	C151	C	0.318108	0.381632	0.121712
	C152	C	0.879142	0.674830	0.388041
	C153	C	0.110301	0.675276	0.624445
	C154	C	0.879685	0.323533	0.624148
	C155	C	0.110033	0.322147	0.386589
	C156	C	0.879972	0.380688	0.682399
	C157	C	0.110721	0.617701	0.682283
	C158	C	0.879091	0.616832	0.330722
	C159	C	0.110236	0.380193	0.329138
	C160	C	0.376593	0.676186	0.890977
	C161	C	0.613214	0.675949	0.122162
	C162	C	0.613519	0.324030	0.891359
	C163	C	0.376492	0.324722	0.122167
	C164	C	0.670374	0.884172	0.387731
	C165	C	0.671196	0.114556	0.625587
	C166	C	0.318750	0.883847	0.625198
	C167	C	0.317125	0.114543	0.388208
	C168	C	0.876177	0.383895	0.181604
	C169	C	0.113077	0.614816	0.182137
	C170	C	0.112897	0.383991	0.830205
	C171	C	0.876586	0.615092	0.830699
	C172	C	0.171426	0.879514	0.391378
	C173	C	0.170143	0.117865	0.622168
	C174	C	0.818509	0.116989	0.390722
	C175	C	0.818268	0.880371	0.621746
	C176	C	0.380267	0.176659	0.887630
	C177	C	0.610465	0.175952	0.125855
	C178	C	0.379422	0.823529	0.125151
	C179	C	0.610444	0.823957	0.887849
	C180	C	0.379223	0.881250	0.182786
	C181	C	0.609835	0.118476	0.183775
	C182	C	0.379920	0.118639	0.830393
	C183	C	0.610201	0.881544	0.830248
	C184	C	0.876040	0.174443	0.390592
	C185	C	0.113006	0.175486	0.621890
	C186	C	0.113107	0.822900	0.391015
	C187	C	0.876108	0.823094	0.621562
	C188	C	0.171700	0.384450	0.885900
	C189	C	0.170026	0.615278	0.124289
	C190	C	0.818129	0.384299	0.124601
	C191	C	0.818558	0.614902	0.887948
	C192	C	0.393872	0.094614	0.607015
	C193	C	0.594049	0.904567	0.606148
	C194	C	0.594107	0.094551	0.407764
	C195	C	0.394814	0.904533	0.406649
	C196	C	0.594699	0.400060	0.102064
	C197	C	0.594779	0.599887	0.911514
	C198	C	0.394778	0.599598	0.101204
	C199	C	0.394975	0.400185	0.911677
	C200	C	0.089520	0.599221	0.406295
	C201	C	0.900256	0.599192	0.606819
	C202	C	0.089572	0.399448	0.605267
	C203	C	0.900268	0.398600	0.405346
	C204	C	0.894708	0.594628	0.106213
	C205	C	0.094731	0.404780	0.104905
	C206	C	0.094414	0.594412	0.906370
	C207	C	0.894379	0.404355	0.906220
	C208	C	0.094892	0.899016	0.601614
	C209	C	0.094388	0.097807	0.411771
	C210	C	0.894922	0.098744	0.601024
	C211	C	0.894148	0.899558	0.411330
	C212	C	0.590093	0.100051	0.906305
	C213	C	0.400431	0.100263	0.106169
	C214	C	0.589122	0.899779	0.106787
	C215	C	0.400471	0.899993	0.907068
	Zn216	Zn	0.495022	-0.000358	0.756565
	Zn217	Zn	0.494349	0.000124	0.256859
	Zn218	Zn	0.744459	0.499913	0.006466
	Zn219	Zn	0.244173	0.500032	0.005743
	Zn220	Zn	-0.005667	0.749223	0.506077
	Zn221	Zn	-0.005032	0.248145	0.506086
	Zn222	Zn	-0.004676	0.499256	0.756263
	Zn223	Zn	-0.005246	0.499323	0.255493
	Zn224	Zn	0.495176	0.749786	0.006616
	Zn225	Zn	0.495500	0.250237	0.006567
	Zn226	Zn	0.744321	-0.001055	0.506816
	Zn227	Zn	0.244382	-0.001034	0.506910
	N228	N	0.408583	0.962413	0.685318
	N229	N	0.579377	0.037172	0.683766
	N230	N	0.579881	0.962578	0.328812
	N231	N	0.409044	0.037364	0.329112
	N232	N	0.672342	0.414758	0.969503
	N233	N	0.672781	0.585667	0.044018
	N234	N	0.316744	0.585142	0.968810
	N235	N	0.315818	0.414098	0.043434
	N236	N	0.957173	0.677182	0.420879
	N237	N	0.032196	0.677660	0.591878
	N238	N	0.957424	0.321672	0.590580
	N239	N	0.032180	0.319710	0.419635
	N240	N	0.957715	0.413920	0.684257
	N241	N	0.032760	0.584369	0.684350
	N242	N	0.957068	0.583709	0.328631
	N243	N	0.032420	0.413625	0.327283
	N244	N	0.409478	0.678095	0.968975
	N245	N	0.580026	0.677719	0.044058
	N246	N	0.580483	0.321894	0.969486
	N247	N	0.409712	0.322507	0.044319
	N248	N	0.672221	0.961968	0.421467
	N249	N	0.672795	0.036526	0.592288
	N250	N	0.316412	0.961892	0.592274
	N251	N	0.315528	0.036395	0.421289
	N252	N	0.909310	0.461902	0.183773
	N253	N	0.080249	0.536698	0.183861
	N254	N	0.079075	0.461739	0.829374
	N255	N	0.909740	0.537066	0.828647
	N256	N	0.173589	0.912671	0.469453
	N257	N	0.172130	0.084026	0.544280
	N258	N	0.816663	0.083830	0.468672
	N259	N	0.816171	0.913802	0.543869
	N260	N	0.458145	0.178617	0.920833
	N261	N	0.532560	0.178545	0.092250
	N262	N	0.457249	0.821600	0.092093
	N263	N	0.532517	0.821795	0.921189
	N264	N	0.457095	0.914353	0.185085
	N265	N	0.531929	0.085522	0.185318
	N266	N	0.457792	0.085278	0.828412
	N267	N	0.532210	0.914530	0.828289
	N268	N	0.909444	0.176410	0.468449
	N269	N	0.080106	0.176724	0.543784
	N270	N	0.079741	0.821274	0.468995
	N271	N	0.909130	0.821233	0.543520
	N272	N	0.173689	0.462469	0.919166
	N273	N	0.172300	0.537304	0.090841
	N274	N	0.816197	0.462546	0.091632
	N275	N	0.816428	0.536786	0.920761
	O276	O	1.069610	0.021083	1.059639
	H277	H	1.072613	0.030812	1.067132
	H278	H	1.071420	0.026236	1.047933
	O279	O	1.114259	-0.006434	0.040240
	H280	H	1.117364	-0.015171	0.038346
	H281	H	1.116074	-0.016905	0.044368
	O282	O	1.068542	0.986644	0.044675
	H283	H	1.066414	0.993130	0.047575
	H284	H	1.069248	0.987628	0.046874
	O285	O	0.062247	1.027069	0.033279
	H286	H	0.071499	1.029067	0.036402
	H287	H	0.062809	1.022137	0.030470
