data_Molecule from HDF5

_cell_length_a		16.456526
_cell_length_b		16.548067
_cell_length_c		16.551587
_cell_angle_alpha	89.949750
_cell_angle_beta	90.053571
_cell_angle_gamma	90.104807
_symmetry_space_group_name_H-M	'P 1'
_symmetry_Int_Tables_number		1

loop_
	_symmetry_equiv_pos_as_xyz
	x,y,z

loop_
	_atom_site_label
	_atom_site_type_symbol
	_atom_site_fract_x
	_atom_site_fract_y
	_atom_site_fract_z
	H0	H	0.417052	0.866896	0.708913
	H1	H	0.628837	0.179795	0.706773
	H2	H	0.630860	0.866134	0.262407
	H3	H	0.418345	0.179361	0.262849
	H4	H	0.748316	0.415763	0.831121
	H5	H	0.746939	0.628955	0.142933
	H6	H	0.306839	0.622598	0.826421
	H7	H	0.305249	0.420873	0.144044
	H8	H	0.867267	0.746759	0.377241
	H9	H	0.180394	0.745189	0.590582
	H10	H	0.865617	0.301494	0.590999
	H11	H	0.181115	0.303260	0.382174
	H12	H	0.865999	0.416078	0.708018
	H13	H	0.180731	0.628827	0.707009
	H14	H	0.867377	0.629963	0.261716
	H15	H	0.181832	0.419295	0.266587
	H16	H	0.421921	0.741261	0.827112
	H17	H	0.632221	0.747073	0.141168
	H18	H	0.630534	0.300946	0.830087
	H19	H	0.420642	0.302040	0.144010
	H20	H	0.745277	0.864978	0.381231
	H21	H	0.745042	0.179507	0.589926
	H22	H	0.301835	0.866434	0.590520
	H23	H	0.303914	0.180681	0.381389
	H24	H	0.920505	0.365401	0.206833
	H25	H	0.128899	0.679939	0.206511
	H26	H	0.124225	0.365044	0.768391
	H27	H	0.915632	0.678759	0.762168
	H28	H	0.242848	0.920322	0.327688
	H29	H	0.244654	0.128334	0.641861
	H30	H	0.803410	0.124962	0.326877
	H31	H	0.801933	0.917423	0.643585
	H32	H	0.366159	0.240478	0.885183
	H33	H	0.682183	0.245844	0.093899
	H34	H	0.366150	0.803695	0.088564
	H35	H	0.683335	0.802811	0.881543
	H36	H	0.365792	0.919033	0.204735
	H37	H	0.681759	0.130122	0.209892
	H38	H	0.366652	0.125030	0.768027
	H39	H	0.683489	0.920165	0.766593
	H40	H	0.918948	0.243585	0.327437
	H41	H	0.126712	0.244197	0.641831
	H42	H	0.127266	0.802969	0.328366
	H43	H	0.915325	0.797989	0.641593
	H44	H	0.239723	0.364280	0.886898
	H45	H	0.244266	0.680578	0.088839
	H46	H	0.802392	0.365694	0.092426
	H47	H	0.803079	0.679875	0.882235
	H48	H	0.438745	0.134830	0.580069
	H49	H	0.610272	0.912929	0.569236
	H50	H	0.618372	0.135084	0.399317
	H51	H	0.427712	0.907980	0.394659
	H52	H	0.616217	0.439909	0.097665
	H53	H	0.608793	0.611279	0.876438
	H54	H	0.433890	0.616942	0.099576
	H55	H	0.434755	0.430811	0.874157
	H56	H	0.137170	0.610790	0.393146
	H57	H	0.913661	0.605687	0.570113
	H58	H	0.135790	0.434812	0.578207
	H59	H	0.908794	0.432683	0.393408
	H60	H	0.136924	0.432211	0.575229
	H61	H	0.910565	0.608586	0.578531
	H62	H	0.137443	0.617272	0.397489
	H63	H	0.911059	0.432817	0.399910
	H64	H	0.431931	0.611536	0.098950
	H65	H	0.614636	0.615567	0.872492
	H66	H	0.606031	0.434001	0.096032
	H67	H	0.433331	0.429736	0.873138
	H68	H	0.610680	0.135426	0.390896
	H69	H	0.619008	0.907248	0.578433
	H70	H	0.435276	0.134328	0.571611
	H71	H	0.439468	0.910560	0.390614
	H72	H	0.940095	0.635754	0.081046
	H73	H	0.111868	0.410597	0.078187
	H74	H	0.120091	0.637144	0.897500
	H75	H	0.937788	0.413334	0.900738
	H76	H	0.109227	0.935467	0.596486
	H77	H	0.114904	0.109827	0.372289
	H78	H	0.937838	0.112237	0.595593
	H79	H	0.934722	0.941396	0.377766
	H80	H	0.640949	0.118981	0.896968
	H81	H	0.409066	0.117638	0.080117
	H82	H	0.634620	0.938116	0.069901
	H83	H	0.410417	0.938198	0.887823
	H84	H	0.637942	0.937988	0.078593
	H85	H	0.414772	0.113751	0.066018
	H86	H	0.635925	0.109736	0.903015
	H87	H	0.407929	0.922414	0.896070
	H88	H	0.933468	0.118448	0.599350
	H89	H	0.109006	0.113552	0.373600
	H90	H	0.111699	0.931415	0.598684
	H91	H	0.941075	0.931383	0.375790
	H92	H	0.114845	0.638788	0.889246
	H93	H	0.115794	0.410021	0.074780
	H94	H	0.940515	0.631167	0.068748
	H95	H	0.932069	0.409854	0.897954
	H96	H	0.430195	0.137623	0.578530
	H97	H	0.606439	0.910522	0.581940
	H98	H	0.607559	0.131253	0.401062
	H99	H	0.435936	0.913758	0.402673
	H100	H	0.615638	0.428779	0.101148
	H101	H	0.615863	0.607486	0.874362
	H102	H	0.438101	0.612725	0.097003
	H103	H	0.432680	0.431738	0.872866
	H104	H	0.134398	0.610547	0.400478
	H105	H	0.909981	0.614108	0.570355
	H106	H	0.135297	0.435410	0.574015
	H107	H	0.911759	0.438805	0.396507
	H108	H	0.929524	0.636637	0.073206
	H109	H	0.116506	0.407835	0.079865
	H110	H	0.110402	0.635416	0.897664
	H111	H	0.938274	0.411092	0.894129
	H112	H	0.114189	0.936175	0.597956
	H113	H	0.114671	0.116610	0.370816
	H114	H	0.930180	0.110426	0.598286
	H115	H	0.929598	0.932248	0.371635
	H116	H	0.639314	0.108406	0.891336
	H117	H	0.413958	0.102898	0.077436
	H118	H	0.638375	0.930174	0.073086
	H119	H	0.415241	0.936173	0.904179
	C120	C	0.402232	0.031703	0.608089
	C121	C	0.644805	1.014207	0.607799
	C122	C	0.645160	0.030452	0.364350
	C123	C	0.402518	1.014807	0.364165
	C124	C	0.645454	0.401470	-0.004832
	C125	C	0.645979	0.643963	0.977887
	C126	C	0.403535	0.644042	-0.006155
	C127	C	0.402896	0.400837	0.978142
	C128	C	0.032313	0.645119	0.363924
	C129	C	1.014907	0.643395	0.605917
	C130	C	0.031728	0.401715	0.607493
	C131	C	1.015382	0.402867	0.365106
	C132	C	0.903866	0.530964	0.107195
	C133	C	0.146359	0.514023	0.108449
	C134	C	0.145070	0.531950	0.864536
	C135	C	0.902649	0.514734	0.865021
	C136	C	0.144094	0.902417	0.493617
	C137	C	0.144620	0.145131	0.476391
	C138	C	0.901793	0.144661	0.493474
	C139	C	0.901741	0.901342	0.478001
	C140	C	0.533804	0.143671	0.865990
	C141	C	0.516459	0.144121	0.107769
	C142	C	0.532734	0.902717	0.106188
	C143	C	0.516187	0.901072	0.864250
	C144	C	0.399183	0.913895	0.668476
	C145	C	0.647476	0.132752	0.667077
	C146	C	0.648485	0.912778	0.303551
	C147	C	0.400394	0.132643	0.303690
	C148	C	0.707218	0.398246	0.877955
	C149	C	0.706974	0.647177	0.095710
	C150	C	0.345966	0.642710	0.874137
	C151	C	0.344575	0.401042	0.096954
	C152	C	0.914018	0.705756	0.360145
	C153	C	0.133361	0.704466	0.608780
	C154	C	0.912912	0.341617	0.609413
	C155	C	0.134162	0.343439	0.363722
	C156	C	0.913352	0.398339	0.668039
	C157	C	0.133359	0.646649	0.666688
	C158	C	0.914312	0.647847	0.302365
	C159	C	0.134389	0.400967	0.306252
	C160	C	0.402876	0.701908	0.874510
	C161	C	0.649577	0.705633	0.095019
	C162	C	0.648697	0.340805	0.877415
	C163	C	0.402023	0.342217	0.096882
	C164	C	0.705285	0.912166	0.362627
	C165	C	0.705057	0.132523	0.608872
	C166	C	0.341662	0.913773	0.609811
	C167	C	0.343418	0.133286	0.362568
	C168	C	0.901491	0.412637	0.167347
	C169	C	0.147611	0.632887	0.166803
	C170	C	0.144426	0.412696	0.807247
	C171	C	0.898485	0.632049	0.803417
	C172	C	0.203440	0.901596	0.375297
	C173	C	0.204816	0.147398	0.594556
	C174	C	0.842868	0.144574	0.374493
	C175	C	0.841337	0.898525	0.595996
	C176	C	0.413920	0.201482	0.865675
	C177	C	0.634982	0.205257	0.111618
	C178	C	0.413868	0.842904	0.107628
	C179	C	0.635723	0.842551	0.863030
	C180	C	0.413515	0.900446	0.165522
	C181	C	0.634867	0.147470	0.169208
	C182	C	0.414011	0.144043	0.807732
	C183	C	0.635881	0.901070	0.805994
	C184	C	0.900244	0.203466	0.374580
	C185	C	0.146320	0.204925	0.594537
	C186	C	0.145673	0.843310	0.375250
	C187	C	0.897585	0.839037	0.595089
	C188	C	0.201388	0.412033	0.866208
	C189	C	0.205045	0.632979	0.108412
	C190	C	0.843022	0.412779	0.110230
	C191	C	0.842438	0.632816	0.863047
	C192	C	0.427591	0.114233	0.583649
	C193	C	0.619197	0.931678	0.583344
	C194	C	0.619499	0.112494	0.389683
	C195	C	0.427334	0.932290	0.388921
	C196	C	0.619648	0.426850	0.077174
	C197	C	0.620287	0.618623	0.895907
	C198	C	0.427583	0.620632	0.076916
	C199	C	0.426722	0.424252	0.894914
	C200	C	0.114973	0.620080	0.389671
	C201	C	0.932740	0.617242	0.580186
	C202	C	0.114379	0.427039	0.582832
	C203	C	0.932179	0.427680	0.389674
	C204	C	0.929332	0.613104	0.081828
	C205	C	0.121713	0.431065	0.084582
	C206	C	0.121910	0.615430	0.888053
	C207	C	0.928572	0.432748	0.890407
	C208	C	0.118714	0.927183	0.576147
	C209	C	0.119771	0.120442	0.393724
	C210	C	0.926645	0.120653	0.576124
	C211	C	0.927775	0.927460	0.396379
	C212	C	0.617205	0.119445	0.890086
	C213	C	0.434260	0.118744	0.082041
	C214	C	0.615421	0.928034	0.081255
	C215	C	0.432905	0.925195	0.888901
	Zn216	Zn	0.524393	0.023120	0.737072
	Zn217	Zn	0.524282	0.022434	0.235373
	Zn218	Zn	0.774903	0.523052	-0.013159
	Zn219	Zn	0.274203	0.522936	-0.014003
	Zn220	Zn	0.022956	0.773002	0.485626
	Zn221	Zn	0.022981	0.274080	0.484689
	Zn222	Zn	0.022968	0.523364	0.735718
	Zn223	Zn	0.024028	0.523027	0.236448
	Zn224	Zn	0.524949	0.773448	-0.014357
	Zn225	Zn	0.524680	0.271908	-0.013005
	Zn226	Zn	0.773270	0.022325	0.486324
	Zn227	Zn	0.273571	0.023495	0.485931
	N228	N	0.436049	0.988297	0.667546
	N229	N	0.610777	0.058180	0.666405
	N230	N	0.612253	0.987479	0.304267
	N231	N	0.436496	0.057902	0.304425
	N232	N	0.705363	0.435267	0.952094
	N233	N	0.704755	0.609477	0.021947
	N234	N	0.346021	0.607638	0.949398
	N235	N	0.344994	0.436571	0.021964
	N236	N	0.988399	0.704441	0.397485
	N237	N	0.058577	0.702755	0.571949
	N238	N	0.987603	0.343279	0.572568
	N239	N	0.058917	0.344454	0.399520
	N240	N	0.988099	0.435235	0.666819
	N241	N	0.058715	0.609474	0.665113
	N242	N	0.988906	0.610845	0.304705
	N243	N	0.059476	0.437310	0.307096
	N244	N	0.437854	0.702926	0.949812
	N245	N	0.612338	0.703814	0.020812
	N246	N	0.611040	0.342634	0.951461
	N247	N	0.437314	0.341813	0.021866
	N248	N	0.703504	0.986493	0.399624
	N249	N	0.703545	0.057837	0.572835
	N250	N	0.343635	0.988080	0.572814
	N251	N	0.344775	0.058993	0.399368
	N252	N	0.938545	0.487102	0.165554
	N253	N	0.111942	0.557824	0.166846
	N254	N	0.110596	0.488487	0.805747
	N255	N	0.935086	0.557571	0.804481
	N256	N	0.202588	0.937487	0.450129
	N257	N	0.204008	0.111100	0.520060
	N258	N	0.843620	0.108874	0.449451
	N259	N	0.843666	0.936219	0.522120
	N260	N	0.489408	0.201361	0.901088
	N261	N	0.560562	0.203222	0.074123
	N262	N	0.489031	0.843899	0.071674
	N263	N	0.559979	0.842122	0.898085
	N264	N	0.488615	0.936609	0.164883
	N265	N	0.560200	0.110052	0.167009
	N266	N	0.489701	0.109084	0.807606
	N267	N	0.560375	0.936305	0.806500
	N268	N	0.935805	0.203952	0.449728
	N269	N	0.109896	0.203735	0.519899
	N270	N	0.109630	0.843590	0.450027
	N271	N	0.934451	0.840675	0.520646
	N272	N	0.202080	0.487492	0.900854
	N273	N	0.204628	0.557971	0.073064
	N274	N	0.844377	0.487250	0.073594
	N275	N	0.845019	0.558894	0.900666
	O276	O	0.711982	0.352498	0.303365
	H277	H	0.708880	0.373094	0.291893
	H278	H	0.692963	0.371335	0.301770
	O279	O	-0.028097	-0.188558	1.093808
	H280	H	-0.012839	-0.207283	1.088381
	H281	H	-0.038236	-0.179247	1.101669
	O282	O	0.725084	0.503901	0.506042
	H283	H	0.727539	0.493800	0.510819
	H284	H	0.711530	0.497148	0.503596
	O285	O	0.679350	0.379216	0.639958
	H286	H	0.666765	0.390798	0.631706
	H287	H	0.661176	0.373390	0.624246
	O288	O	1.114192	-0.142159	1.169707
	H289	H	1.118981	-0.162758	1.187542
	H290	H	1.090633	-0.131760	1.163798
	O291	O	0.213464	1.211665	-0.202473
	H292	H	0.192530	1.193670	-0.186475
	H293	H	0.194789	1.193436	-0.183296
	O294	O	-0.063486	-0.121107	-0.118915
	H295	H	-0.041332	-0.125277	-0.113636
	H296	H	-0.061898	-0.111941	-0.091111
	O297	O	0.626812	0.486527	1.432254
	H298	H	0.627385	0.484291	1.426634
	H299	H	0.622334	0.490039	1.429797
	O300	O	-0.011738	-0.175842	0.068728
	H301	H	-0.008466	-0.179131	0.084228
	H302	H	-0.026917	-0.181389	0.069942
	O303	O	-0.063476	0.169254	0.130828
	H304	H	-0.062491	0.170109	0.120108
	H305	H	-0.070343	0.173255	0.126385
	O306	O	0.962618	0.045011	-0.023653
	H307	H	0.964246	0.040798	-0.028874
	H308	H	0.966345	0.047798	-0.046905
	O309	O	0.545271	0.649991	0.258504
	H310	H	0.534572	0.672794	0.236238
	H311	H	0.520297	0.654665	0.275645
	O312	O	0.578836	0.465036	0.716185
	H313	H	0.575300	0.477605	0.718796
	H314	H	0.582524	0.487381	0.720388
	O315	O	0.317536	0.728992	0.282295
	H316	H	0.305638	0.702400	0.267332
	H317	H	0.313714	0.732222	0.330948
	O318	O	0.297956	0.486628	-0.291993
	H319	H	0.293433	0.455233	-0.285415
	H320	H	0.277639	0.464361	-0.270573
	O321	O	0.493953	0.429519	0.596331
	H322	H	0.490502	0.432704	0.582294
	H323	H	0.490816	0.435507	0.607181
	O324	O	1.481596	-0.528003	0.263481
	H325	H	1.485644	-0.535037	0.272981
	H326	H	1.478605	-0.530542	0.259939
	O327	O	0.334086	0.634423	0.578932
	H328	H	0.337598	0.623629	0.566086
	H329	H	0.335645	0.621788	0.583331
	O330	O	-0.075940	1.002957	0.125803
	H331	H	-0.089186	1.002185	0.128647
	H332	H	-0.081300	1.003997	0.121685
	O333	O	0.225597	0.093005	0.906056
	H334	H	0.212197	0.105357	0.903657
	H335	H	0.226692	0.083278	0.899660
	O336	O	0.639478	0.409522	0.540502
	H337	H	0.644040	0.395217	0.526526
	H338	H	0.622335	0.409426	0.532996
	O339	O	0.745338	0.308034	0.456903
	H340	H	0.755284	0.296120	0.430829
	H341	H	0.757459	0.296721	0.431172
	O342	O	-0.181334	1.181185	-0.217045
	H343	H	-0.176935	1.149698	-0.214279
	H344	H	-0.201164	1.199136	-0.246379
	O345	O	1.084344	0.939093	-0.156253
	H346	H	1.084425	0.948730	-0.159544
	H347	H	1.083030	0.928768	-0.163637
	O348	O	0.503520	0.725339	0.599980
	H349	H	0.507294	0.721678	0.602776
	H350	H	0.513822	0.734237	0.601840
	O351	O	-0.278290	-0.277600	0.687552
	H352	H	-0.268323	-0.287687	0.698287
	H353	H	-0.289604	-0.286301	0.673843
	O354	O	1.016502	0.004843	1.092504
	H355	H	1.004890	0.011619	1.074853
	H356	H	1.007480	0.006875	1.092924
	O357	O	0.097759	0.164568	1.105849
	H358	H	0.094857	0.153013	1.106331
	H359	H	0.103340	0.164808	1.122074
	O360	O	-0.194940	0.240651	0.911056
	H361	H	-0.194921	0.246300	0.879484
	H362	H	-0.212345	0.254678	0.898695
	O363	O	0.488625	0.311332	0.700775
	H364	H	0.497852	0.303180	0.699246
	H365	H	0.509760	0.317918	0.710349
	O366	O	1.307681	0.443169	0.479110
	H367	H	1.304948	0.420533	0.478222
	H368	H	1.313104	0.438391	0.488478
	O369	O	-0.422866	-0.260179	0.450358
	H370	H	-0.404338	-0.255158	0.437788
	H371	H	-0.405544	-0.269036	0.448056
	O372	O	0.030066	1.053414	0.861365
	H373	H	0.027299	1.054769	0.878350
	H374	H	0.021770	1.059325	0.857648
	O375	O	1.055378	-0.059372	-0.042914
	H376	H	1.044359	-0.052410	-0.038567
	H377	H	1.068988	-0.073159	-0.036924
	O378	O	0.492842	0.640934	0.326144
	H379	H	0.469333	0.640191	0.331604
	H380	H	0.492118	0.660161	0.306709
	O381	O	-0.334043	0.535334	-0.726964
	H382	H	-0.336061	0.550783	-0.751267
	H383	H	-0.361259	0.537480	-0.732885
	O384	O	0.521249	0.751508	0.648458
	H385	H	0.514490	0.777825	0.668317
	H386	H	0.557557	0.741878	0.630635
	O387	O	0.314873	0.314261	0.693983
	H388	H	0.361448	0.305187	0.693168
	H389	H	0.285161	0.279062	0.725995
	O390	O	-0.004762	1.228733	0.780023
	H391	H	-0.021342	1.222636	0.778507
	H392	H	-0.009263	1.239462	0.766409
	O393	O	1.322773	0.326028	0.287950
	H394	H	1.318042	0.334720	0.306704
	H395	H	1.321348	0.319455	0.277192
	O396	O	-0.189889	-0.107955	-0.024065
	H397	H	-0.185065	-0.113544	-0.018962
	H398	H	-0.191408	-0.130160	-0.013378
	O399	O	-0.001259	1.072629	1.007979
	H400	H	0.003496	1.077680	1.011828
	H401	H	-0.004879	1.071949	1.003568
	O402	O	1.236570	0.055627	1.200588
	H403	H	1.236773	0.071293	1.196336
	H404	H	1.255127	0.055557	1.217809
	O405	O	0.740636	0.741529	0.507825
	H406	H	0.752103	0.748716	0.527394
	H407	H	0.765201	0.739090	0.507583
	O408	O	1.156206	1.240187	0.983278
	H409	H	1.163811	1.260750	0.977116
	H410	H	1.145640	1.224106	1.008745
	O411	O	0.315202	0.735418	0.448711
	H412	H	0.296412	0.744427	0.460862
	H413	H	0.322698	0.726255	0.464443
	O414	O	0.098452	-0.075342	0.087238
	H415	H	0.105290	-0.077794	0.083134
	H416	H	0.105857	-0.082588	0.087257
	O417	O	0.619629	0.535998	0.560979
	H418	H	0.609283	0.532092	0.550852
	H419	H	0.618790	0.508079	0.548793
	O420	O	0.940382	0.089399	1.058798
	H421	H	0.941960	0.089930	1.049003
	H422	H	0.930535	0.067064	1.063952
	O423	O	1.386309	1.513528	0.508047
	H424	H	1.374371	1.503392	0.511068
	H425	H	1.387132	1.520913	0.516372
	O426	O	-0.021328	0.920803	0.851279
	H427	H	-0.023195	0.912293	0.865051
	H428	H	-0.020744	0.919370	0.860166
	O429	O	0.447130	0.301328	0.411259
	H430	H	0.434775	0.307609	0.415843
	H431	H	0.427214	0.299172	0.411588
	O432	O	1.230845	0.229724	1.167346
	H433	H	1.200727	0.215492	1.167651
	H434	H	1.242144	0.235624	1.158631
	O435	O	0.497895	0.555561	0.443346
	H436	H	0.494646	0.567113	0.447646
	H437	H	0.496311	0.570763	0.452461
	O438	O	0.311006	0.556077	0.272503
	H439	H	0.323809	0.551338	0.268764
	H440	H	0.288183	0.548169	0.266599
	O441	O	0.737693	0.531258	0.674518
	H442	H	0.755028	0.521178	0.675884
	H443	H	0.750036	0.538634	0.667455
	O444	O	1.228789	-0.103494	-0.224583
	H445	H	1.244433	-0.111619	-0.229878
	H446	H	1.247923	-0.107148	-0.226908
	O447	O	0.713739	-0.327628	1.336132
	H448	H	0.711784	-0.340631	1.367478
	H449	H	0.688184	-0.346803	1.325989
	O450	O	0.345166	0.349570	0.511998
	H451	H	0.321473	0.328395	0.522003
	H452	H	0.355814	0.361734	0.539379
	O453	O	0.411763	0.651913	0.645905
	H454	H	0.426894	0.644409	0.635337
	H455	H	0.417400	0.644792	0.633124
	O456	O	-0.168887	0.820992	1.180609
	H457	H	-0.159508	0.854810	1.189306
	H458	H	-0.189399	0.803792	1.190850
	O459	O	0.822531	1.029531	0.812875
	H460	H	0.822496	1.029300	0.804669
	H461	H	0.831399	1.013744	0.814692
	O462	O	0.550910	0.319733	0.282435
	H463	H	0.547676	0.313511	0.288310
	H464	H	0.534191	0.311882	0.273786
	O465	O	0.843412	0.025424	1.164119
	H466	H	0.818735	0.041352	1.166784
	H467	H	0.837737	0.026793	1.143618
	O468	O	-0.822994	0.086488	-0.046965
	H469	H	-0.816976	0.075526	-0.048883
	H470	H	-0.833371	0.085477	-0.025833
	O471	O	0.016064	0.079613	1.047343
	H472	H	0.026702	0.074225	1.062595
	H473	H	-0.005656	0.065469	1.054152
	O474	O	1.082858	0.952094	-0.219730
	H475	H	1.107861	0.937528	-0.226010
	H476	H	1.088654	0.942709	-0.226975
	O477	O	0.241635	0.802684	0.889963
	H478	H	0.247477	0.791231	0.899954
	H479	H	0.255163	0.790399	0.867862
