data_Molecule from HDF5

_cell_length_a		16.250770
_cell_length_b		16.013990
_cell_length_c		16.359174
_cell_angle_alpha	90.220053
_cell_angle_beta	89.727196
_cell_angle_gamma	89.408095
_symmetry_space_group_name_H-M	'P 1'
_symmetry_Int_Tables_number		1

loop_
	_symmetry_equiv_pos_as_xyz
	x,y,z

loop_
	_atom_site_label
	_atom_site_type_symbol
	_atom_site_fract_x
	_atom_site_fract_y
	_atom_site_fract_z
	H0	H	0.386436	0.834374	0.706347
	H1	H	0.585564	0.164005	0.707344
	H2	H	0.592079	0.834258	0.273840
	H3	H	0.384999	0.163714	0.276819
	H4	H	0.706833	0.392591	0.830228
	H5	H	0.701130	0.601014	0.153583
	H6	H	0.269426	0.599070	0.829637
	H7	H	0.268226	0.396089	0.153247
	H8	H	0.822423	0.714392	0.397194
	H9	H	0.152712	0.708846	0.588980
	H10	H	0.822756	0.286451	0.589840
	H11	H	0.151321	0.282959	0.392845
	H12	H	0.824157	0.397433	0.710360
	H13	H	0.149907	0.599065	0.709704
	H14	H	0.823808	0.604917	0.275905
	H15	H	0.147868	0.392281	0.271337
	H16	H	0.388551	0.712267	0.827573
	H17	H	0.583272	0.713266	0.153519
	H18	H	0.587406	0.280956	0.829324
	H19	H	0.388131	0.284988	0.154589
	H20	H	0.703636	0.832691	0.391800
	H21	H	0.699108	0.164570	0.590699
	H22	H	0.276566	0.832158	0.589469
	H23	H	0.269524	0.162324	0.390778
	H24	H	0.883411	0.333705	0.208980
	H25	H	0.084494	0.663107	0.208779
	H26	H	0.089042	0.333130	0.776473
	H27	H	0.886298	0.664514	0.780634
	H28	H	0.206941	0.893369	0.329915
	H29	H	0.201973	0.098991	0.653679
	H30	H	0.770293	0.101403	0.330215
	H31	H	0.768696	0.896611	0.653011
	H32	H	0.322898	0.214834	0.894457
	H33	H	0.652201	0.209871	0.086781
	H34	H	0.321586	0.790667	0.086730
	H35	H	0.651707	0.784122	0.892943
	H36	H	0.325060	0.899090	0.208661
	H37	H	0.649837	0.101640	0.208280
	H38	H	0.323399	0.103168	0.775257
	H39	H	0.649109	0.895126	0.772256
	H40	H	0.888666	0.214261	0.329332
	H41	H	0.083966	0.211811	0.654705
	H42	H	0.087355	0.781218	0.329023
	H43	H	0.891204	0.788693	0.656470
	H44	H	0.202054	0.332611	0.892813
	H45	H	0.198245	0.664574	0.092622
	H46	H	0.773469	0.331793	0.089992
	H47	H	0.772024	0.664274	0.894859
	H48	H	0.395181	0.118390	0.586425
	H49	H	0.585477	0.880070	0.577712
	H50	H	0.574295	0.115241	0.400513
	H51	H	0.392494	0.882151	0.411340
	H52	H	0.578095	0.408983	0.105873
	H53	H	0.575364	0.581312	0.878543
	H54	H	0.391430	0.586562	0.105900
	H55	H	0.396127	0.404220	0.875709
	H56	H	0.103442	0.582761	0.393128
	H57	H	0.870103	0.592105	0.590146
	H58	H	0.105420	0.408388	0.592508
	H59	H	0.869663	0.408383	0.397239
	H60	H	0.106002	0.397823	0.584647
	H61	H	0.868924	0.595073	0.588023
	H62	H	0.104263	0.593280	0.400063
	H63	H	0.870800	0.405554	0.402608
	H64	H	0.397217	0.597616	0.107138
	H65	H	0.576358	0.599326	0.873311
	H66	H	0.579513	0.403945	0.108351
	H67	H	0.392742	0.408730	0.875809
	H68	H	0.581411	0.118009	0.401764
	H69	H	0.577937	0.878746	0.588737
	H70	H	0.394570	0.116913	0.580904
	H71	H	0.392004	0.873714	0.387193
	H72	H	0.876666	0.618497	0.076334
	H73	H	0.076834	0.381292	0.081103
	H74	H	0.073531	0.616741	0.898365
	H75	H	0.904229	0.378723	0.889771
	H76	H	0.081388	0.894731	0.609930
	H77	H	0.082008	0.088597	0.375545
	H78	H	0.890876	0.091679	0.608556
	H79	H	0.902521	0.910847	0.379044
	H80	H	0.599444	0.085352	0.903235
	H81	H	0.367797	0.099003	0.085622
	H82	H	0.604767	0.907333	0.085911
	H83	H	0.367369	0.897811	0.900793
	H84	H	0.605380	0.903186	0.081669
	H85	H	0.374531	0.087482	0.078685
	H86	H	0.603425	0.082558	0.891544
	H87	H	0.374319	0.916331	0.903216
	H88	H	0.892520	0.091256	0.608329
	H89	H	0.079669	0.086285	0.376490
	H90	H	0.091784	0.908476	0.609802
	H91	H	0.896971	0.898886	0.374518
	H92	H	0.078211	0.615916	0.904294
	H93	H	0.078301	0.380343	0.081864
	H94	H	0.895375	0.621376	0.103406
	H95	H	0.900544	0.384276	0.909394
	H96	H	0.390241	0.118929	0.583057
	H97	H	0.572625	0.883132	0.578371
	H98	H	0.578153	0.117873	0.395127
	H99	H	0.413780	0.883183	0.397416
	H100	H	0.582918	0.408100	0.108200
	H101	H	0.591696	0.588557	0.872004
	H102	H	0.385050	0.596935	0.111276
	H103	H	0.397088	0.409426	0.878365
	H104	H	0.099883	0.582491	0.404377
	H105	H	0.870923	0.592318	0.587162
	H106	H	0.100903	0.409321	0.579660
	H107	H	0.871274	0.410968	0.401475
	H108	H	0.908181	0.608534	0.074690
	H109	H	0.076806	0.380380	0.082807
	H110	H	0.080378	0.619328	0.897750
	H111	H	0.885332	0.375733	0.898370
	H112	H	0.075354	0.911272	0.604274
	H113	H	0.078641	0.089478	0.375228
	H114	H	0.892044	0.091889	0.608715
	H115	H	0.888765	0.909956	0.374445
	H116	H	0.605649	0.094540	0.896181
	H117	H	0.369954	0.086871	0.092567
	H118	H	0.602859	0.908826	0.080416
	H119	H	0.367576	0.909943	0.886012
	C120	C	0.365354	0.007958	0.612116
	C121	C	0.607370	0.990105	0.611683
	C122	C	0.609029	0.007634	0.369669
	C123	C	0.367710	0.989090	0.370063
	C124	C	0.609906	0.375909	0.000161
	C125	C	0.608541	0.619710	0.982524
	C126	C	0.362977	0.622003	0.000191
	C127	C	0.365556	0.377588	0.983374
	C128	C	-0.005060	0.619033	0.370933
	C129	C	0.978578	0.620804	0.615545
	C130	C	-0.004646	0.376761	0.614187
	C131	C	0.977793	0.376472	0.369825
	C132	C	0.864210	0.507037	0.113888
	C133	C	0.106180	0.489662	0.112366
	C134	C	0.107954	0.507417	0.870474
	C135	C	0.865956	0.489051	0.871043
	C136	C	0.111834	0.874304	0.500527
	C137	C	0.108724	0.118614	0.483035
	C138	C	0.863958	0.121146	0.500990
	C139	C	0.866561	0.877707	0.483711
	C140	C	0.495311	0.119529	0.869002
	C141	C	0.479019	0.120324	0.113345
	C142	C	0.496103	0.878120	0.111978
	C143	C	0.477846	0.876788	0.867669
	C144	C	0.367011	0.883483	0.667972
	C145	C	0.605490	0.114586	0.668594
	C146	C	0.610480	0.883437	0.312669
	C147	C	0.366564	0.114072	0.314881
	C148	C	0.667364	0.374822	0.878464
	C149	C	0.662975	0.619501	0.104936
	C150	C	0.307476	0.619517	0.878052
	C151	C	0.307618	0.377313	0.105043
	C152	C	0.871703	0.676878	0.374929
	C153	C	0.102725	0.673549	0.610926
	C154	C	0.872052	0.322971	0.611328
	C155	C	0.101518	0.319902	0.371759
	C156	C	0.872950	0.378296	0.671283
	C157	C	0.101455	0.618845	0.671033
	C158	C	0.872263	0.622110	0.314843
	C159	C	0.099907	0.374442	0.311316
	C160	C	0.366762	0.675940	0.876987
	C161	C	0.604105	0.675430	0.105165
	C162	C	0.607974	0.319114	0.877883
	C163	C	0.367411	0.322047	0.105701
	C164	C	0.666157	0.882660	0.371351
	C165	C	0.661890	0.114809	0.610609
	C166	C	0.312479	0.882428	0.609662
	C167	C	0.309203	0.113391	0.371569
	C168	C	0.864640	0.382808	0.170437
	C169	C	0.104244	0.614046	0.169588
	C170	C	0.108148	0.382852	0.814283
	C171	C	0.866732	0.614630	0.817422
	C172	C	0.168090	0.874202	0.378501
	C173	C	0.164227	0.118531	0.605128
	C174	C	0.808428	0.120960	0.378681
	C175	C	0.808564	0.878331	0.605273
	C176	C	0.371995	0.176733	0.873156
	C177	C	0.602728	0.173844	0.108641
	C178	C	0.371758	0.825652	0.108495
	C179	C	0.601818	0.821048	0.871361
	C180	C	0.373454	0.879988	0.169194
	C181	C	0.601641	0.119651	0.169097
	C182	C	0.372250	0.121551	0.813466
	C183	C	0.600800	0.876208	0.811162
	C184	C	0.867712	0.176602	0.378173
	C185	C	0.105022	0.174309	0.605846
	C186	C	0.108688	0.818240	0.378098
	C187	C	0.869756	0.824838	0.607151
	C188	C	0.164449	0.382525	0.872218
	C189	C	0.160728	0.614591	0.111774
	C190	C	0.809584	0.381982	0.111525
	C191	C	0.810024	0.614499	0.874508
	C192	C	0.386908	0.095412	0.589881
	C193	C	0.585141	0.903186	0.588502
	C194	C	0.584935	0.094548	0.392479
	C195	C	0.392157	0.902436	0.392255
	C196	C	0.586836	0.399861	0.085298
	C197	C	0.587352	0.596466	0.896791
	C198	C	0.384674	0.600262	0.085866
	C199	C	0.388496	0.400663	0.898569
	C200	C	0.080154	0.593585	0.392684
	C201	C	0.892405	0.599555	0.594713
	C202	C	0.081677	0.398758	0.591958
	C203	C	0.892506	0.401073	0.393477
	C204	C	0.886700	0.593603	0.091420
	C205	C	0.083856	0.403124	0.088802
	C206	C	0.084135	0.594840	0.893458
	C207	C	0.889655	0.401842	0.892665
	C208	C	0.089498	0.897998	0.586068
	C209	C	0.086672	0.095003	0.397793
	C210	C	0.885451	0.098282	0.586267
	C211	C	0.889268	0.900080	0.398255
	C212	C	0.580748	0.094758	0.890467
	C213	C	0.392903	0.097840	0.092038
	C214	C	0.582124	0.899925	0.089332
	C215	C	0.392072	0.901057	0.890044
	Zn216	Zn	0.485756	-0.001173	0.738883
	Zn217	Zn	0.488247	-0.000985	0.242016
	Zn218	Zn	0.737824	0.498141	-0.008059
	Zn219	Zn	0.235124	0.498426	-0.007762
	Zn220	Zn	-0.012440	0.747382	0.492880
	Zn221	Zn	-0.012873	0.247909	0.491863
	Zn222	Zn	-0.013301	0.498747	0.743590
	Zn223	Zn	-0.014746	0.498214	0.241138
	Zn224	Zn	0.486755	0.749082	-0.009376
	Zn225	Zn	0.487404	0.247715	-0.008308
	Zn226	Zn	0.736408	-0.001030	0.491369
	Zn227	Zn	0.239433	-0.002416	0.491332
	N228	N	0.399162	0.962627	0.669621
	N229	N	0.572315	0.035967	0.669429
	N230	N	0.575869	0.962196	0.311465
	N231	N	0.402344	0.035882	0.313810
	N232	N	0.668593	0.409510	0.955593
	N233	N	0.665807	0.585605	0.027555
	N234	N	0.305053	0.586852	0.955657
	N235	N	0.306445	0.411306	0.028071
	N236	N	0.948847	0.675276	0.409080
	N237	N	0.025295	0.674928	0.577275
	N238	N	0.949389	0.321862	0.576751
	N239	N	0.024612	0.320902	0.407467
	N240	N	0.950938	0.411195	0.673080
	N241	N	0.023431	0.586477	0.673880
	N242	N	0.949721	0.586539	0.312429
	N243	N	0.022082	0.408863	0.309843
	N244	N	0.400584	0.677629	0.954018
	N245	N	0.570863	0.675583	0.027891
	N246	N	0.572786	0.319737	0.954412
	N247	N	0.402938	0.322002	0.029154
	N248	N	0.665593	0.961017	0.406050
	N249	N	0.663017	0.036376	0.575746
	N250	N	0.311172	0.960966	0.575812
	N251	N	0.309806	0.034710	0.405205
	N252	N	0.897558	0.461703	0.172213
	N253	N	0.070885	0.535448	0.170091
	N254	N	0.073651	0.461772	0.813238
	N255	N	0.900756	0.535565	0.815043
	N256	N	0.170130	0.908195	0.455741
	N257	N	0.166740	0.084525	0.527749
	N258	N	0.805977	0.087312	0.455843
	N259	N	0.806586	0.910505	0.527416
	N260	N	0.449418	0.175769	0.906717
	N261	N	0.525623	0.174274	0.074642
	N262	N	0.448961	0.824346	0.073704
	N263	N	0.524325	0.821140	0.905610
	N264	N	0.451838	0.911963	0.171449
	N265	N	0.523543	0.087200	0.172174
	N266	N	0.449800	0.086326	0.810872
	N267	N	0.522734	0.910208	0.808869
	N268	N	0.901260	0.177156	0.455283
	N269	N	0.071095	0.174299	0.528973
	N270	N	0.074407	0.818051	0.455185
	N271	N	0.904953	0.823962	0.530473
	N272	N	0.164581	0.461183	0.906277
	N273	N	0.162038	0.536346	0.076825
	N274	N	0.809266	0.460113	0.076922
	N275	N	0.809401	0.535411	0.907078
	O276	O	0.549136	0.540271	0.401529
	H277	H	0.550529	0.546906	0.400329
	H278	H	0.532531	0.539788	0.403944
	O279	O	0.520204	0.592057	0.619958
	H280	H	0.518710	0.591220	0.623813
	H281	H	0.535198	0.602581	0.616795
	O282	O	1.056146	1.051514	0.005665
	H283	H	1.047281	1.041437	0.002205
	H284	H	1.051693	1.049697	0.012362
	O285	O	0.942730	0.043581	0.983557
	H286	H	0.941214	0.041625	0.983602
	H287	H	0.932716	0.054630	0.983350
	O288	O	0.603051	0.580299	0.562499
	H289	H	0.594978	0.584857	0.562161
	H290	H	0.597949	0.582453	0.550582
	O291	O	0.534583	0.499306	0.466275
	H292	H	0.532731	0.495772	0.455925
	H293	H	0.527425	0.498776	0.464973
	O294	O	0.489362	0.532909	0.496616
	H295	H	0.496219	0.525466	0.502660
	H296	H	0.487416	0.534950	0.493574
	O297	O	0.010731	0.042419	0.915771
	H298	H	-0.000633	0.036972	0.895483
	H299	H	0.017476	0.040943	0.922510
	O300	O	0.473727	0.438635	0.404054
	H301	H	0.491171	0.431462	0.395590
	H302	H	0.469124	0.449463	0.416893
	O303	O	0.947564	0.970185	0.014521
	H304	H	0.962152	0.964311	0.014556
	H305	H	0.951639	0.970543	0.023915
	O306	O	-0.094428	0.977665	1.061327
	H307	H	-0.090675	0.972608	1.066248
	H308	H	-0.082593	0.977440	1.055313
	O309	O	0.555245	0.383177	0.501608
	H310	H	0.574177	0.393045	0.505633
	H311	H	0.551008	0.377334	0.494808
	O312	O	0.010059	-0.073079	-0.039261
	H313	H	0.010894	-0.076113	-0.031219
	H314	H	0.003349	-0.086933	-0.032419
	O315	O	0.938528	0.046653	0.011484
	H316	H	0.937979	0.052624	0.003431
	H317	H	0.934436	0.044372	0.012661
	O318	O	0.995304	0.981176	0.945315
	H319	H	0.988778	0.979010	0.947427
	H320	H	0.992385	0.989319	0.943616
	O321	O	0.024178	-0.095418	1.093450
	H322	H	0.032028	-0.081359	1.094776
	H323	H	0.022542	-0.096572	1.073609
	O324	O	0.386334	0.523313	0.498893
	H325	H	0.385285	0.528054	0.493150
	H326	H	0.383118	0.524489	0.501296
	O327	O	-0.057122	-0.054280	0.063876
	H328	H	-0.061852	-0.056407	0.082242
	H329	H	-0.059986	-0.062287	0.061254
	O330	O	0.445924	0.418962	0.430033
	H331	H	0.441361	0.407667	0.435841
	H332	H	0.471188	0.428479	0.436113
	O333	O	0.510749	0.458080	1.409701
	H334	H	0.510552	0.456770	1.416529
	H335	H	0.494060	0.452441	1.405299
	O336	O	0.576416	-0.598184	0.480571
	H337	H	0.571217	-0.602015	0.481005
	H338	H	0.565849	-0.590246	0.490563
	O339	O	0.338927	0.499685	0.535893
	H340	H	0.349912	0.483683	0.527765
	H341	H	0.323517	0.498779	0.541323
	O342	O	1.061063	0.956892	0.936542
	H343	H	1.065961	0.962032	0.937033
	H344	H	1.050142	0.971863	0.934361
	O345	O	1.453378	1.553878	-0.428179
	H346	H	1.456212	1.552393	-0.426460
	H347	H	1.458012	1.560873	-0.430656
	O348	O	0.369079	0.628683	0.380417
	H349	H	0.370012	0.628210	0.383541
	H350	H	0.359103	0.634657	0.369888
	O351	O	0.976947	1.007508	0.967351
	H352	H	0.979297	1.014675	0.967269
	H353	H	0.971577	1.004689	0.955229
	O354	O	0.487730	0.437016	0.461336
	H355	H	0.495842	0.427083	0.463921
	H356	H	0.476536	0.425802	0.454082
	O357	O	0.978629	0.073486	1.032659
	H358	H	0.982751	0.068203	1.038850
	H359	H	0.979610	0.077620	1.021395
	O360	O	0.958858	-0.021187	0.013517
	H361	H	0.965507	-0.019941	0.010010
	H362	H	0.957532	-0.021956	0.025048
	O363	O	0.486770	0.460917	0.436012
	H364	H	0.489815	0.451878	0.445038
	H365	H	0.479444	0.464269	0.428888
	O366	O	1.086507	1.010438	0.989359
	H367	H	1.093488	1.009947	0.982719
	H368	H	1.084056	1.011332	0.982752
	O369	O	0.406584	0.418488	1.502670
	H370	H	0.402651	0.426744	1.500876
	H371	H	0.407085	0.420688	1.503647
	O372	O	-0.020344	-0.013859	-0.009902
	H373	H	-0.009433	-0.004740	-0.015491
	H374	H	-0.027559	-0.021715	-0.009769
	O375	O	1.528704	0.468673	0.537138
	H376	H	1.532153	0.474513	0.522715
	H377	H	1.529356	0.459226	0.541475
	O378	O	0.535765	0.570778	0.430678
	H379	H	0.528636	0.576048	0.428497
	H380	H	0.539363	0.567074	0.433020
	O381	O	0.518209	0.549303	0.574459
	H382	H	0.520568	0.549012	0.574220
	H383	H	0.526925	0.552487	0.577638
