data_Molecule from HDF5

_cell_length_a		16.274336
_cell_length_b		16.246143
_cell_length_c		16.040484
_cell_angle_alpha	89.560669
_cell_angle_beta	89.841543
_cell_angle_gamma	90.094334
_symmetry_space_group_name_H-M	'P 1'
_symmetry_Int_Tables_number		1

loop_
	_symmetry_equiv_pos_as_xyz
	x,y,z

loop_
	_atom_site_label
	_atom_site_type_symbol
	_atom_site_fract_x
	_atom_site_fract_y
	_atom_site_fract_z
	H0	H	0.404673	0.832397	0.710635
	H1	H	0.599725	0.162013	0.711260
	H2	H	0.596524	0.831594	0.287129
	H3	H	0.404617	0.160948	0.283104
	H4	H	0.716746	0.397215	0.835624
	H5	H	0.712615	0.596194	0.165235
	H6	H	0.285064	0.597253	0.833959
	H7	H	0.284524	0.396111	0.165009
	H8	H	0.836899	0.715588	0.399436
	H9	H	0.163474	0.713693	0.599275
	H10	H	0.837968	0.278140	0.604749
	H11	H	0.163642	0.283756	0.399722
	H12	H	0.834912	0.400461	0.713221
	H13	H	0.164169	0.595374	0.712217
	H14	H	0.835206	0.597484	0.286949
	H15	H	0.164675	0.404004	0.287915
	H16	H	0.400923	0.709689	0.833033
	H17	H	0.596530	0.708724	0.165359
	H18	H	0.598226	0.286512	0.832823
	H19	H	0.398156	0.279420	0.163571
	H20	H	0.718597	0.834719	0.396088
	H21	H	0.717325	0.161260	0.597298
	H22	H	0.284818	0.834186	0.600262
	H23	H	0.285954	0.161190	0.394581
	H24	H	0.900392	0.333928	0.217252
	H25	H	0.095004	0.664099	0.209194
	H26	H	0.096409	0.333666	0.788664
	H27	H	0.902619	0.662576	0.786842
	H28	H	0.213160	0.901690	0.333028
	H29	H	0.215701	0.096135	0.664789
	H30	H	0.788017	0.100625	0.332869
	H31	H	0.784697	0.896223	0.663293
	H32	H	0.337410	0.213396	0.894914
	H33	H	0.661636	0.214066	0.099982
	H34	H	0.335695	0.780436	0.099598
	H35	H	0.663672	0.781626	0.899387
	H36	H	0.335389	0.897158	0.212417
	H37	H	0.664892	0.092093	0.208743
	H38	H	0.336642	0.093957	0.783512
	H39	H	0.665373	0.901047	0.786234
	H40	H	0.902783	0.214968	0.334891
	H41	H	0.099630	0.208859	0.666589
	H42	H	0.098506	0.787588	0.333415
	H43	H	0.901517	0.784707	0.664762
	H44	H	0.214621	0.335003	0.899340
	H45	H	0.216489	0.660603	0.101106
	H46	H	0.781077	0.334904	0.105549
	H47	H	0.783873	0.661254	0.899287
	H48	H	0.400326	0.116308	0.587552
	H49	H	0.590033	0.882656	0.589983
	H50	H	0.590116	0.113849	0.399538
	H51	H	0.405566	0.878707	0.402950
	H52	H	0.592979	0.410912	0.117363
	H53	H	0.585258	0.591971	0.881181
	H54	H	0.392974	0.584543	0.120958
	H55	H	0.402915	0.410869	0.880585
	H56	H	0.117376	0.595060	0.405770
	H57	H	0.881140	0.592261	0.597538
	H58	H	0.117722	0.403584	0.595463
	H59	H	0.887220	0.417043	0.410504
	H60	H	0.116750	0.403665	0.592368
	H61	H	0.881981	0.598431	0.589968
	H62	H	0.117372	0.593924	0.404843
	H63	H	0.879244	0.400047	0.399783
	H64	H	0.415285	0.578314	0.113425
	H65	H	0.597762	0.594171	0.877568
	H66	H	0.582248	0.404140	0.114992
	H67	H	0.412008	0.405084	0.881719
	H68	H	0.593754	0.112321	0.410528
	H69	H	0.597213	0.880598	0.586898
	H70	H	0.409644	0.116386	0.595984
	H71	H	0.407589	0.880501	0.407942
	H72	H	0.903822	0.615811	0.094942
	H73	H	0.089034	0.379097	0.104883
	H74	H	0.091041	0.618921	0.893835
	H75	H	0.911874	0.384362	0.914737
	H76	H	0.097045	0.908410	0.619075
	H77	H	0.091304	0.097469	0.380766
	H78	H	0.909521	0.085913	0.616275
	H79	H	0.908426	0.897981	0.376672
	H80	H	0.622322	0.097287	0.892562
	H81	H	0.379873	0.097084	0.090309
	H82	H	0.618063	0.901409	0.093803
	H83	H	0.380402	0.899844	0.900001
	H84	H	0.616342	0.899342	0.089382
	H85	H	0.386299	0.085275	0.081432
	H86	H	0.615475	0.100879	0.918785
	H87	H	0.383235	0.898785	0.909810
	H88	H	0.908662	0.090160	0.618721
	H89	H	0.099591	0.092029	0.379485
	H90	H	0.090094	0.906331	0.617203
	H91	H	0.901494	0.913385	0.378537
	H92	H	0.083347	0.610806	0.914638
	H93	H	0.085362	0.384461	0.086440
	H94	H	0.906536	0.614447	0.091787
	H95	H	0.895997	0.377940	0.911735
	H96	H	0.412140	0.112068	0.584679
	H97	H	0.595745	0.879070	0.595404
	H98	H	0.599840	0.116085	0.402004
	H99	H	0.401689	0.879287	0.407739
	H100	H	0.591869	0.397782	0.121081
	H101	H	0.593895	0.582529	0.882259
	H102	H	0.411036	0.599764	0.120762
	H103	H	0.403634	0.400034	0.877671
	H104	H	0.117715	0.595533	0.403574
	H105	H	0.884244	0.589178	0.589720
	H106	H	0.116425	0.405263	0.593446
	H107	H	0.884689	0.398308	0.421361
	H108	H	0.901392	0.614913	0.089452
	H109	H	0.102787	0.377972	0.091381
	H110	H	0.106062	0.617259	0.912524
	H111	H	0.908128	0.378724	0.899466
	H112	H	0.094964	0.901146	0.620646
	H113	H	0.090758	0.088016	0.382650
	H114	H	0.905262	0.086227	0.617930
	H115	H	0.917117	0.910526	0.382971
	H116	H	0.613514	0.075886	0.906157
	H117	H	0.382335	0.082727	0.096462
	H118	H	0.616410	0.903654	0.089908
	H119	H	0.384525	0.907808	0.904867
	C120	C	0.378865	0.006281	0.619311
	C121	C	0.622994	0.989019	0.619537
	C122	C	0.622854	0.005516	0.375665
	C123	C	0.377603	0.988024	0.376052
	C124	C	0.619832	0.375607	0.008648
	C125	C	0.620137	0.617801	0.990377
	C126	C	0.377990	0.617367	0.008399
	C127	C	0.376992	0.374928	0.989511
	C128	C	0.008791	0.622576	0.376863
	C129	C	0.991271	0.620603	0.621044
	C130	C	0.008715	0.375045	0.623115
	C131	C	0.991711	0.377566	0.380478
	C132	C	0.875759	0.506684	0.123180
	C133	C	0.120601	0.489479	0.121810
	C134	C	0.121136	0.507010	0.878281
	C135	C	0.876893	0.489038	0.879237
	C136	C	0.121606	0.878131	0.508719
	C137	C	0.122942	0.120212	0.490745
	C138	C	0.879891	0.118889	0.508240
	C139	C	0.879524	0.877613	0.489395
	C140	C	0.509140	0.119353	0.875928
	C141	C	0.490865	0.117561	0.118969
	C142	C	0.508003	0.873409	0.120333
	C143	C	0.491147	0.874216	0.876288
	C144	C	0.383204	0.882085	0.673859
	C145	C	0.620238	0.112758	0.674110
	C146	C	0.618843	0.881521	0.322371
	C147	C	0.382396	0.111843	0.320223
	C148	C	0.677366	0.377660	0.884414
	C149	C	0.674682	0.615778	0.115588
	C150	C	0.322654	0.616705	0.883442
	C151	C	0.321921	0.376069	0.114876
	C152	C	0.885762	0.677537	0.379558
	C153	C	0.114504	0.675489	0.619187
	C154	C	0.886324	0.317747	0.622916
	C155	C	0.114802	0.322124	0.380600
	C156	C	0.884589	0.378377	0.677118
	C157	C	0.114865	0.616327	0.675140
	C158	C	0.884541	0.618481	0.323959
	C159	C	0.115409	0.381755	0.324916
	C160	C	0.380348	0.672727	0.883094
	C161	C	0.617304	0.671899	0.115578
	C162	C	0.618829	0.322288	0.883205
	C163	C	0.378371	0.318153	0.114116
	C164	C	0.679174	0.883043	0.377190
	C165	C	0.678765	0.112404	0.617432
	C166	C	0.323647	0.882990	0.618864
	C167	C	0.323312	0.111768	0.375595
	C168	C	0.879045	0.383245	0.179913
	C169	C	0.116831	0.613827	0.174144
	C170	C	0.117385	0.383316	0.824880
	C171	C	0.880482	0.612899	0.823736
	C172	C	0.175668	0.881321	0.382977
	C173	C	0.178274	0.116807	0.615264
	C174	C	0.825330	0.119428	0.382949
	C175	C	0.823178	0.877725	0.614025
	C176	C	0.386171	0.175047	0.876005
	C177	C	0.613537	0.174349	0.118473
	C178	C	0.384640	0.818458	0.119237
	C179	C	0.614952	0.819760	0.879040
	C180	C	0.384609	0.876540	0.175437
	C181	C	0.614951	0.113912	0.172876
	C182	C	0.385710	0.115555	0.820534
	C183	C	0.615658	0.878837	0.822529
	C184	C	0.882274	0.176533	0.384007
	C185	C	0.120226	0.172700	0.616365
	C186	C	0.118603	0.824770	0.383012
	C187	C	0.881412	0.822218	0.614889
	C188	C	0.176184	0.383852	0.880198
	C189	C	0.177295	0.612125	0.120110
	C190	C	0.820039	0.383439	0.123898
	C191	C	0.821611	0.612074	0.880020
	C192	C	0.400835	0.092560	0.596000
	C193	C	0.600970	0.902898	0.597333
	C194	C	0.600961	0.091780	0.397571
	C195	C	0.398532	0.901707	0.399384
	C196	C	0.596135	0.397964	0.095257
	C197	C	0.598676	0.595984	0.903047
	C198	C	0.399898	0.594280	0.095752
	C199	C	0.399427	0.398465	0.902572
	C200	C	0.095055	0.601129	0.398339
	C201	C	0.904643	0.599375	0.599019
	C202	C	0.094653	0.397540	0.600492
	C203	C	0.905857	0.398931	0.403578
	C204	C	0.897421	0.592789	0.099240
	C205	C	0.098748	0.402889	0.100401
	C206	C	0.099672	0.593434	0.900608
	C207	C	0.898780	0.402638	0.902175
	C208	C	0.100210	0.898967	0.596262
	C209	C	0.100600	0.099034	0.403428
	C210	C	0.901393	0.094651	0.595252
	C211	C	0.902205	0.900418	0.401992
	C212	C	0.594797	0.097743	0.899010
	C213	C	0.405099	0.094985	0.096108
	C214	C	0.594536	0.894985	0.097534
	C215	C	0.405117	0.895705	0.898273
	Zn216	Zn	0.500604	-0.002203	0.747393
	Zn217	Zn	0.500020	-0.004066	0.247851
	Zn218	Zn	0.747259	0.497129	0.000589
	Zn219	Zn	0.249601	0.497640	-0.000346
	Zn220	Zn	0.000681	0.750456	0.499627
	Zn221	Zn	0.000896	0.246780	0.501153
	Zn222	Zn	-0.000703	0.498312	0.750664
	Zn223	Zn	-0.001070	0.499089	0.250267
	Zn224	Zn	0.499233	0.744822	-0.000898
	Zn225	Zn	0.499352	0.247744	-0.001726
	Zn226	Zn	0.751829	-0.001987	0.497708
	Zn227	Zn	0.249835	-0.001758	0.498662
	N228	N	0.416764	0.959942	0.674367
	N229	N	0.586625	0.034911	0.675702
	N230	N	0.584196	0.958800	0.321488
	N231	N	0.415386	0.033947	0.320383
	N232	N	0.678219	0.410036	0.963431
	N233	N	0.676812	0.582983	0.036564
	N234	N	0.321323	0.582696	0.962212
	N235	N	0.320756	0.410785	0.036276
	N236	N	0.964096	0.680147	0.411848
	N237	N	0.036609	0.678096	0.586071
	N238	N	0.964513	0.315500	0.590178
	N239	N	0.036986	0.319238	0.414253
	N240	N	0.961636	0.413369	0.677606
	N241	N	0.036955	0.583011	0.676582
	N242	N	0.962070	0.584872	0.322211
	N243	N	0.037967	0.415738	0.324533
	N244	N	0.413910	0.673455	0.961851
	N245	N	0.584114	0.673203	0.036900
	N246	N	0.583895	0.320960	0.961454
	N247	N	0.411980	0.317369	0.035330
	N248	N	0.681815	0.961199	0.409329
	N249	N	0.680475	0.034604	0.584106
	N250	N	0.320836	0.961369	0.585728
	N251	N	0.320210	0.033776	0.409742
	N252	N	0.913212	0.460870	0.179377
	N253	N	0.082113	0.536474	0.175224
	N254	N	0.083773	0.461203	0.823448
	N255	N	0.913958	0.535341	0.822954
	N256	N	0.177628	0.913774	0.462010
	N257	N	0.180037	0.084845	0.536175
	N258	N	0.823665	0.084253	0.461248
	N259	N	0.822066	0.911379	0.535055
	N260	N	0.463898	0.177684	0.909741
	N261	N	0.535277	0.176827	0.085849
	N262	N	0.462462	0.816465	0.085573
	N263	N	0.536561	0.816409	0.911611
	N264	N	0.462490	0.909866	0.176466
	N265	N	0.537636	0.079430	0.173520
	N266	N	0.463047	0.081751	0.820299
	N267	N	0.537887	0.912019	0.820599
	N268	N	0.915485	0.176245	0.462915
	N269	N	0.086440	0.174871	0.537756
	N270	N	0.085890	0.822312	0.462181
	N271	N	0.915930	0.822080	0.536352
	N272	N	0.178462	0.461862	0.912859
	N273	N	0.179649	0.533794	0.088029
	N274	N	0.817864	0.461114	0.089224
	N275	N	0.819259	0.533837	0.913701
	O276	O	-0.018935	0.059879	-0.042746
	H277	H	-0.026119	0.069000	-0.052657
	H278	H	-0.029392	0.061299	-0.037987
	O279	O	0.568509	0.564812	0.565840
	H280	H	0.574571	0.567296	0.550626
	H281	H	0.577586	0.564864	0.575059
	O282	O	0.499077	0.511052	0.393094
	H283	H	0.488620	0.513905	0.391658
	H284	H	0.499767	0.519281	0.397543
	O285	O	0.051434	0.995013	1.028448
	H286	H	0.058826	0.990357	1.022511
	H287	H	0.056520	1.001028	1.026079
	O288	O	0.589884	0.539532	0.451645
	H289	H	0.584404	0.537077	0.457899
	H290	H	0.588281	0.532136	0.443675
	O291	O	1.027135	1.027856	1.107210
	H292	H	1.024732	1.028120	1.102940
	H293	H	1.029366	1.025851	1.104466
	O294	O	0.378889	1.393483	0.536904
	H295	H	0.387796	1.395277	0.545180
	H296	H	0.368261	1.383761	0.545495
	O297	O	0.951291	0.069710	0.905724
	H298	H	0.943341	0.076401	0.908136
	H299	H	0.947586	0.062370	0.906571
	O300	O	0.655004	0.485515	0.439103
	H301	H	0.658236	0.489655	0.445150
	H302	H	0.658194	0.488654	0.447488
	O303	O	0.950623	0.012187	-0.018657
	H304	H	0.955717	0.021852	-0.018236
	H305	H	0.951535	0.007397	-0.009708
	O306	O	-0.047888	0.960167	0.980686
	H307	H	-0.048025	0.960451	0.992795
	H308	H	-0.037897	0.967815	0.980852
	O309	O	0.438982	0.494870	0.577290
	H310	H	0.441787	0.496805	0.582458
	H311	H	0.440090	0.482939	0.588209
	O312	O	1.058232	-0.023746	1.059348
	H313	H	1.063002	-0.025617	1.066792
	H314	H	1.053580	-0.023624	1.055436
	O315	O	0.507321	0.461656	0.454380
	H316	H	0.501787	0.452091	0.455931
	H317	H	0.510710	0.459452	0.453316
	O318	O	0.502875	0.596593	0.509708
	H319	H	0.498285	0.588963	0.512104
	H320	H	0.499540	0.602367	0.504270
	O321	O	0.978177	0.957307	1.002330
	H322	H	0.985507	0.961035	1.005371
	H323	H	0.979360	0.966897	0.990026
	O324	O	0.516784	0.519784	0.578396
	H325	H	0.510479	0.535341	0.587490
	H326	H	0.524168	0.522478	0.572809
	O327	O	0.502761	0.550267	0.523099
	H328	H	0.497223	0.559622	0.522591
	H329	H	0.516734	0.557817	0.517700
	O330	O	1.067046	0.079063	1.037547
	H331	H	1.071009	0.076920	1.037478
	H332	H	1.060388	0.094482	1.040567
	O333	O	0.996491	1.014163	-0.019320
	H334	H	0.991940	1.005957	-0.018592
	H335	H	0.987102	1.017407	-0.027931
	O336	O	0.541586	0.581684	0.570394
	H337	H	0.535357	0.588135	0.567733
	H338	H	0.544015	0.573304	0.575039
	O339	O	0.488992	0.572154	0.551814
	H340	H	0.479689	0.576217	0.546749
	H341	H	0.496831	0.569670	0.547033
	O342	O	0.004986	0.972460	0.005809
	H343	H	-0.001707	0.980193	0.011562
	H344	H	-0.002502	0.969911	0.007813
	O345	O	-0.088532	0.001592	-0.038925
	H346	H	-0.098702	-0.000295	-0.034292
	H347	H	-0.083314	-0.004422	-0.044182
	O348	O	0.427637	0.394886	0.601787
	H349	H	0.429426	0.396126	0.612883
	H350	H	0.431024	0.394510	0.611610
	O351	O	0.449790	0.587041	0.469668
	H352	H	0.451143	0.579307	0.471322
	H353	H	0.436310	0.591111	0.460206
	O354	O	0.540467	0.441739	0.399919
	H355	H	0.546789	0.429960	0.390070
	H356	H	0.550877	0.434515	0.396543
	O357	O	0.415284	0.444171	0.510186
	H358	H	0.411775	0.454767	0.519356
	H359	H	0.418898	0.438110	0.507047
	O360	O	-0.011309	0.069086	0.032101
	H361	H	0.003439	0.066328	0.037863
	H362	H	-0.007878	0.066555	0.038793
	O363	O	0.567906	0.355991	0.408509
	H364	H	0.562323	0.352108	0.398514
	H365	H	0.565463	0.342236	0.398199
	O366	O	0.010080	0.056422	0.948817
	H367	H	0.007809	0.052112	0.945742
	H368	H	0.011863	0.049149	0.951465
	O369	O	0.480803	0.447235	0.463356
	H370	H	0.485494	0.453454	0.467536
	H371	H	0.474319	0.458394	0.456904
