data_Molecule from HDF5

_cell_length_a		16.206786
_cell_length_b		16.393952
_cell_length_c		16.134924
_cell_angle_alpha	90.056114
_cell_angle_beta	90.105555
_cell_angle_gamma	90.021229
_symmetry_space_group_name_H-M	'P 1'
_symmetry_Int_Tables_number		1

loop_
	_symmetry_equiv_pos_as_xyz
	x,y,z

loop_
	_atom_site_label
	_atom_site_type_symbol
	_atom_site_fract_x
	_atom_site_fract_y
	_atom_site_fract_z
	H0	H	0.404468	0.818830	0.721619
	H1	H	0.603740	0.143144	0.721860
	H2	H	0.604916	0.819705	0.287631
	H3	H	0.404125	0.143710	0.289521
	H4	H	0.717351	0.382585	0.838529
	H5	H	0.721245	0.580848	0.167611
	H6	H	0.287944	0.579973	0.840038
	H7	H	0.290463	0.381292	0.169408
	H8	H	0.844099	0.696964	0.400403
	H9	H	0.167719	0.696424	0.610097
	H10	H	0.842928	0.260610	0.609524
	H11	H	0.167657	0.261197	0.403216
	H12	H	0.841183	0.379696	0.718211
	H13	H	0.169393	0.575404	0.719635
	H14	H	0.842530	0.576673	0.290462
	H15	H	0.168451	0.377310	0.290222
	H16	H	0.399946	0.699084	0.841310
	H17	H	0.607940	0.698985	0.166955
	H18	H	0.606478	0.262662	0.840742
	H19	H	0.402578	0.264121	0.168408
	H20	H	0.721318	0.818755	0.403904
	H21	H	0.722920	0.141908	0.607710
	H22	H	0.287910	0.818593	0.608692
	H23	H	0.285705	0.141778	0.404904
	H24	H	0.903863	0.317082	0.221303
	H25	H	0.108501	0.639285	0.224633
	H26	H	0.102766	0.315100	0.791074
	H27	H	0.905289	0.640390	0.787975
	H28	H	0.219536	0.880746	0.341997
	H29	H	0.217915	0.076925	0.671390
	H30	H	0.791613	0.078748	0.341231
	H31	H	0.791139	0.880779	0.670784
	H32	H	0.342627	0.200672	0.898845
	H33	H	0.665774	0.198477	0.106837
	H34	H	0.343339	0.762144	0.110302
	H35	H	0.664815	0.762549	0.900647
	H36	H	0.340867	0.883632	0.219390
	H37	H	0.668045	0.082270	0.218824
	H38	H	0.339466	0.079762	0.790277
	H39	H	0.667137	0.882800	0.791882
	H40	H	0.902595	0.196423	0.343158
	H41	H	0.108591	0.196127	0.668877
	H42	H	0.109064	0.761985	0.342272
	H43	H	0.904184	0.761363	0.669184
	H44	H	0.223869	0.318472	0.901853
	H45	H	0.220658	0.641349	0.105196
	H46	H	0.786136	0.318746	0.105558
	H47	H	0.788608	0.641559	0.902530
	H48	H	0.406041	0.095758	0.593649
	H49	H	0.597218	0.867528	0.593113
	H50	H	0.601542	0.098937	0.409527
	H51	H	0.416804	0.865736	0.410187
	H52	H	0.597390	0.387452	0.121445
	H53	H	0.597357	0.573663	0.886274
	H54	H	0.415533	0.581974	0.123355
	H55	H	0.414956	0.385731	0.886763
	H56	H	0.126429	0.576062	0.408855
	H57	H	0.891285	0.573467	0.582737
	H58	H	0.124251	0.378754	0.596714
	H59	H	0.887692	0.388021	0.411043
	H60	H	0.119617	0.388564	0.591229
	H61	H	0.890824	0.559163	0.599073
	H62	H	0.120070	0.573392	0.426284
	H63	H	0.888019	0.381714	0.414827
	H64	H	0.405860	0.567320	0.122534
	H65	H	0.594572	0.570559	0.888076
	H66	H	0.595474	0.391316	0.120170
	H67	H	0.410020	0.391400	0.887820
	H68	H	0.592544	0.095156	0.412750
	H69	H	0.602120	0.863114	0.600653
	H70	H	0.410372	0.098063	0.603936
	H71	H	0.414042	0.867720	0.417723
	H72	H	0.914734	0.593585	0.095244
	H73	H	0.103106	0.362158	0.096252
	H74	H	0.096310	0.594432	0.912304
	H75	H	0.916905	0.364661	0.908748
	H76	H	0.093116	0.882433	0.623506
	H77	H	0.093774	0.066611	0.390600
	H78	H	0.907706	0.077893	0.627932
	H79	H	0.910361	0.886911	0.387619
	H80	H	0.617087	0.064439	0.915517
	H81	H	0.387057	0.073253	0.098142
	H82	H	0.616311	0.901850	0.091230
	H83	H	0.385416	0.891948	0.907214
	H84	H	0.626513	0.887528	0.107207
	H85	H	0.386520	0.075715	0.095648
	H86	H	0.623337	0.076381	0.906711
	H87	H	0.384574	0.881319	0.916678
	H88	H	0.912014	0.061513	0.621151
	H89	H	0.091177	0.072887	0.389352
	H90	H	0.100537	0.886540	0.624901
	H91	H	0.916479	0.889655	0.390116
	H92	H	0.096491	0.593610	0.912016
	H93	H	0.094526	0.362865	0.101615
	H94	H	0.912449	0.594520	0.095982
	H95	H	0.907783	0.364361	0.918495
	H96	H	0.417102	0.094601	0.596035
	H97	H	0.593198	0.865671	0.601774
	H98	H	0.600711	0.094707	0.418351
	H99	H	0.409215	0.864072	0.411547
	H100	H	0.593141	0.388029	0.120818
	H101	H	0.592275	0.574681	0.887369
	H102	H	0.422898	0.567577	0.116581
	H103	H	0.417503	0.392283	0.889589
	H104	H	0.119755	0.560231	0.414251
	H105	H	0.883735	0.579404	0.602474
	H106	H	0.123574	0.388453	0.601940
	H107	H	0.890028	0.387702	0.418053
	H108	H	0.915152	0.593877	0.097236
	H109	H	0.094875	0.366000	0.091818
	H110	H	0.096394	0.594315	0.912253
	H111	H	0.904942	0.359867	0.906094
	H112	H	0.093277	0.890691	0.621201
	H113	H	0.098326	0.070606	0.387749
	H114	H	0.924851	0.074708	0.621874
	H115	H	0.915652	0.882895	0.388138
	H116	H	0.620721	0.079487	0.922145
	H117	H	0.387021	0.072564	0.094020
	H118	H	0.621200	0.878872	0.085629
	H119	H	0.388841	0.893656	0.920249
	C120	C	0.382529	-0.011150	0.627518
	C121	C	0.627074	0.972336	0.628587
	C122	C	0.627462	-0.010379	0.383085
	C123	C	0.382841	0.972701	0.383492
	C124	C	0.625368	0.359304	0.012451
	C125	C	0.625709	0.602683	0.995213
	C126	C	0.383363	0.602215	0.012858
	C127	C	0.383867	0.359685	0.996329
	C128	C	0.014915	0.599876	0.384388
	C129	C	0.996402	0.600182	0.626296
	C130	C	0.014090	0.356408	0.626597
	C131	C	0.996250	0.355952	0.383989
	C132	C	0.883487	0.487432	0.126029
	C133	C	0.127362	0.470221	0.127199
	C134	C	0.126347	0.487317	0.882486
	C135	C	0.881745	0.470206	0.881698
	C136	C	0.126571	0.856990	0.515101
	C137	C	0.125432	0.099827	0.497249
	C138	C	0.884410	0.101004	0.515137
	C139	C	0.884256	0.857384	0.497200
	C140	C	0.512497	0.102656	0.883792
	C141	C	0.495010	0.103166	0.125698
	C142	C	0.513770	0.859869	0.125836
	C143	C	0.494177	0.859573	0.884117
	C144	C	0.384512	0.867106	0.683670
	C145	C	0.624820	0.094286	0.684400
	C146	C	0.625141	0.867909	0.326152
	C147	C	0.383730	0.094583	0.327262
	C148	C	0.680431	0.361717	0.888218
	C149	C	0.682958	0.601214	0.118464
	C150	C	0.325733	0.600627	0.889487
	C151	C	0.327914	0.361344	0.120008
	C152	C	0.892656	0.657452	0.382496
	C153	C	0.119145	0.657037	0.627678
	C154	C	0.891447	0.299796	0.627061
	C155	C	0.118775	0.299337	0.384145
	C156	C	0.890342	0.359136	0.681369
	C157	C	0.119955	0.596934	0.682472
	C158	C	0.891656	0.597771	0.327757
	C159	C	0.119158	0.357060	0.327725
	C160	C	0.381718	0.659802	0.890146
	C161	C	0.626780	0.659974	0.118130
	C162	C	0.624933	0.302096	0.889329
	C163	C	0.384095	0.303062	0.119520
	C164	C	0.683130	0.867532	0.384052
	C165	C	0.683997	0.093717	0.627354
	C166	C	0.326094	0.867162	0.627405
	C167	C	0.324668	0.093668	0.384719
	C168	C	0.884345	0.365711	0.182593
	C169	C	0.127244	0.591354	0.185327
	C170	C	0.124205	0.364507	0.827523
	C171	C	0.884636	0.592362	0.826114
	C172	C	0.182658	0.859528	0.391265
	C173	C	0.181141	0.097680	0.621611
	C174	C	0.828370	0.099253	0.391090
	C175	C	0.828902	0.860136	0.621417
	C176	C	0.390471	0.160588	0.881556
	C177	C	0.617369	0.159933	0.125661
	C178	C	0.391585	0.801759	0.128129
	C179	C	0.616467	0.802020	0.882551
	C180	C	0.390444	0.862016	0.182609
	C181	C	0.618448	0.101854	0.181513
	C182	C	0.388939	0.100503	0.827407
	C183	C	0.617533	0.861570	0.828059
	C184	C	0.884133	0.157602	0.391837
	C185	C	0.126415	0.156675	0.620417
	C186	C	0.127431	0.800480	0.391682
	C187	C	0.884774	0.800586	0.620465
	C188	C	0.184069	0.366058	0.883113
	C189	C	0.183142	0.592300	0.125793
	C190	C	0.825485	0.366629	0.125262
	C191	C	0.826675	0.592772	0.883086
	C192	C	0.404634	0.074019	0.604474
	C193	C	0.604240	0.887355	0.605167
	C194	C	0.604849	0.074308	0.406623
	C195	C	0.406586	0.887867	0.406419
	C196	C	0.602239	0.382379	0.098635
	C197	C	0.601697	0.579711	0.909350
	C198	C	0.407613	0.578958	0.098433
	C199	C	0.407355	0.382836	0.910237
	C200	C	0.100094	0.576607	0.409194
	C201	C	0.910788	0.577359	0.601892
	C202	C	0.100060	0.378823	0.603579
	C203	C	0.910734	0.379128	0.407608
	C204	C	0.907334	0.572037	0.102880
	C205	C	0.104245	0.385523	0.103415
	C206	C	0.103259	0.572074	0.905230
	C207	C	0.903512	0.384972	0.904309
	C208	C	0.102685	0.879846	0.600975
	C209	C	0.101527	0.076794	0.411546
	C210	C	0.907832	0.078166	0.601143
	C211	C	0.907422	0.879826	0.410902
	C212	C	0.598104	0.080020	0.907822
	C213	C	0.409111	0.080381	0.102479
	C214	C	0.598942	0.882634	0.101670
	C215	C	0.408776	0.882329	0.907782
	Zn216	Zn	0.503075	-0.018966	0.756806
	Zn217	Zn	0.504755	-0.018037	0.253214
	Zn218	Zn	0.753693	0.480414	0.003618
	Zn219	Zn	0.255396	0.479694	0.004361
	Zn220	Zn	0.005961	0.728595	0.505468
	Zn221	Zn	0.005704	0.228595	0.506231
	Zn222	Zn	0.004282	0.477727	0.753625
	Zn223	Zn	0.005873	0.478224	0.256466
	Zn224	Zn	0.504174	0.731510	0.004541
	Zn225	Zn	0.504060	0.230757	0.004445
	Zn226	Zn	0.756632	-0.019850	0.505874
	Zn227	Zn	0.253535	-0.020232	0.506481
	N228	N	0.418834	0.943687	0.683855
	N229	N	0.590210	0.017677	0.685468
	N230	N	0.591392	0.944913	0.325144
	N231	N	0.419142	0.018344	0.326385
	N232	N	0.680840	0.396411	0.965769
	N233	N	0.682543	0.566561	0.040938
	N234	N	0.326501	0.565619	0.966902
	N235	N	0.327733	0.395925	0.042319
	N236	N	0.970260	0.658882	0.416976
	N237	N	0.041361	0.659103	0.593563
	N238	N	0.969392	0.298099	0.593779
	N239	N	0.041211	0.298299	0.418357
	N240	N	0.967686	0.393883	0.681011
	N241	N	0.042613	0.562202	0.681773
	N242	N	0.968765	0.562745	0.328637
	N243	N	0.041838	0.391418	0.327247
	N244	N	0.416719	0.660935	0.967835
	N245	N	0.591956	0.661056	0.040341
	N246	N	0.591410	0.300619	0.967670
	N247	N	0.418017	0.301927	0.041490
	N248	N	0.684807	0.944178	0.418711
	N249	N	0.685495	0.016723	0.593361
	N250	N	0.324849	0.943870	0.593153
	N251	N	0.323969	0.016779	0.418848
	N252	N	0.919826	0.441942	0.183116
	N253	N	0.093216	0.514448	0.186235
	N254	N	0.088875	0.440864	0.826941
	N255	N	0.918050	0.515198	0.824789
	N256	N	0.182647	0.893884	0.468991
	N257	N	0.180744	0.062912	0.543965
	N258	N	0.828315	0.064706	0.468896
	N259	N	0.828456	0.894694	0.543638
	N260	N	0.468178	0.162065	0.915917
	N261	N	0.539478	0.160778	0.091603
	N262	N	0.469237	0.799983	0.093869
	N263	N	0.538918	0.800476	0.916330
	N264	N	0.467299	0.897433	0.181225
	N265	N	0.541205	0.067211	0.181638
	N266	N	0.465865	0.065219	0.828712
	N267	N	0.540415	0.896602	0.828881
	N268	N	0.917998	0.159123	0.469893
	N269	N	0.092486	0.158269	0.542268
	N270	N	0.093325	0.798798	0.469800
	N271	N	0.918390	0.798827	0.542321
	N272	N	0.185716	0.443340	0.916325
	N273	N	0.183336	0.516059	0.090537
	N274	N	0.824776	0.443396	0.090886
	N275	N	0.824859	0.515815	0.916723
	O276	O	0.420200	0.488678	0.492346
	H277	H	0.408015	0.492027	0.479311
	H278	H	0.424383	0.488024	0.487338
	O279	O	0.389727	0.458894	0.478524
	H280	H	0.393081	0.452169	0.492605
	H281	H	0.400253	0.464574	0.476605
	O282	O	0.889809	0.025961	0.052235
	H283	H	0.884955	0.030761	0.043520
	H284	H	0.884971	0.012609	0.061094
	O285	O	0.004832	1.020715	-0.079795
	H286	H	0.018414	1.019112	-0.090540
	H287	H	0.008691	1.017480	-0.083565
	O288	O	0.509098	0.543348	0.378339
	H289	H	0.507924	0.527153	0.383476
	H290	H	0.519444	0.546910	0.378592
	O291	O	0.520963	0.526131	0.483905
	H292	H	0.509935	0.530713	0.477963
	H293	H	0.525367	0.539713	0.494670
	O294	O	1.042110	0.906496	0.942839
	H295	H	1.043925	0.904487	0.955116
	H296	H	1.049454	0.911158	0.926560
	O297	O	0.017895	-0.064926	-0.007148
	H298	H	0.024191	-0.058692	-0.016200
	H299	H	0.018653	-0.065381	-0.007465
	O300	O	0.974411	-0.098129	-0.027851
	H301	H	0.981155	-0.107643	-0.039000
	H302	H	0.961797	-0.093236	-0.020943
	O303	O	0.050781	1.008536	1.076018
	H304	H	0.045221	1.016384	1.079556
	H305	H	0.053343	0.989727	1.077570
	O306	O	0.546383	0.389129	0.431076
	H307	H	0.548040	0.382307	0.427271
	H308	H	0.557307	0.382909	0.428178
	O309	O	1.050359	0.011554	0.062103
	H310	H	1.046439	0.018350	0.071650
	H311	H	1.044396	0.013917	0.068809
	O312	O	-0.123525	-0.048193	0.947994
	H313	H	-0.131707	-0.050955	0.954409
	H314	H	-0.119801	-0.040493	0.954507
	O315	O	0.043735	1.105125	0.067416
	H316	H	0.037359	1.111188	0.075643
	H317	H	0.048669	1.101222	0.074068
	O318	O	0.618527	0.576394	0.548090
	H319	H	0.624312	0.586726	0.556404
	H320	H	0.619490	0.571436	0.559566
	O321	O	1.157201	-0.035257	0.003383
	H322	H	1.156647	-0.023812	-0.014909
	H323	H	1.172249	-0.037871	0.005347
	O324	O	-0.091182	0.964487	0.036529
	H325	H	-0.097810	0.947604	0.042810
	H326	H	-0.082828	0.961478	0.035127
	O327	O	-0.465729	1.557406	0.459856
	H328	H	-0.462865	1.575749	0.463962
	H329	H	-0.466533	1.571673	0.463937
	O330	O	0.568382	0.370189	0.532401
	H331	H	0.567751	0.371272	0.544051
	H332	H	0.552424	0.370702	0.524340
	O333	O	0.014327	0.922689	1.063130
	H334	H	0.006760	0.918377	1.057022
	H335	H	0.014779	0.932134	1.071371
	O336	O	0.881431	0.956235	0.895224
	H337	H	0.881248	0.958658	0.892152
	H338	H	0.862969	0.960410	0.896083
	O339	O	0.831721	0.812150	-0.185296
	H340	H	0.831446	0.811095	-0.187735
	H341	H	0.840015	0.808586	-0.190518
	O342	O	0.948407	-0.196281	0.172892
	H343	H	0.953150	-0.209269	0.187592
	H344	H	0.941001	-0.198461	0.168652
	O345	O	0.498949	0.357569	0.554521
	H346	H	0.499227	0.351411	0.554389
	H347	H	0.498179	0.349279	0.555485
	O348	O	1.029915	1.854981	1.068442
	H349	H	1.038158	1.849200	1.074968
	H350	H	1.027297	1.837150	1.059659
	O351	O	-0.093852	0.997887	0.076273
	H352	H	-0.098728	0.995296	0.081866
	H353	H	-0.098753	0.992662	0.081725
	O354	O	0.215159	0.802865	0.734966
	H355	H	0.217304	0.808956	0.745563
	H356	H	0.199628	0.803774	0.728270
	O357	O	0.570830	0.471986	0.587995
	H358	H	0.565509	0.466681	0.583287
	H359	H	0.573752	0.466018	0.600985
	O360	O	-0.069621	-0.047882	0.037001
	H361	H	-0.054396	-0.038318	0.041537
	H362	H	-0.074542	-0.051028	0.029868
	O363	O	0.384908	0.402341	0.525835
	H364	H	0.383910	0.394197	0.516627
	H365	H	0.384645	0.391179	0.516857
	O366	O	0.455906	0.460064	0.437376
	H367	H	0.460113	0.452499	0.437747
	H368	H	0.465543	0.464331	0.440895
	O369	O	0.574269	0.356835	0.406657
	H370	H	0.561800	0.365639	0.412421
	H371	H	0.580679	0.355821	0.397055
	O372	O	0.464242	0.592532	0.578931
	H373	H	0.470890	0.590718	0.576364
	H374	H	0.470392	0.594765	0.589050
	O375	O	0.552006	0.527998	0.575607
	H376	H	0.540711	0.528141	0.572517
	H377	H	0.548378	0.511022	0.582400
	O378	O	0.440972	0.482401	0.433342
	H379	H	0.435819	0.506023	0.440602
	H380	H	0.448295	0.486413	0.441639
	O381	O	0.369034	0.509771	0.328083
	H382	H	0.362200	0.519769	0.322736
	H383	H	0.366695	0.521814	0.326538
	O384	O	-0.064789	1.029180	0.109287
	H385	H	-0.067293	1.017686	0.112420
	H386	H	-0.064846	1.041499	0.101445
	O387	O	0.585907	0.477211	1.545374
	H388	H	0.568767	0.473742	1.554148
	H389	H	0.583695	0.461808	1.528096
	O390	O	0.101706	0.914306	-0.035465
	H391	H	0.107337	0.917007	-0.048519
	H392	H	0.092069	0.913647	-0.039422
	O393	O	0.918148	0.881669	-0.179334
	H394	H	0.920119	0.880943	-0.175906
	H395	H	0.915576	0.883702	-0.176945
	O396	O	0.619213	0.641253	0.580175
	H397	H	0.626375	0.635337	0.566504
	H398	H	0.629234	0.642149	0.585721
	O399	O	0.574697	1.510314	1.509227
	H400	H	0.576006	1.519041	1.501113
	H401	H	0.589008	1.514298	1.496765
	O402	O	1.105073	1.138413	1.030687
	H403	H	1.110173	1.155415	1.038097
	H404	H	1.108336	1.139456	1.044585
	O405	O	0.497968	0.560125	0.594018
	H406	H	0.496520	0.567072	0.585180
	H407	H	0.506444	0.560517	0.600286
