data_Molecule from HDF5

_cell_length_a		16.152733
_cell_length_b		16.245493
_cell_length_c		16.472045
_cell_angle_alpha	89.751066
_cell_angle_beta	90.259470
_cell_angle_gamma	89.952909
_symmetry_space_group_name_H-M	'P 1'
_symmetry_Int_Tables_number		1

loop_
	_symmetry_equiv_pos_as_xyz
	x,y,z

loop_
	_atom_site_label
	_atom_site_type_symbol
	_atom_site_fract_x
	_atom_site_fract_y
	_atom_site_fract_z
	H0	H	0.390039	0.826760	0.696780
	H1	H	0.604538	0.146603	0.694333
	H2	H	0.603360	0.826061	0.256183
	H3	H	0.393181	0.148789	0.252928
	H4	H	0.719769	0.389243	0.816069
	H5	H	0.721159	0.591726	0.136247
	H6	H	0.283115	0.589369	0.815216
	H7	H	0.286013	0.384766	0.137080
	H8	H	0.836778	0.701498	0.375766
	H9	H	0.161611	0.707156	0.581242
	H10	H	0.835998	0.273059	0.577368
	H11	H	0.163975	0.270328	0.379254
	H12	H	0.839108	0.384424	0.696307
	H13	H	0.164031	0.591624	0.694596
	H14	H	0.841471	0.595766	0.253089
	H15	H	0.164808	0.384024	0.261272
	H16	H	0.396593	0.707368	0.815615
	H17	H	0.608107	0.708592	0.133618
	H18	H	0.603565	0.270989	0.815283
	H19	H	0.400538	0.267096	0.136196
	H20	H	0.714510	0.824725	0.373595
	H21	H	0.715396	0.148264	0.574897
	H22	H	0.285389	0.822610	0.571319
	H23	H	0.282104	0.151058	0.373498
	H24	H	0.899152	0.327882	0.196719
	H25	H	0.107448	0.649249	0.195814
	H26	H	0.107480	0.326624	0.759707
	H27	H	0.896701	0.649065	0.755415
	H28	H	0.212342	0.886976	0.313728
	H29	H	0.217579	0.084862	0.635386
	H30	H	0.782191	0.087751	0.313849
	H31	H	0.780306	0.885075	0.635572
	H32	H	0.337474	0.203824	0.873496
	H33	H	0.665841	0.198744	0.073302
	H34	H	0.338217	0.768206	0.074363
	H35	H	0.665406	0.772313	0.874961
	H36	H	0.337060	0.882258	0.191054
	H37	H	0.661360	0.090950	0.194868
	H38	H	0.336649	0.090174	0.756859
	H39	H	0.661907	0.883433	0.755066
	H40	H	0.897259	0.207240	0.316115
	H41	H	0.101901	0.200398	0.637802
	H42	H	0.098821	0.768843	0.316469
	H43	H	0.893828	0.767093	0.635944
	H44	H	0.214357	0.323207	0.881174
	H45	H	0.217597	0.650997	0.074368
	H46	H	0.788780	0.325355	0.076069
	H47	H	0.787305	0.652371	0.877040
	H48	H	0.403928	0.103761	0.564926
	H49	H	0.588980	0.869628	0.566860
	H50	H	0.590652	0.104128	0.381451
	H51	H	0.402931	0.866939	0.371352
	H52	H	0.590369	0.396741	0.088468
	H53	H	0.596705	0.575414	0.862105
	H54	H	0.414643	0.572848	0.087111
	H55	H	0.407908	0.399327	0.862547
	H56	H	0.118292	0.578636	0.385445
	H57	H	0.884044	0.575987	0.565614
	H58	H	0.116443	0.391942	0.563900
	H59	H	0.885617	0.398825	0.387565
	H60	H	0.116726	0.400513	0.571904
	H61	H	0.886047	0.572507	0.568409
	H62	H	0.116619	0.578877	0.390859
	H63	H	0.884916	0.400828	0.383129
	H64	H	0.417210	0.580902	0.088578
	H65	H	0.588972	0.577816	0.863328
	H66	H	0.593869	0.386406	0.092435
	H67	H	0.413509	0.394029	0.862504
	H68	H	0.584523	0.102359	0.380509
	H69	H	0.584909	0.870628	0.566941
	H70	H	0.412339	0.102888	0.569927
	H71	H	0.417578	0.874635	0.381212
	H72	H	0.916006	0.603943	0.066435
	H73	H	0.096617	0.370978	0.069633
	H74	H	0.086541	0.602175	0.881973
	H75	H	0.921947	0.377144	0.889967
	H76	H	0.083101	0.894718	0.587568
	H77	H	0.089329	0.079826	0.360699
	H78	H	0.903740	0.079593	0.591167
	H79	H	0.895255	0.893946	0.357333
	H80	H	0.618835	0.074504	0.873471
	H81	H	0.379118	0.078669	0.076240
	H82	H	0.616841	0.902223	0.073399
	H83	H	0.384600	0.893819	0.888920
	H84	H	0.619340	0.890476	0.065495
	H85	H	0.383448	0.087395	0.053383
	H86	H	0.619702	0.084899	0.883172
	H87	H	0.386940	0.903083	0.885374
	H88	H	0.905330	0.074341	0.588985
	H89	H	0.087768	0.078852	0.361172
	H90	H	0.095215	0.889688	0.594157
	H91	H	0.911101	0.903390	0.365790
	H92	H	0.093971	0.602266	0.889499
	H93	H	0.092065	0.371036	0.074782
	H94	H	0.913158	0.603551	0.065024
	H95	H	0.905331	0.372220	0.892397
	H96	H	0.412348	0.100333	0.560884
	H97	H	0.586956	0.871481	0.563466
	H98	H	0.587325	0.101780	0.386375
	H99	H	0.400123	0.872003	0.389091
	H100	H	0.601790	0.395499	0.092700
	H101	H	0.594800	0.582881	0.859406
	H102	H	0.408541	0.578295	0.090458
	H103	H	0.407342	0.392492	0.859912
	H104	H	0.116300	0.573343	0.387563
	H105	H	0.884272	0.575671	0.569781
	H106	H	0.121119	0.389856	0.574510
	H107	H	0.883946	0.396313	0.383738
	H108	H	0.913539	0.605210	0.068151
	H109	H	0.090024	0.373602	0.068856
	H110	H	0.095833	0.607432	0.880278
	H111	H	0.912315	0.369504	0.877608
	H112	H	0.094943	0.903295	0.589123
	H113	H	0.087284	0.080550	0.361238
	H114	H	0.909230	0.079207	0.590228
	H115	H	0.913156	0.884100	0.360919
	H116	H	0.613762	0.072305	0.887457
	H117	H	0.389982	0.063773	0.059169
	H118	H	0.613293	0.902991	0.059624
	H119	H	0.382575	0.895955	0.879199
	C120	C	0.377941	-0.004986	0.595113
	C121	C	0.618928	0.977720	0.595614
	C122	C	0.618835	-0.004394	0.353221
	C123	C	0.376077	0.978674	0.350689
	C124	C	0.625029	0.364748	-0.015114
	C125	C	0.624842	0.609886	0.967016
	C126	C	0.381019	0.608557	-0.016490
	C127	C	0.379760	0.364125	0.967506
	C128	C	0.009787	0.608395	0.356180
	C129	C	0.992026	0.606961	0.598370
	C130	C	0.010006	0.364633	0.599830
	C131	C	0.992548	0.367395	0.356111
	C132	C	0.882418	0.497356	0.097803
	C133	C	0.124672	0.478927	0.100089
	C134	C	0.122737	0.496302	0.855596
	C135	C	0.881664	0.480298	0.855640
	C136	C	0.120099	0.865464	0.484596
	C137	C	0.120217	0.108539	0.466939
	C138	C	0.876038	0.109094	0.483998
	C139	C	0.875755	0.863394	0.467026
	C140	C	0.509374	0.108449	0.851940
	C141	C	0.491819	0.106885	0.094403
	C142	C	0.509036	0.865993	0.095816
	C143	C	0.492133	0.866285	0.853776
	C144	C	0.374300	0.874211	0.654997
	C145	C	0.621759	0.098955	0.654107
	C146	C	0.620704	0.874290	0.295535
	C147	C	0.374550	0.100393	0.292383
	C148	C	0.681327	0.368207	0.863750
	C149	C	0.682895	0.610708	0.087624
	C150	C	0.321854	0.608896	0.863281
	C151	C	0.323819	0.364910	0.088597
	C152	C	0.886480	0.664677	0.355898
	C153	C	0.113676	0.667184	0.599451
	C154	C	0.885939	0.309773	0.598117
	C155	C	0.115426	0.308950	0.358727
	C156	C	0.887557	0.365043	0.657438
	C157	C	0.114749	0.609650	0.656137
	C158	C	0.888833	0.611657	0.295123
	C159	C	0.115565	0.365537	0.299897
	C160	C	0.378831	0.667407	0.863259
	C161	C	0.626430	0.668981	0.086479
	C162	C	0.623660	0.309519	0.863647
	C163	C	0.380895	0.306155	0.088201
	C164	C	0.676479	0.873517	0.353961
	C165	C	0.677227	0.099650	0.594905
	C166	C	0.321895	0.872114	0.592711
	C167	C	0.319305	0.101499	0.352432
	C168	C	0.881088	0.375793	0.156472
	C169	C	0.125819	0.600923	0.156682
	C170	C	0.124740	0.374487	0.798896
	C171	C	0.879616	0.601342	0.796185
	C172	C	0.174820	0.866718	0.362408
	C173	C	0.178543	0.105564	0.587810
	C174	C	0.820400	0.107761	0.362311
	C175	C	0.818564	0.865222	0.587713
	C176	C	0.386425	0.166019	0.853242
	C177	C	0.615868	0.161846	0.093538
	C178	C	0.386846	0.807063	0.094543
	C179	C	0.615586	0.809675	0.854655
	C180	C	0.386273	0.863999	0.152523
	C181	C	0.613530	0.108571	0.154239
	C182	C	0.385978	0.109126	0.795468
	C183	C	0.613940	0.864839	0.794900
	C184	C	0.877475	0.167401	0.363636
	C185	C	0.120717	0.162838	0.588951
	C186	C	0.118525	0.807693	0.364033
	C187	C	0.875194	0.806170	0.587859
	C188	C	0.178210	0.372965	0.859353
	C189	C	0.180942	0.601761	0.096560
	C190	C	0.826251	0.374628	0.096399
	C191	C	0.824671	0.602672	0.856471
	C192	C	0.402478	0.080173	0.571874
	C193	C	0.594104	0.892854	0.572349
	C194	C	0.594391	0.080612	0.376133
	C195	C	0.400011	0.893290	0.373884
	C196	C	0.602176	0.386575	0.069210
	C197	C	0.600632	0.585950	0.883382
	C198	C	0.406243	0.584416	0.067257
	C199	C	0.402998	0.388118	0.883542
	C200	C	0.094806	0.583975	0.380991
	C201	C	0.906922	0.581843	0.574692
	C202	C	0.095686	0.387384	0.576910
	C203	C	0.907079	0.391727	0.378308
	C204	C	0.907172	0.582372	0.073563
	C205	C	0.100193	0.393768	0.077622
	C206	C	0.098876	0.581678	0.877562
	C207	C	0.906265	0.395064	0.879535
	C208	C	0.097690	0.888898	0.568284
	C209	C	0.095393	0.086410	0.383035
	C210	C	0.899306	0.084943	0.568193
	C211	C	0.899567	0.886895	0.383153
	C212	C	0.595303	0.084350	0.874592
	C213	C	0.406396	0.083298	0.070101
	C214	C	0.594453	0.891188	0.072783
	C215	C	0.407003	0.890638	0.877530
	Zn216	Zn	0.498804	-0.013840	0.724373
	Zn217	Zn	0.499094	-0.012346	0.223529
	Zn218	Zn	0.753355	0.488643	-0.022833
	Zn219	Zn	0.251218	0.487753	-0.023699
	Zn220	Zn	-0.000729	0.735281	0.477471
	Zn221	Zn	-0.000493	0.238089	0.477655
	Zn222	Zn	0.002604	0.487126	0.726785
	Zn223	Zn	0.002810	0.488740	0.227508
	Zn224	Zn	0.502407	0.737743	-0.025226
	Zn225	Zn	0.501932	0.235144	-0.025227
	Zn226	Zn	0.746799	-0.013798	0.474671
	Zn227	Zn	0.249558	-0.013200	0.474126
	N228	N	0.408566	0.951640	0.656595
	N229	N	0.586301	0.022064	0.654621
	N230	N	0.585559	0.951477	0.294816
	N231	N	0.408879	0.023000	0.291148
	N232	N	0.682515	0.401746	0.940178
	N233	N	0.681817	0.574280	0.012318
	N234	N	0.323170	0.572959	0.939045
	N235	N	0.322878	0.400281	0.012683
	N236	N	0.962660	0.662644	0.393626
	N237	N	0.036386	0.665684	0.564162
	N238	N	0.963119	0.309015	0.563365
	N239	N	0.037838	0.309762	0.393067
	N240	N	0.965844	0.398202	0.658933
	N241	N	0.038160	0.572908	0.655553
	N242	N	0.966566	0.577289	0.295231
	N243	N	0.038304	0.400993	0.298201
	N244	N	0.414870	0.667394	0.938971
	N245	N	0.590864	0.668421	0.010827
	N246	N	0.589454	0.307141	0.939817
	N247	N	0.414762	0.305367	0.011743
	N248	N	0.675410	0.949861	0.389246
	N249	N	0.675589	0.023243	0.559329
	N250	N	0.324106	0.948365	0.556079
	N251	N	0.319859	0.024539	0.387771
	N252	N	0.915212	0.453262	0.157364
	N253	N	0.092126	0.523391	0.159207
	N254	N	0.091033	0.452146	0.796336
	N255	N	0.914527	0.524040	0.795734
	N256	N	0.176377	0.901865	0.438158
	N257	N	0.178793	0.072714	0.510983
	N258	N	0.819599	0.072241	0.438229
	N259	N	0.818589	0.899843	0.511384
	N260	N	0.464247	0.166027	0.887369
	N261	N	0.539262	0.160880	0.056904
	N262	N	0.464331	0.807980	0.060250
	N263	N	0.538953	0.810622	0.890600
	N264	N	0.463458	0.899646	0.153564
	N265	N	0.535261	0.075117	0.154850
	N266	N	0.463654	0.074374	0.794216
	N267	N	0.536033	0.898978	0.793997
	N268	N	0.911128	0.168366	0.440369
	N269	N	0.085222	0.164858	0.512898
	N270	N	0.085221	0.806774	0.440736
	N271	N	0.909950	0.804903	0.511898
	N272	N	0.177067	0.449806	0.893984
	N273	N	0.180455	0.524736	0.062132
	N274	N	0.826984	0.451350	0.060743
	N275	N	0.825824	0.526291	0.892679
	O276	O	0.389231	0.623799	0.503851
	H277	H	0.394350	0.622375	0.497891
	H278	H	0.392784	0.632929	0.508687
	O279	O	0.504182	0.583386	0.308454
	H280	H	0.503021	0.571697	0.320985
	H281	H	0.513224	0.590334	0.299552
	O282	O	1.067430	0.039621	1.145455
	H283	H	1.073941	0.045777	1.153867
	H284	H	1.066552	0.046806	1.141762
	O285	O	0.406370	0.509051	0.635615
	H286	H	0.394239	0.507410	0.637526
	H287	H	0.408159	0.506788	0.635697
	O288	O	0.847212	1.029652	0.926253
	H289	H	0.847358	1.043568	0.935336
	H290	H	0.846998	1.033946	0.924654
	O291	O	0.147037	0.902177	-0.007359
	H292	H	0.147722	0.906854	-0.015076
	H293	H	0.140811	0.891377	-0.004624
	O294	O	0.564045	0.608934	0.553981
	H295	H	0.578796	0.613811	0.565010
	H296	H	0.574554	0.613087	0.543513
	O297	O	0.521192	0.333721	0.351771
	H298	H	0.533608	0.346225	0.362843
	H299	H	0.540324	0.319437	0.361701
	O300	O	0.664614	0.431266	0.592595
	H301	H	0.645498	0.433538	0.593797
	H302	H	0.659232	0.427994	0.589336
	O303	O	0.397113	0.672379	0.429183
	H304	H	0.391728	0.685723	0.418563
	H305	H	0.393860	0.670983	0.407362
	O306	O	0.381080	0.492589	0.650755
	H307	H	0.361003	0.493350	0.671949
	H308	H	0.389659	0.515567	0.631496
	O309	O	0.363202	0.531776	0.390448
	H310	H	0.346444	0.545934	0.381408
	H311	H	0.354153	0.526654	0.398452
	O312	O	0.005694	0.124957	0.106724
	H313	H	-0.000939	0.135067	0.097200
	H314	H	0.013880	0.119702	0.120495
	O315	O	0.343692	0.301843	0.471586
	H316	H	0.332219	0.300214	0.464232
	H317	H	0.343718	0.296312	0.462236
	O318	O	-0.040390	1.007841	1.043501
	H319	H	-0.045222	1.006292	1.059431
	H320	H	-0.033409	1.006142	1.034065
	O321	O	0.531286	0.622675	0.363340
	H322	H	0.541049	0.621898	0.359897
	H323	H	0.541319	0.628076	0.363967
	O324	O	-0.157488	0.991221	0.081172
	H325	H	-0.150659	0.987556	0.080369
	H326	H	-0.152972	0.979033	0.081175
	O327	O	0.368980	0.465052	0.394967
	H328	H	0.379451	0.466884	0.394575
	H329	H	0.369978	0.461471	0.389672
	O330	O	0.108437	-0.097349	1.019101
	H331	H	0.099619	-0.102250	1.016282
	H332	H	0.118735	-0.094849	1.024444
	O333	O	-0.012267	-0.099406	1.035926
	H334	H	-0.014164	-0.079404	1.027822
	H335	H	-0.020821	-0.108234	1.035642
	O336	O	0.580743	0.455408	0.451734
	H337	H	0.575017	0.456926	0.459422
	H338	H	0.586910	0.453727	0.450795
	O339	O	0.498351	0.572916	0.497290
	H340	H	0.514347	0.576607	0.502528
	H341	H	0.496390	0.582391	0.482588
	O342	O	0.383592	-0.645465	0.623392
	H343	H	0.378229	-0.644324	0.631633
	H344	H	0.370254	-0.635884	0.614765
	O345	O	0.939913	0.884527	1.869662
	H346	H	0.940450	0.894791	1.859922
	H347	H	0.948748	0.876881	1.867700
	O348	O	0.990434	0.846965	-0.155661
	H349	H	1.002131	0.830652	-0.160539
	H350	H	0.989949	0.862970	-0.165838
	O351	O	0.585881	0.328186	0.612335
	H352	H	0.573486	0.312876	0.618101
	H353	H	0.561584	0.340351	0.618007
	O354	O	0.891246	-0.054773	1.042616
	H355	H	0.908444	-0.058112	1.045488
	H356	H	0.892239	-0.066279	1.028946
	O357	O	0.496912	0.539947	0.267850
	H358	H	0.503423	0.558947	0.251441
	H359	H	0.490069	0.531156	0.274899
	O360	O	0.976222	0.995660	1.080544
	H361	H	0.974011	1.011683	1.079675
	H362	H	0.967304	0.992831	1.073826
	O363	O	0.166162	1.099796	1.046595
	H364	H	0.186023	1.115487	1.054257
	H365	H	0.156605	1.098446	1.049687
	O366	O	0.579329	0.284551	0.578750
	H367	H	0.569514	0.274003	0.581701
	H368	H	0.569049	0.286329	0.567481
	O369	O	0.137196	0.881353	-0.155909
	H370	H	0.153504	0.872148	-0.151371
	H371	H	0.135376	0.907585	-0.153398
	O372	O	0.593572	0.363496	0.362425
	H373	H	0.593605	0.357242	0.383404
	H374	H	0.605114	0.346630	0.354135
	O375	O	0.628760	0.491215	0.329635
	H376	H	0.611174	0.510573	0.337077
	H377	H	0.632272	0.500629	0.329514
	O378	O	1.126965	0.989435	0.010538
	H379	H	1.133339	0.992749	0.024376
	H380	H	1.125454	0.997144	0.013246
	O381	O	1.090629	0.067367	-0.166013
	H382	H	1.079342	0.062599	-0.163159
	H383	H	1.080496	0.061215	-0.158770
	O384	O	0.973367	1.161247	-0.044364
	H385	H	0.956346	1.169390	-0.042810
	H386	H	0.966071	1.166747	-0.040412
	O387	O	-0.331492	0.654030	0.578767
	H388	H	-0.325725	0.663133	0.592206
	H389	H	-0.315242	0.657998	0.582651
	O390	O	0.651431	0.411402	0.369057
	H391	H	0.648742	0.404522	0.368434
	H392	H	0.658505	0.424831	0.366270
	O393	O	0.925766	0.848251	1.025738
	H394	H	0.910479	0.841044	1.014889
	H395	H	0.932282	0.843291	1.028826
	O396	O	0.505651	0.316940	0.520210
	H397	H	0.491148	0.316129	0.526910
	H398	H	0.510840	0.315657	0.515477
	O399	O	-0.104753	1.104801	0.917131
	H400	H	-0.113583	1.119276	0.931014
	H401	H	-0.092565	1.107183	0.919473
	O402	O	0.348523	0.492848	0.550459
	H403	H	0.341063	0.506938	0.549617
	H404	H	0.370835	0.502359	0.547207
	O405	O	1.044884	1.082372	-0.068394
	H406	H	1.039105	1.065526	-0.056442
	H407	H	1.051737	1.098925	-0.077120
	O408	O	0.967296	1.117494	-0.221781
	H409	H	0.945473	1.117979	-0.217845
	H410	H	0.957361	1.133104	-0.225732
	O411	O	0.639987	-0.372835	2.610297
	H412	H	0.632167	-0.396254	2.615307
	H413	H	0.625099	-0.380576	2.614008
	O414	O	0.497069	0.444176	0.383159
	H415	H	0.504968	0.435460	0.370994
	H416	H	0.489544	0.446161	0.387332
	O417	O	-0.103524	0.058734	0.902016
	H418	H	-0.113681	0.064164	0.893256
	H419	H	-0.105513	0.068474	0.909767
