data_Molecule from HDF5

_cell_length_a		16.196253
_cell_length_b		16.334150
_cell_length_c		16.060142
_cell_angle_alpha	89.701480
_cell_angle_beta	89.967676
_cell_angle_gamma	90.347905
_symmetry_space_group_name_H-M	'P 1'
_symmetry_Int_Tables_number		1

loop_
	_symmetry_equiv_pos_as_xyz
	x,y,z

loop_
	_atom_site_label
	_atom_site_type_symbol
	_atom_site_fract_x
	_atom_site_fract_y
	_atom_site_fract_z
	H0	H	0.401758	0.832965	0.709044
	H1	H	0.597082	0.161875	0.706936
	H2	H	0.596307	0.833301	0.282696
	H3	H	0.404233	0.161274	0.280811
	H4	H	0.709990	0.402732	0.828143
	H5	H	0.713997	0.596581	0.159972
	H6	H	0.287921	0.594737	0.828226
	H7	H	0.284599	0.397067	0.160539
	H8	H	0.835296	0.713112	0.392211
	H9	H	0.161540	0.713457	0.597128
	H10	H	0.835471	0.278023	0.596808
	H11	H	0.162994	0.283329	0.394712
	H12	H	0.832869	0.397809	0.707718
	H13	H	0.164347	0.590697	0.704971
	H14	H	0.833282	0.592892	0.281962
	H15	H	0.163758	0.402335	0.283242
	H16	H	0.400110	0.711779	0.829813
	H17	H	0.600759	0.711234	0.160283
	H18	H	0.599033	0.285101	0.829414
	H19	H	0.398501	0.281054	0.159908
	H20	H	0.713468	0.833292	0.397136
	H21	H	0.716694	0.159844	0.593569
	H22	H	0.283156	0.834005	0.596313
	H23	H	0.285129	0.160789	0.394032
	H24	H	0.899609	0.332863	0.208508
	H25	H	0.096828	0.661421	0.206604
	H26	H	0.093692	0.331750	0.783523
	H27	H	0.903557	0.660518	0.779837
	H28	H	0.211717	0.901038	0.329600
	H29	H	0.211880	0.092957	0.662280
	H30	H	0.787722	0.094400	0.329106
	H31	H	0.786217	0.896730	0.660874
	H32	H	0.335657	0.213454	0.891730
	H33	H	0.663205	0.215182	0.095550
	H34	H	0.336074	0.779227	0.097081
	H35	H	0.663574	0.783040	0.894260
	H36	H	0.333992	0.899832	0.208121
	H37	H	0.665682	0.094130	0.205769
	H38	H	0.333081	0.092680	0.782169
	H39	H	0.665260	0.904375	0.784909
	H40	H	0.899725	0.210945	0.330361
	H41	H	0.099351	0.210808	0.660820
	H42	H	0.098172	0.783833	0.329851
	H43	H	0.897722	0.779572	0.659919
	H44	H	0.212935	0.333682	0.895443
	H45	H	0.214370	0.660777	0.091575
	H46	H	0.780677	0.335321	0.095407
	H47	H	0.785813	0.660567	0.892643
	H48	H	0.417055	0.111575	0.589849
	H49	H	0.593557	0.879665	0.591705
	H50	H	0.594397	0.112914	0.402685
	H51	H	0.412641	0.886265	0.411330
	H52	H	0.585829	0.416763	0.109020
	H53	H	0.595090	0.595860	0.873942
	H54	H	0.405026	0.587100	0.113620
	H55	H	0.397990	0.407026	0.875314
	H56	H	0.119877	0.600531	0.399142
	H57	H	0.877377	0.588719	0.597499
	H58	H	0.118736	0.403281	0.595602
	H59	H	0.882250	0.400018	0.408677
	H60	H	0.116760	0.395151	0.583723
	H61	H	0.878860	0.598772	0.581886
	H62	H	0.112657	0.590153	0.412967
	H63	H	0.881547	0.405987	0.400824
	H64	H	0.410179	0.587233	0.112060
	H65	H	0.593571	0.587632	0.876464
	H66	H	0.581713	0.395701	0.113336
	H67	H	0.412850	0.410817	0.879277
	H68	H	0.596873	0.113492	0.402350
	H69	H	0.589911	0.881040	0.589120
	H70	H	0.401280	0.112226	0.576639
	H71	H	0.392329	0.878443	0.406498
	H72	H	0.909032	0.611217	0.081497
	H73	H	0.084735	0.381509	0.094425
	H74	H	0.096134	0.613940	0.900363
	H75	H	0.908213	0.377601	0.891669
	H76	H	0.101319	0.907662	0.615912
	H77	H	0.107741	0.096455	0.370352
	H78	H	0.922790	0.084609	0.609077
	H79	H	0.898523	0.908938	0.375868
	H80	H	0.617174	0.090073	0.900309
	H81	H	0.383582	0.092830	0.080299
	H82	H	0.613501	0.907016	0.080220
	H83	H	0.383692	0.901493	0.911297
	H84	H	0.617844	0.908375	0.094964
	H85	H	0.384054	0.083379	0.087566
	H86	H	0.617193	0.095979	0.901020
	H87	H	0.382432	0.908774	0.900276
	H88	H	0.905261	0.101070	0.618839
	H89	H	0.090256	0.074826	0.382332
	H90	H	0.081174	0.910031	0.608928
	H91	H	0.914332	0.905604	0.379143
	H92	H	0.094666	0.613956	0.897751
	H93	H	0.091591	0.383394	0.080077
	H94	H	0.898660	0.616170	0.086991
	H95	H	0.910147	0.385201	0.912687
	H96	H	0.398934	0.118468	0.596462
	H97	H	0.594353	0.880477	0.587858
	H98	H	0.595047	0.113844	0.399842
	H99	H	0.408193	0.878759	0.391405
	H100	H	0.601989	0.403825	0.116411
	H101	H	0.586488	0.593594	0.876931
	H102	H	0.407027	0.591059	0.114286
	H103	H	0.408436	0.396108	0.874105
	H104	H	0.115694	0.582912	0.396249
	H105	H	0.884972	0.580804	0.582371
	H106	H	0.112916	0.408974	0.584124
	H107	H	0.877837	0.397644	0.400798
	H108	H	0.909493	0.614993	0.094115
	H109	H	0.100320	0.377191	0.092564
	H110	H	0.093299	0.613259	0.900243
	H111	H	0.891175	0.377639	0.905500
	H112	H	0.088578	0.891700	0.616723
	H113	H	0.079057	0.101691	0.376816
	H114	H	0.897846	0.077179	0.613094
	H115	H	0.904278	0.894641	0.373315
	H116	H	0.615187	0.093401	0.905162
	H117	H	0.380076	0.093687	0.092070
	H118	H	0.619269	0.895153	0.087736
	H119	H	0.378948	0.896289	0.898903
	C120	C	0.376920	0.005748	0.617149
	C121	C	0.621565	0.988669	0.617027
	C122	C	0.622308	0.005533	0.373594
	C123	C	0.377454	0.989147	0.373446
	C124	C	0.619081	0.377577	0.003283
	C125	C	0.620931	0.619806	0.985768
	C126	C	0.378646	0.617435	0.003351
	C127	C	0.376950	0.375015	0.985588
	C128	C	0.007270	0.618915	0.373261
	C129	C	0.989474	0.617670	0.615993
	C130	C	0.007240	0.373388	0.617199
	C131	C	0.989782	0.374521	0.374123
	C132	C	0.876251	0.506113	0.116670
	C133	C	0.120758	0.488751	0.116755
	C134	C	0.121563	0.505296	0.872200
	C135	C	0.876809	0.488501	0.873407
	C136	C	0.119436	0.875841	0.504223
	C137	C	0.121241	0.118330	0.486673
	C138	C	0.879503	0.116554	0.504148
	C139	C	0.877175	0.873922	0.485794
	C140	C	0.507347	0.119856	0.872946
	C141	C	0.491313	0.118900	0.115774
	C142	C	0.508327	0.874616	0.117154
	C143	C	0.490686	0.875567	0.874553
	C144	C	0.380186	0.882121	0.671737
	C145	C	0.618283	0.112570	0.670176
	C146	C	0.617936	0.882303	0.319492
	C147	C	0.382267	0.112468	0.318222
	C148	C	0.673419	0.381369	0.878128
	C149	C	0.675862	0.616330	0.110618
	C150	C	0.324638	0.615142	0.878176
	C151	C	0.321831	0.376813	0.110712
	C152	C	0.883882	0.674170	0.373666
	C153	C	0.113061	0.673793	0.615232
	C154	C	0.883975	0.316861	0.616206
	C155	C	0.113670	0.320577	0.375161
	C156	C	0.882763	0.376678	0.671360
	C157	C	0.114391	0.613223	0.669233
	C158	C	0.882932	0.614691	0.318665
	C159	C	0.114113	0.379725	0.319586
	C160	C	0.380567	0.673627	0.878928
	C161	C	0.619747	0.673681	0.110786
	C162	C	0.617961	0.323088	0.878592
	C163	C	0.378269	0.319033	0.110440
	C164	C	0.675926	0.882095	0.376803
	C165	C	0.678125	0.111326	0.614350
	C166	C	0.321280	0.882759	0.615677
	C167	C	0.323350	0.112048	0.374743
	C168	C	0.878940	0.382405	0.171495
	C169	C	0.117895	0.612201	0.170100
	C170	C	0.116207	0.381408	0.819233
	C171	C	0.881722	0.611633	0.817327
	C172	C	0.174410	0.879812	0.379205
	C173	C	0.175017	0.114153	0.612327
	C174	C	0.825137	0.114259	0.378787
	C175	C	0.822859	0.875985	0.611026
	C176	C	0.384202	0.174711	0.873514
	C177	C	0.614664	0.175466	0.114495
	C178	C	0.384723	0.818180	0.116647
	C179	C	0.614823	0.821787	0.875851
	C180	C	0.383817	0.877859	0.171927
	C181	C	0.615925	0.115371	0.169381
	C182	C	0.382987	0.114868	0.818688
	C183	C	0.615504	0.881365	0.820711
	C184	C	0.880596	0.172347	0.379513
	C185	C	0.119335	0.172871	0.611686
	C186	C	0.118380	0.821307	0.379346
	C187	C	0.878289	0.817901	0.610481
	C188	C	0.175408	0.382258	0.875282
	C189	C	0.176324	0.611939	0.113056
	C190	C	0.819956	0.383410	0.115026
	C191	C	0.823152	0.611738	0.873470
	C192	C	0.399164	0.091757	0.594434
	C193	C	0.599202	0.902702	0.595857
	C194	C	0.601647	0.091284	0.395220
	C195	C	0.398336	0.903276	0.396233
	C196	C	0.596477	0.399026	0.090386
	C197	C	0.598413	0.598615	0.898295
	C198	C	0.400977	0.595114	0.090792
	C199	C	0.399719	0.397798	0.898730
	C200	C	0.093691	0.597571	0.396038
	C201	C	0.902765	0.595905	0.593897
	C202	C	0.093931	0.395869	0.594645
	C203	C	0.902932	0.395075	0.396688
	C204	C	0.899165	0.591894	0.094073
	C205	C	0.098692	0.402731	0.095552
	C206	C	0.100864	0.591497	0.893268
	C207	C	0.897208	0.402630	0.896510
	C208	C	0.096898	0.896754	0.591498
	C209	C	0.098999	0.097271	0.399180
	C210	C	0.901880	0.094124	0.591308
	C211	C	0.899253	0.896400	0.398603
	C212	C	0.594115	0.099207	0.895493
	C213	C	0.404758	0.096485	0.093301
	C214	C	0.594622	0.896848	0.094248
	C215	C	0.404097	0.896201	0.896979
	Zn216	Zn	0.498932	-0.002653	0.745773
	Zn217	Zn	0.499958	-0.002686	0.244646
	Zn218	Zn	0.747327	0.498335	-0.005835
	Zn219	Zn	0.250149	0.496883	-0.005304
	Zn220	Zn	-0.001505	0.746970	0.494903
	Zn221	Zn	-0.000777	0.245076	0.495286
	Zn222	Zn	-0.001724	0.495980	0.744313
	Zn223	Zn	-0.001594	0.496980	0.245612
	Zn224	Zn	0.499730	0.746104	-0.004510
	Zn225	Zn	0.499395	0.248270	-0.005188
	Zn226	Zn	0.751773	-0.003769	0.495419
	Zn227	Zn	0.248232	-0.002787	0.495661
	N228	N	0.414020	0.959646	0.673045
	N229	N	0.583683	0.035341	0.672076
	N230	N	0.585247	0.959830	0.317485
	N231	N	0.415417	0.035057	0.317513
	N232	N	0.674278	0.414590	0.956789
	N233	N	0.676828	0.583667	0.031795
	N234	N	0.323661	0.580772	0.956542
	N235	N	0.320913	0.410874	0.032133
	N236	N	0.962152	0.676963	0.406893
	N237	N	0.034396	0.676821	0.582958
	N238	N	0.962403	0.314967	0.583129
	N239	N	0.035204	0.317149	0.408382
	N240	N	0.960568	0.411104	0.672057
	N241	N	0.036710	0.578711	0.669616
	N242	N	0.960733	0.580997	0.318255
	N243	N	0.036133	0.412431	0.318733
	N244	N	0.413244	0.675231	0.958043
	N245	N	0.586285	0.675984	0.031965
	N246	N	0.584980	0.320366	0.957456
	N247	N	0.411877	0.317599	0.031660
	N248	N	0.678897	0.959675	0.409700
	N249	N	0.680408	0.033366	0.582284
	N250	N	0.319299	0.960652	0.582536
	N251	N	0.320189	0.034340	0.408380
	N252	N	0.913391	0.459750	0.172486
	N253	N	0.084186	0.534659	0.172575
	N254	N	0.083366	0.458854	0.817167
	N255	N	0.914440	0.534114	0.817075
	N256	N	0.175260	0.912748	0.457829
	N257	N	0.176207	0.081253	0.533660
	N258	N	0.824456	0.080081	0.457432
	N259	N	0.822152	0.910401	0.532560
	N260	N	0.462569	0.178058	0.906498
	N261	N	0.536067	0.177667	0.081863
	N262	N	0.463026	0.816004	0.083347
	N263	N	0.536278	0.817765	0.908398
	N264	N	0.461578	0.912264	0.172470
	N265	N	0.538155	0.080904	0.170306
	N266	N	0.460825	0.081495	0.818073
	N267	N	0.537404	0.914310	0.819737
	N268	N	0.913858	0.173538	0.458365
	N269	N	0.086624	0.175644	0.532529
	N270	N	0.084812	0.818743	0.458038
	N271	N	0.911337	0.816576	0.531592
	N272	N	0.178844	0.460267	0.907188
	N273	N	0.178205	0.534206	0.080586
	N274	N	0.817869	0.461210	0.081906
	N275	N	0.819970	0.534336	0.907710
	O276	O	0.985922	0.994904	0.041019
	H277	H	0.986416	0.999687	0.041412
	H278	H	0.984941	0.997405	0.050051
	O279	O	-0.003348	0.017514	0.983587
	H280	H	-0.000455	0.013084	0.980042
	H281	H	-0.005521	0.012018	0.984100
	O282	O	0.024321	0.047354	-0.002595
	H283	H	0.035302	0.046038	-0.013998
	H284	H	0.028057	0.034585	0.008335
	O285	O	0.453990	0.473375	0.520651
	H286	H	0.457314	0.480231	0.529654
	H287	H	0.442257	0.466427	0.518823
	O288	O	0.035337	-0.008039	0.071925
	H289	H	0.042063	-0.003694	0.072508
	H290	H	0.025653	-0.009423	0.075490
	O291	O	-0.022735	1.018391	-0.034263
	H292	H	-0.021781	1.020298	-0.034142
	H293	H	-0.017836	1.013878	-0.037968
	O294	O	0.005511	1.013244	0.022717
	H295	H	0.004163	1.026116	0.025963
	H296	H	0.008785	1.019427	0.029778
	O297	O	0.493087	0.442926	0.539525
	H298	H	0.490368	0.449787	0.534126
	H299	H	0.492032	0.442728	0.537376
	O300	O	0.534956	0.561749	0.459634
	H301	H	0.535353	0.558729	0.457572
	H302	H	0.546515	0.545793	0.458054
	O303	O	1.028404	0.055882	1.051051
	H304	H	1.032409	0.055997	1.052580
	H305	H	1.026778	0.054121	1.044391
	O306	O	0.340307	1.359230	1.401229
	H307	H	0.338010	1.348955	1.412114
	H308	H	0.334561	1.370089	1.398550
	O309	O	-0.007968	1.047924	0.950984
	H310	H	-0.011423	1.057048	0.948328
	H311	H	-0.007529	1.047673	0.952501
	O312	O	0.070649	0.000224	0.997053
	H313	H	0.074242	0.001949	1.014436
	H314	H	0.059492	0.002053	0.992270
	O315	O	0.564693	0.468361	0.471269
	H316	H	0.557616	0.464253	0.481506
	H317	H	0.563555	0.467432	0.471157
	O318	O	0.449286	-0.467583	0.548384
	H319	H	0.441162	-0.462907	0.550852
	H320	H	0.452347	-0.469710	0.548710
	O321	O	0.519499	0.583662	0.475293
	H322	H	0.505912	0.576939	0.468793
	H323	H	0.521391	0.600299	0.470796
	O324	O	0.974854	0.053948	0.910740
	H325	H	0.983255	0.060452	0.913058
	H326	H	0.980646	0.043509	0.910724
	O327	O	0.962109	0.978369	1.011769
	H328	H	0.959485	0.975781	1.008313
	H329	H	0.953461	0.983052	1.007216
	O330	O	0.556640	0.445901	0.500101
	H331	H	0.561579	0.444597	0.499500
	H332	H	0.548659	0.458229	0.509626
	O333	O	0.447583	0.468454	0.527364
	H334	H	0.450429	0.471686	0.527522
	H335	H	0.443561	0.463136	0.526548
	O336	O	0.493198	0.542501	0.470540
	H337	H	0.497438	0.547292	0.470450
	H338	H	0.495706	0.541308	0.467696
	O339	O	0.469656	0.436516	0.427360
	H340	H	0.476824	0.437211	0.439491
	H341	H	0.461563	0.426045	0.433131
	O342	O	0.392202	0.581109	0.460429
	H343	H	0.394965	0.577264	0.458288
	H344	H	0.393245	0.588615	0.460738
	O345	O	0.390630	0.515290	0.545582
	H346	H	0.395933	0.511917	0.535004
	H347	H	0.382234	0.525164	0.553735
