data_Molecule from HDF5

_cell_length_a		16.171140
_cell_length_b		16.160857
_cell_length_c		16.352474
_cell_angle_alpha	89.841320
_cell_angle_beta	90.056716
_cell_angle_gamma	89.874117
_symmetry_space_group_name_H-M	'P 1'
_symmetry_Int_Tables_number		1

loop_
	_symmetry_equiv_pos_as_xyz
	x,y,z

loop_
	_atom_site_label
	_atom_site_type_symbol
	_atom_site_fract_x
	_atom_site_fract_y
	_atom_site_fract_z
	H0	H	0.398698	0.833396	0.720818
	H1	H	0.599147	0.161194	0.718304
	H2	H	0.600147	0.833200	0.290440
	H3	H	0.397945	0.160673	0.286635
	H4	H	0.718037	0.398554	0.840502
	H5	H	0.716799	0.594690	0.166477
	H6	H	0.287039	0.596227	0.840490
	H7	H	0.288462	0.398635	0.166450
	H8	H	0.835489	0.709533	0.406088
	H9	H	0.165903	0.710705	0.598801
	H10	H	0.835727	0.286750	0.602252
	H11	H	0.165064	0.284768	0.407928
	H12	H	0.837665	0.399926	0.719251
	H13	H	0.166388	0.598007	0.717771
	H14	H	0.838503	0.601613	0.285067
	H15	H	0.165411	0.397995	0.290674
	H16	H	0.402683	0.713530	0.840935
	H17	H	0.599827	0.709115	0.167300
	H18	H	0.601423	0.281632	0.839797
	H19	H	0.403960	0.282279	0.166342
	H20	H	0.712360	0.832383	0.407267
	H21	H	0.711919	0.161956	0.600909
	H22	H	0.285070	0.832775	0.602479
	H23	H	0.287042	0.162892	0.406004
	H24	H	0.902307	0.334590	0.220170
	H25	H	0.102537	0.661672	0.218003
	H26	H	0.104828	0.334583	0.788606
	H27	H	0.901724	0.661828	0.787755
	H28	H	0.215220	0.898626	0.340346
	H29	H	0.216115	0.097720	0.665690
	H30	H	0.784414	0.097254	0.339462
	H31	H	0.786844	0.899183	0.666026
	H32	H	0.336050	0.209989	0.906726
	H33	H	0.666221	0.207006	0.099972
	H34	H	0.336581	0.782530	0.101516
	H35	H	0.667037	0.785651	0.908789
	H36	H	0.336073	0.896885	0.218286
	H37	H	0.664419	0.095242	0.218540
	H38	H	0.336869	0.098190	0.789287
	H39	H	0.663606	0.894534	0.787368
	H40	H	0.901221	0.214333	0.340121
	H41	H	0.098022	0.211250	0.666395
	H42	H	0.097676	0.784828	0.339660
	H43	H	0.900909	0.782563	0.666120
	H44	H	0.213882	0.332264	0.908339
	H45	H	0.214240	0.662348	0.100123
	H46	H	0.788997	0.333123	0.103374
	H47	H	0.789185	0.663382	0.905500
	H48	H	0.414538	0.111898	0.597667
	H49	H	0.584256	0.880569	0.600179
	H50	H	0.599813	0.116319	0.417980
	H51	H	0.408236	0.876950	0.401701
	H52	H	0.588085	0.405204	0.116938
	H53	H	0.599711	0.595658	0.884459
	H54	H	0.410705	0.594005	0.120655
	H55	H	0.412304	0.407401	0.889716
	H56	H	0.116276	0.583168	0.411995
	H57	H	0.883152	0.584128	0.603860
	H58	H	0.118892	0.406385	0.596286
	H59	H	0.882664	0.408688	0.409665
	H60	H	0.119570	0.405391	0.598717
	H61	H	0.881389	0.597267	0.598962
	H62	H	0.121532	0.593312	0.401856
	H63	H	0.882716	0.406847	0.410473
	H64	H	0.403608	0.589000	0.121385
	H65	H	0.596724	0.584429	0.888292
	H66	H	0.596609	0.392665	0.122038
	H67	H	0.409321	0.398209	0.884782
	H68	H	0.592508	0.119264	0.398880
	H69	H	0.594475	0.880134	0.590916
	H70	H	0.404714	0.113951	0.590751
	H71	H	0.415839	0.883607	0.415615
	H72	H	0.909904	0.618854	0.106663
	H73	H	0.101781	0.377821	0.096646
	H74	H	0.102839	0.619973	0.903761
	H75	H	0.910482	0.381423	0.914271
	H76	H	0.092583	0.898784	0.620419
	H77	H	0.086052	0.102189	0.385717
	H78	H	0.903303	0.096746	0.620997
	H79	H	0.901044	0.889744	0.380976
	H80	H	0.616468	0.077130	0.907193
	H81	H	0.381945	0.092145	0.096281
	H82	H	0.612970	0.917885	0.093487
	H83	H	0.382052	0.901434	0.910580
	H84	H	0.624268	0.902711	0.115432
	H85	H	0.383491	0.087858	0.095026
	H86	H	0.622949	0.094934	0.901637
	H87	H	0.385268	0.905389	0.916931
	H88	H	0.901820	0.087854	0.619605
	H89	H	0.104251	0.092000	0.382972
	H90	H	0.098672	0.909051	0.619746
	H91	H	0.893631	0.914596	0.386226
	H92	H	0.082873	0.613712	0.905352
	H93	H	0.093976	0.377476	0.106076
	H94	H	0.919198	0.611134	0.091685
	H95	H	0.908901	0.379815	0.909496
	H96	H	0.404453	0.117608	0.602824
	H97	H	0.597960	0.875661	0.603250
	H98	H	0.580006	0.110858	0.413471
	H99	H	0.399565	0.878773	0.416468
	H100	H	0.603654	0.406529	0.120230
	H101	H	0.587933	0.593344	0.888236
	H102	H	0.410995	0.585870	0.117887
	H103	H	0.402140	0.406375	0.885536
	H104	H	0.119615	0.597881	0.416932
	H105	H	0.886242	0.587289	0.590625
	H106	H	0.118666	0.403489	0.596379
	H107	H	0.883410	0.408054	0.411635
	H108	H	0.900731	0.616525	0.089341
	H109	H	0.089988	0.381521	0.094331
	H110	H	0.096244	0.613753	0.921869
	H111	H	0.913777	0.381052	0.910718
	H112	H	0.087631	0.908029	0.616871
	H113	H	0.087184	0.081260	0.391813
	H114	H	0.910011	0.091086	0.617849
	H115	H	0.919392	0.907477	0.390977
	H116	H	0.617090	0.093035	0.920040
	H117	H	0.381765	0.089559	0.098746
	H118	H	0.619999	0.889989	0.089964
	H119	H	0.383297	0.909227	0.909867
	C120	C	0.378415	0.006026	0.625935
	C121	C	0.620995	0.987862	0.626059
	C122	C	0.620338	0.006379	0.382451
	C123	C	0.378662	0.988431	0.382210
	C124	C	0.624959	0.373715	0.011810
	C125	C	0.623389	0.618530	0.995128
	C126	C	0.379451	0.619344	0.012110
	C127	C	0.380061	0.375251	0.994547
	C128	C	0.010256	0.620284	0.381451
	C129	C	0.992608	0.618954	0.625213
	C130	C	0.010227	0.376604	0.626048
	C131	C	0.991732	0.377939	0.382941
	C132	C	0.881136	0.506769	0.124984
	C133	C	0.123675	0.488481	0.126184
	C134	C	0.123411	0.506954	0.882371
	C135	C	0.881714	0.489582	0.882543
	C136	C	0.121558	0.876377	0.511177
	C137	C	0.121580	0.119876	0.494632
	C138	C	0.876560	0.120751	0.511577
	C139	C	0.877422	0.875678	0.494331
	C140	C	0.509890	0.117757	0.882292
	C141	C	0.491533	0.117670	0.125183
	C142	C	0.509817	0.875290	0.126784
	C143	C	0.492517	0.876192	0.883907
	C144	C	0.379212	0.882407	0.682152
	C145	C	0.618960	0.111977	0.680462
	C146	C	0.619473	0.882426	0.328049
	C147	C	0.379136	0.112159	0.325833
	C148	C	0.679760	0.377636	0.888957
	C149	C	0.678351	0.615055	0.118109
	C150	C	0.324592	0.617257	0.889392
	C151	C	0.325852	0.377859	0.117607
	C152	C	0.885269	0.673462	0.384571
	C153	C	0.116784	0.673885	0.620884
	C154	C	0.885617	0.322866	0.623099
	C155	C	0.116062	0.322474	0.386695
	C156	C	0.886751	0.378655	0.682023
	C157	C	0.116907	0.617699	0.679679
	C158	C	0.886877	0.619891	0.324536
	C159	C	0.116153	0.378787	0.328594
	C160	C	0.382323	0.675393	0.889607
	C161	C	0.620616	0.672127	0.118312
	C162	C	0.622100	0.319115	0.888812
	C163	C	0.383520	0.320436	0.117582
	C164	C	0.675174	0.881922	0.386458
	C165	C	0.674937	0.112385	0.621978
	C166	C	0.323113	0.881998	0.623162
	C167	C	0.323878	0.113193	0.384939
	C168	C	0.882682	0.383246	0.181346
	C169	C	0.121827	0.612588	0.179999
	C170	C	0.123070	0.383314	0.827269
	C171	C	0.882385	0.613060	0.826397
	C172	C	0.177023	0.879037	0.388750
	C173	C	0.177152	0.117262	0.617225
	C174	C	0.821750	0.118205	0.388531
	C175	C	0.823792	0.878545	0.617433
	C176	C	0.385386	0.172912	0.885606
	C177	C	0.616444	0.171002	0.121754
	C178	C	0.385675	0.820166	0.122777
	C179	C	0.617063	0.822045	0.887036
	C180	C	0.385258	0.876836	0.180856
	C181	C	0.615386	0.115176	0.180687
	C182	C	0.385765	0.117240	0.827417
	C183	C	0.615334	0.876284	0.826875
	C184	C	0.879668	0.176451	0.388763
	C185	C	0.118772	0.174130	0.617564
	C186	C	0.118533	0.822054	0.388436
	C187	C	0.880742	0.820511	0.617275
	C188	C	0.177676	0.382228	0.886267
	C189	C	0.177701	0.612732	0.121602
	C190	C	0.826224	0.382709	0.123415
	C191	C	0.826008	0.613650	0.884457
	C192	C	0.401076	0.092292	0.603722
	C193	C	0.598803	0.901186	0.604385
	C194	C	0.597480	0.093132	0.403850
	C195	C	0.401266	0.902114	0.404662
	C196	C	0.602720	0.395007	0.097562
	C197	C	0.601369	0.597223	0.909189
	C198	C	0.401825	0.596194	0.097821
	C199	C	0.401437	0.397412	0.908771
	C200	C	0.096551	0.597977	0.403517
	C201	C	0.906120	0.596288	0.603994
	C202	C	0.096839	0.398670	0.603634
	C203	C	0.905523	0.401031	0.404325
	C204	C	0.903312	0.593269	0.102505
	C205	C	0.101770	0.401306	0.105243
	C206	C	0.100737	0.593576	0.903999
	C207	C	0.904379	0.403205	0.904942
	C208	C	0.099480	0.898688	0.596980
	C209	C	0.099191	0.098108	0.408833
	C210	C	0.898443	0.098648	0.597239
	C211	C	0.898539	0.897480	0.408333
	C212	C	0.596309	0.095179	0.903615
	C213	C	0.404790	0.096439	0.103053
	C214	C	0.596620	0.897135	0.105742
	C215	C	0.406009	0.898743	0.906066
	Zn216	Zn	0.500354	-0.003129	0.754746
	Zn217	Zn	0.499683	-0.003049	0.254207
	Zn218	Zn	0.753094	0.497800	0.003621
	Zn219	Zn	0.250677	0.496694	0.003817
	Zn220	Zn	0.000042	0.747115	0.502916
	Zn221	Zn	-0.000424	0.249393	0.503785
	Zn222	Zn	0.002653	0.497847	0.754302
	Zn223	Zn	0.002146	0.498586	0.253797
	Zn224	Zn	0.502118	0.747508	0.004655
	Zn225	Zn	0.501465	0.245878	0.002962
	Zn226	Zn	0.748271	-0.002848	0.503758
	Zn227	Zn	0.250520	-0.002233	0.503428
	N228	N	0.413035	0.960417	0.683859
	N229	N	0.586209	0.033510	0.683254
	N230	N	0.585828	0.960764	0.325814
	N231	N	0.412368	0.033752	0.324028
	N232	N	0.681682	0.410726	0.966452
	N233	N	0.680262	0.582444	0.040541
	N234	N	0.322742	0.583096	0.966516
	N235	N	0.323756	0.411341	0.040235
	N236	N	0.962761	0.673989	0.419251
	N237	N	0.038515	0.675015	0.587846
	N238	N	0.963450	0.321349	0.589246
	N239	N	0.037826	0.321685	0.419614
	N240	N	0.965253	0.411401	0.683766
	N241	N	0.038756	0.584335	0.682488
	N242	N	0.965503	0.587238	0.322468
	N243	N	0.038042	0.412664	0.326021
	N244	N	0.415697	0.676568	0.967129
	N245	N	0.587305	0.674471	0.040858
	N246	N	0.588664	0.316763	0.966112
	N247	N	0.416513	0.318609	0.040084
	N248	N	0.675942	0.960084	0.419560
	N249	N	0.676092	0.034311	0.588824
	N250	N	0.322451	0.959758	0.588886
	N251	N	0.323461	0.035339	0.419338
	N252	N	0.916160	0.461470	0.182420
	N253	N	0.089009	0.534277	0.182934
	N254	N	0.090138	0.461891	0.824519
	N255	N	0.916216	0.534987	0.825047
	N256	N	0.178812	0.912074	0.466202
	N257	N	0.178936	0.084382	0.539765
	N258	N	0.819491	0.084409	0.465957
	N259	N	0.821666	0.912139	0.540122
	N260	N	0.463570	0.173424	0.919047
	N261	N	0.538527	0.172704	0.087853
	N262	N	0.463950	0.818954	0.090108
	N263	N	0.539745	0.821863	0.921757
	N264	N	0.463458	0.910507	0.183297
	N265	N	0.536627	0.083004	0.183007
	N266	N	0.463934	0.083667	0.825144
	N267	N	0.536833	0.909361	0.824829
	N268	N	0.913099	0.178038	0.466107
	N269	N	0.084809	0.175888	0.540298
	N270	N	0.084953	0.820211	0.465755
	N271	N	0.913348	0.818463	0.539588
	N272	N	0.177884	0.460104	0.920042
	N273	N	0.178820	0.534294	0.088715
	N274	N	0.825300	0.460336	0.088883
	N275	N	0.825524	0.535785	0.918978
	O276	O	0.987878	0.994480	-0.086784
	H277	H	0.989302	0.992061	-0.087861
	H278	H	0.988250	0.985120	-0.091115
	O279	O	-0.027315	0.034251	-0.096568
	H280	H	-0.028633	0.045690	-0.101616
	H281	H	-0.033677	0.035297	-0.099568
	O282	O	0.026303	0.038168	0.970220
	H283	H	0.022784	0.039501	0.967895
	H284	H	0.023699	0.041803	0.965265
	O285	O	0.491051	0.410967	0.508206
	H286	H	0.492585	0.412571	0.504346
	H287	H	0.490980	0.402781	0.508301
	O288	O	0.484389	0.438391	0.536653
	H289	H	0.476836	0.429386	0.544835
	H290	H	0.483150	0.429954	0.534121
	O291	O	0.539059	0.510562	0.555471
	H292	H	0.541902	0.511317	0.543172
	H293	H	0.539710	0.505280	0.557078
	O294	O	-0.063185	0.102516	-0.049342
	H295	H	-0.068864	0.107691	-0.061813
	H296	H	-0.068272	0.093837	-0.044569
	O297	O	0.497429	0.492594	0.469000
	H298	H	0.508650	0.498435	0.470413
	H299	H	0.502754	0.494657	0.471305
	O300	O	-0.002682	1.006610	0.909882
	H301	H	-0.000714	1.019496	0.905415
	H302	H	-0.010977	0.998180	0.904649
	O303	O	0.489752	0.469115	0.454157
	H304	H	0.487577	0.467914	0.447516
	H305	H	0.483563	0.476692	0.459324
	O306	O	0.009018	-0.004651	0.865828
	H307	H	0.018932	-0.020254	0.859760
	H308	H	0.013267	-0.005918	0.869725
	O309	O	0.975420	1.089075	0.942263
	H310	H	0.982475	1.091067	0.952720
	H311	H	0.979675	1.086907	0.938343
	O312	O	0.530841	0.483254	0.500634
	H313	H	0.527323	0.484152	0.485763
	H314	H	0.525620	0.480335	0.504428
	O315	O	0.507811	0.471305	0.524345
	H316	H	0.508491	0.478389	0.519704
	H317	H	0.504829	0.465219	0.533501
	O318	O	0.012820	1.045169	-0.076091
	H319	H	0.014842	1.040319	-0.078346
	H320	H	0.007938	1.055515	-0.077788
	O321	O	1.069133	0.939962	-0.050889
	H322	H	1.067992	0.942018	-0.048151
	H323	H	1.073305	0.950166	-0.052924
