data_Molecule from HDF5

_cell_length_a		16.438088
_cell_length_b		16.500940
_cell_length_c		16.790478
_cell_angle_alpha	90.083416
_cell_angle_beta	89.922456
_cell_angle_gamma	89.871920
_symmetry_space_group_name_H-M	'P 1'
_symmetry_Int_Tables_number		1

loop_
	_symmetry_equiv_pos_as_xyz
	x,y,z

loop_
	_atom_site_label
	_atom_site_type_symbol
	_atom_site_fract_x
	_atom_site_fract_y
	_atom_site_fract_z
	H0	H	0.407807	0.839664	0.730358
	H1	H	0.616735	0.153785	0.729047
	H2	H	0.620959	0.840234	0.287801
	H3	H	0.408003	0.153234	0.289307
	H4	H	0.732123	0.393656	0.853933
	H5	H	0.732574	0.598882	0.165238
	H6	H	0.292031	0.598330	0.854362
	H7	H	0.295574	0.396512	0.168427
	H8	H	0.853261	0.712823	0.409976
	H9	H	0.170800	0.715602	0.613263
	H10	H	0.854527	0.278600	0.610432
	H11	H	0.171396	0.274843	0.404947
	H12	H	0.857887	0.387777	0.732073
	H13	H	0.168904	0.602806	0.732918
	H14	H	0.855007	0.599958	0.290701
	H15	H	0.171010	0.388479	0.287809
	H16	H	0.408193	0.717078	0.854266
	H17	H	0.615224	0.715322	0.165078
	H18	H	0.613772	0.278305	0.853080
	H19	H	0.411693	0.277293	0.167548
	H20	H	0.730752	0.838182	0.408831
	H21	H	0.728883	0.156010	0.608807
	H22	H	0.296336	0.837582	0.610061
	H23	H	0.296216	0.154197	0.409223
	H24	H	0.906485	0.340370	0.232287
	H25	H	0.119246	0.652269	0.231957
	H26	H	0.121331	0.340139	0.786917
	H27	H	0.901566	0.647879	0.783354
	H28	H	0.238686	0.887720	0.356603
	H29	H	0.237376	0.103781	0.662238
	H30	H	0.787967	0.104378	0.356930
	H31	H	0.790622	0.891638	0.663918
	H32	H	0.353164	0.211872	0.909566
	H33	H	0.672249	0.212483	0.109021
	H34	H	0.355924	0.776048	0.113954
	H35	H	0.672079	0.777377	0.907221
	H36	H	0.359011	0.886800	0.234504
	H37	H	0.670526	0.101570	0.229217
	H38	H	0.355433	0.099185	0.790376
	H39	H	0.670326	0.888119	0.786970
	H40	H	0.903099	0.222321	0.357548
	H41	H	0.121884	0.221425	0.661265
	H42	H	0.120428	0.771960	0.355815
	H43	H	0.905933	0.772400	0.662632
	H44	H	0.232069	0.337296	0.908157
	H45	H	0.232763	0.652830	0.113434
	H46	H	0.795060	0.338045	0.110769
	H47	H	0.791391	0.651587	0.904601
	H48	H	0.425884	0.109098	0.600491
	H49	H	0.608598	0.880604	0.602105
	H50	H	0.602292	0.109059	0.423205
	H51	H	0.426164	0.885916	0.428153
	H52	H	0.605071	0.402960	0.122329
	H53	H	0.599608	0.587058	0.899341
	H54	H	0.418907	0.580764	0.119474
	H55	H	0.414947	0.405187	0.897801
	H56	H	0.126433	0.580499	0.414967
	H57	H	0.903069	0.579791	0.597301
	H58	H	0.128224	0.401177	0.597026
	H59	H	0.894809	0.394880	0.415812
	H60	H	0.122983	0.413256	0.592092
	H61	H	0.899526	0.581546	0.601124
	H62	H	0.128139	0.589170	0.419899
	H63	H	0.906861	0.410547	0.434541
	H64	H	0.429822	0.585321	0.116742
	H65	H	0.604904	0.586344	0.897904
	H66	H	0.603897	0.405507	0.121379
	H67	H	0.425073	0.408521	0.901920
	H68	H	0.603593	0.111590	0.415532
	H69	H	0.598634	0.882223	0.605357
	H70	H	0.425082	0.108688	0.600377
	H71	H	0.421173	0.880030	0.414048
	H72	H	0.928441	0.609379	0.106064
	H73	H	0.101253	0.384354	0.096271
	H74	H	0.104114	0.609297	0.919196
	H75	H	0.930980	0.384985	0.919909
	H76	H	0.103419	0.910863	0.618193
	H77	H	0.103947	0.081778	0.399818
	H78	H	0.924589	0.086873	0.619744
	H79	H	0.921394	0.909961	0.399528
	H80	H	0.629695	0.085136	0.909732
	H81	H	0.399816	0.084369	0.099960
	H82	H	0.628740	0.908104	0.106885
	H83	H	0.400359	0.910085	0.916954
	H84	H	0.626259	0.901029	0.092530
	H85	H	0.399394	0.083794	0.100908
	H86	H	0.628954	0.093370	0.920218
	H87	H	0.399967	0.905937	0.919353
	H88	H	0.923637	0.086404	0.619652
	H89	H	0.100561	0.083640	0.400126
	H90	H	0.098229	0.904459	0.618852
	H91	H	0.928324	0.906498	0.400411
	H92	H	0.095667	0.607015	0.917132
	H93	H	0.105663	0.380684	0.103578
	H94	H	0.925113	0.606628	0.095904
	H95	H	0.922920	0.383744	0.924377
	H96	H	0.425752	0.108988	0.601020
	H97	H	0.601271	0.885051	0.595652
	H98	H	0.596058	0.108309	0.416806
	H99	H	0.436512	0.885270	0.415637
	H100	H	0.601873	0.402955	0.121322
	H101	H	0.602080	0.582018	0.899719
	H102	H	0.421892	0.592228	0.122992
	H103	H	0.423674	0.397563	0.898631
	H104	H	0.123841	0.581778	0.424593
	H105	H	0.901079	0.584964	0.597306
	H106	H	0.127305	0.412282	0.605224
	H107	H	0.901631	0.420721	0.409607
	H108	H	0.917851	0.611120	0.103148
	H109	H	0.096313	0.383657	0.104188
	H110	H	0.098690	0.606225	0.925578
	H111	H	0.924318	0.379621	0.915729
	H112	H	0.105965	0.904024	0.622464
	H113	H	0.103598	0.085384	0.397963
	H114	H	0.924590	0.085914	0.619488
	H115	H	0.922532	0.902389	0.397459
	H116	H	0.624553	0.080195	0.920953
	H117	H	0.399464	0.084905	0.100576
	H118	H	0.621932	0.916256	0.094437
	H119	H	0.401190	0.910349	0.921657
	C120	C	0.393245	0.004688	0.630921
	C121	C	0.633785	0.987567	0.630813
	C122	C	0.633854	0.005576	0.387877
	C123	C	0.394139	0.987338	0.388166
	C124	C	0.634371	0.373654	0.018182
	C125	C	0.633986	0.616755	1.001315
	C126	C	0.390847	0.618045	0.017533
	C127	C	0.390739	0.373655	1.002877
	C128	C	0.021660	0.615928	0.389147
	C129	C	1.004659	0.615803	0.630927
	C130	C	0.022433	0.375552	0.630096
	C131	C	1.005099	0.375008	0.388013
	C132	C	0.892301	0.504759	0.131716
	C133	C	0.134085	0.486800	0.132345
	C134	C	0.132939	0.503698	0.889318
	C135	C	0.892375	0.486122	0.887731
	C136	C	0.135700	0.873328	0.518061
	C137	C	0.135423	0.117204	0.500754
	C138	C	0.890786	0.119101	0.518434
	C139	C	0.891513	0.874341	0.501357
	C140	C	0.522192	0.117007	0.887530
	C141	C	0.504483	0.116138	0.130540
	C142	C	0.522261	0.875395	0.130652
	C143	C	0.504791	0.875564	0.887827
	C144	C	0.390384	0.886276	0.689948
	C145	C	0.635061	0.106764	0.689000
	C146	C	0.637622	0.887341	0.328384
	C147	C	0.390693	0.106067	0.329448
	C148	C	0.692580	0.374101	0.900701
	C149	C	0.693052	0.617812	0.118373
	C150	C	0.331593	0.618156	0.900843
	C151	C	0.334033	0.375632	0.121226
	C152	C	0.901288	0.673843	0.390241
	C153	C	0.123284	0.675945	0.632401
	C154	C	0.902845	0.316711	0.630503
	C155	C	0.123922	0.314691	0.386431
	C156	C	0.904562	0.371333	0.690778
	C157	C	0.122602	0.619779	0.691537
	C158	C	0.902043	0.617596	0.331082
	C159	C	0.123640	0.371591	0.328282
	C160	C	0.389251	0.677087	0.900817
	C161	C	0.634644	0.675833	0.118217
	C162	C	0.633652	0.316731	0.900301
	C163	C	0.391613	0.316494	0.120841
	C164	C	0.692432	0.886237	0.388529
	C165	C	0.690479	0.107958	0.629071
	C166	C	0.334969	0.885361	0.630247
	C167	C	0.335103	0.106560	0.389058
	C168	C	0.888949	0.386768	0.191316
	C169	C	0.137112	0.605172	0.191869
	C170	C	0.137911	0.386339	0.828478
	C171	C	0.885900	0.602115	0.825411
	C172	C	0.197571	0.869665	0.402534
	C173	C	0.196926	0.121250	0.615980
	C174	C	0.828704	0.122447	0.403047
	C175	C	0.830810	0.872585	0.617439
	C176	C	0.401513	0.173746	0.889219
	C177	C	0.624200	0.174198	0.129562
	C178	C	0.403675	0.815185	0.132922
	C179	C	0.624173	0.815903	0.887177
	C180	C	0.405224	0.870574	0.192698
	C181	C	0.623418	0.118926	0.189077
	C182	C	0.402654	0.118121	0.829732
	C183	C	0.623351	0.871517	0.827901
	C184	C	0.886295	0.180894	0.403154
	C185	C	0.139210	0.179774	0.615641
	C186	C	0.138909	0.812088	0.402371
	C187	C	0.888244	0.813502	0.616993
	C188	C	0.192597	0.384953	0.888847
	C189	C	0.193211	0.605588	0.132723
	C190	C	0.833536	0.385653	0.131358
	C191	C	0.831086	0.603855	0.885634
	C192	C	0.418514	0.087446	0.607278
	C193	C	0.609744	0.904192	0.607668
	C194	C	0.608138	0.088270	0.411654
	C195	C	0.420407	0.905118	0.412236
	C196	C	0.610504	0.397158	0.100252
	C197	C	0.609423	0.592098	0.920023
	C198	C	0.416059	0.593313	0.098781
	C199	C	0.414223	0.396959	0.920800
	C200	C	0.104621	0.591045	0.412926
	C201	C	0.922342	0.589659	0.605956
	C202	C	0.104715	0.401388	0.604955
	C203	C	0.922492	0.401050	0.412943
	C204	C	0.916942	0.587509	0.108243
	C205	C	0.108324	0.404227	0.108076
	C206	C	0.106779	0.586033	0.913648
	C207	C	0.918622	0.404046	0.912985
	C208	C	0.110156	0.899041	0.598690
	C209	C	0.109900	0.091156	0.420081
	C210	C	0.916777	0.093518	0.598693
	C211	C	0.916995	0.899199	0.420170
	C212	C	0.605845	0.093017	0.910316
	C213	C	0.421193	0.091416	0.107244
	C214	C	0.604412	0.901188	0.105140
	C215	C	0.422138	0.901249	0.912213
	Zn216	Zn	0.513479	-0.004290	0.759712
	Zn217	Zn	0.514054	-0.003511	0.259154
	Zn218	Zn	0.764336	0.495458	0.009600
	Zn219	Zn	0.261173	0.495836	0.010396
	Zn220	Zn	0.013299	0.744406	0.509843
	Zn221	Zn	0.013894	0.247235	0.509227
	Zn222	Zn	0.013894	0.495328	0.759628
	Zn223	Zn	0.013307	0.495762	0.259874
	Zn224	Zn	0.512947	0.747604	0.008955
	Zn225	Zn	0.512379	0.244004	0.010019
	Zn226	Zn	0.762010	-0.003080	0.509640
	Zn227	Zn	0.265204	-0.004507	0.509452
	N228	N	0.425810	0.961564	0.690409
	N229	N	0.601026	0.030792	0.690473
	N230	N	0.602280	0.962716	0.327588
	N231	N	0.426322	0.030758	0.328410
	N232	N	0.693139	0.408702	0.975070
	N233	N	0.693010	0.581974	0.044567
	N234	N	0.332260	0.582326	0.974667
	N235	N	0.333113	0.410022	0.046722
	N236	N	0.976652	0.672934	0.425592
	N237	N	0.048908	0.673630	0.595471
	N238	N	0.977368	0.318908	0.593555
	N239	N	0.049004	0.316500	0.422710
	N240	N	0.979883	0.407102	0.690696
	N241	N	0.047676	0.583125	0.690767
	N242	N	0.977948	0.582479	0.330036
	N243	N	0.048548	0.408184	0.328883
	N244	N	0.425154	0.677182	0.974588
	N245	N	0.599052	0.675727	0.044302
	N246	N	0.598300	0.316037	0.974525
	N247	N	0.425700	0.314859	0.046176
	N248	N	0.690576	0.960954	0.424645
	N249	N	0.689873	0.032797	0.593663
	N250	N	0.336371	0.960070	0.594359
	N251	N	0.336939	0.031778	0.424887
	N252	N	0.924384	0.461889	0.191873
	N253	N	0.101004	0.530181	0.191769
	N254	N	0.101551	0.461289	0.828603
	N255	N	0.923217	0.527655	0.826495
	N256	N	0.195828	0.907215	0.475556
	N257	N	0.194807	0.083206	0.543359
	N258	N	0.831383	0.084590	0.475601
	N259	N	0.832683	0.909726	0.544422
	N260	N	0.476937	0.173364	0.924429
	N261	N	0.549077	0.172712	0.093873
	N262	N	0.477562	0.818079	0.094889
	N263	N	0.549393	0.818037	0.923768
	N264	N	0.480058	0.907335	0.191511
	N265	N	0.547757	0.083893	0.189985
	N266	N	0.478802	0.083826	0.828272
	N267	N	0.548173	0.907846	0.828187
	N268	N	0.924274	0.179032	0.475828
	N269	N	0.101558	0.177355	0.542890
	N270	N	0.101244	0.814103	0.475215
	N271	N	0.925222	0.814534	0.543676
	N272	N	0.189820	0.459159	0.925908
	N273	N	0.191557	0.530895	0.096696
	N274	N	0.835270	0.460105	0.095000
	N275	N	0.834918	0.530510	0.923835
	O276	O	-0.081957	1.042554	-0.055055
	H277	H	-0.100354	1.058438	-0.052672
	H278	H	-0.076349	1.022655	-0.047047
	O279	O	0.534819	0.284423	0.311884
	H280	H	0.535058	0.269351	0.304852
	H281	H	0.562338	0.277638	0.310041
	O282	O	1.073482	0.053979	0.768200
	H283	H	1.058189	0.065091	0.766386
	H284	H	1.073026	0.065037	0.762659
	O285	O	0.431647	0.342638	0.464695
	H286	H	0.428747	0.341234	0.460808
	H287	H	0.427193	0.334702	0.483271
	O288	O	1.042948	0.121034	0.843218
	H289	H	1.027735	0.125922	0.835721
	H290	H	1.021825	0.134501	0.834444
	O291	O	0.801263	0.208270	0.808169
	H292	H	0.765742	0.243544	0.784135
	H293	H	0.796251	0.208547	0.847102
	O294	O	0.817295	-0.206934	0.804701
	H295	H	0.835718	-0.192745	0.809920
	H296	H	0.822605	-0.192882	0.812619
	O297	O	0.066390	0.860954	1.075287
	H298	H	0.066260	0.852191	1.073329
	H299	H	0.051639	0.854909	1.092695
	O300	O	0.239385	0.222666	1.053587
	H301	H	0.278247	0.261641	1.054836
	H302	H	0.226072	0.213991	1.104975
	O303	O	0.715926	0.537559	0.630300
	H304	H	0.725545	0.549936	0.636207
	H305	H	0.704328	0.530092	0.638436
	O306	O	0.200382	0.814121	0.199444
	H307	H	0.181385	0.818606	0.183962
	H308	H	0.213897	0.796065	0.220295
	O309	O	0.708749	0.685947	0.706997
	H310	H	0.726369	0.709057	0.729959
	H311	H	0.708101	0.678468	0.679766
	O312	O	0.587435	0.449433	0.389080
	H313	H	0.572327	0.432680	0.395547
	H314	H	0.584697	0.429321	0.378795
	O315	O	1.215490	1.196186	1.216929
	H316	H	1.180623	1.186028	1.221478
	H317	H	1.231274	1.166046	1.232858
	O318	O	0.503795	0.321351	0.521545
	H319	H	0.492353	0.331450	0.523719
	H320	H	0.496566	0.309332	0.514817
	O321	O	0.307484	0.289763	0.713440
	H322	H	0.314625	0.313098	0.726195
	H323	H	0.287453	0.261522	0.743297
	O324	O	0.981057	0.776456	0.233386
	H325	H	0.973082	0.764752	0.257838
	H326	H	0.947464	0.769432	0.240694
	O327	O	0.091735	-0.014306	0.870485
	H328	H	0.084181	0.006145	0.868810
	H329	H	0.079819	-0.011035	0.868247
	O330	O	0.353189	0.500605	0.663684
	H331	H	0.346396	0.512884	0.671559
	H332	H	0.350772	0.509843	0.666672
	O333	O	0.627278	0.475851	0.723163
	H334	H	0.615142	0.486928	0.717857
	H335	H	0.612961	0.479228	0.728606
	O336	O	0.340995	0.664812	0.690000
	H337	H	0.332448	0.668251	0.676109
	H338	H	0.336785	0.661380	0.688011
	O339	O	0.922601	-0.150096	1.015580
	H340	H	0.936691	-0.154246	1.031032
	H341	H	0.941728	-0.142178	0.998119
	O342	O	0.090074	0.176084	0.009584
	H343	H	0.100756	0.187671	0.024307
	H344	H	0.092382	0.155487	0.014950
	O345	O	-0.692493	1.328020	1.556125
	H346	H	-0.699863	1.324128	1.579050
	H347	H	-0.704941	1.319027	1.569759
	O348	O	0.036576	-0.226813	-0.211404
	H349	H	0.041938	-0.230316	-0.229045
	H350	H	0.043279	-0.233121	-0.211011
	O351	O	0.648649	0.290473	0.496484
	H352	H	0.654634	0.277737	0.512661
	H353	H	0.652800	0.302930	0.509086
	O354	O	0.563533	0.559904	1.545705
	H355	H	0.558762	0.555451	1.536512
	H356	H	0.558529	0.567442	1.547380
	O357	O	-0.065599	0.032893	0.091826
	H358	H	-0.053848	0.023371	0.093175
	H359	H	-0.047734	0.024699	0.094603
	O360	O	0.222128	-0.213829	0.795190
	H361	H	0.214448	-0.179959	0.797757
	H362	H	0.222417	-0.224197	0.800504
	O363	O	-0.157355	0.191216	0.171977
	H364	H	-0.141307	0.176008	0.150368
	H365	H	-0.129666	0.174309	0.165355
	O366	O	0.796743	0.049844	0.780447
	H367	H	0.769085	0.052512	0.759626
	H368	H	0.797004	0.089354	0.782037
	O369	O	1.074246	-0.060137	0.245819
	H370	H	1.080311	-0.053450	0.247566
	H371	H	1.078889	-0.064814	0.251564
	O372	O	0.793373	0.971523	0.238657
	H373	H	0.795601	0.933493	0.231819
	H374	H	0.766898	0.955054	0.265261
	O375	O	1.048595	0.154251	0.152808
	H376	H	1.040754	0.145749	0.157581
	H377	H	1.054898	0.164823	0.160924
	O378	O	-0.102567	0.953248	-0.179835
	H379	H	-0.116683	0.967762	-0.190584
	H380	H	-0.109750	0.953172	-0.174132
	O381	O	-0.129391	1.200971	0.965327
	H382	H	-0.131701	1.199135	0.974486
	H383	H	-0.130370	1.203197	0.977852
	O384	O	0.720874	0.359314	0.350802
	H385	H	0.729360	0.341817	0.369324
	H386	H	0.733775	0.350476	0.326373
	O387	O	0.370266	0.450466	-0.527918
	H388	H	0.362936	0.440674	-0.522610
	H389	H	0.377298	0.452967	-0.535081
	O390	O	0.506735	0.707661	0.623404
	H391	H	0.503062	0.716434	0.635236
	H392	H	0.500891	0.707073	0.622252
	O393	O	0.586031	0.699330	0.448108
	H394	H	0.569644	0.698683	0.456041
	H395	H	0.577388	0.692588	0.454311
	O396	O	0.107237	0.999561	1.013959
	H397	H	0.107245	1.003042	1.013543
	H398	H	0.109421	1.002895	1.007777
	O399	O	-0.031288	0.155767	0.866329
	H400	H	-0.045481	0.163936	0.877598
	H401	H	-0.043603	0.165844	0.862698
	O402	O	0.398332	0.629880	0.355248
	H403	H	0.403731	0.621197	0.348721
	H404	H	0.402574	0.633590	0.377828
	O405	O	1.231203	-0.224961	0.978877
	H406	H	1.265122	-0.257152	0.972984
	H407	H	1.209017	-0.213022	0.972704
	O408	O	-0.204545	-0.012651	-0.020461
	H409	H	-0.199360	-0.021475	-0.000105
	H410	H	-0.209643	-0.012374	-0.031289
	O411	O	0.695007	0.683483	0.318837
	H412	H	0.673181	0.666187	0.333758
	H413	H	0.673509	0.667926	0.338606
	O414	O	0.957617	0.056256	0.250969
	H415	H	0.951501	0.042431	0.245825
	H416	H	0.942023	0.052491	0.251553
	O417	O	0.683882	0.690180	0.554356
	H418	H	0.691248	0.695899	0.538745
	H419	H	0.682529	0.689475	0.563285
	O420	O	0.390794	0.518292	0.594634
	H421	H	0.391101	0.517003	0.583281
	H422	H	0.387797	0.524892	0.590502
	O423	O	0.302627	0.703959	0.297346
	H424	H	0.310705	0.690748	0.303082
	H425	H	0.323643	0.692147	0.299853
	O426	O	0.391855	0.510294	0.288118
	H427	H	0.397075	0.492511	0.291517
	H428	H	0.385154	0.502121	0.282797
	O429	O	1.577442	1.583674	0.290045
	H430	H	1.577161	1.591426	0.283208
	H431	H	1.594176	1.567202	0.279336
	O432	O	0.477447	0.278306	0.730513
	H433	H	0.476090	0.265005	0.726143
	H434	H	0.465550	0.265191	0.738788
	O435	O	0.227673	0.965029	-0.214688
	H436	H	0.214166	0.968439	-0.200293
	H437	H	0.249167	0.968712	-0.234302
	O438	O	0.236727	-0.053258	0.056276
	H439	H	0.236498	-0.068808	0.060980
	H440	H	0.230144	-0.052571	0.029202
	O441	O	-0.002344	-0.230348	0.000042
	H442	H	0.013496	-0.222987	0.000539
	H443	H	0.007133	-0.221462	-0.007886
	O444	O	0.092534	0.043294	-0.053737
	H445	H	0.088253	0.049373	-0.046469
	H446	H	0.092998	0.047328	-0.044421
	O447	O	0.203869	1.187373	0.810793
	H448	H	0.183487	1.164693	0.819510
	H449	H	0.182953	1.173110	0.837420
	O450	O	-0.200903	0.780505	1.063616
	H451	H	-0.202985	0.771405	1.042277
	H452	H	-0.193091	0.773093	1.044428
	O453	O	0.391983	0.523718	0.703163
	H454	H	0.389758	0.513538	0.702313
	H455	H	0.402939	0.526361	0.701202
	O456	O	-0.053720	0.117955	1.069279
	H457	H	-0.051284	0.110337	1.073838
	H458	H	-0.039367	0.120501	1.070386
	O459	O	0.667515	0.498112	0.426400
	H460	H	0.682862	0.484979	0.419520
	H461	H	0.655377	0.471437	0.427414
	O462	O	0.317778	0.702188	0.489477
	H463	H	0.324855	0.696581	0.486692
	H464	H	0.301118	0.708199	0.479966
	O465	O	0.696867	0.269820	0.343437
	H466	H	0.715419	0.260199	0.326400
	H467	H	0.711251	0.261616	0.348489
	O468	O	-0.109650	1.003983	0.079494
	H469	H	-0.112638	1.000519	0.096154
	H470	H	-0.103002	0.996394	0.080524
	O471	O	0.454913	0.474803	0.331179
	H472	H	0.451382	0.463696	0.333209
	H473	H	0.461759	0.457758	0.323901
	O474	O	-0.302714	1.312231	-0.298386
	H475	H	-0.315078	1.337899	-0.313141
	H476	H	-0.324405	1.327681	-0.318152
	O477	O	0.233544	1.030778	1.233333
	H478	H	0.249872	1.012528	1.233684
	H479	H	0.253049	1.012903	1.227188
	O480	O	0.363564	0.426173	0.343114
	H481	H	0.362738	0.416701	0.353185
	H482	H	0.384015	0.424694	0.336563
	O483	O	0.741169	0.467842	0.532045
	H484	H	0.748796	0.489770	0.544681
	H485	H	0.737218	0.481693	0.522225
	O486	O	1.542735	-0.382044	0.714818
	H487	H	1.530592	-0.361640	0.729682
	H488	H	1.568519	-0.383048	0.719406
	O489	O	0.804275	0.785586	0.229346
	H490	H	0.796887	0.779641	0.175764
	H491	H	0.768043	0.751337	0.255901
