data_Molecule from HDF5

_cell_length_a		16.440781
_cell_length_b		16.235152
_cell_length_c		16.305561
_cell_angle_alpha	89.805617
_cell_angle_beta	89.943533
_cell_angle_gamma	89.832844
_symmetry_space_group_name_H-M	'P 1'
_symmetry_Int_Tables_number		1

loop_
	_symmetry_equiv_pos_as_xyz
	x,y,z

loop_
	_atom_site_label
	_atom_site_type_symbol
	_atom_site_fract_x
	_atom_site_fract_y
	_atom_site_fract_z
	H0	H	0.395661	0.827489	0.709246
	H1	H	0.597180	0.151799	0.705505
	H2	H	0.604033	0.827484	0.269422
	H3	H	0.392195	0.148933	0.269822
	H4	H	0.716249	0.384263	0.828222
	H5	H	0.720079	0.595593	0.147824
	H6	H	0.276898	0.593808	0.828582
	H7	H	0.274473	0.381386	0.148444
	H8	H	0.838149	0.711033	0.384011
	H9	H	0.156518	0.707220	0.593882
	H10	H	0.837337	0.269114	0.591641
	H11	H	0.157158	0.268751	0.386568
	H12	H	0.838500	0.381483	0.710290
	H13	H	0.156379	0.590212	0.709770
	H14	H	0.838402	0.596026	0.266692
	H15	H	0.155583	0.382623	0.267528
	H16	H	0.394728	0.707716	0.828273
	H17	H	0.600071	0.706383	0.150613
	H18	H	0.595546	0.272557	0.826715
	H19	H	0.392086	0.268586	0.150305
	H20	H	0.718590	0.827936	0.385027
	H21	H	0.717421	0.149267	0.595035
	H22	H	0.276241	0.827682	0.599288
	H23	H	0.275420	0.147754	0.384186
	H24	H	0.893764	0.326032	0.207145
	H25	H	0.100709	0.648934	0.209482
	H26	H	0.099701	0.324452	0.773327
	H27	H	0.894886	0.648068	0.769591
	H28	H	0.219659	0.880288	0.330898
	H29	H	0.217694	0.093201	0.649402
	H30	H	0.774394	0.096425	0.331832
	H31	H	0.776749	0.880868	0.649909
	H32	H	0.334848	0.206362	0.888393
	H33	H	0.656723	0.206033	0.090864
	H34	H	0.338538	0.765455	0.097743
	H35	H	0.656589	0.769030	0.885310
	H36	H	0.339176	0.882826	0.212802
	H37	H	0.655292	0.095073	0.211140
	H38	H	0.337161	0.095747	0.767373
	H39	H	0.656571	0.886784	0.770397
	H40	H	0.893989	0.207864	0.329085
	H41	H	0.099074	0.206023	0.650465
	H42	H	0.100067	0.769708	0.328467
	H43	H	0.891998	0.765454	0.649303
	H44	H	0.217559	0.326876	0.885446
	H45	H	0.218700	0.647716	0.096822
	H46	H	0.776670	0.327545	0.093746
	H47	H	0.778370	0.648928	0.883391
	H48	H	0.411501	0.101682	0.576311
	H49	H	0.591563	0.873346	0.576930
	H50	H	0.583948	0.100036	0.406866
	H51	H	0.411683	0.872599	0.398524
	H52	H	0.591417	0.399122	0.104971
	H53	H	0.583231	0.578495	0.875724
	H54	H	0.403481	0.576945	0.104133
	H55	H	0.410356	0.395735	0.875125
	H56	H	0.107915	0.574096	0.403215
	H57	H	0.880813	0.588337	0.577198
	H58	H	0.113772	0.394489	0.587458
	H59	H	0.880832	0.398196	0.394407
	H60	H	0.112077	0.391184	0.575838
	H61	H	0.889621	0.568727	0.569204
	H62	H	0.110265	0.572837	0.396085
	H63	H	0.882346	0.394259	0.401676
	H64	H	0.407484	0.573012	0.102995
	H65	H	0.589615	0.579876	0.872698
	H66	H	0.584984	0.403062	0.101217
	H67	H	0.401300	0.396325	0.871938
	H68	H	0.590612	0.104582	0.401036
	H69	H	0.588256	0.871193	0.586541
	H70	H	0.402423	0.103105	0.572978
	H71	H	0.410491	0.874626	0.406516
	H72	H	0.909671	0.600735	0.073392
	H73	H	0.078359	0.373453	0.084773
	H74	H	0.093177	0.603549	0.903411
	H75	H	0.901835	0.369352	0.898015
	H76	H	0.090663	0.886010	0.608980
	H77	H	0.081265	0.080507	0.376255
	H78	H	0.902334	0.075623	0.605769
	H79	H	0.907079	0.896016	0.373519
	H80	H	0.607844	0.078557	0.901874
	H81	H	0.380562	0.074164	0.089949
	H82	H	0.612838	0.893235	0.079938
	H83	H	0.380291	0.891438	0.898294
	H84	H	0.607143	0.899534	0.073243
	H85	H	0.380901	0.088162	0.077416
	H86	H	0.612126	0.076825	0.893360
	H87	H	0.386225	0.902180	0.909008
	H88	H	0.910624	0.073254	0.602982
	H89	H	0.093304	0.077451	0.371935
	H90	H	0.095375	0.908149	0.604356
	H91	H	0.903847	0.904509	0.375867
	H92	H	0.085873	0.605005	0.891136
	H93	H	0.082339	0.378779	0.067387
	H94	H	0.902106	0.603958	0.075441
	H95	H	0.909453	0.371522	0.897429
	H96	H	0.405294	0.105362	0.582408
	H97	H	0.582729	0.875515	0.579750
	H98	H	0.582069	0.102299	0.397380
	H99	H	0.404204	0.871904	0.401665
	H100	H	0.584258	0.394872	0.103697
	H101	H	0.587943	0.573354	0.876055
	H102	H	0.408721	0.577888	0.103970
	H103	H	0.405312	0.404408	0.875636
	H104	H	0.111013	0.580203	0.398486
	H105	H	0.882372	0.569816	0.590312
	H106	H	0.109559	0.402296	0.578822
	H107	H	0.885918	0.401967	0.400685
	H108	H	0.908670	0.604436	0.081361
	H109	H	0.095458	0.369671	0.078081
	H110	H	0.079343	0.599004	0.903236
	H111	H	0.905948	0.372590	0.905011
	H112	H	0.074223	0.899537	0.600323
	H113	H	0.086112	0.068509	0.378682
	H114	H	0.908964	0.081327	0.605526
	H115	H	0.912423	0.902460	0.378690
	H116	H	0.611878	0.085405	0.897067
	H117	H	0.387040	0.070632	0.073754
	H118	H	0.610478	0.903378	0.082841
	H119	H	0.383383	0.906184	0.893827
	C120	C	0.375639	-0.002879	0.610889
	C121	C	0.618548	0.980029	0.612027
	C122	C	0.618490	-0.003332	0.369245
	C123	C	0.376057	0.978888	0.369082
	C124	C	0.617749	0.367041	-0.002790
	C125	C	0.618769	0.609558	0.980576
	C126	C	0.374902	0.609370	-0.002157
	C127	C	0.374368	0.366572	0.980450
	C128	C	0.005233	0.609463	0.366788
	C129	C	0.989004	0.608085	0.610740
	C130	C	0.006113	0.364816	0.611774
	C131	C	0.988176	0.366030	0.367351
	C132	C	0.875055	0.496837	0.109608
	C133	C	0.117427	0.479790	0.109461
	C134	C	0.117917	0.495786	0.868360
	C135	C	0.875539	0.478077	0.867900
	C136	C	0.118905	0.865780	0.498836
	C137	C	0.118003	0.108000	0.481231
	C138	C	0.875218	0.109743	0.499078
	C139	C	0.875708	0.867086	0.481340
	C140	C	0.504733	0.111713	0.866819
	C141	C	0.487901	0.109833	0.111718
	C142	C	0.505625	0.866242	0.111878
	C143	C	0.488660	0.868247	0.868584
	C144	C	0.375758	0.876001	0.670874
	C145	C	0.617768	0.102570	0.668291
	C146	C	0.621530	0.875708	0.309187
	C147	C	0.374111	0.100300	0.309523
	C148	C	0.676272	0.365864	0.876145
	C149	C	0.679046	0.612303	0.100543
	C150	C	0.316010	0.612123	0.876965
	C151	C	0.314848	0.363989	0.100900
	C152	C	0.885830	0.670637	0.365241
	C153	C	0.108736	0.667519	0.612240
	C154	C	0.885565	0.307254	0.611566
	C155	C	0.108918	0.307519	0.366807
	C156	C	0.886373	0.363094	0.670919
	C157	C	0.108777	0.609099	0.669937
	C158	C	0.885821	0.613288	0.306710
	C159	C	0.108166	0.364342	0.307698
	C160	C	0.374679	0.668918	0.876802
	C161	C	0.619239	0.667760	0.101781
	C162	C	0.616621	0.309817	0.875517
	C163	C	0.373543	0.307631	0.101741
	C164	C	0.678617	0.875858	0.366808
	C165	C	0.677387	0.101256	0.613100
	C166	C	0.316547	0.875969	0.615582
	C167	C	0.315433	0.099684	0.366165
	C168	C	0.874666	0.374950	0.168442
	C169	C	0.118972	0.600675	0.169703
	C170	C	0.118625	0.373498	0.811577
	C171	C	0.875541	0.599564	0.808664
	C172	C	0.179575	0.862701	0.378776
	C173	C	0.177808	0.111025	0.601718
	C174	C	0.814786	0.113512	0.379240
	C175	C	0.816441	0.863467	0.601814
	C176	C	0.383526	0.168565	0.867726
	C177	C	0.608362	0.168101	0.111192
	C178	C	0.386365	0.805761	0.115334
	C179	C	0.608632	0.808709	0.867006
	C180	C	0.386500	0.864244	0.172836
	C181	C	0.607767	0.112216	0.170669
	C182	C	0.384731	0.113479	0.807496
	C183	C	0.608695	0.867588	0.809780
	C184	C	0.874571	0.168870	0.377739
	C185	C	0.118534	0.167246	0.602068
	C186	C	0.119908	0.807458	0.377550
	C187	C	0.874286	0.806088	0.601642
	C188	C	0.177545	0.374733	0.867215
	C189	C	0.177686	0.600187	0.113316
	C190	C	0.816356	0.375500	0.111863
	C191	C	0.817598	0.600242	0.865595
	C192	C	0.399501	0.081555	0.584622
	C193	C	0.594533	0.895458	0.587886
	C194	C	0.592959	0.080339	0.394417
	C195	C	0.401423	0.894975	0.394828
	C196	C	0.593828	0.391800	0.081330
	C197	C	0.593971	0.584503	0.896515
	C198	C	0.399308	0.583411	0.081814
	C199	C	0.398539	0.391516	0.896265
	C200	C	0.088089	0.583338	0.391968
	C201	C	0.905725	0.583036	0.585852
	C202	C	0.089979	0.388834	0.587648
	C203	C	0.904753	0.391127	0.391852
	C204	C	0.899612	0.580981	0.084317
	C205	C	0.092638	0.395838	0.083985
	C206	C	0.093325	0.580590	0.892624
	C207	C	0.898830	0.393182	0.892992
	C208	C	0.093917	0.890793	0.582668
	C209	C	0.093857	0.082524	0.397552
	C210	C	0.900103	0.084232	0.582883
	C211	C	0.900605	0.893427	0.397806
	C212	C	0.588716	0.087462	0.890594
	C213	C	0.404648	0.084959	0.087517
	C214	C	0.588650	0.891387	0.086249
	C215	C	0.405091	0.892873	0.893181
	Zn216	Zn	0.496258	-0.010072	0.738876
	Zn217	Zn	0.498120	-0.011981	0.240693
	Zn218	Zn	0.747014	0.488416	-0.011532
	Zn219	Zn	0.246454	0.488171	-0.010896
	Zn220	Zn	-0.002755	0.738285	0.489185
	Zn221	Zn	-0.002724	0.237248	0.489257
	Zn222	Zn	-0.002496	0.486217	0.740297
	Zn223	Zn	-0.003627	0.487770	0.237695
	Zn224	Zn	0.496962	0.737684	-0.010563
	Zn225	Zn	0.496093	0.238605	-0.010332
	Zn226	Zn	0.746344	-0.011762	0.490678
	Zn227	Zn	0.247353	-0.013210	0.490630
	N228	N	0.411583	0.952502	0.668180
	N229	N	0.582020	0.026265	0.667839
	N230	N	0.584883	0.951856	0.310469
	N231	N	0.411004	0.024313	0.311162
	N232	N	0.677326	0.400615	0.952978
	N233	N	0.678690	0.576808	0.024056
	N234	N	0.315811	0.576166	0.953455
	N235	N	0.315242	0.399832	0.024586
	N236	N	0.961160	0.668454	0.401656
	N237	N	0.033272	0.666787	0.576050
	N238	N	0.961233	0.307945	0.575765
	N239	N	0.033265	0.308331	0.402902
	N240	N	0.962394	0.398023	0.671258
	N241	N	0.033200	0.573033	0.669303
	N242	N	0.960992	0.575873	0.307601
	N243	N	0.032064	0.399964	0.307850
	N244	N	0.410155	0.667695	0.953089
	N245	N	0.582577	0.666026	0.026028
	N246	N	0.581015	0.310433	0.951765
	N247	N	0.410114	0.309300	0.025803
	N248	N	0.676954	0.951925	0.403433
	N249	N	0.678068	0.023886	0.578898
	N250	N	0.316283	0.952381	0.579038
	N251	N	0.316520	0.023169	0.402764
	N252	N	0.910271	0.451418	0.167227
	N253	N	0.082202	0.524793	0.167435
	N254	N	0.082372	0.449898	0.812198
	N255	N	0.910723	0.522711	0.809888
	N256	N	0.179231	0.898075	0.455293
	N257	N	0.177560	0.074686	0.525764
	N258	N	0.815281	0.077206	0.455478
	N259	N	0.817214	0.900935	0.526047
	N260	N	0.458957	0.167439	0.903837
	N261	N	0.532642	0.166945	0.075472
	N262	N	0.461352	0.806875	0.078125
	N263	N	0.532877	0.808974	0.902795
	N264	N	0.461741	0.901071	0.170814
	N265	N	0.532000	0.076712	0.171138
	N266	N	0.461320	0.078933	0.806572
	N267	N	0.533060	0.903774	0.810633
	N268	N	0.911291	0.166795	0.453374
	N269	N	0.082202	0.165559	0.526111
	N270	N	0.082913	0.809187	0.453222
	N271	N	0.910561	0.808250	0.525873
	N272	N	0.177411	0.451976	0.901670
	N273	N	0.176934	0.524143	0.076608
	N274	N	0.816266	0.452262	0.076271
	N275	N	0.817236	0.523436	0.901386
	O276	O	0.604120	0.297257	0.555291
	H277	H	0.606394	0.277200	0.568486
	H278	H	0.615452	0.302754	0.556212
	O279	O	0.499210	0.610194	0.431213
	H280	H	0.512749	0.606255	0.429077
	H281	H	0.512368	0.604248	0.445774
	O282	O	0.316569	0.365093	0.678492
	H283	H	0.299439	0.372470	0.696196
	H284	H	0.317451	0.363934	0.667480
	O285	O	1.019378	-0.099117	-0.016524
	H286	H	1.026281	-0.085683	-0.027983
	H287	H	1.009836	-0.109465	-0.020681
	O288	O	-0.084717	-0.049988	0.938508
	H289	H	-0.082946	-0.052308	0.929850
	H290	H	-0.088492	-0.061236	0.929363
	O291	O	0.665247	0.513873	0.607543
	H292	H	0.664480	0.503979	0.616491
	H293	H	0.659923	0.510268	0.613324
	O294	O	0.346250	0.444256	0.454268
	H295	H	0.337770	0.446415	0.446861
	H296	H	0.355606	0.433065	0.452326
	O297	O	1.033996	1.108504	0.867043
	H298	H	1.026337	1.111419	0.856962
	H299	H	1.023583	1.113873	0.867852
	O300	O	0.180920	-0.034078	-0.106859
	H301	H	0.178397	-0.034635	-0.118790
	H302	H	0.184962	-0.027502	-0.094268
	O303	O	0.498433	0.587316	0.677954
	H304	H	0.480895	0.573716	0.676101
	H305	H	0.490308	0.583011	0.674617
	O306	O	0.891112	-0.083980	-0.007499
	H307	H	0.899857	-0.074266	0.015143
	H308	H	0.886599	-0.097664	-0.005899
	O309	O	-0.069379	0.094212	0.876966
	H310	H	-0.076781	0.082003	0.877764
	H311	H	-0.067241	0.108334	0.887153
	O312	O	1.018190	1.128217	0.064216
	H313	H	1.026309	1.117813	0.049998
	H314	H	1.020192	1.121216	0.074549
	O315	O	0.496892	0.285583	0.324518
	H316	H	0.485872	0.291813	0.322044
	H317	H	0.499978	0.274417	0.319481
	O318	O	0.407027	0.674437	0.508838
	H319	H	0.403279	0.700104	0.512438
	H320	H	0.415669	0.664432	0.516168
	O321	O	1.158821	-0.186165	0.809268
	H322	H	1.147800	-0.194748	0.830056
	H323	H	1.167947	-0.152529	0.801494
	O324	O	0.143769	0.024024	1.081202
	H325	H	0.145465	0.025239	1.086156
	H326	H	0.148330	-0.006423	1.067314
	O327	O	0.354682	0.485308	0.352175
	H328	H	0.357579	0.491332	0.347552
	H329	H	0.350572	0.508289	0.351829
	O330	O	0.678798	0.658559	0.534388
	H331	H	0.682815	0.640091	0.558919
	H332	H	0.691733	0.667714	0.524423
	O333	O	0.922600	1.112398	0.822131
	H334	H	0.917487	1.092726	0.821410
	H335	H	0.919539	1.125556	0.815851
	O336	O	0.634267	0.296969	0.301073
	H337	H	0.612312	0.280436	0.281977
	H338	H	0.635543	0.299988	0.329220
	O339	O	1.129535	-0.223281	0.881123
	H340	H	1.147080	-0.204726	0.871014
	H341	H	1.153925	-0.259609	0.865001
	O342	O	-0.026589	0.978568	1.056142
	H343	H	-0.016523	0.980297	1.073190
	H344	H	-0.025982	0.996069	1.065085
	O345	O	0.087985	1.164044	1.098114
	H346	H	0.097514	1.175579	1.110503
	H347	H	0.096960	1.164053	1.102444
	O348	O	0.300996	0.677694	0.397384
	H349	H	0.294817	0.678502	0.403403
	H350	H	0.313733	0.693524	0.396445
	O351	O	-0.050758	-0.131583	0.145603
	H352	H	-0.044124	-0.133535	0.134982
	H353	H	-0.069377	-0.131751	0.174529
	O354	O	1.196209	0.980436	0.046291
	H355	H	1.201489	0.991494	0.045730
	H356	H	1.212167	0.950583	0.054583
	O357	O	0.583550	1.340910	0.492739
	H358	H	0.594364	1.357949	0.509193
	H359	H	0.589355	1.350117	0.472754
	O360	O	0.459501	0.372812	0.598140
	H361	H	0.442618	0.365615	0.614309
	H362	H	0.452124	0.376049	0.592093
	O363	O	0.470308	0.339400	0.520332
	H364	H	0.465350	0.338799	0.520786
	H365	H	0.458258	0.345961	0.516424
	O366	O	1.362543	1.518236	0.608500
	H367	H	1.351356	1.533527	0.588144
	H368	H	1.361704	1.512605	0.620874
	O369	O	0.705179	0.406580	0.318670
	H370	H	0.718054	0.400172	0.295646
	H371	H	0.704024	0.375199	0.325381
	O372	O	0.416307	0.679393	0.295332
	H373	H	0.430804	0.660001	0.291964
	H374	H	0.436732	0.694773	0.282961
	O375	O	0.557352	0.460909	0.401185
	H376	H	0.558563	0.471193	0.393145
	H377	H	0.577922	0.452057	0.388153
	O378	O	0.354709	0.428224	0.606338
	H379	H	0.353581	0.416200	0.587341
	H380	H	0.369580	0.419564	0.614300
	O381	O	0.425472	0.445250	0.453750
	H382	H	0.420256	0.453389	0.450840
	H383	H	0.411761	0.440698	0.458480
	O384	O	-0.099085	0.889683	0.996982
	H385	H	-0.085501	0.887747	1.001252
	H386	H	-0.085651	0.898899	0.993733
	O387	O	1.041272	1.098311	0.124861
	H388	H	1.044737	1.093191	0.127346
	H389	H	1.042384	1.089996	0.108781
	O390	O	0.549054	0.510297	0.334701
	H391	H	0.559527	0.523409	0.332673
	H392	H	0.556450	0.506196	0.330803
	O393	O	1.609035	0.660319	1.666001
	H394	H	1.617902	0.661188	1.660160
	H395	H	1.592348	0.669434	1.684926
	O396	O	0.043099	1.069068	1.166988
	H397	H	0.038855	1.072001	1.173620
	H398	H	0.043357	1.080151	1.150175
	O399	O	0.695646	0.562062	0.553659
	H400	H	0.710655	0.558907	0.543010
	H401	H	0.698017	0.591465	0.557952
	O402	O	0.964122	-0.035008	1.045767
	H403	H	0.959959	-0.043227	1.056607
	H404	H	0.970488	-0.032203	1.053086
	O405	O	-0.015678	-0.021593	-0.167697
	H406	H	-0.010075	-0.029015	-0.173095
	H407	H	-0.020037	-0.011138	-0.154707
	O408	O	0.375245	1.529284	1.446818
	H409	H	0.382759	1.547422	1.422404
	H410	H	0.380032	1.519260	1.450969
	O411	O	0.855020	1.068917	0.049271
	H412	H	0.856585	1.086410	0.035355
	H413	H	0.850901	1.075288	0.058664
	O414	O	-0.111718	-0.083336	1.037721
	H415	H	-0.128050	-0.086437	1.012292
	H416	H	-0.112129	-0.059889	1.040543
	O417	O	0.590549	0.478797	0.484428
	H418	H	0.579369	0.472565	0.486075
	H419	H	0.599211	0.485848	0.473079
	O420	O	-0.021839	0.919146	-0.097171
	H421	H	-0.025652	0.914517	-0.108481
	H422	H	-0.015354	0.919230	-0.103730
	O423	O	0.836785	0.104477	-0.129535
	H424	H	0.846302	0.087335	-0.128010
	H425	H	0.819139	0.099355	-0.138984
	O426	O	-0.089798	-0.105513	1.190296
	H427	H	-0.087455	-0.113540	1.207692
	H428	H	-0.116781	-0.092774	1.192384
	O429	O	-0.082608	0.904383	-0.037907
	H430	H	-0.077005	0.899451	-0.037067
	H431	H	-0.095356	0.914278	-0.043492
