data_Molecule from HDF5

_cell_length_a		16.419627
_cell_length_b		16.485839
_cell_length_c		16.505207
_cell_angle_alpha	89.827066
_cell_angle_beta	89.940229
_cell_angle_gamma	89.993394
_symmetry_space_group_name_H-M	'P 1'
_symmetry_Int_Tables_number		1

loop_
	_symmetry_equiv_pos_as_xyz
	x,y,z

loop_
	_atom_site_label
	_atom_site_type_symbol
	_atom_site_fract_x
	_atom_site_fract_y
	_atom_site_fract_z
	H0	H	0.392108	0.847201	0.713714
	H1	H	0.611786	0.157051	0.714533
	H2	H	0.603159	0.844117	0.268158
	H3	H	0.392559	0.159282	0.265335
	H4	H	0.721039	0.397147	0.830015
	H5	H	0.722795	0.607033	0.143831
	H6	H	0.278068	0.608251	0.832335
	H7	H	0.278992	0.395810	0.146727
	H8	H	0.843287	0.723215	0.382038
	H9	H	0.157032	0.723710	0.593805
	H10	H	0.841380	0.278654	0.597432
	H11	H	0.156880	0.276380	0.380976
	H12	H	0.842699	0.393524	0.713402
	H13	H	0.157616	0.607218	0.709811
	H14	H	0.843041	0.605830	0.266691
	H15	H	0.157540	0.392545	0.264748
	H16	H	0.391640	0.727426	0.833812
	H17	H	0.604654	0.721874	0.145566
	H18	H	0.606881	0.278958	0.831941
	H19	H	0.394182	0.279358	0.146505
	H20	H	0.719218	0.843016	0.385119
	H21	H	0.724371	0.158058	0.595760
	H22	H	0.278192	0.846489	0.594334
	H23	H	0.275895	0.158969	0.380291
	H24	H	0.890018	0.346203	0.213683
	H25	H	0.105555	0.659027	0.209173
	H26	H	0.110198	0.344063	0.763782
	H27	H	0.894385	0.658692	0.764228
	H28	H	0.224374	0.894926	0.332298
	H29	H	0.224845	0.109420	0.645613
	H30	H	0.781799	0.103187	0.331374
	H31	H	0.777473	0.893176	0.646319
	H32	H	0.341298	0.223930	0.883152
	H33	H	0.657992	0.221533	0.092104
	H34	H	0.340927	0.779767	0.095264
	H35	H	0.656083	0.777597	0.881063
	H36	H	0.341636	0.894524	0.212254
	H37	H	0.658254	0.103901	0.207137
	H38	H	0.342898	0.110543	0.764907
	H39	H	0.656101	0.893801	0.764646
	H40	H	0.893725	0.223836	0.333613
	H41	H	0.109107	0.225486	0.646431
	H42	H	0.108604	0.778347	0.332391
	H43	H	0.895382	0.777883	0.646029
	H44	H	0.224320	0.343507	0.882359
	H45	H	0.220895	0.659520	0.092453
	H46	H	0.777708	0.344651	0.092699
	H47	H	0.777775	0.659115	0.879988
	H48	H	0.418471	0.114319	0.579365
	H49	H	0.587645	0.888296	0.582179
	H50	H	0.590143	0.117811	0.389738
	H51	H	0.414274	0.889996	0.395715
	H52	H	0.589848	0.413092	0.101152
	H53	H	0.587337	0.598109	0.873016
	H54	H	0.410180	0.584649	0.100048
	H55	H	0.410450	0.405069	0.873987
	H56	H	0.113483	0.585605	0.397354
	H57	H	0.887913	0.586261	0.578245
	H58	H	0.111929	0.413895	0.578095
	H59	H	0.889241	0.416697	0.401852
	H60	H	0.111769	0.411584	0.575866
	H61	H	0.886437	0.590209	0.576576
	H62	H	0.116318	0.592959	0.397168
	H63	H	0.886586	0.412737	0.397602
	H64	H	0.416565	0.592119	0.100441
	H65	H	0.594224	0.585969	0.874678
	H66	H	0.587740	0.412861	0.100741
	H67	H	0.406924	0.420390	0.876444
	H68	H	0.583358	0.111911	0.401723
	H69	H	0.583266	0.891863	0.576136
	H70	H	0.414428	0.112622	0.570206
	H71	H	0.416329	0.893246	0.406217
	H72	H	0.908274	0.613148	0.071800
	H73	H	0.089461	0.388210	0.077467
	H74	H	0.093398	0.616199	0.893825
	H75	H	0.916615	0.392002	0.902565
	H76	H	0.081378	0.907870	0.600423
	H77	H	0.086509	0.093143	0.377698
	H78	H	0.915955	0.085430	0.599820
	H79	H	0.908191	0.914655	0.376456
	H80	H	0.612097	0.094525	0.904811
	H81	H	0.385135	0.093472	0.077070
	H82	H	0.609096	0.919129	0.075989
	H83	H	0.385355	0.914596	0.898072
	H84	H	0.615252	0.911137	0.085664
	H85	H	0.386497	0.090126	0.076671
	H86	H	0.609374	0.084716	0.902788
	H87	H	0.388399	0.912183	0.907170
	H88	H	0.913167	0.093830	0.604241
	H89	H	0.090315	0.086361	0.378981
	H90	H	0.094385	0.910385	0.603513
	H91	H	0.913505	0.911248	0.377246
	H92	H	0.082370	0.610467	0.896676
	H93	H	0.087542	0.388617	0.077017
	H94	H	0.909326	0.616961	0.082477
	H95	H	0.908587	0.389880	0.904195
	H96	H	0.408774	0.116846	0.577361
	H97	H	0.590736	0.889587	0.575265
	H98	H	0.597999	0.115646	0.402539
	H99	H	0.406313	0.888459	0.403027
	H100	H	0.589020	0.410933	0.100562
	H101	H	0.580271	0.586975	0.878816
	H102	H	0.407225	0.593256	0.104367
	H103	H	0.421155	0.414990	0.880509
	H104	H	0.112449	0.590173	0.403656
	H105	H	0.888715	0.587644	0.573868
	H106	H	0.111614	0.414775	0.575003
	H107	H	0.888106	0.411064	0.403505
	H108	H	0.918610	0.611909	0.077103
	H109	H	0.088967	0.388748	0.075707
	H110	H	0.091565	0.611015	0.905084
	H111	H	0.911968	0.388468	0.896761
	H112	H	0.087114	0.919850	0.598178
	H113	H	0.082522	0.086994	0.380458
	H114	H	0.906855	0.086677	0.603822
	H115	H	0.908316	0.908478	0.374264
	H116	H	0.614577	0.090646	0.895579
	H117	H	0.384802	0.090833	0.080123
	H118	H	0.612877	0.906188	0.073041
	H119	H	0.389887	0.921024	0.903751
	C120	C	0.379714	0.011344	0.609560
	C121	C	0.621589	0.993088	0.610999
	C122	C	0.621345	0.010442	0.366992
	C123	C	0.378170	0.993761	0.367400
	C124	C	0.621686	0.380114	-0.003155
	C125	C	0.620502	0.622763	0.979288
	C126	C	0.378258	0.623198	-0.001878
	C127	C	0.379378	0.380510	0.980720
	C128	C	0.009474	0.622178	0.366774
	C129	C	0.991742	0.621185	0.608738
	C130	C	0.008256	0.379346	0.610829
	C131	C	0.991755	0.379259	0.367205
	C132	C	0.878609	0.510151	0.109556
	C133	C	0.120672	0.492988	0.109107
	C134	C	0.122599	0.508808	0.866151
	C135	C	0.879702	0.493797	0.867404
	C136	C	0.121272	0.880376	0.497011
	C137	C	0.121043	0.123022	0.481637
	C138	C	0.878829	0.121890	0.498895
	C139	C	0.877795	0.878264	0.479892
	C140	C	0.508252	0.123948	0.867255
	C141	C	0.490709	0.122568	0.109348
	C142	C	0.507984	0.879626	0.111128
	C143	C	0.491220	0.881442	0.868456
	C144	C	0.375171	0.893908	0.672031
	C145	C	0.627704	0.110425	0.673173
	C146	C	0.622322	0.891377	0.308019
	C147	C	0.374551	0.111888	0.305535
	C148	C	0.681327	0.378562	0.877724
	C149	C	0.681868	0.625222	0.097314
	C150	C	0.317861	0.626426	0.879620
	C151	C	0.318749	0.377660	0.099261
	C152	C	0.890535	0.682740	0.364000
	C153	C	0.110138	0.682734	0.611755
	C154	C	0.889192	0.318922	0.614753
	C155	C	0.109645	0.317147	0.363552
	C156	C	0.889848	0.375880	0.672973
	C157	C	0.110248	0.624872	0.669494
	C158	C	0.890406	0.624423	0.306792
	C159	C	0.109795	0.374740	0.305149
	C160	C	0.374267	0.685691	0.880331
	C161	C	0.623245	0.682494	0.098122
	C162	C	0.624386	0.319772	0.878750
	C163	C	0.376279	0.319731	0.099160
	C164	C	0.679945	0.890880	0.366297
	C165	C	0.684049	0.110607	0.614003
	C166	C	0.318423	0.893392	0.613077
	C167	C	0.316615	0.111907	0.363145
	C168	C	0.873753	0.392618	0.171589
	C169	C	0.123515	0.611554	0.169228
	C170	C	0.127051	0.391015	0.804882
	C171	C	0.876655	0.611809	0.805396
	C172	C	0.183403	0.877439	0.379339
	C173	C	0.183904	0.127315	0.598975
	C174	C	0.820304	0.123043	0.379390
	C175	C	0.817656	0.875099	0.598823
	C176	C	0.389478	0.184795	0.864456
	C177	C	0.610431	0.181582	0.110688
	C178	C	0.388742	0.819545	0.113579
	C179	C	0.609200	0.818826	0.864008
	C180	C	0.389051	0.876748	0.171741
	C181	C	0.610627	0.123031	0.167877
	C182	C	0.390058	0.128293	0.805638
	C183	C	0.608836	0.876518	0.805845
	C184	C	0.876177	0.182893	0.380526
	C185	C	0.126140	0.184973	0.599205
	C186	C	0.125818	0.819179	0.379309
	C187	C	0.876115	0.817418	0.598702
	C188	C	0.184174	0.390685	0.863686
	C189	C	0.180793	0.611945	0.110859
	C190	C	0.817503	0.391984	0.112015
	C191	C	0.818416	0.611918	0.862847
	C192	C	0.406146	0.093363	0.583114
	C193	C	0.594667	0.911210	0.585438
	C194	C	0.597131	0.093430	0.390960
	C195	C	0.404658	0.911865	0.394047
	C196	C	0.596141	0.405148	0.079328
	C197	C	0.594670	0.597637	0.896926
	C198	C	0.403845	0.597423	0.080169
	C199	C	0.405364	0.406300	0.898455
	C200	C	0.092405	0.596808	0.392104
	C201	C	0.909218	0.595436	0.583467
	C202	C	0.090349	0.405712	0.584033
	C203	C	0.909442	0.405768	0.393377
	C204	C	0.904633	0.592586	0.084168
	C205	C	0.095647	0.410027	0.083904
	C206	C	0.096630	0.591228	0.891331
	C207	C	0.905224	0.411580	0.893735
	C208	C	0.095130	0.905563	0.579164
	C209	C	0.094091	0.096528	0.400408
	C210	C	0.904622	0.096048	0.581119
	C211	C	0.902750	0.904013	0.397575
	C212	C	0.590677	0.097457	0.893518
	C213	C	0.407111	0.098347	0.084933
	C214	C	0.590854	0.904983	0.085601
	C215	C	0.409429	0.908482	0.895309
	Zn216	Zn	0.499921	0.003011	0.739369
	Zn217	Zn	0.499132	0.002039	0.238513
	Zn218	Zn	0.749923	0.501895	-0.012791
	Zn219	Zn	0.250028	0.500894	-0.011182
	Zn220	Zn	0.000437	0.750529	0.488124
	Zn221	Zn	-0.000308	0.251174	0.490425
	Zn222	Zn	0.000139	0.500716	0.738314
	Zn223	Zn	0.000330	0.500944	0.238388
	Zn224	Zn	0.499492	0.751924	-0.010692
	Zn225	Zn	0.499877	0.251660	-0.011340
	Zn226	Zn	0.749753	0.000643	0.489366
	Zn227	Zn	0.249899	0.002311	0.489001
	N228	N	0.412300	0.968424	0.669920
	N229	N	0.589650	0.036256	0.671453
	N230	N	0.586692	0.966618	0.308306
	N231	N	0.412160	0.037427	0.308100
	N232	N	0.679935	0.415498	0.952384
	N233	N	0.680468	0.589173	0.022391
	N234	N	0.320340	0.588165	0.953584
	N235	N	0.320622	0.414806	0.024527
	N236	N	0.965717	0.681563	0.400470
	N237	N	0.035486	0.680251	0.574447
	N238	N	0.963896	0.320717	0.577181
	N239	N	0.035203	0.319757	0.401395
	N240	N	0.964974	0.412688	0.670637
	N241	N	0.035891	0.586712	0.667364
	N242	N	0.965376	0.587659	0.308400
	N243	N	0.035245	0.412687	0.307260
	N244	N	0.411192	0.683817	0.954858
	N245	N	0.586010	0.681149	0.023726
	N246	N	0.588166	0.320663	0.953660
	N247	N	0.413144	0.321207	0.024418
	N248	N	0.679634	0.965951	0.402322
	N249	N	0.680566	0.036477	0.576226
	N250	N	0.321078	0.967557	0.574994
	N251	N	0.318866	0.037626	0.400935
	N252	N	0.911015	0.467067	0.170092
	N253	N	0.087175	0.536355	0.168455
	N254	N	0.089429	0.465520	0.806363
	N255	N	0.913907	0.537216	0.808052
	N256	N	0.180805	0.914682	0.453608
	N257	N	0.180924	0.089527	0.524892
	N258	N	0.821707	0.085841	0.454036
	N259	N	0.818252	0.911868	0.524049
	N260	N	0.464237	0.182130	0.901942
	N261	N	0.534855	0.181450	0.075282
	N262	N	0.463853	0.821183	0.076607
	N263	N	0.534968	0.821753	0.902158
	N264	N	0.464132	0.913497	0.170385
	N265	N	0.534930	0.087428	0.167360
	N266	N	0.465244	0.091550	0.806928
	N267	N	0.534579	0.914846	0.808592
	N268	N	0.911506	0.182236	0.455854
	N269	N	0.087788	0.182550	0.525315
	N270	N	0.087775	0.820884	0.453389
	N271	N	0.912381	0.819005	0.523608
	N272	N	0.181723	0.465108	0.900731
	N273	N	0.179105	0.537155	0.074164
	N274	N	0.820307	0.466222	0.073996
	N275	N	0.820381	0.537628	0.900760
	O276	O	1.013108	1.027486	0.126579
	H277	H	1.030317	1.025700	0.139669
	H278	H	1.026554	1.030427	0.123559
	O279	O	0.031530	0.176071	-0.029853
	H280	H	0.040176	0.180196	-0.033697
	H281	H	0.032410	0.177197	-0.057727
	O282	O	0.983385	1.011739	-0.015341
	H283	H	0.974573	1.016898	-0.010400
	H284	H	0.994700	1.011338	-0.020800
	O285	O	0.518341	0.710707	0.695001
	H286	H	0.518807	0.709735	0.708092
	H287	H	0.511862	0.716362	0.695636
	O288	O	-0.312783	0.690226	-0.318616
	H289	H	-0.319106	0.660986	-0.320813
	H290	H	-0.333902	0.683126	-0.325079
	O291	O	1.370877	0.500823	0.460094
	H292	H	1.362955	0.497279	0.478207
	H293	H	1.368690	0.514435	0.463552
	O294	O	-0.195092	1.200769	-0.154533
	H295	H	-0.208515	1.174541	-0.160338
	H296	H	-0.190024	1.208902	-0.110670
	O297	O	0.189181	-0.015519	-0.005497
	H298	H	0.186633	-0.029525	-0.002757
	H299	H	0.180715	-0.020761	-0.001996
	O300	O	0.465425	0.343957	0.389776
	H301	H	0.459867	0.368737	0.383835
	H302	H	0.470804	0.357779	0.376674
	O303	O	0.315296	0.688171	0.305628
	H304	H	0.332743	0.702034	0.309168
	H305	H	0.304834	0.646906	0.305935
	O306	O	0.511169	0.307337	0.584373
	H307	H	0.516577	0.311472	0.553734
	H308	H	0.529665	0.303787	0.562680
	O309	O	0.522293	0.500139	0.414005
	H310	H	0.530038	0.501887	0.415365
	H311	H	0.524774	0.508287	0.409570
	O312	O	0.480088	0.705600	0.278344
	H313	H	0.473999	0.724599	0.261642
	H314	H	0.477365	0.707208	0.294045
	O315	O	0.611631	-0.384686	1.291548
	H316	H	0.617381	-0.397470	1.304607
	H317	H	0.590422	-0.381633	1.293803
	O318	O	0.111497	0.878443	0.102223
	H319	H	0.109924	0.879063	0.098634
	H320	H	0.110969	0.855010	0.090622
	O321	O	0.670805	0.378710	-0.670996
	H322	H	0.691788	0.377342	-0.682331
	H323	H	0.679572	0.407679	-0.667604
	O324	O	0.895657	-0.146406	0.888257
	H325	H	0.893370	-0.151970	0.876426
	H326	H	0.894636	-0.158696	0.886093
	O327	O	0.630731	0.397640	1.583202
	H328	H	0.636009	0.399963	1.574991
	H329	H	0.620986	0.384608	1.592992
	O330	O	0.782733	0.783805	0.203169
	H331	H	0.766868	0.782529	0.197381
	H332	H	0.787260	0.783887	0.218700
	O333	O	1.579866	0.505115	1.348621
	H334	H	1.580577	0.508771	1.351771
	H335	H	1.563111	0.511454	1.333340
	O336	O	0.422241	0.728114	0.568646
	H337	H	0.429826	0.716915	0.568176
	H338	H	0.421850	0.727118	0.558266
	O339	O	-0.036268	0.070937	1.026102
	H340	H	-0.029881	0.073829	1.007213
	H341	H	-0.032839	0.082449	1.019288
	O342	O	-0.023511	1.222529	0.770044
	H343	H	-0.034986	1.223373	0.757858
	H344	H	-0.046054	1.236839	0.752418
	O345	O	-0.078052	-0.157002	-0.199497
	H346	H	-0.060437	-0.158706	-0.190088
	H347	H	-0.096976	-0.148565	-0.214720
	O348	O	0.982672	0.220676	1.118441
	H349	H	0.990785	0.220049	1.118982
	H350	H	1.000842	0.228764	1.130641
	O351	O	0.690079	0.520411	0.288732
	H352	H	0.685862	0.526463	0.278997
	H353	H	0.693089	0.526866	0.297304
	O354	O	0.373591	0.376134	0.678293
	H355	H	0.388992	0.361101	0.661227
	H356	H	0.389380	0.361968	0.665098
	O357	O	1.295658	1.292252	0.515529
	H358	H	1.291097	1.269979	0.510486
	H359	H	1.289606	1.292013	0.496891
	O360	O	0.377549	0.525218	0.601115
	H361	H	0.365868	0.519977	0.607713
	H362	H	0.377226	0.510999	0.610451
	O363	O	0.588264	0.525149	0.462455
	H364	H	0.586204	0.511920	0.485570
	H365	H	0.578549	0.541187	0.475655
	O366	O	0.979969	-0.205647	1.201766
	H367	H	0.970789	-0.218053	1.212199
	H368	H	0.969945	-0.208223	1.201020
	O369	O	0.807458	1.188375	1.202701
	H370	H	0.823054	1.161716	1.192095
	H371	H	0.800258	1.177479	1.184141
	O372	O	0.189770	0.181524	1.168507
	H373	H	0.176719	0.152750	1.179648
	H374	H	0.180120	0.183690	1.131045
	O375	O	-0.215506	0.974753	0.985775
	H376	H	-0.206272	0.967929	0.988395
	H377	H	-0.239602	0.967943	0.982367
	O378	O	0.639044	0.489226	0.511983
	H379	H	0.637714	0.464721	0.513335
	H380	H	0.624638	0.483813	0.518972
	O381	O	1.710911	-0.475418	0.695850
	H382	H	1.698533	-0.497297	0.690641
	H383	H	1.730364	-0.481534	0.707270
	O384	O	0.720227	-0.721656	1.461899
	H385	H	0.713162	-0.707748	1.415907
	H386	H	0.759162	-0.756775	1.456789
	O387	O	-0.198981	1.069967	0.783828
	H388	H	-0.204219	1.068414	0.770330
	H389	H	-0.199081	1.056989	0.813250
	O390	O	0.203311	-0.200095	0.813286
	H391	H	0.173245	-0.206191	0.818924
	H392	H	0.225079	-0.215884	0.797810
	O393	O	0.794889	0.793086	0.044809
	H394	H	0.785081	0.773959	0.063100
	H395	H	0.796482	0.795456	0.044896
	O396	O	0.284874	0.483230	0.707105
	H397	H	0.249028	0.471306	0.741093
	H398	H	0.300978	0.438630	0.692487
	O399	O	1.035466	0.947711	0.175726
	H400	H	1.048036	0.945944	0.171511
	H401	H	1.031277	0.962051	0.164825
	O402	O	0.033354	0.082924	0.810217
	H403	H	0.043016	0.092089	0.798984
	H404	H	0.044871	0.091624	0.810971
	O405	O	0.159444	-0.199405	-0.114483
	H406	H	0.137086	-0.189469	-0.127338
	H407	H	0.174360	-0.221815	-0.114803
	O408	O	0.338354	0.431680	0.433582
	H409	H	0.323025	0.424885	0.427715
	H410	H	0.335086	0.443280	0.446764
	O411	O	-0.055282	0.927325	0.837368
	H412	H	-0.065586	0.936921	0.853785
	H413	H	-0.049755	0.940862	0.829734
	O414	O	0.717886	0.716802	0.520862
	H415	H	0.721466	0.732701	0.531075
	H416	H	0.732876	0.726504	0.528873
	O417	O	0.479041	0.286961	0.702507
	H418	H	0.489832	0.277767	0.681539
	H419	H	0.482864	0.264138	0.719154
	O420	O	0.295052	0.556817	0.310153
	H421	H	0.301303	0.537590	0.318327
	H422	H	0.277181	0.546084	0.304749
	O423	O	-0.191988	1.196532	0.021125
	H424	H	-0.185009	1.188757	0.030439
	H425	H	-0.187570	1.185870	0.025494
	O426	O	0.876085	0.979986	1.200322
	H427	H	0.881970	0.991906	1.196227
	H428	H	0.875727	0.996014	1.209254
	O429	O	0.396501	0.349311	0.339276
	H430	H	0.415268	0.346295	0.328057
	H431	H	0.402552	0.351413	0.346600
	O432	O	0.322211	0.712165	0.487856
	H433	H	0.303623	0.728324	0.487846
	H434	H	0.332771	0.697394	0.478206
	O435	O	0.197950	0.213086	0.014555
	H436	H	0.208374	0.232425	0.002833
	H437	H	0.198040	0.190133	0.016336
	O438	O	1.124995	-0.007134	0.110834
	H439	H	1.123017	-0.022414	0.123890
	H440	H	1.129017	-0.014825	0.121310
	O441	O	0.530634	0.285443	0.275062
	H442	H	0.541994	0.275928	0.260775
	H443	H	0.532562	0.283535	0.278185
	O444	O	-0.217306	1.026083	1.011541
	H445	H	-0.221874	1.003452	1.010070
	H446	H	-0.216681	1.016838	1.001576
	O447	O	0.562509	0.704039	0.434962
	H448	H	0.581770	0.705687	0.453951
	H449	H	0.545491	0.694688	0.436519
	O450	O	0.210719	0.974699	0.774150
	H451	H	0.229103	0.955672	0.762166
	H452	H	0.218158	0.956456	0.773644
	O453	O	0.324018	0.658649	0.659215
	H454	H	0.339414	0.652385	0.654618
	H455	H	0.324369	0.637733	0.646590
	O456	O	1.180477	-0.055737	0.146637
	H457	H	1.171349	-0.050505	0.148847
	H458	H	1.199270	-0.064510	0.154591
	O459	O	0.992531	-0.207502	0.940708
	H460	H	0.987136	-0.193586	0.943454
	H461	H	0.971724	-0.221555	0.942125
	O462	O	0.555790	0.446206	0.698615
	H463	H	0.535754	0.446357	0.697687
	H464	H	0.559545	0.441191	0.704173
	O465	O	1.161248	0.102751	-0.127860
	H466	H	1.142830	0.098161	-0.133470
	H467	H	1.175646	0.068305	-0.124724
