data_Molecule from HDF5

_cell_length_a		16.267107
_cell_length_b		16.249311
_cell_length_c		16.225330
_cell_angle_alpha	89.864881
_cell_angle_beta	89.928146
_cell_angle_gamma	90.027750
_symmetry_space_group_name_H-M	'P 1'
_symmetry_Int_Tables_number		1

loop_
	_symmetry_equiv_pos_as_xyz
	x,y,z

loop_
	_atom_site_label
	_atom_site_type_symbol
	_atom_site_fract_x
	_atom_site_fract_y
	_atom_site_fract_z
	H0	H	0.402926	0.834726	0.716114
	H1	H	0.598039	0.162391	0.715367
	H2	H	0.597821	0.833746	0.288173
	H3	H	0.403044	0.162288	0.288016
	H4	H	0.712117	0.401497	0.838263
	H5	H	0.711868	0.594939	0.167608
	H6	H	0.286518	0.597107	0.838168
	H7	H	0.284870	0.399339	0.166298
	H8	H	0.835894	0.713571	0.404784
	H9	H	0.164125	0.712105	0.600736
	H10	H	0.836787	0.282704	0.602029
	H11	H	0.163972	0.283860	0.404131
	H12	H	0.835576	0.399951	0.715764
	H13	H	0.163823	0.595120	0.715275
	H14	H	0.834582	0.597023	0.288928
	H15	H	0.163569	0.400638	0.288143
	H16	H	0.400731	0.713155	0.839167
	H17	H	0.595271	0.710658	0.167520
	H18	H	0.597115	0.286454	0.838250
	H19	H	0.401152	0.284767	0.166883
	H20	H	0.715098	0.834084	0.403540
	H21	H	0.713484	0.162929	0.599673
	H22	H	0.285791	0.835191	0.601642
	H23	H	0.286562	0.162524	0.403723
	H24	H	0.901556	0.334721	0.217126
	H25	H	0.097454	0.663005	0.216210
	H26	H	0.095734	0.333704	0.790409
	H27	H	0.903189	0.662670	0.789610
	H28	H	0.214399	0.900840	0.338495
	H29	H	0.214376	0.096889	0.666201
	H30	H	0.786464	0.097757	0.338754
	H31	H	0.785628	0.898842	0.666451
	H32	H	0.335735	0.212384	0.905023
	H33	H	0.663896	0.212211	0.100364
	H34	H	0.335504	0.783897	0.102697
	H35	H	0.662797	0.783640	0.904073
	H36	H	0.335699	0.900555	0.216779
	H37	H	0.663962	0.095471	0.215562
	H38	H	0.335975	0.095989	0.788608
	H39	H	0.663551	0.901047	0.789535
	H40	H	0.902786	0.212846	0.339345
	H41	H	0.097330	0.210109	0.667967
	H42	H	0.099310	0.785160	0.338573
	H43	H	0.903022	0.785479	0.667487
	H44	H	0.213534	0.334676	0.904009
	H45	H	0.213531	0.662434	0.100390
	H46	H	0.785808	0.334177	0.101652
	H47	H	0.785912	0.662229	0.904444
	H48	H	0.401135	0.115745	0.585085
	H49	H	0.594569	0.881181	0.597017
	H50	H	0.591364	0.113245	0.410740
	H51	H	0.406355	0.879640	0.406703
	H52	H	0.589153	0.408644	0.118422
	H53	H	0.587894	0.591726	0.886978
	H54	H	0.409957	0.588370	0.118411
	H55	H	0.404147	0.408233	0.885335
	H56	H	0.117102	0.591245	0.404325
	H57	H	0.882831	0.586766	0.601135
	H58	H	0.118735	0.399904	0.596051
	H59	H	0.884839	0.408866	0.413579
	H60	H	0.115634	0.407424	0.592915
	H61	H	0.880349	0.598955	0.597292
	H62	H	0.116980	0.595096	0.410728
	H63	H	0.882085	0.406466	0.405497
	H64	H	0.406100	0.596817	0.122075
	H65	H	0.594817	0.595680	0.883825
	H66	H	0.591623	0.398631	0.122185
	H67	H	0.409666	0.404893	0.885428
	H68	H	0.596372	0.115283	0.410076
	H69	H	0.592526	0.881620	0.595706
	H70	H	0.400403	0.120195	0.604943
	H71	H	0.409160	0.882157	0.409763
	H72	H	0.904406	0.617401	0.100072
	H73	H	0.093723	0.382609	0.092040
	H74	H	0.096884	0.616113	0.911771
	H75	H	0.921324	0.386885	0.914128
	H76	H	0.105311	0.906643	0.623445
	H77	H	0.104783	0.084954	0.384089
	H78	H	0.909721	0.096166	0.621277
	H79	H	0.901819	0.909791	0.384654
	H80	H	0.617865	0.096512	0.909287
	H81	H	0.385517	0.087143	0.092442
	H82	H	0.619150	0.904574	0.103687
	H83	H	0.378568	0.900134	0.901747
	H84	H	0.616678	0.897086	0.089090
	H85	H	0.380663	0.091848	0.101824
	H86	H	0.615259	0.090455	0.911386
	H87	H	0.384060	0.901944	0.919365
	H88	H	0.899727	0.090498	0.622217
	H89	H	0.081783	0.084807	0.390796
	H90	H	0.087414	0.915236	0.615138
	H91	H	0.912606	0.909144	0.388189
	H92	H	0.093507	0.616400	0.903910
	H93	H	0.094372	0.380469	0.097896
	H94	H	0.909574	0.613597	0.093824
	H95	H	0.891536	0.379554	0.920796
	H96	H	0.417795	0.113337	0.596685
	H97	H	0.594525	0.881192	0.593945
	H98	H	0.593197	0.115652	0.405917
	H99	H	0.404504	0.881305	0.411014
	H100	H	0.599182	0.406172	0.122423
	H101	H	0.595111	0.587404	0.885866
	H102	H	0.400187	0.588356	0.120116
	H103	H	0.403596	0.401438	0.882770
	H104	H	0.114272	0.587855	0.410915
	H105	H	0.885382	0.590627	0.588966
	H106	H	0.117892	0.406751	0.601393
	H107	H	0.882205	0.400419	0.412313
	H108	H	0.901794	0.615958	0.092051
	H109	H	0.088503	0.383272	0.095631
	H110	H	0.088414	0.614092	0.909843
	H111	H	0.902366	0.374638	0.891693
	H112	H	0.088113	0.894326	0.621126
	H113	H	0.092016	0.104912	0.382194
	H114	H	0.909171	0.085385	0.618021
	H115	H	0.908061	0.899567	0.384019
	H116	H	0.618010	0.091530	0.904526
	H117	H	0.382459	0.097886	0.092855
	H118	H	0.612724	0.912902	0.090885
	H119	H	0.385394	0.916655	0.907877
	C120	C	0.378793	0.007525	0.623567
	C121	C	0.622017	0.989803	0.623899
	C122	C	0.622542	0.006388	0.379860
	C123	C	0.378683	0.989763	0.380838
	C124	C	0.621126	0.377043	0.011787
	C125	C	0.620717	0.619738	0.994318
	C126	C	0.377503	0.619906	0.011621
	C127	C	0.378120	0.377101	0.993714
	C128	C	0.007781	0.620293	0.380521
	C129	C	0.991280	0.619910	0.624175
	C130	C	0.008855	0.376296	0.624816
	C131	C	0.991527	0.376688	0.381514
	C132	C	0.877449	0.507073	0.123952
	C133	C	0.120576	0.490503	0.123785
	C134	C	0.120925	0.506985	0.880641
	C135	C	0.877416	0.489273	0.880777
	C136	C	0.122284	0.876949	0.511359
	C137	C	0.121554	0.119891	0.494137
	C138	C	0.878124	0.119969	0.511914
	C139	C	0.879017	0.877117	0.494291
	C140	C	0.508518	0.120844	0.880487
	C141	C	0.491348	0.120106	0.123773
	C142	C	0.507903	0.876727	0.123774
	C143	C	0.490759	0.877362	0.880853
	C144	C	0.381767	0.883819	0.678777
	C145	C	0.619039	0.113343	0.678304
	C146	C	0.619290	0.882870	0.325243
	C147	C	0.381978	0.113395	0.325865
	C148	C	0.674865	0.380658	0.887451
	C149	C	0.675085	0.616419	0.118232
	C150	C	0.323636	0.617238	0.887445
	C151	C	0.323133	0.379467	0.117441
	C152	C	0.884538	0.675269	0.384134
	C153	C	0.115028	0.674426	0.621114
	C154	C	0.885453	0.320893	0.621973
	C155	C	0.114817	0.321791	0.384130
	C156	C	0.884627	0.379220	0.678454
	C157	C	0.115014	0.616392	0.678266
	C158	C	0.883827	0.617331	0.326761
	C159	C	0.114792	0.379656	0.326317
	C160	C	0.380313	0.675040	0.887930
	C161	C	0.616946	0.673697	0.118309
	C162	C	0.617670	0.323583	0.887388
	C163	C	0.380764	0.322211	0.117693
	C164	C	0.677464	0.883137	0.382635
	C165	C	0.676367	0.113539	0.620769
	C166	C	0.323595	0.884175	0.621956
	C167	C	0.323935	0.113350	0.383067
	C168	C	0.880512	0.383564	0.179461
	C169	C	0.118073	0.613914	0.178471
	C170	C	0.117010	0.382941	0.827245
	C171	C	0.881365	0.613339	0.826514
	C172	C	0.176672	0.880302	0.387320
	C173	C	0.176562	0.117564	0.617592
	C174	C	0.823590	0.118170	0.388163
	C175	C	0.823778	0.878999	0.617772
	C176	C	0.384604	0.174367	0.884443
	C177	C	0.614911	0.174673	0.121027
	C178	C	0.384552	0.821767	0.122439
	C179	C	0.613892	0.822012	0.883917
	C180	C	0.384553	0.879798	0.179142
	C181	C	0.614936	0.116854	0.178345
	C182	C	0.384771	0.116807	0.826424
	C183	C	0.614374	0.879914	0.826481
	C184	C	0.881605	0.174972	0.388249
	C185	C	0.118372	0.173688	0.618410
	C186	C	0.119719	0.822362	0.387782
	C187	C	0.882071	0.822738	0.618058
	C188	C	0.175555	0.383519	0.883765
	C189	C	0.175915	0.613560	0.121197
	C190	C	0.823047	0.383351	0.121953
	C191	C	0.823281	0.613124	0.883670
	C192	C	0.400152	0.093952	0.601933
	C193	C	0.600180	0.903583	0.602044
	C194	C	0.600312	0.092557	0.402297
	C195	C	0.400234	0.903310	0.402810
	C196	C	0.599461	0.398159	0.098509
	C197	C	0.598970	0.598096	0.907762
	C198	C	0.399152	0.597695	0.097947
	C199	C	0.399526	0.398416	0.907004
	C200	C	0.093960	0.597998	0.402018
	C201	C	0.905151	0.598397	0.602245
	C202	C	0.095017	0.398222	0.603269
	C203	C	0.905287	0.398729	0.403762
	C204	C	0.898994	0.593428	0.101769
	C205	C	0.098536	0.404395	0.101845
	C206	C	0.099370	0.593277	0.902133
	C207	C	0.898665	0.402599	0.902540
	C208	C	0.100315	0.899032	0.597681
	C209	C	0.099443	0.098015	0.407970
	C210	C	0.899673	0.097315	0.598387
	C211	C	0.901084	0.899620	0.407851
	C212	C	0.594766	0.099304	0.902041
	C213	C	0.405188	0.098749	0.102109
	C214	C	0.594162	0.898399	0.101194
	C215	C	0.404780	0.899603	0.903038
	Zn216	Zn	0.500250	-0.001076	0.752299
	Zn217	Zn	0.499795	-0.001661	0.251927
	Zn218	Zn	0.749239	0.498067	0.002566
	Zn219	Zn	0.249601	0.498624	0.002036
	Zn220	Zn	0.000541	0.748717	0.502738
	Zn221	Zn	0.000412	0.247593	0.503606
	Zn222	Zn	-0.000751	0.498113	0.752591
	Zn223	Zn	-0.000613	0.498463	0.252195
	Zn224	Zn	0.498469	0.748181	0.002905
	Zn225	Zn	0.500122	0.249284	0.002655
	Zn226	Zn	0.750594	-0.001847	0.502620
	Zn227	Zn	0.250003	-0.001127	0.502611
	N228	N	0.415253	0.961731	0.680189
	N229	N	0.585912	0.035517	0.680329
	N230	N	0.585874	0.960764	0.323304
	N231	N	0.415244	0.035543	0.324423
	N232	N	0.676980	0.413185	0.965712
	N233	N	0.677529	0.583826	0.040014
	N234	N	0.321908	0.583415	0.965402
	N235	N	0.321417	0.412903	0.039421
	N236	N	0.962518	0.677117	0.416901
	N237	N	0.037153	0.676497	0.587929
	N238	N	0.963508	0.318999	0.589369
	N239	N	0.037174	0.320046	0.417903
	N240	N	0.962261	0.413079	0.680455
	N241	N	0.037178	0.583457	0.680318
	N242	N	0.961587	0.583848	0.324322
	N243	N	0.037115	0.413080	0.324528
	N244	N	0.413240	0.676624	0.965863
	N245	N	0.583861	0.675854	0.040267
	N246	N	0.584839	0.321161	0.965683
	N247	N	0.414294	0.320592	0.039796
	N248	N	0.679466	0.960924	0.415795
	N249	N	0.678340	0.035664	0.587621
	N250	N	0.321717	0.961923	0.588398
	N251	N	0.321774	0.035486	0.416451
	N252	N	0.913724	0.461458	0.180918
	N253	N	0.084107	0.536395	0.180004
	N254	N	0.083767	0.460696	0.825321
	N255	N	0.914281	0.535328	0.824580
	N256	N	0.178541	0.913475	0.465315
	N257	N	0.178789	0.084792	0.539495
	N258	N	0.821708	0.084302	0.466066
	N259	N	0.821771	0.912160	0.539729
	N260	N	0.462457	0.177012	0.917275
	N261	N	0.537135	0.176765	0.087706
	N262	N	0.462076	0.819968	0.088500
	N263	N	0.535906	0.820311	0.917073
	N264	N	0.462361	0.913260	0.180154
	N265	N	0.537234	0.083590	0.180067
	N266	N	0.462803	0.084251	0.824037
	N267	N	0.536938	0.913678	0.824562
	N268	N	0.914690	0.176311	0.466212
	N269	N	0.084819	0.175144	0.540565
	N270	N	0.086648	0.820179	0.465754
	N271	N	0.915846	0.821416	0.540143
	N272	N	0.177913	0.461618	0.916427
	N273	N	0.177548	0.535766	0.087824
	N274	N	0.821224	0.461136	0.088237
	N275	N	0.820957	0.535024	0.916799
	O276	O	0.982709	-0.048834	1.069477
	H277	H	0.982580	-0.049532	1.076093
	H278	H	0.984664	-0.044831	1.071068
	O279	O	0.575425	0.409128	0.495625
	H280	H	0.571743	0.407935	0.503146
	H281	H	0.571815	0.406979	0.500284
	O282	O	0.945413	0.943090	0.068668
	H283	H	0.946805	0.946783	0.066307
	H284	H	0.947349	0.937624	0.067553
	O285	O	0.043620	0.884116	0.121418
	H286	H	0.037019	0.878089	0.131265
	H287	H	0.043832	0.878253	0.114718
