data_Molecule from HDF5

_cell_length_a		16.084359
_cell_length_b		16.195924
_cell_length_c		16.278594
_cell_angle_alpha	91.264678
_cell_angle_beta	89.492754
_cell_angle_gamma	89.210997
_symmetry_space_group_name_H-M	'P 1'
_symmetry_Int_Tables_number		1

loop_
	_symmetry_equiv_pos_as_xyz
	x,y,z

loop_
	_atom_site_label
	_atom_site_type_symbol
	_atom_site_fract_x
	_atom_site_fract_y
	_atom_site_fract_z
	H0	H	0.398952	0.836879	0.711482
	H1	H	0.593320	0.164949	0.720298
	H2	H	0.605744	0.841496	0.276815
	H3	H	0.393715	0.166599	0.289859
	H4	H	0.713292	0.396095	0.833900
	H5	H	0.706160	0.600372	0.162256
	H6	H	0.282938	0.597605	0.831849
	H7	H	0.279382	0.409332	0.160840
	H8	H	0.831831	0.716420	0.402711
	H9	H	0.163506	0.714792	0.596123
	H10	H	0.829744	0.296330	0.592551
	H11	H	0.161652	0.283296	0.393149
	H12	H	0.832032	0.407071	0.711130
	H13	H	0.162537	0.602206	0.712678
	H14	H	0.830673	0.600673	0.288648
	H15	H	0.161370	0.396683	0.277090
	H16	H	0.397210	0.714405	0.832896
	H17	H	0.593866	0.719145	0.160687
	H18	H	0.599582	0.277581	0.836743
	H19	H	0.396594	0.294538	0.163926
	H20	H	0.713666	0.839020	0.398627
	H21	H	0.704156	0.168917	0.600943
	H22	H	0.284398	0.836550	0.597034
	H23	H	0.281308	0.166869	0.408315
	H24	H	0.896883	0.337052	0.208955
	H25	H	0.094230	0.664585	0.216606
	H26	H	0.101759	0.338923	0.774319
	H27	H	0.894674	0.667333	0.787822
	H28	H	0.217234	0.896079	0.335927
	H29	H	0.204212	0.100785	0.664800
	H30	H	0.780665	0.100414	0.335905
	H31	H	0.784920	0.911169	0.663850
	H32	H	0.331297	0.214068	0.906478
	H33	H	0.662156	0.216593	0.100929
	H34	H	0.330684	0.793684	0.097006
	H35	H	0.661680	0.782436	0.895748
	H36	H	0.332479	0.908197	0.214742
	H37	H	0.661781	0.103869	0.215989
	H38	H	0.331337	0.100762	0.791191
	H39	H	0.661332	0.896129	0.780941
	H40	H	0.898230	0.212336	0.333169
	H41	H	0.094255	0.222876	0.659782
	H42	H	0.101944	0.779562	0.335044
	H43	H	0.899351	0.792178	0.662088
	H44	H	0.213404	0.336818	0.892863
	H45	H	0.202399	0.668026	0.093579
	H46	H	0.785727	0.335483	0.090596
	H47	H	0.779364	0.665585	0.903733
	H48	H	0.389446	0.122772	0.599727
	H49	H	0.587936	0.885771	0.590342
	H50	H	0.597155	0.123363	0.413665
	H51	H	0.408745	0.885003	0.405011
	H52	H	0.589879	0.410163	0.115314
	H53	H	0.587908	0.587467	0.882041
	H54	H	0.388866	0.596870	0.115814
	H55	H	0.405044	0.406295	0.881107
	H56	H	0.115787	0.588074	0.401439
	H57	H	0.883404	0.589074	0.585898
	H58	H	0.116644	0.412436	0.593112
	H59	H	0.876377	0.406187	0.401921
	H60	H	0.117128	0.402615	0.581954
	H61	H	0.876060	0.596519	0.605633
	H62	H	0.115357	0.591419	0.406410
	H63	H	0.878732	0.408101	0.403854
	H64	H	0.405907	0.591909	0.109943
	H65	H	0.587824	0.593221	0.879747
	H66	H	0.590944	0.409362	0.116085
	H67	H	0.410738	0.405846	0.882006
	H68	H	0.586461	0.124668	0.399397
	H69	H	0.595847	0.884527	0.585311
	H70	H	0.405620	0.120305	0.608617
	H71	H	0.412553	0.886080	0.403952
	H72	H	0.907546	0.618993	0.098894
	H73	H	0.075324	0.389133	0.082133
	H74	H	0.092634	0.623313	0.895856
	H75	H	0.904148	0.382004	0.896679
	H76	H	0.097864	0.913606	0.616931
	H77	H	0.095302	0.079932	0.383175
	H78	H	0.905527	0.106618	0.616463
	H79	H	0.904715	0.905490	0.380534
	H80	H	0.612900	0.092904	0.918293
	H81	H	0.381246	0.088433	0.098247
	H82	H	0.615815	0.912848	0.093784
	H83	H	0.377199	0.910101	0.903587
	H84	H	0.617153	0.902191	0.088335
	H85	H	0.373867	0.104463	0.104231
	H86	H	0.613062	0.078748	0.905982
	H87	H	0.377230	0.905166	0.905285
	H88	H	0.896134	0.104002	0.618412
	H89	H	0.080108	0.092550	0.384276
	H90	H	0.082307	0.913074	0.612062
	H91	H	0.905566	0.908758	0.382473
	H92	H	0.077644	0.616101	0.905193
	H93	H	0.099488	0.383523	0.075454
	H94	H	0.902280	0.616794	0.086581
	H95	H	0.913145	0.385823	0.897208
	H96	H	0.404171	0.116135	0.591136
	H97	H	0.595434	0.881684	0.594149
	H98	H	0.580971	0.116791	0.413836
	H99	H	0.410827	0.886407	0.408118
	H100	H	0.591161	0.410504	0.115870
	H101	H	0.592719	0.590195	0.879304
	H102	H	0.402993	0.609506	0.115487
	H103	H	0.408178	0.401343	0.881222
	H104	H	0.113869	0.586050	0.405382
	H105	H	0.877790	0.610058	0.588847
	H106	H	0.111564	0.415853	0.580386
	H107	H	0.877388	0.409494	0.400220
	H108	H	0.894331	0.621522	0.097667
	H109	H	0.091105	0.379030	0.098395
	H110	H	0.094041	0.618849	0.913339
	H111	H	0.907283	0.385134	0.905170
	H112	H	0.089386	0.900835	0.617745
	H113	H	0.097031	0.097885	0.376983
	H114	H	0.903031	0.097279	0.614027
	H115	H	0.908610	0.906222	0.381347
	H116	H	0.619927	0.095257	0.900152
	H117	H	0.379940	0.102164	0.087486
	H118	H	0.612434	0.911206	0.082658
	H119	H	0.378792	0.909347	0.907755
	C120	C	0.373904	0.010106	0.623959
	C121	C	0.618475	0.993365	0.621301
	C122	C	0.619899	0.012885	0.377296
	C123	C	0.378215	0.994227	0.380051
	C124	C	0.620250	0.377639	0.007651
	C125	C	0.617032	0.621271	0.988730
	C126	C	0.372266	0.625374	0.005347
	C127	C	0.376919	0.380319	0.989620
	C128	C	0.005489	0.619706	0.377658
	C129	C	0.988927	0.625677	0.620892
	C130	C	0.005816	0.383477	0.615253
	C131	C	0.987040	0.377474	0.372090
	C132	C	0.874068	0.509928	0.119608
	C133	C	0.116616	0.492719	0.116769
	C134	C	0.119401	0.511057	0.872915
	C135	C	0.876462	0.493167	0.874879
	C136	C	0.120908	0.877622	0.507513
	C137	C	0.117843	0.121888	0.489760
	C138	C	0.873972	0.126982	0.507512
	C139	C	0.877146	0.881657	0.490174
	C140	C	0.505649	0.119552	0.881166
	C141	C	0.488129	0.125938	0.124225
	C142	C	0.505872	0.882157	0.118862
	C143	C	0.487387	0.877594	0.875524
	C144	C	0.378229	0.886007	0.675191
	C145	C	0.613777	0.116545	0.680209
	C146	C	0.622288	0.889797	0.317607
	C147	C	0.375911	0.117828	0.327448
	C148	C	0.675988	0.376473	0.883572
	C149	C	0.669978	0.620758	0.112755
	C150	C	0.319486	0.619470	0.881402
	C151	C	0.318790	0.387592	0.112555
	C152	C	0.880994	0.677394	0.381811
	C153	C	0.113718	0.678487	0.617232
	C154	C	0.879904	0.331863	0.613242
	C155	C	0.111988	0.320703	0.372828
	C156	C	0.880990	0.387142	0.671901
	C157	C	0.112998	0.622511	0.675292
	C158	C	0.880491	0.620218	0.324800
	C159	C	0.111765	0.377333	0.315249
	C160	C	0.375757	0.678277	0.882095
	C161	C	0.614042	0.679990	0.111718
	C162	C	0.619400	0.317546	0.884982
	C163	C	0.377205	0.330586	0.114310
	C164	C	0.676588	0.888830	0.377844
	C165	C	0.669054	0.118557	0.620821
	C166	C	0.321028	0.886149	0.618283
	C167	C	0.319703	0.117757	0.386163
	C168	C	0.876813	0.386029	0.171868
	C169	C	0.114067	0.615924	0.176166
	C170	C	0.120396	0.387594	0.813980
	C171	C	0.875636	0.617495	0.823863
	C172	C	0.178666	0.877043	0.384719
	C173	C	0.168721	0.121235	0.614585
	C174	C	0.819028	0.121316	0.384310
	C175	C	0.822573	0.888710	0.614304
	C176	C	0.380880	0.175847	0.885668
	C177	C	0.612581	0.179825	0.121275
	C178	C	0.380700	0.830009	0.117432
	C179	C	0.612022	0.820291	0.875778
	C180	C	0.381428	0.887141	0.175845
	C181	C	0.612482	0.123801	0.178513
	C182	C	0.380895	0.119402	0.828244
	C183	C	0.611712	0.877030	0.818717
	C184	C	0.877573	0.176876	0.382949
	C185	C	0.114352	0.182070	0.612070
	C186	C	0.121360	0.818877	0.384200
	C187	C	0.879286	0.829428	0.613545
	C188	C	0.176262	0.386652	0.872692
	C189	C	0.168144	0.617579	0.115366
	C190	C	0.821538	0.385251	0.113122
	C191	C	0.818179	0.616734	0.881664
	C192	C	0.394034	0.097396	0.605456
	C193	C	0.598931	0.906440	0.596987
	C194	C	0.595333	0.099304	0.401775
	C195	C	0.403521	0.908210	0.399794
	C196	C	0.597301	0.402764	0.093388
	C197	C	0.595778	0.597228	0.902619
	C198	C	0.393042	0.605414	0.091354
	C199	C	0.400939	0.398911	0.903702
	C200	C	0.092554	0.595482	0.398290
	C201	C	0.901664	0.604872	0.599724
	C202	C	0.092536	0.404035	0.591947
	C203	C	0.900174	0.400853	0.395293
	C204	C	0.895152	0.596695	0.100087
	C205	C	0.095131	0.406352	0.092445
	C206	C	0.095294	0.597219	0.897647
	C207	C	0.901012	0.406615	0.894001
	C208	C	0.096735	0.902094	0.593392
	C209	C	0.096904	0.097363	0.403739
	C210	C	0.895335	0.108308	0.593894
	C211	C	0.899738	0.901077	0.403825
	C212	C	0.592847	0.095916	0.902194
	C213	C	0.400842	0.104600	0.102976
	C214	C	0.592683	0.902798	0.095316
	C215	C	0.400296	0.901347	0.898836
	Zn216	Zn	0.496602	0.000404	0.750668
	Zn217	Zn	0.498229	0.003986	0.249390
	Zn218	Zn	0.747604	0.500686	-0.002302
	Zn219	Zn	0.245792	0.501652	-0.004363
	Zn220	Zn	-0.002193	0.750175	0.497748
	Zn221	Zn	-0.003542	0.253105	0.495829
	Zn222	Zn	-0.002602	0.502631	0.746092
	Zn223	Zn	-0.004222	0.500544	0.246900
	Zn224	Zn	0.496265	0.752190	-0.002838
	Zn225	Zn	0.497611	0.249741	0.001180
	Zn226	Zn	0.746945	0.004400	0.499474
	Zn227	Zn	0.248081	0.000715	0.500648
	N228	N	0.410383	0.964284	0.678926
	N229	N	0.583103	0.037611	0.680735
	N230	N	0.587917	0.968203	0.317099
	N231	N	0.411774	0.040055	0.323579
	N232	N	0.676591	0.413180	0.960641
	N233	N	0.672047	0.585027	0.035291
	N234	N	0.316911	0.587470	0.958971
	N235	N	0.318330	0.417677	0.034042
	N236	N	0.959860	0.677324	0.413807
	N237	N	0.035369	0.680620	0.584143
	N238	N	0.958348	0.329332	0.578474
	N239	N	0.033515	0.320398	0.407316
	N240	N	0.960190	0.418245	0.673422
	N241	N	0.034202	0.590438	0.677728
	N242	N	0.958981	0.584849	0.322214
	N243	N	0.033082	0.411676	0.314402
	N244	N	0.408217	0.681986	0.960063
	N245	N	0.581639	0.680157	0.033698
	N246	N	0.585623	0.317995	0.963062
	N247	N	0.412753	0.326048	0.037171
	N248	N	0.675261	0.966358	0.414150
	N249	N	0.672372	0.040821	0.584864
	N250	N	0.317992	0.964420	0.587355
	N251	N	0.321261	0.039927	0.418422
	N252	N	0.908717	0.464431	0.176023
	N253	N	0.082667	0.537170	0.177153
	N254	N	0.086059	0.465838	0.813850
	N255	N	0.911134	0.539493	0.819648
	N256	N	0.178638	0.912609	0.462402
	N257	N	0.171074	0.084345	0.537568
	N258	N	0.816544	0.091086	0.462727
	N259	N	0.820937	0.920438	0.536518
	N260	N	0.459527	0.175862	0.918006
	N261	N	0.534148	0.181299	0.088310
	N262	N	0.458990	0.826862	0.082686
	N263	N	0.533553	0.820463	0.910303
	N264	N	0.460534	0.918624	0.177080
	N265	N	0.533946	0.091206	0.180456
	N266	N	0.459587	0.084885	0.825353
	N267	N	0.533125	0.911891	0.818466
	N268	N	0.910716	0.180845	0.460502
	N269	N	0.083384	0.182550	0.533509
	N270	N	0.086143	0.819060	0.461646
	N271	N	0.912360	0.824871	0.535336
	N272	N	0.175499	0.464373	0.908878
	N273	N	0.169738	0.540036	0.079045
	N274	N	0.819700	0.463281	0.081362
	N275	N	0.818221	0.538313	0.912389
	O276	O	0.090375	-0.103035	-0.073843
	H277	H	0.105353	-0.115488	-0.088522
	H278	H	0.097604	-0.102495	-0.081820
	O279	O	0.383711	0.558435	0.485471
	H280	H	0.383939	0.556348	0.476124
	H281	H	0.376970	0.555907	0.487997
	O282	O	0.428806	0.429287	0.576898
	H283	H	0.444644	0.422071	0.579598
	H284	H	0.423027	0.431927	0.583311
	O285	O	0.023276	1.040957	1.064075
	H286	H	0.019153	1.025976	1.070839
	H287	H	0.022028	1.048472	1.065676
	O288	O	0.508694	0.555467	0.563566
	H289	H	0.515267	0.547907	0.559667
	H290	H	0.501629	0.560932	0.576673
	O291	O	0.932783	0.996596	0.975732
	H292	H	0.928882	0.999402	0.980305
	H293	H	0.935673	0.991833	0.978605
	O294	O	0.935307	1.037115	0.998723
	H295	H	0.933358	1.034607	0.991387
	H296	H	0.924711	1.048178	0.989878
	O297	O	0.961706	-0.021936	1.090405
	H298	H	0.968643	-0.016520	1.089674
	H299	H	0.961219	-0.032614	1.092079
	O300	O	0.488278	0.450741	0.487322
	H301	H	0.495704	0.442160	0.484783
	H302	H	0.497031	0.446547	0.481928
	O303	O	0.975328	0.041983	-0.020890
	H304	H	0.987042	0.042862	-0.013704
	H305	H	0.969492	0.043077	-0.018924
	O306	O	-0.084289	1.018763	1.038504
	H307	H	-0.087039	1.019743	1.040225
	H308	H	-0.069210	1.028533	1.043068
	O309	O	0.456671	0.532250	0.487890
	H310	H	0.470882	0.536401	0.494164
	H311	H	0.456549	0.533164	0.484021
	O312	O	1.039718	0.037653	0.961832
	H313	H	1.038811	0.033711	0.961659
	H314	H	1.035969	0.033166	0.956142
	O315	O	0.419554	0.569322	0.417729
	H316	H	0.409993	0.563881	0.426340
	H317	H	0.424702	0.568183	0.415907
	O318	O	0.559770	0.530317	0.473683
	H319	H	0.557457	0.521266	0.471377
	H320	H	0.559691	0.542953	0.453319
	O321	O	1.024804	0.997279	1.094478
	H322	H	1.027627	0.997335	1.087878
	H323	H	1.025608	1.008444	1.087602
	O324	O	0.552313	0.482802	0.551870
	H325	H	0.551372	0.468764	0.552443
	H326	H	0.553382	0.486437	0.563026
	O327	O	0.550281	0.492369	0.434140
	H328	H	0.547843	0.504320	0.434003
	H329	H	0.552080	0.484651	0.429049
	O330	O	0.966883	-0.056360	0.903196
	H331	H	0.969870	-0.055417	0.900449
	H332	H	0.970365	-0.068897	0.904800
	O333	O	0.988376	1.047145	-0.044174
	H334	H	0.985665	1.047830	-0.034432
	H335	H	0.982509	1.057998	-0.041832
	O336	O	0.490230	0.552561	0.482420
	H337	H	0.482982	0.547295	0.483185
	H338	H	0.488556	0.554262	0.477856
	O339	O	0.481491	0.551615	0.491592
	H340	H	0.479401	0.552998	0.493271
	H341	H	0.473095	0.546089	0.497753
	O342	O	-0.100260	0.956798	-0.017846
	H343	H	-0.093048	0.955988	-0.007523
	H344	H	-0.108697	0.952936	-0.017659
	O345	O	0.048884	-0.095851	-0.100085
	H346	H	0.043691	-0.099114	-0.106639
	H347	H	0.037740	-0.098870	-0.092490
	O348	O	0.609702	0.499436	0.427642
	H349	H	0.618768	0.514312	0.424607
	H350	H	0.612797	0.501926	0.428284
	O351	O	0.493850	0.534972	0.537052
	H352	H	0.501724	0.526780	0.541608
	H353	H	0.492266	0.538966	0.529157
	O354	O	0.455061	0.532150	0.466164
	H355	H	0.449201	0.530657	0.466266
	H356	H	0.449161	0.531912	0.465256
	O357	O	0.513330	0.420052	0.415719
	H358	H	0.511913	0.422457	0.413810
	H359	H	0.512138	0.412710	0.406390
	O360	O	0.071026	-0.026529	-0.005767
	H361	H	0.076921	-0.020048	-0.001290
	H362	H	0.070728	-0.023501	-0.003490
	O363	O	0.527347	0.456451	0.488081
	H364	H	0.531954	0.473498	0.490657
	H365	H	0.518702	0.449409	0.495066
	O366	O	0.068371	0.009999	1.012799
	H367	H	0.068536	0.007320	1.008555
	H368	H	0.061805	-0.002503	1.009646
	O369	O	0.579029	0.539738	0.469629
	H370	H	0.585385	0.540281	0.470006
	H371	H	0.575319	0.551570	0.475568
