data_Molecule from HDF5

_cell_length_a		16.322625
_cell_length_b		16.223080
_cell_length_c		16.223919
_cell_angle_alpha	90.055851
_cell_angle_beta	89.947236
_cell_angle_gamma	89.828846
_symmetry_space_group_name_H-M	'P 1'
_symmetry_Int_Tables_number		1

loop_
	_symmetry_equiv_pos_as_xyz
	x,y,z

loop_
	_atom_site_label
	_atom_site_type_symbol
	_atom_site_fract_x
	_atom_site_fract_y
	_atom_site_fract_z
	H0	H	0.404117	0.824599	0.725223
	H1	H	0.601741	0.152024	0.725818
	H2	H	0.608627	0.827690	0.288823
	H3	H	0.404474	0.152653	0.297712
	H4	H	0.715689	0.382117	0.844071
	H5	H	0.718320	0.591584	0.168528
	H6	H	0.282237	0.588736	0.844000
	H7	H	0.280333	0.387492	0.170713
	H8	H	0.841695	0.706841	0.404438
	H9	H	0.163580	0.700801	0.610665
	H10	H	0.839332	0.269928	0.605561
	H11	H	0.165035	0.270336	0.405585
	H12	H	0.838552	0.382815	0.722282
	H13	H	0.161767	0.585609	0.724918
	H14	H	0.837697	0.585955	0.293022
	H15	H	0.161333	0.381881	0.286182
	H16	H	0.393885	0.708009	0.846198
	H17	H	0.598055	0.703136	0.171743
	H18	H	0.594755	0.272140	0.844215
	H19	H	0.397465	0.275058	0.173220
	H20	H	0.720407	0.825181	0.408359
	H21	H	0.719790	0.150878	0.612340
	H22	H	0.285720	0.825523	0.614116
	H23	H	0.285665	0.150133	0.408688
	H24	H	0.896548	0.323010	0.223254
	H25	H	0.098135	0.648842	0.223176
	H26	H	0.097452	0.321807	0.794525
	H27	H	0.898720	0.650259	0.788822
	H28	H	0.221574	0.885786	0.345139
	H29	H	0.216432	0.086066	0.672875
	H30	H	0.785463	0.088932	0.347170
	H31	H	0.786645	0.884083	0.672613
	H32	H	0.334296	0.200630	0.912063
	H33	H	0.660662	0.208090	0.109458
	H34	H	0.336541	0.775221	0.112048
	H35	H	0.659081	0.766830	0.905361
	H36	H	0.340134	0.890700	0.228712
	H37	H	0.663978	0.091852	0.223582
	H38	H	0.338422	0.089885	0.791150
	H39	H	0.662805	0.886144	0.794457
	H40	H	0.904119	0.198843	0.343953
	H41	H	0.102701	0.203207	0.671352
	H42	H	0.105529	0.770160	0.344340
	H43	H	0.904435	0.769932	0.671839
	H44	H	0.215684	0.324232	0.906480
	H45	H	0.211425	0.650269	0.106778
	H46	H	0.781420	0.323960	0.106356
	H47	H	0.780761	0.650242	0.902620
	H48	H	0.413680	0.104793	0.604304
	H49	H	0.601352	0.870879	0.599805
	H50	H	0.599616	0.106723	0.415922
	H51	H	0.418868	0.874856	0.425021
	H52	H	0.585006	0.401187	0.120102
	H53	H	0.591056	0.574285	0.891046
	H54	H	0.407737	0.584478	0.125136
	H55	H	0.408570	0.399566	0.893592
	H56	H	0.116687	0.572739	0.411932
	H57	H	0.884864	0.574585	0.600551
	H58	H	0.115830	0.397138	0.598383
	H59	H	0.885604	0.392827	0.414551
	H60	H	0.117829	0.394180	0.602392
	H61	H	0.884820	0.583271	0.595781
	H62	H	0.117925	0.579074	0.412662
	H63	H	0.885646	0.391744	0.416236
	H64	H	0.399286	0.582030	0.127004
	H65	H	0.583449	0.576611	0.893905
	H66	H	0.590240	0.394007	0.125650
	H67	H	0.408538	0.390032	0.890012
	H68	H	0.592076	0.103755	0.415853
	H69	H	0.595366	0.870343	0.607902
	H70	H	0.411150	0.102801	0.595741
	H71	H	0.406388	0.869867	0.420649
	H72	H	0.915642	0.603733	0.109690
	H73	H	0.089586	0.369262	0.099318
	H74	H	0.086503	0.604392	0.907195
	H75	H	0.896844	0.369532	0.917879
	H76	H	0.101064	0.890881	0.627871
	H77	H	0.088543	0.079738	0.393454
	H78	H	0.921551	0.075389	0.621878
	H79	H	0.907052	0.896650	0.391664
	H80	H	0.614132	0.076683	0.919530
	H81	H	0.382540	0.087870	0.102845
	H82	H	0.613005	0.894397	0.090452
	H83	H	0.384463	0.903934	0.914606
	H84	H	0.614316	0.904524	0.101624
	H85	H	0.385882	0.076783	0.102554
	H86	H	0.616407	0.082773	0.914706
	H87	H	0.382198	0.894937	0.915973
	H88	H	0.909969	0.088254	0.629421
	H89	H	0.102349	0.083806	0.387551
	H90	H	0.095622	0.900825	0.622082
	H91	H	0.913857	0.901952	0.395973
	H92	H	0.087213	0.600816	0.920230
	H93	H	0.088734	0.370416	0.094336
	H94	H	0.912177	0.596869	0.086702
	H95	H	0.908737	0.368540	0.905101
	H96	H	0.405728	0.107117	0.602214
	H97	H	0.592153	0.873718	0.598982
	H98	H	0.596734	0.104120	0.423056
	H99	H	0.417034	0.870284	0.411909
	H100	H	0.594325	0.402349	0.123553
	H101	H	0.588411	0.582201	0.890792
	H102	H	0.404496	0.576311	0.123151
	H103	H	0.400364	0.395629	0.890352
	H104	H	0.116689	0.575897	0.417241
	H105	H	0.888692	0.574937	0.590960
	H106	H	0.116762	0.392385	0.598008
	H107	H	0.885894	0.394381	0.416205
	H108	H	0.894216	0.607278	0.099062
	H109	H	0.093099	0.369160	0.096055
	H110	H	0.098021	0.606108	0.914151
	H111	H	0.913356	0.374414	0.921059
	H112	H	0.089562	0.890310	0.623698
	H113	H	0.100016	0.069697	0.392819
	H114	H	0.903872	0.071420	0.625438
	H115	H	0.915699	0.893163	0.393574
	H116	H	0.614671	0.083876	0.921968
	H117	H	0.382096	0.081223	0.111350
	H118	H	0.619809	0.890236	0.103865
	H119	H	0.386488	0.900121	0.922959
	C120	C	0.381133	-0.003174	0.631239
	C121	C	0.625214	0.979564	0.632392
	C122	C	0.626248	-0.002761	0.387493
	C123	C	0.383505	0.979658	0.389880
	C124	C	0.619045	0.367297	0.015603
	C125	C	0.618960	0.608810	0.999064
	C126	C	0.375216	0.610153	0.016650
	C127	C	0.376337	0.366775	0.999862
	C128	C	0.010126	0.607247	0.384936
	C129	C	0.992684	0.606581	0.627419
	C130	C	0.009633	0.364253	0.628508
	C131	C	0.992821	0.363445	0.384636
	C132	C	0.876782	0.494868	0.127999
	C133	C	0.119243	0.477410	0.127228
	C134	C	0.120177	0.495742	0.884987
	C135	C	0.876336	0.478624	0.883717
	C136	C	0.125923	0.864156	0.516688
	C137	C	0.124998	0.107972	0.499562
	C138	C	0.882158	0.107923	0.517820
	C139	C	0.882113	0.865949	0.500993
	C140	C	0.507620	0.110178	0.888603
	C141	C	0.491334	0.112125	0.132802
	C142	C	0.509109	0.867689	0.130750
	C143	C	0.490974	0.867244	0.887281
	C144	C	0.383014	0.873846	0.688129
	C145	C	0.622401	0.102746	0.688232
	C146	C	0.626964	0.875689	0.328614
	C147	C	0.384595	0.103199	0.334830
	C148	C	0.676479	0.364861	0.893015
	C149	C	0.678021	0.609595	0.120682
	C150	C	0.319670	0.608902	0.893411
	C151	C	0.319480	0.368533	0.122517
	C152	C	0.889124	0.666653	0.385408
	C153	C	0.114997	0.662489	0.628887
	C154	C	0.887700	0.307756	0.626155
	C155	C	0.115568	0.307836	0.385371
	C156	C	0.887423	0.364039	0.684224
	C157	C	0.113956	0.605527	0.686044
	C158	C	0.887070	0.606424	0.330142
	C159	C	0.113829	0.363348	0.325864
	C160	C	0.375387	0.668213	0.894551
	C161	C	0.618242	0.665400	0.122130
	C162	C	0.616361	0.309723	0.893052
	C163	C	0.377323	0.312061	0.123624
	C164	C	0.682724	0.874398	0.388146
	C165	C	0.681106	0.102417	0.631715
	C166	C	0.324347	0.874272	0.632322
	C167	C	0.325229	0.101761	0.389855
	C168	C	0.877131	0.372238	0.184717
	C169	C	0.117830	0.600288	0.184620
	C170	C	0.117913	0.371450	0.831104
	C171	C	0.878168	0.601095	0.826529
	C172	C	0.182980	0.865859	0.394036
	C173	C	0.179320	0.106537	0.623495
	C174	C	0.824637	0.107555	0.395309
	C175	C	0.825426	0.865462	0.623637
	C176	C	0.384281	0.164410	0.890750
	C177	C	0.612886	0.169366	0.129879
	C178	C	0.386116	0.812804	0.131338
	C179	C	0.611532	0.806958	0.886608
	C180	C	0.387790	0.870153	0.189485
	C181	C	0.614513	0.111188	0.186597
	C182	C	0.386119	0.109154	0.830806
	C183	C	0.613441	0.866705	0.831687
	C184	C	0.883547	0.162628	0.393883
	C185	C	0.122657	0.164826	0.622576
	C186	C	0.124874	0.808576	0.393425
	C187	C	0.883935	0.808486	0.623137
	C188	C	0.177228	0.372790	0.886541
	C189	C	0.174158	0.601077	0.126583
	C190	C	0.819883	0.372569	0.126401
	C191	C	0.819632	0.601373	0.883523
	C192	C	0.403643	0.082616	0.607687
	C193	C	0.602822	0.893927	0.609312
	C194	C	0.602965	0.082749	0.411428
	C195	C	0.407160	0.894056	0.412556
	C196	C	0.596380	0.392025	0.101069
	C197	C	0.594727	0.584768	0.914043
	C198	C	0.397406	0.587469	0.102657
	C199	C	0.399311	0.388585	0.913885
	C200	C	0.095050	0.582959	0.407396
	C201	C	0.908082	0.584075	0.602865
	C202	C	0.094983	0.387832	0.606193
	C203	C	0.907711	0.386393	0.408704
	C204	C	0.900268	0.580620	0.105064
	C205	C	0.096986	0.391945	0.103570
	C206	C	0.097311	0.581540	0.907278
	C207	C	0.899522	0.392975	0.907538
	C208	C	0.102250	0.887225	0.602432
	C209	C	0.103365	0.084633	0.413705
	C210	C	0.904947	0.085032	0.603257
	C211	C	0.905342	0.890146	0.415590
	C212	C	0.592802	0.087681	0.911924
	C213	C	0.405800	0.088899	0.111747
	C214	C	0.593604	0.889765	0.105817
	C215	C	0.406399	0.892301	0.910955
	Zn216	Zn	0.501185	-0.011464	0.759194
	Zn217	Zn	0.503189	-0.010677	0.260282
	Zn218	Zn	0.748281	0.487242	0.005760
	Zn219	Zn	0.247776	0.487469	0.007108
	Zn220	Zn	0.003476	0.736030	0.507499
	Zn221	Zn	0.002447	0.235546	0.507453
	Zn222	Zn	-0.000347	0.485869	0.756142
	Zn223	Zn	-0.000552	0.485287	0.256219
	Zn224	Zn	0.497353	0.738300	0.008436
	Zn225	Zn	0.497490	0.239287	0.009839
	Zn226	Zn	0.753509	-0.012034	0.510741
	Zn227	Zn	0.253796	-0.013134	0.509417
	N228	N	0.417773	0.951003	0.687330
	N229	N	0.588464	0.025227	0.689028
	N230	N	0.592796	0.953299	0.327892
	N231	N	0.420242	0.026061	0.334538
	N232	N	0.678302	0.399775	0.970360
	N233	N	0.678785	0.575398	0.042960
	N234	N	0.319284	0.573762	0.970613
	N235	N	0.318787	0.401834	0.044608
	N236	N	0.966605	0.667387	0.418673
	N237	N	0.038702	0.663308	0.593093
	N238	N	0.964799	0.307763	0.592073
	N239	N	0.039137	0.307636	0.421263
	N240	N	0.964241	0.398689	0.685751
	N241	N	0.036832	0.571541	0.685399
	N242	N	0.963336	0.570320	0.329719
	N243	N	0.036484	0.396939	0.325076
	N244	N	0.409339	0.669095	0.972080
	N245	N	0.582186	0.665175	0.045473
	N246	N	0.581539	0.311157	0.970264
	N247	N	0.411760	0.310556	0.046260
	N248	N	0.682423	0.951084	0.423772
	N249	N	0.683134	0.024763	0.598019
	N250	N	0.323049	0.951718	0.597665
	N251	N	0.324474	0.024081	0.423402
	N252	N	0.911832	0.449492	0.185796
	N253	N	0.084630	0.522399	0.185289
	N254	N	0.083275	0.448934	0.829791
	N255	N	0.912523	0.523488	0.826415
	N256	N	0.184006	0.899484	0.471935
	N257	N	0.181008	0.071918	0.546062
	N258	N	0.823643	0.074165	0.473252
	N259	N	0.824123	0.900478	0.546452
	N260	N	0.460855	0.165090	0.926162
	N261	N	0.535268	0.170135	0.097406
	N262	N	0.462499	0.810724	0.095633
	N263	N	0.534360	0.807333	0.920510
	N264	N	0.465277	0.903334	0.189352
	N265	N	0.537909	0.076250	0.188545
	N266	N	0.463867	0.076150	0.829194
	N267	N	0.537377	0.903315	0.831873
	N268	N	0.918715	0.162854	0.470842
	N269	N	0.089944	0.165965	0.544371
	N270	N	0.090413	0.807311	0.470853
	N271	N	0.918418	0.808629	0.545809
	N272	N	0.178791	0.450920	0.919341
	N273	N	0.175456	0.523749	0.091780
	N274	N	0.819654	0.450025	0.092121
	N275	N	0.818341	0.524039	0.918071
	O276	O	0.014253	-0.024932	-0.048369
	H277	H	0.006207	-0.033319	-0.044714
	H278	H	0.009060	-0.019905	-0.053691
	O279	O	0.628764	0.630789	0.538583
	H280	H	0.631272	0.622260	0.543789
	H281	H	0.632660	0.638024	0.540808
	O282	O	0.952326	0.052178	-0.066163
	H283	H	0.958716	0.045978	-0.062688
	H284	H	0.944650	0.036925	-0.069935
	O285	O	-0.123514	0.876868	0.009862
	H286	H	-0.128741	0.878300	0.008102
	H287	H	-0.123758	0.883285	0.030979
	O288	O	0.466522	0.552075	0.487974
	H289	H	0.462749	0.543160	0.480722
	H290	H	0.462975	0.556625	0.490206
	O291	O	0.399463	0.460142	0.657465
	H292	H	0.403626	0.467242	0.670393
	H293	H	0.408577	0.470944	0.660142
	O294	O	0.987190	0.866421	1.045461
	H295	H	0.984436	0.859754	1.055041
	H296	H	0.976337	0.871689	1.044838
	O297	O	-0.043120	0.130754	0.053961
	H298	H	-0.034552	0.127122	0.032807
	H299	H	-0.043250	0.136877	0.065874
	O300	O	0.567308	0.491611	0.539445
	H301	H	0.553660	0.496150	0.538198
	H302	H	0.581297	0.492412	0.545679
	O303	O	-0.068193	1.049962	0.853128
	H304	H	-0.072167	1.053885	0.850697
	H305	H	-0.074258	1.047851	0.867734
	O306	O	0.657019	0.503932	0.636428
	H307	H	0.637844	0.490658	0.634506
	H308	H	0.659580	0.502114	0.612316
	O309	O	0.977510	-0.090850	0.158524
	H310	H	0.964465	-0.080615	0.165258
	H311	H	0.966984	-0.095457	0.158987
	O312	O	0.090682	0.122487	1.049293
	H313	H	0.105989	0.132785	1.044627
	H314	H	0.093864	0.114694	1.055795
	O315	O	0.035542	0.837450	-0.005328
	H316	H	0.016204	0.823671	0.007368
	H317	H	0.022757	0.837590	-0.001112
	O318	O	0.513334	0.339982	0.538943
	H319	H	0.512221	0.341041	0.541897
	H320	H	0.513276	0.341961	0.537338
	O321	O	0.968472	-0.095583	0.089594
	H322	H	0.953473	-0.098618	0.088817
	H323	H	0.972189	-0.083270	0.080624
	O324	O	0.444467	0.485868	0.625793
	H325	H	0.449910	0.497073	0.614746
	H326	H	0.425856	0.489619	0.633139
	O327	O	-0.490415	1.365858	0.374178
	H328	H	-0.482077	1.346805	0.374261
	H329	H	-0.483581	1.372310	0.379914
	O330	O	0.572446	0.385672	0.497515
	H331	H	0.559731	0.380769	0.506053
	H332	H	0.575600	0.387690	0.499238
	O333	O	0.037964	0.948446	1.025403
	H334	H	0.041593	0.956391	1.008450
	H335	H	0.048738	0.940211	1.023809
	O336	O	0.944290	1.020215	1.062669
	H337	H	0.941086	1.011300	1.071504
	H338	H	0.950139	1.026832	1.066996
	O339	O	0.977120	1.143795	-0.040404
	H340	H	0.986747	1.151190	-0.041842
	H341	H	0.970214	1.130494	-0.029431
	O342	O	1.068582	-0.159360	0.094535
	H343	H	1.080295	-0.159594	0.074392
	H344	H	1.065738	-0.159829	0.084418
	O345	O	0.514766	0.528784	0.400864
	H346	H	0.519802	0.543704	0.385621
	H347	H	0.520687	0.526287	0.414827
	O348	O	1.707568	1.558159	0.680257
	H349	H	1.722091	1.565318	0.690242
	H350	H	1.715471	1.573366	0.688597
	O351	O	1.110906	0.971043	-0.072741
	H352	H	1.110531	0.985170	-0.077952
	H353	H	1.098619	0.964112	-0.076728
	O354	O	0.428000	0.541966	0.559688
	H355	H	0.428741	0.546292	0.561482
	H356	H	0.416550	0.539559	0.555109
	O357	O	0.548654	0.419056	0.520220
	H358	H	0.538822	0.423561	0.523136
	H359	H	0.556172	0.413243	0.527886
	O360	O	-0.166053	0.040997	0.135585
	H361	H	-0.150244	0.029167	0.141923
	H362	H	-0.169696	0.034699	0.142110
	O363	O	0.505748	0.542456	0.608095
	H364	H	0.489603	0.535910	0.598702
	H365	H	0.489145	0.545732	0.615342
	O366	O	0.362833	0.420754	0.514814
	H367	H	0.353336	0.428623	0.519428
	H368	H	0.356516	0.402582	0.523440
	O369	O	0.317691	0.493341	0.535463
	H370	H	0.312619	0.488223	0.531424
	H371	H	0.321905	0.505771	0.536132
	O372	O	0.450065	0.653594	0.434849
	H373	H	0.456197	0.633561	0.429020
	H374	H	0.458463	0.662437	0.420678
	O375	O	0.317808	0.527025	0.365783
	H376	H	0.329654	0.524731	0.367256
	H377	H	0.315682	0.510827	0.359888
	O378	O	0.670339	0.514499	0.366296
	H379	H	0.663976	0.525318	0.364812
	H380	H	0.677260	0.504750	0.370199
	O381	O	0.494021	0.628829	0.363035
	H382	H	0.485969	0.621815	0.372645
	H383	H	0.504768	0.623330	0.362242
	O384	O	-0.170693	1.011876	-0.089541
	H385	H	-0.166301	1.025377	-0.078651
	H386	H	-0.177238	1.011157	-0.094727
	O387	O	0.478972	0.362332	1.488305
	H388	H	0.479678	0.367505	1.486577
	H389	H	0.472382	0.353935	1.488538
	O390	O	0.012350	1.020816	-0.076704
	H391	H	0.006512	1.016684	-0.071734
	H392	H	-0.006899	1.029520	-0.083938
	O393	O	1.129436	0.913670	-0.105807
	H394	H	1.124096	0.902560	-0.107568
	H395	H	1.127107	0.909302	-0.117935
	O396	O	0.629379	0.385852	0.467396
	H397	H	0.638736	0.393013	0.473567
	H398	H	0.642113	0.376450	0.462765
	O399	O	-0.166877	0.848713	1.131223
	H400	H	-0.150104	0.859114	1.128468
	H401	H	-0.156162	0.834863	1.131312
	O402	O	1.092369	1.073600	1.031787
	H403	H	1.093372	1.064088	1.028315
	H404	H	1.090488	1.069826	1.034694
	O405	O	0.311607	0.633663	0.417779
	H406	H	0.299847	0.638060	0.401411
	H407	H	0.302451	0.632971	0.405858
