data_Molecule from HDF5

_cell_length_a		16.317655
_cell_length_b		16.165056
_cell_length_c		16.390516
_cell_angle_alpha	90.140148
_cell_angle_beta	89.816265
_cell_angle_gamma	89.952683
_symmetry_space_group_name_H-M	'P 1'
_symmetry_Int_Tables_number		1

loop_
	_symmetry_equiv_pos_as_xyz
	x,y,z

loop_
	_atom_site_label
	_atom_site_type_symbol
	_atom_site_fract_x
	_atom_site_fract_y
	_atom_site_fract_z
	H0	H	0.392028	0.819986	0.706083
	H1	H	0.594634	0.146563	0.708119
	H2	H	0.602808	0.823008	0.269415
	H3	H	0.391268	0.145039	0.270896
	H4	H	0.714897	0.378495	0.829372
	H5	H	0.714803	0.586213	0.150162
	H6	H	0.277480	0.585956	0.829410
	H7	H	0.274273	0.377637	0.149648
	H8	H	0.832575	0.702691	0.388205
	H9	H	0.156489	0.701203	0.589518
	H10	H	0.833276	0.268331	0.591144
	H11	H	0.156397	0.265927	0.385878
	H12	H	0.834752	0.380919	0.708838
	H13	H	0.154901	0.590390	0.709591
	H14	H	0.835134	0.590954	0.267796
	H15	H	0.155678	0.378923	0.268561
	H16	H	0.395751	0.699130	0.827590
	H17	H	0.599527	0.703109	0.149759
	H18	H	0.596264	0.264753	0.828538
	H19	H	0.393484	0.265676	0.151880
	H20	H	0.716232	0.822831	0.386245
	H21	H	0.711433	0.147055	0.593745
	H22	H	0.275759	0.821589	0.592601
	H23	H	0.277630	0.147025	0.387703
	H24	H	0.891974	0.321009	0.207679
	H25	H	0.097064	0.646190	0.206198
	H26	H	0.098616	0.320489	0.769881
	H27	H	0.893885	0.646818	0.775074
	H28	H	0.213269	0.880934	0.329813
	H29	H	0.212350	0.088400	0.650664
	H30	H	0.774183	0.090468	0.330760
	H31	H	0.777112	0.884174	0.652370
	H32	H	0.331738	0.197200	0.893187
	H33	H	0.657830	0.198048	0.089489
	H34	H	0.333442	0.766477	0.090069
	H35	H	0.658343	0.768021	0.888822
	H36	H	0.336413	0.877710	0.211636
	H37	H	0.655694	0.089031	0.210129
	H38	H	0.332532	0.083685	0.774370
	H39	H	0.656242	0.879650	0.770791
	H40	H	0.893211	0.202519	0.328686
	H41	H	0.093383	0.200952	0.651928
	H42	H	0.096108	0.765667	0.329776
	H43	H	0.892839	0.768150	0.651998
	H44	H	0.212043	0.318488	0.888627
	H45	H	0.212687	0.645112	0.090819
	H46	H	0.780720	0.318940	0.089010
	H47	H	0.778488	0.645328	0.890023
	H48	H	0.400568	0.101998	0.583310
	H49	H	0.584339	0.868053	0.580441
	H50	H	0.581373	0.099767	0.396976
	H51	H	0.397236	0.867459	0.407157
	H52	H	0.594637	0.389348	0.108234
	H53	H	0.589035	0.569661	0.876018
	H54	H	0.397954	0.575488	0.106869
	H55	H	0.410669	0.388701	0.876756
	H56	H	0.111672	0.574315	0.391169
	H57	H	0.879867	0.571251	0.582908
	H58	H	0.110531	0.393916	0.579692
	H59	H	0.882791	0.397216	0.405587
	H60	H	0.110166	0.395495	0.578296
	H61	H	0.877497	0.576298	0.586932
	H62	H	0.108387	0.579734	0.404301
	H63	H	0.881095	0.400165	0.393885
	H64	H	0.405630	0.566228	0.101581
	H65	H	0.584234	0.573044	0.875670
	H66	H	0.585558	0.397900	0.101851
	H67	H	0.400952	0.386068	0.873274
	H68	H	0.580306	0.097238	0.404971
	H69	H	0.585638	0.868264	0.578918
	H70	H	0.405882	0.099913	0.585598
	H71	H	0.404824	0.864293	0.391571
	H72	H	0.903916	0.600210	0.080776
	H73	H	0.079976	0.367892	0.080531
	H74	H	0.088597	0.599558	0.898908
	H75	H	0.900305	0.363341	0.895023
	H76	H	0.085368	0.894017	0.605180
	H77	H	0.088911	0.074573	0.374300
	H78	H	0.898282	0.077288	0.606505
	H79	H	0.895410	0.899661	0.375817
	H80	H	0.610224	0.076261	0.900070
	H81	H	0.382150	0.066438	0.084946
	H82	H	0.610161	0.892953	0.078907
	H83	H	0.379943	0.889935	0.900858
	H84	H	0.610031	0.895543	0.080378
	H85	H	0.377049	0.077061	0.085741
	H86	H	0.609232	0.068439	0.897209
	H87	H	0.380564	0.893882	0.896148
	H88	H	0.904024	0.073024	0.603429
	H89	H	0.086245	0.072864	0.376079
	H90	H	0.086296	0.894115	0.606212
	H91	H	0.913049	0.900464	0.380616
	H92	H	0.086887	0.598670	0.898318
	H93	H	0.085841	0.368160	0.075109
	H94	H	0.905626	0.599789	0.080491
	H95	H	0.911359	0.366843	0.893876
	H96	H	0.404179	0.098482	0.580195
	H97	H	0.587178	0.867445	0.580755
	H98	H	0.587297	0.100614	0.402231
	H99	H	0.414116	0.872711	0.404807
	H100	H	0.582542	0.384976	0.105273
	H101	H	0.589298	0.575843	0.873792
	H102	H	0.409997	0.578664	0.103105
	H103	H	0.402458	0.395896	0.876908
	H104	H	0.105218	0.565612	0.400950
	H105	H	0.878902	0.577862	0.579863
	H106	H	0.110174	0.395711	0.580468
	H107	H	0.877687	0.388769	0.397097
	H108	H	0.904569	0.598943	0.078799
	H109	H	0.087345	0.364220	0.082481
	H110	H	0.086963	0.598739	0.900308
	H111	H	0.906427	0.368175	0.903911
	H112	H	0.085811	0.895388	0.604872
	H113	H	0.085884	0.076284	0.374695
	H114	H	0.905303	0.080565	0.604858
	H115	H	0.905546	0.885457	0.373170
	H116	H	0.612249	0.074586	0.892585
	H117	H	0.382255	0.074135	0.075954
	H118	H	0.611719	0.893336	0.081140
	H119	H	0.377831	0.888535	0.895433
	C120	C	0.373099	-0.007646	0.612190
	C121	C	0.615733	0.975521	0.611170
	C122	C	0.616552	-0.007202	0.369206
	C123	C	0.374309	0.975308	0.369675
	C124	C	0.617942	0.359960	-0.001441
	C125	C	0.618118	0.604291	0.981138
	C126	C	0.374656	0.604078	-0.002288
	C127	C	0.374017	0.360206	0.981959
	C128	C	0.002485	0.605523	0.367839
	C129	C	0.985718	0.606281	0.612439
	C130	C	0.003685	0.364164	0.610592
	C131	C	0.986606	0.362965	0.367450
	C132	C	0.874174	0.491827	0.110671
	C133	C	0.115749	0.474197	0.110179
	C134	C	0.118233	0.491617	0.867726
	C135	C	0.874721	0.474025	0.868271
	C136	C	0.116352	0.863183	0.499091
	C137	C	0.116900	0.106327	0.481374
	C138	C	0.872339	0.107626	0.498703
	C139	C	0.873212	0.863951	0.482480
	C140	C	0.503196	0.103731	0.868120
	C141	C	0.487070	0.103783	0.112101
	C142	C	0.504826	0.861658	0.111216
	C143	C	0.486562	0.860744	0.867391
	C144	C	0.372525	0.869221	0.668449
	C145	C	0.614465	0.097832	0.669492
	C146	C	0.620004	0.871361	0.309392
	C147	C	0.373022	0.096879	0.310605
	C148	C	0.675514	0.359607	0.877437
	C149	C	0.675898	0.605168	0.101963
	C150	C	0.316782	0.604502	0.877150
	C151	C	0.314567	0.359297	0.102186
	C152	C	0.881466	0.664387	0.368167
	C153	C	0.107654	0.663469	0.610557
	C154	C	0.882067	0.306305	0.610829
	C155	C	0.107773	0.304106	0.366501
	C156	C	0.882794	0.362281	0.669600
	C157	C	0.107018	0.608192	0.669999
	C158	C	0.882604	0.608395	0.308273
	C159	C	0.107609	0.360910	0.308340
	C160	C	0.375364	0.661220	0.876416
	C161	C	0.618551	0.663682	0.101639
	C162	C	0.616743	0.302893	0.877161
	C163	C	0.373872	0.303605	0.103306
	C164	C	0.676442	0.871355	0.367738
	C165	C	0.672581	0.098399	0.612502
	C166	C	0.314221	0.870265	0.612268
	C167	C	0.316527	0.097817	0.369036
	C168	C	0.873480	0.369723	0.168662
	C169	C	0.116260	0.597176	0.167563
	C170	C	0.117858	0.368882	0.809250
	C171	C	0.874776	0.597422	0.813019
	C172	C	0.174088	0.862073	0.377873
	C173	C	0.173861	0.107379	0.602396
	C174	C	0.813987	0.108381	0.378218
	C175	C	0.815291	0.864172	0.603819
	C176	C	0.380773	0.159748	0.871681
	C177	C	0.609003	0.160329	0.110035
	C178	C	0.382565	0.804390	0.110465
	C179	C	0.609265	0.805129	0.868473
	C180	C	0.383755	0.859975	0.170601
	C181	C	0.608142	0.105986	0.170066
	C182	C	0.381045	0.103242	0.812735
	C183	C	0.608121	0.860768	0.809706
	C184	C	0.873189	0.164431	0.377308
	C185	C	0.114644	0.163434	0.603061
	C186	C	0.115816	0.804817	0.377984
	C187	C	0.873232	0.806736	0.603824
	C188	C	0.174418	0.367851	0.868136
	C189	C	0.173757	0.596615	0.110291
	C190	C	0.818272	0.368331	0.109534
	C191	C	0.816786	0.596648	0.869732
	C192	C	0.396710	0.077949	0.589523
	C193	C	0.592441	0.889895	0.586778
	C194	C	0.590419	0.077224	0.394303
	C195	C	0.398534	0.890371	0.394167
	C196	C	0.594486	0.383986	0.083105
	C197	C	0.594362	0.579773	0.896984
	C198	C	0.397859	0.580410	0.081924
	C199	C	0.397815	0.383600	0.897577
	C200	C	0.086799	0.580466	0.391897
	C201	C	0.900879	0.582153	0.589947
	C202	C	0.088178	0.388105	0.586349
	C203	C	0.902433	0.388101	0.391990
	C204	C	0.897588	0.577492	0.087055
	C205	C	0.091461	0.388928	0.086285
	C206	C	0.094476	0.576723	0.891995
	C207	C	0.898898	0.388409	0.890951
	C208	C	0.092763	0.887386	0.583466
	C209	C	0.093836	0.081834	0.396821
	C210	C	0.895760	0.083823	0.583187
	C211	C	0.897509	0.888286	0.398423
	C212	C	0.588628	0.080056	0.890166
	C213	C	0.402665	0.079642	0.089007
	C214	C	0.588712	0.886504	0.087274
	C215	C	0.401491	0.883983	0.890570
	Zn216	Zn	0.494542	-0.018166	0.739488
	Zn217	Zn	0.496190	-0.016178	0.241062
	Zn218	Zn	0.747045	0.481798	-0.010103
	Zn219	Zn	0.245474	0.482039	-0.009984
	Zn220	Zn	-0.005926	0.734147	0.490618
	Zn221	Zn	-0.004946	0.234962	0.489424
	Zn222	Zn	-0.004440	0.483986	0.740263
	Zn223	Zn	-0.004912	0.483936	0.238618
	Zn224	Zn	0.496056	0.733188	-0.011185
	Zn225	Zn	0.495648	0.231898	-0.009250
	Zn226	Zn	0.744612	-0.014556	0.490666
	Zn227	Zn	0.245735	-0.015494	0.490635
	N228	N	0.408323	0.946101	0.668648
	N229	N	0.579924	0.020222	0.668650
	N230	N	0.583229	0.947880	0.310489
	N231	N	0.408276	0.019527	0.310813
	N232	N	0.676611	0.394283	0.954138
	N233	N	0.675849	0.568916	0.026008
	N234	N	0.316117	0.569514	0.953607
	N235	N	0.314682	0.394080	0.025732
	N236	N	0.957119	0.662411	0.404804
	N237	N	0.031372	0.662484	0.575586
	N238	N	0.958317	0.307295	0.574792
	N239	N	0.031377	0.305177	0.402405
	N240	N	0.959405	0.397666	0.669466
	N241	N	0.030207	0.573266	0.671377
	N242	N	0.958793	0.572341	0.308185
	N243	N	0.031193	0.396665	0.308702
	N244	N	0.410525	0.661162	0.952327
	N245	N	0.583362	0.663177	0.025561
	N246	N	0.581583	0.303180	0.953397
	N247	N	0.410181	0.304031	0.027512
	N248	N	0.674543	0.947875	0.404206
	N249	N	0.673414	0.021416	0.576787
	N250	N	0.314551	0.947842	0.577878
	N251	N	0.317161	0.021203	0.405134
	N252	N	0.907553	0.447670	0.169445
	N253	N	0.081193	0.519939	0.167890
	N254	N	0.083861	0.446788	0.808667
	N255	N	0.910043	0.520080	0.811924
	N256	N	0.174566	0.897705	0.454171
	N257	N	0.175585	0.072841	0.525621
	N258	N	0.813230	0.074119	0.454848
	N259	N	0.815251	0.898972	0.527285
	N260	N	0.457925	0.160275	0.905163
	N261	N	0.532777	0.159241	0.074906
	N262	N	0.458720	0.805321	0.074350
	N263	N	0.532759	0.805032	0.903724
	N264	N	0.460559	0.894708	0.171584
	N265	N	0.531292	0.071234	0.171415
	N266	N	0.458278	0.069165	0.810345
	N267	N	0.530809	0.894625	0.808837
	N268	N	0.908703	0.164000	0.453210
	N269	N	0.080341	0.163215	0.526496
	N270	N	0.080899	0.805175	0.454454
	N271	N	0.908338	0.806294	0.527388
	N272	N	0.174977	0.445124	0.903541
	N273	N	0.173515	0.519256	0.075299
	N274	N	0.818465	0.445466	0.074442
	N275	N	0.816823	0.518894	0.903536
	O276	O	0.407586	0.604331	0.663957
	H277	H	0.397497	0.587326	0.667430
	H278	H	0.418755	0.607365	0.651582
	O279	O	0.628302	0.678559	0.463798
	H280	H	0.617138	0.677105	0.465946
	H281	H	0.628914	0.687521	0.459196
	O282	O	1.042533	-0.083248	1.115037
	H283	H	1.046446	-0.081514	1.104545
	H284	H	1.036564	-0.092016	1.130211
	O285	O	0.593172	0.363163	0.537853
	H286	H	0.592351	0.363833	0.522131
	H287	H	0.597035	0.373982	0.544760
	O288	O	0.905453	0.861995	1.096892
	H289	H	0.897210	0.869225	1.079637
	H290	H	0.904885	0.864419	1.092508
	O291	O	0.006417	1.097992	0.076598
	H292	H	0.019299	1.080344	0.075857
	H293	H	-0.000185	1.093385	0.085205
	O294	O	0.679359	0.335796	0.564426
	H295	H	0.652487	0.342774	0.575923
	H296	H	0.699097	0.334737	0.576448
	O297	O	0.399221	0.327607	0.652805
	H298	H	0.409367	0.314948	0.642636
	H299	H	0.400379	0.335301	0.647191
	O300	O	0.609885	0.625575	0.427793
	H301	H	0.619188	0.616564	0.431303
	H302	H	0.607125	0.632733	0.415353
	O303	O	0.497121	0.597230	0.557494
	H304	H	0.497312	0.598306	0.549726
	H305	H	0.496936	0.599247	0.549152
	O306	O	0.580847	0.417554	0.487705
	H307	H	0.599380	0.419689	0.479369
	H308	H	0.581993	0.396326	0.492649
	O309	O	0.309859	0.613195	0.302009
	H310	H	0.288641	0.610083	0.294756
	H311	H	0.303577	0.604331	0.310721
	O312	O	0.028521	-0.057752	0.026714
	H313	H	0.022398	-0.053861	0.030570
	H314	H	0.022803	-0.056987	0.023646
	O315	O	0.518679	0.422748	0.555558
	H316	H	0.510269	0.424543	0.558240
	H317	H	0.534419	0.415136	0.543775
	O318	O	-0.072220	0.998933	0.843335
	H319	H	-0.065205	0.996275	0.834175
	H320	H	-0.067979	1.006527	0.845868
	O321	O	0.500384	0.408716	0.693867
	H322	H	0.484718	0.410601	0.693882
	H323	H	0.497064	0.424573	0.694503
	O324	O	-0.035884	0.950725	0.020883
	H325	H	-0.028989	0.948102	0.015080
	H326	H	-0.031435	0.957079	0.022163
	O327	O	0.523040	0.586906	0.611424
	H328	H	0.520428	0.592449	0.618579
	H329	H	0.526616	0.602784	0.598558
	O330	O	0.066197	-0.032939	0.814983
	H331	H	0.061097	-0.025549	0.809908
	H332	H	0.063560	-0.028653	0.811911
	O333	O	0.082536	0.010931	0.986140
	H334	H	0.077115	0.011339	0.997107
	H335	H	0.090433	-0.001813	0.989493
	O336	O	0.460504	0.487068	0.386792
	H337	H	0.470433	0.497868	0.383147
	H338	H	0.467831	0.489234	0.383167
	O339	O	0.661889	0.524040	0.524252
	H340	H	0.673856	0.527882	0.522458
	H341	H	0.668733	0.531713	0.518780
	O342	O	0.705326	-0.552060	0.331331
	H343	H	0.712205	-0.567255	0.331347
	H344	H	0.713989	-0.566128	0.310497
	O345	O	1.300467	0.426314	1.519970
	H346	H	1.300233	0.422025	1.509697
	H347	H	1.295764	0.421387	1.527076
	O348	O	1.076426	0.992275	0.075289
	H349	H	1.078842	0.995343	0.076573
	H350	H	1.059250	0.978601	0.062572
	O351	O	0.318943	0.638365	0.457525
	H352	H	0.323983	0.638724	0.450618
	H353	H	0.314963	0.640484	0.478511
	O354	O	1.064091	-0.005918	1.100975
	H355	H	1.059406	-0.004250	1.105913
	H356	H	1.071095	0.009373	1.105072
	O357	O	0.361169	0.354588	0.369987
	H358	H	0.363751	0.345977	0.375254
	H359	H	0.365405	0.359333	0.375989
	O360	O	0.989673	1.078059	1.056106
	H361	H	0.981511	1.068219	1.054615
	H362	H	0.998631	1.078381	1.056814
	O363	O	-0.024999	0.974257	1.060612
	H364	H	-0.016394	0.976635	1.069187
	H365	H	-0.031653	0.974079	1.051046
	O366	O	0.571823	0.339467	0.340465
	H367	H	0.570698	0.353411	0.350469
	H368	H	0.558324	0.340264	0.352004
	O369	O	-0.124488	1.055964	0.064824
	H370	H	-0.117165	1.039439	0.072584
	H371	H	-0.125893	1.042224	0.060103
	O372	O	0.637150	0.325813	0.351626
	H373	H	0.636865	0.322111	0.379732
	H374	H	0.614602	0.317033	0.353341
	O375	O	0.451890	0.671753	0.327660
	H376	H	0.446481	0.677056	0.324039
	H377	H	0.450156	0.674341	0.319866
	O378	O	1.072596	1.020919	0.140277
	H379	H	1.074513	1.017833	0.141701
	H380	H	1.087219	1.021052	0.149402
	O381	O	1.036297	-0.064768	-0.155598
	H382	H	1.040075	-0.069059	-0.156052
	H383	H	1.029482	-0.066343	-0.164620
	O384	O	0.860142	0.926762	-0.020513
	H385	H	0.859129	0.923735	-0.028387
	H386	H	0.872292	0.924598	-0.024404
	O387	O	-0.627058	0.369070	0.436106
	H388	H	-0.617173	0.373114	0.438280
	H389	H	-0.620034	0.370125	0.446075
	O390	O	-0.102965	1.051398	-0.137130
	H391	H	-0.109853	1.060704	-0.122483
	H392	H	-0.106774	1.058429	-0.141424
	O393	O	1.051134	0.937410	1.026217
	H394	H	1.052020	0.944892	1.018270
	H395	H	1.055225	0.944908	1.030024
	O396	O	0.307616	0.457934	0.693609
	H397	H	0.319635	0.437261	0.698043
	H398	H	0.292505	0.448663	0.704961
	O399	O	0.113935	0.845095	0.865591
	H400	H	0.123425	0.864313	0.872801
	H401	H	0.118758	0.842046	0.865778
	O402	O	0.484504	0.429124	0.463757
	H403	H	0.482087	0.430845	0.465163
	H404	H	0.498437	0.448626	0.475131
	O405	O	0.884004	1.043619	-0.017250
	H406	H	0.884642	1.042452	-0.018457
	H407	H	0.884015	1.052356	-0.008150
	O408	O	1.045283	0.924399	0.020275
	H409	H	1.030252	0.923384	0.022756
	H410	H	1.031551	0.919033	0.035783
	O411	O	1.088131	-0.075219	0.878106
	H412	H	1.096371	-0.073689	0.882318
	H413	H	1.094467	-0.087092	0.874865
	O414	O	0.611537	0.604598	0.621513
	H415	H	0.612027	0.606491	0.619192
	H416	H	0.606514	0.610078	0.613124
	O417	O	0.330196	0.533547	0.373149
	H418	H	0.338222	0.534137	0.362071
	H419	H	0.329178	0.514725	0.378216
