data_Molecule from HDF5

_cell_length_a		16.287063
_cell_length_b		16.245254
_cell_length_c		16.185413
_cell_angle_alpha	89.823348
_cell_angle_beta	90.016406
_cell_angle_gamma	89.796000
_symmetry_space_group_name_H-M	'P 1'
_symmetry_Int_Tables_number		1

loop_
	_symmetry_equiv_pos_as_xyz
	x,y,z

loop_
	_atom_site_label
	_atom_site_type_symbol
	_atom_site_fract_x
	_atom_site_fract_y
	_atom_site_fract_z
	H0	H	0.395213	0.839382	0.716188
	H1	H	0.588508	0.168585	0.715095
	H2	H	0.590881	0.839411	0.289891
	H3	H	0.394318	0.168259	0.287217
	H4	H	0.706900	0.403644	0.837979
	H5	H	0.706398	0.601768	0.166261
	H6	H	0.277947	0.603921	0.837386
	H7	H	0.278942	0.404610	0.166299
	H8	H	0.828923	0.719448	0.403436
	H9	H	0.156377	0.717639	0.601633
	H10	H	0.828025	0.291081	0.600972
	H11	H	0.155648	0.288866	0.403092
	H12	H	0.828942	0.406677	0.716457
	H13	H	0.156162	0.601110	0.716371
	H14	H	0.828676	0.603084	0.287345
	H15	H	0.156069	0.406335	0.289186
	H16	H	0.392507	0.719375	0.838534
	H17	H	0.590645	0.716060	0.166803
	H18	H	0.590010	0.290222	0.837232
	H19	H	0.394291	0.290024	0.166958
	H20	H	0.707449	0.840953	0.405068
	H21	H	0.705446	0.168796	0.600985
	H22	H	0.277347	0.840503	0.602385
	H23	H	0.277151	0.168381	0.401868
	H24	H	0.896147	0.338978	0.216344
	H25	H	0.087613	0.668949	0.214025
	H26	H	0.090085	0.338882	0.789890
	H27	H	0.895251	0.667926	0.787732
	H28	H	0.206500	0.905778	0.337229
	H29	H	0.205551	0.101345	0.666754
	H30	H	0.778525	0.103148	0.337667
	H31	H	0.779477	0.906544	0.667220
	H32	H	0.329061	0.219075	0.903884
	H33	H	0.655001	0.217532	0.101192
	H34	H	0.328997	0.789839	0.101044
	H35	H	0.655649	0.788345	0.904527
	H36	H	0.328857	0.905254	0.217122
	H37	H	0.655582	0.099645	0.214509
	H38	H	0.328333	0.102130	0.789128
	H39	H	0.656041	0.905379	0.788726
	H40	H	0.893882	0.218272	0.338304
	H41	H	0.089176	0.215608	0.667055
	H42	H	0.088430	0.792226	0.336623
	H43	H	0.894668	0.789542	0.666863
	H44	H	0.208294	0.339894	0.903551
	H45	H	0.206277	0.668199	0.100860
	H46	H	0.778785	0.339036	0.101344
	H47	H	0.775635	0.667178	0.901416
	H48	H	0.395687	0.119746	0.588505
	H49	H	0.582243	0.887962	0.597553
	H50	H	0.586029	0.119893	0.416830
	H51	H	0.399436	0.887278	0.408977
	H52	H	0.592229	0.409623	0.122142
	H53	H	0.571058	0.589687	0.890767
	H54	H	0.404852	0.600187	0.119137
	H55	H	0.395109	0.399824	0.879263
	H56	H	0.108094	0.595884	0.409859
	H57	H	0.874891	0.599804	0.595179
	H58	H	0.110479	0.411969	0.602686
	H59	H	0.875091	0.405907	0.412523
	H60	H	0.111179	0.401201	0.593993
	H61	H	0.876627	0.596583	0.591591
	H62	H	0.109986	0.597299	0.405831
	H63	H	0.877386	0.416597	0.410953
	H64	H	0.393664	0.597720	0.121431
	H65	H	0.584713	0.610754	0.879820
	H66	H	0.582899	0.414937	0.117198
	H67	H	0.392597	0.422720	0.886541
	H68	H	0.592087	0.124688	0.403535
	H69	H	0.586448	0.888204	0.590514
	H70	H	0.392635	0.124178	0.600035
	H71	H	0.400461	0.887713	0.410848
	H72	H	0.899581	0.618706	0.091102
	H73	H	0.081977	0.384398	0.108155
	H74	H	0.090362	0.619246	0.919874
	H75	H	0.891423	0.384985	0.911196
	H76	H	0.086274	0.913284	0.618704
	H77	H	0.079968	0.097850	0.385226
	H78	H	0.907336	0.109239	0.621019
	H79	H	0.902142	0.900796	0.382427
	H80	H	0.606686	0.095863	0.916834
	H81	H	0.381761	0.084738	0.086313
	H82	H	0.613717	0.909859	0.109790
	H83	H	0.377492	0.915139	0.912699
	H84	H	0.610762	0.897350	0.087717
	H85	H	0.370842	0.094836	0.110846
	H86	H	0.609373	0.091106	0.903131
	H87	H	0.374133	0.911717	0.904036
	H88	H	0.883945	0.099992	0.625358
	H89	H	0.087765	0.100743	0.383127
	H90	H	0.082421	0.908570	0.618811
	H91	H	0.887601	0.914856	0.382132
	H92	H	0.091755	0.625022	0.900663
	H93	H	0.080072	0.391603	0.086055
	H94	H	0.894328	0.621192	0.094655
	H95	H	0.902345	0.385094	0.902067
	H96	H	0.404647	0.119771	0.597333
	H97	H	0.590669	0.885437	0.596898
	H98	H	0.577872	0.120362	0.403955
	H99	H	0.398900	0.887204	0.410668
	H100	H	0.582257	0.403924	0.121214
	H101	H	0.596861	0.586681	0.883206
	H102	H	0.400495	0.589112	0.117809
	H103	H	0.412984	0.411371	0.888960
	H104	H	0.109719	0.600389	0.409081
	H105	H	0.876146	0.594480	0.596848
	H106	H	0.106260	0.413357	0.589790
	H107	H	0.873034	0.410334	0.402562
	H108	H	0.900199	0.620906	0.096674
	H109	H	0.100194	0.383693	0.093854
	H110	H	0.074536	0.617824	0.907657
	H111	H	0.903631	0.389061	0.915707
	H112	H	0.088118	0.908044	0.621331
	H113	H	0.087227	0.093008	0.385356
	H114	H	0.902745	0.084638	0.615456
	H115	H	0.906090	0.919619	0.389340
	H116	H	0.612239	0.104836	0.907260
	H117	H	0.372206	0.111747	0.088053
	H118	H	0.603346	0.922065	0.089411
	H119	H	0.373701	0.905213	0.912494
	C120	C	0.370029	0.012508	0.623931
	C121	C	0.614283	0.995865	0.623958
	C122	C	0.613814	0.012877	0.380645
	C123	C	0.370919	0.995728	0.380584
	C124	C	0.613842	0.381192	0.010755
	C125	C	0.613291	0.624325	0.993417
	C126	C	0.370757	0.624954	0.011079
	C127	C	0.371281	0.382412	0.993493
	C128	C	0.001102	0.626133	0.379948
	C129	C	0.984004	0.625180	0.623404
	C130	C	0.000829	0.381562	0.623780
	C131	C	0.983639	0.382444	0.380401
	C132	C	0.870435	0.511858	0.123495
	C133	C	0.114427	0.495783	0.123874
	C134	C	0.114136	0.512023	0.881047
	C135	C	0.870197	0.495037	0.880157
	C136	C	0.114111	0.882087	0.510842
	C137	C	0.113300	0.125248	0.493458
	C138	C	0.870148	0.126140	0.511249
	C139	C	0.870929	0.882914	0.493465
	C140	C	0.501184	0.125621	0.880820
	C141	C	0.483063	0.124833	0.123415
	C142	C	0.501196	0.881519	0.124486
	C143	C	0.483358	0.881798	0.880967
	C144	C	0.374328	0.888560	0.678434
	C145	C	0.609808	0.119457	0.678053
	C146	C	0.611174	0.888936	0.327059
	C147	C	0.373417	0.119404	0.325042
	C148	C	0.669072	0.383763	0.887198
	C149	C	0.668578	0.622021	0.117104
	C150	C	0.315588	0.623708	0.886904
	C151	C	0.316856	0.384824	0.117311
	C152	C	0.877647	0.681376	0.382572
	C153	C	0.107229	0.680235	0.621973
	C154	C	0.877220	0.328192	0.621338
	C155	C	0.106719	0.327078	0.383089
	C156	C	0.877596	0.385608	0.678921
	C157	C	0.107493	0.621661	0.678249
	C158	C	0.877468	0.623699	0.325021
	C159	C	0.107215	0.385770	0.326644
	C160	C	0.372635	0.681038	0.887357
	C161	C	0.611148	0.678969	0.117220
	C162	C	0.611189	0.327011	0.886758
	C163	C	0.373886	0.327390	0.117495
	C164	C	0.669116	0.889395	0.384312
	C165	C	0.667915	0.119522	0.621130
	C166	C	0.315532	0.889257	0.622076
	C167	C	0.315102	0.119279	0.381946
	C168	C	0.874904	0.387898	0.178430
	C169	C	0.110054	0.619651	0.177575
	C170	C	0.111590	0.388249	0.826835
	C171	C	0.873372	0.618703	0.824988
	C172	C	0.168678	0.885326	0.386443
	C173	C	0.167705	0.121946	0.617581
	C174	C	0.815978	0.123483	0.386899
	C175	C	0.816714	0.885397	0.618019
	C176	C	0.377781	0.181098	0.883228
	C177	C	0.606528	0.179322	0.121115
	C178	C	0.377919	0.827124	0.121869
	C179	C	0.606757	0.826406	0.883568
	C180	C	0.377814	0.884545	0.179450
	C181	C	0.606756	0.120928	0.177360
	C182	C	0.377558	0.123020	0.826350
	C183	C	0.606892	0.884388	0.826245
	C184	C	0.873223	0.180664	0.387156
	C185	C	0.109743	0.178525	0.617769
	C186	C	0.110320	0.828806	0.386054
	C187	C	0.874082	0.827546	0.617768
	C188	C	0.169999	0.388645	0.883238
	C189	C	0.168982	0.619225	0.121025
	C190	C	0.816663	0.387896	0.121597
	C191	C	0.814185	0.618270	0.881532
	C192	C	0.391409	0.099023	0.601917
	C193	C	0.592836	0.909422	0.601663
	C194	C	0.591739	0.099423	0.401920
	C195	C	0.393150	0.909756	0.403483
	C196	C	0.592117	0.402966	0.097826
	C197	C	0.590711	0.602205	0.906861
	C198	C	0.393148	0.602374	0.097310
	C199	C	0.393669	0.404731	0.907085
	C200	C	0.087012	0.604243	0.401774
	C201	C	0.898192	0.603363	0.600977
	C202	C	0.087175	0.402511	0.602011
	C203	C	0.897368	0.404465	0.402232
	C204	C	0.891780	0.598056	0.101016
	C205	C	0.093572	0.409086	0.102492
	C206	C	0.091931	0.598324	0.902801
	C207	C	0.892685	0.408725	0.902832
	C208	C	0.092189	0.903564	0.597247
	C209	C	0.091598	0.103582	0.406903
	C210	C	0.891501	0.104287	0.598215
	C211	C	0.892299	0.905132	0.407042
	C212	C	0.587243	0.103682	0.902582
	C213	C	0.397153	0.103452	0.101562
	C214	C	0.587099	0.903277	0.102265
	C215	C	0.397480	0.904232	0.903210
	Zn216	Zn	0.492203	0.003768	0.752438
	Zn217	Zn	0.491947	0.003822	0.252358
	Zn218	Zn	0.741526	0.503165	0.002484
	Zn219	Zn	0.243142	0.503707	0.001763
	Zn220	Zn	-0.007086	0.754001	0.501979
	Zn221	Zn	-0.008320	0.253376	0.502130
	Zn222	Zn	-0.006981	0.503468	0.751910
	Zn223	Zn	-0.007807	0.504255	0.251781
	Zn224	Zn	0.492457	0.752535	0.002881
	Zn225	Zn	0.492314	0.253724	0.002290
	Zn226	Zn	0.742541	0.004936	0.502229
	Zn227	Zn	0.242013	0.004237	0.501812
	N228	N	0.407572	0.966296	0.679610
	N229	N	0.577150	0.041402	0.679970
	N230	N	0.577522	0.966803	0.324839
	N231	N	0.407230	0.041759	0.324067
	N232	N	0.670760	0.416799	0.965468
	N233	N	0.670098	0.588840	0.039138
	N234	N	0.314381	0.589358	0.964770
	N235	N	0.314957	0.418229	0.039197
	N236	N	0.955180	0.682897	0.416090
	N237	N	0.029630	0.682279	0.588320
	N238	N	0.954787	0.325576	0.588011
	N239	N	0.028754	0.325026	0.415935
	N240	N	0.955535	0.418062	0.680589
	N241	N	0.030036	0.588264	0.679472
	N242	N	0.955128	0.590041	0.323276
	N243	N	0.029572	0.419418	0.324807
	N244	N	0.406279	0.681946	0.965403
	N245	N	0.577336	0.680389	0.039162
	N246	N	0.577515	0.325440	0.964751
	N247	N	0.407217	0.325852	0.039386
	N248	N	0.670858	0.967530	0.416919
	N249	N	0.670531	0.041586	0.588007
	N250	N	0.313072	0.967200	0.588707
	N251	N	0.313654	0.041486	0.416093
	N252	N	0.907703	0.465902	0.179617
	N253	N	0.076864	0.542090	0.179024
	N254	N	0.077510	0.465852	0.825356
	N255	N	0.907441	0.541004	0.824154
	N256	N	0.171110	0.917685	0.464941
	N257	N	0.169929	0.089304	0.539460
	N258	N	0.813969	0.090257	0.465102
	N259	N	0.814593	0.919266	0.540034
	N260	N	0.455484	0.182747	0.916326
	N261	N	0.528757	0.181687	0.088061
	N262	N	0.455679	0.825017	0.088340
	N263	N	0.528919	0.824484	0.916892
	N264	N	0.455439	0.917430	0.181160
	N265	N	0.529167	0.087875	0.178994
	N266	N	0.455063	0.089085	0.824838
	N267	N	0.529291	0.918141	0.824452
	N268	N	0.906174	0.182205	0.465410
	N269	N	0.076482	0.180682	0.539529
	N270	N	0.077159	0.826519	0.464232
	N271	N	0.907104	0.826004	0.539489
	N272	N	0.171680	0.466555	0.916266
	N273	N	0.171969	0.540965	0.088523
	N274	N	0.813673	0.465950	0.088286
	N275	N	0.812106	0.540315	0.915125
	O276	O	0.479421	-0.505729	0.545443
	H277	H	0.483059	-0.503624	0.543626
	H278	H	0.484658	-0.496576	0.547618
	O279	O	0.483882	0.554594	0.462090
	H280	H	0.487518	0.556337	0.453708
	H281	H	0.481442	0.555517	0.469058
	O282	O	0.477665	0.499991	0.522336
	H283	H	0.470623	0.500493	0.522984
	H284	H	0.481445	0.502698	0.530778
	O285	O	0.466766	0.571963	0.487988
	H286	H	0.469066	0.564692	0.482425
	H287	H	0.462058	0.579662	0.489883
	O288	O	0.465890	0.475926	0.470262
	H289	H	0.463310	0.478427	0.481053
	H290	H	0.458294	0.472641	0.471662
	O291	O	0.511873	0.572986	0.479064
	H292	H	0.510783	0.562143	0.476818
	H293	H	0.506207	0.583083	0.469614
	O294	O	0.492549	0.505487	0.515700
	H295	H	0.492995	0.508176	0.514439
	H296	H	0.498424	0.506912	0.504855
	O297	O	1.457354	0.564841	0.481095
	H298	H	1.451691	0.564737	0.486850
	H299	H	1.456826	0.564443	0.476095
