data_Molecule from HDF5

_cell_length_a		16.464961
_cell_length_b		16.110396
_cell_length_c		16.053984
_cell_angle_alpha	90.048661
_cell_angle_beta	90.100634
_cell_angle_gamma	90.092818
_symmetry_space_group_name_H-M	'P 1'
_symmetry_Int_Tables_number		1

loop_
	_symmetry_equiv_pos_as_xyz
	x,y,z

loop_
	_atom_site_label
	_atom_site_type_symbol
	_atom_site_fract_x
	_atom_site_fract_y
	_atom_site_fract_z
	H0	H	0.404810	0.835874	0.707806
	H1	H	0.595752	0.168810	0.709305
	H2	H	0.594113	0.836029	0.287857
	H3	H	0.405899	0.169000	0.288759
	H4	H	0.716344	0.399145	0.834829
	H5	H	0.716012	0.603709	0.163965
	H6	H	0.282414	0.605529	0.835795
	H7	H	0.283983	0.398600	0.162795
	H8	H	0.837175	0.716751	0.400809
	H9	H	0.162064	0.718154	0.599325
	H10	H	0.837145	0.286704	0.598923
	H11	H	0.161459	0.286954	0.401984
	H12	H	0.836455	0.406360	0.713473
	H13	H	0.162360	0.600499	0.715285
	H14	H	0.837405	0.599902	0.283441
	H15	H	0.161667	0.403207	0.285653
	H16	H	0.404806	0.711581	0.831591
	H17	H	0.596344	0.713221	0.165550
	H18	H	0.594784	0.292453	0.831754
	H19	H	0.405121	0.292051	0.165463
	H20	H	0.715918	0.838623	0.395773
	H21	H	0.717704	0.164692	0.602436
	H22	H	0.283779	0.838095	0.598808
	H23	H	0.282944	0.166029	0.394752
	H24	H	0.905200	0.335469	0.210136
	H25	H	0.096505	0.668148	0.212837
	H26	H	0.094893	0.336306	0.789350
	H27	H	0.906205	0.668796	0.790418
	H28	H	0.213210	0.901345	0.333479
	H29	H	0.216841	0.104385	0.661935
	H30	H	0.783147	0.103991	0.335456
	H31	H	0.783352	0.899669	0.663109
	H32	H	0.337255	0.217669	0.899137
	H33	H	0.661711	0.217675	0.097574
	H34	H	0.336215	0.786616	0.096114
	H35	H	0.662899	0.787481	0.900041
	H36	H	0.335888	0.905372	0.211855
	H37	H	0.661724	0.101141	0.214565
	H38	H	0.337150	0.099643	0.783538
	H39	H	0.662898	0.905207	0.783510
	H40	H	0.903457	0.213432	0.332978
	H41	H	0.094962	0.211774	0.666128
	H42	H	0.094293	0.791115	0.333161
	H43	H	0.905105	0.793393	0.666929
	H44	H	0.215452	0.338639	0.898358
	H45	H	0.218511	0.665378	0.104520
	H46	H	0.782797	0.338421	0.102889
	H47	H	0.783281	0.665956	0.896528
	H48	H	0.406293	0.120496	0.589051
	H49	H	0.599057	0.879737	0.597414
	H50	H	0.601176	0.119804	0.415815
	H51	H	0.404200	0.883116	0.405457
	H52	H	0.591292	0.414758	0.115074
	H53	H	0.598791	0.595157	0.878192
	H54	H	0.408343	0.603568	0.120722
	H55	H	0.404959	0.413896	0.880498
	H56	H	0.114011	0.591892	0.404518
	H57	H	0.883809	0.601918	0.589584
	H58	H	0.114392	0.402737	0.587009
	H59	H	0.884293	0.399714	0.416043
	H60	H	0.112975	0.416892	0.595189
	H61	H	0.885571	0.590823	0.594678
	H62	H	0.117555	0.601632	0.403280
	H63	H	0.887095	0.420281	0.407755
	H64	H	0.399782	0.586277	0.118106
	H65	H	0.593722	0.588241	0.882052
	H66	H	0.591658	0.405469	0.118917
	H67	H	0.407665	0.410541	0.879717
	H68	H	0.596310	0.123877	0.398624
	H69	H	0.584397	0.885763	0.591824
	H70	H	0.405079	0.121037	0.588665
	H71	H	0.405913	0.884015	0.406670
	H72	H	0.906110	0.618535	0.086022
	H73	H	0.090300	0.384692	0.092700
	H74	H	0.093691	0.619385	0.913379
	H75	H	0.902626	0.380801	0.900326
	H76	H	0.086364	0.902997	0.617914
	H77	H	0.086806	0.092915	0.381408
	H78	H	0.913322	0.093761	0.615651
	H79	H	0.894287	0.911948	0.377305
	H80	H	0.613588	0.094888	0.906783
	H81	H	0.382386	0.090942	0.102702
	H82	H	0.611938	0.915188	0.092170
	H83	H	0.378368	0.898189	0.892644
	H84	H	0.617141	0.905860	0.098734
	H85	H	0.380473	0.108102	0.092326
	H86	H	0.615747	0.097410	0.900385
	H87	H	0.386363	0.902223	0.917399
	H88	H	0.901841	0.098205	0.621769
	H89	H	0.094468	0.099593	0.377390
	H90	H	0.105616	0.909207	0.622204
	H91	H	0.911449	0.920590	0.385083
	H92	H	0.097139	0.621830	0.908733
	H93	H	0.095320	0.384896	0.087437
	H94	H	0.902603	0.621813	0.092820
	H95	H	0.913647	0.386522	0.909972
	H96	H	0.405032	0.121884	0.589884
	H97	H	0.596835	0.884956	0.580734
	H98	H	0.584041	0.117326	0.410563
	H99	H	0.403315	0.883909	0.407174
	H100	H	0.599380	0.411382	0.119808
	H101	H	0.589792	0.596759	0.880936
	H102	H	0.417450	0.588709	0.112297
	H103	H	0.403884	0.410286	0.879452
	H104	H	0.113168	0.598023	0.413630
	H105	H	0.881169	0.599630	0.600867
	H106	H	0.118886	0.403270	0.602682
	H107	H	0.879619	0.404246	0.394317
	H108	H	0.910395	0.618941	0.092385
	H109	H	0.097346	0.383034	0.093798
	H110	H	0.089729	0.620661	0.907711
	H111	H	0.899734	0.384088	0.914967
	H112	H	0.091686	0.922694	0.613900
	H113	H	0.097112	0.089615	0.380339
	H114	H	0.903757	0.085481	0.616866
	H115	H	0.911424	0.900211	0.380080
	H116	H	0.616280	0.102247	0.906590
	H117	H	0.387549	0.092020	0.083447
	H118	H	0.614159	0.903389	0.086318
	H119	H	0.387705	0.921737	0.900400
	C120	C	0.377489	0.011620	0.618494
	C121	C	0.621594	0.992823	0.619345
	C122	C	0.620908	0.011221	0.378538
	C123	C	0.377346	0.993378	0.377177
	C124	C	0.621354	0.381797	0.007657
	C125	C	0.622353	0.622922	0.989863
	C126	C	0.379428	0.622390	0.008035
	C127	C	0.378197	0.382006	0.989606
	C128	C	0.007837	0.624683	0.377667
	C129	C	0.991026	0.625679	0.623282
	C130	C	0.007893	0.379719	0.622860
	C131	C	0.991213	0.379797	0.378000
	C132	C	0.878338	0.510716	0.120070
	C133	C	0.122752	0.493287	0.121475
	C134	C	0.121426	0.511375	0.880035
	C135	C	0.878036	0.493266	0.879232
	C136	C	0.121117	0.882465	0.507890
	C137	C	0.120776	0.122895	0.489336
	C138	C	0.877624	0.122731	0.508755
	C139	C	0.877689	0.881448	0.490432
	C140	C	0.507721	0.125515	0.875839
	C141	C	0.490806	0.125496	0.121245
	C142	C	0.506910	0.879823	0.120607
	C143	C	0.491970	0.879422	0.875620
	C144	C	0.382548	0.886159	0.671961
	C145	C	0.617253	0.118642	0.673051
	C146	C	0.616339	0.886074	0.324032
	C147	C	0.383007	0.118937	0.324074
	C148	C	0.677218	0.381405	0.883867
	C149	C	0.677746	0.622779	0.114551
	C150	C	0.322287	0.622773	0.884175
	C151	C	0.322940	0.380776	0.113947
	C152	C	0.885726	0.679479	0.379783
	C153	C	0.113597	0.680168	0.619954
	C154	C	0.885474	0.325051	0.619446
	C155	C	0.113135	0.324840	0.381318
	C156	C	0.885053	0.384396	0.676451
	C157	C	0.113542	0.621991	0.678037
	C158	C	0.885844	0.621136	0.321716
	C159	C	0.113192	0.382647	0.323323
	C160	C	0.382666	0.676233	0.882006
	C161	C	0.617895	0.676888	0.115468
	C162	C	0.616750	0.328013	0.882149
	C163	C	0.382792	0.327409	0.115146
	C164	C	0.676611	0.887366	0.378128
	C165	C	0.678154	0.116402	0.620133
	C166	C	0.322302	0.887277	0.617776
	C167	C	0.321840	0.117337	0.376696
	C168	C	0.883006	0.385514	0.174008
	C169	C	0.118339	0.618308	0.176066
	C170	C	0.116836	0.386288	0.825672
	C171	C	0.883232	0.618716	0.825934
	C172	C	0.175326	0.882592	0.383124
	C173	C	0.177330	0.123094	0.613526
	C174	C	0.821769	0.122713	0.384415
	C175	C	0.822045	0.881511	0.614288
	C176	C	0.385799	0.180001	0.878467
	C177	C	0.613184	0.180061	0.118503
	C178	C	0.384719	0.824642	0.117169
	C179	C	0.614303	0.825179	0.879153
	C180	C	0.384522	0.883740	0.174559
	C181	C	0.613118	0.122236	0.176730
	C182	C	0.385496	0.121076	0.821349
	C183	C	0.614259	0.883768	0.821144
	C184	C	0.881568	0.177145	0.383147
	C185	C	0.117113	0.176573	0.615487
	C186	C	0.116152	0.827874	0.382817
	C187	C	0.882629	0.828800	0.616317
	C188	C	0.176652	0.387443	0.879926
	C189	C	0.179020	0.616891	0.122233
	C190	C	0.822624	0.386884	0.120303
	C191	C	0.822373	0.617105	0.878705
	C192	C	0.398871	0.098614	0.595979
	C193	C	0.599750	0.905998	0.596723
	C194	C	0.599827	0.098045	0.401561
	C195	C	0.398258	0.906178	0.399774
	C196	C	0.600321	0.403981	0.095218
	C197	C	0.600596	0.600190	0.902765
	C198	C	0.401855	0.599620	0.094525
	C199	C	0.399359	0.404941	0.902610
	C200	C	0.092874	0.603388	0.400342
	C201	C	0.905734	0.604053	0.601246
	C202	C	0.093198	0.401364	0.601276
	C203	C	0.905600	0.401791	0.399585
	C204	C	0.900097	0.597327	0.097159
	C205	C	0.100898	0.406506	0.098138
	C206	C	0.099970	0.598266	0.903122
	C207	C	0.899087	0.406252	0.901784
	C208	C	0.100679	0.905133	0.595321
	C209	C	0.099086	0.100732	0.402242
	C210	C	0.899673	0.099436	0.595573
	C211	C	0.899370	0.904235	0.403188
	C212	C	0.593175	0.104280	0.897992
	C213	C	0.405650	0.103514	0.099241
	C214	C	0.592167	0.901639	0.098910
	C215	C	0.406312	0.900973	0.897278
	Zn216	Zn	0.499610	0.003116	0.746037
	Zn217	Zn	0.499040	0.002131	0.250777
	Zn218	Zn	0.749855	0.502138	-0.000533
	Zn219	Zn	0.250708	0.502368	0.000015
	Zn220	Zn	-0.000675	0.755105	0.500354
	Zn221	Zn	-0.000754	0.249923	0.499614
	Zn222	Zn	-0.000217	0.502484	0.752597
	Zn223	Zn	-0.000340	0.501955	0.247946
	Zn224	Zn	0.500287	0.749527	-0.001822
	Zn225	Zn	0.499490	0.255047	-0.001333
	Zn226	Zn	0.749476	0.001764	0.498888
	Zn227	Zn	0.249432	0.002923	0.497293
	N228	N	0.416230	0.964490	0.672582
	N229	N	0.582766	0.040847	0.672907
	N230	N	0.582519	0.964067	0.323949
	N231	N	0.416737	0.040912	0.324329
	N232	N	0.680103	0.414273	0.963004
	N233	N	0.680391	0.589816	0.035547
	N234	N	0.319979	0.590193	0.963445
	N235	N	0.319992	0.414021	0.035110
	N236	N	0.962547	0.681924	0.413991
	N237	N	0.036391	0.682736	0.586765
	N238	N	0.962734	0.321954	0.586946
	N239	N	0.036091	0.323047	0.414580
	N240	N	0.962123	0.417764	0.678601
	N241	N	0.036623	0.588632	0.679992
	N242	N	0.962627	0.587749	0.320482
	N243	N	0.036357	0.416060	0.321122
	N244	N	0.418050	0.675731	0.959667
	N245	N	0.584377	0.677513	0.036969
	N246	N	0.582482	0.328307	0.960270
	N247	N	0.416592	0.327834	0.036724
	N248	N	0.679615	0.966195	0.411142
	N249	N	0.680813	0.037446	0.587448
	N250	N	0.319100	0.966282	0.585216
	N251	N	0.318260	0.038269	0.408955
	N252	N	0.916959	0.463470	0.173988
	N253	N	0.084076	0.540525	0.175688
	N254	N	0.083247	0.464452	0.825579
	N255	N	0.917100	0.540728	0.826053
	N256	N	0.178451	0.915773	0.462090
	N257	N	0.179986	0.090487	0.534325
	N258	N	0.819276	0.089569	0.463368
	N259	N	0.818972	0.913851	0.534943
	N260	N	0.462858	0.182670	0.911825
	N261	N	0.536410	0.182332	0.084761
	N262	N	0.461911	0.822201	0.084202
	N263	N	0.537147	0.822577	0.912233
	N264	N	0.461464	0.917232	0.176784
	N265	N	0.536199	0.088644	0.178424
	N266	N	0.462508	0.088144	0.819379
	N267	N	0.537187	0.916650	0.818694
	N268	N	0.915660	0.177279	0.461488
	N269	N	0.082570	0.176471	0.537444
	N270	N	0.083099	0.827596	0.461416
	N271	N	0.916343	0.828431	0.538049
	N272	N	0.179661	0.466279	0.912894
	N273	N	0.182008	0.538045	0.089185
	N274	N	0.819575	0.465822	0.087552
	N275	N	0.819116	0.538112	0.911296
	O276	O	0.529868	0.471075	0.467690
	H277	H	0.526601	0.464774	0.473101
	H278	H	0.530435	0.461415	0.473883
	O279	O	0.489193	0.494971	0.527524
	H280	H	0.486353	0.493442	0.529497
	H281	H	0.484894	0.494513	0.518994
	O282	O	0.524722	0.501005	0.475245
	H283	H	0.518413	0.506218	0.465439
	H284	H	0.524121	0.502297	0.478487
	O285	O	-0.065490	1.048371	1.013343
	H286	H	-0.062811	1.061712	1.007882
	H287	H	-0.067595	1.050008	1.006896
	O288	O	0.508048	0.455568	0.466477
	H289	H	0.507533	0.449540	0.473141
	H290	H	0.509860	0.457595	0.466179
	O291	O	-0.041890	-0.018347	0.937526
	H292	H	-0.044887	-0.033092	0.940483
	H293	H	-0.042993	-0.030091	0.949332
	O294	O	0.484797	0.492304	0.537378
	H295	H	0.480479	0.491480	0.543865
	H296	H	0.481272	0.493246	0.521145
	O297	O	0.488092	0.467876	0.466486
	H298	H	0.487310	0.461887	0.463813
	H299	H	0.495857	0.468514	0.465034
	O300	O	0.462259	0.525614	0.469535
	H301	H	0.455488	0.528504	0.461423
	H302	H	0.479501	0.525750	0.475017
	O303	O	0.506302	0.496637	0.466504
	H304	H	0.503973	0.488351	0.462377
	H305	H	0.509511	0.492687	0.477077
	O306	O	0.931411	-0.012442	1.017488
	H307	H	0.930111	-0.014088	1.019643
	H308	H	0.932992	-0.018689	1.010882
	O309	O	0.503360	0.480690	0.540300
	H310	H	0.498965	0.480462	0.540937
	H311	H	0.506598	0.490368	0.535104
	O312	O	0.443030	0.536675	0.448547
	H313	H	0.433372	0.543587	0.454902
	H314	H	0.454816	0.532611	0.450128
	O315	O	0.996048	-0.018830	1.032771
	H316	H	0.998211	-0.012596	1.036167
	H317	H	0.998479	-0.018015	1.039475
	O318	O	-0.032517	-0.059347	0.012214
	H319	H	-0.037732	-0.059831	0.009535
	H320	H	-0.031742	-0.056659	0.011649
	O321	O	0.477031	0.570272	0.480969
	H322	H	0.476530	0.574278	0.487400
	H323	H	0.470965	0.568406	0.477752
	O324	O	0.968416	0.012838	-0.027377
	H325	H	0.964727	0.004676	-0.032986
	H326	H	0.972398	0.009173	-0.036280
	O327	O	0.961461	1.037074	0.010599
	H328	H	0.961108	1.045249	0.012434
	H329	H	0.955489	1.042497	0.017037
	O330	O	0.508431	0.512445	0.519033
	H331	H	0.505765	0.523844	0.515048
	H332	H	0.513660	0.521366	0.515587
	O333	O	0.467672	0.522329	0.515240
	H334	H	0.473568	0.518181	0.516993
	H335	H	0.463429	0.521126	0.514641
