data_Molecule from HDF5

_cell_length_a		16.252450
_cell_length_b		16.223410
_cell_length_c		16.109147
_cell_angle_alpha	90.476461
_cell_angle_beta	89.923848
_cell_angle_gamma	90.369638
_symmetry_space_group_name_H-M	'P 1'
_symmetry_Int_Tables_number		1

loop_
	_symmetry_equiv_pos_as_xyz
	x,y,z

loop_
	_atom_site_label
	_atom_site_type_symbol
	_atom_site_fract_x
	_atom_site_fract_y
	_atom_site_fract_z
	H0	H	0.390822	0.831189	0.711876
	H1	H	0.588180	0.160489	0.709956
	H2	H	0.586090	0.831133	0.282117
	H3	H	0.394237	0.160596	0.288047
	H4	H	0.705405	0.396409	0.833843
	H5	H	0.708691	0.599594	0.162498
	H6	H	0.278694	0.592732	0.833337
	H7	H	0.279055	0.398130	0.163989
	H8	H	0.827942	0.706135	0.399758
	H9	H	0.155773	0.712011	0.598557
	H10	H	0.827473	0.281464	0.595552
	H11	H	0.154991	0.277205	0.395796
	H12	H	0.828275	0.396701	0.710527
	H13	H	0.157479	0.593326	0.710842
	H14	H	0.828453	0.588784	0.285737
	H15	H	0.156699	0.395258	0.283554
	H16	H	0.394058	0.707655	0.832649
	H17	H	0.593013	0.714095	0.163287
	H18	H	0.591733	0.281477	0.834092
	H19	H	0.394350	0.285755	0.164408
	H20	H	0.704757	0.830711	0.395143
	H21	H	0.707599	0.157892	0.599664
	H22	H	0.275110	0.830458	0.595992
	H23	H	0.276212	0.158671	0.400978
	H24	H	0.894800	0.329390	0.207856
	H25	H	0.092221	0.657907	0.213840
	H26	H	0.088951	0.329835	0.783583
	H27	H	0.896283	0.658965	0.785801
	H28	H	0.204521	0.893073	0.332900
	H29	H	0.204722	0.095636	0.662385
	H30	H	0.778558	0.088387	0.332277
	H31	H	0.774916	0.894579	0.663211
	H32	H	0.328124	0.209411	0.901479
	H33	H	0.655755	0.212266	0.097885
	H34	H	0.328931	0.780857	0.097478
	H35	H	0.655268	0.779760	0.894764
	H36	H	0.326975	0.898701	0.209396
	H37	H	0.655586	0.095856	0.213276
	H38	H	0.326670	0.092343	0.786671
	H39	H	0.656338	0.899768	0.782778
	H40	H	0.892735	0.205220	0.332118
	H41	H	0.089754	0.210402	0.662409
	H42	H	0.089274	0.779918	0.332522
	H43	H	0.893400	0.782058	0.664132
	H44	H	0.205771	0.330620	0.898184
	H45	H	0.207933	0.658513	0.100351
	H46	H	0.773490	0.332365	0.098467
	H47	H	0.779239	0.658988	0.898952
	H48	H	0.402307	0.107877	0.582968
	H49	H	0.569039	0.878256	0.600684
	H50	H	0.587646	0.110296	0.418518
	H51	H	0.398746	0.879033	0.406110
	H52	H	0.579597	0.408036	0.114964
	H53	H	0.587605	0.591934	0.878794
	H54	H	0.399228	0.589071	0.117031
	H55	H	0.402851	0.396224	0.878981
	H56	H	0.109495	0.587174	0.405170
	H57	H	0.877466	0.583161	0.591208
	H58	H	0.110091	0.405252	0.595472
	H59	H	0.873857	0.399135	0.402882
	H60	H	0.112345	0.394352	0.590628
	H61	H	0.873024	0.588427	0.596536
	H62	H	0.110651	0.589483	0.405767
	H63	H	0.875069	0.398180	0.404679
	H64	H	0.400292	0.588897	0.115852
	H65	H	0.588746	0.583729	0.880939
	H66	H	0.585491	0.399449	0.119030
	H67	H	0.391983	0.401719	0.877658
	H68	H	0.595137	0.116516	0.400877
	H69	H	0.580433	0.882577	0.573480
	H70	H	0.385235	0.115803	0.591003
	H71	H	0.392363	0.876577	0.404937
	H72	H	0.889498	0.614098	0.086500
	H73	H	0.080897	0.378667	0.087880
	H74	H	0.093054	0.610654	0.917988
	H75	H	0.889065	0.373505	0.899810
	H76	H	0.095664	0.910853	0.617843
	H77	H	0.087158	0.091605	0.376488
	H78	H	0.897856	0.086440	0.615409
	H79	H	0.897156	0.898112	0.379758
	H80	H	0.606537	0.085979	0.909490
	H81	H	0.376356	0.084369	0.091572
	H82	H	0.609717	0.903745	0.090537
	H83	H	0.370847	0.890203	0.901083
	H84	H	0.608727	0.905997	0.088657
	H85	H	0.370662	0.093982	0.099014
	H86	H	0.610308	0.088776	0.898291
	H87	H	0.379611	0.902246	0.917622
	H88	H	0.899307	0.090083	0.615726
	H89	H	0.088112	0.077771	0.379790
	H90	H	0.069785	0.909592	0.610499
	H91	H	0.896048	0.900197	0.380659
	H92	H	0.094085	0.617852	0.895537
	H93	H	0.092529	0.375833	0.086243
	H94	H	0.902937	0.614764	0.104175
	H95	H	0.907619	0.378085	0.899938
	H96	H	0.402717	0.113914	0.602477
	H97	H	0.596669	0.871070	0.594994
	H98	H	0.575877	0.110554	0.401782
	H99	H	0.396754	0.876655	0.399686
	H100	H	0.589823	0.409835	0.117722
	H101	H	0.580990	0.587605	0.881901
	H102	H	0.399661	0.591247	0.116910
	H103	H	0.401937	0.407209	0.882825
	H104	H	0.109065	0.587669	0.407095
	H105	H	0.875336	0.591171	0.588176
	H106	H	0.107063	0.403179	0.583149
	H107	H	0.875214	0.399937	0.403938
	H108	H	0.910546	0.607457	0.084652
	H109	H	0.086590	0.373784	0.096408
	H110	H	0.074579	0.608518	0.904339
	H111	H	0.897336	0.381047	0.915147
	H112	H	0.083018	0.887927	0.619905
	H113	H	0.075533	0.085641	0.381098
	H114	H	0.896378	0.088961	0.617540
	H115	H	0.899210	0.899592	0.379726
	H116	H	0.610702	0.096480	0.906678
	H117	H	0.374871	0.096383	0.086283
	H118	H	0.609610	0.905951	0.091415
	H119	H	0.375750	0.911735	0.897927
	C120	C	0.368019	0.003696	0.620272
	C121	C	0.611537	0.986163	0.618798
	C122	C	0.612723	0.003794	0.376833
	C123	C	0.368536	0.986253	0.376301
	C124	C	0.613441	0.375713	0.008196
	C125	C	0.614904	0.618539	0.989302
	C126	C	0.371363	0.617347	0.007220
	C127	C	0.371099	0.374572	0.989523
	C128	C	0.001185	0.615183	0.377155
	C129	C	0.983995	0.616854	0.620503
	C130	C	0.001092	0.372842	0.618196
	C131	C	0.983446	0.370775	0.374734
	C132	C	0.871212	0.503731	0.119754
	C133	C	0.114773	0.485063	0.119810
	C134	C	0.114799	0.503487	0.876590
	C135	C	0.870718	0.486329	0.876697
	C136	C	0.111949	0.873067	0.506649
	C137	C	0.112164	0.115093	0.488427
	C138	C	0.869961	0.115021	0.506715
	C139	C	0.868513	0.871508	0.489348
	C140	C	0.500442	0.118018	0.877013
	C141	C	0.482709	0.119959	0.121160
	C142	C	0.500812	0.875861	0.118793
	C143	C	0.483535	0.873512	0.875632
	C144	C	0.370347	0.880025	0.674466
	C145	C	0.609173	0.110628	0.673140
	C146	C	0.608083	0.880014	0.320109
	C147	C	0.372590	0.110893	0.323874
	C148	C	0.667988	0.376885	0.883262
	C149	C	0.670651	0.618904	0.113359
	C150	C	0.316558	0.613482	0.882640
	C151	C	0.316659	0.377967	0.114449
	C152	C	0.877041	0.668392	0.379567
	C153	C	0.107026	0.673412	0.618482
	C154	C	0.876851	0.318930	0.615660
	C155	C	0.106426	0.315578	0.376607
	C156	C	0.877407	0.375996	0.673342
	C157	C	0.107956	0.614347	0.674227
	C158	C	0.877417	0.610176	0.322860
	C159	C	0.107371	0.374324	0.320460
	C160	C	0.373777	0.670802	0.882552
	C161	C	0.612830	0.675481	0.113648
	C162	C	0.611463	0.319671	0.883511
	C163	C	0.374043	0.321938	0.114530
	C164	C	0.666651	0.879743	0.376631
	C165	C	0.668394	0.109236	0.618179
	C166	C	0.312524	0.879771	0.617088
	C167	C	0.314098	0.110012	0.380127
	C168	C	0.873337	0.379349	0.172349
	C169	C	0.112373	0.609095	0.175568
	C170	C	0.110444	0.379254	0.821057
	C171	C	0.874911	0.609768	0.822415
	C172	C	0.166993	0.873897	0.382216
	C173	C	0.166849	0.114674	0.613289
	C174	C	0.815732	0.110114	0.381615
	C175	C	0.813029	0.874304	0.613779
	C176	C	0.377074	0.172039	0.880224
	C177	C	0.606566	0.174760	0.118742
	C178	C	0.377697	0.819183	0.117346
	C179	C	0.606654	0.818230	0.875842
	C180	C	0.376729	0.878040	0.172812
	C181	C	0.606519	0.116559	0.175685
	C182	C	0.376431	0.113783	0.823182
	C183	C	0.607187	0.877643	0.820003
	C184	C	0.872386	0.168122	0.381635
	C185	C	0.109770	0.171759	0.613074
	C186	C	0.109620	0.817536	0.381951
	C187	C	0.871887	0.818319	0.614317
	C188	C	0.168419	0.379583	0.878128
	C189	C	0.169923	0.609301	0.119186
	C190	C	0.813355	0.380718	0.117743
	C191	C	0.817095	0.609937	0.879186
	C192	C	0.390083	0.090296	0.598553
	C193	C	0.588841	0.899629	0.596405
	C194	C	0.592244	0.089998	0.400017
	C195	C	0.389695	0.899840	0.397376
	C196	C	0.591403	0.398941	0.094931
	C197	C	0.592391	0.594913	0.902874
	C198	C	0.393284	0.595955	0.094284
	C199	C	0.392604	0.395540	0.902216
	C200	C	0.087515	0.594558	0.399535
	C201	C	0.897693	0.594266	0.598568
	C202	C	0.087620	0.394520	0.596160
	C203	C	0.896967	0.392661	0.397155
	C204	C	0.894073	0.589730	0.098250
	C205	C	0.093102	0.398576	0.096890
	C206	C	0.093745	0.589986	0.899173
	C207	C	0.891719	0.399851	0.898581
	C208	C	0.089479	0.896137	0.593756
	C209	C	0.090149	0.091805	0.401652
	C210	C	0.891543	0.094549	0.593810
	C211	C	0.890867	0.892912	0.402454
	C212	C	0.587026	0.096776	0.898493
	C213	C	0.396199	0.098193	0.098765
	C214	C	0.587094	0.898619	0.096720
	C215	C	0.397641	0.895043	0.898722
	Zn216	Zn	0.491090	-0.004255	0.747541
	Zn217	Zn	0.491063	-0.003360	0.248101
	Zn218	Zn	0.742183	0.496006	-0.001629
	Zn219	Zn	0.243204	0.494878	-0.001501
	Zn220	Zn	-0.008172	0.744602	0.498329
	Zn221	Zn	-0.008343	0.243150	0.497095
	Zn222	Zn	-0.007108	0.494424	0.748027
	Zn223	Zn	-0.006897	0.493799	0.247684
	Zn224	Zn	0.492871	0.745514	-0.001626
	Zn225	Zn	0.492245	0.247821	-0.001086
	Zn226	Zn	0.741246	-0.006282	0.498517
	Zn227	Zn	0.239470	-0.005773	0.497718
	N228	N	0.404117	0.957925	0.676562
	N229	N	0.574365	0.033116	0.673637
	N230	N	0.575090	0.957921	0.320348
	N231	N	0.405923	0.033077	0.321475
	N232	N	0.669457	0.411111	0.961729
	N233	N	0.672107	0.584151	0.035148
	N234	N	0.314489	0.581132	0.961359
	N235	N	0.314580	0.409915	0.035626
	N236	N	0.954907	0.671590	0.412733
	N237	N	0.028831	0.675138	0.585793
	N238	N	0.954885	0.316576	0.582388
	N239	N	0.028296	0.313233	0.409333
	N240	N	0.955626	0.409082	0.674894
	N241	N	0.030440	0.579885	0.675710
	N242	N	0.955687	0.577871	0.321108
	N243	N	0.029678	0.407779	0.319094
	N244	N	0.407203	0.673141	0.960971
	N245	N	0.578786	0.675465	0.035456
	N246	N	0.578328	0.318640	0.962179
	N247	N	0.407108	0.319512	0.035801
	N248	N	0.669702	0.957543	0.411238
	N249	N	0.670156	0.030715	0.585112
	N250	N	0.311093	0.957783	0.583877
	N251	N	0.311147	0.031564	0.411881
	N252	N	0.908698	0.456671	0.173859
	N253	N	0.078828	0.530921	0.176312
	N254	N	0.077590	0.457323	0.820185
	N255	N	0.907732	0.531864	0.820636
	N256	N	0.168523	0.907655	0.460954
	N257	N	0.168355	0.080002	0.534933
	N258	N	0.813917	0.077895	0.460442
	N259	N	0.810791	0.906369	0.535043
	N260	N	0.455266	0.174735	0.913028
	N261	N	0.528731	0.176869	0.085500
	N262	N	0.455736	0.817667	0.084148
	N263	N	0.528903	0.815629	0.909690
	N264	N	0.454191	0.912646	0.173663
	N265	N	0.528527	0.083106	0.177281
	N266	N	0.454272	0.080850	0.821021
	N267	N	0.529444	0.911095	0.819343
	N268	N	0.905238	0.171303	0.460363
	N269	N	0.076297	0.171921	0.534728
	N270	N	0.075769	0.817252	0.460234
	N271	N	0.905385	0.816032	0.535707
	N272	N	0.171396	0.457774	0.911781
	N273	N	0.171675	0.531238	0.085299
	N274	N	0.811781	0.459167	0.085715
	N275	N	0.814451	0.532175	0.912248
	O276	O	1.017244	0.950122	-0.042995
	H277	H	1.018985	0.940935	-0.040261
	H278	H	1.012979	0.953613	-0.043724
	O279	O	-0.015456	-0.079706	0.939070
	H280	H	-0.022271	-0.083278	0.936569
	H281	H	-0.016911	-0.077014	0.939988
	O282	O	-0.040692	-0.045961	-0.007126
	H283	H	-0.046187	-0.039096	-0.005762
	H284	H	-0.045371	-0.050499	0.000861
	O285	O	0.475960	0.527186	0.494387
	H286	H	0.485105	0.537350	0.499086
	H287	H	0.482120	0.527918	0.503575
	O288	O	-0.009907	-0.029256	0.001943
	H289	H	-0.017016	-0.030257	-0.003595
	H290	H	0.001476	-0.036864	-0.001648
	O291	O	-0.022728	0.941839	-0.024806
	H292	H	-0.027672	0.946986	-0.023253
	H293	H	-0.024184	0.932706	-0.019684
	O294	O	-0.043535	1.033866	0.007970
	H295	H	-0.045129	1.038733	0.014263
	H296	H	-0.040649	1.037773	0.007781
	O297	O	0.601867	0.534790	0.484905
	H298	H	0.616165	0.539939	0.496177
	H299	H	0.596419	0.543395	0.471185
	O300	O	0.513767	0.465832	0.391576
	H301	H	0.514180	0.452980	0.395202
	H302	H	0.515177	0.468005	0.391547
	O303	O	1.043631	-0.021408	0.990984
	H304	H	1.043962	-0.025065	0.993714
	H305	H	1.056864	-0.016156	0.986476
	O306	O	1.064285	1.943435	0.993576
	H307	H	1.066404	1.943843	0.991671
	H308	H	1.057219	1.948786	0.985906
	O309	O	-0.028948	1.003474	1.067948
	H310	H	-0.023692	1.009348	1.066369
	H311	H	-0.020441	0.996340	1.073152
	O312	O	-0.015957	0.016643	0.962077
	H313	H	-0.021631	0.016011	0.967048
	H314	H	-0.018310	0.018186	0.963397
	O315	O	0.542842	0.553685	0.531996
	H316	H	0.547853	0.565490	0.544272
	H317	H	0.546916	0.559942	0.543331
	O318	O	0.534786	-0.508404	0.448490
	H319	H	0.526703	-0.503815	0.449986
	H320	H	0.542360	-0.505339	0.445144
	O321	O	0.527656	0.510481	0.454409
	H322	H	0.522543	0.512256	0.448156
	H323	H	0.530933	0.496478	0.447261
	O324	O	1.011725	-0.006709	1.099317
	H325	H	1.016104	-0.002933	1.088501
	H326	H	1.012046	-0.005544	1.101229
	O327	O	0.988600	1.057493	0.984755
	H328	H	0.999641	1.050558	0.982109
	H329	H	0.989907	1.057859	0.987007
	O330	O	0.498281	0.529040	0.511598
	H331	H	0.488442	0.526730	0.504820
	H332	H	0.502163	0.523940	0.507597
	O333	O	0.496336	0.538316	0.506658
	H334	H	0.481249	0.531614	0.499884
	H335	H	0.495067	0.540652	0.505505
	O336	O	0.512474	0.457502	0.496923
	H337	H	0.510736	0.452767	0.491420
	H338	H	0.513804	0.457935	0.500238
	O339	O	0.557881	0.480242	0.501248
	H340	H	0.550611	0.482333	0.500933
	H341	H	0.553669	0.476353	0.512273
	O342	O	0.509383	0.496731	0.567456
	H343	H	0.510300	0.504881	0.563248
	H344	H	0.513581	0.499624	0.570728
	O345	O	0.546900	0.561587	0.526121
	H346	H	0.558158	0.549603	0.532598
	H347	H	0.560528	0.568361	0.508684
