data_Molecule from HDF5

_cell_length_a		16.316992
_cell_length_b		16.493802
_cell_length_c		16.450358
_cell_angle_alpha	90.017324
_cell_angle_beta	89.941766
_cell_angle_gamma	90.052467
_symmetry_space_group_name_H-M	'P 1'
_symmetry_Int_Tables_number		1

loop_
	_symmetry_equiv_pos_as_xyz
	x,y,z

loop_
	_atom_site_label
	_atom_site_type_symbol
	_atom_site_fract_x
	_atom_site_fract_y
	_atom_site_fract_z
	H0	H	0.397844	0.846037	0.722099
	H1	H	0.610183	0.160933	0.724555
	H2	H	0.614501	0.848152	0.274947
	H3	H	0.392602	0.159265	0.274743
	H4	H	0.724578	0.397189	0.844354
	H5	H	0.724473	0.608273	0.160451
	H6	H	0.284832	0.605227	0.842780
	H7	H	0.278713	0.397328	0.159422
	H8	H	0.844669	0.728470	0.389990
	H9	H	0.159291	0.725524	0.607135
	H10	H	0.846189	0.278026	0.610703
	H11	H	0.160570	0.281262	0.392663
	H12	H	0.844678	0.394688	0.724934
	H13	H	0.160032	0.608581	0.720945
	H14	H	0.845457	0.613382	0.274904
	H15	H	0.160046	0.395467	0.277041
	H16	H	0.396899	0.725737	0.844841
	H17	H	0.613754	0.729351	0.157736
	H18	H	0.608497	0.280918	0.844416
	H19	H	0.391466	0.277409	0.158728
	H20	H	0.726292	0.845666	0.394176
	H21	H	0.726789	0.160611	0.607921
	H22	H	0.281494	0.845947	0.605811
	H23	H	0.279253	0.159843	0.393737
	H24	H	0.893532	0.347797	0.225477
	H25	H	0.113026	0.660237	0.226783
	H26	H	0.106427	0.347331	0.780161
	H27	H	0.893680	0.661175	0.777941
	H28	H	0.224422	0.897165	0.341708
	H29	H	0.220583	0.104999	0.658597
	H30	H	0.778982	0.110435	0.343446
	H31	H	0.784415	0.901294	0.660593
	H32	H	0.344427	0.224473	0.895296
	H33	H	0.661789	0.225066	0.107187
	H34	H	0.345276	0.779188	0.110768
	H35	H	0.661790	0.781956	0.894999
	H36	H	0.345096	0.895082	0.225154
	H37	H	0.661851	0.110983	0.222905
	H38	H	0.343823	0.107637	0.780994
	H39	H	0.661460	0.897190	0.779082
	H40	H	0.893051	0.229573	0.344031
	H41	H	0.108602	0.225546	0.657220
	H42	H	0.109810	0.779426	0.343377
	H43	H	0.894851	0.781050	0.658277
	H44	H	0.222181	0.346008	0.897459
	H45	H	0.226622	0.661543	0.108657
	H46	H	0.781798	0.345531	0.106155
	H47	H	0.778013	0.661523	0.894705
	H48	H	0.413545	0.119364	0.599326
	H49	H	0.591965	0.890992	0.589242
	H50	H	0.587865	0.115847	0.406063
	H51	H	0.410092	0.890767	0.414675
	H52	H	0.586346	0.415360	0.113096
	H53	H	0.590256	0.583275	0.892409
	H54	H	0.414592	0.591689	0.115106
	H55	H	0.418730	0.409076	0.889178
	H56	H	0.114243	0.588785	0.413055
	H57	H	0.889206	0.590166	0.584835
	H58	H	0.117763	0.415996	0.594154
	H59	H	0.888623	0.420363	0.408861
	H60	H	0.116560	0.411778	0.587463
	H61	H	0.887151	0.588526	0.592550
	H62	H	0.115861	0.592530	0.412859
	H63	H	0.888062	0.411235	0.415278
	H64	H	0.416489	0.592192	0.114369
	H65	H	0.581940	0.597947	0.889709
	H66	H	0.590999	0.410685	0.116327
	H67	H	0.408692	0.412087	0.886712
	H68	H	0.584364	0.110514	0.418722
	H69	H	0.593668	0.890158	0.592122
	H70	H	0.419511	0.114130	0.588097
	H71	H	0.417899	0.890047	0.406758
	H72	H	0.920949	0.613474	0.087316
	H73	H	0.086287	0.394795	0.085745
	H74	H	0.090625	0.616952	0.913794
	H75	H	0.909258	0.391626	0.917120
	H76	H	0.089713	0.916735	0.610961
	H77	H	0.094049	0.096203	0.384364
	H78	H	0.921886	0.097923	0.611957
	H79	H	0.914515	0.918654	0.388989
	H80	H	0.618141	0.091551	0.910550
	H81	H	0.386231	0.093697	0.094318
	H82	H	0.617600	0.917373	0.091444
	H83	H	0.389738	0.912055	0.918046
	H84	H	0.616252	0.913753	0.087000
	H85	H	0.391002	0.093695	0.081268
	H86	H	0.617544	0.094537	0.913969
	H87	H	0.391506	0.920295	0.913264
	H88	H	0.909342	0.093095	0.615772
	H89	H	0.090022	0.087339	0.387815
	H90	H	0.088978	0.908934	0.613733
	H91	H	0.919217	0.913879	0.388461
	H92	H	0.096289	0.619660	0.910785
	H93	H	0.092980	0.391623	0.087747
	H94	H	0.910590	0.615488	0.084408
	H95	H	0.913045	0.389305	0.905674
	H96	H	0.406619	0.118700	0.587113
	H97	H	0.590559	0.891112	0.592544
	H98	H	0.597298	0.116279	0.417087
	H99	H	0.420496	0.894888	0.416515
	H100	H	0.593579	0.417352	0.114729
	H101	H	0.598698	0.596935	0.885477
	H102	H	0.415096	0.592775	0.115910
	H103	H	0.414966	0.418645	0.891460
	H104	H	0.113781	0.591200	0.416852
	H105	H	0.886010	0.595709	0.588660
	H106	H	0.114829	0.419656	0.588180
	H107	H	0.892080	0.420144	0.419462
	H108	H	0.913568	0.618558	0.094566
	H109	H	0.086347	0.392074	0.092809
	H110	H	0.090638	0.618469	0.906858
	H111	H	0.920792	0.395395	0.913521
	H112	H	0.096046	0.912907	0.615079
	H113	H	0.084651	0.096070	0.387475
	H114	H	0.918392	0.084488	0.609117
	H115	H	0.912748	0.912215	0.386625
	H116	H	0.616062	0.090249	0.914538
	H117	H	0.392213	0.082473	0.089361
	H118	H	0.614328	0.919119	0.086504
	H119	H	0.387133	0.912339	0.908646
	C120	C	0.381283	0.012678	0.622860
	C121	C	0.624864	0.995108	0.623604
	C122	C	0.624698	0.011400	0.379809
	C123	C	0.381942	0.995130	0.379047
	C124	C	0.623400	0.381930	0.010390
	C125	C	0.624321	0.625335	0.993127
	C126	C	0.382354	0.624736	0.010740
	C127	C	0.380411	0.380415	0.993474
	C128	C	0.010854	0.625119	0.379442
	C129	C	0.992340	0.624201	0.621245
	C130	C	0.011811	0.381995	0.623054
	C131	C	0.993971	0.383528	0.380523
	C132	C	0.881407	0.512214	0.122702
	C133	C	0.123458	0.496118	0.122810
	C134	C	0.124007	0.513592	0.879109
	C135	C	0.880143	0.495654	0.878823
	C136	C	0.124511	0.880615	0.508988
	C137	C	0.122914	0.124868	0.490892
	C138	C	0.881564	0.125657	0.508940
	C139	C	0.882034	0.882414	0.492323
	C140	C	0.511936	0.123943	0.880730
	C141	C	0.494507	0.123917	0.121777
	C142	C	0.511543	0.882383	0.122533
	C143	C	0.494447	0.882565	0.880600
	C144	C	0.379172	0.893699	0.682502
	C145	C	0.628368	0.113640	0.684308
	C146	C	0.630449	0.894481	0.316476
	C147	C	0.375903	0.112234	0.315868
	C148	C	0.684310	0.379103	0.891748
	C149	C	0.685076	0.627426	0.112532
	C150	C	0.323226	0.625410	0.890901
	C151	C	0.318723	0.378446	0.112064
	C152	C	0.892288	0.687837	0.373565
	C153	C	0.112104	0.684773	0.624551
	C154	C	0.893137	0.319535	0.627215
	C155	C	0.112950	0.322029	0.375777
	C156	C	0.892488	0.377417	0.684515
	C157	C	0.112097	0.627279	0.681616
	C158	C	0.892531	0.630484	0.316010
	C159	C	0.112782	0.379076	0.318079
	C160	C	0.378986	0.685268	0.892000
	C161	C	0.629667	0.687448	0.111217
	C162	C	0.626396	0.321251	0.891769
	C163	C	0.375130	0.318859	0.111443
	C164	C	0.686429	0.893419	0.375977
	C165	C	0.686291	0.113381	0.626235
	C166	C	0.321283	0.893526	0.624458
	C167	C	0.319487	0.112770	0.375514
	C168	C	0.876938	0.394405	0.184420
	C169	C	0.129279	0.613479	0.185431
	C170	C	0.124920	0.394367	0.820029
	C171	C	0.875970	0.614067	0.818261
	C172	C	0.184343	0.878833	0.389565
	C173	C	0.181893	0.125200	0.610656
	C174	C	0.819470	0.128830	0.390740
	C175	C	0.822698	0.881393	0.612145
	C176	C	0.391968	0.184068	0.877357
	C177	C	0.613862	0.185296	0.125475
	C178	C	0.393003	0.819997	0.127379
	C179	C	0.614191	0.822319	0.877468
	C180	C	0.392587	0.877911	0.184506
	C181	C	0.613920	0.128243	0.183094
	C182	C	0.391738	0.126055	0.820448
	C183	C	0.613969	0.879470	0.819534
	C184	C	0.876112	0.188168	0.391116
	C185	C	0.126339	0.185120	0.609891
	C186	C	0.127186	0.820276	0.390296
	C187	C	0.877678	0.821411	0.610906
	C188	C	0.182454	0.393756	0.878524
	C189	C	0.186049	0.614181	0.126448
	C190	C	0.820920	0.393528	0.124998
	C191	C	0.818520	0.614115	0.876620
	C192	C	0.405959	0.095792	0.598301
	C193	C	0.599322	0.912274	0.598440
	C194	C	0.597504	0.092998	0.406307
	C195	C	0.408550	0.913336	0.405114
	C196	C	0.597564	0.407265	0.093175
	C197	C	0.597913	0.599891	0.910842
	C198	C	0.408044	0.599550	0.093556
	C199	C	0.406625	0.405775	0.910835
	C200	C	0.093103	0.598362	0.406365
	C201	C	0.909090	0.598743	0.595831
	C202	C	0.094717	0.408239	0.597125
	C203	C	0.911184	0.409739	0.407152
	C204	C	0.907717	0.594367	0.096551
	C205	C	0.096372	0.414387	0.096390
	C206	C	0.099604	0.596729	0.903545
	C207	C	0.906586	0.413497	0.904599
	C208	C	0.098845	0.905738	0.591840
	C209	C	0.097226	0.100208	0.408088
	C210	C	0.908667	0.099566	0.590782
	C211	C	0.908040	0.907663	0.409493
	C212	C	0.595347	0.099362	0.905932
	C213	C	0.411411	0.097471	0.095720
	C214	C	0.594436	0.909136	0.096018
	C215	C	0.411114	0.907637	0.906183
	Zn216	Zn	0.503229	0.003487	0.752305
	Zn217	Zn	0.503854	0.003529	0.250444
	Zn218	Zn	0.752286	0.503915	0.001919
	Zn219	Zn	0.252938	0.504190	0.002109
	Zn220	Zn	0.001675	0.752998	0.501011
	Zn221	Zn	0.003055	0.255079	0.500578
	Zn222	Zn	0.001469	0.504510	0.750116
	Zn223	Zn	0.002502	0.503681	0.251972
	Zn224	Zn	0.503494	0.754066	0.001571
	Zn225	Zn	0.502735	0.252299	0.001640
	Zn226	Zn	0.753471	0.003101	0.501087
	Zn227	Zn	0.252250	0.002747	0.500387
	N228	N	0.415388	0.968983	0.681954
	N229	N	0.590935	0.039015	0.682724
	N230	N	0.592463	0.968848	0.318958
	N231	N	0.414211	0.038167	0.318142
	N232	N	0.682451	0.416229	0.966476
	N233	N	0.681975	0.589524	0.038163
	N234	N	0.325225	0.588585	0.965720
	N235	N	0.321666	0.415935	0.037492
	N236	N	0.966646	0.684634	0.412514
	N237	N	0.036731	0.682975	0.587611
	N238	N	0.968281	0.322393	0.589672
	N239	N	0.038246	0.324810	0.414041
	N240	N	0.967173	0.415893	0.681852
	N241	N	0.036541	0.590476	0.679902
	N242	N	0.967178	0.592146	0.319599
	N243	N	0.037664	0.416690	0.320942
	N244	N	0.414649	0.685104	0.967693
	N245	N	0.592818	0.686456	0.036060
	N246	N	0.588983	0.323153	0.966624
	N247	N	0.412698	0.320113	0.036735
	N248	N	0.683178	0.967086	0.414457
	N249	N	0.684074	0.038752	0.589014
	N250	N	0.322352	0.968483	0.588017
	N251	N	0.323014	0.038867	0.413953
	N252	N	0.913922	0.469338	0.182980
	N253	N	0.090869	0.539268	0.183033
	N254	N	0.089468	0.469861	0.820132
	N255	N	0.913601	0.539631	0.819696
	N256	N	0.182837	0.915432	0.464466
	N257	N	0.180289	0.088768	0.535555
	N258	N	0.822880	0.090651	0.464979
	N259	N	0.825234	0.918446	0.537304
	N260	N	0.467530	0.183029	0.914153
	N261	N	0.538503	0.182918	0.088401
	N262	N	0.468141	0.822741	0.089685
	N263	N	0.538853	0.824079	0.914922
	N264	N	0.467426	0.916155	0.181519
	N265	N	0.538254	0.091173	0.181295
	N266	N	0.467404	0.089586	0.822238
	N267	N	0.538623	0.916290	0.821543
	N268	N	0.913830	0.186451	0.465746
	N269	N	0.090657	0.185174	0.534288
	N270	N	0.091093	0.820988	0.465779
	N271	N	0.913807	0.821907	0.535238
	N272	N	0.182315	0.469017	0.914372
	N273	N	0.182434	0.540209	0.088057
	N274	N	0.823578	0.467845	0.087358
	N275	N	0.820917	0.539375	0.913487
	O276	O	0.363338	0.485579	0.295676
	H277	H	0.357102	0.463609	0.307923
	H278	H	0.356562	0.470457	0.295686
	O279	O	1.213742	0.218805	1.019163
	H280	H	1.221045	0.218843	1.050452
	H281	H	1.232717	0.230730	1.036943
	O282	O	0.515723	0.284631	0.294646
	H283	H	0.535239	0.280279	0.305392
	H284	H	0.511568	0.261711	0.277866
	O285	O	0.585474	0.682628	0.685439
	H286	H	0.571532	0.694296	0.669613
	H287	H	0.594677	0.671632	0.667653
	O288	O	0.813932	0.863118	0.091195
	H289	H	0.804200	0.890824	0.095655
	H290	H	0.850490	0.852498	0.107161
	O291	O	0.659818	0.647314	0.500734
	H292	H	0.641369	0.634104	0.489209
	H293	H	0.656606	0.616109	0.502044
	O294	O	0.004716	0.171647	0.796780
	H295	H	-0.019530	0.180035	0.787849
	H296	H	-0.001441	0.158824	0.788297
	O297	O	0.575703	0.366362	0.501661
	H298	H	0.555687	0.354023	0.497762
	H299	H	0.586917	0.370115	0.503647
	O300	O	0.708700	0.483797	0.296125
	H301	H	0.702410	0.509120	0.311738
	H302	H	0.730030	0.475029	0.270700
	O303	O	0.538129	0.573284	0.362152
	H304	H	0.553981	0.557865	0.379661
	H305	H	0.527973	0.553346	0.359983
	O306	O	0.313088	0.605961	0.473762
	H307	H	0.325435	0.623924	0.463337
	H308	H	0.319123	0.590681	0.467576
	O309	O	0.643708	0.574030	0.356263
	H310	H	0.639294	0.590678	0.366394
	H311	H	0.620371	0.580623	0.366552
	O312	O	-0.062816	0.801913	1.201290
	H313	H	-0.054318	0.778847	1.199938
	H314	H	-0.039395	0.787666	1.183951
	O315	O	0.327057	0.688105	0.672042
	H316	H	0.351854	0.688614	0.649354
	H317	H	0.325088	0.692489	0.674522
	O318	O	1.154381	-0.007411	0.207807
	H319	H	1.161176	-0.019631	0.202257
	H320	H	1.171990	-0.002880	0.211780
	O321	O	0.055417	-0.031766	-0.197387
	H322	H	0.040222	-0.032942	-0.193748
	H323	H	0.052448	-0.047373	-0.187376
	O324	O	0.679299	0.324048	0.322482
	H325	H	0.690898	0.361667	0.321375
	H326	H	0.660596	0.311877	0.341643
	O327	O	0.304252	0.302888	0.696335
	H328	H	0.290209	0.290367	0.712058
	H329	H	0.304412	0.335472	0.708516
	O330	O	-0.179143	1.181938	-0.160747
	H331	H	-0.188150	1.184735	-0.147231
	H332	H	-0.182109	1.166715	-0.164136
	O333	O	0.361002	0.490562	0.309030
	H334	H	0.358643	0.473648	0.310556
	H335	H	0.353977	0.479765	0.312333
	O336	O	0.155290	0.034050	0.047727
	H337	H	0.135919	0.041696	0.051591
	H338	H	0.154398	0.007942	0.039762
	O339	O	0.032384	0.783967	1.040716
	H340	H	0.035384	0.778318	1.015848
	H341	H	0.049208	0.780818	1.021036
	O342	O	-0.006044	0.807178	0.820328
	H343	H	-0.014674	0.785963	0.801398
	H344	H	-0.007347	0.801902	0.841358
	O345	O	0.965182	0.824430	0.017217
	H346	H	0.956709	0.835954	0.017508
	H347	H	0.962995	0.816102	0.028559
	O348	O	0.419754	0.620584	0.412017
	H349	H	0.441976	0.624690	0.402167
	H350	H	0.413736	0.591113	0.404388
	O351	O	-0.168859	0.968952	0.827377
	H352	H	-0.187364	0.951932	0.830723
	H353	H	-0.166283	0.972591	0.825491
	O354	O	0.011508	1.203922	-0.035020
	H355	H	0.030357	1.210000	-0.041749
	H356	H	0.016877	1.205648	-0.060974
	O357	O	0.165759	0.187765	0.840566
	H358	H	0.168122	0.174484	0.866350
	H359	H	0.140047	0.182496	0.843962
	O360	O	0.483407	0.294742	0.711904
	H361	H	0.476987	0.273636	0.704455
	H362	H	0.474856	0.275275	0.709967
	O363	O	0.195197	-0.198624	0.862936
	H364	H	0.193955	-0.183460	0.853746
	H365	H	0.195803	-0.196560	0.835408
	O366	O	0.593906	0.369168	0.532889
	H367	H	0.610017	0.366825	0.528371
	H368	H	0.592964	0.386334	0.516538
	O369	O	0.416511	0.557043	0.492908
	H370	H	0.412091	0.541682	0.506999
	H371	H	0.417166	0.541099	0.500553
	O372	O	0.794701	-0.015301	1.207831
	H373	H	0.765640	-0.016448	1.233320
	H374	H	0.829704	-0.020150	1.209998
	O375	O	0.291567	0.469288	0.712061
	H376	H	0.282963	0.473995	0.720638
	H377	H	0.287939	0.492124	0.710050
	O378	O	0.300390	0.460390	0.467776
	H379	H	0.292269	0.450425	0.473790
	H380	H	0.306794	0.468145	0.486596
	O381	O	0.285225	0.282948	0.528131
	H382	H	0.296982	0.283122	0.558730
	H383	H	0.255408	0.252215	0.539928
	O384	O	0.678195	0.294221	0.496485
	H385	H	0.684539	0.300733	0.476601
	H386	H	0.696328	0.277595	0.493454
	O387	O	0.071924	-0.023600	0.980701
	H388	H	0.073526	-0.019215	0.980378
	H389	H	0.075854	-0.020148	0.975751
	O390	O	0.074853	0.199683	0.190911
	H391	H	0.052381	0.203611	0.167113
	H392	H	0.065458	0.200780	0.207704
	O393	O	1.204035	0.981702	0.820325
	H394	H	1.207825	0.992589	0.811156
	H395	H	1.206457	0.993742	0.828709
	O396	O	0.837697	-0.168542	0.012623
	H397	H	0.818007	-0.197948	0.022915
	H398	H	0.840205	-0.148917	0.047679
	O399	O	1.015587	0.012916	1.111088
	H400	H	1.031703	0.004338	1.107127
	H401	H	1.017908	-0.002817	1.099175
	O402	O	0.932243	1.091460	1.211422
	H403	H	0.943068	1.080144	1.207765
	H404	H	0.940797	1.099525	1.206654
	O405	O	0.932973	1.017862	-0.061389
	H406	H	0.927521	1.013092	-0.066441
	H407	H	0.917993	1.031143	-0.046166
	O408	O	0.838170	0.181307	0.062395
	H409	H	0.837048	0.186121	0.044115
	H410	H	0.841760	0.168714	0.063962
	O411	O	0.994046	1.086387	-0.048961
	H412	H	0.991529	1.079492	-0.041754
	H413	H	0.997042	1.096140	-0.052694
	O414	O	0.612091	0.480844	0.564116
	H415	H	0.602724	0.492030	0.574403
	H416	H	0.620185	0.482199	0.554342
	O417	O	0.548466	0.513623	0.703199
	H418	H	0.544190	0.484680	0.706604
	H419	H	0.561450	0.515746	0.713935
	O420	O	-0.142451	0.063590	0.043572
	H421	H	-0.129163	0.060502	0.064876
	H422	H	-0.158106	0.065391	0.047442
	O423	O	0.680883	0.489038	0.701646
	H424	H	0.669794	0.501194	0.699110
	H425	H	0.685766	0.492873	0.720952
	O426	O	0.619298	0.365772	0.632998
	H427	H	0.607708	0.361754	0.633195
	H428	H	0.631111	0.366432	0.633226
	O429	O	0.284325	0.720940	0.476263
	H430	H	0.294399	0.702112	0.431615
	H431	H	0.249163	0.755920	0.466950
	O432	O	0.719305	0.720182	0.526431
	H433	H	0.704017	0.699208	0.516819
	H434	H	0.756484	0.755193	0.530255
	O435	O	0.486509	0.364820	0.517184
	H436	H	0.485961	0.357650	0.524253
	H437	H	0.469659	0.363044	0.522654
	O438	O	0.209585	-0.181839	0.003691
	H439	H	0.205384	-0.168944	-0.042004
	H440	H	0.235690	-0.212831	-0.005286
	O441	O	1.192425	0.127527	0.189622
	H442	H	1.196300	0.094827	0.187810
	H443	H	1.176970	0.135217	0.210156
	O444	O	-0.082964	0.959076	0.917813
	H445	H	-0.071158	0.958531	0.921047
	H446	H	-0.085384	0.949055	0.913252
	O447	O	0.488639	0.705144	0.513514
	H448	H	0.468709	0.704442	0.504170
	H449	H	0.495643	0.706712	0.509570
	O450	O	0.482499	0.719247	0.286311
	H451	H	0.489582	0.733976	0.280299
	H452	H	0.492303	0.717561	0.280035
	O453	O	0.429315	0.670414	0.700645
	H454	H	0.442346	0.677122	0.692907
	H455	H	0.435265	0.657181	0.691410
