data_Molecule from HDF5

_cell_length_a		16.312864
_cell_length_b		16.148068
_cell_length_c		16.302282
_cell_angle_alpha	89.817902
_cell_angle_beta	89.802727
_cell_angle_gamma	90.199783
_symmetry_space_group_name_H-M	'P 1'
_symmetry_Int_Tables_number		1

loop_
	_symmetry_equiv_pos_as_xyz
	x,y,z

loop_
	_atom_site_label
	_atom_site_type_symbol
	_atom_site_fract_x
	_atom_site_fract_y
	_atom_site_fract_z
	H0	H	0.399738	0.827216	0.727799
	H1	H	0.605020	0.153416	0.724332
	H2	H	0.603047	0.826456	0.291286
	H3	H	0.401907	0.153682	0.294406
	H4	H	0.720808	0.384833	0.849797
	H5	H	0.718655	0.591750	0.172701
	H6	H	0.281094	0.594702	0.848085
	H7	H	0.279918	0.384118	0.170636
	H8	H	0.837949	0.705431	0.408439
	H9	H	0.161402	0.708436	0.612475
	H10	H	0.837445	0.272618	0.607894
	H11	H	0.162698	0.274564	0.407824
	H12	H	0.839745	0.381506	0.729073
	H13	H	0.161475	0.592560	0.728506
	H14	H	0.838727	0.590218	0.291871
	H15	H	0.160844	0.385191	0.291336
	H16	H	0.401101	0.706474	0.846108
	H17	H	0.599573	0.706107	0.172555
	H18	H	0.600687	0.274083	0.847382
	H19	H	0.397957	0.271741	0.171961
	H20	H	0.716538	0.824913	0.407563
	H21	H	0.717348	0.152775	0.607583
	H22	H	0.281910	0.827359	0.614765
	H23	H	0.285276	0.152744	0.406403
	H24	H	0.898596	0.324131	0.226557
	H25	H	0.101404	0.651454	0.226045
	H26	H	0.101550	0.324321	0.794234
	H27	H	0.898864	0.651021	0.791404
	H28	H	0.218420	0.888020	0.347562
	H29	H	0.219081	0.093187	0.670547
	H30	H	0.784586	0.090111	0.345874
	H31	H	0.780980	0.885742	0.672195
	H32	H	0.337323	0.205243	0.909597
	H33	H	0.662574	0.206771	0.108703
	H34	H	0.337269	0.772852	0.110285
	H35	H	0.662746	0.774486	0.908600
	H36	H	0.339161	0.886174	0.229381
	H37	H	0.663268	0.091921	0.224547
	H38	H	0.341046	0.095896	0.788458
	H39	H	0.663219	0.888802	0.793181
	H40	H	0.903687	0.202769	0.344727
	H41	H	0.099637	0.204416	0.671426
	H42	H	0.099713	0.774417	0.346940
	H43	H	0.898761	0.771475	0.672590
	H44	H	0.218500	0.325864	0.906070
	H45	H	0.216238	0.652192	0.110723
	H46	H	0.782967	0.324514	0.112896
	H47	H	0.785718	0.652622	0.909946
	H48	H	0.410096	0.106401	0.598760
	H49	H	0.592537	0.869834	0.607075
	H50	H	0.589167	0.104503	0.418986
	H51	H	0.415021	0.873659	0.418414
	H52	H	0.588016	0.401300	0.124438
	H53	H	0.602099	0.569660	0.896540
	H54	H	0.418790	0.574704	0.119841
	H55	H	0.406312	0.395907	0.892332
	H56	H	0.113896	0.575169	0.416572
	H57	H	0.885393	0.577984	0.600518
	H58	H	0.111748	0.408482	0.596227
	H59	H	0.882064	0.395891	0.412580
	H60	H	0.120052	0.397282	0.614356
	H61	H	0.885974	0.576930	0.600168
	H62	H	0.117406	0.582264	0.415414
	H63	H	0.882504	0.391916	0.421369
	H64	H	0.406696	0.593226	0.128391
	H65	H	0.581256	0.579774	0.898922
	H66	H	0.589998	0.394690	0.126050
	H67	H	0.406757	0.404881	0.894595
	H68	H	0.598469	0.107138	0.420305
	H69	H	0.585722	0.874482	0.599770
	H70	H	0.411067	0.107268	0.600586
	H71	H	0.410575	0.874543	0.424809
	H72	H	0.910290	0.605927	0.102409
	H73	H	0.082964	0.376186	0.094466
	H74	H	0.093060	0.605141	0.919343
	H75	H	0.908814	0.375651	0.929307
	H76	H	0.097083	0.906485	0.624251
	H77	H	0.090537	0.082456	0.392583
	H78	H	0.908603	0.074225	0.621491
	H79	H	0.910838	0.897148	0.395194
	H80	H	0.615581	0.081686	0.916640
	H81	H	0.383969	0.083106	0.102288
	H82	H	0.618754	0.891180	0.103721
	H83	H	0.384731	0.899502	0.919324
	H84	H	0.612881	0.899715	0.093240
	H85	H	0.386808	0.077933	0.099686
	H86	H	0.616462	0.083080	0.916710
	H87	H	0.385670	0.901648	0.918794
	H88	H	0.912255	0.084756	0.624100
	H89	H	0.098058	0.083231	0.391546
	H90	H	0.083044	0.899811	0.622207
	H91	H	0.907282	0.896748	0.393144
	H92	H	0.087471	0.604787	0.916467
	H93	H	0.101332	0.369344	0.096787
	H94	H	0.909085	0.604131	0.100884
	H95	H	0.900854	0.366940	0.915638
	H96	H	0.411926	0.105733	0.599091
	H97	H	0.595430	0.872522	0.596836
	H98	H	0.593680	0.107429	0.410827
	H99	H	0.407391	0.871363	0.417707
	H100	H	0.594803	0.400101	0.126643
	H101	H	0.599014	0.591925	0.888909
	H102	H	0.396182	0.572302	0.125698
	H103	H	0.413763	0.399035	0.896360
	H104	H	0.114506	0.581035	0.422255
	H105	H	0.886024	0.576654	0.601302
	H106	H	0.117490	0.386698	0.594406
	H107	H	0.885041	0.400572	0.419859
	H108	H	0.908367	0.605621	0.102033
	H109	H	0.089233	0.368789	0.111367
	H110	H	0.088488	0.602517	0.921968
	H111	H	0.918052	0.372510	0.914693
	H112	H	0.095022	0.891784	0.628751
	H113	H	0.095601	0.077078	0.393562
	H114	H	0.901721	0.081332	0.626983
	H115	H	0.907896	0.900418	0.394854
	H116	H	0.615808	0.082229	0.918312
	H117	H	0.384559	0.078062	0.105433
	H118	H	0.615359	0.905359	0.106040
	H119	H	0.384914	0.899495	0.917136
	C120	C	0.380082	-0.001184	0.631184
	C121	C	0.622180	0.980459	0.630105
	C122	C	0.623022	-0.002005	0.387044
	C123	C	0.381132	0.981302	0.389613
	C124	C	0.621537	0.368035	0.018733
	C125	C	0.623019	0.611257	1.001817
	C126	C	0.378009	0.611258	0.017564
	C127	C	0.378113	0.368087	1.001089
	C128	C	0.008560	0.609944	0.387919
	C129	C	0.992171	0.609192	0.631415
	C130	C	0.009282	0.366224	0.630929
	C131	C	0.990986	0.366844	0.388004
	C132	C	0.878706	0.496822	0.131939
	C133	C	0.121381	0.479599	0.131107
	C134	C	0.121097	0.496699	0.888370
	C135	C	0.878849	0.479520	0.888586
	C136	C	0.122365	0.868360	0.518364
	C137	C	0.123372	0.111361	0.500043
	C138	C	0.878625	0.110235	0.516737
	C139	C	0.877885	0.867087	0.501547
	C140	C	0.509090	0.112981	0.887394
	C141	C	0.492131	0.110830	0.131078
	C142	C	0.508665	0.867581	0.131764
	C143	C	0.492358	0.869625	0.888274
	C144	C	0.379982	0.876059	0.689258
	C145	C	0.623470	0.104019	0.686362
	C146	C	0.622159	0.875013	0.330168
	C147	C	0.382136	0.104498	0.332560
	C148	C	0.680603	0.367087	0.897689
	C149	C	0.679854	0.611296	0.124014
	C150	C	0.320671	0.612524	0.895965
	C151	C	0.319643	0.366481	0.122677
	C152	C	0.886744	0.667057	0.388615
	C153	C	0.113265	0.668561	0.631590
	C154	C	0.886659	0.309603	0.629061
	C155	C	0.113495	0.311612	0.388649
	C156	C	0.887745	0.364171	0.689177
	C157	C	0.113287	0.610964	0.689433
	C158	C	0.887178	0.610026	0.330284
	C159	C	0.112730	0.367056	0.330519
	C160	C	0.380245	0.668449	0.895096
	C161	C	0.620359	0.667780	0.123994
	C162	C	0.620606	0.311784	0.896435
	C163	C	0.378346	0.310165	0.123359
	C164	C	0.678796	0.874244	0.388045
	C165	C	0.679255	0.103915	0.628094
	C166	C	0.321379	0.876214	0.632787
	C167	C	0.323843	0.103875	0.388463
	C168	C	0.879090	0.373359	0.188522
	C169	C	0.120461	0.602814	0.187505
	C170	C	0.121154	0.373509	0.831958
	C171	C	0.879729	0.602247	0.830538
	C172	C	0.179504	0.868655	0.396194
	C173	C	0.179896	0.111587	0.622067
	C174	C	0.822788	0.109368	0.394608
	C175	C	0.819901	0.866645	0.623451
	C176	C	0.386675	0.168345	0.889018
	C177	C	0.614247	0.168167	0.128867
	C178	C	0.386486	0.810418	0.130968
	C179	C	0.614348	0.812739	0.889037
	C180	C	0.387333	0.866868	0.190112
	C181	C	0.614561	0.110860	0.186534
	C182	C	0.388699	0.113848	0.828416
	C183	C	0.614587	0.869678	0.831366
	C184	C	0.881995	0.165692	0.394037
	C185	C	0.120309	0.167071	0.622586
	C186	C	0.120254	0.812212	0.395823
	C187	C	0.878548	0.809572	0.623741
	C188	C	0.179360	0.374413	0.887947
	C189	C	0.177896	0.603162	0.129940
	C190	C	0.821457	0.373687	0.132070
	C191	C	0.823652	0.603253	0.889661
	C192	C	0.403989	0.084224	0.606622
	C193	C	0.598230	0.894567	0.607925
	C194	C	0.600302	0.083987	0.409900
	C195	C	0.404325	0.895445	0.413366
	C196	C	0.597813	0.391725	0.103668
	C197	C	0.600693	0.587456	0.916859
	C198	C	0.400750	0.587294	0.102625
	C199	C	0.402078	0.392672	0.916426
	C200	C	0.093259	0.586333	0.411319
	C201	C	0.907763	0.584317	0.607623
	C202	C	0.094155	0.390385	0.608327
	C203	C	0.905406	0.389652	0.411098
	C204	C	0.902065	0.582903	0.108654
	C205	C	0.097927	0.393866	0.107814
	C206	C	0.096734	0.581933	0.912240
	C207	C	0.902304	0.393857	0.912864
	C208	C	0.098648	0.892312	0.603129
	C209	C	0.101146	0.087965	0.414740
	C210	C	0.900896	0.086883	0.602304
	C211	C	0.901669	0.891158	0.416365
	C212	C	0.594108	0.089312	0.910544
	C213	C	0.407044	0.086727	0.108985
	C214	C	0.593661	0.891635	0.107989
	C215	C	0.407226	0.893344	0.911565
	Zn216	Zn	0.501844	-0.009107	0.759214
	Zn217	Zn	0.500969	-0.009871	0.260114
	Zn218	Zn	0.751192	0.488894	0.011279
	Zn219	Zn	0.249419	0.489034	0.009222
	Zn220	Zn	0.000006	0.738697	0.509885
	Zn221	Zn	0.000504	0.239006	0.508336
	Zn222	Zn	0.000500	0.486980	0.760085
	Zn223	Zn	-0.000151	0.487481	0.259617
	Zn224	Zn	0.500046	0.739921	0.008496
	Zn225	Zn	0.499448	0.240220	0.009823
	Zn226	Zn	0.749340	-0.011249	0.509177
	Zn227	Zn	0.251981	-0.010164	0.509487
	N228	N	0.415479	0.953246	0.688469
	N229	N	0.588679	0.026212	0.687823
	N230	N	0.588227	0.952947	0.329332
	N231	N	0.417248	0.027166	0.333081
	N232	N	0.681350	0.401271	0.974846
	N233	N	0.681641	0.576887	0.047014
	N234	N	0.318936	0.578104	0.973187
	N235	N	0.319266	0.401712	0.045783
	N236	N	0.963308	0.667163	0.423630
	N237	N	0.036925	0.667690	0.596293
	N238	N	0.963214	0.310519	0.593614
	N239	N	0.036821	0.311598	0.423840
	N240	N	0.964827	0.398837	0.690569
	N241	N	0.036892	0.574762	0.689457
	N242	N	0.963961	0.575237	0.329668
	N243	N	0.035435	0.400712	0.329800
	N244	N	0.415241	0.667796	0.971675
	N245	N	0.585714	0.667917	0.047184
	N246	N	0.584637	0.312327	0.972743
	N247	N	0.413946	0.311084	0.046785
	N248	N	0.679348	0.951700	0.422715
	N249	N	0.678582	0.026237	0.593910
	N250	N	0.321073	0.953778	0.597460
	N251	N	0.323360	0.026250	0.423347
	N252	N	0.914206	0.450940	0.188558
	N253	N	0.086083	0.525012	0.188327
	N254	N	0.085810	0.450619	0.831892
	N255	N	0.913440	0.524128	0.830013
	N256	N	0.180877	0.902818	0.473388
	N257	N	0.182085	0.077811	0.544845
	N258	N	0.820742	0.075483	0.471983
	N259	N	0.819409	0.901335	0.546300
	N260	N	0.462862	0.167911	0.924696
	N261	N	0.537168	0.168154	0.095133
	N262	N	0.462945	0.810855	0.095395
	N263	N	0.537323	0.812582	0.923525
	N264	N	0.464590	0.901407	0.190935
	N265	N	0.537557	0.075973	0.188136
	N266	N	0.465863	0.079903	0.827558
	N267	N	0.537842	0.904585	0.830837
	N268	N	0.916025	0.166286	0.471107
	N269	N	0.086162	0.167379	0.545450
	N270	N	0.085656	0.811686	0.472911
	N271	N	0.913658	0.809678	0.546994
	N272	N	0.179518	0.452174	0.922184
	N273	N	0.178537	0.525504	0.095446
	N274	N	0.821042	0.451573	0.097718
	N275	N	0.822995	0.526017	0.924953
	O276	O	-0.049528	-0.118562	0.133132
	H277	H	-0.047002	-0.126566	0.137174
	H278	H	-0.040917	-0.107652	0.125257
	O279	O	0.592392	0.594451	0.578632
	H280	H	0.586327	0.604145	0.604032
	H281	H	0.594750	0.590477	0.572979
	O282	O	1.115453	-0.052613	-0.039608
	H283	H	1.110965	-0.064119	-0.044093
	H284	H	1.122466	-0.050593	-0.045729
	O285	O	0.111805	0.992152	0.104549
	H286	H	0.099612	0.980160	0.109914
	H287	H	0.119193	0.986386	0.085691
	O288	O	0.657667	0.545842	0.558204
	H289	H	0.662424	0.566057	0.555761
	H290	H	0.657373	0.549714	0.560820
	O291	O	0.419399	0.458884	0.685347
	H292	H	0.412815	0.456935	0.683809
	H293	H	0.422783	0.464076	0.675928
	O294	O	0.979670	1.082199	1.042533
	H295	H	0.983357	1.080064	1.041643
	H296	H	0.968874	1.079002	1.040655
	O297	O	-0.098402	0.026427	-0.131569
	H298	H	-0.089843	0.018912	-0.142673
	H299	H	-0.089002	0.015139	-0.139944
	O300	O	0.602272	0.402220	0.348846
	H301	H	0.601138	0.401726	0.361029
	H302	H	0.588662	0.390211	0.341753
	O303	O	0.042407	0.952611	1.069737
	H304	H	0.044190	0.954082	1.056386
	H305	H	0.033370	0.949866	1.070436
	O306	O	0.543194	0.354453	0.627380
	H307	H	0.545289	0.356719	0.631708
	H308	H	0.534595	0.361685	0.622582
	O309	O	0.918172	-0.168358	0.102200
	H310	H	0.906639	-0.172859	0.112007
	H311	H	0.925842	-0.161824	0.106218
	O312	O	-0.085345	0.087741	1.083371
	H313	H	-0.095188	0.091169	1.062795
	H314	H	-0.080065	0.090809	1.083807
	O315	O	-0.014783	1.026156	0.025926
	H316	H	-0.013570	1.031418	0.026677
	H317	H	-0.027173	1.033696	0.015461
	O318	O	0.414599	0.375165	0.680107
	H319	H	0.399198	0.389136	0.695090
	H320	H	0.434183	0.380518	0.668188
	O321	O	1.008390	0.022145	-0.087593
	H322	H	1.011399	0.031662	-0.078322
	H323	H	0.994570	0.021814	-0.086946
	O324	O	0.358930	0.395550	0.467400
	H325	H	0.354259	0.389321	0.477103
	H326	H	0.354737	0.400638	0.463386
	O327	O	-0.608145	1.565228	0.461378
	H328	H	-0.622457	1.559702	0.460042
	H329	H	-0.603303	1.575585	0.461725
	O330	O	0.571259	0.602973	0.568895
	H331	H	0.561886	0.610263	0.556983
	H332	H	0.567480	0.599095	0.562973
	O333	O	-0.050142	0.907671	0.926040
	H334	H	-0.061648	0.909222	0.909772
	H335	H	-0.045395	0.909648	0.928890
	O336	O	0.837375	0.979693	1.031044
	H337	H	0.838892	0.981995	1.033348
	H338	H	0.838115	0.975513	1.029811
	O339	O	1.085951	1.013046	-0.000946
	H340	H	1.080762	1.012412	0.003429
	H341	H	1.080756	0.998715	0.002932
	O342	O	1.049510	-0.067898	-0.042549
	H343	H	1.042668	-0.063159	-0.056213
	H344	H	1.053468	-0.063298	-0.041357
	O345	O	0.359391	0.505288	0.661112
	H346	H	0.359787	0.489885	0.660182
	H347	H	0.355489	0.507441	0.657492
	O348	O	1.573451	1.569126	0.667730
	H349	H	1.551009	1.564278	0.668041
	H350	H	1.574754	1.585071	0.666847
	O351	O	0.703148	0.804134	-0.303647
	H352	H	0.700183	0.789975	-0.300113
	H353	H	0.707073	0.813960	-0.318164
	O354	O	0.601581	0.476767	0.433251
	H355	H	0.602318	0.465489	0.438551
	H356	H	0.605613	0.474218	0.425108
	O357	O	0.614595	0.400237	0.542726
	H358	H	0.623131	0.425457	0.553701
	H359	H	0.610578	0.383756	0.539895
	O360	O	0.005825	0.071088	0.006514
	H361	H	0.008302	0.062715	0.002029
	H362	H	0.012730	0.076568	0.002668
	O363	O	0.565335	0.528771	0.432103
	H364	H	0.567571	0.531591	0.429088
	H365	H	0.570746	0.516622	0.436009
	O366	O	0.409537	0.314322	0.539487
	H367	H	0.417021	0.332179	0.555942
	H368	H	0.407340	0.305817	0.552058
	O369	O	0.326770	0.597809	0.535828
	H370	H	0.322090	0.592840	0.522831
	H371	H	0.336079	0.608301	0.526358
	O372	O	0.614764	0.550441	0.572875
	H373	H	0.615191	0.555020	0.576804
	H374	H	0.619451	0.528352	0.570119
	O375	O	0.458650	0.631085	0.407895
	H376	H	0.453633	0.627140	0.393850
	H377	H	0.470995	0.622451	0.407510
	O378	O	0.397124	0.418490	0.499363
	H379	H	0.398178	0.408908	0.505272
	H380	H	0.410661	0.406868	0.492241
	O381	O	0.427176	0.588642	0.352327
	H382	H	0.429068	0.597286	0.337499
	H383	H	0.429048	0.587221	0.352265
	O384	O	-0.014506	0.975537	0.091335
	H385	H	-0.016161	0.978031	0.107097
	H386	H	-0.019221	0.975405	0.089009
	O387	O	0.618052	0.447955	1.429006
	H388	H	0.619815	0.435548	1.416980
	H389	H	0.625813	0.442049	1.423863
	O390	O	0.040323	1.032234	-0.072560
	H391	H	0.045599	1.038322	-0.074784
	H392	H	0.037934	1.027051	-0.073797
	O393	O	1.079538	0.861812	0.041542
	H394	H	1.084207	0.869982	0.047735
	H395	H	1.086060	0.870070	0.049370
	O396	O	0.398279	0.588363	0.393677
	H397	H	0.401806	0.591106	0.396341
	H398	H	0.390046	0.601190	0.372563
	O399	O	0.031355	0.968176	0.951324
	H400	H	0.030787	0.958080	0.957810
	H401	H	0.040159	0.965963	0.964662
	O402	O	1.136913	0.941672	0.903087
	H403	H	1.129831	0.947192	0.915451
	H404	H	1.134250	0.939011	0.893926
	O405	O	0.430309	0.460197	0.370772
	H406	H	0.425498	0.468175	0.391205
	H407	H	0.428773	0.457180	0.371938
