data_Molecule from HDF5

_cell_length_a		16.534532
_cell_length_b		16.542563
_cell_length_c		16.636015
_cell_angle_alpha	89.967033
_cell_angle_beta	89.942276
_cell_angle_gamma	90.080365
_symmetry_space_group_name_H-M	'P 1'
_symmetry_Int_Tables_number		1

loop_
	_symmetry_equiv_pos_as_xyz
	x,y,z

loop_
	_atom_site_label
	_atom_site_type_symbol
	_atom_site_fract_x
	_atom_site_fract_y
	_atom_site_fract_z
	H0	H	0.409194	0.836556	0.734390
	H1	H	0.616776	0.150926	0.734324
	H2	H	0.618952	0.839738	0.291058
	H3	H	0.406460	0.149949	0.293866
	H4	H	0.735468	0.386606	0.859277
	H5	H	0.734092	0.599886	0.169605
	H6	H	0.289154	0.602510	0.859108
	H7	H	0.285056	0.385323	0.166853
	H8	H	0.854565	0.712739	0.411181
	H9	H	0.168459	0.715399	0.618228
	H10	H	0.856057	0.270693	0.620993
	H11	H	0.168472	0.272177	0.407644
	H12	H	0.856670	0.386469	0.737208
	H13	H	0.166751	0.600676	0.736160
	H14	H	0.854615	0.597213	0.294671
	H15	H	0.168265	0.388618	0.291412
	H16	H	0.406835	0.718050	0.858921
	H17	H	0.618436	0.717041	0.169383
	H18	H	0.620639	0.268082	0.861326
	H19	H	0.400418	0.267593	0.166473
	H20	H	0.733385	0.837786	0.409120
	H21	H	0.733113	0.151497	0.618142
	H22	H	0.290803	0.837704	0.620432
	H23	H	0.293357	0.151056	0.413141
	H24	H	0.909833	0.337279	0.233089
	H25	H	0.116925	0.652022	0.233770
	H26	H	0.122724	0.340882	0.787743
	H27	H	0.906691	0.650232	0.792242
	H28	H	0.233457	0.891236	0.358186
	H29	H	0.233832	0.100095	0.670226
	H30	H	0.793449	0.095705	0.357598
	H31	H	0.791593	0.888561	0.670953
	H32	H	0.356563	0.218353	0.905233
	H33	H	0.666637	0.217654	0.120499
	H34	H	0.355870	0.773544	0.119186
	H35	H	0.670544	0.776610	0.912575
	H36	H	0.355165	0.889541	0.235810
	H37	H	0.665534	0.103520	0.238763
	H38	H	0.357504	0.102413	0.789400
	H39	H	0.670120	0.890248	0.794407
	H40	H	0.910289	0.213463	0.357469
	H41	H	0.117944	0.216696	0.669525
	H42	H	0.116855	0.774386	0.357564
	H43	H	0.906611	0.771055	0.669672
	H44	H	0.237465	0.341395	0.904208
	H45	H	0.232550	0.651997	0.116906
	H46	H	0.793623	0.337025	0.116097
	H47	H	0.792295	0.651670	0.910562
	H48	H	0.426952	0.104556	0.601501
	H49	H	0.604649	0.880474	0.606323
	H50	H	0.595941	0.105231	0.424526
	H51	H	0.422710	0.881554	0.426763
	H52	H	0.595034	0.408125	0.123597
	H53	H	0.604042	0.577912	0.904328
	H54	H	0.423804	0.579655	0.122964
	H55	H	0.421317	0.411893	0.903423
	H56	H	0.128055	0.587370	0.417846
	H57	H	0.902143	0.578853	0.599142
	H58	H	0.123891	0.409225	0.603668
	H59	H	0.899786	0.408098	0.422524
	H60	H	0.124609	0.404013	0.601571
	H61	H	0.899436	0.580342	0.605742
	H62	H	0.125711	0.587131	0.426622
	H63	H	0.899097	0.401789	0.422851
	H64	H	0.426206	0.586961	0.124896
	H65	H	0.594607	0.587201	0.903364
	H66	H	0.600870	0.401686	0.126949
	H67	H	0.431052	0.411688	0.907533
	H68	H	0.602215	0.104953	0.431355
	H69	H	0.599441	0.882263	0.605651
	H70	H	0.420423	0.106931	0.602517
	H71	H	0.422963	0.880691	0.423689
	H72	H	0.920323	0.608541	0.103702
	H73	H	0.102046	0.381010	0.104236
	H74	H	0.093104	0.605899	0.921466
	H75	H	0.920662	0.379730	0.919080
	H76	H	0.096938	0.901664	0.625061
	H77	H	0.102356	0.085425	0.402419
	H78	H	0.921758	0.081816	0.626040
	H79	H	0.922337	0.903010	0.401673
	H80	H	0.621405	0.081952	0.931355
	H81	H	0.398738	0.083487	0.101281
	H82	H	0.625805	0.904544	0.104957
	H83	H	0.399685	0.905704	0.923408
	H84	H	0.623152	0.907082	0.101068
	H85	H	0.400625	0.078701	0.101362
	H86	H	0.622013	0.077551	0.923579
	H87	H	0.399456	0.904574	0.924211
	H88	H	0.924487	0.082715	0.625696
	H89	H	0.104851	0.080800	0.403204
	H90	H	0.105193	0.902388	0.627903
	H91	H	0.921321	0.904144	0.401439
	H92	H	0.095358	0.602436	0.932883
	H93	H	0.096709	0.383662	0.104020
	H94	H	0.924308	0.607954	0.106455
	H95	H	0.930969	0.384694	0.925269
	H96	H	0.424703	0.106944	0.607354
	H97	H	0.602852	0.881834	0.601065
	H98	H	0.604924	0.108145	0.423295
	H99	H	0.425542	0.881756	0.425358
	H100	H	0.604001	0.409831	0.125562
	H101	H	0.606927	0.589853	0.899419
	H102	H	0.418956	0.583838	0.126977
	H103	H	0.426884	0.403154	0.903137
	H104	H	0.124619	0.579663	0.421702
	H105	H	0.899325	0.584885	0.600286
	H106	H	0.121422	0.407991	0.598688
	H107	H	0.901528	0.404606	0.427870
	H108	H	0.923544	0.606682	0.101368
	H109	H	0.099974	0.383747	0.099618
	H110	H	0.104808	0.607190	0.926357
	H111	H	0.919988	0.382591	0.931844
	H112	H	0.100820	0.909304	0.624082
	H113	H	0.099645	0.081231	0.403823
	H114	H	0.922704	0.084443	0.626867
	H115	H	0.922192	0.903994	0.403311
	H116	H	0.625519	0.085033	0.924167
	H117	H	0.399242	0.081073	0.106052
	H118	H	0.624279	0.909689	0.105704
	H119	H	0.400236	0.905842	0.925095
	C120	C	0.391946	0.002580	0.636034
	C121	C	0.634397	0.985479	0.635758
	C122	C	0.633068	0.002811	0.393728
	C123	C	0.391674	0.985399	0.394307
	C124	C	0.633204	0.372822	0.023074
	C125	C	0.633996	0.616552	1.005505
	C126	C	0.390580	0.616636	0.022402
	C127	C	0.390509	0.373749	1.005634
	C128	C	0.021491	0.615948	0.391287
	C129	C	1.003383	0.614599	0.634039
	C130	C	0.020488	0.373011	0.635000
	C131	C	1.003972	0.373075	0.392320
	C132	C	0.891007	0.503372	0.135276
	C133	C	0.133016	0.486229	0.134749
	C134	C	0.132449	0.503104	0.892646
	C135	C	0.890838	0.485521	0.892550
	C136	C	0.133493	0.873048	0.522482
	C137	C	0.134216	0.115578	0.505953
	C138	C	0.891289	0.114834	0.522521
	C139	C	0.890725	0.872094	0.506008
	C140	C	0.520384	0.115523	0.892859
	C141	C	0.502204	0.115535	0.135886
	C142	C	0.520956	0.874090	0.136169
	C143	C	0.503798	0.873235	0.892834
	C144	C	0.390298	0.883968	0.695057
	C145	C	0.635538	0.103842	0.694585
	C146	C	0.636596	0.886044	0.331928
	C147	C	0.388989	0.103377	0.334628
	C148	C	0.694801	0.368827	0.906290
	C149	C	0.694253	0.618763	0.122590
	C150	C	0.329847	0.620026	0.905611
	C151	C	0.326538	0.368296	0.120673
	C152	C	0.902214	0.673936	0.391425
	C153	C	0.121274	0.675081	0.636472
	C154	C	0.903079	0.311549	0.638477
	C155	C	0.121770	0.312809	0.389659
	C156	C	0.903291	0.369103	0.696423
	C157	C	0.120664	0.618280	0.695151
	C158	C	0.902101	0.616352	0.333636
	C159	C	0.121494	0.370510	0.331861
	C160	C	0.388141	0.677797	0.905691
	C161	C	0.636341	0.676663	0.122696
	C162	C	0.637679	0.309894	0.907155
	C163	C	0.383842	0.309692	0.120659
	C164	C	0.693464	0.885037	0.390466
	C165	C	0.693799	0.103886	0.637169
	C166	C	0.331594	0.884406	0.638377
	C167	C	0.332865	0.104068	0.393830
	C168	C	0.890332	0.384602	0.193639
	C169	C	0.135381	0.604647	0.194068
	C170	C	0.138919	0.387357	0.829298
	C171	C	0.888345	0.603430	0.832446
	C172	C	0.193652	0.872012	0.405141
	C173	C	0.193943	0.118272	0.623405
	C174	C	0.832815	0.115354	0.404551
	C175	C	0.831387	0.870213	0.623868
	C176	C	0.403557	0.177561	0.888040
	C177	C	0.619597	0.177306	0.138811
	C178	C	0.402784	0.813514	0.138228
	C179	C	0.622808	0.815194	0.892658
	C180	C	0.402551	0.871133	0.196022
	C181	C	0.619200	0.120511	0.197519
	C182	C	0.403972	0.119771	0.830406
	C183	C	0.622739	0.871984	0.834148
	C184	C	0.890752	0.173563	0.404413
	C185	C	0.136172	0.176202	0.622932
	C186	C	0.135612	0.813885	0.404790
	C187	C	0.888495	0.811586	0.623105
	C188	C	0.196037	0.387359	0.887320
	C189	C	0.192667	0.604816	0.135839
	C190	C	0.832748	0.384404	0.135551
	C191	C	0.831391	0.604049	0.890995
	C192	C	0.416776	0.084661	0.611028
	C193	C	0.609495	0.902917	0.611263
	C194	C	0.608168	0.084733	0.419389
	C195	C	0.416526	0.902835	0.418395
	C196	C	0.607334	0.399221	0.104172
	C197	C	0.609038	0.591843	0.923776
	C198	C	0.415763	0.590691	0.103745
	C199	C	0.418601	0.401101	0.925406
	C200	C	0.104509	0.591885	0.415052
	C201	C	0.921706	0.588660	0.608909
	C202	C	0.102153	0.399368	0.608641
	C203	C	0.921552	0.397833	0.417491
	C204	C	0.915577	0.586188	0.110792
	C205	C	0.107214	0.404154	0.109651
	C206	C	0.105310	0.584017	0.919460
	C207	C	0.916415	0.403633	0.918109
	C208	C	0.108233	0.897494	0.604277
	C209	C	0.109289	0.090154	0.424310
	C210	C	0.915929	0.090200	0.604767
	C211	C	0.914984	0.896828	0.423805
	C212	C	0.601781	0.089316	0.919035
	C213	C	0.420712	0.088793	0.110249
	C214	C	0.603035	0.899866	0.111285
	C215	C	0.421245	0.898104	0.917310
	Zn216	Zn	0.512766	-0.005884	0.764520
	Zn217	Zn	0.511831	-0.005481	0.265022
	Zn218	Zn	0.762542	0.494842	0.014002
	Zn219	Zn	0.261257	0.495260	0.013221
	Zn220	Zn	0.012071	0.743450	0.513393
	Zn221	Zn	0.012564	0.244285	0.513436
	Zn222	Zn	0.011856	0.494249	0.763772
	Zn223	Zn	0.012454	0.494218	0.263622
	Zn224	Zn	0.512338	0.745862	0.014860
	Zn225	Zn	0.510744	0.243904	0.014321
	Zn226	Zn	0.762108	-0.006670	0.514581
	Zn227	Zn	0.263092	-0.005846	0.515439
	N228	N	0.426607	0.958512	0.694059
	N229	N	0.599548	0.029084	0.693975
	N230	N	0.599891	0.960367	0.333686
	N231	N	0.424856	0.028677	0.334885
	N232	N	0.692222	0.407347	0.979381
	N233	N	0.692587	0.581662	0.048831
	N234	N	0.331264	0.582771	0.979310
	N235	N	0.330655	0.407378	0.048119
	N236	N	0.977457	0.673955	0.426461
	N237	N	0.047378	0.673073	0.599388
	N238	N	0.977118	0.313732	0.600889
	N239	N	0.047660	0.314355	0.426761
	N240	N	0.977421	0.406404	0.694530
	N241	N	0.046439	0.581199	0.693800
	N242	N	0.977426	0.581269	0.333108
	N243	N	0.047216	0.407344	0.333396
	N244	N	0.425387	0.675623	0.979259
	N245	N	0.599569	0.675532	0.048954
	N246	N	0.600125	0.312094	0.980783
	N247	N	0.423054	0.313079	0.047976
	N248	N	0.691437	0.958629	0.428356
	N249	N	0.693012	0.029133	0.601287
	N250	N	0.332446	0.959105	0.602290
	N251	N	0.334159	0.029429	0.429991
	N252	N	0.925420	0.459855	0.193728
	N253	N	0.099335	0.529840	0.193788
	N254	N	0.100090	0.460540	0.832417
	N255	N	0.924345	0.528656	0.833005
	N256	N	0.192561	0.908011	0.479487
	N257	N	0.192889	0.081275	0.549661
	N258	N	0.832871	0.079961	0.479265
	N259	N	0.832484	0.907000	0.549961
	N260	N	0.476884	0.174983	0.926337
	N261	N	0.545834	0.174349	0.101126
	N262	N	0.477432	0.814971	0.101863
	N263	N	0.547740	0.815741	0.928267
	N264	N	0.477019	0.907968	0.194911
	N265	N	0.545149	0.083044	0.195938
	N266	N	0.477604	0.081842	0.833223
	N267	N	0.547628	0.907315	0.834019
	N268	N	0.926237	0.173401	0.478992
	N269	N	0.099789	0.174815	0.548780
	N270	N	0.099046	0.814335	0.478869
	N271	N	0.924577	0.812625	0.548859
	N272	N	0.192200	0.460506	0.925905
	N273	N	0.191652	0.530039	0.099992
	N274	N	0.832858	0.459559	0.100118
	N275	N	0.832557	0.529576	0.927358
	O276	O	-0.024348	0.777728	0.232014
	H277	H	-0.012112	0.774093	0.234284
	H278	H	-0.021638	0.764321	0.241269
	O279	O	0.640145	0.298158	0.637797
	H280	H	0.630659	0.314035	0.636927
	H281	H	0.655837	0.290276	0.638154
	O282	O	1.143953	-0.077112	1.185831
	H283	H	1.151768	-0.074828	1.169788
	H284	H	1.145388	-0.095912	1.180385
	O285	O	0.595395	0.456516	0.732878
	H286	H	0.582014	0.470140	0.719094
	H287	H	0.595210	0.454997	0.739217
	O288	O	0.807774	0.202205	0.809910
	H289	H	0.817289	0.198867	0.810198
	H290	H	0.803832	0.196246	0.851177
	O291	O	0.300654	0.323894	0.523309
	H292	H	0.288052	0.327969	0.515824
	H293	H	0.308645	0.321072	0.505763
	O294	O	1.011908	0.083110	1.191687
	H295	H	1.012114	0.093423	1.178168
	H296	H	1.005766	0.074571	1.193318
	O297	O	-0.007716	1.077297	0.950767
	H298	H	-0.005318	1.075005	0.942317
	H299	H	0.008303	1.085077	0.953646
	O300	O	0.143356	0.029526	1.163328
	H301	H	0.127060	0.021097	1.168670
	H302	H	0.146435	0.032737	1.164902
	O303	O	0.687292	0.675994	0.324309
	H304	H	0.666146	0.662085	0.339139
	H305	H	0.669840	0.663714	0.343831
	O306	O	0.537540	0.391161	0.462617
	H307	H	0.533094	0.398013	0.458868
	H308	H	0.557811	0.403038	0.463329
	O309	O	0.470908	0.585280	0.738490
	H310	H	0.470833	0.583093	0.730781
	H311	H	0.471318	0.574481	0.730654
	O312	O	0.719206	0.286623	0.302799
	H313	H	0.727001	0.301941	0.333143
	H314	H	0.744365	0.261024	0.291876
	O315	O	1.270578	1.251423	1.273046
	H316	H	1.291862	1.265024	1.284893
	H317	H	1.267647	1.219557	1.268679
	O318	O	0.697837	0.489480	0.487685
	H319	H	0.708886	0.497011	0.478895
	H320	H	0.688988	0.484968	0.503188
	O321	O	0.698827	0.483083	0.512740
	H322	H	0.681614	0.475030	0.506258
	H323	H	0.700231	0.495994	0.531008
	O324	O	1.061254	0.942801	0.014134
	H325	H	1.068595	0.961630	0.018487
	H326	H	1.063253	0.946598	0.009771
	O327	O	0.156572	-0.224681	0.793970
	H328	H	0.170510	-0.236578	0.787110
	H329	H	0.141281	-0.238805	0.786682
	O330	O	0.466986	0.714790	0.566218
	H331	H	0.455141	0.719400	0.555574
	H332	H	0.459409	0.719849	0.581711
	O333	O	0.486502	0.286527	0.735268
	H334	H	0.481672	0.266588	0.757042
	H335	H	0.474773	0.290926	0.723742
	O336	O	0.290706	0.715431	0.493856
	H337	H	0.269661	0.740173	0.473678
	H338	H	0.289558	0.707102	0.462475
	O339	O	1.006342	-0.163424	0.801220
	H340	H	1.005046	-0.158249	0.803439
	H341	H	1.007431	-0.172114	0.795242
	O342	O	0.131643	-0.149303	0.187492
	H343	H	0.141029	-0.149409	0.183522
	H344	H	0.121955	-0.135042	0.163613
	O345	O	-0.513607	1.707356	1.294694
	H346	H	-0.505857	1.715714	1.287363
	H347	H	-0.523563	1.706624	1.286763
	O348	O	0.008827	-0.181187	-0.005321
	H349	H	0.003659	-0.177262	-0.009732
	H350	H	0.027646	-0.180180	-0.020384
	O351	O	0.295594	0.528111	0.293487
	H352	H	0.287285	0.521137	0.278010
	H353	H	0.307091	0.512090	0.278169
	O354	O	0.421611	0.418955	1.288206
	H355	H	0.437361	0.428400	1.294674
	H356	H	0.426834	0.385358	1.287672
	O357	O	0.200932	0.185171	-0.151799
	H358	H	0.207771	0.200388	-0.161421
	H359	H	0.213105	0.202059	-0.147048
	O360	O	0.061168	-0.186962	0.897817
	H361	H	0.068351	-0.188901	0.905398
	H362	H	0.045694	-0.179473	0.911949
	O363	O	-0.030687	0.201639	0.031407
	H364	H	-0.013929	0.211745	0.024806
	H365	H	-0.061613	0.204532	0.017192
	O366	O	0.735597	0.273157	0.475760
	H367	H	0.732593	0.292684	0.494173
	H368	H	0.760649	0.244309	0.483837
	O369	O	0.862858	-0.061680	0.014265
	H370	H	0.866435	-0.055708	0.013905
	H371	H	0.876673	-0.066749	0.012482
	O372	O	0.844239	0.855474	-0.146656
	H373	H	0.849872	0.860048	-0.143165
	H374	H	0.848938	0.872565	-0.119349
	O375	O	0.960239	0.188972	-0.204347
	H376	H	0.942498	0.166444	-0.202842
	H377	H	0.959268	0.207258	-0.231908
	O378	O	0.232899	0.945754	0.063262
	H379	H	0.231944	0.950953	0.060421
	H380	H	0.234821	0.964306	0.035400
	O381	O	-0.199248	0.972276	1.222594
	H382	H	-0.194273	0.958818	1.227642
	H383	H	-0.203495	0.945930	1.238439
	O384	O	0.501567	0.323923	0.551613
	H385	H	0.515308	0.320190	0.543888
	H386	H	0.508758	0.313141	0.547094
	O387	O	0.730438	0.551200	-0.262135
	H388	H	0.729350	0.552258	-0.257145
	H389	H	0.727877	0.549461	-0.243914
	O390	O	0.311286	0.459428	0.726329
	H391	H	0.311831	0.457638	0.730937
	H392	H	0.298179	0.469674	0.727350
	O393	O	0.532905	0.277892	0.290763
	H394	H	0.556114	0.263297	0.280020
	H395	H	0.563820	0.267605	0.287879
	O396	O	0.047280	0.945128	1.099309
	H397	H	0.056120	0.937827	1.097713
	H398	H	0.030052	0.948859	1.102664
	O399	O	0.120662	0.184713	1.208571
	H400	H	0.114305	0.188609	1.204693
	H401	H	0.133048	0.176890	1.221918
	O402	O	0.726135	0.674259	0.534597
	H403	H	0.733313	0.684028	0.546256
	H404	H	0.729316	0.682105	0.546722
	O405	O	1.214852	0.046757	0.925861
	H406	H	1.223070	0.073617	0.912832
	H407	H	1.214143	0.049007	0.912696
	O408	O	-0.044429	-0.041104	-0.156667
	H409	H	-0.039499	-0.038271	-0.154239
	H410	H	-0.050702	-0.035883	-0.155654
	O411	O	0.482327	0.525570	0.438544
	H412	H	0.478606	0.532206	0.443231
	H413	H	0.481954	0.508030	0.437990
	O414	O	0.822002	0.184192	0.205839
	H415	H	0.813264	0.163628	0.199366
	H416	H	0.843062	0.174382	0.185482
	O417	O	0.588388	0.703526	0.456232
	H418	H	0.563497	0.700892	0.468630
	H419	H	0.604794	0.715979	0.469971
	O420	O	0.312813	0.695328	0.310776
	H421	H	0.321809	0.659401	0.306311
	H422	H	0.318069	0.699714	0.299489
	O423	O	0.317069	0.460958	0.454344
	H424	H	0.312129	0.476467	0.428705
	H425	H	0.321559	0.466465	0.466533
	O426	O	0.690608	0.416746	0.347725
	H427	H	0.697686	0.395916	0.354099
	H428	H	0.703208	0.409373	0.346864
	O429	O	1.304333	1.289669	0.722755
	H430	H	1.303834	1.297849	0.683053
	H431	H	1.321867	1.313393	0.716229
	O432	O	0.504348	0.313663	0.616189
	H433	H	0.516319	0.294211	0.615956
	H434	H	0.487875	0.323717	0.611686
	O435	O	0.180675	0.985008	-0.104560
	H436	H	0.185789	1.004320	-0.108232
	H437	H	0.177356	0.988924	-0.126659
	O438	O	0.043925	0.160155	-0.021905
	H439	H	0.053909	0.163361	-0.031743
	H440	H	0.034205	0.162579	-0.034625
	O441	O	-0.211821	0.020716	-0.185468
	H442	H	-0.216023	0.040390	-0.189825
	H443	H	-0.223460	0.021293	-0.205446
	O444	O	-0.196171	0.069353	0.059113
	H445	H	-0.184916	0.043684	0.059066
	H446	H	-0.196474	0.046630	0.067055
	O447	O	0.167164	1.004570	0.788723
	H448	H	0.168515	0.995155	0.783330
	H449	H	0.177817	0.997299	0.781328
	O450	O	-0.146904	0.848450	1.006227
	H451	H	-0.148428	0.852157	1.025908
	H452	H	-0.160089	0.843324	1.016677
	O453	O	0.430094	0.416806	0.449387
	H454	H	0.447227	0.428176	0.443709
	H455	H	0.435236	0.425792	0.458697
	O456	O	0.223613	0.208565	1.054043
	H457	H	0.237415	0.222870	1.064132
	H458	H	0.219981	0.215186	1.070374
	O459	O	0.604325	0.486556	0.477452
	H460	H	0.593973	0.487760	0.475763
	H461	H	0.593387	0.494520	0.473667
	O462	O	0.537428	0.476566	0.318511
	H463	H	0.536185	0.478529	0.327148
	H464	H	0.540621	0.458425	0.311755
	O465	O	0.797469	0.207821	-0.022000
	H466	H	0.781441	0.187379	0.001775
	H467	H	0.781612	0.219439	-0.010960
	O468	O	-0.075036	0.902942	0.066943
	H469	H	-0.075640	0.901805	0.065675
	H470	H	-0.053785	0.892562	0.076756
	O471	O	0.552994	0.524257	0.547092
	H472	H	0.546604	0.528429	0.531524
	H473	H	0.553417	0.495449	0.540863
	O474	O	-0.424203	1.711022	-0.266251
	H475	H	-0.441468	1.713433	-0.251653
	H476	H	-0.410631	1.713521	-0.263370
	O477	O	0.217750	0.792667	0.986553
	H478	H	0.209408	0.797928	0.978789
	H479	H	0.229194	0.787553	0.983627
	O480	O	0.709739	0.673691	0.660958
	H481	H	0.725565	0.702563	0.683060
	H482	H	0.704375	0.642232	0.666774
	O483	O	0.332799	0.659498	0.668687
	H484	H	0.344667	0.660327	0.651042
	H485	H	0.339553	0.661401	0.672265
	O486	O	1.309607	-0.455220	0.561950
	H487	H	1.318781	-0.443920	0.564378
	H488	H	1.309232	-0.450419	0.566090
	O489	O	0.809849	0.795637	0.215842
	H490	H	0.841277	0.788190	0.221567
	H491	H	0.789216	0.773335	0.233131
