data_Molecule from HDF5

_cell_length_a		16.225613
_cell_length_b		16.231256
_cell_length_c		15.975988
_cell_angle_alpha	86.896658
_cell_angle_beta	92.892346
_cell_angle_gamma	86.930972
_symmetry_space_group_name_H-M	'P 1'
_symmetry_Int_Tables_number		1

loop_
	_symmetry_equiv_pos_as_xyz
	x,y,z

loop_
	_atom_site_label
	_atom_site_type_symbol
	_atom_site_fract_x
	_atom_site_fract_y
	_atom_site_fract_z
	H0	H	0.420315	0.836505	0.717349
	H1	H	0.591760	0.167621	0.706841
	H2	H	0.593545	0.830832	0.311220
	H3	H	0.380953	0.161675	0.264885
	H4	H	0.709535	0.404732	0.829917
	H5	H	0.716800	0.580613	0.163694
	H6	H	0.266791	0.619126	0.835103
	H7	H	0.307062	0.400512	0.169146
	H8	H	0.837598	0.734742	0.379309
	H9	H	0.165513	0.696529	0.603979
	H10	H	0.831951	0.290238	0.597676
	H11	H	0.160895	0.278089	0.418046
	H12	H	0.831228	0.406698	0.709391
	H13	H	0.163234	0.576604	0.718441
	H14	H	0.837075	0.617913	0.268192
	H15	H	0.168424	0.402620	0.310513
	H16	H	0.378894	0.734164	0.836000
	H17	H	0.597252	0.688843	0.169300
	H18	H	0.595892	0.291223	0.829527
	H19	H	0.420005	0.280191	0.164790
	H20	H	0.722367	0.840248	0.412804
	H21	H	0.707862	0.167095	0.594521
	H22	H	0.301356	0.834150	0.601702
	H23	H	0.264090	0.162466	0.377312
	H24	H	0.922750	0.335748	0.218859
	H25	H	0.094144	0.668166	0.208522
	H26	H	0.095709	0.330722	0.812203
	H27	H	0.881918	0.661370	0.766504
	H28	H	0.206790	0.906935	0.329173
	H29	H	0.217127	0.083243	0.663565
	H30	H	0.766485	0.119419	0.334390
	H31	H	0.805110	0.902244	0.668698
	H32	H	0.339520	0.236453	0.876327
	H33	H	0.666985	0.191298	0.100202
	H34	H	0.332007	0.788756	0.095856
	H35	H	0.661762	0.777905	0.915902
	H36	H	0.330540	0.904834	0.207545
	H37	H	0.663290	0.073446	0.215912
	H38	H	0.337142	0.116894	0.767808
	H39	H	0.667400	0.902622	0.807707
	H40	H	0.880137	0.233913	0.335952
	H41	H	0.093921	0.188008	0.670904
	H42	H	0.096054	0.790711	0.330221
	H43	H	0.914829	0.780492	0.663515
	H44	H	0.222012	0.338612	0.915984
	H45	H	0.210843	0.667061	0.096954
	H46	H	0.805314	0.332538	0.101699
	H47	H	0.765751	0.661788	0.880078
	H48	H	0.394563	0.121255	0.579163
	H49	H	0.613330	0.880707	0.605701
	H50	H	0.578318	0.119918	0.400913
	H51	H	0.417938	0.884371	0.407830
	H52	H	0.599518	0.392939	0.115320
	H53	H	0.581567	0.592889	0.877704
	H54	H	0.408397	0.585457	0.119083
	H55	H	0.402445	0.423051	0.878762
	H56	H	0.122504	0.594888	0.399430
	H57	H	0.885227	0.594011	0.569087
	H58	H	0.117254	0.387285	0.611957
	H59	H	0.881570	0.418254	0.409125
	H60	H	0.117222	0.386894	0.608689
	H61	H	0.879008	0.592641	0.586727
	H62	H	0.120100	0.601577	0.415105
	H63	H	0.881460	0.427789	0.401527
	H64	H	0.411814	0.594961	0.120850
	H65	H	0.571224	0.596210	0.879689
	H66	H	0.608597	0.382117	0.120920
	H67	H	0.404503	0.424178	0.879375
	H68	H	0.578373	0.119886	0.399185
	H69	H	0.602242	0.882923	0.610935
	H70	H	0.404409	0.118068	0.578966
	H71	H	0.396744	0.882557	0.421328
	H72	H	0.898085	0.619259	0.075393
	H73	H	0.105526	0.382946	0.110287
	H74	H	0.081214	0.620389	0.901454
	H75	H	0.911316	0.381743	0.911874
	H76	H	0.103343	0.893703	0.618286
	H77	H	0.068960	0.096187	0.381011
	H78	H	0.919279	0.103593	0.621127
	H79	H	0.904864	0.929770	0.381557
	H80	H	0.627002	0.104707	0.897762
	H81	H	0.378334	0.106724	0.076360
	H82	H	0.611489	0.901162	0.102988
	H83	H	0.383808	0.921652	0.912808
	H84	H	0.620297	0.885611	0.124592
	H85	H	0.383545	0.095958	0.069439
	H86	H	0.616116	0.095447	0.921736
	H87	H	0.380462	0.927775	0.896097
	H88	H	0.887816	0.100246	0.628474
	H89	H	0.076866	0.106445	0.375465
	H90	H	0.105307	0.895746	0.617190
	H91	H	0.907171	0.916061	0.377855
	H92	H	0.074721	0.618381	0.901509
	H93	H	0.107848	0.384540	0.105122
	H94	H	0.899514	0.619293	0.080570
	H95	H	0.900216	0.378287	0.912572
	H96	H	0.398629	0.117826	0.570997
	H97	H	0.603498	0.885460	0.599020
	H98	H	0.576853	0.119946	0.400097
	H99	H	0.396435	0.874289	0.396824
	H100	H	0.613191	0.394961	0.118986
	H101	H	0.578299	0.603362	0.876137
	H102	H	0.402148	0.593168	0.123200
	H103	H	0.404017	0.421848	0.879095
	H104	H	0.115698	0.584537	0.411436
	H105	H	0.878885	0.608711	0.576488
	H106	H	0.116171	0.389094	0.609858
	H107	H	0.877252	0.416887	0.398850
	H108	H	0.902162	0.617278	0.076651
	H109	H	0.112366	0.381499	0.109276
	H110	H	0.078777	0.617496	0.907192
	H111	H	0.905504	0.377834	0.903362
	H112	H	0.101455	0.895025	0.616599
	H113	H	0.081104	0.094007	0.377698
	H114	H	0.904439	0.074148	0.615914
	H115	H	0.894289	0.923041	0.375247
	H116	H	0.617007	0.078983	0.900906
	H117	H	0.378829	0.093150	0.083030
	H118	H	0.618342	0.874697	0.100307
	H119	H	0.377575	0.911222	0.900500
	C120	C	0.380166	0.009856	0.613577
	C121	C	0.626774	0.992856	0.626496
	C122	C	0.612566	0.010213	0.381509
	C123	C	0.368458	0.989578	0.370781
	C124	C	0.628231	0.370209	0.006808
	C125	C	0.612080	0.616074	0.989158
	C126	C	0.371062	0.627920	0.010454
	C127	C	0.383879	0.386386	0.989797
	C128	C	0.010109	0.629543	0.371876
	C129	C	0.989993	0.617580	0.614750
	C130	C	0.006167	0.369960	0.629630
	C131	C	0.989826	0.385830	0.383903
	C132	C	0.881612	0.509186	0.114709
	C133	C	0.128966	0.492958	0.129158
	C134	C	0.113805	0.509342	0.883410
	C135	C	0.870260	0.488839	0.872271
	C136	C	0.125515	0.873624	0.506097
	C137	C	0.110660	0.117314	0.489539
	C138	C	0.868824	0.128957	0.510652
	C139	C	0.881683	0.887067	0.489056
	C140	C	0.510828	0.128796	0.870239
	C141	C	0.490203	0.115785	0.112599
	C142	C	0.506086	0.868731	0.129001
	C143	C	0.489927	0.884794	0.882620
	C144	C	0.394699	0.885609	0.676720
	C145	C	0.615692	0.117899	0.672970
	C146	C	0.614162	0.882503	0.341176
	C147	C	0.363196	0.112557	0.305770
	C148	C	0.675019	0.381539	0.879871
	C149	C	0.674943	0.603708	0.114822
	C150	C	0.307058	0.635689	0.885352
	C151	C	0.340105	0.381996	0.118053
	C152	C	0.886910	0.693781	0.363624
	C153	C	0.115293	0.662369	0.620925
	C154	C	0.881185	0.324856	0.619907
	C155	C	0.113100	0.321080	0.395256
	C156	C	0.880833	0.382627	0.675531
	C157	C	0.114181	0.602708	0.677983
	C158	C	0.886438	0.635086	0.308624
	C159	C	0.116837	0.383212	0.341582
	C160	C	0.363220	0.692801	0.885730
	C161	C	0.615464	0.657660	0.117539
	C162	C	0.619068	0.324789	0.879878
	C163	C	0.395833	0.321807	0.115399
	C164	C	0.678208	0.887220	0.391474
	C165	C	0.673308	0.117651	0.617133
	C166	C	0.335473	0.884345	0.619022
	C167	C	0.305064	0.113228	0.361923
	C168	C	0.896937	0.384674	0.178138
	C169	C	0.117647	0.618389	0.174646
	C170	C	0.116010	0.382136	0.842371
	C171	C	0.865058	0.612326	0.808059
	C172	C	0.173082	0.883257	0.379644
	C173	C	0.174275	0.105310	0.614988
	C174	C	0.806588	0.136200	0.384805
	C175	C	0.837666	0.883349	0.617219
	C176	C	0.388106	0.194186	0.861468
	C177	C	0.616446	0.158091	0.117685
	C178	C	0.381265	0.823058	0.118639
	C179	C	0.613586	0.820664	0.893317
	C180	C	0.380687	0.880736	0.174329
	C181	C	0.614365	0.099680	0.175560
	C182	C	0.386615	0.134402	0.807642
	C183	C	0.616474	0.882975	0.839522
	C184	C	0.863174	0.193046	0.385700
	C185	C	0.113109	0.157555	0.618764
	C186	C	0.117717	0.825738	0.380097
	C187	C	0.892480	0.822908	0.614547
	C188	C	0.178725	0.386192	0.894066
	C189	C	0.176082	0.617540	0.119299
	C190	C	0.838576	0.382815	0.119676
	C191	C	0.806297	0.612337	0.863795
	C192	C	0.394674	0.096679	0.584713
	C193	C	0.611291	0.905656	0.610188
	C194	C	0.585689	0.097423	0.395734
	C195	C	0.395682	0.902930	0.400308
	C196	C	0.612247	0.385216	0.095227
	C197	C	0.584919	0.601714	0.900676
	C198	C	0.399298	0.599366	0.098276
	C199	C	0.399152	0.414668	0.902056
	C200	C	0.096946	0.601805	0.400608
	C201	C	0.903517	0.602902	0.585768
	C202	C	0.093949	0.383429	0.614849
	C203	C	0.902710	0.413117	0.398612
	C204	C	0.895515	0.596225	0.085963
	C205	C	0.113419	0.405667	0.113296
	C206	C	0.086122	0.596243	0.898755
	C207	C	0.897705	0.401735	0.900926
	C208	C	0.108682	0.889844	0.594319
	C209	C	0.083561	0.103123	0.401007
	C210	C	0.895943	0.100838	0.598907
	C211	C	0.897299	0.914808	0.400947
	C212	C	0.597598	0.100982	0.898613
	C213	C	0.402899	0.102643	0.084358
	C214	C	0.593845	0.882761	0.114010
	C215	C	0.403055	0.912209	0.898470
	Zn216	Zn	0.501385	0.004081	0.748791
	Zn217	Zn	0.494190	-0.004153	0.249331
	Zn218	Zn	0.746338	0.497432	-0.004477
	Zn219	Zn	0.249909	0.504135	0.002054
	Zn220	Zn	0.001629	0.752444	0.495321
	Zn221	Zn	-0.005733	0.249226	0.503267
	Zn222	Zn	-0.004272	0.496244	0.750364
	Zn223	Zn	0.002397	0.504589	0.250118
	Zn224	Zn	0.495606	0.748436	0.002212
	Zn225	Zn	0.502581	0.250791	-0.005389
	Zn226	Zn	0.747843	0.004651	0.500702
	Zn227	Zn	0.245190	-0.000998	0.494683
	N228	N	0.421421	0.964899	0.673627
	N229	N	0.587744	0.039364	0.679427
	N230	N	0.573693	0.959728	0.334952
	N231	N	0.401734	0.034721	0.311402
	N232	N	0.681145	0.408995	0.959803
	N233	N	0.673029	0.578647	0.033875
	N234	N	0.311760	0.595921	0.964250
	N235	N	0.332572	0.421802	0.039193
	N236	N	0.965132	0.690304	0.402505
	N237	N	0.037281	0.671718	0.581983
	N238	N	0.960093	0.316364	0.592410
	N239	N	0.033053	0.322375	0.420606
	N240	N	0.959547	0.409793	0.682099
	N241	N	0.035201	0.575755	0.674497
	N242	N	0.964188	0.595951	0.313621
	N243	N	0.039291	0.423081	0.334527
	N244	N	0.402034	0.688153	0.964551
	N245	N	0.576667	0.665229	0.038525
	N246	N	0.590787	0.317298	0.959603
	N247	N	0.422296	0.324569	0.034738
	N248	N	0.677101	0.967532	0.415897
	N249	N	0.680563	0.038957	0.589083
	N250	N	0.326264	0.962475	0.580271
	N251	N	0.308128	0.035359	0.401831
	N252	N	0.922765	0.464336	0.175008
	N253	N	0.089333	0.539889	0.181350
	N254	N	0.075974	0.459651	0.835477
	N255	N	0.903719	0.534302	0.812878
	N256	N	0.178317	0.911998	0.458961
	N257	N	0.172898	0.081245	0.533517
	N258	N	0.810020	0.096930	0.463845
	N259	N	0.830807	0.922908	0.538286
	N260	N	0.466424	0.190625	0.899814
	N261	N	0.538279	0.168224	0.078930
	N262	N	0.460375	0.814853	0.091442
	N263	N	0.533749	0.821610	0.919305
	N264	N	0.459218	0.908083	0.181247
	N265	N	0.534681	0.074218	0.172626
	N266	N	0.464125	0.094615	0.812657
	N267	N	0.538760	0.922478	0.832973
	N268	N	0.901113	0.188572	0.465016
	N269	N	0.074017	0.165165	0.539804
	N270	N	0.089163	0.819210	0.459872
	N271	N	0.918977	0.824972	0.533808
	N272	N	0.177687	0.466398	0.918587
	N273	N	0.183722	0.538613	0.091931
	N274	N	0.828944	0.460992	0.080773
	N275	N	0.809647	0.534313	0.903260
	O276	O	0.077935	0.008485	0.072459
	H277	H	0.071403	0.010949	0.053035
	H278	H	0.093680	0.012614	0.076215
	O279	O	0.377466	0.613587	0.497355
	H280	H	0.379706	0.623001	0.489215
	H281	H	0.380522	0.607331	0.475197
	O282	O	0.542190	0.540935	0.547996
	H283	H	0.544797	0.542420	0.553483
	H284	H	0.539557	0.531129	0.541956
	O285	O	0.059196	1.059776	0.942554
	H286	H	0.051090	1.069223	0.931670
	H287	H	0.050084	1.054827	0.947150
	O288	O	0.504212	0.449058	0.537191
	H289	H	0.496345	0.457549	0.527718
	H290	H	0.510214	0.465679	0.532695
	O291	O	1.015900	0.973893	0.937876
	H292	H	1.004722	0.978558	0.938056
	H293	H	1.003541	0.984974	0.928771
	O294	O	0.931172	1.122128	0.910449
	H295	H	0.925324	1.118175	0.915098
	H296	H	0.927731	1.128482	0.909611
	O297	O	0.999481	0.052651	1.045043
	H298	H	0.995732	0.048023	1.052979
	H299	H	1.000780	0.050072	1.039435
	O300	O	0.525347	0.500219	0.451952
	H301	H	0.520021	0.492863	0.458286
	H302	H	0.514388	0.505105	0.441374
	O303	O	0.982805	-0.100917	0.044175
	H304	H	0.975076	-0.093503	0.036896
	H305	H	0.978099	-0.102032	0.050304
	O306	O	0.032508	0.986857	0.987835
	H307	H	0.026707	1.001130	0.980268
	H308	H	0.033707	0.990811	0.977884
	O309	O	0.461916	0.602139	0.538167
	H310	H	0.466446	0.603873	0.532690
	H311	H	0.457275	0.603309	0.539404
	O312	O	1.010522	0.030283	1.006568
	H313	H	1.015304	0.020124	1.002669
	H314	H	1.012073	0.025270	1.005846
	O315	O	0.487167	0.500360	0.582879
	H316	H	0.478939	0.501563	0.588306
	H317	H	0.483403	0.508900	0.578084
	O318	O	0.552442	0.459099	0.545261
	H319	H	0.545198	0.450580	0.533922
	H320	H	0.544917	0.465207	0.537484
	O321	O	0.952238	0.979084	0.927530
	H322	H	0.943301	0.995857	0.929457
	H323	H	0.942976	0.986248	0.917761
	O324	O	0.443037	0.375951	0.472398
	H325	H	0.429811	0.378914	0.480532
	H326	H	0.439151	0.381030	0.466367
	O327	O	0.484837	0.647968	0.486119
	H328	H	0.497761	0.653777	0.481787
	H329	H	0.488428	0.659815	0.480733
	O330	O	0.951317	0.000417	0.959377
	H331	H	0.962896	-0.010945	0.954815
	H332	H	0.950167	0.006406	0.946782
	O333	O	0.934890	0.992238	-0.069906
	H334	H	0.940002	0.987675	-0.065424
	H335	H	0.939542	0.983371	-0.066945
	O336	O	0.413824	0.423443	0.532643
	H337	H	0.410198	0.398252	0.550766
	H338	H	0.403705	0.445519	0.528231
	O339	O	0.513252	0.486450	0.617340
	H340	H	0.521470	0.484239	0.615314
	H341	H	0.506409	0.465970	0.617318
	O342	O	-0.025844	1.091986	-0.036829
	H343	H	-0.031682	1.102304	-0.033272
	H344	H	-0.029562	1.094169	-0.027168
	O345	O	-0.021466	-0.002006	0.012525
	H346	H	-0.021653	0.003848	0.010310
	H347	H	-0.019778	-0.003554	0.009468
	O348	O	0.342574	0.530920	0.368341
	H349	H	0.348184	0.538691	0.361172
	H350	H	0.322102	0.549229	0.351445
	O351	O	0.532978	0.399807	0.408606
	H352	H	0.526426	0.404914	0.401836
	H353	H	0.523517	0.399271	0.405904
	O354	O	0.553334	0.451120	0.439474
	H355	H	0.547855	0.452950	0.449163
	H356	H	0.560420	0.436595	0.443436
	O357	O	0.615882	0.582169	0.494175
	H358	H	0.625194	0.576062	0.502050
	H359	H	0.616980	0.584826	0.510998
	O360	O	-0.048586	0.020082	0.038500
	H361	H	-0.047574	0.021108	0.033752
	H362	H	-0.054746	0.006878	0.039170
	O363	O	0.452697	0.632934	0.333735
	H364	H	0.474843	0.627664	0.338899
	H365	H	0.454634	0.651288	0.318805
	O366	O	0.069860	-0.126868	0.909445
	H367	H	0.076060	-0.125964	0.907387
	H368	H	0.084039	-0.123156	0.909449
	O369	O	0.510003	0.487424	0.468678
	H370	H	0.505834	0.483597	0.477151
	H371	H	0.505245	0.493823	0.473709
