data_Molecule from HDF5

_cell_length_a		16.263464
_cell_length_b		16.186496
_cell_length_c		16.215262
_cell_angle_alpha	89.924338
_cell_angle_beta	89.867602
_cell_angle_gamma	90.062862
_symmetry_space_group_name_H-M	'P 1'
_symmetry_Int_Tables_number		1

loop_
	_symmetry_equiv_pos_as_xyz
	x,y,z

loop_
	_atom_site_label
	_atom_site_type_symbol
	_atom_site_fract_x
	_atom_site_fract_y
	_atom_site_fract_z
	H0	H	0.402995	0.840589	0.717376
	H1	H	0.599498	0.169489	0.715825
	H2	H	0.600148	0.840162	0.289525
	H3	H	0.404460	0.170028	0.290686
	H4	H	0.717615	0.406672	0.839853
	H5	H	0.719870	0.605297	0.167311
	H6	H	0.289841	0.605103	0.839466
	H7	H	0.287966	0.404863	0.167840
	H8	H	0.837539	0.718917	0.406058
	H9	H	0.166321	0.719810	0.601091
	H10	H	0.838585	0.292312	0.602889
	H11	H	0.166330	0.291598	0.404952
	H12	H	0.839354	0.406623	0.719798
	H13	H	0.166895	0.605566	0.717338
	H14	H	0.839729	0.605366	0.287847
	H15	H	0.167091	0.408748	0.290862
	H16	H	0.406487	0.718375	0.839155
	H17	H	0.601725	0.719279	0.168875
	H18	H	0.602470	0.292300	0.840019
	H19	H	0.405068	0.291583	0.169036
	H20	H	0.718709	0.841054	0.403105
	H21	H	0.716085	0.169583	0.602149
	H22	H	0.285354	0.841897	0.604819
	H23	H	0.289016	0.170435	0.405532
	H24	H	0.904999	0.340296	0.218858
	H25	H	0.101639	0.670652	0.216161
	H26	H	0.102096	0.341103	0.790436
	H27	H	0.907148	0.670641	0.791956
	H28	H	0.216278	0.907138	0.340098
	H29	H	0.215407	0.105232	0.668101
	H30	H	0.786961	0.105352	0.339850
	H31	H	0.786899	0.905804	0.668633
	H32	H	0.339606	0.220228	0.906647
	H33	H	0.667437	0.218165	0.101478
	H34	H	0.339108	0.790211	0.102897
	H35	H	0.667708	0.792944	0.905629
	H36	H	0.337947	0.905458	0.217346
	H37	H	0.666082	0.103147	0.217920
	H38	H	0.338498	0.103466	0.790635
	H39	H	0.666393	0.907051	0.788244
	H40	H	0.904594	0.219904	0.339100
	H41	H	0.099290	0.219264	0.668392
	H42	H	0.099810	0.793008	0.339460
	H43	H	0.901836	0.790290	0.668620
	H44	H	0.218207	0.341542	0.904714
	H45	H	0.218327	0.669916	0.101970
	H46	H	0.789031	0.339543	0.103747
	H47	H	0.789805	0.669391	0.906014
	H48	H	0.406609	0.123857	0.597737
	H49	H	0.591480	0.885086	0.607331
	H50	H	0.590110	0.119294	0.414728
	H51	H	0.405411	0.886756	0.411825
	H52	H	0.593782	0.410749	0.120445
	H53	H	0.612989	0.595269	0.883454
	H54	H	0.412364	0.598822	0.121169
	H55	H	0.414863	0.411470	0.887108
	H56	H	0.118207	0.600382	0.415369
	H57	H	0.885408	0.598304	0.598024
	H58	H	0.121475	0.408345	0.597543
	H59	H	0.884619	0.411588	0.410049
	H60	H	0.118058	0.414148	0.592822
	H61	H	0.886270	0.597560	0.596980
	H62	H	0.119201	0.595874	0.406332
	H63	H	0.887078	0.413346	0.413682
	H64	H	0.408390	0.599980	0.122241
	H65	H	0.587085	0.587437	0.892798
	H66	H	0.599316	0.409788	0.123467
	H67	H	0.407951	0.411075	0.885234
	H68	H	0.601024	0.123207	0.412957
	H69	H	0.585086	0.891942	0.588400
	H70	H	0.408620	0.124059	0.598342
	H71	H	0.409440	0.887114	0.408713
	H72	H	0.911537	0.621761	0.096913
	H73	H	0.093649	0.388067	0.099595
	H74	H	0.100282	0.623342	0.913343
	H75	H	0.911225	0.386822	0.906563
	H76	H	0.102840	0.911334	0.624441
	H77	H	0.102724	0.096493	0.385010
	H78	H	0.905355	0.101127	0.621828
	H79	H	0.913901	0.918839	0.389866
	H80	H	0.619714	0.101917	0.913394
	H81	H	0.384471	0.099211	0.098364
	H82	H	0.621089	0.909781	0.098707
	H83	H	0.387795	0.912799	0.915638
	H84	H	0.618576	0.912470	0.092575
	H85	H	0.385508	0.099950	0.096292
	H86	H	0.618471	0.093965	0.909089
	H87	H	0.386180	0.914915	0.907201
	H88	H	0.906942	0.095771	0.620763
	H89	H	0.090379	0.093937	0.389004
	H90	H	0.091460	0.921577	0.618364
	H91	H	0.912575	0.906977	0.386689
	H92	H	0.098693	0.625177	0.907280
	H93	H	0.096151	0.389015	0.093622
	H94	H	0.912001	0.621102	0.094873
	H95	H	0.913010	0.388750	0.914773
	H96	H	0.408079	0.122688	0.596287
	H97	H	0.604843	0.885620	0.590983
	H98	H	0.592545	0.123556	0.404591
	H99	H	0.409551	0.889300	0.413862
	H100	H	0.597580	0.415434	0.121615
	H101	H	0.592006	0.613631	0.883706
	H102	H	0.409259	0.595262	0.120018
	H103	H	0.410112	0.417180	0.888542
	H104	H	0.122239	0.605252	0.406987
	H105	H	0.885747	0.597109	0.598732
	H106	H	0.119807	0.415144	0.599986
	H107	H	0.885463	0.415271	0.410715
	H108	H	0.909424	0.621960	0.095124
	H109	H	0.100052	0.386536	0.098379
	H110	H	0.093564	0.622614	0.911247
	H111	H	0.906360	0.386074	0.912058
	H112	H	0.087703	0.905389	0.621288
	H113	H	0.093910	0.105966	0.384869
	H114	H	0.911426	0.099778	0.620824
	H115	H	0.902804	0.914528	0.385529
	H116	H	0.622544	0.101162	0.904652
	H117	H	0.385936	0.098607	0.097032
	H118	H	0.618499	0.916424	0.099084
	H119	H	0.384476	0.906595	0.909800
	C120	C	0.379176	0.014414	0.626326
	C121	C	0.622781	0.996687	0.624068
	C122	C	0.623867	0.013502	0.381740
	C123	C	0.380400	0.996782	0.382811
	C124	C	0.625115	0.383888	0.012895
	C125	C	0.625562	0.627231	0.995321
	C126	C	0.382079	0.626672	0.012303
	C127	C	0.382168	0.384082	0.995688
	C128	C	0.011075	0.628282	0.381482
	C129	C	0.993833	0.627372	0.625966
	C130	C	0.011471	0.384176	0.626088
	C131	C	0.994012	0.384669	0.382500
	C132	C	0.882075	0.512880	0.125134
	C133	C	0.125300	0.496712	0.125450
	C134	C	0.125855	0.514627	0.882114
	C135	C	0.881712	0.496308	0.882466
	C136	C	0.122820	0.884435	0.512806
	C137	C	0.123521	0.127340	0.495095
	C138	C	0.880133	0.127350	0.512350
	C139	C	0.880375	0.883762	0.495754
	C140	C	0.511739	0.127612	0.881390
	C141	C	0.493934	0.127069	0.125416
	C142	C	0.510908	0.883880	0.125306
	C143	C	0.494419	0.883491	0.881674
	C144	C	0.382152	0.890061	0.680281
	C145	C	0.620357	0.120304	0.678747
	C146	C	0.620856	0.889311	0.327269
	C147	C	0.383631	0.120637	0.328056
	C148	C	0.679898	0.386435	0.888931
	C149	C	0.680944	0.625244	0.118899
	C150	C	0.327194	0.625071	0.888574
	C151	C	0.326603	0.385544	0.119035
	C152	C	0.887111	0.682086	0.384851
	C153	C	0.117428	0.682454	0.622442
	C154	C	0.887704	0.329859	0.623462
	C155	C	0.117444	0.329698	0.384593
	C156	C	0.888245	0.386277	0.681824
	C157	C	0.117637	0.625617	0.680092
	C158	C	0.887961	0.625317	0.326434
	C159	C	0.117787	0.387865	0.327794
	C160	C	0.385369	0.681183	0.888268
	C161	C	0.622172	0.681699	0.119501
	C162	C	0.622685	0.329715	0.888929
	C163	C	0.384824	0.329009	0.119570
	C164	C	0.679654	0.889866	0.383831
	C165	C	0.677897	0.120463	0.621849
	C166	C	0.323885	0.890659	0.624094
	C167	C	0.326000	0.120857	0.385051
	C168	C	0.884427	0.389201	0.180674
	C169	C	0.122229	0.621238	0.179226
	C170	C	0.122614	0.390296	0.828019
	C171	C	0.885705	0.620912	0.828854
	C172	C	0.178263	0.886992	0.388998
	C173	C	0.178003	0.125294	0.618950
	C174	C	0.825083	0.125492	0.388598
	C175	C	0.824620	0.885459	0.619639
	C176	C	0.388388	0.182335	0.885397
	C177	C	0.618267	0.180682	0.122237
	C178	C	0.387787	0.828273	0.122721
	C179	C	0.618253	0.829660	0.884593
	C180	C	0.387350	0.885370	0.180102
	C181	C	0.617358	0.123964	0.180313
	C182	C	0.387801	0.124179	0.828065
	C183	C	0.617790	0.886452	0.826408
	C184	C	0.883513	0.182377	0.388317
	C185	C	0.120076	0.181847	0.619214
	C186	C	0.120363	0.830282	0.388736
	C187	C	0.882197	0.828254	0.619626
	C188	C	0.180497	0.390534	0.884609
	C189	C	0.180240	0.620813	0.122279
	C190	C	0.826621	0.389013	0.123664
	C191	C	0.827503	0.620411	0.885473
	C192	C	0.401485	0.101173	0.604199
	C193	C	0.600386	0.909883	0.601981
	C194	C	0.601226	0.099788	0.404139
	C195	C	0.401865	0.910020	0.404994
	C196	C	0.603193	0.405359	0.099400
	C197	C	0.603836	0.605307	0.908803
	C198	C	0.403676	0.604483	0.098704
	C199	C	0.404572	0.406590	0.909330
	C200	C	0.097458	0.606887	0.403104
	C201	C	0.907887	0.604715	0.604189
	C202	C	0.097462	0.406077	0.603525
	C203	C	0.907853	0.406819	0.404965
	C204	C	0.904408	0.599430	0.102402
	C205	C	0.103128	0.410235	0.103609
	C206	C	0.103918	0.601296	0.903926
	C207	C	0.903542	0.409506	0.904669
	C208	C	0.100550	0.906272	0.599098
	C209	C	0.102011	0.105386	0.408597
	C210	C	0.901552	0.105512	0.598805
	C211	C	0.903071	0.906704	0.409871
	C212	C	0.597898	0.105565	0.902652
	C213	C	0.407638	0.105761	0.103332
	C214	C	0.597152	0.906371	0.103423
	C215	C	0.408346	0.905230	0.904065
	Zn216	Zn	0.502106	0.004911	0.752894
	Zn217	Zn	0.501479	0.005143	0.253736
	Zn218	Zn	0.753514	0.504460	0.004106
	Zn219	Zn	0.253871	0.505564	0.003652
	Zn220	Zn	0.001877	0.755401	0.504061
	Zn221	Zn	0.002258	0.255545	0.503937
	Zn222	Zn	0.003926	0.505744	0.754460
	Zn223	Zn	0.002972	0.505691	0.253455
	Zn224	Zn	0.503176	0.755209	0.004026
	Zn225	Zn	0.504142	0.256042	0.004252
	Zn226	Zn	0.751864	0.004928	0.503920
	Zn227	Zn	0.251618	0.005886	0.504569
	N228	N	0.415935	0.968090	0.681734
	N229	N	0.586623	0.042344	0.679999
	N230	N	0.586988	0.967195	0.325943
	N231	N	0.416581	0.042374	0.326411
	N232	N	0.681488	0.419651	0.967040
	N233	N	0.683073	0.592173	0.040900
	N234	N	0.325165	0.591687	0.966760
	N235	N	0.324926	0.419122	0.041170
	N236	N	0.964697	0.683704	0.418451
	N237	N	0.039632	0.683436	0.589352
	N238	N	0.965321	0.328446	0.589288
	N239	N	0.039665	0.327512	0.417858
	N240	N	0.966088	0.419567	0.683304
	N241	N	0.039966	0.591764	0.682426
	N242	N	0.966094	0.592787	0.324154
	N243	N	0.039785	0.421271	0.326369
	N244	N	0.418586	0.682410	0.966087
	N245	N	0.588372	0.683062	0.041650
	N246	N	0.589438	0.327931	0.966945
	N247	N	0.418724	0.327919	0.041659
	N248	N	0.681472	0.968023	0.417102
	N249	N	0.679518	0.042300	0.588665
	N250	N	0.322116	0.968985	0.591118
	N251	N	0.323903	0.042688	0.418678
	N252	N	0.918204	0.467163	0.181681
	N253	N	0.088463	0.543214	0.181122
	N254	N	0.089416	0.468466	0.826337
	N255	N	0.918886	0.542647	0.827050
	N256	N	0.179838	0.920150	0.467070
	N257	N	0.180172	0.092123	0.540930
	N258	N	0.822661	0.092168	0.466742
	N259	N	0.823366	0.919322	0.541706
	N260	N	0.466316	0.184415	0.918131
	N261	N	0.540592	0.182853	0.088962
	N262	N	0.465577	0.827121	0.089239
	N263	N	0.540613	0.827742	0.918442
	N264	N	0.464923	0.919547	0.181625
	N265	N	0.539064	0.091644	0.182679
	N266	N	0.465425	0.090850	0.825574
	N267	N	0.539895	0.919454	0.824641
	N268	N	0.916862	0.183731	0.466211
	N269	N	0.086998	0.183370	0.541212
	N270	N	0.086626	0.828544	0.466574
	N271	N	0.916092	0.826926	0.541716
	N272	N	0.182664	0.468892	0.917525
	N273	N	0.182192	0.542533	0.089619
	N274	N	0.825051	0.467164	0.089743
	N275	N	0.824989	0.541919	0.918010
	O276	O	0.488659	0.459303	0.462337
	H277	H	0.486837	0.468701	0.457738
	H278	H	0.495490	0.447541	0.456262
	O279	O	-0.024239	-0.066865	0.091860
	H280	H	-0.031937	-0.071341	0.088338
	H281	H	-0.024063	-0.060382	0.094252
	O282	O	0.518600	0.487584	0.467277
	H283	H	0.517863	0.489920	0.473922
	H284	H	0.522795	0.492141	0.470219
	O285	O	0.503800	0.452992	0.514908
	H286	H	0.519136	0.451574	0.509624
	H287	H	0.507430	0.450987	0.510057
	O288	O	0.967648	-0.049672	0.072675
	H289	H	0.983807	-0.048895	0.069817
	H290	H	0.969623	-0.055281	0.071362
	O291	O	-0.484772	0.477032	-0.508566
	H292	H	-0.483377	0.472493	-0.508130
	H293	H	-0.488630	0.469800	-0.511724
	O294	O	0.484127	0.494026	0.500322
	H295	H	0.478710	0.486718	0.503754
	H296	H	0.480681	0.493041	0.502835
	O297	O	0.542438	1.458052	-0.501364
	H298	H	0.532565	1.465046	-0.491768
	H299	H	0.533285	1.459335	-0.501630
	O300	O	1.011643	-0.060288	1.041635
	H301	H	1.010056	-0.069014	1.040150
	H302	H	1.016046	-0.057717	1.043171
	O303	O	0.489680	0.476981	0.581352
	H304	H	0.487563	0.472912	0.584929
	H305	H	0.490009	0.479908	0.580399
	O306	O	-0.000364	0.925982	1.082189
	H307	H	-0.006846	0.926204	1.090088
	H308	H	-0.007792	0.920457	1.091676
	O309	O	0.453763	0.485496	0.561316
	H310	H	0.443402	0.488638	0.571065
	H311	H	0.466512	0.481589	0.563948
