data_Molecule from HDF5

_cell_length_a		16.341834
_cell_length_b		16.137788
_cell_length_c		16.229401
_cell_angle_alpha	90.044395
_cell_angle_beta	90.157991
_cell_angle_gamma	89.979241
_symmetry_space_group_name_H-M	'P 1'
_symmetry_Int_Tables_number		1

loop_
	_symmetry_equiv_pos_as_xyz
	x,y,z

loop_
	_atom_site_label
	_atom_site_type_symbol
	_atom_site_fract_x
	_atom_site_fract_y
	_atom_site_fract_z
	H0	H	0.403218	0.832688	0.706039
	H1	H	0.597614	0.163805	0.708060
	H2	H	0.596247	0.833202	0.281726
	H3	H	0.401975	0.164327	0.281735
	H4	H	0.713903	0.399239	0.830314
	H5	H	0.714709	0.598972	0.158287
	H6	H	0.283440	0.598069	0.830477
	H7	H	0.285432	0.399135	0.158784
	H8	H	0.834975	0.712770	0.397504
	H9	H	0.162270	0.712416	0.592938
	H10	H	0.835171	0.285341	0.591448
	H11	H	0.162918	0.285602	0.398776
	H12	H	0.835724	0.399140	0.709773
	H13	H	0.161903	0.598361	0.710400
	H14	H	0.835523	0.598206	0.278797
	H15	H	0.162342	0.399541	0.280267
	H16	H	0.403125	0.710588	0.828949
	H17	H	0.595412	0.711197	0.159679
	H18	H	0.596412	0.284790	0.829728
	H19	H	0.404647	0.287426	0.160264
	H20	H	0.713989	0.833925	0.395485
	H21	H	0.713369	0.163653	0.593544
	H22	H	0.284991	0.834442	0.594264
	H23	H	0.284517	0.163067	0.394686
	H24	H	0.903061	0.333551	0.205786
	H25	H	0.095977	0.664284	0.207908
	H26	H	0.096581	0.333721	0.781834
	H27	H	0.901981	0.664447	0.782606
	H28	H	0.213415	0.899574	0.330968
	H29	H	0.215774	0.099109	0.658682
	H30	H	0.783860	0.098277	0.330873
	H31	H	0.783827	0.899203	0.658197
	H32	H	0.335397	0.211728	0.897344
	H33	H	0.663082	0.211572	0.091000
	H34	H	0.335330	0.786095	0.090988
	H35	H	0.662906	0.785455	0.897500
	H36	H	0.335614	0.901760	0.207888
	H37	H	0.662392	0.097611	0.209685
	H38	H	0.336460	0.097689	0.778972
	H39	H	0.663016	0.900645	0.780610
	H40	H	0.902439	0.211622	0.329957
	H41	H	0.094759	0.210415	0.660231
	H42	H	0.095255	0.785325	0.330527
	H43	H	0.903334	0.787548	0.660486
	H44	H	0.213189	0.333808	0.896109
	H45	H	0.213200	0.663742	0.093810
	H46	H	0.785025	0.334224	0.093690
	H47	H	0.783729	0.662777	0.895367
	H48	H	0.405406	0.117487	0.587872
	H49	H	0.586734	0.882206	0.588095
	H50	H	0.596864	0.116531	0.407661
	H51	H	0.409803	0.884384	0.407399
	H52	H	0.602723	0.406604	0.114653
	H53	H	0.601049	0.593579	0.874475
	H54	H	0.404224	0.582815	0.109884
	H55	H	0.410705	0.400166	0.877577
	H56	H	0.114615	0.594797	0.403495
	H57	H	0.881465	0.591139	0.592552
	H58	H	0.118397	0.400458	0.595531
	H59	H	0.886219	0.415410	0.403945
	H60	H	0.113580	0.402839	0.581397
	H61	H	0.881299	0.596385	0.588314
	H62	H	0.112361	0.588790	0.403545
	H63	H	0.878567	0.404516	0.387854
	H64	H	0.413333	0.596773	0.110505
	H65	H	0.591107	0.582572	0.880445
	H66	H	0.588923	0.414017	0.107829
	H67	H	0.397546	0.404395	0.875084
	H68	H	0.594768	0.119169	0.396378
	H69	H	0.595990	0.881364	0.581484
	H70	H	0.408709	0.115809	0.587554
	H71	H	0.398444	0.879173	0.403117
	H72	H	0.911666	0.613878	0.079753
	H73	H	0.088640	0.383252	0.083296
	H74	H	0.091065	0.613178	0.913332
	H75	H	0.913803	0.386535	0.912982
	H76	H	0.093008	0.908116	0.611117
	H77	H	0.092425	0.092241	0.377737
	H78	H	0.904550	0.075998	0.608130
	H79	H	0.917038	0.897383	0.378766
	H80	H	0.617966	0.088600	0.889903
	H81	H	0.379823	0.096157	0.094769
	H82	H	0.615974	0.907168	0.091208
	H83	H	0.382644	0.901167	0.903538
	H84	H	0.616564	0.903161	0.090080
	H85	H	0.382802	0.096083	0.083021
	H86	H	0.619277	0.103860	0.903487
	H87	H	0.384275	0.911068	0.900719
	H88	H	0.918349	0.099012	0.610498
	H89	H	0.094587	0.091784	0.376731
	H90	H	0.093383	0.904223	0.612457
	H91	H	0.892496	0.902245	0.372761
	H92	H	0.102520	0.620918	0.899724
	H93	H	0.100471	0.379004	0.086184
	H94	H	0.897885	0.618402	0.085256
	H95	H	0.891850	0.377289	0.904412
	H96	H	0.407440	0.116207	0.585150
	H97	H	0.597030	0.878088	0.592156
	H98	H	0.587057	0.115287	0.402603
	H99	H	0.409336	0.879258	0.394296
	H100	H	0.588958	0.398027	0.113363
	H101	H	0.586055	0.597427	0.877854
	H102	H	0.397642	0.597427	0.115215
	H103	H	0.407092	0.413361	0.880326
	H104	H	0.116428	0.591208	0.398430
	H105	H	0.883296	0.590521	0.586520
	H106	H	0.113495	0.413546	0.591107
	H107	H	0.881652	0.395029	0.406756
	H108	H	0.910361	0.618190	0.095159
	H109	H	0.091022	0.378781	0.095481
	H110	H	0.084224	0.616328	0.895337
	H111	H	0.911429	0.378650	0.888507
	H112	H	0.096013	0.906403	0.612942
	H113	H	0.093237	0.090379	0.378751
	H114	H	0.892360	0.098127	0.618436
	H115	H	0.907949	0.921344	0.382918
	H116	H	0.611103	0.085296	0.908854
	H117	H	0.383860	0.085840	0.089195
	H118	H	0.615048	0.905099	0.086846
	H119	H	0.380900	0.904089	0.893529
	C120	C	0.378828	0.007309	0.615484
	C121	C	0.621203	0.989965	0.615968
	C122	C	0.620780	0.007383	0.373619
	C123	C	0.377664	0.989993	0.373128
	C124	C	0.621168	0.377227	0.003024
	C125	C	0.621192	0.620494	0.985990
	C126	C	0.377433	0.620577	0.002698
	C127	C	0.377725	0.377557	0.986564
	C128	C	0.006776	0.620580	0.372809
	C129	C	0.990313	0.620802	0.617249
	C130	C	0.007072	0.377098	0.617195
	C131	C	0.990594	0.376650	0.372465
	C132	C	0.878434	0.507583	0.115027
	C133	C	0.121453	0.489803	0.116822
	C134	C	0.120404	0.507444	0.874450
	C135	C	0.877479	0.489948	0.873734
	C136	C	0.121638	0.877267	0.503592
	C137	C	0.121669	0.120353	0.486399
	C138	C	0.877296	0.119952	0.503522
	C139	C	0.877516	0.877958	0.486667
	C140	C	0.507890	0.120750	0.872569
	C141	C	0.490534	0.120648	0.116559
	C142	C	0.507815	0.876719	0.117003
	C143	C	0.490889	0.877075	0.872204
	C144	C	0.382051	0.882600	0.669611
	C145	C	0.618322	0.114372	0.670856
	C146	C	0.617469	0.882727	0.318874
	C147	C	0.380926	0.114779	0.319155
	C148	C	0.675675	0.379237	0.879212
	C149	C	0.676506	0.618880	0.109605
	C150	C	0.321961	0.618034	0.879436
	C151	C	0.323352	0.379317	0.110036
	C152	C	0.883857	0.675312	0.376156
	C153	C	0.113408	0.675138	0.613844
	C154	C	0.884051	0.322823	0.612605
	C155	C	0.113875	0.322655	0.377154
	C156	C	0.884315	0.379224	0.671696
	C157	C	0.113061	0.618493	0.672414
	C158	C	0.884194	0.618444	0.317183
	C159	C	0.113541	0.379394	0.318262
	C160	C	0.381422	0.674046	0.878625
	C161	C	0.617510	0.674925	0.110119
	C162	C	0.617335	0.322419	0.879052
	C163	C	0.382666	0.323846	0.110675
	C164	C	0.675512	0.882964	0.375720
	C165	C	0.675785	0.114394	0.613919
	C166	C	0.323482	0.883288	0.613726
	C167	C	0.322807	0.114045	0.375108
	C168	C	0.881466	0.382960	0.169092
	C169	C	0.117587	0.614590	0.171077
	C170	C	0.116975	0.382808	0.819757
	C171	C	0.880942	0.615024	0.819594
	C172	C	0.175550	0.879525	0.379851
	C173	C	0.177111	0.118696	0.609971
	C174	C	0.821962	0.118530	0.379811
	C175	C	0.822401	0.879928	0.609726
	C176	C	0.384549	0.174962	0.875727
	C177	C	0.614120	0.174423	0.112544
	C178	C	0.384277	0.823137	0.112391
	C179	C	0.614233	0.823079	0.876435
	C180	C	0.384375	0.880285	0.170794
	C181	C	0.614004	0.117466	0.170886
	C182	C	0.384992	0.117709	0.817362
	C183	C	0.614308	0.880106	0.818392
	C184	C	0.881438	0.174074	0.379204
	C185	C	0.117123	0.174007	0.610832
	C186	C	0.116845	0.822886	0.379605
	C187	C	0.881686	0.824410	0.610903
	C188	C	0.175039	0.382930	0.876461
	C189	C	0.175588	0.614417	0.114243
	C190	C	0.822904	0.383495	0.113435
	C191	C	0.822687	0.614328	0.875859
	C192	C	0.400730	0.094158	0.593330
	C193	C	0.599602	0.903020	0.593912
	C194	C	0.599304	0.094351	0.395723
	C195	C	0.399495	0.903341	0.395108
	C196	C	0.599855	0.399548	0.089476
	C197	C	0.599296	0.597860	0.899824
	C198	C	0.398825	0.598836	0.089389
	C199	C	0.398869	0.399459	0.899911
	C200	C	0.092422	0.598309	0.395151
	C201	C	0.904192	0.598972	0.595613
	C202	C	0.093107	0.399183	0.595798
	C203	C	0.904353	0.398490	0.393439
	C204	C	0.900244	0.594520	0.093180
	C205	C	0.099923	0.402788	0.094687
	C206	C	0.098829	0.594399	0.896380
	C207	C	0.899366	0.403296	0.895548
	C208	C	0.100392	0.899596	0.589868
	C209	C	0.099958	0.098016	0.400040
	C210	C	0.898780	0.097694	0.590042
	C211	C	0.899379	0.900233	0.400463
	C212	C	0.593859	0.099041	0.894258
	C213	C	0.404529	0.099157	0.095341
	C214	C	0.593630	0.898472	0.095719
	C215	C	0.404751	0.898831	0.893071
	Zn216	Zn	0.499902	-0.001389	0.743496
	Zn217	Zn	0.498988	-0.001186	0.245677
	Zn218	Zn	0.749655	0.498837	-0.005258
	Zn219	Zn	0.248819	0.498564	-0.004901
	Zn220	Zn	-0.001233	0.749486	0.495321
	Zn221	Zn	-0.000891	0.247865	0.495297
	Zn222	Zn	-0.001176	0.498810	0.746267
	Zn223	Zn	-0.001233	0.498714	0.243525
	Zn224	Zn	0.499607	0.748786	-0.005672
	Zn225	Zn	0.499355	0.249349	-0.005326
	Zn226	Zn	0.748723	-0.000956	0.494658
	Zn227	Zn	0.250254	-0.000822	0.494946
	N228	N	0.415854	0.960795	0.670815
	N229	N	0.585182	0.036072	0.672295
	N230	N	0.583971	0.960996	0.317501
	N231	N	0.414560	0.036747	0.317885
	N232	N	0.678020	0.412734	0.957229
	N233	N	0.678852	0.585700	0.031530
	N234	N	0.319359	0.585531	0.957806
	N235	N	0.320198	0.411900	0.031764
	N236	N	0.961064	0.676653	0.410028
	N237	N	0.036040	0.676704	0.580240
	N238	N	0.961394	0.321543	0.579450
	N239	N	0.036350	0.320835	0.409960
	N240	N	0.961884	0.412456	0.674503
	N241	N	0.035526	0.585254	0.674393
	N242	N	0.961701	0.584948	0.315192
	N243	N	0.036013	0.412439	0.315411
	N244	N	0.415158	0.675539	0.956368
	N245	N	0.583522	0.675740	0.032488
	N246	N	0.583910	0.321402	0.956878
	N247	N	0.415944	0.322763	0.032856
	N248	N	0.677670	0.961509	0.408894
	N249	N	0.677439	0.036120	0.580359
	N250	N	0.321319	0.961827	0.580895
	N251	N	0.320548	0.035524	0.408003
	N252	N	0.915295	0.460979	0.170153
	N253	N	0.084801	0.536010	0.173091
	N254	N	0.083622	0.461114	0.818509
	N255	N	0.914447	0.536637	0.818290
	N256	N	0.178512	0.912689	0.457839
	N257	N	0.179734	0.085954	0.531674
	N258	N	0.819575	0.085343	0.457891
	N259	N	0.820031	0.912647	0.531488
	N260	N	0.461914	0.176764	0.909489
	N261	N	0.536539	0.176348	0.079327
	N262	N	0.461854	0.820916	0.079875
	N263	N	0.536654	0.821206	0.909222
	N264	N	0.462085	0.913050	0.173829
	N265	N	0.536260	0.084780	0.173657
	N266	N	0.462734	0.085074	0.815123
	N267	N	0.536757	0.913203	0.815911
	N268	N	0.915065	0.175013	0.457125
	N269	N	0.083321	0.174965	0.533092
	N270	N	0.084132	0.821369	0.457579
	N271	N	0.915340	0.823027	0.533324
	N272	N	0.177247	0.461383	0.909639
	N273	N	0.178018	0.535883	0.081404
	N274	N	0.821108	0.462039	0.080365
	N275	N	0.820177	0.535759	0.908358
	O276	O	0.405448	-0.462499	1.471296
	H277	H	0.402216	-0.465106	1.459321
	H278	H	0.407037	-0.456172	1.467992
	O279	O	0.411867	0.545444	0.514010
	H280	H	0.404539	0.553334	0.515644
	H281	H	0.410398	0.540472	0.523058
	O282	O	1.395677	1.507160	0.505132
	H283	H	1.391364	1.503065	0.494518
	H284	H	1.389805	1.503307	0.507187
	O285	O	0.408416	0.536405	0.446786
	H286	H	0.411698	0.543835	0.450495
	H287	H	0.405770	0.532075	0.454042
