data_Molecule from HDF5

_cell_length_a		16.513614
_cell_length_b		16.627399
_cell_length_c		16.567353
_cell_angle_alpha	89.931232
_cell_angle_beta	89.970601
_cell_angle_gamma	89.988385
_symmetry_space_group_name_H-M	'P 1'
_symmetry_Int_Tables_number		1

loop_
	_symmetry_equiv_pos_as_xyz
	x,y,z

loop_
	_atom_site_label
	_atom_site_type_symbol
	_atom_site_fract_x
	_atom_site_fract_y
	_atom_site_fract_z
	H0	H	0.385660	0.835984	0.705526
	H1	H	0.588748	0.152169	0.702044
	H2	H	0.592888	0.836563	0.265631
	H3	H	0.387923	0.150803	0.266696
	H4	H	0.706681	0.392452	0.826198
	H5	H	0.704666	0.590143	0.143836
	H6	H	0.271982	0.594561	0.825649
	H7	H	0.273361	0.394221	0.143395
	H8	H	0.832155	0.712679	0.379849
	H9	H	0.146224	0.713000	0.589278
	H10	H	0.832250	0.273392	0.588721
	H11	H	0.147940	0.274133	0.382885
	H12	H	0.832335	0.389765	0.704732
	H13	H	0.146549	0.595596	0.703922
	H14	H	0.832838	0.595547	0.265238
	H15	H	0.149027	0.392182	0.268558
	H16	H	0.385521	0.713913	0.827225
	H17	H	0.589801	0.708748	0.142990
	H18	H	0.590988	0.275202	0.826281
	H19	H	0.388128	0.276359	0.143512
	H20	H	0.709241	0.836645	0.382623
	H21	H	0.705067	0.152952	0.584653
	H22	H	0.269380	0.835438	0.588476
	H23	H	0.271830	0.150844	0.384759
	H24	H	0.887914	0.336243	0.205697
	H25	H	0.095426	0.648306	0.206047
	H26	H	0.094224	0.336686	0.762900
	H27	H	0.883073	0.647564	0.761707
	H28	H	0.206313	0.892437	0.326729
	H29	H	0.211546	0.098019	0.641069
	H30	H	0.770147	0.096765	0.328054
	H31	H	0.769536	0.890973	0.642978
	H32	H	0.330097	0.210589	0.882992
	H33	H	0.647013	0.211521	0.087205
	H34	H	0.330750	0.774107	0.087709
	H35	H	0.647731	0.774805	0.881942
	H36	H	0.330374	0.890210	0.202610
	H37	H	0.647872	0.094137	0.201570
	H38	H	0.329937	0.094834	0.767567
	H39	H	0.648375	0.892517	0.767564
	H40	H	0.887016	0.212974	0.328082
	H41	H	0.095016	0.214263	0.640970
	H42	H	0.090905	0.774845	0.327929
	H43	H	0.882684	0.771602	0.641438
	H44	H	0.210462	0.336163	0.879938
	H45	H	0.208556	0.650015	0.085711
	H46	H	0.770561	0.335810	0.088874
	H47	H	0.768580	0.648363	0.880968
	H48	H	0.396559	0.106141	0.577203
	H49	H	0.581176	0.881744	0.573970
	H50	H	0.577685	0.103283	0.399040
	H51	H	0.390740	0.880747	0.401139
	H52	H	0.580493	0.404468	0.096802
	H53	H	0.578456	0.578314	0.872864
	H54	H	0.393462	0.583753	0.098735
	H55	H	0.401268	0.400942	0.871880
	H56	H	0.102076	0.580710	0.394826
	H57	H	0.878148	0.578839	0.571434
	H58	H	0.101825	0.402570	0.571793
	H59	H	0.875808	0.400229	0.396193
	H60	H	0.102192	0.404982	0.573980
	H61	H	0.875007	0.582058	0.577137
	H62	H	0.104282	0.587335	0.394029
	H63	H	0.877746	0.404987	0.396223
	H64	H	0.401650	0.578971	0.094228
	H65	H	0.575941	0.588007	0.871086
	H66	H	0.576862	0.398326	0.097631
	H67	H	0.397560	0.400205	0.870995
	H68	H	0.586730	0.108828	0.392832
	H69	H	0.581125	0.879972	0.578948
	H70	H	0.402451	0.104398	0.577282
	H71	H	0.396589	0.876605	0.384034
	H72	H	0.904754	0.603948	0.077735
	H73	H	0.082384	0.380995	0.072642
	H74	H	0.078968	0.604488	0.893933
	H75	H	0.902547	0.381854	0.897373
	H76	H	0.082536	0.897666	0.600930
	H77	H	0.074551	0.087815	0.372673
	H78	H	0.896462	0.082475	0.599130
	H79	H	0.901683	0.908143	0.375832
	H80	H	0.600775	0.083687	0.896025
	H81	H	0.375757	0.081065	0.078296
	H82	H	0.602451	0.900108	0.071617
	H83	H	0.374011	0.894505	0.894994
	H84	H	0.601548	0.904639	0.077119
	H85	H	0.374609	0.087539	0.075633
	H86	H	0.602944	0.083542	0.891275
	H87	H	0.379997	0.905727	0.901652
	H88	H	0.901679	0.082954	0.596841
	H89	H	0.083774	0.083623	0.370913
	H90	H	0.081915	0.908692	0.597024
	H91	H	0.902517	0.897703	0.372505
	H92	H	0.078274	0.604056	0.895479
	H93	H	0.084192	0.378842	0.079087
	H94	H	0.897991	0.603466	0.070504
	H95	H	0.895842	0.379941	0.896755
	H96	H	0.399118	0.103539	0.572357
	H97	H	0.576909	0.882840	0.576865
	H98	H	0.576301	0.107031	0.387834
	H99	H	0.408398	0.884182	0.395769
	H100	H	0.583865	0.398486	0.099282
	H101	H	0.585344	0.584701	0.869340
	H102	H	0.402245	0.589484	0.097542
	H103	H	0.398655	0.403734	0.871801
	H104	H	0.101345	0.585231	0.400384
	H105	H	0.875592	0.585749	0.571157
	H106	H	0.103730	0.402557	0.575036
	H107	H	0.876330	0.402873	0.391704
	H108	H	0.895095	0.606902	0.079144
	H109	H	0.077520	0.380416	0.078208
	H110	H	0.079411	0.604475	0.895486
	H111	H	0.900688	0.378931	0.891542
	H112	H	0.072967	0.901375	0.596356
	H113	H	0.076682	0.078245	0.375759
	H114	H	0.899210	0.087051	0.599184
	H115	H	0.893405	0.903468	0.371214
	H116	H	0.603183	0.087985	0.894241
	H117	H	0.377306	0.082710	0.071440
	H118	H	0.604234	0.897964	0.077922
	H119	H	0.376206	0.906747	0.888174
	C120	C	0.367657	0.000843	0.606648
	C121	C	0.610079	0.985760	0.606380
	C122	C	0.610969	0.002227	0.363321
	C123	C	0.368173	0.984729	0.363379
	C124	C	0.610825	0.370629	-0.006849
	C125	C	0.610067	0.613156	0.976095
	C126	C	0.367908	0.614976	-0.007522
	C127	C	0.368804	0.372194	0.976249
	C128	C	-0.001267	0.615122	0.363783
	C129	C	0.980410	0.613571	0.605389
	C130	C	-0.001397	0.371839	0.605898
	C131	C	0.981702	0.372207	0.364372
	C132	C	0.868799	0.501055	0.106900
	C133	C	0.111957	0.484038	0.106761
	C134	C	0.110813	0.500992	0.862981
	C135	C	0.868035	0.483753	0.863334
	C136	C	0.109925	0.872196	0.493500
	C137	C	0.110521	0.114717	0.476559
	C138	C	0.868394	0.115033	0.494021
	C139	C	0.867256	0.871541	0.476931
	C140	C	0.497158	0.114818	0.863673
	C141	C	0.480480	0.114230	0.105538
	C142	C	0.497617	0.870929	0.106289
	C143	C	0.481380	0.872113	0.863956
	C144	C	0.366649	0.882947	0.665646
	C145	C	0.608999	0.104900	0.663329
	C146	C	0.611737	0.883626	0.305399
	C147	C	0.368223	0.103570	0.305919
	C148	C	0.668135	0.371977	0.873855
	C149	C	0.666532	0.610995	0.096025
	C150	C	0.310525	0.614618	0.873347
	C151	C	0.311975	0.373982	0.095909
	C152	C	0.879771	0.673319	0.361602
	C153	C	0.098706	0.673348	0.607768
	C154	C	0.879597	0.312911	0.607565
	C155	C	0.100695	0.313922	0.364088
	C156	C	0.879703	0.370509	0.665230
	C157	C	0.099028	0.614958	0.664733
	C158	C	0.880048	0.615186	0.304567
	C159	C	0.101251	0.372437	0.307168
	C160	C	0.366903	0.673830	0.874096
	C161	C	0.609358	0.669533	0.095706
	C162	C	0.610415	0.313958	0.873956
	C163	C	0.369001	0.315441	0.095951
	C164	C	0.669624	0.883891	0.363507
	C165	C	0.666607	0.105231	0.604787
	C166	C	0.309085	0.882635	0.607162
	C167	C	0.310619	0.103550	0.364482
	C168	C	0.868579	0.382962	0.165893
	C169	C	0.113473	0.601878	0.165510
	C170	C	0.112559	0.383313	0.803456
	C171	C	0.865528	0.601181	0.802906
	C172	C	0.167292	0.872810	0.374296
	C173	C	0.171009	0.116459	0.594125
	C174	C	0.809906	0.115869	0.375128
	C175	C	0.808511	0.871208	0.595457
	C176	C	0.377695	0.171714	0.864117
	C177	C	0.599771	0.172036	0.106003
	C178	C	0.378497	0.813294	0.106414
	C179	C	0.600371	0.814261	0.863068
	C180	C	0.378401	0.871294	0.163813
	C181	C	0.600206	0.113861	0.162813
	C182	C	0.377675	0.113915	0.806620
	C183	C	0.600664	0.872844	0.806340
	C184	C	0.867663	0.173624	0.375277
	C185	C	0.113133	0.174189	0.594239
	C186	C	0.110082	0.814386	0.374874
	C187	C	0.864658	0.811853	0.594694
	C188	C	0.170471	0.383097	0.861395
	C189	C	0.169910	0.602555	0.106067
	C190	C	0.810490	0.382632	0.107892
	C191	C	0.808406	0.601479	0.861842
	C192	C	0.392207	0.083313	0.582586
	C193	C	0.586610	0.903105	0.583280
	C194	C	0.587056	0.084790	0.386543
	C195	C	0.391862	0.902053	0.386740
	C196	C	0.587249	0.393739	0.076409
	C197	C	0.586610	0.590586	0.892848
	C198	C	0.392145	0.590998	0.075338
	C199	C	0.392444	0.394906	0.893216
	C200	C	0.081020	0.590975	0.389082
	C201	C	0.897741	0.589031	0.580449
	C202	C	0.080938	0.396371	0.580977
	C203	C	0.898356	0.395963	0.387935
	C204	C	0.892478	0.583343	0.082599
	C205	C	0.088048	0.401410	0.083428
	C206	C	0.085805	0.583090	0.887833
	C207	C	0.892772	0.401553	0.888042
	C208	C	0.085920	0.895877	0.576498
	C209	C	0.085454	0.090127	0.394370
	C210	C	0.892204	0.091042	0.576792
	C211	C	0.892092	0.895988	0.394620
	C212	C	0.580745	0.091756	0.887119
	C213	C	0.397482	0.090439	0.081772
	C214	C	0.580954	0.894265	0.082507
	C215	C	0.398226	0.895464	0.887963
	Zn216	Zn	0.489044	-0.006802	0.735633
	Zn217	Zn	0.489775	-0.006719	0.234088
	Zn218	Zn	0.739436	0.492098	-0.014821
	Zn219	Zn	0.239794	0.492968	-0.016065
	Zn220	Zn	-0.011478	0.743055	0.485317
	Zn221	Zn	-0.010426	0.243645	0.485309
	Zn222	Zn	-0.010473	0.492893	0.734238
	Zn223	Zn	-0.009337	0.493313	0.235890
	Zn224	Zn	0.489856	0.742889	-0.015549
	Zn225	Zn	0.488916	0.242470	-0.015124
	Zn226	Zn	0.739594	-0.005814	0.485675
	Zn227	Zn	0.238973	-0.007096	0.485178
	N228	N	0.402067	0.957656	0.665679
	N229	N	0.574789	0.029725	0.664625
	N230	N	0.576151	0.958259	0.304977
	N231	N	0.403002	0.028489	0.304800
	N232	N	0.668828	0.406171	0.949258
	N233	N	0.667391	0.576929	0.020668
	N234	N	0.310875	0.578908	0.948049
	N235	N	0.311444	0.408213	0.020467
	N236	N	0.954519	0.673636	0.397604
	N237	N	0.023926	0.672618	0.571592
	N238	N	0.954666	0.313222	0.571724
	N239	N	0.024989	0.313306	0.398437
	N240	N	0.954681	0.406178	0.664520
	N241	N	0.024300	0.578801	0.663528
	N242	N	0.955068	0.579770	0.305564
	N243	N	0.026082	0.407753	0.307059
	N244	N	0.401660	0.674420	0.949400
	N245	N	0.575350	0.671323	0.019966
	N246	N	0.575893	0.312740	0.949394
	N247	N	0.403232	0.313754	0.020383
	N248	N	0.669509	0.958647	0.398679
	N249	N	0.667769	0.030055	0.570434
	N250	N	0.309595	0.957157	0.571405
	N251	N	0.310294	0.028588	0.399192
	N252	N	0.903935	0.457626	0.165642
	N253	N	0.078338	0.527111	0.166248
	N254	N	0.076251	0.457538	0.804374
	N255	N	0.901637	0.526758	0.803530
	N256	N	0.167484	0.907746	0.449253
	N257	N	0.169394	0.080093	0.519889
	N258	N	0.809891	0.080326	0.450024
	N259	N	0.809922	0.907669	0.521145
	N260	N	0.453248	0.172666	0.898512
	N261	N	0.524316	0.172635	0.071279
	N262	N	0.453892	0.812786	0.071354
	N263	N	0.525147	0.813765	0.898342
	N264	N	0.453742	0.906439	0.163959
	N265	N	0.525002	0.078729	0.162932
	N266	N	0.453152	0.079269	0.806013
	N267	N	0.525477	0.907953	0.806571
	N268	N	0.903092	0.173184	0.450198
	N269	N	0.075971	0.172992	0.520143
	N270	N	0.075291	0.813682	0.450211
	N271	N	0.900383	0.811853	0.519759
	N272	N	0.169695	0.457473	0.897651
	N273	N	0.169315	0.528114	0.070460
	N274	N	0.810360	0.457028	0.071994
	N275	N	0.809955	0.527448	0.898735
	O276	O	0.207589	0.904538	0.012255
	H277	H	0.200566	0.929937	0.020102
	H278	H	0.208955	0.924725	0.012974
	O279	O	0.600177	0.457814	0.266936
	H280	H	0.614405	0.456763	0.265201
	H281	H	0.617411	0.436972	0.261361
	O282	O	1.121193	-0.178907	0.963473
	H283	H	1.146328	-0.185520	0.969513
	H284	H	1.127333	-0.146278	0.969545
	O285	O	0.276544	0.562698	0.524253
	H286	H	0.268824	0.565228	0.518292
	H287	H	0.284416	0.574399	0.516405
	O288	O	0.270563	0.715857	0.446699
	H289	H	0.262971	0.725978	0.413943
	H290	H	0.252448	0.728151	0.429522
	O291	O	0.283271	0.461923	0.364857
	H292	H	0.289760	0.446578	0.371465
	H293	H	0.291836	0.464648	0.385561
	O294	O	0.927266	0.146876	1.029564
	H295	H	0.941588	0.151228	1.023218
	H296	H	0.909298	0.145387	1.003353
	O297	O	0.462190	0.405259	0.694871
	H298	H	0.447172	0.400925	0.697892
	H299	H	0.458780	0.387753	0.715950
	O300	O	-0.220553	0.201685	0.777011
	H301	H	-0.239820	0.200025	0.755551
	H302	H	-0.166964	0.210764	0.772100
	O303	O	0.628310	0.682969	0.671637
	H304	H	0.645706	0.706194	0.689332
	H305	H	0.623555	0.641273	0.681047
	O306	O	0.775495	0.086929	0.929244
	H307	H	0.761915	0.083597	0.913224
	H308	H	0.768545	0.097148	0.930278
	O309	O	0.667788	0.543937	0.400792
	H310	H	0.663394	0.552284	0.405279
	H311	H	0.668313	0.538674	0.410258
	O312	O	0.418355	0.517994	0.647932
	H313	H	0.425946	0.545302	0.660260
	H314	H	0.433643	0.525401	0.633476
	O315	O	0.587481	1.294297	0.688251
	H316	H	0.564412	1.304635	0.676136
	H317	H	0.568544	1.294150	0.686859
	O318	O	0.443770	0.700815	0.693584
	H319	H	0.451588	0.717255	0.707868
	H320	H	0.481143	0.694632	0.676047
	O321	O	0.191992	0.786090	0.779000
	H322	H	0.201231	0.771167	0.796122
	H323	H	0.207946	0.773362	0.793080
	O324	O	0.768000	1.032469	-0.234188
	H325	H	0.771825	1.037505	-0.239728
	H326	H	0.746252	1.036861	-0.247177
	O327	O	-0.017875	-0.077250	0.890228
	H328	H	-0.030084	-0.068330	0.895607
	H329	H	-0.023105	-0.097172	0.877562
	O330	O	0.413683	0.417387	0.660814
	H331	H	0.410147	0.419865	0.626018
	H332	H	0.397512	0.413227	0.677616
	O333	O	0.171085	0.178945	0.795238
	H334	H	0.152925	0.156449	0.811618
	H335	H	0.148551	0.167833	0.813546
	O336	O	0.698476	0.282491	0.276350
	H337	H	0.672114	0.299989	0.272067
	H338	H	0.729308	0.250464	0.242382
	O339	O	1.123990	-0.029750	0.786109
	H340	H	1.121856	-0.061816	0.780057
	H341	H	1.133482	-0.044552	0.769070
	O342	O	-0.083086	-0.013343	-0.086083
	H343	H	-0.082725	-0.006037	-0.100255
	H344	H	-0.093406	-0.030304	-0.077035
	O345	O	0.017258	0.773148	0.766751
	H346	H	0.036771	0.770574	0.772022
	H347	H	0.030727	0.747493	0.747346
	O348	O	0.689862	0.517199	0.692151
	H349	H	0.683378	0.496555	0.684629
	H350	H	0.700575	0.508582	0.691095
	O351	O	0.776086	0.779686	0.193641
	H352	H	0.791761	0.776953	0.166948
	H353	H	0.744597	0.746753	0.224949
	O354	O	0.018888	0.222077	1.086893
	H355	H	0.010264	0.219182	1.089654
	H356	H	0.002179	0.228867	1.087691
	O357	O	0.676322	0.678464	0.297774
	H358	H	0.670757	0.642568	0.311862
	H359	H	0.647003	0.681390	0.324438
	O360	O	0.284093	0.282344	0.622885
	H361	H	0.289351	0.304919	0.617956
	H362	H	0.266851	0.273058	0.636023
	O363	O	-0.228725	-0.229630	0.024703
	H364	H	-0.236011	-0.234099	0.035321
	H365	H	-0.224667	-0.246941	0.015378
	O366	O	0.699172	0.386405	0.592136
	H367	H	0.703625	0.395104	0.582267
	H368	H	0.696097	0.380737	0.581428
	O369	O	1.096177	0.102081	0.066331
	H370	H	1.083601	0.109949	0.058378
	H371	H	1.098050	0.106136	0.071790
	O372	O	0.979220	0.833428	-0.002455
	H373	H	0.979156	0.841727	-0.002989
	H374	H	0.994690	0.841100	0.022400
	O375	O	0.800555	0.181917	0.173487
	H376	H	0.816522	0.160775	0.160885
	H377	H	0.815944	0.166274	0.145641
	O378	O	0.609369	0.459898	0.278755
	H379	H	0.600082	0.472210	0.274555
	H380	H	0.627278	0.474948	0.283293
	O381	O	-0.057672	0.982662	1.034011
	H382	H	-0.052558	0.998670	1.015712
	H383	H	-0.057827	0.982326	1.048901
	O384	O	0.961613	-0.134279	0.962221
	H385	H	0.971926	-0.135182	0.956480
	H386	H	0.951322	-0.128472	0.979144
	O387	O	0.856747	1.097702	0.063421
	H388	H	0.848078	1.085015	0.059330
	H389	H	0.853937	1.096337	0.066198
	O390	O	0.708662	0.279754	0.444899
	H391	H	0.730154	0.253697	0.428254
	H392	H	0.702711	0.275496	0.416914
	O393	O	0.518164	0.277355	0.274005
	H394	H	0.530535	0.274076	0.262008
	H395	H	0.518823	0.284090	0.275164
	O396	O	0.403209	1.493152	1.302909
	H397	H	0.420647	1.517098	1.294700
	H398	H	0.382822	1.493559	1.310640
	O399	O	0.213624	0.032651	1.208119
	H400	H	0.232963	0.050530	1.228893
	H401	H	0.219441	0.067663	1.211560
	O402	O	0.275968	0.594682	0.274529
	H403	H	0.269046	0.565471	0.278168
	H404	H	0.252947	0.597750	0.261726
	O405	O	1.104325	-0.126780	0.861016
	H406	H	1.117236	-0.132364	0.859431
	H407	H	1.089281	-0.133965	0.862669
	O408	O	0.137674	0.119921	-0.076191
	H409	H	0.148104	0.129721	-0.073552
	H410	H	0.132464	0.121684	-0.076956
	O411	O	0.633221	0.585174	0.568681
	H412	H	0.636381	0.580522	0.563982
	H413	H	0.619285	0.596289	0.568396
	O414	O	0.983280	0.207843	0.972697
	H415	H	0.974060	0.227062	0.985418
	H416	H	0.978833	0.203714	0.956988
	O417	O	0.365959	0.349820	0.571472
	H418	H	0.369316	0.352161	0.596133
	H419	H	0.344543	0.320659	0.575678
	O420	O	0.355146	0.695441	0.620272
	H421	H	0.347850	0.692536	0.604815
	H422	H	0.370099	0.677892	0.613525
	O423	O	0.150664	0.206669	1.196069
	H424	H	0.158510	0.220146	1.218386
	H425	H	0.112557	0.217285	1.208795
	O426	O	0.505507	0.277538	0.494043
	H427	H	0.511490	0.275374	0.502990
	H428	H	0.517899	0.271449	0.506691
	O429	O	0.889014	0.848279	1.195285
	H430	H	0.882325	0.846543	1.206230
	H431	H	0.889386	0.843319	1.200206
	O432	O	0.584153	0.534113	0.398553
	H433	H	0.578065	0.534460	0.390317
	H434	H	0.566713	0.520073	0.403802
	O435	O	0.176252	0.799175	0.171481
	H436	H	0.159596	0.821702	0.151216
	H437	H	0.155372	0.819023	0.158996
	O438	O	0.211755	0.214974	0.076110
	H439	H	0.211185	0.235506	0.086097
	H440	H	0.222534	0.227004	0.114001
	O441	O	0.356701	0.636603	0.339598
	H442	H	0.338581	0.662173	0.322975
	H443	H	0.362387	0.602906	0.333860
	O444	O	0.440272	0.639846	0.332739
	H445	H	0.450504	0.648059	0.345141
	H446	H	0.416408	0.647631	0.323311
	O447	O	0.081791	1.023426	0.781178
	H448	H	0.069761	1.015818	0.780197
	H449	H	0.087589	1.011686	0.777482
	O450	O	0.011459	0.960215	1.210380
	H451	H	0.023878	0.963436	1.212404
	H452	H	0.003960	0.954805	1.213874
	O453	O	0.294628	0.336338	0.330249
	H454	H	0.303214	0.344788	0.351199
	H455	H	0.315311	0.345925	0.334689
	O456	O	-0.050338	0.210604	0.772897
	H457	H	-0.027405	0.203902	0.784140
	H458	H	-0.035024	0.226871	0.759701
	O459	O	0.825828	1.004235	0.202625
	H460	H	0.815040	0.986720	0.213995
	H461	H	0.828494	0.971833	0.203384
	O462	O	0.544239	0.702706	0.410799
	H463	H	0.531340	0.700213	0.413241
	H464	H	0.541163	0.712278	0.425327
	O465	O	0.872491	-0.030250	-0.139436
	H466	H	0.866567	-0.043146	-0.152247
	H467	H	0.866958	-0.044433	-0.125686
	O468	O	0.452800	0.595251	0.461624
	H469	H	0.454744	0.590382	0.454400
	H470	H	0.450121	0.598130	0.462095
	O471	O	0.280494	0.453372	0.692543
	H472	H	0.281198	0.449418	0.697731
	H473	H	0.277422	0.465713	0.697434
	O474	O	0.466649	0.317758	0.520783
	H475	H	0.470663	0.308098	0.521902
	H476	H	0.471900	0.334052	0.534997
	O477	O	0.507164	0.435496	1.506706
	H478	H	0.507626	0.441438	1.517002
	H479	H	0.518931	0.424292	1.500683
	O480	O	0.705287	0.706913	0.515913
	H481	H	0.697888	0.714016	0.527226
	H482	H	0.724762	0.728152	0.539166
	O483	O	0.852254	0.784894	0.849166
	H484	H	0.866546	0.807338	0.847355
	H485	H	0.880768	0.787045	0.869570
	O486	O	0.917707	0.020521	1.036606
	H487	H	0.907957	0.010514	1.020006
	H488	H	0.920224	0.015149	1.028627
	O489	O	1.003855	0.795700	0.129703
	H490	H	1.004673	0.778315	0.144989
	H491	H	0.987100	0.808485	0.129812
