data_Molecule from HDF5

_cell_length_a		16.345289
_cell_length_b		16.073463
_cell_length_c		16.266423
_cell_angle_alpha	89.912659
_cell_angle_beta	89.768015
_cell_angle_gamma	90.116162
_symmetry_space_group_name_H-M	'P 1'
_symmetry_Int_Tables_number		1

loop_
	_symmetry_equiv_pos_as_xyz
	x,y,z

loop_
	_atom_site_label
	_atom_site_type_symbol
	_atom_site_fract_x
	_atom_site_fract_y
	_atom_site_fract_z
	H0	H	0.404187	0.840430	0.710230
	H1	H	0.599032	0.172048	0.705387
	H2	H	0.600309	0.839759	0.284612
	H3	H	0.406028	0.170991	0.284214
	H4	H	0.718622	0.406906	0.834443
	H5	H	0.718772	0.608772	0.159648
	H6	H	0.287422	0.605673	0.834021
	H7	H	0.285767	0.404119	0.160542
	H8	H	0.838343	0.716586	0.402389
	H9	H	0.166377	0.719227	0.593432
	H10	H	0.838123	0.292629	0.594505
	H11	H	0.165930	0.291981	0.400584
	H12	H	0.839180	0.405546	0.714171
	H13	H	0.165998	0.605431	0.712611
	H14	H	0.839959	0.605483	0.282511
	H15	H	0.164824	0.405551	0.281519
	H16	H	0.405922	0.719309	0.832504
	H17	H	0.598412	0.718788	0.161778
	H18	H	0.599081	0.295687	0.831863
	H19	H	0.406409	0.293243	0.161922
	H20	H	0.716115	0.840130	0.397137
	H21	H	0.717137	0.169721	0.594403
	H22	H	0.288104	0.840016	0.596688
	H23	H	0.289153	0.170594	0.397585
	H24	H	0.904076	0.339867	0.210297
	H25	H	0.100731	0.671429	0.209043
	H26	H	0.101209	0.340944	0.783946
	H27	H	0.904632	0.671024	0.784262
	H28	H	0.218534	0.904712	0.334177
	H29	H	0.217173	0.105799	0.660275
	H30	H	0.788610	0.103258	0.333740
	H31	H	0.785399	0.903193	0.659658
	H32	H	0.337716	0.218001	0.901784
	H33	H	0.666589	0.219704	0.093532
	H34	H	0.338759	0.794039	0.093418
	H35	H	0.666945	0.794253	0.900025
	H36	H	0.341003	0.906285	0.213224
	H37	H	0.666322	0.106232	0.212664
	H38	H	0.339724	0.107058	0.781096
	H39	H	0.665816	0.907323	0.780553
	H40	H	0.907235	0.217449	0.332906
	H41	H	0.097386	0.217172	0.661927
	H42	H	0.097991	0.794067	0.332235
	H43	H	0.906393	0.793297	0.662095
	H44	H	0.217420	0.342106	0.896743
	H45	H	0.216530	0.670818	0.096180
	H46	H	0.786100	0.341962	0.097927
	H47	H	0.789835	0.671729	0.899217
	H48	H	0.402699	0.125190	0.586439
	H49	H	0.596104	0.886539	0.586678
	H50	H	0.600944	0.129052	0.392916
	H51	H	0.410012	0.888363	0.407894
	H52	H	0.591392	0.418597	0.111550
	H53	H	0.590431	0.610081	0.878554
	H54	H	0.408784	0.611378	0.117525
	H55	H	0.420778	0.407964	0.882061
	H56	H	0.119492	0.599084	0.402467
	H57	H	0.884094	0.607961	0.591322
	H58	H	0.115850	0.417525	0.587167
	H59	H	0.886124	0.414437	0.401726
	H60	H	0.119835	0.413860	0.598808
	H61	H	0.890480	0.592815	0.584679
	H62	H	0.119708	0.598543	0.401949
	H63	H	0.883666	0.409727	0.402513
	H64	H	0.396764	0.591885	0.115815
	H65	H	0.609557	0.598701	0.876304
	H66	H	0.593416	0.409437	0.114911
	H67	H	0.397527	0.406164	0.874941
	H68	H	0.583411	0.119614	0.405974
	H69	H	0.595178	0.884781	0.592072
	H70	H	0.408784	0.125907	0.594536
	H71	H	0.406326	0.885017	0.404022
	H72	H	0.903982	0.625608	0.086783
	H73	H	0.097484	0.387239	0.086870
	H74	H	0.102424	0.628022	0.904057
	H75	H	0.904140	0.386862	0.909091
	H76	H	0.084639	0.914924	0.610683
	H77	H	0.102136	0.090320	0.380941
	H78	H	0.907415	0.098820	0.615017
	H79	H	0.896415	0.915573	0.376722
	H80	H	0.615590	0.097977	0.907980
	H81	H	0.387706	0.099602	0.088285
	H82	H	0.621358	0.913188	0.095569
	H83	H	0.388770	0.911146	0.912544
	H84	H	0.621310	0.909120	0.089056
	H85	H	0.387631	0.094154	0.094331
	H86	H	0.620068	0.094962	0.893619
	H87	H	0.388508	0.922143	0.901416
	H88	H	0.905920	0.097406	0.614499
	H89	H	0.088893	0.098478	0.381830
	H90	H	0.099320	0.902785	0.618383
	H91	H	0.915255	0.918861	0.384164
	H92	H	0.091197	0.624702	0.899651
	H93	H	0.095100	0.386194	0.092744
	H94	H	0.910168	0.626409	0.096494
	H95	H	0.909842	0.386426	0.900782
	H96	H	0.411833	0.122624	0.586260
	H97	H	0.590604	0.887990	0.588578
	H98	H	0.605124	0.123738	0.415384
	H99	H	0.412133	0.887640	0.402932
	H100	H	0.600070	0.415757	0.114883
	H101	H	0.591680	0.588201	0.885658
	H102	H	0.418655	0.592423	0.109321
	H103	H	0.406262	0.427580	0.883724
	H104	H	0.119444	0.599316	0.401657
	H105	H	0.884387	0.592645	0.600741
	H106	H	0.119855	0.405242	0.589034
	H107	H	0.886722	0.413171	0.405550
	H108	H	0.914733	0.622085	0.087169
	H109	H	0.091498	0.388577	0.088787
	H110	H	0.093830	0.622150	0.910580
	H111	H	0.914097	0.389134	0.909870
	H112	H	0.103360	0.922166	0.613537
	H113	H	0.101251	0.105904	0.376819
	H114	H	0.908121	0.097228	0.614904
	H115	H	0.910232	0.899747	0.376788
	H116	H	0.622098	0.108512	0.899515
	H117	H	0.385172	0.101758	0.095932
	H118	H	0.618352	0.916665	0.088610
	H119	H	0.383283	0.907600	0.898530
	C120	C	0.380450	0.014671	0.618066
	C121	C	0.622775	0.996240	0.617038
	C122	C	0.624377	0.014552	0.375950
	C123	C	0.381803	0.996530	0.376685
	C124	C	0.623798	0.385452	0.005705
	C125	C	0.624796	0.627985	0.988409
	C126	C	0.380647	0.627423	0.005795
	C127	C	0.379883	0.384301	0.988768
	C128	C	0.011476	0.627308	0.374787
	C129	C	0.994326	0.626784	0.619934
	C130	C	0.010548	0.383446	0.620291
	C131	C	0.993443	0.383372	0.374982
	C132	C	0.880700	0.515023	0.119030
	C133	C	0.123720	0.496822	0.117873
	C134	C	0.123790	0.515352	0.876327
	C135	C	0.881711	0.497140	0.877632
	C136	C	0.124287	0.884099	0.505714
	C137	C	0.124674	0.126986	0.488350
	C138	C	0.880371	0.126216	0.506138
	C139	C	0.879720	0.882826	0.488059
	C140	C	0.510898	0.128599	0.873578
	C141	C	0.494869	0.127427	0.119697
	C142	C	0.512156	0.884355	0.119188
	C143	C	0.494552	0.885008	0.874915
	C144	C	0.383145	0.889930	0.673194
	C145	C	0.619917	0.121855	0.669560
	C146	C	0.621098	0.889476	0.321508
	C147	C	0.385284	0.121740	0.321917
	C148	C	0.679844	0.387287	0.882702
	C149	C	0.680310	0.628001	0.111221
	C150	C	0.325899	0.625590	0.882588
	C151	C	0.324206	0.384863	0.111686
	C152	C	0.887758	0.680713	0.379921
	C153	C	0.117591	0.681833	0.615278
	C154	C	0.887130	0.329430	0.616132
	C155	C	0.116960	0.329527	0.379341
	C156	C	0.887812	0.385193	0.676017
	C157	C	0.117285	0.625043	0.674274
	C158	C	0.888643	0.625316	0.320320
	C159	C	0.116281	0.385464	0.319753
	C160	C	0.384496	0.682295	0.881980
	C161	C	0.620546	0.682503	0.112239
	C162	C	0.620485	0.331620	0.881584
	C163	C	0.384256	0.329722	0.112423
	C164	C	0.678671	0.889710	0.377431
	C165	C	0.678722	0.120598	0.614546
	C166	C	0.325537	0.889754	0.616614
	C167	C	0.327237	0.121267	0.378161
	C168	C	0.883438	0.389901	0.173483
	C169	C	0.121493	0.621671	0.172226
	C170	C	0.120882	0.390194	0.822007
	C171	C	0.884110	0.621819	0.822184
	C172	C	0.179700	0.885472	0.382610
	C173	C	0.179198	0.125440	0.611496
	C174	C	0.826682	0.123636	0.382444
	C175	C	0.824223	0.883999	0.611162
	C176	C	0.387023	0.181664	0.879576
	C177	C	0.617823	0.182700	0.115265
	C178	C	0.388407	0.830582	0.115245
	C179	C	0.617776	0.830967	0.878281
	C180	C	0.389446	0.886400	0.174681
	C181	C	0.617776	0.126207	0.174426
	C182	C	0.387955	0.126545	0.819493
	C183	C	0.617111	0.887405	0.818996
	C184	C	0.885504	0.180096	0.381985
	C185	C	0.119487	0.180563	0.612508
	C186	C	0.119907	0.830508	0.381685
	C187	C	0.884381	0.829267	0.612371
	C188	C	0.179233	0.391029	0.877431
	C189	C	0.178644	0.621482	0.115829
	C190	C	0.824411	0.390935	0.117889
	C191	C	0.827265	0.622037	0.879297
	C192	C	0.401725	0.102028	0.595833
	C193	C	0.600614	0.908846	0.595518
	C194	C	0.602880	0.101751	0.398087
	C195	C	0.403122	0.909433	0.398468
	C196	C	0.601471	0.407907	0.091552
	C197	C	0.603546	0.605540	0.902487
	C198	C	0.401789	0.605217	0.091833
	C199	C	0.401600	0.407157	0.902553
	C200	C	0.097302	0.605561	0.395868
	C201	C	0.908471	0.604416	0.598615
	C202	C	0.096213	0.405688	0.598337
	C203	C	0.907617	0.405787	0.396775
	C204	C	0.903090	0.602203	0.096691
	C205	C	0.101289	0.409760	0.095868
	C206	C	0.102201	0.602239	0.898208
	C207	C	0.903009	0.409905	0.900007
	C208	C	0.102377	0.906648	0.591885
	C209	C	0.103754	0.104821	0.402057
	C210	C	0.900929	0.104240	0.592518
	C211	C	0.901007	0.904711	0.401407
	C212	C	0.596933	0.106861	0.894217
	C213	C	0.408974	0.105277	0.098904
	C214	C	0.598153	0.906607	0.097675
	C215	C	0.408882	0.907285	0.897443
	Zn216	Zn	0.502088	0.006559	0.744904
	Zn217	Zn	0.504256	0.006040	0.248869
	Zn218	Zn	0.753013	0.506647	-0.002658
	Zn219	Zn	0.251368	0.505986	-0.002805
	Zn220	Zn	0.002572	0.755555	0.497397
	Zn221	Zn	0.002079	0.255118	0.497724
	Zn222	Zn	0.002474	0.505492	0.749476
	Zn223	Zn	0.002819	0.505833	0.245746
	Zn224	Zn	0.503176	0.755796	-0.002910
	Zn225	Zn	0.502540	0.256392	-0.003167
	Zn226	Zn	0.751263	0.004153	0.496591
	Zn227	Zn	0.253230	0.005275	0.496748
	N228	N	0.416213	0.968676	0.674489
	N229	N	0.585984	0.043498	0.671335
	N230	N	0.587985	0.968118	0.320550
	N231	N	0.418785	0.043315	0.320768
	N232	N	0.681937	0.420062	0.960830
	N233	N	0.682994	0.594586	0.033414
	N234	N	0.323632	0.592053	0.960361
	N235	N	0.321491	0.418010	0.033579
	N236	N	0.965062	0.682115	0.413184
	N237	N	0.040215	0.683031	0.582139
	N238	N	0.964288	0.328354	0.582180
	N239	N	0.039468	0.328062	0.412785
	N240	N	0.965541	0.418331	0.678435
	N241	N	0.039589	0.591676	0.677214
	N242	N	0.966362	0.592732	0.317135
	N243	N	0.038712	0.418555	0.317244
	N244	N	0.417836	0.683734	0.959674
	N245	N	0.586676	0.682787	0.035079
	N246	N	0.586286	0.330402	0.959001
	N247	N	0.418178	0.329251	0.035051
	N248	N	0.680741	0.968368	0.410617
	N249	N	0.680462	0.041424	0.582473
	N250	N	0.323782	0.968290	0.582968
	N251	N	0.325146	0.042550	0.411498
	N252	N	0.917503	0.468225	0.174383
	N253	N	0.087701	0.543150	0.173489
	N254	N	0.087278	0.468480	0.820957
	N255	N	0.917254	0.543216	0.821034
	N256	N	0.182347	0.918120	0.460697
	N257	N	0.182300	0.092571	0.533308
	N258	N	0.823459	0.090766	0.460480
	N259	N	0.821289	0.916481	0.532823
	N260	N	0.464590	0.183336	0.912574
	N261	N	0.540546	0.183399	0.081896
	N262	N	0.465569	0.829228	0.081304
	N263	N	0.540681	0.829490	0.912541
	N264	N	0.467374	0.919136	0.177152
	N265	N	0.540475	0.092441	0.177167
	N266	N	0.465697	0.094327	0.815786
	N267	N	0.539432	0.920386	0.816962
	N268	N	0.917937	0.182087	0.459892
	N269	N	0.086365	0.181820	0.535034
	N270	N	0.086177	0.829428	0.459353
	N271	N	0.918213	0.828457	0.534923
	N272	N	0.180895	0.469580	0.910844
	N273	N	0.180025	0.543020	0.082501
	N274	N	0.822832	0.469675	0.084568
	N275	N	0.825796	0.543536	0.913239
	O276	O	-0.503814	-0.483643	1.468700
	H277	H	-0.493005	-0.488749	1.462950
	H278	H	-0.502831	-0.489558	1.465948
	O279	O	0.495224	0.489530	0.476702
	H280	H	0.493831	0.493686	0.468395
	H281	H	0.495947	0.488273	0.472022
	O282	O	0.516209	0.506934	0.462858
	H283	H	0.513282	0.502045	0.472845
	H284	H	0.516305	0.507630	0.458832
	O285	O	1.104052	1.036243	-0.027954
	H286	H	1.108652	1.035461	-0.026188
	H287	H	1.107260	1.038318	-0.028399
	O288	O	0.515316	0.433777	0.466801
	H289	H	0.514896	0.428065	0.467728
	H290	H	0.510515	0.435671	0.472539
	O291	O	-0.454252	0.452979	1.460307
	H292	H	-0.453504	0.455018	1.463811
	H293	H	-0.465263	0.457758	1.453079
	O294	O	0.506700	0.469396	0.476906
	H295	H	0.506017	0.466970	0.483786
	H296	H	0.522101	0.468230	0.477064
	O297	O	1.103924	0.030341	-0.059136
	H298	H	1.103197	0.028333	-0.060251
	H299	H	1.112792	0.028715	-0.061064
