data_Molecule from HDF5

_cell_length_a		16.592625
_cell_length_b		16.644230
_cell_length_c		16.658796
_cell_angle_alpha	90.056403
_cell_angle_beta	89.953987
_cell_angle_gamma	90.018004
_symmetry_space_group_name_H-M	'P 1'
_symmetry_Int_Tables_number		1

loop_
	_symmetry_equiv_pos_as_xyz
	x,y,z

loop_
	_atom_site_label
	_atom_site_type_symbol
	_atom_site_fract_x
	_atom_site_fract_y
	_atom_site_fract_z
	H0	H	0.396794	0.839118	0.700679
	H1	H	0.608368	0.148294	0.705587
	H2	H	0.605422	0.841694	0.259465
	H3	H	0.393847	0.151107	0.260094
	H4	H	0.723021	0.389117	0.827129
	H5	H	0.722717	0.600446	0.136930
	H6	H	0.281249	0.599638	0.826381
	H7	H	0.274113	0.385272	0.134103
	H8	H	0.844532	0.714913	0.376371
	H9	H	0.157017	0.712335	0.581433
	H10	H	0.846240	0.270707	0.589769
	H11	H	0.155595	0.272818	0.375969
	H12	H	0.845059	0.389079	0.703070
	H13	H	0.156599	0.598099	0.698608
	H14	H	0.845051	0.599226	0.259437
	H15	H	0.156070	0.389853	0.261047
	H16	H	0.395688	0.716642	0.827267
	H17	H	0.605867	0.715602	0.137399
	H18	H	0.608821	0.271753	0.827573
	H19	H	0.388835	0.267995	0.132688
	H20	H	0.721980	0.842481	0.374571
	H21	H	0.723236	0.149224	0.588964
	H22	H	0.279909	0.839225	0.585320
	H23	H	0.278770	0.151505	0.377747
	H24	H	0.889917	0.340757	0.207885
	H25	H	0.106949	0.649310	0.203618
	H26	H	0.105081	0.341305	0.760725
	H27	H	0.898358	0.652921	0.765019
	H28	H	0.220775	0.892788	0.325170
	H29	H	0.220419	0.099587	0.637600
	H30	H	0.773617	0.106437	0.328582
	H31	H	0.778141	0.889686	0.634868
	H32	H	0.346686	0.217689	0.875355
	H33	H	0.654433	0.219363	0.089632
	H34	H	0.343688	0.777518	0.084249
	H35	H	0.657434	0.776933	0.880104
	H36	H	0.343516	0.892731	0.200449
	H37	H	0.654450	0.103724	0.205846
	H38	H	0.346121	0.100047	0.760405
	H39	H	0.657302	0.890988	0.762042
	H40	H	0.889022	0.223144	0.329036
	H41	H	0.106162	0.217390	0.636603
	H42	H	0.104833	0.776439	0.324067
	H43	H	0.894395	0.774327	0.634772
	H44	H	0.220799	0.340709	0.877569
	H45	H	0.221759	0.649909	0.086387
	H46	H	0.774521	0.341038	0.091661
	H47	H	0.783344	0.652607	0.882128
	H48	H	0.409938	0.107495	0.572650
	H49	H	0.585815	0.885524	0.566351
	H50	H	0.584426	0.106741	0.394458
	H51	H	0.405167	0.883039	0.392389
	H52	H	0.589711	0.409321	0.092501
	H53	H	0.590195	0.582975	0.871723
	H54	H	0.408650	0.593173	0.096894
	H55	H	0.413377	0.405123	0.870401
	H56	H	0.109020	0.582335	0.400195
	H57	H	0.884805	0.589199	0.574812
	H58	H	0.110195	0.407687	0.567186
	H59	H	0.890133	0.414356	0.390800
	H60	H	0.111283	0.409736	0.572707
	H61	H	0.886844	0.586971	0.569952
	H62	H	0.113013	0.578643	0.383999
	H63	H	0.888651	0.402938	0.395919
	H64	H	0.405235	0.580175	0.094162
	H65	H	0.589155	0.587995	0.870099
	H66	H	0.584194	0.410009	0.090423
	H67	H	0.411203	0.410142	0.871430
	H68	H	0.587589	0.107819	0.396360
	H69	H	0.592626	0.882275	0.568844
	H70	H	0.410591	0.106796	0.572706
	H71	H	0.411699	0.882624	0.385568
	H72	H	0.917662	0.602456	0.070327
	H73	H	0.087380	0.383892	0.069029
	H74	H	0.098189	0.612381	0.887255
	H75	H	0.913761	0.385094	0.894486
	H76	H	0.090920	0.905862	0.592678
	H77	H	0.091464	0.083649	0.369977
	H78	H	0.912405	0.080456	0.591211
	H79	H	0.915879	0.906791	0.370303
	H80	H	0.612988	0.082636	0.891905
	H81	H	0.392200	0.077023	0.065669
	H82	H	0.613798	0.904902	0.071749
	H83	H	0.388807	0.903663	0.892944
	H84	H	0.612460	0.906138	0.071910
	H85	H	0.387512	0.081493	0.075238
	H86	H	0.612205	0.083800	0.896674
	H87	H	0.388007	0.905749	0.888373
	H88	H	0.915138	0.080844	0.589268
	H89	H	0.087187	0.081084	0.372157
	H90	H	0.088747	0.902376	0.593177
	H91	H	0.909202	0.902990	0.367275
	H92	H	0.083769	0.608194	0.886445
	H93	H	0.088278	0.384234	0.068349
	H94	H	0.912484	0.602875	0.065589
	H95	H	0.907743	0.382074	0.892226
	H96	H	0.410487	0.107274	0.571826
	H97	H	0.586332	0.883065	0.573718
	H98	H	0.587628	0.107531	0.392362
	H99	H	0.413869	0.885815	0.394298
	H100	H	0.586119	0.405170	0.092406
	H101	H	0.594581	0.585542	0.869753
	H102	H	0.418319	0.584191	0.091244
	H103	H	0.416833	0.409344	0.872787
	H104	H	0.116370	0.594138	0.389746
	H105	H	0.887061	0.583501	0.574800
	H106	H	0.113446	0.404041	0.570799
	H107	H	0.893591	0.412602	0.402779
	H108	H	0.911399	0.605496	0.072332
	H109	H	0.087888	0.383293	0.069227
	H110	H	0.091886	0.605848	0.898878
	H111	H	0.912909	0.382926	0.887681
	H112	H	0.092202	0.902260	0.594323
	H113	H	0.086502	0.086158	0.370933
	H114	H	0.913528	0.083446	0.590417
	H115	H	0.908782	0.911098	0.369812
	H116	H	0.610776	0.079842	0.895461
	H117	H	0.389485	0.088318	0.066073
	H118	H	0.612990	0.905681	0.072949
	H119	H	0.386348	0.901202	0.889045
	C120	C	0.379136	0.003806	0.603120
	C121	C	0.621526	0.986064	0.602866
	C122	C	0.620386	0.005331	0.360680
	C123	C	0.378310	0.987226	0.359728
	C124	C	0.620854	0.374424	-0.009753
	C125	C	0.622491	0.616773	0.973534
	C126	C	0.379265	0.617148	-0.009135
	C127	C	0.379225	0.373861	0.972869
	C128	C	0.009479	0.616664	0.359236
	C129	C	0.990826	0.616882	0.602306
	C130	C	0.009019	0.374059	0.603119
	C131	C	0.992795	0.375484	0.362358
	C132	C	0.879321	0.502206	0.103365
	C133	C	0.121592	0.486073	0.102111
	C134	C	0.122320	0.505341	0.859677
	C135	C	0.879843	0.487017	0.860974
	C136	C	0.121896	0.873215	0.489803
	C137	C	0.120679	0.115866	0.473951
	C138	C	0.878646	0.116879	0.489688
	C139	C	0.878567	0.874360	0.471504
	C140	C	0.509315	0.114952	0.861285
	C141	C	0.491846	0.116409	0.102536
	C142	C	0.509103	0.874463	0.103039
	C143	C	0.491960	0.872954	0.860153
	C144	C	0.378146	0.886104	0.661288
	C145	C	0.625485	0.102298	0.664599
	C146	C	0.623726	0.888471	0.299740
	C147	C	0.375925	0.104458	0.300358
	C148	C	0.682632	0.371084	0.873842
	C149	C	0.682279	0.618649	0.090586
	C150	C	0.320444	0.618456	0.873401
	C151	C	0.315605	0.368257	0.087783
	C152	C	0.891480	0.675556	0.357394
	C153	C	0.109547	0.673871	0.601293
	C154	C	0.892610	0.311974	0.607073
	C155	C	0.109131	0.313619	0.358294
	C156	C	0.892022	0.370726	0.663552
	C157	C	0.109416	0.616979	0.659465
	C158	C	0.891826	0.618163	0.299516
	C159	C	0.109425	0.371907	0.301390
	C160	C	0.377410	0.676674	0.873910
	C161	C	0.624261	0.675880	0.090740
	C162	C	0.625642	0.312889	0.873831
	C163	C	0.372639	0.309843	0.087256
	C164	C	0.681365	0.888791	0.357086
	C165	C	0.682808	0.102383	0.606658
	C166	C	0.320307	0.885935	0.603799
	C167	C	0.318671	0.104506	0.358833
	C168	C	0.873764	0.386726	0.165938
	C169	C	0.124761	0.602646	0.163156
	C170	C	0.123542	0.387994	0.800848
	C171	C	0.879114	0.605397	0.803820
	C172	C	0.180912	0.873254	0.371896
	C173	C	0.180625	0.118117	0.590702
	C174	C	0.814970	0.123247	0.374692
	C175	C	0.818606	0.871846	0.588224
	C176	C	0.392692	0.176442	0.857801
	C177	C	0.608052	0.178258	0.106891
	C178	C	0.390956	0.816501	0.103333
	C179	C	0.610348	0.815552	0.860397
	C180	C	0.390752	0.873879	0.161119
	C181	C	0.608012	0.120962	0.164822
	C182	C	0.392646	0.118082	0.800850
	C183	C	0.610201	0.872317	0.801993
	C184	C	0.872534	0.181182	0.374957
	C185	C	0.123844	0.176763	0.590306
	C186	C	0.123113	0.815724	0.371380
	C187	C	0.876322	0.814272	0.588154
	C188	C	0.180974	0.387548	0.858856
	C189	C	0.181779	0.603015	0.104733
	C190	C	0.816033	0.386983	0.108394
	C191	C	0.821825	0.605231	0.862028
	C192	C	0.403453	0.085913	0.579101
	C193	C	0.595567	0.904989	0.577244
	C194	C	0.594053	0.086201	0.386828
	C195	C	0.403122	0.905226	0.383782
	C196	C	0.594244	0.400727	0.070888
	C197	C	0.598085	0.592362	0.891664
	C198	C	0.403813	0.592831	0.072779
	C199	C	0.406316	0.400641	0.892640
	C200	C	0.091541	0.592068	0.384081
	C201	C	0.907798	0.593451	0.579651
	C202	C	0.090310	0.399836	0.577468
	C203	C	0.911739	0.402199	0.389080
	C204	C	0.906199	0.582731	0.076911
	C205	C	0.095446	0.404865	0.076380
	C206	C	0.098271	0.587355	0.883773
	C207	C	0.904258	0.404808	0.884579
	C208	C	0.097483	0.896710	0.571813
	C209	C	0.095389	0.090701	0.392321
	C210	C	0.905946	0.089316	0.569408
	C211	C	0.904042	0.899817	0.390103
	C212	C	0.590839	0.089348	0.887083
	C213	C	0.410890	0.089956	0.076399
	C214	C	0.591745	0.898718	0.079100
	C215	C	0.409221	0.896579	0.883475
	Zn216	Zn	0.500977	-0.005558	0.732010
	Zn217	Zn	0.499844	-0.004098	0.231523
	Zn218	Zn	0.750176	0.494614	-0.017473
	Zn219	Zn	0.250844	0.495380	-0.018701
	Zn220	Zn	0.000036	0.745051	0.479972
	Zn221	Zn	0.000540	0.245776	0.481666
	Zn222	Zn	0.000178	0.495805	0.730947
	Zn223	Zn	0.000424	0.493988	0.231787
	Zn224	Zn	0.501186	0.745409	-0.017447
	Zn225	Zn	0.500682	0.245009	-0.018721
	Zn226	Zn	0.749582	-0.004323	0.480814
	Zn227	Zn	0.250453	-0.004458	0.482010
	N228	N	0.413736	0.960430	0.661352
	N229	N	0.587893	0.028986	0.662411
	N230	N	0.586552	0.962093	0.301505
	N231	N	0.412263	0.030438	0.300700
	N232	N	0.680097	0.408416	0.947349
	N233	N	0.681376	0.582673	0.016650
	N234	N	0.321043	0.582345	0.947418
	N235	N	0.319739	0.407646	0.015661
	N236	N	0.965747	0.674837	0.393576
	N237	N	0.034673	0.674291	0.566676
	N238	N	0.966480	0.313772	0.570218
	N239	N	0.035271	0.315581	0.395303
	N240	N	0.965395	0.408663	0.661354
	N241	N	0.034162	0.582712	0.660777
	N242	N	0.966534	0.582739	0.300035
	N243	N	0.035798	0.409452	0.303573
	N244	N	0.413337	0.676028	0.948014
	N245	N	0.587886	0.675240	0.016816
	N246	N	0.588133	0.314548	0.947313
	N247	N	0.411851	0.313331	0.014805
	N248	N	0.679303	0.962405	0.394139
	N249	N	0.680445	0.029111	0.568973
	N250	N	0.320492	0.960406	0.568463
	N251	N	0.319825	0.030361	0.394853
	N252	N	0.912789	0.459339	0.162770
	N253	N	0.087888	0.528777	0.161724
	N254	N	0.087905	0.462290	0.801018
	N255	N	0.914252	0.530599	0.802679
	N256	N	0.180935	0.907990	0.446699
	N257	N	0.178909	0.080951	0.517163
	N258	N	0.818480	0.083996	0.447019
	N259	N	0.819809	0.908309	0.514510
	N260	N	0.466399	0.174481	0.894866
	N261	N	0.534791	0.175531	0.068940
	N262	N	0.465798	0.816545	0.068192
	N263	N	0.535595	0.815639	0.895713
	N264	N	0.465545	0.909183	0.161231
	N265	N	0.534513	0.083065	0.162368
	N266	N	0.466136	0.080569	0.802901
	N267	N	0.535211	0.906853	0.801188
	N268	N	0.911633	0.177509	0.447382
	N269	N	0.087271	0.175475	0.516488
	N270	N	0.087376	0.815259	0.445697
	N271	N	0.912985	0.815422	0.514245
	N272	N	0.180601	0.461656	0.894606
	N273	N	0.180169	0.529216	0.067811
	N274	N	0.819474	0.459706	0.069765
	N275	N	0.821855	0.530348	0.896708
	O276	O	0.035000	0.764266	0.024454
	H277	H	0.064013	0.762621	0.018834
	H278	H	0.029426	0.769666	0.006261
	O279	O	0.301947	0.696946	0.278512
	H280	H	0.335495	0.697641	0.297350
	H281	H	0.304823	0.656303	0.271829
	O282	O	0.977313	-0.004921	1.210148
	H283	H	0.963802	-0.015363	1.191495
	H284	H	0.961410	-0.018252	1.217466
	O285	O	0.486396	0.445911	0.546224
	H286	H	0.489357	0.448601	0.542613
	H287	H	0.495091	0.441794	0.550259
	O288	O	0.498413	0.277682	0.652345
	H289	H	0.496192	0.267270	0.670696
	H290	H	0.492230	0.283091	0.638680
	O291	O	0.445464	0.262692	0.429425
	H292	H	0.440257	0.267439	0.430965
	H293	H	0.460538	0.256251	0.452991
	O294	O	1.118072	-0.089520	1.184525
	H295	H	1.100405	-0.085171	1.189526
	H296	H	1.102843	-0.106246	1.191959
	O297	O	0.530699	0.515346	0.503193
	H298	H	0.525115	0.507146	0.514444
	H299	H	0.532312	0.524972	0.502359
	O300	O	-0.472016	-0.737235	1.581297
	H301	H	-0.477465	-0.725402	1.586834
	H302	H	-0.460368	-0.744923	1.586619
	O303	O	0.674072	0.491072	0.522432
	H304	H	0.675796	0.499471	0.524916
	H305	H	0.667373	0.498561	0.532961
	O306	O	0.530401	0.309847	0.295389
	H307	H	0.542351	0.294316	0.287454
	H308	H	0.532117	0.296990	0.307019
	O309	O	0.532955	0.663396	0.490583
	H310	H	0.549153	0.663975	0.468480
	H311	H	0.539042	0.660192	0.502679
	O312	O	0.462868	0.557152	0.707951
	H313	H	0.462869	0.572483	0.708079
	H314	H	0.484709	0.530856	0.716514
	O315	O	0.972582	0.774736	1.203286
	H316	H	0.969439	0.765790	1.187318
	H317	H	0.967925	0.743853	1.218860
	O318	O	0.540083	0.718668	0.707380
	H319	H	0.539795	0.738072	0.726239
	H320	H	0.533362	0.721060	0.704975
	O321	O	0.304898	0.690830	0.676718
	H322	H	0.327403	0.669214	0.662209
	H323	H	0.318764	0.670959	0.654627
	O324	O	0.970656	1.211740	-0.235042
	H325	H	0.976157	1.200873	-0.224777
	H326	H	0.963212	1.236720	-0.259332
	O327	O	0.027979	0.220900	1.201790
	H328	H	0.028864	0.220463	1.222695
	H329	H	0.036607	0.219353	1.220269
	O330	O	0.693531	0.692299	0.288160
	H331	H	0.708871	0.697558	0.277196
	H332	H	0.709179	0.699014	0.284601
	O333	O	0.511817	0.612789	0.261221
	H334	H	0.514510	0.617168	0.268212
	H335	H	0.504778	0.633727	0.255546
	O336	O	0.277689	0.417427	0.511472
	H337	H	0.288303	0.410476	0.539852
	H338	H	0.263975	0.428618	0.522001
	O339	O	1.035519	-0.229692	0.751996
	H340	H	1.042323	-0.262075	0.721053
	H341	H	1.081484	-0.223657	0.754772
	O342	O	-0.216263	0.029231	-0.238597
	H343	H	-0.222244	0.015174	-0.255261
	H344	H	-0.216955	0.019902	-0.238114
	O345	O	0.218154	1.021950	1.195687
	H346	H	0.220048	1.029471	1.211003
	H347	H	0.214238	1.022792	1.212056
	O348	O	0.178358	0.191076	-0.005266
	H349	H	0.181827	0.193179	0.015112
	H350	H	0.172374	0.195989	-0.004089
	O351	O	0.338277	0.340926	0.281431
	H352	H	0.344141	0.355298	0.292518
	H353	H	0.348146	0.345685	0.295853
	O354	O	-0.202122	-0.205606	1.194473
	H355	H	-0.172196	-0.211670	1.174749
	H356	H	-0.208709	-0.156909	1.190880
	O357	O	0.713027	0.702438	0.686089
	H358	H	0.741586	0.735478	0.718306
	H359	H	0.681944	0.688576	0.692666
	O360	O	0.292092	0.280609	0.694220
	H361	H	0.305670	0.294438	0.677650
	H362	H	0.259982	0.253151	0.725528
	O363	O	-0.219186	-0.036379	0.201609
	H364	H	-0.243768	-0.028733	0.222964
	H365	H	-0.219900	-0.014687	0.179378
	O366	O	0.764191	0.226272	0.746101
	H367	H	0.787593	0.224060	0.746217
	H368	H	0.755064	0.195394	0.729372
	O369	O	0.365484	0.396231	0.355404
	H370	H	0.369824	0.384365	0.375636
	H371	H	0.368649	0.400593	0.362183
	O372	O	0.705761	1.287614	0.272173
	H373	H	0.699149	1.325419	0.271877
	H374	H	0.689351	1.281657	0.281883
	O375	O	0.953185	-0.144486	-0.120448
	H376	H	0.958590	-0.130689	-0.129372
	H377	H	0.970963	-0.144001	-0.135179
	O378	O	0.706611	0.586518	0.488417
	H379	H	0.693739	0.605896	0.499871
	H380	H	0.708689	0.581975	0.497559
	O381	O	0.168074	1.017232	0.902667
	H382	H	0.175370	1.025632	0.921445
	H383	H	0.175784	1.005855	0.897369
	O384	O	0.974782	0.224500	1.046008
	H385	H	0.945630	0.212720	1.045334
	H386	H	0.972222	0.236436	1.080700
	O387	O	0.831041	1.153293	0.153309
	H388	H	0.823702	1.158133	0.148655
	H389	H	0.843586	1.148552	0.152333
	O390	O	0.690473	0.499635	0.279119
	H391	H	0.696706	0.509721	0.286757
	H392	H	0.660067	0.507675	0.270638
	O393	O	0.277710	0.463886	0.705024
	H394	H	0.277267	0.471224	0.721566
	H395	H	0.264432	0.433981	0.716972
	O396	O	0.034235	1.225378	0.928915
	H397	H	0.035033	1.231492	0.945027
	H398	H	0.008068	1.228274	0.927459
	O399	O	0.134372	0.035192	1.042801
	H400	H	0.130396	0.045486	1.040607
	H401	H	0.140529	0.044818	1.045799
	O402	O	0.715091	0.279601	0.458663
	H403	H	0.719993	0.300086	0.454008
	H404	H	0.738640	0.258762	0.443121
	O405	O	1.063561	0.045892	0.757022
	H406	H	1.093196	0.045196	0.746527
	H407	H	1.070618	0.036701	0.779150
	O408	O	0.179985	-0.056259	0.012495
	H409	H	0.174659	-0.056128	0.039237
	H410	H	0.187798	-0.050407	0.023219
	O411	O	1.043226	1.101049	1.131974
	H412	H	1.039136	1.098837	1.143032
	H413	H	1.053483	1.103667	1.128353
	O414	O	0.282428	0.530438	0.257364
	H415	H	0.287534	0.508040	0.256854
	H416	H	0.264690	0.530328	0.240797
	O417	O	0.674815	0.710653	0.509373
	H418	H	0.668706	0.686392	0.546012
	H419	H	0.698712	0.734458	0.513527
	O420	O	0.336429	0.321501	0.543491
	H421	H	0.335956	0.309648	0.542163
	H422	H	0.343296	0.329752	0.550127
	O423	O	0.221020	-0.036054	0.754278
	H424	H	0.231554	-0.064193	0.749085
	H425	H	0.241553	-0.051727	0.746007
	O426	O	0.439546	0.721286	0.522894
	H427	H	0.453574	0.731955	0.509174
	H428	H	0.429882	0.709889	0.511161
	O429	O	1.208524	1.203587	1.190345
	H430	H	1.199047	1.181943	1.180461
	H431	H	1.218081	1.227704	1.208813
	O432	O	0.667632	0.448681	0.387203
	H433	H	0.663232	0.439128	0.371642
	H434	H	0.672156	0.478864	0.391953
	O435	O	-0.057227	0.946609	-0.253438
	H436	H	-0.046299	0.958131	-0.259736
	H437	H	-0.033074	0.931456	-0.254290
	O438	O	-0.175338	0.064031	0.016140
	H439	H	-0.167768	0.082978	0.006601
	H440	H	-0.170893	0.064695	0.000204
	O441	O	0.196034	-0.209441	0.075838
	H442	H	0.211534	-0.199808	0.106305
	H443	H	0.212457	-0.200416	0.066209
	O444	O	0.691661	0.351129	0.617968
	H445	H	0.679601	0.346240	0.613062
	H446	H	0.687666	0.369981	0.613694
	O447	O	-0.036897	1.064996	0.890462
	H448	H	-0.033282	1.047915	0.901951
	H449	H	-0.020604	1.069346	0.890795
	O450	O	0.213966	0.838026	0.948969
	H451	H	0.213604	0.830692	0.966799
	H452	H	0.210423	0.859775	0.958061
	O453	O	0.384039	0.610229	0.448182
	H454	H	0.381614	0.596169	0.448372
	H455	H	0.382010	0.620380	0.431664
	O456	O	0.189741	0.186619	0.796230
	H457	H	0.170190	0.184299	0.822762
	H458	H	0.173774	0.157078	0.805997
	O459	O	0.488011	0.462934	0.250060
	H460	H	0.493517	0.464802	0.247026
	H461	H	0.493391	0.461570	0.248677
	O462	O	0.894100	0.978221	0.912327
	H463	H	0.902484	0.974289	0.927503
	H464	H	0.907961	0.980022	0.922619
	O465	O	0.949499	-0.066069	0.057717
	H466	H	0.947988	-0.077445	0.055645
	H467	H	0.955793	-0.061200	0.052983
	O468	O	0.495515	0.706069	0.294839
	H469	H	0.510185	0.706173	0.312802
	H470	H	0.505347	0.722011	0.275654
	O471	O	0.273875	0.721834	0.451575
	H472	H	0.247158	0.750357	0.440146
	H473	H	0.290741	0.722485	0.427329
	O474	O	0.723895	0.533571	0.706638
	H475	H	0.737987	0.553490	0.714068
	H476	H	0.742320	0.531667	0.706005
	O477	O	0.325566	0.488579	1.516385
	H478	H	0.309398	0.484353	1.504572
	H479	H	0.338447	0.478456	1.538331
	O480	O	0.441321	0.449743	0.415562
	H481	H	0.450521	0.448784	0.417000
	H482	H	0.426675	0.439534	0.415321
	O483	O	0.553905	0.441532	0.710287
	H484	H	0.578722	0.438273	0.704441
	H485	H	0.565192	0.429344	0.713917
	O486	O	1.203067	-0.209388	0.770189
	H487	H	1.238662	-0.242919	0.741759
	H488	H	1.213141	-0.207852	0.816812
	O489	O	0.820245	1.032988	-0.031045
	H490	H	0.817206	1.036344	-0.038398
	H491	H	0.843630	1.036574	-0.033211
	O492	O	-0.129090	-0.162038	-0.068841
	H493	H	-0.125318	-0.157921	-0.079416
	H494	H	-0.127116	-0.143051	-0.067609
	O495	O	-0.202933	0.780301	1.033298
	H496	H	-0.192289	0.773485	1.040673
	H497	H	-0.220966	0.770674	1.013771
	O498	O	0.776567	1.221400	0.958329
	H499	H	0.739363	1.257595	0.951864
	H500	H	0.793122	1.205245	0.932077
	O501	O	0.807818	0.808482	0.786209
	H502	H	0.834136	0.834034	0.791446
	H503	H	0.819154	0.820882	0.819593
