data_Molecule from HDF5

_cell_length_a		16.213799
_cell_length_b		16.319263
_cell_length_c		16.136402
_cell_angle_alpha	89.920770
_cell_angle_beta	90.131177
_cell_angle_gamma	90.061137
_symmetry_space_group_name_H-M	'P 1'
_symmetry_Int_Tables_number		1

loop_
	_symmetry_equiv_pos_as_xyz
	x,y,z

loop_
	_atom_site_label
	_atom_site_type_symbol
	_atom_site_fract_x
	_atom_site_fract_y
	_atom_site_fract_z
	H0	H	0.404924	0.839042	0.714726
	H1	H	0.600507	0.167167	0.712896
	H2	H	0.599407	0.839143	0.287361
	H3	H	0.405502	0.167555	0.286826
	H4	H	0.716639	0.406229	0.835034
	H5	H	0.716656	0.600652	0.165742
	H6	H	0.289960	0.602787	0.835483
	H7	H	0.290127	0.405837	0.165444
	H8	H	0.839163	0.718099	0.399339
	H9	H	0.166802	0.718954	0.601148
	H10	H	0.839256	0.287705	0.600224
	H11	H	0.166900	0.287367	0.400640
	H12	H	0.839250	0.405427	0.713481
	H13	H	0.168407	0.599629	0.711408
	H14	H	0.837964	0.598966	0.287429
	H15	H	0.168210	0.406408	0.288080
	H16	H	0.404471	0.718086	0.835954
	H17	H	0.602214	0.716814	0.164818
	H18	H	0.602630	0.289658	0.835082
	H19	H	0.402655	0.287549	0.164520
	H20	H	0.717524	0.840648	0.402140
	H21	H	0.717351	0.166570	0.597699
	H22	H	0.289054	0.839356	0.599121
	H23	H	0.287909	0.166587	0.400998
	H24	H	0.907057	0.338984	0.212850
	H25	H	0.101163	0.667509	0.213490
	H26	H	0.100727	0.339539	0.786792
	H27	H	0.905770	0.666343	0.784666
	H28	H	0.215654	0.906439	0.334981
	H29	H	0.216780	0.099716	0.666415
	H30	H	0.791512	0.099840	0.335214
	H31	H	0.789809	0.904110	0.665157
	H32	H	0.339824	0.219345	0.898230
	H33	H	0.666918	0.218055	0.100224
	H34	H	0.339557	0.787193	0.100890
	H35	H	0.666611	0.787984	0.899727
	H36	H	0.338343	0.906234	0.212818
	H37	H	0.668097	0.099221	0.212223
	H38	H	0.338039	0.099473	0.787497
	H39	H	0.667641	0.907104	0.788805
	H40	H	0.902967	0.216917	0.336688
	H41	H	0.103476	0.217870	0.665085
	H42	H	0.102343	0.789812	0.335199
	H43	H	0.904358	0.787675	0.664664
	H44	H	0.218407	0.340505	0.901182
	H45	H	0.217311	0.667672	0.097720
	H46	H	0.788418	0.340035	0.100019
	H47	H	0.788908	0.666727	0.900254
	H48	H	0.409789	0.121261	0.599295
	H49	H	0.595532	0.888138	0.589222
	H50	H	0.599493	0.119936	0.410337
	H51	H	0.421810	0.891260	0.412120
	H52	H	0.599696	0.415832	0.117652
	H53	H	0.594855	0.611533	0.878579
	H54	H	0.424255	0.598962	0.115497
	H55	H	0.400277	0.406143	0.877841
	H56	H	0.120463	0.595858	0.408001
	H57	H	0.885388	0.594722	0.594075
	H58	H	0.118765	0.415397	0.592238
	H59	H	0.886457	0.411904	0.406642
	H60	H	0.123612	0.405318	0.598224
	H61	H	0.885166	0.599499	0.591108
	H62	H	0.121380	0.597892	0.405681
	H63	H	0.883709	0.406211	0.402539
	H64	H	0.403418	0.606874	0.124156
	H65	H	0.609411	0.590086	0.880549
	H66	H	0.589410	0.409746	0.116467
	H67	H	0.411792	0.423420	0.886483
	H68	H	0.600284	0.123031	0.401819
	H69	H	0.602521	0.884924	0.595328
	H70	H	0.414502	0.117410	0.590571
	H71	H	0.396638	0.885772	0.414213
	H72	H	0.909344	0.619126	0.088660
	H73	H	0.096447	0.384696	0.102789
	H74	H	0.094639	0.620517	0.903972
	H75	H	0.908484	0.384533	0.901761
	H76	H	0.086974	0.903981	0.617431
	H77	H	0.094567	0.105283	0.380546
	H78	H	0.918578	0.102160	0.618770
	H79	H	0.909576	0.909652	0.381989
	H80	H	0.622960	0.098067	0.901530
	H81	H	0.382669	0.101791	0.095417
	H82	H	0.621204	0.907514	0.092261
	H83	H	0.382932	0.905962	0.904193
	H84	H	0.620140	0.910979	0.092659
	H85	H	0.387562	0.098337	0.085116
	H86	H	0.621308	0.102868	0.909556
	H87	H	0.385957	0.906847	0.912973
	H88	H	0.901173	0.100241	0.623431
	H89	H	0.103639	0.092371	0.381443
	H90	H	0.105163	0.905574	0.621818
	H91	H	0.910854	0.909458	0.381844
	H92	H	0.097169	0.619616	0.908451
	H93	H	0.089001	0.390970	0.088896
	H94	H	0.906272	0.621688	0.095137
	H95	H	0.915157	0.388547	0.908904
	H96	H	0.404664	0.120040	0.589530
	H97	H	0.593311	0.886107	0.598474
	H98	H	0.592183	0.118746	0.405403
	H99	H	0.408360	0.881932	0.391914
	H100	H	0.599541	0.403988	0.120812
	H101	H	0.583963	0.589222	0.887072
	H102	H	0.405566	0.584465	0.116849
	H103	H	0.422079	0.404388	0.884196
	H104	H	0.120751	0.599037	0.408767
	H105	H	0.887443	0.594633	0.588783
	H106	H	0.119738	0.404224	0.585791
	H107	H	0.886313	0.405377	0.409543
	H108	H	0.913604	0.619404	0.095729
	H109	H	0.104917	0.386348	0.089034
	H110	H	0.099568	0.621207	0.904620
	H111	H	0.904856	0.387060	0.911480
	H112	H	0.096260	0.919854	0.615555
	H113	H	0.088416	0.091123	0.386630
	H114	H	0.911088	0.086680	0.616092
	H115	H	0.909756	0.909152	0.382119
	H116	H	0.619649	0.093722	0.908672
	H117	H	0.386224	0.091085	0.093788
	H118	H	0.621263	0.909031	0.095076
	H119	H	0.386686	0.914555	0.906453
	C120	C	0.381638	0.011203	0.621732
	C121	C	0.625433	0.994543	0.622313
	C122	C	0.624608	0.012057	0.378124
	C123	C	0.380884	0.994783	0.377960
	C124	C	0.624550	0.382457	0.008883
	C125	C	0.624868	0.624916	0.991224
	C126	C	0.382676	0.625034	0.009499
	C127	C	0.382034	0.382115	0.991725
	C128	C	0.011823	0.625149	0.378468
	C129	C	0.994803	0.624539	0.620509
	C130	C	0.012337	0.380323	0.621213
	C131	C	0.994465	0.380307	0.378280
	C132	C	0.881658	0.511656	0.121669
	C133	C	0.125436	0.495314	0.121853
	C134	C	0.125657	0.512333	0.877813
	C135	C	0.881076	0.494721	0.878069
	C136	C	0.124348	0.881844	0.508831
	C137	C	0.124752	0.124443	0.492108
	C138	C	0.881957	0.124145	0.509731
	C139	C	0.881851	0.881091	0.491343
	C140	C	0.512287	0.126022	0.877913
	C141	C	0.494347	0.124784	0.120878
	C142	C	0.511662	0.881307	0.121636
	C143	C	0.494365	0.881702	0.879550
	C144	C	0.384229	0.888024	0.677102
	C145	C	0.621676	0.117996	0.676166
	C146	C	0.620370	0.888144	0.324773
	C147	C	0.384292	0.118323	0.323809
	C148	C	0.678928	0.385738	0.884213
	C149	C	0.679212	0.621327	0.116179
	C150	C	0.327831	0.622531	0.884899
	C151	C	0.327279	0.384854	0.115973
	C152	C	0.888107	0.679802	0.379811
	C153	C	0.118071	0.680331	0.619853
	C154	C	0.888327	0.325688	0.620006
	C155	C	0.117893	0.325186	0.380588
	C156	C	0.888311	0.384035	0.676165
	C157	C	0.118932	0.620866	0.674904
	C158	C	0.887575	0.620775	0.324104
	C159	C	0.118670	0.384347	0.324568
	C160	C	0.384599	0.680062	0.885050
	C161	C	0.622287	0.678981	0.115893
	C162	C	0.622666	0.327598	0.884516
	C163	C	0.383529	0.326449	0.115647
	C164	C	0.679331	0.888909	0.381319
	C165	C	0.679802	0.117878	0.619009
	C166	C	0.326968	0.888058	0.619323
	C167	C	0.326156	0.117920	0.381010
	C168	C	0.885573	0.388102	0.175763
	C169	C	0.122032	0.618811	0.176021
	C170	C	0.121902	0.388571	0.824146
	C171	C	0.884837	0.617582	0.822577
	C172	C	0.178717	0.885085	0.384205
	C173	C	0.179657	0.120997	0.616767
	C174	C	0.828063	0.120614	0.384969
	C175	C	0.827484	0.884004	0.615833
	C176	C	0.388605	0.181069	0.878964
	C177	C	0.618029	0.179578	0.119366
	C178	C	0.388260	0.826110	0.119611
	C179	C	0.617869	0.826647	0.880836
	C180	C	0.387543	0.885212	0.175408
	C181	C	0.618789	0.120835	0.175242
	C182	C	0.387695	0.121409	0.823882
	C183	C	0.618438	0.885921	0.825807
	C184	C	0.883927	0.178439	0.385341
	C185	C	0.123338	0.179418	0.616202
	C186	C	0.122442	0.827137	0.384601
	C187	C	0.884189	0.826054	0.615602
	C188	C	0.180560	0.389190	0.880926
	C189	C	0.179758	0.618806	0.118621
	C190	C	0.826916	0.388597	0.119536
	C191	C	0.826606	0.617644	0.879856
	C192	C	0.403309	0.097405	0.599692
	C193	C	0.603660	0.908540	0.600633
	C194	C	0.603571	0.098271	0.399601
	C195	C	0.402514	0.908701	0.399719
	C196	C	0.602645	0.403593	0.095756
	C197	C	0.602699	0.603358	0.904365
	C198	C	0.404572	0.603066	0.096439
	C199	C	0.404561	0.404660	0.905271
	C200	C	0.098566	0.603764	0.400855
	C201	C	0.908407	0.602677	0.597982
	C202	C	0.098408	0.401948	0.598589
	C203	C	0.907889	0.401572	0.399904
	C204	C	0.903270	0.597800	0.099763
	C205	C	0.103467	0.409562	0.099983
	C206	C	0.103872	0.598145	0.899257
	C207	C	0.903068	0.408694	0.900782
	C208	C	0.102674	0.903500	0.595714
	C209	C	0.102293	0.102762	0.405419
	C210	C	0.903856	0.102694	0.596948
	C211	C	0.903524	0.903009	0.404425
	C212	C	0.598799	0.104624	0.900100
	C213	C	0.407975	0.103142	0.098297
	C214	C	0.598497	0.902819	0.099873
	C215	C	0.407591	0.902753	0.901440
	Zn216	Zn	0.502879	0.002721	0.750850
	Zn217	Zn	0.502935	0.003833	0.249295
	Zn218	Zn	0.752566	0.503271	0.000398
	Zn219	Zn	0.254435	0.503863	0.000190
	Zn220	Zn	0.003439	0.753399	0.499768
	Zn221	Zn	0.002645	0.251649	0.500658
	Zn222	Zn	0.003529	0.503031	0.748848
	Zn223	Zn	0.003494	0.503273	0.250512
	Zn224	Zn	0.503650	0.753031	0.000433
	Zn225	Zn	0.503368	0.253750	0.000047
	Zn226	Zn	0.754174	0.003148	0.500059
	Zn227	Zn	0.252531	0.002325	0.500395
	N228	N	0.417653	0.965591	0.678549
	N229	N	0.588377	0.040429	0.678195
	N230	N	0.587237	0.965842	0.322412
	N231	N	0.417288	0.040856	0.321699
	N232	N	0.680221	0.419143	0.962432
	N233	N	0.680641	0.588259	0.037775
	N234	N	0.326537	0.589059	0.963237
	N235	N	0.326218	0.418759	0.037896
	N236	N	0.966446	0.682748	0.412788
	N237	N	0.039943	0.682383	0.586492
	N238	N	0.966319	0.323063	0.586760
	N239	N	0.039605	0.322501	0.413290
	N240	N	0.966256	0.417453	0.677123
	N241	N	0.041234	0.586889	0.675452
	N242	N	0.965530	0.587427	0.323264
	N243	N	0.040977	0.417814	0.322955
	N244	N	0.417867	0.681710	0.963481
	N245	N	0.589053	0.681141	0.037313
	N246	N	0.589156	0.325728	0.962774
	N247	N	0.416681	0.324543	0.037181
	N248	N	0.681762	0.966583	0.413838
	N249	N	0.682294	0.040197	0.586204
	N250	N	0.325263	0.965589	0.585563
	N251	N	0.323834	0.040024	0.414010
	N252	N	0.918912	0.465746	0.177309
	N253	N	0.089124	0.541044	0.178298
	N254	N	0.088610	0.466042	0.821917
	N255	N	0.918204	0.540045	0.821511
	N256	N	0.179955	0.918348	0.462419
	N257	N	0.180743	0.087585	0.538589
	N258	N	0.826983	0.087272	0.463206
	N259	N	0.825765	0.917447	0.537431
	N260	N	0.467064	0.184053	0.911775
	N261	N	0.539833	0.182017	0.086218
	N262	N	0.466673	0.823639	0.086837
	N263	N	0.539341	0.823624	0.913274
	N264	N	0.465390	0.918606	0.176858
	N265	N	0.540754	0.087662	0.176503
	N266	N	0.465478	0.087955	0.822964
	N267	N	0.540702	0.919289	0.824826
	N268	N	0.916899	0.180551	0.463975
	N269	N	0.089844	0.181579	0.537797
	N270	N	0.089145	0.825230	0.462876
	N271	N	0.917299	0.824171	0.537326
	N272	N	0.183034	0.467069	0.913597
	N273	N	0.181998	0.541036	0.085695
	N274	N	0.824511	0.466372	0.086583
	N275	N	0.824414	0.540243	0.913663
	O276	O	0.486030	0.494253	0.545195
	H277	H	0.491375	0.494261	0.550119
	H278	H	0.494658	0.495242	0.545960
	O279	O	0.087639	-0.000361	0.048683
	H280	H	0.092309	0.000974	0.047835
	H281	H	0.092818	-0.000925	0.044790
	O282	O	0.496731	0.495042	0.539220
	H283	H	0.494032	0.497325	0.542710
	H284	H	0.496554	0.498809	0.536727
	O285	O	0.464250	0.512702	0.572344
	H286	H	0.464642	0.509948	0.577361
	H287	H	0.468652	0.515784	0.573686
	O288	O	1.055192	0.015517	0.074472
	H289	H	1.054727	0.010619	0.072395
	H290	H	1.064876	0.008811	0.073726
	O291	O	-0.498236	0.536287	-0.425034
	H292	H	-0.497841	0.531835	-0.425777
	H293	H	-0.506077	0.528572	-0.418665
	O294	O	0.495816	0.488983	0.564171
	H295	H	0.490959	0.487068	0.552809
	H296	H	0.488914	0.484226	0.561224
	O297	O	0.445590	1.509772	-0.428871
	H298	H	0.442159	1.500099	-0.423557
	H299	H	0.443693	1.503499	-0.428199
	O300	O	0.942760	-0.106184	1.162849
	H301	H	0.943788	-0.105852	1.167130
	H302	H	0.947957	-0.092255	1.166391
	O303	O	0.484604	0.516329	0.530870
	H304	H	0.484488	0.517459	0.531862
	H305	H	0.486986	0.530700	0.536857
	O306	O	-0.095641	0.908494	1.242565
	H307	H	-0.102083	0.915308	1.248933
	H308	H	-0.104137	0.907269	1.242270
	O309	O	0.498307	0.525533	0.515985
	H310	H	0.494832	0.529933	0.520690
	H311	H	0.496188	0.526333	0.516402
