data_Molecule from HDF5

_cell_length_a		16.352080
_cell_length_b		16.015932
_cell_length_c		16.211615
_cell_angle_alpha	89.304226
_cell_angle_beta	90.303211
_cell_angle_gamma	89.710884
_symmetry_space_group_name_H-M	'P 1'
_symmetry_Int_Tables_number		1

loop_
	_symmetry_equiv_pos_as_xyz
	x,y,z

loop_
	_atom_site_label
	_atom_site_type_symbol
	_atom_site_fract_x
	_atom_site_fract_y
	_atom_site_fract_z
	H0	H	0.391991	0.838770	0.709609
	H1	H	0.585936	0.171642	0.707850
	H2	H	0.585913	0.837990	0.288241
	H3	H	0.388066	0.170178	0.278534
	H4	H	0.701892	0.405748	0.831661
	H5	H	0.706994	0.608396	0.156312
	H6	H	0.271005	0.609362	0.830919
	H7	H	0.270739	0.401782	0.158217
	H8	H	0.824400	0.722846	0.395105
	H9	H	0.153054	0.714770	0.588582
	H10	H	0.824417	0.291311	0.594552
	H11	H	0.151390	0.293059	0.399530
	H12	H	0.825155	0.404766	0.711890
	H13	H	0.150389	0.603876	0.710220
	H14	H	0.825292	0.610136	0.275941
	H15	H	0.150551	0.406043	0.280441
	H16	H	0.389608	0.722537	0.831249
	H17	H	0.581140	0.710256	0.162068
	H18	H	0.585058	0.295108	0.830812
	H19	H	0.390967	0.289635	0.159615
	H20	H	0.703937	0.840948	0.397716
	H21	H	0.703536	0.170032	0.597686
	H22	H	0.274742	0.839539	0.596251
	H23	H	0.272419	0.171261	0.391786
	H24	H	0.886724	0.341994	0.212578
	H25	H	0.085502	0.672728	0.204337
	H26	H	0.085623	0.338986	0.785678
	H27	H	0.888134	0.672105	0.778909
	H28	H	0.205274	0.904869	0.332217
	H29	H	0.206661	0.108326	0.657107
	H30	H	0.766957	0.112713	0.333903
	H31	H	0.774034	0.901413	0.658964
	H32	H	0.325098	0.222929	0.894821
	H33	H	0.652235	0.218526	0.094294
	H34	H	0.325132	0.791225	0.096042
	H35	H	0.652264	0.793856	0.903975
	H36	H	0.325975	0.903952	0.213312
	H37	H	0.650721	0.105341	0.214762
	H38	H	0.326573	0.110294	0.775715
	H39	H	0.650201	0.902832	0.781348
	H40	H	0.887244	0.223403	0.331425
	H41	H	0.084453	0.215781	0.660312
	H42	H	0.084650	0.796602	0.329124
	H43	H	0.894472	0.791492	0.659661
	H44	H	0.204731	0.341927	0.893486
	H45	H	0.201121	0.671467	0.092717
	H46	H	0.773304	0.339995	0.096227
	H47	H	0.769797	0.670778	0.889884
	H48	H	0.390114	0.122515	0.574782
	H49	H	0.582437	0.886473	0.589932
	H50	H	0.581118	0.124537	0.405651
	H51	H	0.388928	0.884300	0.404756
	H52	H	0.581349	0.419247	0.110775
	H53	H	0.579462	0.595341	0.877618
	H54	H	0.395931	0.596139	0.112249
	H55	H	0.397699	0.407793	0.875931
	H56	H	0.103819	0.603505	0.402628
	H57	H	0.870687	0.600215	0.589107
	H58	H	0.105454	0.409637	0.592642
	H59	H	0.871727	0.416918	0.398838
	H60	H	0.102924	0.412007	0.589274
	H61	H	0.871471	0.600271	0.585638
	H62	H	0.103576	0.595903	0.397514
	H63	H	0.871536	0.414896	0.405672
	H64	H	0.389273	0.601323	0.114904
	H65	H	0.575279	0.602524	0.877503
	H66	H	0.577593	0.409659	0.112618
	H67	H	0.384071	0.419932	0.876384
	H68	H	0.575816	0.124592	0.401116
	H69	H	0.582675	0.885705	0.590310
	H70	H	0.389020	0.128500	0.593782
	H71	H	0.399150	0.886295	0.401956
	H72	H	0.894725	0.624034	0.080429
	H73	H	0.086272	0.385247	0.086223
	H74	H	0.070607	0.624095	0.895259
	H75	H	0.892116	0.385210	0.899170
	H76	H	0.090045	0.914737	0.612962
	H77	H	0.084463	0.100297	0.376181
	H78	H	0.883168	0.108348	0.620790
	H79	H	0.897663	0.918700	0.379895
	H80	H	0.603725	0.092153	0.896717
	H81	H	0.373674	0.092893	0.091906
	H82	H	0.605648	0.902944	0.090930
	H83	H	0.371096	0.912427	0.902732
	H84	H	0.603104	0.913871	0.091362
	H85	H	0.371576	0.102458	0.086187
	H86	H	0.607307	0.105848	0.900461
	H87	H	0.372100	0.916735	0.903774
	H88	H	0.889442	0.079326	0.609397
	H89	H	0.079117	0.094944	0.379188
	H90	H	0.077328	0.915200	0.610570
	H91	H	0.892697	0.914397	0.376255
	H92	H	0.079174	0.622650	0.910762
	H93	H	0.075919	0.386611	0.093519
	H94	H	0.892875	0.625233	0.083343
	H95	H	0.898656	0.388299	0.904595
	H96	H	0.406650	0.121400	0.586210
	H97	H	0.581326	0.885766	0.590953
	H98	H	0.575241	0.121961	0.407321
	H99	H	0.395868	0.888708	0.412094
	H100	H	0.586583	0.411573	0.114664
	H101	H	0.583191	0.602099	0.875475
	H102	H	0.388041	0.592042	0.112420
	H103	H	0.400807	0.423934	0.882587
	H104	H	0.107921	0.604088	0.393896
	H105	H	0.872127	0.596581	0.587175
	H106	H	0.104317	0.413068	0.592332
	H107	H	0.874042	0.421479	0.403775
	H108	H	0.895838	0.623733	0.083076
	H109	H	0.075733	0.390511	0.082049
	H110	H	0.087209	0.628716	0.896715
	H111	H	0.889839	0.387678	0.907987
	H112	H	0.082691	0.903423	0.614465
	H113	H	0.076138	0.103174	0.377093
	H114	H	0.911502	0.101675	0.609426
	H115	H	0.890460	0.921268	0.378100
	H116	H	0.601957	0.096528	0.909079
	H117	H	0.376415	0.093794	0.081917
	H118	H	0.606826	0.909029	0.099538
	H119	H	0.370825	0.915357	0.900005
	C120	C	0.367085	0.014248	0.615608
	C121	C	0.610185	0.996093	0.618510
	C122	C	0.607621	0.014084	0.376778
	C123	C	0.365777	0.996370	0.374699
	C124	C	0.609904	0.384918	0.003997
	C125	C	0.608112	0.627072	0.985743
	C126	C	0.363514	0.628404	0.004560
	C127	C	0.365629	0.384847	0.986240
	C128	C	-0.003113	0.630491	0.369958
	C129	C	0.979435	0.626844	0.615460
	C130	C	-0.003455	0.382794	0.619306
	C131	C	0.979796	0.386767	0.374162
	C132	C	0.865191	0.515196	0.114569
	C133	C	0.107904	0.497269	0.114934
	C134	C	0.108274	0.515003	0.873277
	C135	C	0.864965	0.496965	0.873209
	C136	C	0.110709	0.884358	0.503471
	C137	C	0.108696	0.127211	0.486160
	C138	C	0.864596	0.128689	0.505107
	C139	C	0.866796	0.885938	0.486513
	C140	C	0.496848	0.128803	0.872420
	C141	C	0.480810	0.126003	0.117139
	C142	C	0.497299	0.881261	0.120984
	C143	C	0.479381	0.884910	0.875610
	C144	C	0.370557	0.888740	0.672053
	C145	C	0.606503	0.121641	0.671452
	C146	C	0.606217	0.888477	0.323998
	C147	C	0.367720	0.120874	0.316801
	C148	C	0.664438	0.386073	0.880676
	C149	C	0.666155	0.625766	0.108516
	C150	C	0.308716	0.629160	0.880394
	C151	C	0.309660	0.383090	0.109470
	C152	C	0.873525	0.685580	0.373534
	C153	C	0.103413	0.679288	0.610907
	C154	C	0.873524	0.328303	0.615593
	C155	C	0.102415	0.330530	0.377918
	C156	C	0.873724	0.384685	0.673922
	C157	C	0.102133	0.623993	0.671307
	C158	C	0.874078	0.629708	0.314117
	C159	C	0.102078	0.387136	0.318865
	C160	C	0.368044	0.684892	0.880298
	C161	C	0.603582	0.676789	0.111464
	C162	C	0.606195	0.330991	0.880251
	C163	C	0.369350	0.327435	0.110125
	C164	C	0.664833	0.889886	0.378731
	C165	C	0.665151	0.120833	0.616658
	C166	C	0.312459	0.889319	0.615551
	C167	C	0.310075	0.121279	0.372986
	C168	C	0.866785	0.391101	0.173554
	C169	C	0.105230	0.622778	0.167644
	C170	C	0.106182	0.389394	0.821195
	C171	C	0.867590	0.622157	0.816615
	C172	C	0.166204	0.886130	0.380589
	C173	C	0.166826	0.126382	0.608884
	C174	C	0.806597	0.130806	0.382380
	C175	C	0.812447	0.883741	0.610017
	C176	C	0.374295	0.185163	0.874234
	C177	C	0.603348	0.181083	0.115169
	C178	C	0.374114	0.827679	0.117118
	C179	C	0.602730	0.830031	0.881433
	C180	C	0.374326	0.884014	0.175325
	C181	C	0.602660	0.124800	0.175244
	C182	C	0.374974	0.129171	0.814882
	C183	C	0.601866	0.884767	0.820562
	C184	C	0.866264	0.186323	0.381306
	C185	C	0.105660	0.179443	0.610736
	C186	C	0.106448	0.831839	0.379093
	C187	C	0.871789	0.828427	0.610092
	C188	C	0.165592	0.390928	0.875048
	C189	C	0.163348	0.621913	0.112614
	C190	C	0.810332	0.390226	0.115474
	C191	C	0.808722	0.621598	0.871883
	C192	C	0.388846	0.101553	0.592014
	C193	C	0.588636	0.908635	0.596833
	C194	C	0.584256	0.101142	0.398329
	C195	C	0.388325	0.909085	0.399046
	C196	C	0.588217	0.407063	0.090166
	C197	C	0.585947	0.606271	0.899377
	C198	C	0.384827	0.603723	0.090687
	C199	C	0.387766	0.409777	0.900531
	C200	C	0.082868	0.607849	0.391523
	C201	C	0.893597	0.605264	0.593640
	C202	C	0.082037	0.404957	0.597532
	C203	C	0.894463	0.410660	0.396411
	C204	C	0.887753	0.601846	0.089649
	C205	C	0.085751	0.410037	0.093693
	C206	C	0.085608	0.602573	0.894680
	C207	C	0.887016	0.409703	0.897031
	C208	C	0.089543	0.904952	0.590278
	C209	C	0.086440	0.105600	0.399918
	C210	C	0.887883	0.103805	0.590808
	C211	C	0.887389	0.910882	0.400391
	C212	C	0.582268	0.105182	0.895344
	C213	C	0.395847	0.103047	0.093722
	C214	C	0.582985	0.902604	0.100206
	C215	C	0.393562	0.908198	0.896142
	Zn216	Zn	0.488616	0.005541	0.744323
	Zn217	Zn	0.488144	0.004036	0.248152
	Zn218	Zn	0.736909	0.506125	-0.005951
	Zn219	Zn	0.235322	0.506046	-0.005444
	Zn220	Zn	-0.011567	0.757155	0.493637
	Zn221	Zn	-0.012308	0.255881	0.495788
	Zn222	Zn	-0.012733	0.505376	0.746665
	Zn223	Zn	-0.012111	0.507409	0.242492
	Zn224	Zn	0.487481	0.754849	-0.002612
	Zn225	Zn	0.489147	0.257024	-0.004901
	Zn226	Zn	0.736411	0.005884	0.496478
	Zn227	Zn	0.237844	0.006332	0.495041
	N228	N	0.403823	0.967572	0.672331
	N229	N	0.573112	0.042930	0.672724
	N230	N	0.571235	0.966686	0.322549
	N231	N	0.401537	0.041975	0.317467
	N232	N	0.667020	0.418825	0.958775
	N233	N	0.669048	0.595364	0.029475
	N234	N	0.305911	0.594568	0.958440
	N235	N	0.307028	0.417995	0.031580
	N236	N	0.950886	0.686520	0.407198
	N237	N	0.026161	0.681236	0.576704
	N238	N	0.950824	0.326822	0.582368
	N239	N	0.025286	0.330155	0.411604
	N240	N	0.951152	0.417859	0.676514
	N241	N	0.024109	0.592192	0.674322
	N242	N	0.951734	0.596162	0.311824
	N243	N	0.024687	0.421103	0.316189
	N244	N	0.401160	0.684743	0.958579
	N245	N	0.567942	0.677609	0.034300
	N246	N	0.572922	0.330169	0.957946
	N247	N	0.403519	0.328359	0.032611
	N248	N	0.666063	0.969156	0.410584
	N249	N	0.667654	0.041715	0.584584
	N250	N	0.309831	0.968418	0.581455
	N251	N	0.308831	0.042809	0.408238
	N252	N	0.900243	0.469764	0.173163
	N253	N	0.071230	0.544242	0.169227
	N254	N	0.071279	0.467771	0.819931
	N255	N	0.901889	0.543581	0.817333
	N256	N	0.168852	0.918058	0.458904
	N257	N	0.168921	0.094715	0.530285
	N258	N	0.805089	0.095893	0.460328
	N259	N	0.809413	0.919101	0.532309
	N260	N	0.451011	0.184886	0.909417
	N261	N	0.526668	0.182093	0.079828
	N262	N	0.451368	0.825933	0.084029
	N263	N	0.525497	0.829872	0.914768
	N264	N	0.451844	0.916605	0.178007
	N265	N	0.525343	0.091174	0.176359
	N266	N	0.452280	0.094796	0.813490
	N267	N	0.524162	0.918160	0.816714
	N268	N	0.901429	0.185170	0.458644
	N269	N	0.070282	0.180292	0.533569
	N270	N	0.072446	0.830699	0.456449
	N271	N	0.904844	0.829639	0.532244
	N272	N	0.166689	0.470171	0.907050
	N273	N	0.165069	0.542833	0.080381
	N274	N	0.809276	0.468679	0.079643
	N275	N	0.806779	0.542632	0.906216
	O276	O	-0.045016	-0.027259	-0.023122
	H277	H	-0.034865	-0.016593	-0.019736
	H278	H	-0.042521	-0.024121	-0.013381
	O279	O	0.504604	0.578229	0.497987
	H280	H	0.513155	0.578602	0.497138
	H281	H	0.507869	0.575612	0.494447
	O282	O	0.555083	0.396273	0.489507
	H283	H	0.553141	0.396799	0.486987
	H284	H	0.547747	0.390610	0.485981
	O285	O	-0.053513	1.086985	1.100068
	H286	H	-0.049618	1.088027	1.097876
	H287	H	-0.057819	1.089192	1.096616
	O288	O	0.527313	0.511566	0.478146
	H289	H	0.529724	0.504618	0.477606
	H290	H	0.524788	0.504327	0.482173
	O291	O	1.050611	1.114385	1.084244
	H292	H	1.050927	1.100784	1.089003
	H293	H	1.052056	1.116294	1.092277
	O294	O	1.123140	1.013755	0.944316
	H295	H	1.134784	1.011417	0.951314
	H296	H	1.125803	1.005583	0.952173
	O297	O	0.967867	0.023043	0.966631
	H298	H	0.977530	0.021607	0.964164
	H299	H	0.956537	0.028252	0.967553
	O300	O	0.512464	0.476181	0.560322
	H301	H	0.524008	0.467812	0.567707
	H302	H	0.511614	0.476442	0.565715
	O303	O	0.982055	-0.006752	-0.001046
	H304	H	0.976790	-0.005018	-0.004574
	H305	H	0.979950	-0.014804	-0.005305
	O306	O	-0.049208	1.118800	0.935516
	H307	H	-0.033815	1.115270	0.926460
	H308	H	-0.048816	1.117694	0.946047
	O309	O	1.086506	1.015942	0.928479
	H310	H	1.071606	1.017641	0.921044
	H311	H	1.086364	1.003992	0.915568
	O312	O	0.858043	0.050600	0.920011
	H313	H	0.864856	0.055659	0.913027
	H314	H	0.855428	0.063580	0.919692
	O315	O	0.540937	0.513735	0.481000
	H316	H	0.553801	0.517428	0.482826
	H317	H	0.536101	0.502174	0.496751
	O318	O	0.454586	0.469234	0.468155
	H319	H	0.444880	0.476588	0.476286
	H320	H	0.462072	0.468780	0.465612
	O321	O	1.021862	1.002114	0.964036
	H322	H	1.024143	0.996264	0.964755
	H323	H	1.026383	1.005302	0.957621
	O324	O	0.799351	0.030798	-0.003156
	H325	H	0.792904	0.027865	-0.010595
	H326	H	0.798226	0.040597	-0.004781
	O327	O	0.476069	0.437188	0.460040
	H328	H	0.471087	0.438002	0.458728
	H329	H	0.472261	0.447153	0.455236
	O330	O	0.934510	0.023750	0.919144
	H331	H	0.923902	0.010140	0.909665
	H332	H	0.942350	0.019572	0.921529
	O333	O	0.884532	0.970872	-0.093577
	H334	H	0.881375	0.981725	-0.101971
	H335	H	0.896637	0.966506	-0.089183
	O336	O	0.543846	0.477700	0.447044
	H337	H	0.554877	0.476778	0.436250
	H338	H	0.549874	0.481703	0.448697
	O339	O	0.532610	0.409817	0.483974
	H340	H	0.526329	0.404303	0.481428
	H341	H	0.541609	0.406290	0.470464
	O342	O	0.026769	1.011314	0.065049
	H343	H	0.025623	1.004983	0.067686
	H344	H	0.023922	1.019727	0.062730
	O345	O	0.056698	-0.079651	-0.026832
	H346	H	0.056094	-0.093981	-0.025075
	H347	H	0.056738	-0.072447	-0.022789
	O348	O	1.090734	0.098351	1.106753
	H349	H	1.084032	0.111509	1.121925
	H350	H	1.102689	0.100237	1.105096
	O351	O	0.007211	0.903997	0.915633
	H352	H	0.001768	0.897130	0.917678
	H353	H	0.000594	0.896044	0.918244
	O354	O	0.471619	0.450428	0.486106
	H355	H	0.461113	0.449020	0.486028
	H356	H	0.475512	0.461342	0.487481
	O357	O	0.998361	0.050864	-0.009195
	H358	H	0.999522	0.065984	-0.013771
	H359	H	1.003928	0.056441	-0.013190
	O360	O	0.057382	-0.086517	0.056427
	H361	H	0.054472	-0.097863	0.062448
	H362	H	0.067929	-0.074052	0.061664
	O363	O	0.530547	0.432300	0.413954
	H364	H	0.532872	0.441933	0.405040
	H365	H	0.539274	0.424303	0.409940
	O366	O	-0.052260	-0.026182	1.068293
	H367	H	-0.059640	-0.026603	1.071472
	H368	H	-0.045016	-0.024093	1.074392
	O369	O	0.455670	0.485834	0.496074
	H370	H	0.461101	0.480681	0.495992
	H371	H	0.446878	0.485740	0.504900
