data_Molecule from HDF5

_cell_length_a		16.159589
_cell_length_b		16.318068
_cell_length_c		16.202734
_cell_angle_alpha	90.167769
_cell_angle_beta	90.208584
_cell_angle_gamma	89.803587
_symmetry_space_group_name_H-M	'P 1'
_symmetry_Int_Tables_number		1

loop_
	_symmetry_equiv_pos_as_xyz
	x,y,z

loop_
	_atom_site_label
	_atom_site_type_symbol
	_atom_site_fract_x
	_atom_site_fract_y
	_atom_site_fract_z
	H0	H	0.402470	0.836169	0.712708
	H1	H	0.599072	0.163235	0.715271
	H2	H	0.600570	0.836065	0.285721
	H3	H	0.402120	0.163212	0.284429
	H4	H	0.713247	0.400855	0.835007
	H5	H	0.713134	0.595311	0.165201
	H6	H	0.287817	0.594910	0.834695
	H7	H	0.289892	0.402588	0.165125
	H8	H	0.835866	0.713891	0.400571
	H9	H	0.164799	0.714050	0.600454
	H10	H	0.835267	0.286890	0.597539
	H11	H	0.165509	0.284476	0.402808
	H12	H	0.834844	0.404392	0.712176
	H13	H	0.165503	0.596739	0.714267
	H14	H	0.835524	0.596636	0.287308
	H15	H	0.166216	0.401656	0.288416
	H16	H	0.399320	0.713601	0.835937
	H17	H	0.601033	0.713104	0.163893
	H18	H	0.600603	0.282790	0.835932
	H19	H	0.403324	0.284571	0.163772
	H20	H	0.715320	0.836025	0.402519
	H21	H	0.714677	0.163502	0.598827
	H22	H	0.288524	0.835879	0.594886
	H23	H	0.286174	0.164038	0.400962
	H24	H	0.903418	0.335815	0.213885
	H25	H	0.099148	0.663207	0.215896
	H26	H	0.099788	0.336630	0.785053
	H27	H	0.903173	0.663768	0.788063
	H28	H	0.212239	0.902350	0.334524
	H29	H	0.213365	0.097603	0.664393
	H30	H	0.787462	0.095898	0.334155
	H31	H	0.789963	0.903729	0.664724
	H32	H	0.336343	0.214354	0.899306
	H33	H	0.665674	0.212135	0.098715
	H34	H	0.336172	0.785439	0.097094
	H35	H	0.665578	0.783335	0.899948
	H36	H	0.335621	0.903503	0.210413
	H37	H	0.666407	0.095910	0.212685
	H38	H	0.335230	0.095799	0.787166
	H39	H	0.666557	0.900770	0.786499
	H40	H	0.899827	0.214975	0.335808
	H41	H	0.099868	0.214369	0.663844
	H42	H	0.098713	0.784457	0.335955
	H43	H	0.902595	0.786492	0.663921
	H44	H	0.213292	0.335287	0.902845
	H45	H	0.215937	0.663052	0.099592
	H46	H	0.788310	0.335221	0.097354
	H47	H	0.786436	0.663201	0.903230
	H48	H	0.403932	0.118768	0.598835
	H49	H	0.591145	0.885457	0.589357
	H50	H	0.595147	0.119546	0.398302
	H51	H	0.408133	0.886801	0.415306
	H52	H	0.598685	0.406263	0.118165
	H53	H	0.592335	0.584395	0.884165
	H54	H	0.396583	0.601310	0.123357
	H55	H	0.405141	0.407900	0.882108
	H56	H	0.119186	0.586262	0.401359
	H57	H	0.880692	0.593687	0.599111
	H58	H	0.117743	0.410079	0.595134
	H59	H	0.880234	0.401691	0.403335
	H60	H	0.119904	0.401834	0.596485
	H61	H	0.881438	0.599920	0.591611
	H62	H	0.121298	0.600521	0.408113
	H63	H	0.884474	0.404961	0.413028
	H64	H	0.407316	0.577418	0.112817
	H65	H	0.587600	0.595582	0.882858
	H66	H	0.591331	0.406531	0.116047
	H67	H	0.410607	0.405194	0.883033
	H68	H	0.586370	0.113705	0.408253
	H69	H	0.599261	0.881991	0.590721
	H70	H	0.415084	0.114735	0.593566
	H71	H	0.396370	0.879345	0.401189
	H72	H	0.900678	0.616157	0.089652
	H73	H	0.108349	0.379135	0.095051
	H74	H	0.083296	0.614614	0.903784
	H75	H	0.910987	0.385366	0.910633
	H76	H	0.093249	0.902414	0.618554
	H77	H	0.080348	0.094509	0.385013
	H78	H	0.906090	0.095270	0.618575
	H79	H	0.905198	0.897892	0.379198
	H80	H	0.618409	0.094855	0.912729
	H81	H	0.385686	0.082584	0.090888
	H82	H	0.617431	0.908907	0.092092
	H83	H	0.384794	0.909082	0.904742
	H84	H	0.620575	0.902570	0.096770
	H85	H	0.379513	0.097045	0.101330
	H86	H	0.616914	0.085154	0.907878
	H87	H	0.381097	0.902214	0.902927
	H88	H	0.907104	0.093453	0.616881
	H89	H	0.098762	0.102789	0.377253
	H90	H	0.098770	0.907579	0.618231
	H91	H	0.901433	0.911822	0.381517
	H92	H	0.097455	0.614074	0.917747
	H93	H	0.088235	0.382190	0.105926
	H94	H	0.905637	0.618368	0.102197
	H95	H	0.901558	0.380647	0.906014
	H96	H	0.403929	0.115596	0.586366
	H97	H	0.593702	0.881655	0.597463
	H98	H	0.599787	0.116641	0.411141
	H99	H	0.415498	0.882921	0.397201
	H100	H	0.594180	0.400227	0.119031
	H101	H	0.599500	0.593480	0.879786
	H102	H	0.423466	0.599740	0.114717
	H103	H	0.405750	0.401647	0.881032
	H104	H	0.114456	0.589526	0.417117
	H105	H	0.884406	0.589996	0.590479
	H106	H	0.116582	0.404652	0.588174
	H107	H	0.883942	0.411863	0.404092
	H108	H	0.913676	0.614062	0.091992
	H109	H	0.089780	0.387420	0.084041
	H110	H	0.102078	0.620555	0.899871
	H111	H	0.910131	0.382037	0.899623
	H112	H	0.091747	0.909392	0.616491
	H113	H	0.098644	0.082326	0.383467
	H114	H	0.908337	0.094931	0.616929
	H115	H	0.915762	0.907238	0.385021
	H116	H	0.620925	0.093376	0.901899
	H117	H	0.384245	0.100063	0.082861
	H118	H	0.619326	0.901089	0.088677
	H119	H	0.383771	0.903259	0.910196
	C120	C	0.379302	0.008248	0.620644
	C121	C	0.622685	0.991259	0.621380
	C122	C	0.622711	0.008241	0.377890
	C123	C	0.378334	0.991499	0.376733
	C124	C	0.622994	0.376412	0.008595
	C125	C	0.622110	0.619537	0.991049
	C126	C	0.379729	0.620459	0.008314
	C127	C	0.379798	0.377159	0.991096
	C128	C	0.009240	0.620271	0.379729
	C129	C	0.991460	0.622057	0.622397
	C130	C	0.008928	0.378458	0.621235
	C131	C	0.991998	0.377744	0.378921
	C132	C	0.879566	0.507435	0.121764
	C133	C	0.123832	0.491224	0.123150
	C134	C	0.122458	0.507941	0.878688
	C135	C	0.879023	0.491018	0.878079
	C136	C	0.122173	0.878072	0.508600
	C137	C	0.121442	0.121135	0.490791
	C138	C	0.878696	0.121656	0.508012
	C139	C	0.879609	0.878423	0.491096
	C140	C	0.509274	0.119643	0.878749
	C141	C	0.492154	0.120530	0.120589
	C142	C	0.509838	0.877209	0.120247
	C143	C	0.492450	0.876557	0.877388
	C144	C	0.382303	0.885047	0.674827
	C145	C	0.619651	0.114419	0.677207
	C146	C	0.620388	0.884752	0.323744
	C147	C	0.381607	0.114427	0.322316
	C148	C	0.676673	0.379921	0.884496
	C149	C	0.676242	0.616284	0.115729
	C150	C	0.324791	0.616403	0.884191
	C151	C	0.326796	0.381192	0.115613
	C152	C	0.884996	0.675571	0.381089
	C153	C	0.115803	0.675997	0.620284
	C154	C	0.884446	0.324239	0.618479
	C155	C	0.116549	0.322627	0.382031
	C156	C	0.884147	0.382705	0.674939
	C157	C	0.116087	0.617712	0.676772
	C158	C	0.884928	0.617648	0.324507
	C159	C	0.116837	0.380963	0.325465
	C160	C	0.380371	0.675187	0.884571
	C161	C	0.620553	0.674813	0.114891
	C162	C	0.620392	0.321331	0.884793
	C163	C	0.382713	0.322377	0.114880
	C164	C	0.677576	0.884877	0.381662
	C165	C	0.676931	0.114623	0.619189
	C166	C	0.325146	0.885010	0.616700
	C167	C	0.323597	0.114677	0.379907
	C168	C	0.882972	0.384485	0.176030
	C169	C	0.120007	0.614410	0.177786
	C170	C	0.119986	0.385151	0.823190
	C171	C	0.881903	0.614822	0.825041
	C172	C	0.175748	0.881290	0.384278
	C173	C	0.176208	0.118221	0.615226
	C174	C	0.824316	0.117510	0.383697
	C175	C	0.826478	0.882767	0.615340
	C176	C	0.385493	0.175997	0.879814
	C177	C	0.616543	0.174812	0.119226
	C178	C	0.385092	0.823505	0.116809
	C179	C	0.616433	0.821285	0.879763
	C180	C	0.384991	0.881828	0.173542
	C181	C	0.616910	0.116690	0.175347
	C182	C	0.384711	0.116948	0.824244
	C183	C	0.616953	0.879814	0.823457
	C184	C	0.880186	0.176520	0.384373
	C185	C	0.119655	0.176010	0.615010
	C186	C	0.119416	0.822645	0.384878
	C187	C	0.882287	0.823998	0.614738
	C188	C	0.176348	0.384514	0.881819
	C189	C	0.178140	0.614387	0.120129
	C190	C	0.826105	0.384146	0.117878
	C191	C	0.823976	0.614203	0.881991
	C192	C	0.401163	0.094143	0.599390
	C193	C	0.601045	0.905554	0.599057
	C194	C	0.600468	0.094270	0.399469
	C195	C	0.400369	0.905211	0.398190
	C196	C	0.601217	0.398120	0.095431
	C197	C	0.599809	0.597730	0.904664
	C198	C	0.402590	0.599144	0.094533
	C199	C	0.401052	0.398579	0.904335
	C200	C	0.096027	0.598575	0.402510
	C201	C	0.904477	0.600700	0.600468
	C202	C	0.095594	0.399311	0.599577
	C203	C	0.905391	0.399625	0.400542
	C204	C	0.900517	0.593957	0.100886
	C205	C	0.102022	0.405121	0.101333
	C206	C	0.100727	0.594122	0.900569
	C207	C	0.900990	0.404878	0.899266
	C208	C	0.100725	0.899871	0.595340
	C209	C	0.099151	0.099563	0.404339
	C210	C	0.900739	0.100793	0.595024
	C211	C	0.901230	0.899428	0.404130
	C212	C	0.596320	0.097666	0.901008
	C213	C	0.405502	0.099376	0.098318
	C214	C	0.596621	0.897999	0.098990
	C215	C	0.405730	0.898329	0.899547
	Zn216	Zn	0.500875	-0.000661	0.750137
	Zn217	Zn	0.501340	-0.000716	0.248559
	Zn218	Zn	0.750538	0.498800	0.000081
	Zn219	Zn	0.251764	0.498873	0.000093
	Zn220	Zn	0.000356	0.749351	0.499937
	Zn221	Zn	0.000368	0.249381	0.499919
	Zn222	Zn	0.000378	0.500030	0.749786
	Zn223	Zn	0.000621	0.499503	0.251055
	Zn224	Zn	0.500931	0.748269	-0.000884
	Zn225	Zn	0.501227	0.248463	-0.000466
	Zn226	Zn	0.751230	-0.000071	0.499961
	Zn227	Zn	0.249730	0.000358	0.499573
	N228	N	0.415264	0.962550	0.677434
	N229	N	0.586526	0.036795	0.678625
	N230	N	0.586802	0.962391	0.321425
	N231	N	0.414528	0.036685	0.320103
	N232	N	0.678300	0.413404	0.962515
	N233	N	0.677473	0.582536	0.037727
	N234	N	0.323980	0.583366	0.962333
	N235	N	0.324994	0.414386	0.037744
	N236	N	0.963265	0.677274	0.414871
	N237	N	0.037357	0.678892	0.587207
	N238	N	0.963021	0.321235	0.585793
	N239	N	0.038016	0.320218	0.414084
	N240	N	0.962362	0.415613	0.676958
	N241	N	0.037755	0.584907	0.678106
	N242	N	0.963036	0.583945	0.323650
	N243	N	0.038555	0.414585	0.323339
	N244	N	0.413794	0.677953	0.962612
	N245	N	0.587186	0.676852	0.036653
	N246	N	0.587805	0.318962	0.963099
	N247	N	0.415090	0.319725	0.036364
	N248	N	0.679043	0.962631	0.414603
	N249	N	0.678860	0.037295	0.585174
	N250	N	0.323311	0.962561	0.583658
	N251	N	0.321243	0.037020	0.412905
	N252	N	0.915429	0.462354	0.178518
	N253	N	0.087091	0.536703	0.179917
	N254	N	0.087026	0.462904	0.821340
	N255	N	0.915166	0.537184	0.822350
	N256	N	0.177386	0.915189	0.462116
	N257	N	0.177293	0.084714	0.537228
	N258	N	0.823485	0.084286	0.461614
	N259	N	0.824728	0.915889	0.537358
	N260	N	0.464032	0.177665	0.912979
	N261	N	0.538100	0.177393	0.085718
	N262	N	0.463806	0.820242	0.084583
	N263	N	0.537981	0.819096	0.912550
	N264	N	0.463185	0.914519	0.175726
	N265	N	0.538619	0.083704	0.176411
	N266	N	0.462609	0.082467	0.823764
	N267	N	0.538701	0.913305	0.821646
	N268	N	0.912942	0.179532	0.462924
	N269	N	0.086131	0.178020	0.536788
	N270	N	0.086944	0.820446	0.463151
	N271	N	0.914689	0.821433	0.536375
	N272	N	0.177884	0.461820	0.915716
	N273	N	0.180575	0.536688	0.087001
	N274	N	0.823906	0.461758	0.084820
	N275	N	0.822168	0.536311	0.914489
	O276	O	-0.008545	0.060102	0.951997
	H277	H	-0.005234	0.060577	0.949814
	H278	H	-0.008021	0.059647	0.946949
	O279	O	0.488874	0.605431	0.480840
	H280	H	0.507366	0.601062	0.484537
	H281	H	0.493079	0.614035	0.484842
	O282	O	0.458071	0.558036	0.495496
	H283	H	0.458591	0.564274	0.489997
	H284	H	0.459203	0.560858	0.496279
	O285	O	0.504448	0.516029	0.501951
	H286	H	0.503358	0.520638	0.507220
	H287	H	0.497479	0.515664	0.498886
	O288	O	0.511970	0.570406	0.492438
	H289	H	0.517022	0.568421	0.490125
	H290	H	0.505438	0.571932	0.487747
	O291	O	0.024875	1.039505	0.956716
	H292	H	0.029124	1.042976	0.958334
	H293	H	0.027004	1.039720	0.955978
	O294	O	0.510596	0.524947	0.488994
	H295	H	0.507878	0.520293	0.490016
	H296	H	0.502182	0.521579	0.489846
	O297	O	1.051124	0.043047	-0.046350
	H298	H	1.053078	0.043806	-0.042201
	H299	H	1.054516	0.045959	-0.045645
