data_Molecule from HDF5

_cell_length_a		16.570478
_cell_length_b		16.532402
_cell_length_c		16.561904
_cell_angle_alpha	89.920512
_cell_angle_beta	89.999661
_cell_angle_gamma	90.041706
_symmetry_space_group_name_H-M	'P 1'
_symmetry_Int_Tables_number		1

loop_
	_symmetry_equiv_pos_as_xyz
	x,y,z

loop_
	_atom_site_label
	_atom_site_type_symbol
	_atom_site_fract_x
	_atom_site_fract_y
	_atom_site_fract_z
	H0	H	0.381314	0.842172	0.703347
	H1	H	0.588188	0.156012	0.703548
	H2	H	0.588810	0.840932	0.263933
	H3	H	0.380482	0.155428	0.263298
	H4	H	0.707582	0.392584	0.827922
	H5	H	0.705583	0.604462	0.139341
	H6	H	0.263023	0.604140	0.826440
	H7	H	0.262262	0.392669	0.138156
	H8	H	0.828434	0.721186	0.377567
	H9	H	0.140286	0.718728	0.589306
	H10	H	0.827818	0.276832	0.587437
	H11	H	0.139641	0.275921	0.377945
	H12	H	0.826476	0.393881	0.703854
	H13	H	0.140398	0.601483	0.704839
	H14	H	0.829353	0.606503	0.259429
	H15	H	0.137293	0.388689	0.257490
	H16	H	0.379405	0.720709	0.826673
	H17	H	0.586984	0.718091	0.140568
	H18	H	0.591933	0.275292	0.827708
	H19	H	0.378261	0.275918	0.138151
	H20	H	0.704540	0.841331	0.379225
	H21	H	0.704811	0.156187	0.587002
	H22	H	0.262469	0.842735	0.589476
	H23	H	0.264588	0.156218	0.380193
	H24	H	0.877539	0.342908	0.205997
	H25	H	0.089336	0.654249	0.205354
	H26	H	0.086732	0.338206	0.765396
	H27	H	0.881395	0.654806	0.763480
	H28	H	0.202627	0.896531	0.326337
	H29	H	0.206803	0.105094	0.640552
	H30	H	0.761500	0.105664	0.328290
	H31	H	0.763660	0.894607	0.640466
	H32	H	0.328856	0.223337	0.873546
	H33	H	0.640450	0.219504	0.086078
	H34	H	0.327039	0.778028	0.087702
	H35	H	0.641115	0.777623	0.879182
	H36	H	0.327910	0.893242	0.204838
	H37	H	0.640073	0.104306	0.204814
	H38	H	0.329184	0.107295	0.757879
	H39	H	0.641951	0.894299	0.762649
	H40	H	0.878451	0.222537	0.328324
	H41	H	0.090943	0.220679	0.640180
	H42	H	0.086312	0.778986	0.327175
	H43	H	0.880270	0.778475	0.641121
	H44	H	0.205091	0.340398	0.878708
	H45	H	0.205013	0.654759	0.088038
	H46	H	0.760627	0.343066	0.089102
	H47	H	0.764888	0.655886	0.878941
	H48	H	0.403334	0.109794	0.572305
	H49	H	0.572436	0.884760	0.579184
	H50	H	0.572967	0.111417	0.391945
	H51	H	0.400559	0.887267	0.392352
	H52	H	0.575898	0.407937	0.096704
	H53	H	0.580123	0.587802	0.868786
	H54	H	0.389581	0.586045	0.095567
	H55	H	0.400073	0.410187	0.871639
	H56	H	0.097166	0.594012	0.399241
	H57	H	0.872426	0.585646	0.573007
	H58	H	0.098248	0.405085	0.574347
	H59	H	0.871397	0.406871	0.396742
	H60	H	0.094907	0.410380	0.572062
	H61	H	0.869925	0.588572	0.578537
	H62	H	0.090571	0.579994	0.399568
	H63	H	0.874688	0.412912	0.400396
	H64	H	0.397954	0.587144	0.094510
	H65	H	0.569309	0.582374	0.873803
	H66	H	0.572253	0.415154	0.093179
	H67	H	0.394202	0.409282	0.868863
	H68	H	0.570890	0.109784	0.395296
	H69	H	0.569528	0.888892	0.569461
	H70	H	0.393060	0.109476	0.563415
	H71	H	0.390255	0.886294	0.400064
	H72	H	0.900860	0.608252	0.070811
	H73	H	0.068613	0.390859	0.063540
	H74	H	0.077076	0.609967	0.896492
	H75	H	0.885466	0.382587	0.895485
	H76	H	0.074734	0.909849	0.596897
	H77	H	0.065981	0.082107	0.376085
	H78	H	0.904208	0.083814	0.591489
	H79	H	0.893357	0.909459	0.371004
	H80	H	0.593928	0.080078	0.891365
	H81	H	0.374805	0.083382	0.065881
	H82	H	0.596278	0.910596	0.074026
	H83	H	0.374363	0.909744	0.896687
	H84	H	0.597286	0.907973	0.074321
	H85	H	0.371966	0.082521	0.077429
	H86	H	0.598751	0.092998	0.890741
	H87	H	0.372704	0.913045	0.891466
	H88	H	0.894921	0.094963	0.598093
	H89	H	0.072526	0.096583	0.370046
	H90	H	0.072491	0.909100	0.596801
	H91	H	0.894987	0.909362	0.371547
	H92	H	0.074820	0.611764	0.889164
	H93	H	0.079234	0.383861	0.070734
	H94	H	0.891137	0.610583	0.067233
	H95	H	0.896828	0.383314	0.887194
	H96	H	0.390616	0.114828	0.575797
	H97	H	0.579585	0.885122	0.570907
	H98	H	0.575032	0.111413	0.395685
	H99	H	0.389681	0.882172	0.388100
	H100	H	0.567489	0.407766	0.094035
	H101	H	0.569345	0.594909	0.870034
	H102	H	0.393059	0.593126	0.097642
	H103	H	0.395437	0.414833	0.872391
	H104	H	0.097735	0.584960	0.386879
	H105	H	0.870240	0.591958	0.572895
	H106	H	0.097057	0.410508	0.577800
	H107	H	0.872434	0.413833	0.392800
	H108	H	0.893462	0.613144	0.076995
	H109	H	0.066192	0.385539	0.077000
	H110	H	0.069166	0.608510	0.894206
	H111	H	0.897372	0.387791	0.900150
	H112	H	0.074442	0.907812	0.597545
	H113	H	0.082282	0.082705	0.371670
	H114	H	0.889254	0.080338	0.595352
	H115	H	0.894212	0.908194	0.370835
	H116	H	0.593073	0.088452	0.902175
	H117	H	0.370382	0.093312	0.071996
	H118	H	0.596410	0.908888	0.072065
	H119	H	0.370735	0.907355	0.892256
	C120	C	0.363555	0.007671	0.603625
	C121	C	0.606023	0.990268	0.605063
	C122	C	0.605197	0.007303	0.362200
	C123	C	0.362203	0.989546	0.362131
	C124	C	0.605339	0.377744	-0.008433
	C125	C	0.604904	0.620000	0.974660
	C126	C	0.361646	0.620938	-0.007898
	C127	C	0.363359	0.377702	0.973891
	C128	C	-0.007918	0.619488	0.362581
	C129	C	0.975010	0.619291	0.605916
	C130	C	-0.007362	0.376896	0.605396
	C131	C	0.975257	0.377160	0.362825
	C132	C	0.862401	0.507227	0.104369
	C133	C	0.104693	0.489633	0.103818
	C134	C	0.105281	0.505784	0.861843
	C135	C	0.862258	0.489025	0.862136
	C136	C	0.105338	0.877490	0.493109
	C137	C	0.105676	0.119905	0.475873
	C138	C	0.863412	0.119657	0.492113
	C139	C	0.862547	0.877024	0.475282
	C140	C	0.492693	0.120823	0.861003
	C141	C	0.475572	0.119405	0.104088
	C142	C	0.492782	0.877292	0.104732
	C143	C	0.476272	0.877635	0.861765
	C144	C	0.361708	0.889453	0.663864
	C145	C	0.607134	0.109015	0.663623
	C146	C	0.607270	0.888709	0.303046
	C147	C	0.361405	0.108267	0.303072
	C148	C	0.666710	0.374489	0.874291
	C149	C	0.664940	0.622184	0.092493
	C150	C	0.302663	0.622603	0.873666
	C151	C	0.302716	0.374563	0.091345
	C152	C	0.875134	0.680761	0.359567
	C153	C	0.093235	0.678620	0.607391
	C154	C	0.874286	0.317334	0.606285
	C155	C	0.092559	0.315824	0.359219
	C156	C	0.873841	0.375436	0.663915
	C157	C	0.093346	0.620284	0.664917
	C158	C	0.875580	0.623520	0.300878
	C159	C	0.091397	0.372050	0.299609
	C160	C	0.360653	0.680545	0.873813
	C161	C	0.606118	0.678924	0.093123
	C162	C	0.609331	0.316241	0.874344
	C163	C	0.360193	0.316500	0.091357
	C164	C	0.664933	0.888958	0.360651
	C165	C	0.665219	0.108851	0.605982
	C166	C	0.303044	0.889644	0.607203
	C167	C	0.303679	0.108491	0.361000
	C168	C	0.859410	0.389288	0.164928
	C169	C	0.107687	0.607194	0.164942
	C170	C	0.105792	0.386312	0.804215
	C171	C	0.862011	0.607757	0.802983
	C172	C	0.163280	0.877155	0.373847
	C173	C	0.166042	0.122373	0.593674
	C174	C	0.802236	0.123404	0.374787
	C175	C	0.803704	0.875969	0.593462
	C176	C	0.375684	0.182671	0.856631
	C177	C	0.593478	0.179484	0.105579
	C178	C	0.374192	0.817934	0.106072
	C179	C	0.594090	0.817572	0.859982
	C180	C	0.374767	0.874962	0.164640
	C181	C	0.593127	0.122217	0.164420
	C182	C	0.375808	0.124703	0.799060
	C183	C	0.594453	0.875921	0.802347
	C184	C	0.860309	0.181284	0.374775
	C185	C	0.108379	0.180233	0.593652
	C186	C	0.105584	0.819016	0.373996
	C187	C	0.861486	0.818006	0.593708
	C188	C	0.164841	0.387334	0.860551
	C189	C	0.165127	0.607558	0.106639
	C190	C	0.801190	0.389867	0.107386
	C191	C	0.804028	0.608173	0.860206
	C192	C	0.388679	0.089923	0.578023
	C193	C	0.581030	0.907595	0.580291
	C194	C	0.580202	0.089435	0.387160
	C195	C	0.386520	0.906603	0.386397
	C196	C	0.579295	0.403136	0.073171
	C197	C	0.580215	0.595314	0.892270
	C198	C	0.386258	0.595937	0.074579
	C199	C	0.389167	0.404009	0.892184
	C200	C	0.073808	0.593728	0.388144
	C201	C	0.892387	0.595583	0.581690
	C202	C	0.075383	0.401433	0.581435
	C203	C	0.894021	0.403669	0.389165
	C204	C	0.887991	0.589168	0.079139
	C205	C	0.078844	0.408172	0.077810
	C206	C	0.080808	0.588493	0.886247
	C207	C	0.886175	0.406312	0.887128
	C208	C	0.080994	0.901767	0.575499
	C209	C	0.080609	0.094464	0.393960
	C210	C	0.888883	0.093800	0.573679
	C211	C	0.887169	0.901837	0.392609
	C212	C	0.573953	0.094719	0.887192
	C213	C	0.393704	0.093972	0.078664
	C214	C	0.575011	0.902028	0.080267
	C215	C	0.394121	0.902778	0.886426
	Zn216	Zn	0.484402	-0.000991	0.732733
	Zn217	Zn	0.484212	-0.001681	0.233747
	Zn218	Zn	0.733965	0.499080	-0.017051
	Zn219	Zn	0.233838	0.498238	-0.017357
	Zn220	Zn	-0.015857	0.748162	0.484291
	Zn221	Zn	-0.015891	0.248605	0.484181
	Zn222	Zn	-0.016197	0.497151	0.734564
	Zn223	Zn	-0.016577	0.498169	0.233272
	Zn224	Zn	0.483949	0.748815	-0.016346
	Zn225	Zn	0.484000	0.248876	-0.017291
	Zn226	Zn	0.733889	-0.001101	0.483559
	Zn227	Zn	0.234245	-0.001454	0.483816
	N228	N	0.398484	0.963848	0.661898
	N229	N	0.571396	0.034016	0.663212
	N230	N	0.570787	0.963325	0.303852
	N231	N	0.397012	0.033202	0.303539
	N232	N	0.664430	0.412076	0.948070
	N233	N	0.664353	0.586342	0.017719
	N234	N	0.303126	0.586224	0.948257
	N235	N	0.304612	0.411827	0.017314
	N236	N	0.948702	0.678370	0.397193
	N237	N	0.018604	0.678286	0.571599
	N238	N	0.949257	0.317811	0.571033
	N239	N	0.019259	0.318787	0.397653
	N240	N	0.948535	0.411512	0.663549
	N241	N	0.018836	0.584053	0.664227
	N242	N	0.949303	0.585838	0.302754
	N243	N	0.017508	0.409530	0.301736
	N244	N	0.396314	0.679848	0.948644
	N245	N	0.569280	0.677558	0.018846
	N246	N	0.571595	0.318358	0.948208
	N247	N	0.397064	0.318190	0.017079
	N248	N	0.664149	0.963810	0.396638
	N249	N	0.664696	0.033752	0.570657
	N250	N	0.303967	0.964286	0.570602
	N251	N	0.303992	0.033451	0.396720
	N252	N	0.896384	0.463491	0.163384
	N253	N	0.070877	0.532870	0.163446
	N254	N	0.069782	0.461129	0.804715
	N255	N	0.897168	0.532635	0.803971
	N256	N	0.163590	0.912339	0.448903
	N257	N	0.164519	0.085510	0.519451
	N258	N	0.804247	0.085635	0.448500
	N259	N	0.804049	0.911707	0.518583
	N260	N	0.449463	0.180472	0.894551
	N261	N	0.519250	0.177976	0.068886
	N262	N	0.448561	0.819299	0.069318
	N263	N	0.519553	0.818265	0.896073
	N264	N	0.449336	0.911139	0.164013
	N265	N	0.518698	0.085716	0.163747
	N266	N	0.449543	0.086866	0.801531
	N267	N	0.519954	0.912530	0.803306
	N268	N	0.897603	0.178964	0.448750
	N269	N	0.071415	0.178925	0.519367
	N270	N	0.070505	0.818685	0.449233
	N271	N	0.897111	0.818404	0.518852
	N272	N	0.165065	0.462840	0.895181
	N273	N	0.163626	0.533403	0.069416
	N274	N	0.803188	0.464041	0.070279
	N275	N	0.803895	0.533218	0.896252
	O276	O	0.202473	0.780651	-0.054690
	H277	H	0.216476	0.767692	-0.050209
	H278	H	0.213273	0.779519	-0.053071
	O279	O	0.350650	0.292311	0.478966
	H280	H	0.340650	0.305932	0.468779
	H281	H	0.350304	0.286734	0.471884
	O282	O	1.088413	-0.080867	0.973657
	H283	H	1.082627	-0.092023	0.981576
	H284	H	1.092911	-0.077640	0.983299
	O285	O	0.445481	0.543998	0.396773
	H286	H	0.438585	0.551277	0.403752
	H287	H	0.460103	0.537673	0.416561
	O288	O	0.258986	0.719924	0.451597
	H289	H	0.249359	0.732253	0.451577
	H290	H	0.249373	0.729467	0.429518
	O291	O	0.538640	0.269132	0.536750
	H292	H	0.550811	0.268531	0.523034
	H293	H	0.530808	0.273102	0.551882
	O294	O	0.776575	0.198830	0.953176
	H295	H	0.775313	0.182785	0.973813
	H296	H	0.780656	0.208603	0.964118
	O297	O	0.500815	0.619464	0.268650
	H298	H	0.502832	0.622385	0.255038
	H299	H	0.505516	0.636328	0.287229
	O300	O	-0.179083	0.031706	0.882135
	H301	H	-0.177545	0.035640	0.853110
	H302	H	-0.180604	0.009128	0.874887
	O303	O	0.705337	0.717942	0.529856
	H304	H	0.724663	0.726309	0.536606
	H305	H	0.724331	0.712729	0.526811
	O306	O	0.725027	0.253062	0.730030
	H307	H	0.735853	0.248025	0.770833
	H308	H	0.740801	0.258663	0.728294
	O309	O	0.614999	0.552526	0.456677
	H310	H	0.615958	0.526720	0.451245
	H311	H	0.624592	0.549844	0.464990
	O312	O	0.419089	0.553141	0.708306
	H313	H	0.414366	0.549014	0.706184
	H314	H	0.417216	0.544926	0.702758
	O315	O	0.767237	1.031323	0.764780
	H316	H	0.753931	1.046651	0.749586
	H317	H	0.761434	1.059563	0.763224
	O318	O	0.679657	0.695826	0.684969
	H319	H	0.681987	0.719760	0.707761
	H320	H	0.679511	0.692436	0.660765
	O321	O	0.188634	0.790795	0.774903
	H322	H	0.215711	0.782906	0.750835
	H323	H	0.197870	0.787672	0.799848
	O324	O	1.152792	0.815410	0.155594
	H325	H	1.139632	0.820068	0.162332
	H326	H	1.142388	0.827521	0.131100
	O327	O	-0.017717	0.185971	0.958435
	H328	H	-0.019044	0.186244	0.944306
	H329	H	0.003800	0.185955	0.957670
	O330	O	0.482225	0.720623	0.488822
	H331	H	0.485959	0.722539	0.486249
	H332	H	0.487468	0.723540	0.496003
	O333	O	0.293399	0.307192	0.677477
	H334	H	0.318926	0.308127	0.658982
	H335	H	0.305496	0.298500	0.649612
	O336	O	0.795121	0.187097	0.171799
	H337	H	0.821903	0.178720	0.150833
	H338	H	0.805655	0.158930	0.155394
	O339	O	0.985650	-0.023418	1.107791
	H340	H	1.002095	-0.018404	1.108528
	H341	H	0.989930	-0.023161	1.101165
	O342	O	0.170091	-0.058466	0.016690
	H343	H	0.174104	-0.056353	0.017248
	H344	H	0.168390	-0.056034	0.033149
	O345	O	0.011780	0.785730	0.765734
	H346	H	0.039121	0.789162	0.757928
	H347	H	0.026828	0.774066	0.745855
	O348	O	0.609105	0.441539	0.622324
	H349	H	0.606613	0.419901	0.614707
	H350	H	0.625471	0.447698	0.635308
	O351	O	0.672478	0.685186	0.294751
	H352	H	0.667736	0.659522	0.316951
	H353	H	0.658004	0.676966	0.299073
	O354	O	0.091298	0.019462	0.941424
	H355	H	0.081175	0.000705	0.947562
	H356	H	0.094241	0.010257	0.934988
	O357	O	0.526786	0.638995	0.314031
	H358	H	0.506486	0.631060	0.311728
	H359	H	0.544500	0.636791	0.327841
	O360	O	0.464913	0.288719	0.694330
	H361	H	0.467919	0.288825	0.708328
	H362	H	0.476559	0.285900	0.695299
	O363	O	-0.074492	0.186445	0.088307
	H364	H	-0.056705	0.170783	0.077674
	H365	H	-0.068009	0.199643	0.074412
	O366	O	0.689629	0.451940	0.537076
	H367	H	0.689584	0.443058	0.531806
	H368	H	0.699518	0.436242	0.538881
	O369	O	0.953246	0.034740	0.216454
	H370	H	0.961406	0.033111	0.216070
	H371	H	0.950278	0.036572	0.219325
	O372	O	0.769743	0.783209	0.017673
	H373	H	0.770799	0.785774	0.030689
	H374	H	0.754568	0.767354	0.016397
	O375	O	0.769498	-0.030977	0.197007
	H376	H	0.786411	-0.053532	0.185404
	H377	H	0.746379	-0.035640	0.226582
	O378	O	0.702818	0.471511	0.267420
	H379	H	0.708695	0.449277	0.249099
	H380	H	0.701374	0.465128	0.254436
	O381	O	0.169730	1.094771	0.877277
	H382	H	0.167614	1.074476	0.877484
	H383	H	0.163774	1.095589	0.886398
	O384	O	1.086248	0.164319	0.868769
	H385	H	1.086150	0.159180	0.869482
	H386	H	1.113038	0.157762	0.874512
	O387	O	1.002425	0.929807	0.090828
	H388	H	1.014748	0.917190	0.089357
	H389	H	1.002663	0.930701	0.097064
	O390	O	0.510496	0.287651	0.269014
	H391	H	0.507281	0.280791	0.249765
	H392	H	0.537471	0.290653	0.274921
	O393	O	0.543124	0.428693	0.586733
	H394	H	0.552438	0.435143	0.581591
	H395	H	0.535619	0.433011	0.586318
	O396	O	0.291119	1.306757	1.290147
	H397	H	0.303042	1.322160	1.307278
	H398	H	0.306895	1.324614	1.295895
	O399	O	0.201573	0.027342	1.202780
	H400	H	0.229222	0.037199	1.225087
	H401	H	0.203141	0.066274	1.199175
	O402	O	0.425877	0.444901	0.259944
	H403	H	0.435207	0.450527	0.260770
	H404	H	0.424515	0.443417	0.264388
	O405	O	0.917514	-0.033931	0.821987
	H406	H	0.906111	-0.026103	0.831405
	H407	H	0.923294	-0.036152	0.818548
	O408	O	0.199431	0.207891	0.012638
	H409	H	0.210642	0.189662	0.014045
	H410	H	0.218767	0.222666	0.009236
	O411	O	0.513869	0.709757	0.697251
	H412	H	0.513861	0.705545	0.700224
	H413	H	0.521124	0.718046	0.707059
	O414	O	0.839258	0.051861	0.894072
	H415	H	0.856253	0.048127	0.889988
	H416	H	0.825634	0.044636	0.908982
	O417	O	0.264896	0.419008	0.531553
	H418	H	0.254959	0.400391	0.532174
	H419	H	0.257699	0.435852	0.516370
	O420	O	0.296633	0.688435	0.672373
	H421	H	0.316169	0.674974	0.659911
	H422	H	0.309088	0.668928	0.651538
	O423	O	0.018075	0.206648	1.196857
	H424	H	0.011546	0.212168	1.197973
	H425	H	0.016680	0.212514	1.202608
	O426	O	0.695335	0.328188	0.476746
	H427	H	0.691961	0.328228	0.469883
	H428	H	0.702847	0.325635	0.475225
	O429	O	0.955158	0.937471	1.101992
	H430	H	0.956310	0.939594	1.114901
	H431	H	0.955143	0.942940	1.095624
	O432	O	0.341038	0.633033	0.532136
	H433	H	0.339120	0.638967	0.557014
	H434	H	0.322836	0.632763	0.539970
	O435	O	0.261946	0.719902	0.264508
	H436	H	0.267571	0.709536	0.259893
	H437	H	0.266504	0.734954	0.255139
	O438	O	0.190123	0.201624	0.186600
	H439	H	0.184669	0.216388	0.181525
	H440	H	0.193122	0.223824	0.193423
	O441	O	0.459586	0.492417	0.430936
	H442	H	0.478189	0.494501	0.450350
	H443	H	0.469863	0.486781	0.429508
	O444	O	0.309495	0.447214	0.482806
	H445	H	0.306286	0.461548	0.493010
	H446	H	0.316022	0.452796	0.470689
	O447	O	0.205741	0.968690	0.766720
	H448	H	0.208813	0.952619	0.752967
	H449	H	0.211605	0.966256	0.761776
	O450	O	-0.002352	0.789633	1.089596
	H451	H	-0.003159	0.777404	1.092208
	H452	H	-0.022560	0.792464	1.085144
	O453	O	0.704137	0.528491	0.709131
	H454	H	0.709262	0.539989	0.717863
	H455	H	0.719509	0.552505	0.723113
	O456	O	-0.055259	0.145061	0.765133
	H457	H	-0.039138	0.157841	0.744911
	H458	H	-0.044210	0.140205	0.771530
	O459	O	0.780487	0.795089	0.187226
	H460	H	0.781921	0.780193	0.203243
	H461	H	0.780818	0.797458	0.181095
	O462	O	0.626045	0.358242	0.464613
	H463	H	0.642704	0.342431	0.471857
	H464	H	0.627450	0.365767	0.474013
	O465	O	0.754354	0.053459	0.039770
	H466	H	0.749311	0.045476	0.041617
	H467	H	0.756863	0.027328	0.041990
	O468	O	0.261599	0.521408	0.266761
	H469	H	0.259843	0.534733	0.254255
	H470	H	0.259632	0.526237	0.262775
	O471	O	0.260115	0.467819	0.709143
	H472	H	0.239952	0.448852	0.733211
	H473	H	0.265043	0.444555	0.714249
	O474	O	0.401607	0.573411	0.443361
	H475	H	0.421884	0.570773	0.446069
	H476	H	0.390419	0.586152	0.456820
	O477	O	0.693241	0.291181	1.273583
	H478	H	0.724955	0.257948	1.241969
	H479	H	0.681726	0.301752	1.293591
	O480	O	0.447385	0.501310	0.484137
	H481	H	0.464082	0.493524	0.477121
	H482	H	0.461473	0.510059	0.489827
	O483	O	0.821096	0.822365	0.806580
	H484	H	0.836607	0.835900	0.819115
	H485	H	0.842967	0.840797	0.808205
	O486	O	0.968946	0.027105	0.800511
	H487	H	0.964912	0.015074	0.810678
	H488	H	0.978883	0.035451	0.808115
	O489	O	0.966460	0.773567	-0.053045
	H490	H	0.977436	0.769146	-0.069677
	H491	H	0.963605	0.771158	-0.056764
