data_Molecule from HDF5

_cell_length_a		16.351364
_cell_length_b		16.148419
_cell_length_c		16.182055
_cell_angle_alpha	90.191937
_cell_angle_beta	90.014451
_cell_angle_gamma	89.991468
_symmetry_space_group_name_H-M	'P 1'
_symmetry_Int_Tables_number		1

loop_
	_symmetry_equiv_pos_as_xyz
	x,y,z

loop_
	_atom_site_label
	_atom_site_type_symbol
	_atom_site_fract_x
	_atom_site_fract_y
	_atom_site_fract_z
	H0	H	0.409040	0.839423	0.713543
	H1	H	0.602702	0.170218	0.715869
	H2	H	0.601554	0.838827	0.290721
	H3	H	0.408117	0.170433	0.289727
	H4	H	0.720735	0.404541	0.840059
	H5	H	0.718499	0.604868	0.167946
	H6	H	0.288231	0.605060	0.840096
	H7	H	0.290800	0.405506	0.168010
	H8	H	0.841620	0.720825	0.406494
	H9	H	0.167992	0.721188	0.603769
	H10	H	0.841820	0.291602	0.601476
	H11	H	0.168749	0.291493	0.405660
	H12	H	0.841072	0.407689	0.717723
	H13	H	0.166962	0.606066	0.721389
	H14	H	0.841074	0.603438	0.290100
	H15	H	0.166997	0.403961	0.286013
	H16	H	0.408316	0.715999	0.837240
	H17	H	0.602281	0.718838	0.167459
	H18	H	0.600716	0.294688	0.836685
	H19	H	0.407638	0.291923	0.167545
	H20	H	0.721531	0.841247	0.401056
	H21	H	0.718920	0.170340	0.602303
	H22	H	0.290089	0.842123	0.603656
	H23	H	0.289685	0.169565	0.401375
	H24	H	0.907347	0.339828	0.215551
	H25	H	0.101499	0.670372	0.216948
	H26	H	0.101332	0.339957	0.790072
	H27	H	0.906568	0.670485	0.791398
	H28	H	0.221038	0.904232	0.339212
	H29	H	0.222203	0.108127	0.666307
	H30	H	0.790319	0.106069	0.339337
	H31	H	0.789946	0.906019	0.666905
	H32	H	0.342181	0.219212	0.904242
	H33	H	0.669100	0.219892	0.100777
	H34	H	0.341670	0.791442	0.100350
	H35	H	0.668183	0.789857	0.904296
	H36	H	0.342315	0.906647	0.217596
	H37	H	0.669381	0.102841	0.217264
	H38	H	0.342553	0.102375	0.788667
	H39	H	0.668295	0.905580	0.787669
	H40	H	0.908466	0.217852	0.338461
	H41	H	0.103440	0.219656	0.668485
	H42	H	0.103958	0.790258	0.339263
	H43	H	0.909195	0.795441	0.669071
	H44	H	0.218757	0.340096	0.904083
	H45	H	0.220425	0.668540	0.106112
	H46	H	0.789217	0.341382	0.104292
	H47	H	0.789586	0.669281	0.904417
	H48	H	0.413826	0.123181	0.595938
	H49	H	0.601920	0.886225	0.594886
	H50	H	0.596670	0.121993	0.413664
	H51	H	0.405966	0.885552	0.408881
	H52	H	0.604733	0.409025	0.123523
	H53	H	0.593784	0.593358	0.887486
	H54	H	0.410816	0.595856	0.120330
	H55	H	0.405236	0.399266	0.880033
	H56	H	0.120360	0.597753	0.411925
	H57	H	0.888611	0.589506	0.605806
	H58	H	0.121423	0.408550	0.594402
	H59	H	0.890248	0.416647	0.409873
	H60	H	0.118685	0.418355	0.593670
	H61	H	0.883309	0.611799	0.603318
	H62	H	0.120450	0.596984	0.411147
	H63	H	0.886161	0.409617	0.405365
	H64	H	0.413809	0.598812	0.120662
	H65	H	0.598507	0.602439	0.883823
	H66	H	0.598718	0.420329	0.119266
	H67	H	0.401310	0.424135	0.886500
	H68	H	0.602839	0.123594	0.411077
	H69	H	0.596920	0.887334	0.595570
	H70	H	0.412254	0.123627	0.593919
	H71	H	0.418558	0.888036	0.406310
	H72	H	0.918078	0.620238	0.093565
	H73	H	0.098361	0.386634	0.095730
	H74	H	0.093389	0.619141	0.921089
	H75	H	0.916455	0.387433	0.905806
	H76	H	0.103669	0.923116	0.619616
	H77	H	0.109085	0.090501	0.385216
	H78	H	0.915357	0.092345	0.617981
	H79	H	0.911545	0.911436	0.385111
	H80	H	0.623751	0.106495	0.911551
	H81	H	0.389461	0.090792	0.101674
	H82	H	0.619875	0.910734	0.089075
	H83	H	0.389668	0.917056	0.903816
	H84	H	0.620955	0.916696	0.098854
	H85	H	0.386221	0.106522	0.098476
	H86	H	0.620109	0.093178	0.911958
	H87	H	0.385614	0.904934	0.905194
	H88	H	0.915138	0.105844	0.621773
	H89	H	0.088249	0.092859	0.390190
	H90	H	0.091488	0.914937	0.618107
	H91	H	0.911940	0.915477	0.386086
	H92	H	0.106362	0.624989	0.913485
	H93	H	0.096906	0.387877	0.095069
	H94	H	0.903435	0.623771	0.091524
	H95	H	0.912738	0.389739	0.917513
	H96	H	0.411887	0.124536	0.596439
	H97	H	0.598948	0.888223	0.591862
	H98	H	0.597096	0.123315	0.406619
	H99	H	0.413385	0.890401	0.418113
	H100	H	0.591544	0.409156	0.120386
	H101	H	0.604070	0.592874	0.884878
	H102	H	0.409746	0.599399	0.121306
	H103	H	0.424427	0.413627	0.889784
	H104	H	0.120643	0.597468	0.410662
	H105	H	0.892271	0.599748	0.585882
	H106	H	0.122584	0.414381	0.601564
	H107	H	0.889023	0.408722	0.414075
	H108	H	0.909549	0.626298	0.105657
	H109	H	0.098321	0.386692	0.094271
	H110	H	0.092756	0.623110	0.905728
	H111	H	0.905197	0.384617	0.909280
	H112	H	0.103223	0.908489	0.624175
	H113	H	0.099859	0.109426	0.382226
	H114	H	0.903464	0.097598	0.623520
	H115	H	0.915273	0.912673	0.386288
	H116	H	0.624174	0.098636	0.900983
	H117	H	0.392903	0.097100	0.086883
	H118	H	0.624868	0.906299	0.099327
	H119	H	0.390672	0.911829	0.915552
	C120	C	0.384519	0.014399	0.623923
	C121	C	0.627448	0.996194	0.623992
	C122	C	0.627078	0.013757	0.381189
	C123	C	0.383819	0.996722	0.381680
	C124	C	0.626255	0.384266	0.011767
	C125	C	0.626639	0.625716	0.994210
	C126	C	0.383029	0.625984	0.011955
	C127	C	0.382865	0.383774	0.994500
	C128	C	0.012941	0.626833	0.382497
	C129	C	0.996000	0.628887	0.627108
	C130	C	0.013027	0.384393	0.625116
	C131	C	0.996457	0.382407	0.380829
	C132	C	0.882410	0.514167	0.125391
	C133	C	0.126235	0.495964	0.124911
	C134	C	0.125985	0.513668	0.883120
	C135	C	0.883061	0.496601	0.882760
	C136	C	0.127954	0.884653	0.512144
	C137	C	0.127561	0.127462	0.494388
	C138	C	0.883626	0.126961	0.512126
	C139	C	0.884328	0.885062	0.494755
	C140	C	0.514346	0.127158	0.880461
	C141	C	0.497289	0.126859	0.124531
	C142	C	0.513822	0.882885	0.124488
	C143	C	0.496622	0.882172	0.879717
	C144	C	0.387786	0.889569	0.677357
	C145	C	0.623597	0.120850	0.678610
	C146	C	0.623444	0.888890	0.327108
	C147	C	0.386987	0.121090	0.326863
	C148	C	0.681734	0.385525	0.888447
	C149	C	0.681144	0.624730	0.118477
	C150	C	0.327319	0.624271	0.888317
	C151	C	0.328413	0.385878	0.118630
	C152	C	0.890216	0.682517	0.385837
	C153	C	0.118961	0.683680	0.624421
	C154	C	0.890527	0.329046	0.622535
	C155	C	0.119587	0.328348	0.384465
	C156	C	0.890042	0.386790	0.680234
	C157	C	0.118579	0.626438	0.682816
	C158	C	0.889878	0.624185	0.327953
	C159	C	0.118692	0.384456	0.325121
	C160	C	0.386785	0.679607	0.887058
	C161	C	0.623193	0.681276	0.118295
	C162	C	0.622638	0.330414	0.886903
	C163	C	0.386787	0.329630	0.118739
	C164	C	0.682692	0.890033	0.382324
	C165	C	0.681529	0.120820	0.622211
	C166	C	0.328632	0.890915	0.622590
	C167	C	0.328657	0.120815	0.382992
	C168	C	0.885950	0.389524	0.178992
	C169	C	0.122844	0.620587	0.180142
	C170	C	0.122507	0.389259	0.827498
	C171	C	0.885723	0.620912	0.828230
	C172	C	0.182959	0.885320	0.388393
	C173	C	0.183261	0.126937	0.617940
	C174	C	0.828374	0.125760	0.388440
	C175	C	0.828659	0.887007	0.618224
	C176	C	0.391052	0.181473	0.883666
	C177	C	0.620418	0.181829	0.121787
	C178	C	0.390643	0.828665	0.121219
	C179	C	0.619371	0.827248	0.883141
	C180	C	0.390872	0.886070	0.179345
	C181	C	0.620408	0.123974	0.179711
	C182	C	0.391214	0.123683	0.825940
	C183	C	0.619497	0.885114	0.825305
	C184	C	0.887516	0.180910	0.387763
	C185	C	0.124060	0.182249	0.619012
	C186	C	0.124694	0.828586	0.388290
	C187	C	0.888021	0.831880	0.619437
	C188	C	0.180873	0.389420	0.883994
	C189	C	0.181687	0.619785	0.124725
	C190	C	0.827588	0.390247	0.123363
	C191	C	0.827349	0.620093	0.884232
	C192	C	0.406193	0.101295	0.601850
	C193	C	0.605639	0.909552	0.600901
	C194	C	0.605141	0.100539	0.403678
	C195	C	0.406087	0.910367	0.404360
	C196	C	0.604617	0.406199	0.098680
	C197	C	0.605118	0.602867	0.907705
	C198	C	0.404829	0.604255	0.098319
	C199	C	0.403908	0.405758	0.907868
	C200	C	0.098392	0.603892	0.404574
	C201	C	0.910278	0.606781	0.604759
	C202	C	0.098639	0.406976	0.603181
	C203	C	0.910663	0.404918	0.403098
	C204	C	0.904141	0.601101	0.103458
	C205	C	0.104326	0.409614	0.101926
	C206	C	0.103976	0.600056	0.906519
	C207	C	0.905132	0.409658	0.904471
	C208	C	0.105989	0.908436	0.598593
	C209	C	0.105643	0.104470	0.408174
	C210	C	0.904991	0.105188	0.598691
	C211	C	0.906366	0.906904	0.408044
	C212	C	0.600368	0.105820	0.901847
	C213	C	0.411734	0.104692	0.102221
	C214	C	0.599632	0.904889	0.102345
	C215	C	0.410711	0.904517	0.901688
	Zn216	Zn	0.505567	0.004958	0.751477
	Zn217	Zn	0.505419	0.004803	0.253992
	Zn218	Zn	0.754991	0.504883	0.003623
	Zn219	Zn	0.254341	0.505032	0.003825
	Zn220	Zn	0.005337	0.757095	0.504167
	Zn221	Zn	0.005062	0.254566	0.503624
	Zn222	Zn	0.004227	0.505527	0.754808
	Zn223	Zn	0.004072	0.504789	0.252379
	Zn224	Zn	0.505123	0.753502	0.002709
	Zn225	Zn	0.505265	0.256198	0.002818
	Zn226	Zn	0.755551	0.005586	0.502595
	Zn227	Zn	0.256244	0.006342	0.502985
	N228	N	0.421724	0.967457	0.678429
	N229	N	0.590667	0.042386	0.679799
	N230	N	0.589699	0.966937	0.326334
	N231	N	0.420701	0.043026	0.326236
	N232	N	0.684229	0.417969	0.966970
	N233	N	0.683383	0.590956	0.040383
	N234	N	0.324833	0.591881	0.966836
	N235	N	0.325927	0.418858	0.040342
	N236	N	0.967790	0.684158	0.419105
	N237	N	0.041748	0.685185	0.590690
	N238	N	0.967852	0.327580	0.588868
	N239	N	0.042431	0.327077	0.418464
	N240	N	0.967233	0.420762	0.681779
	N241	N	0.041179	0.592916	0.684624
	N242	N	0.967261	0.590427	0.325697
	N243	N	0.041101	0.417437	0.323052
	N244	N	0.420635	0.680985	0.964915
	N245	N	0.589943	0.682057	0.040155
	N246	N	0.588414	0.329763	0.964763
	N247	N	0.419890	0.327972	0.040644
	N248	N	0.685093	0.968702	0.415385
	N249	N	0.684097	0.042322	0.588946
	N250	N	0.326528	0.969445	0.589892
	N251	N	0.326411	0.042440	0.416250
	N252	N	0.919453	0.467662	0.180209
	N253	N	0.089107	0.542583	0.180599
	N254	N	0.088935	0.467475	0.826846
	N255	N	0.919676	0.543020	0.827240
	N256	N	0.185120	0.919419	0.466481
	N257	N	0.185498	0.093408	0.539647
	N258	N	0.825877	0.093037	0.466720
	N259	N	0.826700	0.919624	0.539666
	N260	N	0.468483	0.183727	0.917057
	N261	N	0.543063	0.183961	0.088405
	N262	N	0.468077	0.826718	0.087736
	N263	N	0.541908	0.825497	0.916331
	N264	N	0.468431	0.918971	0.181562
	N265	N	0.542988	0.090303	0.181465
	N266	N	0.468811	0.090732	0.823849
	N267	N	0.542191	0.918744	0.823527
	N268	N	0.921321	0.181847	0.465680
	N269	N	0.090212	0.182719	0.541134
	N270	N	0.091441	0.828051	0.466365
	N271	N	0.921907	0.830664	0.541638
	N272	N	0.183109	0.467706	0.917688
	N273	N	0.183808	0.541402	0.091068
	N274	N	0.825310	0.468789	0.090683
	N275	N	0.825883	0.541730	0.917561
	O276	O	0.434068	0.559432	0.496177
	H277	H	0.437181	0.558772	0.503546
	H278	H	0.438228	0.551331	0.505635
	O279	O	0.095420	-0.018468	0.006838
	H280	H	0.085691	-0.014595	0.012528
	H281	H	0.091892	-0.015939	0.001277
	O282	O	0.492996	0.545085	0.474225
	H283	H	0.494083	0.533542	0.470836
	H284	H	0.495049	0.545109	0.472376
	O285	O	0.432856	0.560178	0.469354
	H286	H	0.435263	0.552961	0.475342
	H287	H	0.425922	0.576413	0.467678
	O288	O	1.100337	-0.072593	0.036436
	H289	H	1.100894	-0.077252	0.035338
	H290	H	1.102097	-0.071722	0.040999
	O291	O	-0.540635	0.530623	-0.485321
	H292	H	-0.537042	0.528325	-0.487128
	H293	H	-0.543822	0.525853	-0.482663
	O294	O	0.492617	0.508692	0.465393
	H295	H	0.492349	0.504753	0.462121
	H296	H	0.486913	0.508659	0.470253
	O297	O	0.072545	0.964521	0.002591
	H298	H	0.084612	0.967331	-0.001286
	H299	H	0.075337	0.963382	0.007288
	O300	O	1.027812	-0.013728	1.038430
	H301	H	1.025165	-0.012437	1.035920
	H302	H	1.023711	-0.015725	1.044322
	O303	O	0.452004	0.537170	0.435689
	H304	H	0.448111	0.546632	0.418968
	H305	H	0.448008	0.539799	0.438854
	O306	O	0.041247	0.975202	1.016445
	H307	H	0.040093	0.971573	1.016197
	H308	H	0.055712	0.974572	1.008127
	O309	O	0.486301	0.489598	0.506305
	H310	H	0.482709	0.497097	0.508231
	H311	H	0.482150	0.498658	0.497866
