data_Molecule from HDF5

_cell_length_a		16.296674
_cell_length_b		16.355615
_cell_length_c		16.101647
_cell_angle_alpha	89.960471
_cell_angle_beta	89.983696
_cell_angle_gamma	89.952258
_symmetry_space_group_name_H-M	'P 1'
_symmetry_Int_Tables_number		1

loop_
	_symmetry_equiv_pos_as_xyz
	x,y,z

loop_
	_atom_site_label
	_atom_site_type_symbol
	_atom_site_fract_x
	_atom_site_fract_y
	_atom_site_fract_z
	H0	H	0.398472	0.839958	0.713047
	H1	H	0.597228	0.165344	0.713204
	H2	H	0.597617	0.839244	0.283778
	H3	H	0.401287	0.165686	0.282036
	H4	H	0.715121	0.401296	0.834463
	H5	H	0.714786	0.603432	0.162162
	H6	H	0.284831	0.600931	0.833260
	H7	H	0.283200	0.401509	0.162780
	H8	H	0.838432	0.722783	0.393658
	H9	H	0.161067	0.722538	0.600854
	H10	H	0.838306	0.285634	0.600492
	H11	H	0.162565	0.286929	0.393329
	H12	H	0.836721	0.404803	0.712454
	H13	H	0.162580	0.602180	0.711936
	H14	H	0.838031	0.604542	0.281535
	H15	H	0.163715	0.406910	0.283596
	H16	H	0.398062	0.718188	0.833747
	H17	H	0.601798	0.720258	0.161430
	H18	H	0.599183	0.286602	0.834328
	H19	H	0.396582	0.285755	0.162597
	H20	H	0.718523	0.842111	0.394158
	H21	H	0.716801	0.165302	0.599639
	H22	H	0.278819	0.843088	0.600816
	H23	H	0.282286	0.165696	0.394419
	H24	H	0.900977	0.341982	0.215898
	H25	H	0.099892	0.666294	0.212333
	H26	H	0.099755	0.340390	0.781186
	H27	H	0.899291	0.665778	0.782449
	H28	H	0.215809	0.901708	0.333713
	H29	H	0.215423	0.105108	0.660963
	H30	H	0.782434	0.106611	0.333004
	H31	H	0.783497	0.903701	0.661010
	H32	H	0.337148	0.220153	0.895224
	H33	H	0.660048	0.221276	0.102249
	H34	H	0.337810	0.784428	0.100828
	H35	H	0.660946	0.783727	0.893817
	H36	H	0.335710	0.903986	0.212139
	H37	H	0.661882	0.101203	0.212745
	H38	H	0.335315	0.100868	0.783296
	H39	H	0.661721	0.901566	0.780859
	H40	H	0.899178	0.220712	0.332324
	H41	H	0.102279	0.220598	0.660874
	H42	H	0.102191	0.786005	0.334483
	H43	H	0.895340	0.786161	0.660294
	H44	H	0.216673	0.340720	0.896142
	H45	H	0.217458	0.664177	0.100259
	H46	H	0.781013	0.341422	0.102953
	H47	H	0.779269	0.663850	0.894051
	H48	H	0.405465	0.119579	0.588885
	H49	H	0.586117	0.889410	0.587820
	H50	H	0.587339	0.118719	0.402668
	H51	H	0.412476	0.890754	0.409296
	H52	H	0.591054	0.410502	0.116087
	H53	H	0.592613	0.593248	0.879857
	H54	H	0.406258	0.594471	0.116642
	H55	H	0.416480	0.414139	0.885339
	H56	H	0.117647	0.604685	0.409440
	H57	H	0.883942	0.599370	0.584608
	H58	H	0.112668	0.415520	0.584042
	H59	H	0.881595	0.406438	0.401642
	H60	H	0.117140	0.413926	0.594612
	H61	H	0.884308	0.592408	0.588333
	H62	H	0.112450	0.591909	0.412057
	H63	H	0.886865	0.410683	0.415867
	H64	H	0.409114	0.591804	0.114401
	H65	H	0.588298	0.589302	0.881975
	H66	H	0.589074	0.411489	0.115872
	H67	H	0.407224	0.402713	0.878812
	H68	H	0.592294	0.116437	0.410414
	H69	H	0.595316	0.888667	0.582575
	H70	H	0.408477	0.117461	0.590761
	H71	H	0.399807	0.887422	0.410827
	H72	H	0.904565	0.617826	0.084911
	H73	H	0.092572	0.387680	0.088118
	H74	H	0.085460	0.618382	0.899598
	H75	H	0.900849	0.386036	0.909353
	H76	H	0.090614	0.914199	0.613984
	H77	H	0.101021	0.090978	0.378348
	H78	H	0.911105	0.094467	0.613023
	H79	H	0.914052	0.909448	0.380733
	H80	H	0.615938	0.097669	0.905737
	H81	H	0.379495	0.100336	0.095185
	H82	H	0.614942	0.911556	0.088009
	H83	H	0.382766	0.905922	0.908006
	H84	H	0.614926	0.908698	0.090079
	H85	H	0.384706	0.097579	0.079516
	H86	H	0.613954	0.094231	0.909166
	H87	H	0.385116	0.911894	0.908623
	H88	H	0.909427	0.097232	0.613851
	H89	H	0.083124	0.091683	0.383735
	H90	H	0.088399	0.915828	0.613938
	H91	H	0.904563	0.911461	0.377717
	H92	H	0.092901	0.615748	0.915258
	H93	H	0.094539	0.385979	0.092051
	H94	H	0.906196	0.619869	0.090181
	H95	H	0.910042	0.387803	0.900375
	H96	H	0.408183	0.117891	0.586283
	H97	H	0.594870	0.886212	0.593234
	H98	H	0.596289	0.120643	0.403147
	H99	H	0.406607	0.885192	0.399591
	H100	H	0.589915	0.409406	0.116044
	H101	H	0.587010	0.595773	0.881323
	H102	H	0.410448	0.595952	0.115561
	H103	H	0.401728	0.416650	0.880741
	H104	H	0.117958	0.594286	0.399772
	H105	H	0.881803	0.598427	0.592669
	H106	H	0.117513	0.405416	0.586865
	H107	H	0.886200	0.420992	0.404082
	H108	H	0.909864	0.616385	0.087583
	H109	H	0.090567	0.388412	0.091580
	H110	H	0.102198	0.622625	0.903002
	H111	H	0.912065	0.391242	0.913004
	H112	H	0.088099	0.913518	0.613929
	H113	H	0.090905	0.107146	0.376194
	H114	H	0.907447	0.093485	0.613933
	H115	H	0.910105	0.919287	0.382492
	H116	H	0.614089	0.092137	0.904799
	H117	H	0.385617	0.085333	0.090236
	H118	H	0.614577	0.908305	0.086740
	H119	H	0.382597	0.910086	0.902798
	C120	C	0.376821	0.011709	0.619143
	C121	C	0.621417	0.994656	0.618801
	C122	C	0.622026	0.011545	0.375045
	C123	C	0.376995	0.995012	0.375808
	C124	C	0.620356	0.380726	0.007442
	C125	C	0.619804	0.623055	0.989480
	C126	C	0.378476	0.623657	0.006872
	C127	C	0.378016	0.380960	0.990168
	C128	C	0.008932	0.626789	0.376061
	C129	C	0.990649	0.625843	0.618840
	C130	C	0.008470	0.381764	0.619092
	C131	C	0.991871	0.383003	0.376387
	C132	C	0.877526	0.511520	0.119632
	C133	C	0.121845	0.494573	0.119962
	C134	C	0.122056	0.511315	0.876040
	C135	C	0.877248	0.494919	0.876412
	C136	C	0.119651	0.883492	0.505996
	C137	C	0.121307	0.125960	0.487989
	C138	C	0.878935	0.125421	0.505241
	C139	C	0.878701	0.883099	0.488315
	C140	C	0.507236	0.124261	0.876283
	C141	C	0.490309	0.123926	0.118701
	C142	C	0.507755	0.880258	0.119097
	C143	C	0.490559	0.879676	0.875633
	C144	C	0.378314	0.889148	0.675344
	C145	C	0.618746	0.116841	0.675392
	C146	C	0.619612	0.888934	0.319843
	C147	C	0.380046	0.117059	0.319823
	C148	C	0.676667	0.381599	0.883691
	C149	C	0.676866	0.623133	0.112829
	C150	C	0.322530	0.621781	0.882734
	C151	C	0.321197	0.381761	0.113644
	C152	C	0.886987	0.683922	0.375026
	C153	C	0.112860	0.683108	0.619335
	C154	C	0.886406	0.324794	0.619141
	C155	C	0.114000	0.326093	0.375659
	C156	C	0.885557	0.384032	0.674926
	C157	C	0.113576	0.623383	0.674819
	C158	C	0.886766	0.625103	0.319188
	C159	C	0.114678	0.385915	0.320827
	C160	C	0.378942	0.679847	0.882962
	C161	C	0.620402	0.681180	0.112389
	C162	C	0.619403	0.324500	0.883689
	C163	C	0.377818	0.324118	0.113467
	C164	C	0.679126	0.890133	0.375650
	C165	C	0.677733	0.116761	0.618560
	C166	C	0.318811	0.890668	0.619344
	C167	C	0.320920	0.116988	0.376067
	C168	C	0.880123	0.390151	0.177549
	C169	C	0.120092	0.617253	0.175136
	C170	C	0.120036	0.389381	0.819002
	C171	C	0.878727	0.616755	0.819957
	C172	C	0.177187	0.882961	0.382884
	C173	C	0.177630	0.124938	0.611707
	C174	C	0.821181	0.125542	0.381928
	C175	C	0.821461	0.883842	0.611657
	C176	C	0.385530	0.181394	0.876102
	C177	C	0.612018	0.181371	0.119710
	C178	C	0.385897	0.823380	0.119473
	C179	C	0.612435	0.822589	0.875056
	C180	C	0.384878	0.882697	0.175085
	C181	C	0.613074	0.121883	0.174951
	C182	C	0.384444	0.121808	0.820438
	C183	C	0.613039	0.881311	0.818862
	C184	C	0.879524	0.182224	0.381634
	C185	C	0.121322	0.182532	0.611585
	C186	C	0.120527	0.825476	0.383220
	C187	C	0.877096	0.825381	0.611395
	C188	C	0.178238	0.389242	0.876476
	C189	C	0.178933	0.616046	0.119496
	C190	C	0.820348	0.389876	0.121264
	C191	C	0.818858	0.615713	0.875676
	C192	C	0.400438	0.096236	0.595570
	C193	C	0.598699	0.910079	0.595062
	C194	C	0.598705	0.096466	0.398339
	C195	C	0.399696	0.909865	0.399517
	C196	C	0.596931	0.403721	0.093654
	C197	C	0.596242	0.599442	0.903426
	C198	C	0.401657	0.600706	0.093137
	C199	C	0.401541	0.404298	0.904103
	C200	C	0.093940	0.603706	0.400028
	C201	C	0.905545	0.603455	0.595434
	C202	C	0.093479	0.404812	0.595484
	C203	C	0.906769	0.405925	0.400202
	C204	C	0.900293	0.595952	0.094905
	C205	C	0.099283	0.409500	0.097343
	C206	C	0.100094	0.596569	0.899235
	C207	C	0.900815	0.410253	0.900590
	C208	C	0.095800	0.907387	0.591801
	C209	C	0.098365	0.103462	0.401890
	C210	C	0.902529	0.102040	0.591079
	C211	C	0.902766	0.906384	0.402645
	C212	C	0.592622	0.101314	0.899677
	C213	C	0.405259	0.101127	0.095209
	C214	C	0.592677	0.902888	0.095373
	C215	C	0.405564	0.902552	0.899399
	Zn216	Zn	0.498998	0.002258	0.747979
	Zn217	Zn	0.499224	0.002150	0.247329
	Zn218	Zn	0.747842	0.502283	-0.001740
	Zn219	Zn	0.250411	0.502432	-0.001516
	Zn220	Zn	-0.000649	0.755141	0.497906
	Zn221	Zn	0.000272	0.253662	0.496851
	Zn222	Zn	-0.000224	0.503539	0.747461
	Zn223	Zn	0.000730	0.504909	0.248259
	Zn224	Zn	0.499323	0.751566	-0.002309
	Zn225	Zn	0.498723	0.253146	-0.001679
	Zn226	Zn	0.750741	0.003812	0.496739
	Zn227	Zn	0.247660	0.004015	0.497370
	N228	N	0.413734	0.965439	0.675327
	N229	N	0.584633	0.040087	0.675885
	N230	N	0.584827	0.965521	0.319368
	N231	N	0.414184	0.040150	0.319632
	N232	N	0.677723	0.415618	0.961710
	N233	N	0.676563	0.587714	0.035342
	N234	N	0.322141	0.587507	0.960721
	N235	N	0.321291	0.416670	0.035888
	N236	N	0.964112	0.685126	0.409582
	N237	N	0.035357	0.684946	0.585424
	N238	N	0.963779	0.323308	0.585041
	N239	N	0.036528	0.323978	0.409422
	N240	N	0.962387	0.418600	0.675173
	N241	N	0.036737	0.588709	0.674799
	N242	N	0.963550	0.590250	0.319683
	N243	N	0.037753	0.420539	0.320955
	N244	N	0.412903	0.681214	0.961204
	N245	N	0.585877	0.681487	0.034429
	N246	N	0.585254	0.323645	0.961827
	N247	N	0.412419	0.323643	0.035584
	N248	N	0.680897	0.967507	0.408854
	N249	N	0.679932	0.039648	0.584456
	N250	N	0.317632	0.967786	0.585166
	N251	N	0.318773	0.039808	0.409986
	N252	N	0.914883	0.466750	0.176625
	N253	N	0.085284	0.540798	0.175481
	N254	N	0.085893	0.466318	0.818646
	N255	N	0.914252	0.540434	0.820201
	N256	N	0.176671	0.918422	0.460283
	N257	N	0.177971	0.090589	0.533811
	N258	N	0.820983	0.090715	0.459752
	N259	N	0.822315	0.919159	0.534131
	N260	N	0.463066	0.183040	0.910084
	N261	N	0.534761	0.182730	0.085646
	N262	N	0.463246	0.821710	0.085405
	N263	N	0.535304	0.821341	0.909630
	N264	N	0.461592	0.917306	0.175152
	N265	N	0.536433	0.086476	0.174474
	N266	N	0.461256	0.087093	0.820353
	N267	N	0.536338	0.916322	0.819261
	N268	N	0.914596	0.182408	0.459286
	N269	N	0.086977	0.183367	0.533679
	N270	N	0.085586	0.825627	0.460865
	N271	N	0.912050	0.824710	0.533772
	N272	N	0.179953	0.466183	0.910914
	N273	N	0.180331	0.538767	0.085820
	N274	N	0.818516	0.466447	0.086046
	N275	N	0.817812	0.538686	0.909970
	O276	O	0.014805	0.193028	-0.103935
	H277	H	0.013366	0.184489	-0.107125
	H278	H	-0.014107	0.199828	-0.113103
	O279	O	0.477883	0.584341	0.421709
	H280	H	0.474865	0.568915	0.418638
	H281	H	0.473589	0.587652	0.424661
	O282	O	1.085005	0.141266	0.125722
	H283	H	1.097876	0.144681	0.133584
	H284	H	1.083834	0.148702	0.119146
	O285	O	-0.053822	0.993936	0.024410
	H286	H	-0.050938	0.980013	0.026858
	H287	H	-0.049162	0.992993	0.041155
	O288	O	0.489222	0.612816	0.556454
	H289	H	0.481446	0.601207	0.558402
	H290	H	0.498925	0.620414	0.547717
	O291	O	0.343291	0.353251	0.614559
	H292	H	0.359998	0.353455	0.621640
	H293	H	0.345207	0.336839	0.624263
	O294	O	1.182232	0.889218	0.896651
	H295	H	1.193966	0.891047	0.903213
	H296	H	1.188200	0.897027	0.899505
	O297	O	0.563714	-0.648350	-0.605326
	H298	H	0.546525	-0.640374	-0.602725
	H299	H	0.554534	-0.643071	-0.602166
	O300	O	0.630623	0.389957	0.491565
	H301	H	0.637743	0.383860	0.479538
	H302	H	0.615224	0.384767	0.480837
	O303	O	-0.007153	0.955444	1.026804
	H304	H	-0.017444	0.935636	1.032964
	H305	H	-0.026478	0.953165	1.017297
	O306	O	0.111950	1.113424	0.055767
	H307	H	0.101285	1.112912	0.053690
	H308	H	0.115619	1.122979	0.055481
	O309	O	1.085998	-0.045399	0.072374
	H310	H	1.081518	-0.054177	0.082853
	H311	H	1.090621	-0.036096	0.075614
	O312	O	-0.013299	-0.001315	0.861917
	H313	H	0.005264	0.002435	0.873301
	H314	H	-0.007792	-0.009555	0.843466
	O315	O	0.524465	0.620588	0.447753
	H316	H	0.534175	0.611184	0.451221
	H317	H	0.531229	0.631209	0.445768
	O318	O	0.467469	0.403850	0.430672
	H319	H	0.467273	0.410079	0.427562
	H320	H	0.461086	0.414710	0.432169
	O321	O	0.478197	0.492984	0.429225
	H322	H	0.475897	0.509279	0.428806
	H323	H	0.474144	0.486669	0.421627
	O324	O	0.465543	0.606363	0.456231
	H325	H	0.442083	0.609272	0.455596
	H326	H	0.469801	0.611754	0.447806
	O327	O	0.019756	1.085629	1.015813
	H328	H	0.015725	1.088234	1.032072
	H329	H	0.025206	1.084479	1.016917
	O330	O	0.639335	0.512242	0.516290
	H331	H	0.636255	0.509103	0.520255
	H332	H	0.617720	0.516866	0.518154
	O333	O	-0.047335	0.889853	1.036086
	H334	H	-0.045957	0.888373	1.046665
	H335	H	-0.047451	0.888586	1.030258
	O336	O	0.922896	1.120510	0.943738
	H337	H	0.906746	1.108720	0.937432
	H338	H	0.908864	1.137183	0.938032
	O339	O	0.401977	0.609051	0.615550
	H340	H	0.394236	0.607458	0.627707
	H341	H	0.408149	0.587215	0.613709
	O342	O	1.002044	-0.034167	-0.142427
	H343	H	1.010272	-0.021541	-0.143932
	H344	H	1.003635	-0.049049	-0.143974
	O345	O	0.527504	0.619091	0.505292
	H346	H	0.537538	0.632249	0.505077
	H347	H	0.527518	0.619594	0.490860
	O348	O	0.826349	1.131300	0.938287
	H349	H	0.822088	1.128226	0.926409
	H350	H	0.825146	1.144274	0.921596
	O351	O	1.034211	0.906748	0.024047
	H352	H	1.043184	0.908532	0.024633
	H353	H	1.037948	0.906415	0.009595
	O354	O	0.565899	0.525192	0.571583
	H355	H	0.550925	0.524313	0.569911
	H356	H	0.562859	0.524829	0.571916
	O357	O	0.400188	0.316090	0.557817
	H358	H	0.418722	0.313961	0.563803
	H359	H	0.388506	0.300229	0.564014
	O360	O	-0.159593	0.098967	-0.150953
	H361	H	-0.163853	0.095614	-0.153677
	H362	H	-0.159454	0.092021	-0.162882
	O363	O	0.472435	0.492805	0.541255
	H364	H	0.480423	0.484221	0.545989
	H365	H	0.473420	0.499158	0.544901
	O366	O	0.010386	-0.031818	1.085811
	H367	H	0.004437	-0.026320	1.100931
	H368	H	0.005092	-0.028051	1.073106
	O369	O	0.641196	0.344520	0.500894
	H370	H	0.634306	0.346852	0.510445
	H371	H	0.659479	0.340813	0.486648
	O372	O	0.437718	0.610909	0.515672
	H373	H	0.433728	0.607394	0.494139
	H374	H	0.437203	0.617237	0.514670
	O375	O	0.370432	0.550191	0.479745
	H376	H	0.358235	0.552652	0.475876
	H377	H	0.359806	0.548205	0.492158
	O378	O	0.537576	0.479228	0.378043
	H379	H	0.534964	0.480408	0.396658
	H380	H	0.552079	0.472734	0.384139
	O381	O	0.562880	0.510118	0.621858
	H382	H	0.564759	0.513507	0.619657
	H383	H	0.554511	0.537998	0.615206
	O384	O	-0.167147	0.894327	0.029042
	H385	H	-0.162950	0.903371	0.014640
	H386	H	-0.172959	0.899967	0.044625
	O387	O	1.092206	-0.128582	0.963160
	H388	H	1.083092	-0.123880	0.968840
	H389	H	1.086731	-0.128282	0.954234
	O390	O	0.024764	1.023823	0.088361
	H391	H	0.021889	1.028277	0.093701
	H392	H	0.024846	1.032431	0.097207
	O393	O	0.906193	0.879114	0.041315
	H394	H	0.902415	0.894423	0.044218
	H395	H	0.900202	0.861968	0.033146
	O396	O	1.033802	-0.019265	0.868301
	H397	H	1.048466	-0.023178	0.875265
	H398	H	1.019890	-0.010983	0.865366
	O399	O	-0.012672	1.064315	1.148083
	H400	H	-0.032636	1.064178	1.146728
	H401	H	-0.022293	1.058266	1.153747
	O402	O	0.908076	0.964179	0.961838
	H403	H	0.918601	0.967041	0.985168
	H404	H	0.895030	0.969064	0.953613
	O405	O	0.547982	0.504990	0.597451
	H406	H	0.558691	0.512794	0.591747
	H407	H	0.547789	0.506440	0.603796
