data_Molecule from HDF5

_cell_length_a		16.228729
_cell_length_b		16.400470
_cell_length_c		15.995092
_cell_angle_alpha	89.528732
_cell_angle_beta	90.063179
_cell_angle_gamma	90.574731
_symmetry_space_group_name_H-M	'P 1'
_symmetry_Int_Tables_number		1

loop_
	_symmetry_equiv_pos_as_xyz
	x,y,z

loop_
	_atom_site_label
	_atom_site_type_symbol
	_atom_site_fract_x
	_atom_site_fract_y
	_atom_site_fract_z
	H0	H	0.394180	0.842945	0.702624
	H1	H	0.589498	0.170256	0.702988
	H2	H	0.589056	0.843450	0.275817
	H3	H	0.394629	0.167997	0.271493
	H4	H	0.703960	0.410085	0.820949
	H5	H	0.706415	0.602578	0.153728
	H6	H	0.281633	0.606361	0.821028
	H7	H	0.276721	0.404000	0.152063
	H8	H	0.828723	0.725216	0.382864
	H9	H	0.153794	0.727400	0.591002
	H10	H	0.829399	0.287606	0.591797
	H11	H	0.152181	0.291532	0.381833
	H12	H	0.826922	0.409882	0.699765
	H13	H	0.156842	0.606124	0.699131
	H14	H	0.826426	0.603267	0.273191
	H15	H	0.156455	0.415099	0.277044
	H16	H	0.392196	0.722795	0.823296
	H17	H	0.594785	0.720046	0.153431
	H18	H	0.591781	0.293504	0.822167
	H19	H	0.387765	0.287492	0.150552
	H20	H	0.708942	0.845252	0.389727
	H21	H	0.710988	0.168944	0.591635
	H22	H	0.271085	0.846287	0.594574
	H23	H	0.276150	0.168031	0.385468
	H24	H	0.892385	0.344730	0.203936
	H25	H	0.091864	0.671546	0.199068
	H26	H	0.088483	0.344684	0.772617
	H27	H	0.895431	0.670379	0.770595
	H28	H	0.203293	0.912414	0.323366
	H29	H	0.206213	0.107714	0.654818
	H30	H	0.777414	0.107939	0.323737
	H31	H	0.779894	0.907090	0.656201
	H32	H	0.329710	0.223958	0.881275
	H33	H	0.653179	0.227109	0.093236
	H34	H	0.330149	0.782819	0.095884
	H35	H	0.654328	0.793622	0.888227
	H36	H	0.326470	0.906078	0.201844
	H37	H	0.656400	0.103267	0.201447
	H38	H	0.325878	0.098520	0.778595
	H39	H	0.656283	0.911855	0.778417
	H40	H	0.890462	0.223295	0.323411
	H41	H	0.094162	0.224972	0.652399
	H42	H	0.092775	0.796346	0.324060
	H43	H	0.887929	0.787677	0.652494
	H44	H	0.209366	0.345655	0.883362
	H45	H	0.212111	0.668912	0.086113
	H46	H	0.771372	0.345442	0.092451
	H47	H	0.775397	0.668953	0.883628
	H48	H	0.404447	0.118764	0.574065
	H49	H	0.583880	0.892370	0.580098
	H50	H	0.591135	0.124978	0.392903
	H51	H	0.404378	0.892248	0.396257
	H52	H	0.584009	0.419209	0.104901
	H53	H	0.589959	0.605223	0.865445
	H54	H	0.390033	0.595186	0.110310
	H55	H	0.401989	0.421320	0.870135
	H56	H	0.110308	0.610723	0.392565
	H57	H	0.872684	0.612086	0.571628
	H58	H	0.111728	0.407157	0.578687
	H59	H	0.874129	0.410894	0.400973
	H60	H	0.105539	0.418831	0.570276
	H61	H	0.880576	0.589360	0.568237
	H62	H	0.107383	0.606244	0.400020
	H63	H	0.875356	0.417949	0.398879
	H64	H	0.406981	0.584979	0.101315
	H65	H	0.583752	0.594238	0.870474
	H66	H	0.576549	0.413734	0.105077
	H67	H	0.406909	0.410744	0.868728
	H68	H	0.578863	0.119461	0.393582
	H69	H	0.590906	0.889669	0.584213
	H70	H	0.388471	0.125523	0.579654
	H71	H	0.392351	0.892914	0.408216
	H72	H	0.894403	0.626798	0.085366
	H73	H	0.091216	0.390225	0.081101
	H74	H	0.079476	0.627599	0.872256
	H75	H	0.890085	0.391642	0.899989
	H76	H	0.067283	0.918142	0.603121
	H77	H	0.078683	0.089126	0.374470
	H78	H	0.905437	0.095790	0.605316
	H79	H	0.898254	0.915550	0.369653
	H80	H	0.609616	0.105377	0.899622
	H81	H	0.375101	0.096128	0.078909
	H82	H	0.608856	0.904938	0.075827
	H83	H	0.373403	0.908846	0.901597
	H84	H	0.605526	0.920829	0.077859
	H85	H	0.374378	0.098562	0.078477
	H86	H	0.607091	0.100458	0.899871
	H87	H	0.374307	0.913583	0.898386
	H88	H	0.904303	0.104485	0.608392
	H89	H	0.074885	0.111877	0.369577
	H90	H	0.084626	0.902302	0.613587
	H91	H	0.898859	0.918813	0.371530
	H92	H	0.073835	0.613039	0.910907
	H93	H	0.079671	0.391217	0.086708
	H94	H	0.907839	0.619612	0.077703
	H95	H	0.895596	0.388603	0.887265
	H96	H	0.402757	0.124442	0.591284
	H97	H	0.583896	0.890543	0.588549
	H98	H	0.585891	0.119631	0.405452
	H99	H	0.389072	0.886798	0.392745
	H100	H	0.583223	0.410284	0.106939
	H101	H	0.577551	0.605974	0.869842
	H102	H	0.408817	0.605205	0.107613
	H103	H	0.394651	0.413031	0.865566
	H104	H	0.108009	0.601131	0.392605
	H105	H	0.871868	0.596474	0.591023
	H106	H	0.108030	0.421370	0.585626
	H107	H	0.872457	0.412896	0.393104
	H108	H	0.893595	0.621617	0.068656
	H109	H	0.081297	0.394118	0.073991
	H110	H	0.109590	0.627499	0.899279
	H111	H	0.903262	0.393298	0.898111
	H112	H	0.090830	0.925667	0.608958
	H113	H	0.096430	0.103253	0.365766
	H114	H	0.896200	0.097748	0.609804
	H115	H	0.901341	0.916500	0.369989
	H116	H	0.609433	0.101744	0.895173
	H117	H	0.375808	0.097781	0.076806
	H118	H	0.610796	0.911411	0.090395
	H119	H	0.372301	0.907903	0.895844
	C120	C	0.369118	0.015483	0.611684
	C121	C	0.615200	0.998245	0.613152
	C122	C	0.613805	0.014585	0.368032
	C123	C	0.368245	0.997459	0.367353
	C124	C	0.611763	0.385790	-0.003416
	C125	C	0.613658	0.628434	0.978673
	C126	C	0.372879	0.625886	-0.003209
	C127	C	0.370430	0.384349	0.977418
	C128	C	0.000376	0.632545	0.364571
	C129	C	0.983106	0.629283	0.607550
	C130	C	0.000576	0.385547	0.608868
	C131	C	0.982174	0.386756	0.367202
	C132	C	0.868769	0.515602	0.108995
	C133	C	0.114482	0.499303	0.108859
	C134	C	0.114896	0.515691	0.864470
	C135	C	0.869249	0.498806	0.864907
	C136	C	0.110812	0.887989	0.498797
	C137	C	0.113075	0.129943	0.479376
	C138	C	0.871492	0.128782	0.498160
	C139	C	0.870294	0.886453	0.479888
	C140	C	0.500489	0.129117	0.867273
	C141	C	0.482877	0.127695	0.108975
	C142	C	0.500570	0.882234	0.112039
	C143	C	0.482211	0.884286	0.869405
	C144	C	0.372508	0.892412	0.666361
	C145	C	0.611585	0.121220	0.666894
	C146	C	0.610235	0.892240	0.313193
	C147	C	0.372501	0.119309	0.309449
	C148	C	0.667342	0.388777	0.870967
	C149	C	0.669062	0.623894	0.103936
	C150	C	0.318732	0.625571	0.871263
	C151	C	0.314407	0.384580	0.102189
	C152	C	0.877338	0.686931	0.364130
	C153	C	0.105570	0.687680	0.609169
	C154	C	0.877833	0.327726	0.609411
	C155	C	0.104314	0.330912	0.365264
	C156	C	0.876582	0.388250	0.663281
	C157	C	0.106914	0.627013	0.662950
	C158	C	0.876291	0.626382	0.309387
	C159	C	0.106220	0.392168	0.312639
	C160	C	0.373216	0.684191	0.872585
	C161	C	0.613528	0.682230	0.103977
	C162	C	0.611271	0.331080	0.871636
	C163	C	0.369814	0.326621	0.101692
	C164	C	0.669630	0.893047	0.369952
	C165	C	0.672016	0.120504	0.611478
	C166	C	0.311297	0.894186	0.612335
	C167	C	0.314034	0.119619	0.366598
	C168	C	0.871162	0.393508	0.166454
	C169	C	0.112639	0.622146	0.162523
	C170	C	0.110411	0.393481	0.809248
	C171	C	0.873687	0.621286	0.808533
	C172	C	0.166103	0.891936	0.373294
	C173	C	0.168550	0.127828	0.604744
	C174	C	0.815189	0.127499	0.373414
	C175	C	0.815981	0.886922	0.605677
	C176	C	0.377945	0.184340	0.865121
	C177	C	0.604922	0.186527	0.110771
	C178	C	0.378486	0.823164	0.113457
	C179	C	0.605778	0.831061	0.869662
	C180	C	0.376398	0.884557	0.166396
	C181	C	0.606591	0.124903	0.164609
	C182	C	0.375941	0.122311	0.813570
	C183	C	0.606461	0.890005	0.814833
	C184	C	0.871554	0.184900	0.373114
	C185	C	0.112969	0.186097	0.603580
	C186	C	0.111051	0.834143	0.373497
	C187	C	0.869734	0.827251	0.603774
	C188	C	0.170498	0.394056	0.864504
	C189	C	0.172778	0.620727	0.106503
	C190	C	0.811045	0.393768	0.110696
	C191	C	0.814126	0.620660	0.864984
	C192	C	0.392099	0.100965	0.588453
	C193	C	0.592940	0.912872	0.590887
	C194	C	0.591909	0.099394	0.390607
	C195	C	0.389152	0.912451	0.391885
	C196	C	0.588324	0.407917	0.083088
	C197	C	0.590482	0.607980	0.891475
	C198	C	0.395401	0.602076	0.083924
	C199	C	0.394248	0.408061	0.890611
	C200	C	0.086364	0.612250	0.388063
	C201	C	0.897190	0.606228	0.583705
	C202	C	0.086287	0.408810	0.585171
	C203	C	0.896252	0.407836	0.390738
	C204	C	0.891925	0.600637	0.084313
	C205	C	0.091040	0.414066	0.087002
	C206	C	0.093851	0.600738	0.887499
	C207	C	0.890192	0.413294	0.888422
	C208	C	0.087683	0.909012	0.585788
	C209	C	0.090092	0.107968	0.392554
	C210	C	0.894988	0.105912	0.585279
	C211	C	0.892953	0.910120	0.393027
	C212	C	0.586700	0.108626	0.891141
	C213	C	0.397174	0.104226	0.084977
	C214	C	0.586260	0.905564	0.088568
	C215	C	0.395707	0.904130	0.892041
	Zn216	Zn	0.491110	0.006293	0.741070
	Zn217	Zn	0.491255	0.005394	0.238389
	Zn218	Zn	0.739468	0.506681	-0.013595
	Zn219	Zn	0.244609	0.506308	-0.013981
	Zn220	Zn	-0.008312	0.760024	0.488092
	Zn221	Zn	-0.008083	0.257238	0.487547
	Zn222	Zn	-0.007786	0.507613	0.736033
	Zn223	Zn	-0.008184	0.508015	0.238233
	Zn224	Zn	0.491983	0.755283	-0.010847
	Zn225	Zn	0.491246	0.257194	-0.012940
	Zn226	Zn	0.744111	0.007506	0.489894
	Zn227	Zn	0.239166	0.007845	0.490005
	N228	N	0.407972	0.969074	0.665948
	N229	N	0.576857	0.044253	0.668099
	N230	N	0.576069	0.968562	0.312033
	N231	N	0.405451	0.042316	0.309793
	N232	N	0.667699	0.422164	0.949482
	N233	N	0.669121	0.591149	0.025054
	N234	N	0.318409	0.589861	0.949436
	N235	N	0.314321	0.419550	0.023733
	N236	N	0.955530	0.691123	0.397799
	N237	N	0.027577	0.689298	0.575143
	N238	N	0.956185	0.325712	0.576291
	N239	N	0.026063	0.327229	0.398486
	N240	N	0.953871	0.423346	0.663295
	N241	N	0.029702	0.591318	0.661906
	N242	N	0.953785	0.593538	0.309384
	N243	N	0.029337	0.426269	0.313733
	N244	N	0.406546	0.684413	0.951740
	N245	N	0.579820	0.685329	0.025103
	N246	N	0.577441	0.328909	0.950498
	N247	N	0.403845	0.326257	0.022946
	N248	N	0.671860	0.970129	0.403306
	N249	N	0.674426	0.043144	0.578876
	N250	N	0.308946	0.971735	0.579099
	N251	N	0.310978	0.042848	0.401753
	N252	N	0.906369	0.470365	0.165448
	N253	N	0.077281	0.545492	0.164349
	N254	N	0.076551	0.470014	0.809162
	N255	N	0.907318	0.544566	0.808662
	N256	N	0.166337	0.924494	0.452274
	N257	N	0.168683	0.093505	0.526563
	N258	N	0.814900	0.093444	0.452298
	N259	N	0.816166	0.923127	0.527794
	N260	N	0.456420	0.188487	0.898091
	N261	N	0.526933	0.188279	0.076738
	N262	N	0.456680	0.821605	0.080265
	N263	N	0.527706	0.827429	0.903050
	N264	N	0.453224	0.920816	0.165603
	N265	N	0.529576	0.089081	0.163792
	N266	N	0.453164	0.088604	0.814639
	N267	N	0.528553	0.922308	0.814316
	N268	N	0.905789	0.185740	0.451805
	N269	N	0.079359	0.187777	0.524703
	N270	N	0.077189	0.831558	0.452263
	N271	N	0.902681	0.826575	0.524404
	N272	N	0.173313	0.471005	0.898320
	N273	N	0.174182	0.543278	0.073875
	N274	N	0.809306	0.470754	0.075799
	N275	N	0.811063	0.543385	0.899225
	O276	O	0.989126	-0.031129	0.982908
	H277	H	0.993054	-0.033706	0.994416
	H278	H	1.002355	-0.016623	0.984672
	O279	O	0.890605	1.077935	0.111342
	H280	H	0.879792	1.071504	0.113176
	H281	H	0.892081	1.079629	0.119740
	O282	O	0.443205	0.585992	0.429543
	H283	H	0.447980	0.596825	0.443975
	H284	H	0.434632	0.583797	0.419330
	O285	O	0.481676	0.461718	0.319406
	H286	H	0.498160	0.465053	0.315861
	H287	H	0.469150	0.460456	0.313908
	O288	O	0.571492	0.371730	0.432896
	H289	H	0.568760	0.381478	0.440322
	H290	H	0.561900	0.370154	0.422385
	O291	O	0.514258	-0.633405	1.580079
	H292	H	0.509863	-0.630238	1.571506
	H293	H	0.518675	-0.638134	1.574346
	O294	O	0.985193	0.864567	-0.009133
	H295	H	0.998676	0.876946	-0.024451
	H296	H	0.981353	0.854077	-0.010790
	O297	O	1.035908	1.081096	-0.035301
	H298	H	1.016920	1.082828	-0.032057
	H299	H	1.035880	1.068838	-0.045983
	O300	O	0.399616	0.413648	0.373626
	H301	H	0.391901	0.404698	0.382886
	H302	H	0.400848	0.415818	0.358155
	O303	O	0.450255	0.423088	0.602609
	H304	H	0.457309	0.422188	0.600795
	H305	H	0.456593	0.420980	0.591542
	O306	O	0.532117	0.662015	0.586655
	H307	H	0.538071	0.669134	0.586419
	H308	H	0.536770	0.669190	0.585457
	O309	O	0.366186	0.403898	0.454619
	H310	H	0.370179	0.405397	0.461583
	H311	H	0.362283	0.411656	0.465474
	O312	O	1.081241	1.007851	1.001269
	H313	H	1.083422	1.004527	1.001236
	H314	H	1.082112	1.015534	1.002168
	O315	O	0.805454	0.878973	0.071816
	H316	H	0.800940	0.887391	0.064173
	H317	H	0.809170	0.880925	0.072278
	O318	O	-0.033006	-0.035903	1.014534
	H319	H	-0.025298	-0.047033	0.995612
	H320	H	-0.033930	-0.036828	1.020018
	O321	O	0.579111	0.559219	0.441970
	H322	H	0.590391	0.571523	0.447295
	H323	H	0.584958	0.560564	0.419487
	O324	O	-0.045559	0.988901	0.947626
	H325	H	-0.054620	0.985864	0.959457
	H326	H	-0.049189	0.986040	0.939834
	O327	O	0.138388	0.983957	0.926647
	H328	H	0.148353	0.990868	0.936345
	H329	H	0.141836	0.995245	0.919521
	O330	O	-0.050221	0.039161	-0.162118
	H331	H	-0.045086	0.057028	-0.163676
	H332	H	-0.047754	0.044239	-0.175378
	O333	O	0.640468	0.619017	0.545946
	H334	H	0.655983	0.614958	0.549211
	H335	H	0.633690	0.602813	0.532751
	O336	O	-0.092361	0.043886	-0.074561
	H337	H	-0.092529	0.057922	-0.081609
	H338	H	-0.096004	0.043255	-0.076912
	O339	O	-0.108525	0.138797	0.043088
	H340	H	-0.110826	0.134110	0.046991
	H341	H	-0.118015	0.146581	0.043068
	O342	O	0.566565	0.590812	0.468021
	H343	H	0.539703	0.598778	0.463931
	H344	H	0.561579	0.569882	0.470063
	O345	O	0.049264	1.079662	0.984812
	H346	H	0.049538	1.071073	0.995281
	H347	H	0.037563	1.084899	0.984882
	O348	O	0.085835	0.148997	1.037342
	H349	H	0.078924	0.145069	1.034492
	H350	H	0.091248	0.154435	1.038423
	O351	O	0.424937	0.539610	0.558927
	H352	H	0.421217	0.547387	0.559615
	H353	H	0.419071	0.522436	0.562224
	O354	O	0.074131	1.023065	-0.049956
	H355	H	0.066198	1.026986	-0.027680
	H356	H	0.069428	1.025044	-0.038032
	O357	O	0.496816	0.435365	0.490290
	H358	H	0.501984	0.435582	0.490924
	H359	H	0.507039	0.447456	0.491600
	O360	O	1.496755	-0.547852	1.528062
	H361	H	1.495464	-0.546479	1.510246
	H362	H	1.493502	-0.546335	1.528718
	O363	O	0.520254	0.670013	0.388106
	H364	H	0.520388	0.682851	0.398252
	H365	H	0.524992	0.670266	0.395070
	O366	O	0.490544	0.491347	0.567967
	H367	H	0.486637	0.480784	0.569470
	H368	H	0.490052	0.494393	0.570823
	O369	O	0.980996	-0.040079	0.087526
	H370	H	0.983809	-0.043981	0.088027
	H371	H	0.965557	-0.051272	0.082540
	O372	O	0.395017	0.504220	0.467523
	H373	H	0.386915	0.503125	0.480900
	H374	H	0.390523	0.499273	0.484056
	O375	O	0.933347	0.094808	1.102121
	H376	H	0.932166	0.072665	1.106436
	H377	H	0.923254	0.085487	1.107872
	O378	O	0.063084	0.936599	0.085963
	H379	H	0.057215	0.942128	0.089732
	H380	H	0.077604	0.938328	0.084431
	O381	O	0.332637	0.573750	0.450569
	H382	H	0.323654	0.575931	0.452518
	H383	H	0.331950	0.573325	0.437700
	O384	O	1.044992	1.120920	0.025158
	H385	H	1.042749	1.127575	0.029603
	H386	H	1.052762	1.129196	0.027618
	O387	O	1.445761	0.460777	1.512006
	H388	H	1.449692	0.457885	1.508481
	H389	H	1.450750	0.460738	1.521022
	O390	O	0.907658	0.876602	0.028957
	H391	H	0.906413	0.878587	0.022458
	H392	H	0.903972	0.853950	0.034818
	O393	O	0.541473	0.453326	0.511153
	H394	H	0.537544	0.446632	0.500798
	H395	H	0.548118	0.453265	0.520247
