data_Molecule from HDF5

_cell_length_a		16.291559
_cell_length_b		16.214914
_cell_length_c		16.209703
_cell_angle_alpha	89.968604
_cell_angle_beta	89.968669
_cell_angle_gamma	90.129308
_symmetry_space_group_name_H-M	'P 1'
_symmetry_Int_Tables_number		1

loop_
	_symmetry_equiv_pos_as_xyz
	x,y,z

loop_
	_atom_site_label
	_atom_site_type_symbol
	_atom_site_fract_x
	_atom_site_fract_y
	_atom_site_fract_z
	H0	H	0.402198	0.835898	0.713876
	H1	H	0.598293	0.165775	0.711998
	H2	H	0.596776	0.835156	0.286320
	H3	H	0.403863	0.164880	0.287832
	H4	H	0.713946	0.401384	0.835599
	H5	H	0.714776	0.598871	0.164688
	H6	H	0.286194	0.597921	0.835671
	H7	H	0.284742	0.401273	0.164672
	H8	H	0.835457	0.712462	0.402314
	H9	H	0.163924	0.714688	0.597257
	H10	H	0.836504	0.284322	0.598826
	H11	H	0.164214	0.285957	0.400839
	H12	H	0.835854	0.401961	0.713431
	H13	H	0.163846	0.598120	0.713583
	H14	H	0.835967	0.596380	0.287087
	H15	H	0.163529	0.402667	0.285550
	H16	H	0.403709	0.712628	0.835078
	H17	H	0.597326	0.713015	0.164739
	H18	H	0.595940	0.287515	0.835306
	H19	H	0.401560	0.285811	0.165060
	H20	H	0.713265	0.835138	0.401309
	H21	H	0.715957	0.163940	0.598306
	H22	H	0.285170	0.835834	0.598927
	H23	H	0.285902	0.163819	0.401346
	H24	H	0.901910	0.335339	0.214028
	H25	H	0.097151	0.665016	0.212038
	H26	H	0.097994	0.335291	0.785918
	H27	H	0.904668	0.664854	0.787395
	H28	H	0.212804	0.902272	0.335437
	H29	H	0.213826	0.098476	0.664624
	H30	H	0.786488	0.098030	0.335830
	H31	H	0.785167	0.901302	0.663651
	H32	H	0.335718	0.213413	0.902792
	H33	H	0.664252	0.214860	0.097625
	H34	H	0.336651	0.784951	0.098956
	H35	H	0.664030	0.787124	0.902258
	H36	H	0.335460	0.903127	0.213282
	H37	H	0.663947	0.099055	0.214273
	H38	H	0.336210	0.097608	0.786091
	H39	H	0.664337	0.903480	0.785729
	H40	H	0.902282	0.213340	0.335541
	H41	H	0.097535	0.213870	0.664773
	H42	H	0.095955	0.787507	0.334859
	H43	H	0.901975	0.786125	0.664973
	H44	H	0.214309	0.335688	0.900842
	H45	H	0.214631	0.664496	0.098340
	H46	H	0.785787	0.335180	0.098993
	H47	H	0.787905	0.664468	0.903019
	H48	H	0.413361	0.119047	0.603519
	H49	H	0.590687	0.881728	0.598250
	H50	H	0.595825	0.120575	0.394197
	H51	H	0.407786	0.880554	0.398992
	H52	H	0.593159	0.410686	0.116664
	H53	H	0.598727	0.586509	0.882632
	H54	H	0.403001	0.590685	0.117555
	H55	H	0.409850	0.402501	0.883426
	H56	H	0.115413	0.592086	0.408109
	H57	H	0.888083	0.576301	0.592393
	H58	H	0.116865	0.398222	0.584867
	H59	H	0.885342	0.410517	0.411536
	H60	H	0.112295	0.418283	0.590737
	H61	H	0.876620	0.600057	0.609251
	H62	H	0.117825	0.593715	0.402998
	H63	H	0.881758	0.407730	0.401521
	H64	H	0.410015	0.590455	0.116249
	H65	H	0.586793	0.593167	0.885218
	H66	H	0.591173	0.404799	0.117300
	H67	H	0.401455	0.406191	0.881497
	H68	H	0.581867	0.113556	0.411082
	H69	H	0.591259	0.884624	0.588972
	H70	H	0.413044	0.112697	0.582257
	H71	H	0.410352	0.885427	0.412462
	H72	H	0.898403	0.618515	0.088443
	H73	H	0.098795	0.382553	0.087202
	H74	H	0.096612	0.620737	0.897690
	H75	H	0.906592	0.383728	0.912310
	H76	H	0.081053	0.911759	0.612948
	H77	H	0.092289	0.093038	0.382854
	H78	H	0.912982	0.082017	0.612351
	H79	H	0.907136	0.908378	0.382477
	H80	H	0.619640	0.096958	0.899809
	H81	H	0.381725	0.098600	0.093837
	H82	H	0.618596	0.914465	0.107779
	H83	H	0.381763	0.904322	0.903614
	H84	H	0.621146	0.891104	0.092602
	H85	H	0.384862	0.091479	0.089748
	H86	H	0.617108	0.098899	0.910953
	H87	H	0.384422	0.904935	0.910324
	H88	H	0.913426	0.103148	0.619110
	H89	H	0.093561	0.094940	0.382496
	H90	H	0.094332	0.893929	0.621386
	H91	H	0.907231	0.903219	0.381894
	H92	H	0.082361	0.613474	0.907827
	H93	H	0.094138	0.380451	0.100009
	H94	H	0.905385	0.620276	0.103024
	H95	H	0.900457	0.379636	0.905085
	H96	H	0.394605	0.121158	0.592519
	H97	H	0.598906	0.881250	0.593521
	H98	H	0.604554	0.117154	0.415660
	H99	H	0.398028	0.880617	0.409166
	H100	H	0.596847	0.405998	0.118908
	H101	H	0.597936	0.599907	0.879682
	H102	H	0.406813	0.596695	0.118577
	H103	H	0.408354	0.411645	0.885399
	H104	H	0.117586	0.597543	0.407460
	H105	H	0.883702	0.604840	0.579489
	H106	H	0.120676	0.403784	0.604735
	H107	H	0.882647	0.400233	0.408653
	H108	H	0.913790	0.614211	0.090625
	H109	H	0.085282	0.385351	0.090178
	H110	H	0.100114	0.615609	0.916301
	H111	H	0.910096	0.382061	0.902883
	H112	H	0.103151	0.914986	0.617903
	H113	H	0.094964	0.092683	0.382645
	H114	H	0.894405	0.091395	0.620936
	H115	H	0.903351	0.905465	0.381155
	H116	H	0.615369	0.088078	0.905900
	H117	H	0.382676	0.091925	0.098405
	H118	H	0.610380	0.914354	0.081243
	H119	H	0.384249	0.910930	0.905988
	C120	C	0.378821	0.008734	0.621110
	C121	C	0.621875	0.991529	0.621430
	C122	C	0.621877	0.008531	0.378394
	C123	C	0.378228	0.991330	0.378695
	C124	C	0.621352	0.378866	0.008681
	C125	C	0.622289	0.621278	0.991536
	C126	C	0.378742	0.620935	0.008337
	C127	C	0.377820	0.378267	0.991920
	C128	C	0.008195	0.622062	0.378291
	C129	C	0.991585	0.621610	0.621614
	C130	C	0.008415	0.378026	0.621755
	C131	C	0.991611	0.378363	0.378362
	C132	C	0.878088	0.508465	0.121766
	C133	C	0.121548	0.491335	0.121094
	C134	C	0.121741	0.508343	0.878135
	C135	C	0.878359	0.491036	0.878698
	C136	C	0.120776	0.878854	0.508709
	C137	C	0.121662	0.121859	0.491612
	C138	C	0.878791	0.120994	0.508537
	C139	C	0.877896	0.877843	0.490920
	C140	C	0.508711	0.122255	0.878088
	C141	C	0.491815	0.122135	0.121857
	C142	C	0.508486	0.878015	0.122495
	C143	C	0.491832	0.878797	0.878079
	C144	C	0.381662	0.884842	0.675928
	C145	C	0.618951	0.116340	0.674878
	C146	C	0.617917	0.884348	0.324024
	C147	C	0.382472	0.115373	0.324765
	C148	C	0.675743	0.381390	0.884518
	C149	C	0.676325	0.618540	0.115749
	C150	C	0.323845	0.618635	0.884604
	C151	C	0.322507	0.380588	0.115568
	C152	C	0.884519	0.675157	0.381757
	C153	C	0.114911	0.676794	0.618287
	C154	C	0.884983	0.322904	0.619006
	C155	C	0.114999	0.323716	0.380558
	C156	C	0.884764	0.381064	0.675990
	C157	C	0.114894	0.618769	0.675887
	C158	C	0.884852	0.617841	0.324204
	C159	C	0.115003	0.381754	0.323242
	C160	C	0.382093	0.675554	0.884350
	C161	C	0.618599	0.675683	0.115636
	C162	C	0.617175	0.324793	0.884357
	C163	C	0.380721	0.323487	0.115823
	C164	C	0.676049	0.884464	0.380647
	C165	C	0.677343	0.115429	0.618600
	C166	C	0.323675	0.884841	0.618845
	C167	C	0.323967	0.115111	0.381075
	C168	C	0.881006	0.384483	0.176536
	C169	C	0.117956	0.615775	0.174750
	C170	C	0.118645	0.384443	0.823501
	C171	C	0.882746	0.615358	0.824558
	C172	C	0.175228	0.881701	0.384478
	C173	C	0.176807	0.119567	0.615302
	C174	C	0.824132	0.118481	0.384865
	C175	C	0.823154	0.880804	0.615133
	C176	C	0.384743	0.176059	0.881516
	C177	C	0.615505	0.176729	0.118145
	C178	C	0.385339	0.822894	0.119557
	C179	C	0.615265	0.824678	0.881400
	C180	C	0.384875	0.881660	0.176296
	C181	C	0.615222	0.119515	0.176336
	C182	C	0.384887	0.118512	0.823729
	C183	C	0.615437	0.882580	0.823720
	C184	C	0.881834	0.175566	0.384696
	C185	C	0.118982	0.176888	0.615482
	C186	C	0.117292	0.824729	0.384206
	C187	C	0.880890	0.823528	0.615361
	C188	C	0.176564	0.384538	0.880248
	C189	C	0.176307	0.615631	0.118538
	C190	C	0.823355	0.384339	0.119249
	C191	C	0.824940	0.615478	0.881982
	C192	C	0.400425	0.095346	0.599203
	C193	C	0.600048	0.905005	0.600010
	C194	C	0.600448	0.094676	0.400402
	C195	C	0.399170	0.904551	0.400400
	C196	C	0.599969	0.400484	0.095392
	C197	C	0.600735	0.599571	0.904864
	C198	C	0.400262	0.599009	0.095143
	C199	C	0.400026	0.400349	0.905659
	C200	C	0.094800	0.600715	0.399808
	C201	C	0.905018	0.600085	0.600033
	C202	C	0.094493	0.400069	0.599783
	C203	C	0.905586	0.399788	0.400446
	C204	C	0.899417	0.595103	0.100351
	C205	C	0.099379	0.405147	0.098854
	C206	C	0.099815	0.594438	0.900623
	C207	C	0.899372	0.404237	0.900312
	C208	C	0.099316	0.900452	0.595039
	C209	C	0.099972	0.099972	0.405064
	C210	C	0.900535	0.098847	0.595249
	C211	C	0.899411	0.899285	0.404348
	C212	C	0.594901	0.101147	0.899241
	C213	C	0.405375	0.100473	0.100338
	C214	C	0.594755	0.900083	0.100457
	C215	C	0.405818	0.900282	0.900224
	Zn216	Zn	0.500172	0.000993	0.749465
	Zn217	Zn	0.500161	-0.000035	0.250685
	Zn218	Zn	0.750417	0.499695	0.000216
	Zn219	Zn	0.249581	0.499888	0.000047
	Zn220	Zn	-0.000709	0.750281	0.499725
	Zn221	Zn	0.000285	0.249622	0.500074
	Zn222	Zn	-0.000135	0.499866	0.750241
	Zn223	Zn	0.000084	0.500223	0.249699
	Zn224	Zn	0.500323	0.749343	-0.000152
	Zn225	Zn	0.499981	0.250410	0.000274
	Zn226	Zn	0.750312	-0.000330	0.499795
	Zn227	Zn	0.249718	0.000144	0.500064
	N228	N	0.415300	0.962898	0.677477
	N229	N	0.585057	0.038339	0.676821
	N230	N	0.584952	0.962382	0.322325
	N231	N	0.415505	0.037232	0.323172
	N232	N	0.678332	0.414299	0.962802
	N233	N	0.678601	0.585264	0.037630
	N234	N	0.321885	0.585360	0.962765
	N235	N	0.320943	0.414088	0.037570
	N236	N	0.962152	0.677533	0.414752
	N237	N	0.037128	0.678315	0.584991
	N238	N	0.962900	0.320967	0.585924
	N239	N	0.037233	0.321427	0.414001
	N240	N	0.962427	0.414580	0.677787
	N241	N	0.037205	0.585238	0.677952
	N242	N	0.962885	0.585513	0.321890
	N243	N	0.037487	0.415294	0.321996
	N244	N	0.415666	0.676857	0.962302
	N245	N	0.585801	0.677662	0.037368
	N246	N	0.584157	0.323095	0.962527
	N247	N	0.414358	0.321767	0.037918
	N248	N	0.678624	0.962551	0.413746
	N249	N	0.679206	0.036977	0.586026
	N250	N	0.321914	0.962864	0.585467
	N251	N	0.321177	0.036921	0.413851
	N252	N	0.914539	0.462412	0.177958
	N253	N	0.084411	0.537712	0.176613
	N254	N	0.085142	0.462290	0.822235
	N255	N	0.915408	0.537138	0.822675
	N256	N	0.177591	0.914707	0.462727
	N257	N	0.178557	0.086174	0.537243
	N258	N	0.822303	0.085052	0.462948
	N259	N	0.821258	0.914025	0.536852
	N260	N	0.462533	0.178395	0.914680
	N261	N	0.537719	0.178527	0.085097
	N262	N	0.463296	0.820552	0.086717
	N263	N	0.537426	0.822189	0.914333
	N264	N	0.462413	0.915481	0.177767
	N265	N	0.537353	0.086482	0.178776
	N266	N	0.462731	0.085902	0.821470
	N267	N	0.537754	0.915540	0.821586
	N268	N	0.915046	0.177213	0.462781
	N269	N	0.085210	0.178100	0.537636
	N270	N	0.083905	0.822918	0.462202
	N271	N	0.914254	0.821832	0.537429
	N272	N	0.178549	0.462514	0.913770
	N273	N	0.178621	0.537423	0.085972
	N274	N	0.821435	0.462471	0.086021
	N275	N	0.822280	0.537183	0.915027
