data_Molecule from HDF5

_cell_length_a		16.509049
_cell_length_b		16.620408
_cell_length_c		16.424731
_cell_angle_alpha	89.899951
_cell_angle_beta	90.003750
_cell_angle_gamma	90.011906
_symmetry_space_group_name_H-M	'P 1'
_symmetry_Int_Tables_number		1

loop_
	_symmetry_equiv_pos_as_xyz
	x,y,z

loop_
	_atom_site_label
	_atom_site_type_symbol
	_atom_site_fract_x
	_atom_site_fract_y
	_atom_site_fract_z
	H0	H	0.398152	0.852177	0.710168
	H1	H	0.605993	0.166296	0.711674
	H2	H	0.608105	0.854100	0.267447
	H3	H	0.396349	0.165580	0.268085
	H4	H	0.723238	0.401894	0.832049
	H5	H	0.721039	0.612067	0.148628
	H6	H	0.280647	0.611911	0.832675
	H7	H	0.281779	0.405342	0.149065
	H8	H	0.844184	0.731331	0.384543
	H9	H	0.157416	0.730396	0.595804
	H10	H	0.844716	0.284667	0.598670
	H11	H	0.157331	0.286584	0.382842
	H12	H	0.843146	0.402490	0.712199
	H13	H	0.159197	0.611322	0.708333
	H14	H	0.842914	0.611923	0.270778
	H15	H	0.158736	0.406189	0.270031
	H16	H	0.394272	0.730500	0.833236
	H17	H	0.607045	0.730251	0.147154
	H18	H	0.606901	0.287303	0.831021
	H19	H	0.394127	0.285592	0.146674
	H20	H	0.724739	0.854438	0.384705
	H21	H	0.724115	0.166347	0.597084
	H22	H	0.278457	0.853860	0.596582
	H23	H	0.277826	0.164484	0.382753
	H24	H	0.896623	0.352245	0.211374
	H25	H	0.101434	0.666831	0.206825
	H26	H	0.104909	0.351861	0.769497
	H27	H	0.897525	0.666136	0.770169
	H28	H	0.220887	0.905540	0.331811
	H29	H	0.219592	0.110307	0.648635
	H30	H	0.781660	0.112680	0.332364
	H31	H	0.784218	0.907666	0.650042
	H32	H	0.342149	0.226978	0.886945
	H33	H	0.657452	0.231062	0.094354
	H34	H	0.344202	0.789159	0.094068
	H35	H	0.657322	0.786673	0.884321
	H36	H	0.343531	0.907772	0.208951
	H37	H	0.659512	0.112830	0.208526
	H38	H	0.341229	0.107425	0.773134
	H39	H	0.659977	0.907446	0.772308
	H40	H	0.896149	0.230788	0.332842
	H41	H	0.107692	0.230547	0.646938
	H42	H	0.105354	0.789423	0.332353
	H43	H	0.896956	0.789359	0.648365
	H44	H	0.219952	0.351411	0.888097
	H45	H	0.221252	0.664969	0.094990
	H46	H	0.779706	0.351639	0.094742
	H47	H	0.779081	0.664586	0.884577
	H48	H	0.404767	0.121346	0.573698
	H49	H	0.597822	0.897840	0.575108
	H50	H	0.591804	0.119461	0.406556
	H51	H	0.411962	0.898956	0.404419
	H52	H	0.590690	0.423345	0.100691
	H53	H	0.589769	0.602572	0.875102
	H54	H	0.409931	0.603298	0.106951
	H55	H	0.414624	0.418025	0.877044
	H56	H	0.114465	0.605115	0.402328
	H57	H	0.888206	0.595127	0.580347
	H58	H	0.111018	0.422072	0.576095
	H59	H	0.888680	0.418031	0.403124
	H60	H	0.112975	0.420399	0.580988
	H61	H	0.886009	0.603811	0.581233
	H62	H	0.111154	0.596292	0.404020
	H63	H	0.889933	0.421160	0.402704
	H64	H	0.407610	0.594645	0.104153
	H65	H	0.592402	0.591703	0.878427
	H66	H	0.584084	0.419394	0.100498
	H67	H	0.407781	0.416796	0.874835
	H68	H	0.594262	0.123102	0.397818
	H69	H	0.594089	0.895692	0.587010
	H70	H	0.407747	0.124864	0.587525
	H71	H	0.408163	0.896216	0.400089
	H72	H	0.917106	0.618681	0.080247
	H73	H	0.091757	0.394820	0.083582
	H74	H	0.095645	0.621258	0.901846
	H75	H	0.910510	0.400609	0.910964
	H76	H	0.088484	0.917959	0.603679
	H77	H	0.095177	0.090135	0.378183
	H78	H	0.909492	0.094936	0.603818
	H79	H	0.916791	0.907960	0.374337
	H80	H	0.616954	0.105859	0.897380
	H81	H	0.390712	0.093651	0.075606
	H82	H	0.612547	0.924786	0.078757
	H83	H	0.388715	0.915044	0.909609
	H84	H	0.617348	0.915686	0.082440
	H85	H	0.386955	0.097325	0.084403
	H86	H	0.610869	0.100136	0.908466
	H87	H	0.390942	0.927639	0.899957
	H88	H	0.917976	0.097073	0.601716
	H89	H	0.079353	0.099172	0.379801
	H90	H	0.090919	0.919149	0.604806
	H91	H	0.900040	0.924058	0.374007
	H92	H	0.091309	0.623015	0.894573
	H93	H	0.087781	0.396904	0.080101
	H94	H	0.906376	0.619947	0.072539
	H95	H	0.904652	0.393201	0.897232
	H96	H	0.417908	0.118646	0.578986
	H97	H	0.585692	0.900363	0.578783
	H98	H	0.585313	0.119335	0.399084
	H99	H	0.414155	0.897041	0.398360
	H100	H	0.590187	0.415909	0.103696
	H101	H	0.581550	0.596088	0.880305
	H102	H	0.415748	0.598400	0.102481
	H103	H	0.410085	0.422811	0.877665
	H104	H	0.114887	0.597839	0.395589
	H105	H	0.888842	0.600761	0.573668
	H106	H	0.113511	0.417267	0.576465
	H107	H	0.888474	0.419490	0.399935
	H108	H	0.906371	0.623652	0.085420
	H109	H	0.093220	0.396731	0.078386
	H110	H	0.087184	0.619693	0.901590
	H111	H	0.920542	0.398170	0.897798
	H112	H	0.089168	0.920855	0.603033
	H113	H	0.093865	0.107294	0.372014
	H114	H	0.912690	0.103282	0.606307
	H115	H	0.921299	0.929366	0.382478
	H116	H	0.613425	0.092739	0.897039
	H117	H	0.387665	0.103618	0.076128
	H118	H	0.613670	0.916368	0.072166
	H119	H	0.384583	0.913810	0.894507
	C120	C	0.379040	0.017914	0.611709
	C121	C	0.623687	1.001665	0.612156
	C122	C	0.623269	0.017990	0.368724
	C123	C	0.379570	1.000960	0.368667
	C124	C	0.621426	0.386848	-0.002373
	C125	C	0.621012	0.629043	0.982118
	C126	C	0.379062	0.630201	-0.000281
	C127	C	0.379437	0.387612	0.981480
	C128	C	0.009144	0.630812	0.369007
	C129	C	0.992110	0.630465	0.610627
	C130	C	0.009002	0.387226	0.611287
	C131	C	0.992647	0.387772	0.369126
	C132	C	0.878220	0.517200	0.111868
	C133	C	0.121677	0.500163	0.111740
	C134	C	0.122813	0.517543	0.868182
	C135	C	0.879498	0.500449	0.869277
	C136	C	0.121512	0.887996	0.498803
	C137	C	0.122593	0.130610	0.480905
	C138	C	0.880456	0.130722	0.499323
	C139	C	0.880634	0.888790	0.481600
	C140	C	0.509052	0.129979	0.869052
	C141	C	0.492529	0.130506	0.110717
	C142	C	0.510605	0.887722	0.110775
	C143	C	0.492199	0.887114	0.868801
	C144	C	0.378582	0.899500	0.670740
	C145	C	0.624791	0.119469	0.672001
	C146	C	0.626082	0.900886	0.308152
	C147	C	0.377944	0.118657	0.308262
	C148	C	0.682494	0.384192	0.879200
	C149	C	0.681499	0.631008	0.100801
	C150	C	0.319779	0.631116	0.880368
	C151	C	0.320878	0.386127	0.101076
	C152	C	0.890737	0.690418	0.366759
	C153	C	0.110453	0.689892	0.613365
	C154	C	0.891444	0.325592	0.615652
	C155	C	0.110461	0.327441	0.365485
	C156	C	0.890749	0.384292	0.672268
	C157	C	0.111159	0.630561	0.669415
	C158	C	0.890426	0.631191	0.310354
	C159	C	0.111162	0.386722	0.309257
	C160	C	0.376383	0.689995	0.880711
	C161	C	0.624545	0.689553	0.100254
	C162	C	0.624670	0.326801	0.878846
	C163	C	0.376867	0.326824	0.099964
	C164	C	0.684198	0.901087	0.366206
	C165	C	0.683397	0.119476	0.614500
	C166	C	0.319121	0.900284	0.614303
	C167	C	0.318842	0.117993	0.365382
	C168	C	0.877303	0.399348	0.171750
	C169	C	0.121677	0.619124	0.168952
	C170	C	0.123948	0.399236	0.809049
	C171	C	0.878525	0.618621	0.809744
	C172	C	0.180841	0.886838	0.379414
	C173	C	0.181014	0.130496	0.600758
	C174	C	0.820999	0.132095	0.379998
	C175	C	0.822738	0.888401	0.601817
	C176	C	0.389359	0.187376	0.868109
	C177	C	0.610696	0.190762	0.112671
	C178	C	0.391364	0.829081	0.112766
	C179	C	0.610520	0.827203	0.866259
	C180	C	0.391133	0.887794	0.169729
	C181	C	0.611623	0.132058	0.169481
	C182	C	0.389072	0.128444	0.811435
	C183	C	0.611722	0.887220	0.810570
	C184	C	0.878004	0.190519	0.380065
	C185	C	0.125451	0.190068	0.599945
	C186	C	0.123588	0.828929	0.379537
	C187	C	0.879046	0.829715	0.600999
	C188	C	0.181218	0.398897	0.868041
	C189	C	0.181019	0.618285	0.113023
	C190	C	0.819192	0.399056	0.113746
	C191	C	0.819368	0.618019	0.866540
	C192	C	0.403426	0.100074	0.586948
	C193	C	0.599444	0.919504	0.587060
	C194	C	0.597669	0.099472	0.394001
	C195	C	0.404378	0.918762	0.393898
	C196	C	0.595557	0.412188	0.080259
	C197	C	0.595195	0.603900	0.899485
	C198	C	0.403991	0.605849	0.082956
	C199	C	0.403986	0.412214	0.898324
	C200	C	0.091966	0.606720	0.393704
	C201	C	0.909271	0.606666	0.585605
	C202	C	0.090826	0.412734	0.585239
	C203	C	0.910361	0.412528	0.394886
	C204	C	0.902769	0.599235	0.086664
	C205	C	0.097716	0.417606	0.087565
	C206	C	0.098529	0.599884	0.892425
	C207	C	0.904652	0.418652	0.894875
	C208	C	0.096884	0.912184	0.582082
	C209	C	0.096906	0.106134	0.398135
	C210	C	0.905983	0.105672	0.582152
	C211	C	0.905415	0.913454	0.398502
	C212	C	0.592435	0.106468	0.893764
	C213	C	0.409949	0.105498	0.085840
	C214	C	0.592904	0.911920	0.085334
	C215	C	0.409533	0.911749	0.894305
	Zn216	Zn	0.501185	0.009139	0.740557
	Zn217	Zn	0.501987	0.009730	0.239259
	Zn218	Zn	0.749395	0.508260	-0.010325
	Zn219	Zn	0.250812	0.508739	-0.008635
	Zn220	Zn	0.000897	0.759803	0.489881
	Zn221	Zn	0.001350	0.258674	0.490427
	Zn222	Zn	-0.000025	0.508690	0.739425
	Zn223	Zn	0.000834	0.509602	0.240346
	Zn224	Zn	0.500758	0.758389	-0.009997
	Zn225	Zn	0.500152	0.259222	-0.010848
	Zn226	Zn	0.752636	0.009705	0.490923
	Zn227	Zn	0.249722	0.009203	0.489994
	N228	N	0.415047	0.973730	0.669501
	N229	N	0.588258	0.045234	0.670753
	N230	N	0.588837	0.974568	0.309667
	N231	N	0.414975	0.044700	0.310067
	N232	N	0.680660	0.420892	0.954101
	N233	N	0.679331	0.593982	0.026106
	N234	N	0.321431	0.594521	0.955376
	N235	N	0.322361	0.423354	0.026417
	N236	N	0.965863	0.690528	0.402355
	N237	N	0.035333	0.690055	0.577581
	N238	N	0.966107	0.326980	0.578490
	N239	N	0.035671	0.327730	0.401939
	N240	N	0.964738	0.421935	0.669747
	N241	N	0.036563	0.594145	0.667758
	N242	N	0.964988	0.595012	0.311651
	N243	N	0.036660	0.423435	0.311262
	N244	N	0.412475	0.689683	0.955976
	N245	N	0.587491	0.688342	0.025531
	N246	N	0.587399	0.328353	0.953666
	N247	N	0.412615	0.327627	0.024477
	N248	N	0.682791	0.974939	0.403006
	N249	N	0.682992	0.045150	0.578392
	N250	N	0.319263	0.974831	0.578261
	N251	N	0.319731	0.043753	0.402166
	N252	N	0.913022	0.473894	0.171035
	N253	N	0.085669	0.544752	0.168356
	N254	N	0.088596	0.474125	0.808665
	N255	N	0.915046	0.544516	0.811229
	N256	N	0.179879	0.922686	0.454574
	N257	N	0.179277	0.094474	0.525739
	N258	N	0.822381	0.095945	0.455166
	N259	N	0.823635	0.924599	0.526429
	N260	N	0.465129	0.188752	0.902753
	N261	N	0.535449	0.190094	0.077189
	N262	N	0.466624	0.828503	0.077125
	N263	N	0.534906	0.826639	0.901415
	N264	N	0.466326	0.923220	0.168946
	N265	N	0.537040	0.095491	0.168535
	N266	N	0.464771	0.094020	0.811679
	N267	N	0.537130	0.923581	0.812060
	N268	N	0.914131	0.189910	0.455384
	N269	N	0.089814	0.190502	0.524325
	N270	N	0.087577	0.829492	0.454902
	N271	N	0.914124	0.829648	0.525202
	N272	N	0.180832	0.473523	0.903891
	N273	N	0.181423	0.543189	0.078392
	N274	N	0.819317	0.473440	0.077481
	N275	N	0.819609	0.543433	0.902625
	O276	O	0.781426	1.107992	-0.037951
	H277	H	0.768018	1.119701	-0.031995
	H278	H	0.781014	1.091311	-0.040680
	O279	O	-0.207934	-0.017441	1.202551
	H280	H	-0.205865	-0.047107	1.196457
	H281	H	-0.222189	-0.028804	1.221317
	O282	O	0.697662	0.706936	0.684857
	H283	H	0.690113	0.718520	0.672234
	H284	H	0.671352	0.700367	0.665832
	O285	O	0.288222	0.544606	0.290589
	H286	H	0.295596	0.562725	0.284684
	H287	H	0.277265	0.556881	0.272546
	O288	O	1.129725	-0.215673	0.969065
	H289	H	1.136017	-0.226002	0.955426
	H290	H	1.131668	-0.220723	0.945330
	O291	O	0.724494	0.471751	0.304754
	H292	H	0.722677	0.438693	0.306005
	H293	H	0.747821	0.467822	0.284151
	O294	O	-0.172253	0.195885	0.164800
	H295	H	-0.150217	0.178565	0.152116
	H296	H	-0.167332	0.176696	0.147036
	O297	O	0.962257	-0.181649	0.198580
	H298	H	0.962893	-0.199678	0.218968
	H299	H	0.937660	-0.183829	0.191960
	O300	O	0.030532	-0.207062	-0.040443
	H301	H	0.043377	-0.219116	-0.046329
	H302	H	0.052200	-0.204164	-0.045093
	O303	O	-0.186151	0.200126	-0.198543
	H304	H	-0.182637	0.197573	-0.167477
	H305	H	-0.179825	0.209284	-0.190274
	O306	O	0.788676	0.038764	-0.220323
	H307	H	0.767825	0.037920	-0.231980
	H308	H	0.792119	0.065815	-0.226786
	O309	O	0.702397	0.306249	0.289234
	H310	H	0.727679	0.288769	0.267058
	H311	H	0.660346	0.299369	0.289393
	O312	O	-0.001195	0.063288	0.201240
	H313	H	-0.005720	0.044516	0.200066
	H314	H	0.000671	0.057318	0.206071
	O315	O	0.716434	0.725369	0.517646
	H316	H	0.723856	0.725206	0.505364
	H317	H	0.730239	0.720146	0.516025
	O318	O	1.086858	1.060968	-0.175840
	H319	H	1.087530	1.068948	-0.166641
	H320	H	1.094887	1.067557	-0.188554
	O321	O	0.092105	1.018940	0.945250
	H322	H	0.101188	1.009554	0.956256
	H323	H	0.103925	1.008113	0.931909
	O324	O	1.159032	-0.126011	1.084674
	H325	H	1.159074	-0.130818	1.107013
	H326	H	1.150435	-0.127872	1.077164
	O327	O	0.493647	0.550010	0.435620
	H328	H	0.496281	0.540526	0.434833
	H329	H	0.503209	0.535309	0.438873
	O330	O	0.465452	0.731631	0.272324
	H331	H	0.471033	0.733007	0.257487
	H332	H	0.469407	0.736552	0.260244
	O333	O	0.388723	0.394654	0.287677
	H334	H	0.394596	0.397219	0.305225
	H335	H	0.406165	0.402795	0.290330
	O336	O	0.500682	0.495700	0.509905
	H337	H	0.516678	0.487703	0.508692
	H338	H	0.489685	0.477604	0.510215
	O339	O	0.393642	0.298300	0.702103
	H340	H	0.395054	0.299314	0.698100
	H341	H	0.393628	0.279278	0.693834
	O342	O	0.205332	1.208241	0.186641
	H343	H	0.190740	1.212222	0.187236
	H344	H	0.197915	1.223948	0.205044
	O345	O	0.554604	0.319351	0.614029
	H346	H	0.533032	0.329528	0.608573
	H347	H	0.559196	0.301947	0.622938
	O348	O	0.347573	0.485744	0.542637
	H349	H	0.337671	0.475968	0.543400
	H350	H	0.351812	0.479011	0.560301
	O351	O	-0.201175	-0.190710	1.193402
	H352	H	-0.196720	-0.188517	1.169825
	H353	H	-0.228863	-0.215640	1.198147
	O354	O	0.930318	-0.040020	0.831282
	H355	H	0.932967	-0.033266	0.831603
	H356	H	0.927378	-0.037663	0.826148
	O357	O	0.292377	0.704819	0.454542
	H358	H	0.275243	0.725735	0.449313
	H359	H	0.304111	0.699482	0.463963
	O360	O	0.707126	0.518627	0.697381
	H361	H	0.698205	0.548032	0.692212
	H362	H	0.726590	0.534875	0.717900
	O363	O	0.699138	0.578985	0.459102
	H364	H	0.709848	0.568059	0.446595
	H365	H	0.698680	0.555283	0.480104
	O366	O	0.962123	0.194575	0.883161
	H367	H	0.955855	0.189542	0.884367
	H368	H	0.963560	0.184421	0.883040
	O369	O	-0.051750	-0.063930	0.941177
	H370	H	-0.060988	-0.067533	0.936103
	H371	H	-0.060959	-0.062414	0.926632
	O372	O	0.081095	1.032057	1.133490
	H373	H	0.086072	1.022449	1.136559
	H374	H	0.094462	1.007726	1.142454
	O375	O	1.062367	-0.012025	-0.091422
	H376	H	1.073459	0.008238	-0.084030
	H377	H	1.061908	-0.007311	-0.083855
	O378	O	0.551705	0.713012	0.448631
	H379	H	0.557581	0.718058	0.453214
	H380	H	0.536823	0.719750	0.431334
	O381	O	0.013393	0.839201	-0.207316
	H382	H	0.015586	0.837514	-0.218706
	H383	H	0.027311	0.832712	-0.221026
	O384	O	0.293268	0.505469	0.504342
	H385	H	0.297355	0.515239	0.515570
	H386	H	0.295092	0.516613	0.504198
	O387	O	-0.198427	0.911426	0.907709
	H388	H	-0.215764	0.894948	0.903557
	H389	H	-0.183227	0.916562	0.914386
	O390	O	0.095420	1.147789	0.842180
	H391	H	0.067026	1.137126	0.841911
	H392	H	0.089953	1.135709	0.870954
	O393	O	1.206978	0.031616	0.192413
	H394	H	1.208652	0.040724	0.197830
	H395	H	1.211903	0.048017	0.202927
	O396	O	0.442974	0.309113	0.465934
	H397	H	0.430829	0.305214	0.466743
	H398	H	0.436319	0.298086	0.478334
	O399	O	0.314871	0.696025	0.675155
	H400	H	0.329003	0.679821	0.653096
	H401	H	0.338687	0.675775	0.664583
	O402	O	1.100019	0.173890	0.824389
	H403	H	1.088975	0.150682	0.834894
	H404	H	1.096906	0.183244	0.821763
	O405	O	0.285336	0.379566	0.701716
	H406	H	0.254246	0.357480	0.735600
	H407	H	0.315278	0.368612	0.691677
	O408	O	1.041153	0.965731	0.990847
	H409	H	1.045419	0.961900	1.002281
	H410	H	1.044534	0.961369	0.994084
	O411	O	0.661668	0.712553	0.331626
	H412	H	0.656572	0.705491	0.345113
	H413	H	0.654609	0.690261	0.343804
	O414	O	-0.073993	0.003320	0.038679
	H415	H	-0.084847	0.000417	0.022532
	H416	H	-0.067890	0.001990	0.028410
	O417	O	0.438061	0.715151	0.562740
	H418	H	0.432985	0.714391	0.563639
	H419	H	0.450843	0.706315	0.568482
	O420	O	1.183260	0.214111	0.993948
	H421	H	1.195860	0.219242	1.012508
	H422	H	1.182807	0.206394	1.012783
	O423	O	0.848584	0.797150	0.002377
	H424	H	0.865797	0.789963	-0.004737
	H425	H	0.851169	0.799673	-0.010484
	O426	O	0.285395	0.295714	0.520002
	H427	H	0.277070	0.309326	0.529784
	H428	H	0.258331	0.286491	0.520291
	O429	O	0.455308	0.502154	0.338533
	H430	H	0.457985	0.497517	0.339049
	H431	H	0.450908	0.502703	0.330466
	O432	O	1.015335	0.223074	1.174222
	H433	H	1.011409	0.224052	1.194420
	H434	H	1.009901	0.216847	1.168705
	O435	O	0.474418	0.481723	0.550720
	H436	H	0.482103	0.486009	0.547298
	H437	H	0.470227	0.478479	0.558217
	O438	O	0.546492	0.650420	0.706782
	H439	H	0.535822	0.622245	0.705956
	H440	H	0.554855	0.673331	0.728903
	O441	O	0.391891	0.435959	0.416869
	H442	H	0.387668	0.434555	0.428637
	H443	H	0.398568	0.436593	0.428689
	O444	O	0.704509	0.319365	0.438585
	H445	H	0.730670	0.291550	0.438169
	H446	H	0.701453	0.328587	0.422386
	O447	O	0.966258	0.054257	0.987837
	H448	H	0.958697	0.052560	0.997188
	H449	H	0.995795	0.045247	0.997619
	O450	O	1.531352	0.485038	0.655052
	H451	H	1.525746	0.481856	0.657822
	H452	H	1.546306	0.476845	0.666044
	O453	O	0.451543	0.644878	0.658185
	H454	H	0.443080	0.628805	0.651086
	H455	H	0.450565	0.632725	0.650397
	O456	O	0.065848	1.120997	0.988567
	H457	H	0.075681	1.108311	1.011641
	H458	H	0.074742	1.122130	0.983559
	O459	O	0.589245	0.311419	0.612847
	H460	H	0.604994	0.320479	0.612828
	H461	H	0.578896	0.301391	0.600410
	O462	O	0.531584	0.292321	0.278579
	H463	H	0.521626	0.287070	0.290971
	H464	H	0.524166	0.283852	0.269723
	O465	O	0.211350	0.798288	0.780672
	H466	H	0.244410	0.768411	0.748707
	H467	H	0.202663	0.819284	0.788986
	O468	O	0.130591	0.890143	0.051073
	H469	H	0.128162	0.891216	0.033544
	H470	H	0.124560	0.892882	0.054762
	O471	O	0.587599	0.478248	0.356753
	H472	H	0.603761	0.459138	0.361190
	H473	H	0.583050	0.463705	0.352041
	O474	O	1.293418	0.721395	0.283800
	H475	H	1.302637	0.720087	0.314647
	H476	H	1.305091	0.729275	0.269224
	O477	O	0.666046	0.453374	0.517878
	H478	H	0.662245	0.443301	0.527075
	H479	H	0.662187	0.454515	0.537953
