data_Molecule from HDF5

_cell_length_a		15.981997
_cell_length_b		16.480924
_cell_length_c		16.180310
_cell_angle_alpha	89.738716
_cell_angle_beta	90.231036
_cell_angle_gamma	89.697406
_symmetry_space_group_name_H-M	'P 1'
_symmetry_Int_Tables_number		1

loop_
	_symmetry_equiv_pos_as_xyz
	x,y,z

loop_
	_atom_site_label
	_atom_site_type_symbol
	_atom_site_fract_x
	_atom_site_fract_y
	_atom_site_fract_z
	H0	H	0.407670	0.838644	0.715973
	H1	H	0.604897	0.162698	0.715611
	H2	H	0.605133	0.838249	0.284397
	H3	H	0.402637	0.162055	0.281473
	H4	H	0.715688	0.407487	0.833165
	H5	H	0.715288	0.592875	0.166032
	H6	H	0.293535	0.597138	0.834231
	H7	H	0.298439	0.408371	0.166218
	H8	H	0.840068	0.717513	0.397855
	H9	H	0.170124	0.714763	0.601119
	H10	H	0.839829	0.286732	0.601703
	H11	H	0.169918	0.287036	0.399133
	H12	H	0.838397	0.406249	0.710418
	H13	H	0.171921	0.596897	0.710651
	H14	H	0.839223	0.600652	0.286878
	H15	H	0.172579	0.406644	0.291644
	H16	H	0.401801	0.719310	0.836870
	H17	H	0.608930	0.717218	0.162724
	H18	H	0.609906	0.283219	0.836630
	H19	H	0.403846	0.283351	0.162214
	H20	H	0.720235	0.837376	0.404122
	H21	H	0.718329	0.164131	0.596618
	H22	H	0.293639	0.837067	0.594382
	H23	H	0.289949	0.163583	0.401801
	H24	H	0.908113	0.339766	0.216124
	H25	H	0.104066	0.664144	0.215666
	H26	H	0.107990	0.340525	0.783660
	H27	H	0.903287	0.662645	0.781654
	H28	H	0.212486	0.908465	0.331930
	H29	H	0.214597	0.092501	0.665889
	H30	H	0.791771	0.097938	0.333359
	H31	H	0.797684	0.907786	0.666022
	H32	H	0.340626	0.217652	0.896232
	H33	H	0.670846	0.213357	0.100997
	H34	H	0.340778	0.785170	0.101170
	H35	H	0.670208	0.784816	0.898911
	H36	H	0.337638	0.905209	0.208572
	H37	H	0.671136	0.095844	0.211949
	H38	H	0.338613	0.098436	0.787133
	H39	H	0.672191	0.904542	0.789825
	H40	H	0.900602	0.221274	0.335860
	H41	H	0.108757	0.217514	0.662169
	H42	H	0.107531	0.783462	0.336383
	H43	H	0.902330	0.783372	0.662117
	H44	H	0.219432	0.338406	0.906242
	H45	H	0.219346	0.665372	0.096001
	H46	H	0.793938	0.338726	0.097058
	H47	H	0.790362	0.663939	0.901989
	H48	H	0.411961	0.113837	0.587233
	H49	H	0.595900	0.886184	0.598335
	H50	H	0.600822	0.117375	0.401766
	H51	H	0.422046	0.885129	0.392263
	H52	H	0.598929	0.393345	0.121265
	H53	H	0.589707	0.591220	0.883946
	H54	H	0.408710	0.601214	0.121376
	H55	H	0.413007	0.391473	0.876368
	H56	H	0.126021	0.598778	0.410596
	H57	H	0.881961	0.609342	0.588212
	H58	H	0.118988	0.416040	0.582628
	H59	H	0.886382	0.416803	0.402285
	H60	H	0.127051	0.410832	0.603032
	H61	H	0.891434	0.587363	0.578008
	H62	H	0.123303	0.591826	0.410955
	H63	H	0.881844	0.401707	0.405539
	H64	H	0.413645	0.587538	0.115560
	H65	H	0.594689	0.604291	0.880196
	H66	H	0.607571	0.410161	0.118580
	H67	H	0.401179	0.417114	0.879613
	H68	H	0.589698	0.114054	0.401767
	H69	H	0.599072	0.887089	0.590564
	H70	H	0.403957	0.118304	0.595741
	H71	H	0.412715	0.888723	0.418413
	H72	H	0.912089	0.617557	0.092959
	H73	H	0.104534	0.384796	0.099949
	H74	H	0.092335	0.616714	0.902166
	H75	H	0.918953	0.388832	0.908323
	H76	H	0.094937	0.907762	0.615611
	H77	H	0.089775	0.097363	0.383305
	H78	H	0.912227	0.090658	0.615179
	H79	H	0.914452	0.909979	0.382065
	H80	H	0.624210	0.089530	0.909273
	H81	H	0.383145	0.099143	0.094652
	H82	H	0.630088	0.888384	0.091254
	H83	H	0.382392	0.907471	0.897794
	H84	H	0.617423	0.914905	0.074680
	H85	H	0.386255	0.098662	0.083197
	H86	H	0.625558	0.095549	0.904985
	H87	H	0.385501	0.899732	0.915066
	H88	H	0.920149	0.097221	0.614853
	H89	H	0.097276	0.102197	0.379436
	H90	H	0.096271	0.899908	0.618664
	H91	H	0.915199	0.906357	0.381676
	H92	H	0.098190	0.615584	0.910617
	H93	H	0.096646	0.387445	0.098209
	H94	H	0.910233	0.617544	0.093850
	H95	H	0.908398	0.385411	0.908748
	H96	H	0.415510	0.116071	0.598691
	H97	H	0.604164	0.884016	0.596568
	H98	H	0.596030	0.113575	0.411177
	H99	H	0.395058	0.879068	0.398420
	H100	H	0.588474	0.408474	0.113123
	H101	H	0.604569	0.592561	0.880406
	H102	H	0.423546	0.599400	0.116504
	H103	H	0.429035	0.413223	0.887527
	H104	H	0.125389	0.594355	0.405200
	H105	H	0.883227	0.589143	0.603409
	H106	H	0.126901	0.395455	0.587007
	H107	H	0.888521	0.410932	0.417018
	H108	H	0.912142	0.617277	0.094777
	H109	H	0.102792	0.387854	0.092810
	H110	H	0.102997	0.618684	0.902139
	H111	H	0.914149	0.384437	0.899690
	H112	H	0.102341	0.905562	0.617527
	H113	H	0.099012	0.093422	0.381896
	H114	H	0.910762	0.099633	0.619016
	H115	H	0.911500	0.907483	0.380324
	H116	H	0.624139	0.095694	0.911479
	H117	H	0.387541	0.088561	0.090061
	H118	H	0.626094	0.917226	0.108256
	H119	H	0.389873	0.918376	0.912351
	C120	C	0.382894	0.008782	0.621632
	C121	C	0.628011	0.992698	0.622678
	C122	C	0.626367	0.008304	0.376979
	C123	C	0.381423	0.991934	0.375256
	C124	C	0.627508	0.377528	0.008507
	C125	C	0.625826	0.622457	0.990673
	C126	C	0.384834	0.623859	0.008763
	C127	C	0.385546	0.379803	0.990378
	C128	C	0.014453	0.623421	0.379242
	C129	C	0.995768	0.622396	0.619640
	C130	C	0.014269	0.379839	0.620445
	C131	C	0.995785	0.381433	0.379851
	C132	C	0.883538	0.510183	0.122541
	C133	C	0.128804	0.493882	0.124024
	C134	C	0.127691	0.510036	0.877485
	C135	C	0.883691	0.493213	0.876777
	C136	C	0.126076	0.878135	0.507872
	C137	C	0.125123	0.123620	0.490622
	C138	C	0.883393	0.124738	0.507721
	C139	C	0.885073	0.880043	0.490703
	C140	C	0.514698	0.122291	0.878541
	C141	C	0.495796	0.122214	0.119485
	C142	C	0.514380	0.879106	0.119976
	C143	C	0.496088	0.880283	0.879649
	C144	C	0.386267	0.886874	0.677484
	C145	C	0.625262	0.114341	0.677536
	C146	C	0.625174	0.886440	0.322370
	C147	C	0.382798	0.113742	0.319859
	C148	C	0.680836	0.383968	0.883565
	C149	C	0.679625	0.616251	0.116036
	C150	C	0.329910	0.619503	0.884045
	C151	C	0.333373	0.385297	0.115978
	C152	C	0.889397	0.678928	0.379352
	C153	C	0.120878	0.676477	0.619563
	C154	C	0.889428	0.325177	0.620044
	C155	C	0.120611	0.325470	0.380385
	C156	C	0.888638	0.384181	0.674460
	C157	C	0.121720	0.618005	0.674106
	C158	C	0.888819	0.620805	0.324279
	C159	C	0.122100	0.385192	0.327207
	C160	C	0.383784	0.680028	0.885407
	C161	C	0.626868	0.677846	0.114243
	C162	C	0.627805	0.322474	0.885065
	C163	C	0.385843	0.323132	0.113822
	C164	C	0.682368	0.886096	0.381938
	C165	C	0.681781	0.115082	0.618165
	C166	C	0.330165	0.885845	0.616845
	C167	C	0.326863	0.114625	0.379680
	C168	C	0.887137	0.388334	0.178161
	C169	C	0.125448	0.616039	0.177915
	C170	C	0.126847	0.388501	0.822586
	C171	C	0.884015	0.614584	0.820553
	C172	C	0.177753	0.884994	0.382264
	C173	C	0.179180	0.116362	0.615623
	C174	C	0.828286	0.120458	0.383174
	C175	C	0.832260	0.884997	0.615734
	C176	C	0.389872	0.178580	0.877983
	C177	C	0.621117	0.175893	0.119365
	C178	C	0.389672	0.824065	0.119303
	C179	C	0.621090	0.823959	0.880251
	C180	C	0.388005	0.883700	0.172727
	C181	C	0.621338	0.117156	0.174432
	C182	C	0.388824	0.119306	0.823838
	C183	C	0.621973	0.883186	0.826021
	C184	C	0.882263	0.181764	0.384618
	C185	C	0.126141	0.178275	0.613879
	C186	C	0.125541	0.822862	0.384565
	C187	C	0.884722	0.823144	0.613745
	C188	C	0.182567	0.387452	0.883330
	C189	C	0.182494	0.616561	0.118440
	C190	C	0.830499	0.387603	0.118941
	C191	C	0.827844	0.615127	0.880467
	C192	C	0.404114	0.093913	0.600270
	C193	C	0.606235	0.907642	0.601382
	C194	C	0.602685	0.093006	0.398502
	C195	C	0.403349	0.906474	0.396577
	C196	C	0.605141	0.397900	0.095218
	C197	C	0.603076	0.602255	0.904037
	C198	C	0.408369	0.602255	0.095395
	C199	C	0.407670	0.401014	0.903711
	C200	C	0.102137	0.601462	0.402232
	C201	C	0.908186	0.601395	0.596683
	C202	C	0.101552	0.401214	0.597814
	C203	C	0.908258	0.403251	0.401720
	C204	C	0.905075	0.595501	0.100628
	C205	C	0.107632	0.408868	0.103250
	C206	C	0.104601	0.595129	0.898643
	C207	C	0.906912	0.407929	0.898896
	C208	C	0.104312	0.898353	0.594952
	C209	C	0.102110	0.103686	0.403928
	C210	C	0.907399	0.102448	0.594092
	C211	C	0.907248	0.901688	0.403918
	C212	C	0.602092	0.100114	0.901688
	C213	C	0.408277	0.101612	0.096087
	C214	C	0.601983	0.900511	0.097930
	C215	C	0.408470	0.902036	0.901959
	Zn216	Zn	0.505531	0.000590	0.752321
	Zn217	Zn	0.504137	-0.000032	0.246060
	Zn218	Zn	0.753970	0.500836	-0.000035
	Zn219	Zn	0.257874	0.501568	0.000244
	Zn220	Zn	0.004957	0.749981	0.499692
	Zn221	Zn	0.004747	0.253340	0.499451
	Zn222	Zn	0.005379	0.501860	0.746509
	Zn223	Zn	0.005281	0.502300	0.253055
	Zn224	Zn	0.505788	0.752291	-0.000422
	Zn225	Zn	0.505754	0.249956	-0.001113
	Zn226	Zn	0.756752	0.001160	0.499716
	Zn227	Zn	0.252601	0.000511	0.498541
	N228	N	0.418375	0.964145	0.680438
	N229	N	0.592698	0.037421	0.680613
	N230	N	0.590838	0.963239	0.319264
	N231	N	0.415987	0.036516	0.316854
	N232	N	0.680745	0.417358	0.961387
	N233	N	0.679166	0.582440	0.038469
	N234	N	0.330392	0.585253	0.961813
	N235	N	0.333076	0.419710	0.038358
	N236	N	0.968652	0.680687	0.412642
	N237	N	0.041624	0.679348	0.586467
	N238	N	0.968655	0.322383	0.587275
	N239	N	0.041075	0.323089	0.412632
	N240	N	0.967285	0.417608	0.674967
	N241	N	0.042888	0.584872	0.674154
	N242	N	0.967647	0.586983	0.324034
	N243	N	0.043450	0.419396	0.326741
	N244	N	0.417175	0.682811	0.963850
	N245	N	0.593999	0.681807	0.035419
	N246	N	0.595435	0.318193	0.963764
	N247	N	0.417484	0.319488	0.034671
	N248	N	0.683251	0.962861	0.415087
	N249	N	0.683586	0.038489	0.584586
	N250	N	0.327913	0.962499	0.582668
	N251	N	0.325913	0.037979	0.413632
	N252	N	0.919656	0.465667	0.180490
	N253	N	0.092820	0.538924	0.181638
	N254	N	0.093221	0.465712	0.819021
	N255	N	0.917876	0.537536	0.818012
	N256	N	0.178167	0.918724	0.459887
	N257	N	0.178628	0.082887	0.537996
	N258	N	0.828853	0.085731	0.460720
	N259	N	0.832280	0.919613	0.538175
	N260	N	0.469138	0.180573	0.911515
	N261	N	0.541960	0.179136	0.085711
	N262	N	0.469214	0.821003	0.087358
	N263	N	0.541673	0.822010	0.912632
	N264	N	0.466826	0.917212	0.173242
	N265	N	0.542300	0.084846	0.174803
	N266	N	0.467643	0.085232	0.824026
	N267	N	0.543385	0.917523	0.825794
	N268	N	0.915674	0.184457	0.463242
	N269	N	0.093415	0.182892	0.535218
	N270	N	0.094099	0.818499	0.463665
	N271	N	0.916972	0.820102	0.535010
	N272	N	0.183138	0.463956	0.916741
	N273	N	0.184726	0.539785	0.085725
	N274	N	0.828403	0.464091	0.085006
	N275	N	0.827639	0.538637	0.914801
	O276	O	0.988242	1.070894	0.001447
	H277	H	0.992876	1.075872	0.004035
	H278	H	0.995469	1.079703	0.008098
	O279	O	0.010155	0.084354	-0.037241
	H280	H	0.010680	0.076996	-0.041291
	H281	H	0.013576	0.084908	-0.037682
	O282	O	-0.011632	0.022081	0.957131
	H283	H	-0.015929	0.017115	0.966166
	H284	H	-0.010553	0.031227	0.946893
	O285	O	0.446882	0.469458	0.486627
	H286	H	0.447343	0.471701	0.481827
	H287	H	0.449702	0.471583	0.488827
	O288	O	0.539676	0.451734	0.450147
	H289	H	0.530104	0.442286	0.446230
	H290	H	0.554160	0.453605	0.451888
	O291	O	0.457436	0.425818	0.492978
	H292	H	0.453376	0.419836	0.489643
	H293	H	0.469648	0.432016	0.492901
	O294	O	-0.489755	-0.525716	0.476020
	H295	H	-0.496698	-0.527422	0.468553
	H296	H	-0.486733	-0.525214	0.472012
	O297	O	0.452290	0.441949	0.528848
	H298	H	0.454035	0.448545	0.532288
	H299	H	0.442457	0.433416	0.536326
	O300	O	0.025551	1.033369	0.947954
	H301	H	0.013696	1.028834	0.956189
	H302	H	0.023402	1.032448	0.940564
	O303	O	0.552665	0.368924	0.450787
	H304	H	0.557599	0.356441	0.441564
	H305	H	0.555749	0.364899	0.453920
	O306	O	-0.054586	0.045412	0.987405
	H307	H	-0.054626	0.046206	0.993191
	H308	H	-0.050415	0.050471	0.990430
	O309	O	0.919157	1.093993	0.922532
	H310	H	0.916317	1.098883	0.923365
	H311	H	0.920612	1.088516	0.913288
	O312	O	0.532588	0.402821	0.458185
	H313	H	0.522169	0.407895	0.456255
	H314	H	0.533023	0.397205	0.461817
	O315	O	0.537921	0.467966	0.412261
	H316	H	0.540747	0.475288	0.408523
	H317	H	0.538002	0.466529	0.411193
	O318	O	-0.060505	1.064169	-0.014080
	H319	H	-0.067256	1.075320	-0.016345
	H320	H	-0.060334	1.063361	-0.015886
	O321	O	1.014573	1.041070	-0.001190
	H322	H	1.014416	1.041924	-0.007539
	H323	H	1.012228	1.047332	-0.001959
