data_Molecule from HDF5

_cell_length_a		16.211376
_cell_length_b		16.307580
_cell_length_c		16.200182
_cell_angle_alpha	89.985074
_cell_angle_beta	89.916373
_cell_angle_gamma	89.869105
_symmetry_space_group_name_H-M	'P 1'
_symmetry_Int_Tables_number		1

loop_
	_symmetry_equiv_pos_as_xyz
	x,y,z

loop_
	_atom_site_label
	_atom_site_type_symbol
	_atom_site_fract_x
	_atom_site_fract_y
	_atom_site_fract_z
	H0	H	0.404987	0.841052	0.709760
	H1	H	0.601497	0.168200	0.710988
	H2	H	0.600723	0.840244	0.282269
	H3	H	0.404710	0.168247	0.280967
	H4	H	0.718158	0.405802	0.831537
	H5	H	0.714059	0.601917	0.160604
	H6	H	0.289054	0.603064	0.831462
	H7	H	0.289759	0.407813	0.160598
	H8	H	0.839139	0.721009	0.398018
	H9	H	0.167172	0.719578	0.595121
	H10	H	0.838850	0.290208	0.596923
	H11	H	0.166253	0.289749	0.395798
	H12	H	0.838738	0.407566	0.710519
	H13	H	0.167704	0.602427	0.709033
	H14	H	0.837578	0.603476	0.283897
	H15	H	0.167261	0.408100	0.282542
	H16	H	0.402825	0.719233	0.831990
	H17	H	0.601914	0.719383	0.159210
	H18	H	0.602264	0.290214	0.830842
	H19	H	0.403114	0.289590	0.159310
	H20	H	0.719657	0.842246	0.395139
	H21	H	0.715668	0.169325	0.593774
	H22	H	0.289377	0.841418	0.593865
	H23	H	0.289256	0.168947	0.398214
	H24	H	0.905611	0.342073	0.210044
	H25	H	0.099750	0.669198	0.209063
	H26	H	0.101658	0.341481	0.781765
	H27	H	0.904175	0.669032	0.780891
	H28	H	0.215748	0.908337	0.331712
	H29	H	0.215960	0.102960	0.660139
	H30	H	0.789328	0.103295	0.331741
	H31	H	0.788469	0.907366	0.660419
	H32	H	0.339492	0.219580	0.895791
	H33	H	0.667049	0.219160	0.095012
	H34	H	0.338593	0.790558	0.093863
	H35	H	0.666676	0.788322	0.896087
	H36	H	0.338349	0.907407	0.208508
	H37	H	0.667640	0.101450	0.208321
	H38	H	0.338371	0.101159	0.783968
	H39	H	0.667528	0.905599	0.781476
	H40	H	0.902675	0.220678	0.332047
	H41	H	0.101241	0.218919	0.660248
	H42	H	0.102968	0.790450	0.332576
	H43	H	0.903402	0.790856	0.660191
	H44	H	0.218590	0.342117	0.896548
	H45	H	0.216784	0.668287	0.093954
	H46	H	0.789524	0.341708	0.093849
	H47	H	0.787634	0.668922	0.897071
	H48	H	0.409808	0.125097	0.602698
	H49	H	0.601633	0.885148	0.592633
	H50	H	0.600808	0.120693	0.406997
	H51	H	0.404640	0.886644	0.401533
	H52	H	0.592724	0.408158	0.112746
	H53	H	0.591479	0.597944	0.878514
	H54	H	0.408776	0.600824	0.114218
	H55	H	0.405754	0.411810	0.877002
	H56	H	0.123362	0.607294	0.400156
	H57	H	0.886199	0.598537	0.588876
	H58	H	0.123194	0.410761	0.599631
	H59	H	0.882484	0.407624	0.398654
	H60	H	0.121169	0.401500	0.581826
	H61	H	0.886373	0.599313	0.587899
	H62	H	0.116953	0.597129	0.412311
	H63	H	0.886544	0.410352	0.411267
	H64	H	0.406787	0.596028	0.113500
	H65	H	0.597308	0.599562	0.877299
	H66	H	0.597345	0.410264	0.113288
	H67	H	0.412415	0.414747	0.879844
	H68	H	0.597286	0.123470	0.395307
	H69	H	0.589025	0.890567	0.590174
	H70	H	0.421049	0.116481	0.583105
	H71	H	0.412683	0.887291	0.397519
	H72	H	0.902980	0.625186	0.094102
	H73	H	0.090357	0.388182	0.095575
	H74	H	0.084433	0.618091	0.905089
	H75	H	0.906364	0.386867	0.899279
	H76	H	0.087186	0.911458	0.612285
	H77	H	0.098526	0.099745	0.377072
	H78	H	0.909247	0.104430	0.615507
	H79	H	0.914516	0.918900	0.381782
	H80	H	0.624205	0.095370	0.891180
	H81	H	0.384471	0.104509	0.085143
	H82	H	0.616819	0.914851	0.080193
	H83	H	0.383566	0.902286	0.905168
	H84	H	0.621496	0.915099	0.095717
	H85	H	0.388485	0.092360	0.084014
	H86	H	0.622226	0.108312	0.906363
	H87	H	0.389234	0.917074	0.908466
	H88	H	0.904944	0.094858	0.613521
	H89	H	0.095718	0.095472	0.379044
	H90	H	0.100171	0.903575	0.618212
	H91	H	0.915158	0.907858	0.378332
	H92	H	0.105642	0.622105	0.911877
	H93	H	0.092901	0.391551	0.081754
	H94	H	0.912417	0.621990	0.092912
	H95	H	0.916738	0.390498	0.901140
	H96	H	0.397124	0.122916	0.582187
	H97	H	0.598096	0.890528	0.580091
	H98	H	0.589127	0.119181	0.403252
	H99	H	0.411661	0.889725	0.406502
	H100	H	0.593662	0.413997	0.111989
	H101	H	0.595864	0.593403	0.878018
	H102	H	0.412496	0.596224	0.112260
	H103	H	0.412109	0.407724	0.877395
	H104	H	0.120043	0.590817	0.396287
	H105	H	0.885907	0.598265	0.587397
	H106	H	0.115904	0.420710	0.583761
	H107	H	0.887273	0.419838	0.402380
	H108	H	0.906059	0.621657	0.085032
	H109	H	0.103482	0.386523	0.090087
	H110	H	0.099083	0.626175	0.890295
	H111	H	0.909001	0.391111	0.909232
	H112	H	0.101504	0.919084	0.613278
	H113	H	0.093004	0.100293	0.378707
	H114	H	0.915110	0.096541	0.611531
	H115	H	0.905846	0.913279	0.378033
	H116	H	0.616399	0.088722	0.909248
	H117	H	0.383616	0.096747	0.094710
	H118	H	0.622978	0.902187	0.087566
	H119	H	0.383610	0.913684	0.893715
	C120	C	0.381311	0.013364	0.617458
	C121	C	0.624608	0.996887	0.617125
	C122	C	0.624735	0.013065	0.373244
	C123	C	0.380977	0.996033	0.373571
	C124	C	0.624249	0.382622	0.004131
	C125	C	0.623116	0.625186	0.986988
	C126	C	0.380993	0.626154	0.004686
	C127	C	0.381316	0.383215	0.986911
	C128	C	0.011447	0.627388	0.374764
	C129	C	0.994534	0.626814	0.616855
	C130	C	0.011467	0.383334	0.617551
	C131	C	0.994069	0.383874	0.374817
	C132	C	0.879994	0.514415	0.118433
	C133	C	0.123970	0.496924	0.117422
	C134	C	0.124834	0.513861	0.873944
	C135	C	0.881674	0.497323	0.874334
	C136	C	0.124659	0.883393	0.505322
	C137	C	0.123715	0.126335	0.487249
	C138	C	0.881283	0.127442	0.504792
	C139	C	0.881975	0.884250	0.487678
	C140	C	0.512031	0.125899	0.873902
	C141	C	0.494407	0.126057	0.116560
	C142	C	0.511640	0.882588	0.116645
	C143	C	0.494271	0.882209	0.873630
	C144	C	0.384177	0.890136	0.672543
	C145	C	0.621812	0.119428	0.672882
	C146	C	0.622397	0.889881	0.318749
	C147	C	0.383740	0.119498	0.318979
	C148	C	0.680313	0.385157	0.880628
	C149	C	0.677132	0.622201	0.111244
	C150	C	0.326402	0.623456	0.880708
	C151	C	0.326852	0.386483	0.111129
	C152	C	0.888082	0.683182	0.377156
	C153	C	0.118409	0.681331	0.614782
	C154	C	0.887907	0.328435	0.616301
	C155	C	0.117567	0.328496	0.376309
	C156	C	0.887817	0.386685	0.672903
	C157	C	0.118638	0.623392	0.671392
	C158	C	0.887199	0.624772	0.320725
	C159	C	0.117942	0.386857	0.319591
	C160	C	0.382820	0.681227	0.880964
	C161	C	0.621326	0.680636	0.110596
	C162	C	0.622728	0.327597	0.880351
	C163	C	0.383100	0.327724	0.110378
	C164	C	0.680720	0.890658	0.375586
	C165	C	0.678727	0.120048	0.614589
	C166	C	0.326900	0.890051	0.614618
	C167	C	0.326281	0.119617	0.377107
	C168	C	0.883963	0.390981	0.172841
	C169	C	0.120797	0.620112	0.171729
	C170	C	0.122206	0.390548	0.819001
	C171	C	0.883816	0.620348	0.819045
	C172	C	0.179059	0.886870	0.381109
	C173	C	0.178697	0.123690	0.610938
	C174	C	0.826592	0.124370	0.380824
	C175	C	0.826319	0.886783	0.611315
	C176	C	0.388543	0.181580	0.875963
	C177	C	0.618025	0.181098	0.114940
	C178	C	0.387747	0.828342	0.114003
	C179	C	0.617722	0.826547	0.875574
	C180	C	0.387673	0.885986	0.171339
	C181	C	0.618375	0.122758	0.171442
	C182	C	0.387731	0.122609	0.820509
	C183	C	0.618173	0.884852	0.818829
	C184	C	0.882881	0.182639	0.381146
	C185	C	0.121919	0.181518	0.610873
	C186	C	0.122575	0.828806	0.381382
	C187	C	0.883298	0.828934	0.611320
	C188	C	0.179876	0.390522	0.876343
	C189	C	0.178782	0.619749	0.114291
	C190	C	0.826493	0.390812	0.115036
	C191	C	0.825759	0.620237	0.876622
	C192	C	0.403022	0.099110	0.595699
	C193	C	0.602696	0.910861	0.594501
	C194	C	0.602427	0.098906	0.395416
	C195	C	0.402984	0.910296	0.395473
	C196	C	0.601397	0.404525	0.090375
	C197	C	0.601285	0.603406	0.900579
	C198	C	0.403017	0.604183	0.091072
	C199	C	0.403637	0.404952	0.900326
	C200	C	0.097795	0.604979	0.396608
	C201	C	0.908464	0.605187	0.594481
	C202	C	0.097738	0.404796	0.595221
	C203	C	0.907726	0.405985	0.397395
	C204	C	0.901108	0.600760	0.096934
	C205	C	0.102163	0.410846	0.095549
	C206	C	0.102847	0.599781	0.895859
	C207	C	0.904118	0.411620	0.896628
	C208	C	0.102634	0.904933	0.592051
	C209	C	0.102048	0.104810	0.400671
	C210	C	0.903293	0.105256	0.591232
	C211	C	0.905054	0.906617	0.401742
	C212	C	0.598689	0.103982	0.895814
	C213	C	0.407838	0.104470	0.094415
	C214	C	0.598181	0.904103	0.094290
	C215	C	0.407729	0.904415	0.895867
	Zn216	Zn	0.502927	0.004683	0.745889
	Zn217	Zn	0.503158	0.004409	0.244448
	Zn218	Zn	0.752030	0.505318	-0.003959
	Zn219	Zn	0.253296	0.505109	-0.004260
	Zn220	Zn	0.003326	0.755576	0.496632
	Zn221	Zn	0.002470	0.254817	0.496119
	Zn222	Zn	0.003517	0.505632	0.745014
	Zn223	Zn	0.002073	0.505687	0.246530
	Zn224	Zn	0.502742	0.753797	-0.004322
	Zn225	Zn	0.503002	0.254037	-0.004751
	Zn226	Zn	0.753574	0.005692	0.495605
	Zn227	Zn	0.252333	0.004809	0.496260
	N228	N	0.417443	0.967641	0.674266
	N229	N	0.589132	0.041580	0.674631
	N230	N	0.588271	0.967184	0.317079
	N231	N	0.417050	0.041912	0.316627
	N232	N	0.681292	0.418694	0.958637
	N233	N	0.678269	0.588426	0.033472
	N234	N	0.325157	0.590004	0.958681
	N235	N	0.325815	0.420326	0.033385
	N236	N	0.966394	0.685064	0.409811
	N237	N	0.040292	0.683596	0.581516
	N238	N	0.965732	0.326219	0.582624
	N239	N	0.039600	0.326379	0.409762
	N240	N	0.965708	0.420225	0.673662
	N241	N	0.040779	0.590032	0.672642
	N242	N	0.964866	0.590680	0.319102
	N243	N	0.040101	0.420797	0.318790
	N244	N	0.416198	0.683147	0.958922
	N245	N	0.588404	0.682453	0.032409
	N246	N	0.588585	0.325969	0.958049
	N247	N	0.416361	0.325562	0.032191
	N248	N	0.682307	0.968328	0.408726
	N249	N	0.680286	0.042863	0.580347
	N250	N	0.324881	0.967614	0.581356
	N251	N	0.324380	0.041931	0.410249
	N252	N	0.916369	0.468916	0.175254
	N253	N	0.087284	0.542699	0.173550
	N254	N	0.088630	0.468209	0.817322
	N255	N	0.917920	0.543026	0.817591
	N256	N	0.180282	0.920127	0.459083
	N257	N	0.179869	0.089828	0.533046
	N258	N	0.825648	0.090672	0.458607
	N259	N	0.825390	0.920554	0.533521
	N260	N	0.466951	0.183609	0.908555
	N261	N	0.539972	0.183216	0.081711
	N262	N	0.465740	0.826276	0.080682
	N263	N	0.539634	0.824665	0.908821
	N264	N	0.465633	0.919254	0.172917
	N265	N	0.540415	0.089268	0.172508
	N266	N	0.465445	0.088804	0.819168
	N267	N	0.540373	0.918862	0.817670
	N268	N	0.916018	0.184632	0.459366
	N269	N	0.088518	0.183275	0.533021
	N270	N	0.089477	0.826534	0.459720
	N271	N	0.917057	0.827206	0.533505
	N272	N	0.181863	0.468144	0.909657
	N273	N	0.180746	0.542131	0.081162
	N274	N	0.823989	0.468514	0.082140
	N275	N	0.824080	0.542726	0.910143
	O276	O	-0.506260	-0.521178	1.459886
	H277	H	-0.501286	-0.519118	1.463900
	H278	H	-0.506551	-0.515286	1.456360
	O279	O	0.473405	0.511035	0.462239
	H280	H	0.470490	0.506313	0.455370
	H281	H	0.478033	0.507575	0.463763
	O282	O	0.605629	0.499218	0.492790
	H283	H	0.612657	0.505456	0.503427
	H284	H	0.609483	0.496343	0.488930
	O285	O	0.553470	0.491565	0.511047
	H286	H	0.549899	0.485384	0.515486
	H287	H	0.560154	0.490110	0.515371
	O288	O	0.510138	0.505008	0.512417
	H289	H	0.510564	0.508695	0.511338
	H290	H	0.514572	0.501824	0.504267
	O291	O	-0.003414	1.024127	0.981558
	H292	H	-0.002000	1.024076	0.980468
	H293	H	-0.005279	1.028191	0.982548
	O294	O	0.565084	0.524372	0.521433
	H295	H	0.557189	0.523911	0.514481
	H296	H	0.553379	0.523235	0.522412
	O297	O	1.036207	0.026430	-0.002001
	H298	H	1.037166	0.027928	-0.000398
	H299	H	1.036069	0.026578	-0.001696
