data_Molecule from HDF5

_cell_length_a		16.221553
_cell_length_b		16.113529
_cell_length_c		16.280648
_cell_angle_alpha	88.712031
_cell_angle_beta	88.865201
_cell_angle_gamma	91.137079
_symmetry_space_group_name_H-M	'P 1'
_symmetry_Int_Tables_number		1

loop_
	_symmetry_equiv_pos_as_xyz
	x,y,z

loop_
	_atom_site_label
	_atom_site_type_symbol
	_atom_site_fract_x
	_atom_site_fract_y
	_atom_site_fract_z
	H0	H	0.383514	0.848444	0.710527
	H1	H	0.594002	0.175767	0.690238
	H2	H	0.593025	0.846154	0.269874
	H3	H	0.394534	0.173273	0.265404
	H4	H	0.713008	0.417296	0.823388
	H5	H	0.708987	0.609730	0.149644
	H6	H	0.283715	0.616279	0.822041
	H7	H	0.271763	0.404386	0.147734
	H8	H	0.827665	0.722316	0.389538
	H9	H	0.157553	0.725028	0.575249
	H10	H	0.831748	0.287260	0.593688
	H11	H	0.158883	0.302941	0.384559
	H12	H	0.831883	0.400967	0.709323
	H13	H	0.157334	0.614231	0.693688
	H14	H	0.829032	0.611241	0.270065
	H15	H	0.156073	0.415834	0.265535
	H16	H	0.402990	0.728926	0.821983
	H17	H	0.592234	0.724463	0.150358
	H18	H	0.594333	0.304809	0.819965
	H19	H	0.386224	0.286905	0.147170
	H20	H	0.704821	0.843757	0.386869
	H21	H	0.711389	0.172145	0.580773
	H22	H	0.275338	0.844758	0.590768
	H23	H	0.283366	0.173677	0.383179
	H24	H	0.884688	0.348070	0.207954
	H25	H	0.093552	0.677009	0.191367
	H26	H	0.094479	0.346434	0.771430
	H27	H	0.900436	0.674701	0.767269
	H28	H	0.211088	0.913388	0.324181
	H29	H	0.208612	0.106628	0.649259
	H30	H	0.782357	0.112820	0.322025
	H31	H	0.770010	0.900715	0.648052
	H32	H	0.329712	0.227913	0.883787
	H33	H	0.657688	0.225814	0.075663
	H34	H	0.330599	0.790385	0.089873
	H35	H	0.660016	0.806960	0.886430
	H36	H	0.330646	0.901645	0.206916
	H37	H	0.655822	0.116013	0.195788
	H38	H	0.329203	0.112153	0.769972
	H39	H	0.656445	0.918438	0.766557
	H40	H	0.899286	0.229337	0.323127
	H41	H	0.094432	0.223974	0.649534
	H42	H	0.090382	0.805797	0.320275
	H43	H	0.888562	0.789005	0.649049
	H44	H	0.208324	0.346916	0.885966
	H45	H	0.210358	0.675599	0.079559
	H46	H	0.773385	0.347125	0.091396
	H47	H	0.787393	0.676880	0.885321
	H48	H	0.412694	0.126947	0.578008
	H49	H	0.588852	0.888497	0.577018
	H50	H	0.597361	0.129743	0.387980
	H51	H	0.397075	0.889846	0.395635
	H52	H	0.579702	0.414001	0.102193
	H53	H	0.596779	0.606904	0.868936
	H54	H	0.397255	0.592253	0.100755
	H55	H	0.399548	0.420550	0.866953
	H56	H	0.111052	0.609674	0.386307
	H57	H	0.877194	0.590028	0.582847
	H58	H	0.109720	0.422629	0.575534
	H59	H	0.873989	0.419438	0.390891
	H60	H	0.112340	0.420841	0.579832
	H61	H	0.872356	0.602479	0.585101
	H62	H	0.109859	0.608131	0.386590
	H63	H	0.876701	0.411509	0.403856
	H64	H	0.406922	0.599647	0.100771
	H65	H	0.588298	0.610120	0.870497
	H66	H	0.584489	0.417429	0.102349
	H67	H	0.403251	0.424851	0.869151
	H68	H	0.582011	0.127002	0.381656
	H69	H	0.574349	0.889454	0.589739
	H70	H	0.396750	0.126573	0.564368
	H71	H	0.403330	0.892289	0.394565
	H72	H	0.896982	0.632499	0.078846
	H73	H	0.080413	0.391310	0.084808
	H74	H	0.094279	0.630012	0.889834
	H75	H	0.904602	0.393046	0.897138
	H76	H	0.075703	0.911530	0.603022
	H77	H	0.088085	0.097356	0.373329
	H78	H	0.899149	0.089567	0.600921
	H79	H	0.907770	0.901090	0.365809
	H80	H	0.611879	0.109040	0.881927
	H81	H	0.375577	0.099524	0.075735
	H82	H	0.609897	0.923310	0.072843
	H83	H	0.375172	0.928421	0.886475
	H84	H	0.611964	0.923282	0.082324
	H85	H	0.377452	0.094650	0.074071
	H86	H	0.610894	0.111678	0.886578
	H87	H	0.372337	0.904257	0.896384
	H88	H	0.904668	0.097670	0.600929
	H89	H	0.084043	0.112049	0.369979
	H90	H	0.087540	0.908300	0.606530
	H91	H	0.880019	0.919290	0.363402
	H92	H	0.089477	0.630127	0.881543
	H93	H	0.072437	0.396163	0.075325
	H94	H	0.907406	0.628410	0.080135
	H95	H	0.898990	0.393368	0.902683
	H96	H	0.394145	0.133401	0.584217
	H97	H	0.571289	0.895656	0.572010
	H98	H	0.585522	0.123425	0.397920
	H99	H	0.400507	0.893417	0.401609
	H100	H	0.579135	0.419487	0.100493
	H101	H	0.595447	0.615248	0.867414
	H102	H	0.396441	0.602932	0.105473
	H103	H	0.404919	0.419307	0.868992
	H104	H	0.111349	0.609016	0.384181
	H105	H	0.877080	0.599843	0.572720
	H106	H	0.111471	0.417180	0.576123
	H107	H	0.880640	0.425010	0.401478
	H108	H	0.901512	0.628614	0.071293
	H109	H	0.084311	0.394260	0.072527
	H110	H	0.085785	0.627560	0.890270
	H111	H	0.897102	0.391112	0.896081
	H112	H	0.084505	0.921331	0.602468
	H113	H	0.098177	0.108867	0.366988
	H114	H	0.895440	0.098737	0.604041
	H115	H	0.908517	0.933252	0.375087
	H116	H	0.609566	0.106654	0.887405
	H117	H	0.376347	0.095500	0.080132
	H118	H	0.612910	0.915618	0.077602
	H119	H	0.381860	0.922687	0.910227
	C120	C	0.369767	0.019734	0.608270
	C121	C	0.610589	1.000254	0.604690
	C122	C	0.615729	0.018034	0.361978
	C123	C	0.372858	1.000278	0.365045
	C124	C	0.613459	0.391271	-0.006035
	C125	C	0.619391	0.636154	0.977530
	C126	C	0.374237	0.631151	-0.005998
	C127	C	0.370143	0.388009	0.975997
	C128	C	0.001631	0.635184	0.360167
	C129	C	0.984307	0.629517	0.605205
	C130	C	0.003467	0.386841	0.610047
	C131	C	0.985005	0.391606	0.366212
	C132	C	0.869647	0.520978	0.108893
	C133	C	0.111590	0.502673	0.104274
	C134	C	0.117722	0.520221	0.860787
	C135	C	0.874690	0.501816	0.866673
	C136	C	0.112765	0.889012	0.494820
	C137	C	0.118076	0.133269	0.477805
	C138	C	0.873039	0.128793	0.494348
	C139	C	0.868095	0.885300	0.476220
	C140	C	0.501986	0.136271	0.859303
	C141	C	0.484520	0.129471	0.103621
	C142	C	0.503299	0.887649	0.109077
	C143	C	0.485002	0.892658	0.865940
	C144	C	0.366280	0.896950	0.669737
	C145	C	0.612597	0.125536	0.655146
	C146	C	0.613004	0.894956	0.307549
	C147	C	0.375529	0.124207	0.305687
	C148	C	0.673053	0.396120	0.871531
	C149	C	0.672060	0.630928	0.100800
	C150	C	0.321427	0.634036	0.870876
	C151	C	0.310704	0.385187	0.098623
	C152	C	0.877391	0.687097	0.366741
	C153	C	0.108245	0.686927	0.598020
	C154	C	0.880747	0.326789	0.611959
	C155	C	0.109291	0.339233	0.365292
	C156	C	0.880814	0.383633	0.669598
	C157	C	0.108177	0.631508	0.656683
	C158	C	0.877976	0.631518	0.307449
	C159	C	0.107719	0.395176	0.305789
	C160	C	0.380916	0.690092	0.870858
	C161	C	0.614494	0.688567	0.100859
	C162	C	0.614129	0.340297	0.869892
	C163	C	0.367953	0.326992	0.098357
	C164	C	0.668797	0.893726	0.365767
	C165	C	0.671088	0.123754	0.600733
	C166	C	0.312282	0.895049	0.610205
	C167	C	0.319885	0.124480	0.364079
	C168	C	0.867092	0.397264	0.168423
	C169	C	0.113137	0.627076	0.156057
	C170	C	0.114586	0.395874	0.808294
	C171	C	0.879197	0.625814	0.807102
	C172	C	0.171393	0.893369	0.372476
	C173	C	0.171688	0.128472	0.600546
	C174	C	0.819675	0.131397	0.371276
	C175	C	0.809378	0.882765	0.599279
	C176	C	0.378779	0.190548	0.863175
	C177	C	0.608300	0.187744	0.098094
	C178	C	0.379727	0.828678	0.109266
	C179	C	0.609845	0.841934	0.866374
	C180	C	0.379742	0.884109	0.167707
	C181	C	0.607238	0.132798	0.157886
	C182	C	0.378476	0.133004	0.806538
	C183	C	0.607976	0.897194	0.806342
	C184	C	0.877891	0.189433	0.371790
	C185	C	0.114668	0.186775	0.600486
	C186	C	0.110942	0.839857	0.370423
	C187	C	0.868349	0.827195	0.599714
	C188	C	0.171475	0.396271	0.865363
	C189	C	0.171241	0.626432	0.100313
	C190	C	0.811788	0.396545	0.110436
	C191	C	0.823210	0.626917	0.865813
	C192	C	0.394088	0.106367	0.582843
	C193	C	0.585318	0.913698	0.585154
	C194	C	0.594639	0.104335	0.382948
	C195	C	0.393899	0.914085	0.390093
	C196	C	0.588449	0.411164	0.079445
	C197	C	0.599546	0.616560	0.891368
	C198	C	0.394451	0.605643	0.080036
	C199	C	0.395259	0.414022	0.890639
	C200	C	0.088082	0.615022	0.379694
	C201	C	0.897833	0.604570	0.586013
	C202	C	0.089073	0.412799	0.584567
	C203	C	0.899303	0.412524	0.391408
	C204	C	0.894704	0.607553	0.084061
	C205	C	0.086179	0.416325	0.083645
	C206	C	0.096364	0.606823	0.881117
	C207	C	0.894418	0.415013	0.891484
	C208	C	0.089432	0.908191	0.581523
	C209	C	0.096662	0.112273	0.392121
	C210	C	0.893771	0.102986	0.579738
	C211	C	0.892008	0.910430	0.390326
	C212	C	0.588341	0.115327	0.879313
	C213	C	0.398704	0.103966	0.082946
	C214	C	0.589247	0.913257	0.084793
	C215	C	0.398799	0.912602	0.890403
	Zn216	Zn	0.491736	0.012493	0.733569
	Zn217	Zn	0.493388	0.009839	0.234975
	Zn218	Zn	0.744896	0.511340	-0.013031
	Zn219	Zn	0.242735	0.511048	-0.015610
	Zn220	Zn	-0.007853	0.760190	0.485089
	Zn221	Zn	-0.004762	0.260628	0.487005
	Zn222	Zn	-0.005342	0.509715	0.735677
	Zn223	Zn	-0.007583	0.511806	0.234047
	Zn224	Zn	0.495412	0.762023	-0.013132
	Zn225	Zn	0.492900	0.260720	-0.016694
	Zn226	Zn	0.740827	0.007604	0.485288
	Zn227	Zn	0.244235	0.009258	0.486815
	N228	N	0.401293	0.975410	0.668555
	N229	N	0.575481	0.047771	0.657868
	N230	N	0.580739	0.973221	0.304900
	N231	N	0.407728	0.045990	0.306145
	N232	N	0.672804	0.426894	0.949701
	N233	N	0.675557	0.599327	0.022834
	N234	N	0.317359	0.597727	0.948318
	N235	N	0.311774	0.422247	0.021474
	N236	N	0.955249	0.689823	0.398588
	N237	N	0.030210	0.685773	0.566772
	N238	N	0.958162	0.328546	0.575667
	N239	N	0.032103	0.336919	0.402272
	N240	N	0.958320	0.420207	0.668620
	N241	N	0.030016	0.596241	0.661240
	N242	N	0.956262	0.600094	0.303076
	N243	N	0.029510	0.426958	0.306256
	N244	N	0.412848	0.688574	0.948543
	N245	N	0.582747	0.692279	0.023209
	N246	N	0.577693	0.336981	0.947022
	N247	N	0.404138	0.328464	0.020936
	N248	N	0.671003	0.971554	0.398624
	N249	N	0.669917	0.044896	0.570222
	N250	N	0.314264	0.972578	0.572526
	N251	N	0.318029	0.046472	0.400571
	N252	N	0.902462	0.475810	0.167709
	N253	N	0.076653	0.549110	0.158682
	N254	N	0.081970	0.474012	0.805120
	N255	N	0.910361	0.546996	0.807440
	N256	N	0.172418	0.923438	0.450867
	N257	N	0.174091	0.096089	0.522989
	N258	N	0.816522	0.094242	0.448357
	N259	N	0.809049	0.918360	0.521572
	N260	N	0.456665	0.193011	0.894917
	N261	N	0.530759	0.185919	0.065028
	N262	N	0.457462	0.830458	0.073750
	N263	N	0.532389	0.838765	0.902717
	N264	N	0.457590	0.919967	0.167947
	N265	N	0.529354	0.097284	0.161482
	N266	N	0.456268	0.100207	0.803652
	N267	N	0.529443	0.928119	0.806063
	N268	N	0.910404	0.188003	0.449272
	N269	N	0.081987	0.189621	0.523192
	N270	N	0.075212	0.836755	0.447822
	N271	N	0.904092	0.828439	0.522083
	N272	N	0.173577	0.474531	0.897262
	N273	N	0.170252	0.547918	0.068742
	N274	N	0.813016	0.474590	0.074402
	N275	N	0.820168	0.548849	0.902199
	O276	O	1.050161	0.005841	0.992188
	H277	H	1.052980	0.019895	0.992166
	H278	H	1.052296	0.002183	0.995653
	O279	O	0.508362	0.483697	0.579307
	H280	H	0.493559	0.483567	0.579069
	H281	H	0.502235	0.483464	0.566581
	O282	O	0.655751	0.527167	0.459376
	H283	H	0.654018	0.544480	0.480073
	H284	H	0.660296	0.540126	0.467758
	O285	O	0.399750	0.376718	0.557599
	H286	H	0.414432	0.373220	0.537633
	H287	H	0.415159	0.358333	0.553498
	O288	O	0.637895	0.377100	0.414641
	H289	H	0.643882	0.372913	0.406706
	H290	H	0.648522	0.384252	0.403452
	O291	O	0.357009	-0.612320	1.499403
	H292	H	0.348430	-0.611522	1.491911
	H293	H	0.370595	-0.615343	1.491167
	O294	O	0.951156	0.910152	-0.033378
	H295	H	0.955389	0.916818	-0.039873
	H296	H	0.936215	0.901414	-0.029414
	O297	O	0.861023	1.101468	-0.089895
	H298	H	0.861683	1.096317	-0.085035
	H299	H	0.859592	1.104867	-0.102772
	O300	O	0.421665	0.613191	0.499901
	H301	H	0.412330	0.599504	0.494053
	H302	H	0.405295	0.616602	0.486925
	O303	O	0.597320	0.527257	0.367428
	H304	H	0.597207	0.544546	0.352526
	H305	H	0.606320	0.534305	0.370272
	O306	O	0.488688	0.541958	0.430785
	H307	H	0.483078	0.553641	0.422605
	H308	H	0.486299	0.548998	0.440518
	O309	O	0.474867	0.545501	0.412278
	H310	H	0.474097	0.542965	0.418958
	H311	H	0.465719	0.531135	0.411421
	O312	O	0.992851	1.084025	0.955186
	H313	H	0.997843	1.094272	0.960126
	H314	H	0.996563	1.084204	0.954098
	O315	O	0.961383	0.979577	0.062902
	H316	H	0.962587	0.986005	0.062926
	H317	H	0.961039	0.977352	0.056395
	O318	O	0.051336	0.095548	1.051631
	H319	H	0.046469	0.095492	1.060432
	H320	H	0.059508	0.101951	1.048620
	O321	O	0.521334	0.379104	0.571738
	H322	H	0.516845	0.357003	0.593851
	H323	H	0.534692	0.394642	0.580120
	O324	O	-0.005178	1.004686	0.973447
	H325	H	-0.005699	0.993281	0.978124
	H326	H	-0.006836	1.006281	0.964416
	O327	O	0.024788	1.044658	1.051453
	H328	H	0.028421	1.041444	1.071473
	H329	H	0.044015	1.037813	1.049989
	O330	O	-0.112490	0.083381	-0.053503
	H331	H	-0.113633	0.082729	-0.046292
	H332	H	-0.117688	0.087596	-0.068847
	O333	O	0.523794	0.340359	0.473001
	H334	H	0.520272	0.327703	0.484712
	H335	H	0.538566	0.351466	0.470772
	O336	O	0.102472	0.031012	-0.075535
	H337	H	0.101468	0.026001	-0.068971
	H338	H	0.103017	0.034324	-0.072944
	O339	O	0.073551	0.074147	0.008618
	H340	H	0.068571	0.063558	0.009529
	H341	H	0.070341	0.065308	0.011016
	O342	O	0.450112	0.673184	0.397954
	H343	H	0.442179	0.690451	0.389231
	H344	H	0.444228	0.655334	0.389225
	O345	O	0.018676	1.004892	1.046725
	H346	H	0.008599	0.995160	1.051521
	H347	H	0.017004	1.026106	1.041179
	O348	O	0.027598	-0.103680	1.074883
	H349	H	0.026316	-0.095951	1.089269
	H350	H	0.030267	-0.102734	1.084995
	O351	O	0.435286	0.481296	0.578796
	H352	H	0.424951	0.476376	0.609505
	H353	H	0.438957	0.462790	0.564775
	O354	O	0.089986	0.946553	-0.027125
	H355	H	0.090861	0.936680	-0.024941
	H356	H	0.079210	0.944499	-0.035415
	O357	O	0.382029	0.571905	0.508655
	H358	H	0.365760	0.563356	0.504116
	H359	H	0.389908	0.560035	0.515234
	O360	O	1.599900	-0.460478	1.628923
	H361	H	1.594191	-0.439061	1.626714
	H362	H	1.608514	-0.446955	1.644477
	O363	O	0.390066	0.543374	0.364521
	H364	H	0.410845	0.536754	0.358881
	H365	H	0.383677	0.543025	0.369262
	O366	O	0.466377	0.460916	0.555186
	H367	H	0.471976	0.451592	0.549740
	H368	H	0.467071	0.454927	0.557396
	O369	O	1.044207	0.083509	0.035298
	H370	H	1.048157	0.079225	0.043045
	H371	H	1.038611	0.073591	0.036431
	O372	O	0.387401	0.445943	0.505133
	H373	H	0.379806	0.432293	0.509511
	H374	H	0.385768	0.437413	0.508179
	O375	O	0.871723	-0.062222	1.110048
	H376	H	0.867279	-0.061121	1.116720
	H377	H	0.876152	-0.068361	1.104934
	O378	O	-0.085502	1.024121	-0.133784
	H379	H	-0.082719	1.038056	-0.123379
	H380	H	-0.082919	1.032878	-0.144832
	O381	O	0.589128	0.646054	0.602445
	H382	H	0.582143	0.641893	0.613896
	H383	H	0.569316	0.650925	0.603972
	O384	O	0.950658	0.941963	-0.001257
	H385	H	0.957994	0.941591	-0.003092
	H386	H	0.941738	0.920808	0.004748
	O387	O	1.446865	0.425358	1.331411
	H388	H	1.452465	0.422938	1.327032
	H389	H	1.459695	0.414771	1.330696
	O390	O	0.946422	1.003201	0.061477
	H391	H	0.941077	1.009114	0.063843
	H392	H	0.929898	0.992787	0.063065
	O393	O	0.613452	0.636042	0.535334
	H394	H	0.622012	0.640133	0.542908
	H395	H	0.596973	0.649876	0.545693
