data_Molecule from HDF5

_cell_length_a		16.503887
_cell_length_b		16.451076
_cell_length_c		16.453014
_cell_angle_alpha	90.055146
_cell_angle_beta	89.869572
_cell_angle_gamma	90.050477
_symmetry_space_group_name_H-M	'P 1'
_symmetry_Int_Tables_number		1

loop_
	_symmetry_equiv_pos_as_xyz
	x,y,z

loop_
	_atom_site_label
	_atom_site_type_symbol
	_atom_site_fract_x
	_atom_site_fract_y
	_atom_site_fract_z
	H0	H	0.419079	0.846140	0.722804
	H1	H	0.625064	0.164778	0.725165
	H2	H	0.626915	0.847901	0.282235
	H3	H	0.418618	0.164766	0.285655
	H4	H	0.743442	0.400762	0.846767
	H5	H	0.740838	0.611005	0.162707
	H6	H	0.297995	0.613395	0.847870
	H7	H	0.301747	0.402438	0.162961
	H8	H	0.863806	0.729497	0.397552
	H9	H	0.178215	0.728836	0.610317
	H10	H	0.862235	0.286134	0.609528
	H11	H	0.177835	0.285797	0.400685
	H12	H	0.863327	0.400892	0.727564
	H13	H	0.177480	0.614038	0.727630
	H14	H	0.863276	0.610964	0.284055
	H15	H	0.177803	0.402656	0.284291
	H16	H	0.415638	0.727388	0.846597
	H17	H	0.624622	0.727140	0.162416
	H18	H	0.625230	0.286346	0.845249
	H19	H	0.418202	0.287350	0.162555
	H20	H	0.744103	0.848480	0.397401
	H21	H	0.741014	0.164426	0.608828
	H22	H	0.301047	0.848006	0.608528
	H23	H	0.301480	0.165026	0.401397
	H24	H	0.918514	0.347610	0.223330
	H25	H	0.123972	0.664219	0.225543
	H26	H	0.129269	0.348386	0.780678
	H27	H	0.916657	0.664884	0.783365
	H28	H	0.242037	0.902202	0.347995
	H29	H	0.243832	0.114304	0.662932
	H30	H	0.801112	0.110053	0.347031
	H31	H	0.795882	0.897784	0.662044
	H32	H	0.362078	0.226775	0.899895
	H33	H	0.678380	0.226816	0.107537
	H34	H	0.363294	0.785051	0.108946
	H35	H	0.678153	0.785288	0.898589
	H36	H	0.363034	0.901258	0.225588
	H37	H	0.678353	0.109906	0.223936
	H38	H	0.362259	0.109822	0.784919
	H39	H	0.679002	0.902787	0.784324
	H40	H	0.918594	0.225480	0.347088
	H41	H	0.126378	0.228286	0.664061
	H42	H	0.124007	0.787290	0.347322
	H43	H	0.912660	0.782667	0.661739
	H44	H	0.243775	0.348105	0.898012
	H45	H	0.241057	0.664062	0.108117
	H46	H	0.800771	0.348316	0.108567
	H47	H	0.799000	0.663978	0.898232
	H48	H	0.428835	0.120740	0.596781
	H49	H	0.610783	0.892886	0.592673
	H50	H	0.615308	0.118963	0.418053
	H51	H	0.432602	0.894270	0.418332
	H52	H	0.611435	0.417040	0.117736
	H53	H	0.614513	0.597454	0.889459
	H54	H	0.434885	0.602489	0.118128
	H55	H	0.435136	0.424048	0.894193
	H56	H	0.132799	0.590314	0.412011
	H57	H	0.908308	0.597702	0.593302
	H58	H	0.136294	0.411463	0.597046
	H59	H	0.906808	0.420173	0.412191
	H60	H	0.129789	0.417307	0.584304
	H61	H	0.910128	0.593004	0.589479
	H62	H	0.135808	0.601865	0.413219
	H63	H	0.905505	0.411200	0.415014
	H64	H	0.423979	0.592160	0.120134
	H65	H	0.611232	0.589722	0.893451
	H66	H	0.609640	0.416500	0.116587
	H67	H	0.436354	0.412841	0.890430
	H68	H	0.609566	0.119386	0.410884
	H69	H	0.609842	0.892631	0.595769
	H70	H	0.433752	0.119655	0.597284
	H71	H	0.427324	0.892427	0.416888
	H72	H	0.932700	0.620020	0.094106
	H73	H	0.109182	0.393915	0.092294
	H74	H	0.105633	0.617826	0.911580
	H75	H	0.933105	0.394141	0.915481
	H76	H	0.113737	0.918421	0.619724
	H77	H	0.116240	0.090248	0.392869
	H78	H	0.925111	0.093758	0.620305
	H79	H	0.937179	0.917327	0.394765
	H80	H	0.635972	0.098974	0.910711
	H81	H	0.408319	0.097004	0.090297
	H82	H	0.632388	0.913355	0.089703
	H83	H	0.406159	0.916985	0.911803
	H84	H	0.631899	0.920317	0.092387
	H85	H	0.407556	0.091991	0.097359
	H86	H	0.631470	0.098525	0.921316
	H87	H	0.406600	0.913532	0.915705
	H88	H	0.933902	0.090746	0.616941
	H89	H	0.103532	0.095033	0.395026
	H90	H	0.107642	0.922475	0.616236
	H91	H	0.929896	0.915830	0.391468
	H92	H	0.108464	0.615089	0.922685
	H93	H	0.114065	0.391342	0.094186
	H94	H	0.929485	0.620037	0.093265
	H95	H	0.935031	0.395131	0.917954
	H96	H	0.431691	0.119505	0.592643
	H97	H	0.608085	0.893417	0.593233
	H98	H	0.606470	0.116850	0.418730
	H99	H	0.431516	0.892587	0.413028
	H100	H	0.610784	0.416029	0.117968
	H101	H	0.606098	0.597145	0.892011
	H102	H	0.437197	0.588846	0.112726
	H103	H	0.425994	0.417981	0.888953
	H104	H	0.130903	0.595910	0.422589
	H105	H	0.908919	0.591506	0.595757
	H106	H	0.131700	0.426031	0.596467
	H107	H	0.909413	0.416905	0.420827
	H108	H	0.930090	0.620345	0.096479
	H109	H	0.109411	0.392084	0.097627
	H110	H	0.115898	0.620588	0.915634
	H111	H	0.932456	0.394763	0.918495
	H112	H	0.106167	0.914762	0.618662
	H113	H	0.113202	0.102630	0.390247
	H114	H	0.932004	0.100412	0.618978
	H115	H	0.931642	0.923357	0.394186
	H116	H	0.630908	0.089516	0.914442
	H117	H	0.405185	0.100294	0.097342
	H118	H	0.634977	0.915496	0.096549
	H119	H	0.408323	0.917719	0.916422
	C120	C	0.399504	0.015054	0.627057
	C121	C	0.641601	0.997940	0.625713
	C122	C	0.642573	0.014132	0.383131
	C123	C	0.399577	0.997922	0.384272
	C124	C	0.642719	0.384659	0.012824
	C125	C	0.642487	0.627505	0.995745
	C126	C	0.399792	0.627159	0.012919
	C127	C	0.400143	0.385930	0.995583
	C128	C	0.029177	0.628337	0.383417
	C129	C	1.012635	0.627783	0.625756
	C130	C	0.028813	0.385303	0.626525
	C131	C	1.011645	0.384691	0.384026
	C132	C	0.898830	0.515527	0.126434
	C133	C	0.142394	0.497191	0.126368
	C134	C	0.143159	0.514231	0.883042
	C135	C	0.900797	0.498456	0.884434
	C136	C	0.141068	0.886478	0.513910
	C137	C	0.142958	0.128571	0.497048
	C138	C	0.899566	0.126855	0.514094
	C139	C	0.898540	0.884715	0.496855
	C140	C	0.528991	0.128014	0.883137
	C141	C	0.511894	0.127781	0.126071
	C142	C	0.528948	0.884600	0.125468
	C143	C	0.511987	0.884596	0.882975
	C144	C	0.399440	0.894582	0.684399
	C145	C	0.643563	0.117122	0.685425
	C146	C	0.645438	0.895451	0.322289
	C147	C	0.399297	0.117308	0.325181
	C148	C	0.702993	0.382585	0.893884
	C149	C	0.701296	0.629403	0.115283
	C150	C	0.338442	0.630918	0.894864
	C151	C	0.341328	0.384224	0.115257
	C152	C	0.910897	0.688727	0.380228
	C153	C	0.130682	0.688971	0.628536
	C154	C	0.909993	0.325154	0.628903
	C155	C	0.130545	0.325436	0.382060
	C156	C	0.910414	0.382585	0.687255
	C157	C	0.130529	0.631557	0.686935
	C158	C	0.910621	0.629800	0.323625
	C159	C	0.130415	0.383430	0.324180
	C160	C	0.397150	0.687664	0.894332
	C161	C	0.643381	0.686940	0.114992
	C162	C	0.644245	0.325650	0.893145
	C163	C	0.399060	0.326795	0.115089
	C164	C	0.703609	0.895673	0.379778
	C165	C	0.701414	0.116950	0.627681
	C166	C	0.340556	0.895527	0.627716
	C167	C	0.340832	0.117430	0.382535
	C168	C	0.898687	0.395681	0.184730
	C169	C	0.143553	0.616787	0.185540
	C170	C	0.146517	0.395867	0.821487
	C171	C	0.898286	0.617377	0.823718
	C172	C	0.201164	0.884244	0.394801
	C173	C	0.203497	0.131687	0.615611
	C174	C	0.840736	0.128637	0.394578
	C175	C	0.836601	0.880516	0.614961
	C176	C	0.409628	0.187113	0.881659
	C177	C	0.630923	0.186758	0.126517
	C178	C	0.410349	0.824926	0.127548
	C179	C	0.630883	0.825118	0.880620
	C180	C	0.410331	0.882811	0.185414
	C181	C	0.630977	0.128677	0.184544
	C182	C	0.409897	0.129082	0.824089
	C183	C	0.631131	0.883502	0.823684
	C184	C	0.898985	0.186067	0.394645
	C185	C	0.144552	0.188401	0.616349
	C186	C	0.142790	0.827096	0.394551
	C187	C	0.894556	0.823080	0.614672
	C188	C	0.203731	0.395494	0.879950
	C189	C	0.201506	0.616636	0.127617
	C190	C	0.840350	0.395875	0.127395
	C191	C	0.839711	0.617122	0.880917
	C192	C	0.424213	0.098202	0.602536
	C193	C	0.616897	0.914578	0.600783
	C194	C	0.617437	0.096921	0.408577
	C195	C	0.423521	0.914737	0.409116
	C196	C	0.617914	0.409427	0.095987
	C197	C	0.617788	0.602060	0.913056
	C198	C	0.424879	0.601687	0.095463
	C199	C	0.425371	0.410932	0.912684
	C200	C	0.111579	0.603387	0.408706
	C201	C	0.930612	0.601587	0.600311
	C202	C	0.111133	0.410984	0.600288
	C203	C	0.928834	0.409178	0.408889
	C204	C	0.923597	0.598584	0.101552
	C205	C	0.117798	0.413973	0.101839
	C206	C	0.117364	0.596359	0.909052
	C207	C	0.926188	0.416141	0.910087
	C208	C	0.116249	0.911355	0.596788
	C209	C	0.118152	0.103202	0.414228
	C210	C	0.923577	0.101978	0.597202
	C211	C	0.925166	0.911249	0.414699
	C212	C	0.611383	0.102940	0.908196
	C213	C	0.428775	0.103349	0.102035
	C214	C	0.611635	0.909258	0.100166
	C215	C	0.428892	0.908901	0.907811
	Zn216	Zn	0.520714	0.006219	0.755013
	Zn217	Zn	0.520526	0.005441	0.254993
	Zn218	Zn	0.770817	0.506265	0.004152
	Zn219	Zn	0.271041	0.505852	0.004644
	Zn220	Zn	0.020472	0.756976	0.504697
	Zn221	Zn	0.020427	0.255988	0.505983
	Zn222	Zn	0.020930	0.506366	0.754988
	Zn223	Zn	0.020563	0.506513	0.255047
	Zn224	Zn	0.521019	0.755818	0.004023
	Zn225	Zn	0.520156	0.257030	0.003812
	Zn226	Zn	0.770540	0.005942	0.505261
	Zn227	Zn	0.270997	0.006696	0.505430
	N228	N	0.435043	0.970107	0.684386
	N229	N	0.607248	0.041847	0.684617
	N230	N	0.608246	0.970094	0.324099
	N231	N	0.434794	0.041940	0.325908
	N232	N	0.701988	0.418539	0.969322
	N233	N	0.700891	0.593237	0.040017
	N234	N	0.339789	0.594171	0.969730
	N235	N	0.341701	0.419925	0.039833
	N236	N	0.985635	0.687863	0.416729
	N237	N	0.056312	0.686737	0.591216
	N238	N	0.984798	0.326594	0.592181
	N239	N	0.055601	0.326105	0.418537
	N240	N	0.985530	0.418772	0.686199
	N241	N	0.056112	0.594124	0.685330
	N242	N	0.985061	0.592816	0.325503
	N243	N	0.055516	0.419475	0.325185
	N244	N	0.434610	0.685522	0.968717
	N245	N	0.607720	0.686096	0.039688
	N246	N	0.607575	0.326577	0.968263
	N247	N	0.434728	0.327644	0.039584
	N248	N	0.702011	0.970505	0.416774
	N249	N	0.700056	0.041809	0.591224
	N250	N	0.340249	0.971506	0.593026
	N251	N	0.340909	0.042158	0.418432
	N252	N	0.934081	0.471357	0.184596
	N253	N	0.107454	0.541619	0.184747
	N254	N	0.109579	0.470691	0.823129
	N255	N	0.935728	0.542822	0.825984
	N256	N	0.200411	0.920274	0.470029
	N257	N	0.202685	0.095244	0.540394
	N258	N	0.840970	0.092566	0.469846
	N259	N	0.838934	0.917940	0.540430
	N260	N	0.484811	0.186706	0.917402
	N261	N	0.555789	0.186484	0.091083
	N262	N	0.485276	0.825671	0.091323
	N263	N	0.555481	0.825402	0.916542
	N264	N	0.485264	0.918867	0.184473
	N265	N	0.555713	0.092854	0.184589
	N266	N	0.485064	0.093252	0.824604
	N267	N	0.556279	0.919523	0.824862
	N268	N	0.934681	0.185239	0.470002
	N269	N	0.107638	0.186684	0.541569
	N270	N	0.106017	0.828445	0.469482
	N271	N	0.932247	0.825583	0.540100
	N272	N	0.201688	0.470042	0.917604
	N273	N	0.201118	0.541097	0.091714
	N274	N	0.840067	0.471598	0.092366
	N275	N	0.841161	0.542330	0.918013
	O276	O	0.555703	0.544816	0.525398
	H277	H	0.552492	0.554437	0.526938
	H278	H	0.561685	0.549911	0.524983
	O279	O	0.333569	0.347345	0.461374
	H280	H	0.326149	0.381401	0.482885
	H281	H	0.376323	0.355298	0.464297
	O282	O	1.314347	1.706926	0.485872
	H283	H	1.311770	1.708673	0.451460
	H284	H	1.319246	1.718470	0.477134
	O285	O	0.577749	-0.566833	-0.295022
	H286	H	0.587429	-0.561481	-0.285948
	H287	H	0.573067	-0.577278	-0.288863
	O288	O	0.025776	0.000056	-0.077390
	H289	H	0.039700	-0.002784	-0.078197
	H290	H	0.023668	-0.016422	-0.073950
	O291	O	1.027364	0.917009	0.050930
	H292	H	1.040108	0.922763	0.051682
	H293	H	1.028671	0.924276	0.059262
	O294	O	-0.180413	0.959667	0.016512
	H295	H	-0.167851	0.945580	0.014348
	H296	H	-0.182099	0.951089	0.027937
	O297	O	0.476926	0.392686	0.372226
	H298	H	0.472349	0.405040	0.389552
	H299	H	0.496950	0.369737	0.348087
	O300	O	0.393800	0.360935	0.682037
	H301	H	0.418347	0.343072	0.676498
	H302	H	0.386199	0.357563	0.652816
	O303	O	0.227311	0.040263	0.843679
	H304	H	0.220994	0.020720	0.836624
	H305	H	0.247754	0.043159	0.828950
	O306	O	-0.026488	1.114108	0.843584
	H307	H	-0.011757	1.114664	0.850587
	H308	H	-0.020992	1.127559	0.815132
	O309	O	0.225077	0.210975	0.134800
	H310	H	0.199417	0.211943	0.134607
	H311	H	0.236260	0.223178	0.102481
	O312	O	-0.161084	0.808915	0.201365
	H313	H	-0.156827	0.798477	0.194636
	H314	H	-0.173898	0.856915	0.204457
	O315	O	0.222231	0.137629	1.006292
	H316	H	0.199729	0.143132	0.997363
	H317	H	0.235622	0.133473	0.988877
	O318	O	0.556218	1.286929	-0.712868
	H319	H	0.561073	1.253494	-0.746945
	H320	H	0.604109	1.297173	-0.702793
	O321	O	0.451097	0.318535	0.452557
	H322	H	0.446588	0.332620	0.451227
	H323	H	0.434867	0.301469	0.443272
	O324	O	0.587209	0.676846	0.414982
	H325	H	0.605754	0.669205	0.407716
	H326	H	0.583314	0.686590	0.420791
	O327	O	0.203274	0.823274	1.801918
	H328	H	0.207732	0.809239	1.804003
	H329	H	0.210556	0.817194	1.810749
	O330	O	0.575778	-0.298765	-0.521327
	H331	H	0.583657	-0.304847	-0.527971
	H332	H	0.554424	-0.296246	-0.506430
	O333	O	1.144031	0.913929	1.043227
	H334	H	1.148431	0.919419	1.033181
	H335	H	1.154209	0.927046	1.069305
	O336	O	1.058265	-0.170335	0.939425
	H337	H	1.069129	-0.172294	0.940492
	H338	H	1.056746	-0.171228	0.948602
	O339	O	0.837245	0.195508	1.186197
	H340	H	0.857076	0.173723	1.175874
	H341	H	0.857494	0.186349	1.162736
	O342	O	0.737732	0.473877	0.292981
	H343	H	0.739483	0.492011	0.293260
	H344	H	0.755359	0.482168	0.286529
	O345	O	0.116070	0.115466	-0.111370
	H346	H	0.109022	0.117993	-0.125711
	H347	H	0.104710	0.116023	-0.112035
	O348	O	1.685879	0.449372	1.699507
	H349	H	1.697994	0.470943	1.711211
	H350	H	1.666325	0.470270	1.679625
	O351	O	0.566144	0.675899	-0.703931
	H352	H	0.573339	0.671347	-0.696272
	H353	H	0.570633	0.694957	-0.723673
	O354	O	0.231567	1.046485	1.204866
	H355	H	0.231876	1.085033	1.201554
	H356	H	0.252413	1.054612	1.222817
	O357	O	0.935568	0.913533	0.799145
	H358	H	0.942462	0.901872	0.802185
	H359	H	0.950206	0.913940	0.799959
	O360	O	0.411143	0.547194	0.642946
	H361	H	0.393576	0.531206	0.666917
	H362	H	0.415461	0.543384	0.627795
	O363	O	0.326447	0.587841	0.692582
	H364	H	0.346218	0.560591	0.680343
	H365	H	0.317435	0.583600	0.693010
	O366	O	1.002524	-0.203446	1.205291
	H367	H	0.991310	-0.210419	1.221303
	H368	H	0.990582	-0.199270	1.208561
	O369	O	0.619550	0.598625	0.458797
	H370	H	0.629940	0.599813	0.455327
	H371	H	0.622081	0.582281	0.461659
	O372	O	0.657164	0.301857	0.461173
	H373	H	0.666392	0.296913	0.428737
	H374	H	0.655887	0.296091	0.456285
	O375	O	-0.008176	1.220380	0.957212
	H376	H	-0.038287	1.225256	0.938726
	H377	H	-0.014441	1.226550	0.946356
	O378	O	0.629611	0.513591	0.470076
	H379	H	0.629566	0.517453	0.475038
	H380	H	0.623841	0.521967	0.482498
	O381	O	1.036783	0.185398	-0.146796
	H382	H	1.041661	0.205057	-0.161328
	H383	H	1.023474	0.169895	-0.162016
	O384	O	-0.196109	0.129450	1.020052
	H385	H	-0.202917	0.135154	0.998658
	H386	H	-0.194450	0.116542	1.010033
	O387	O	0.160170	0.862311	1.166395
	H388	H	0.145993	0.879066	1.157360
	H389	H	0.146129	0.876825	1.160592
	O390	O	0.056961	-0.018613	0.933044
	H391	H	0.058879	-0.040463	0.933170
	H392	H	0.052359	-0.031357	0.921061
	O393	O	0.835450	0.975938	0.215352
	H394	H	0.826810	0.988135	0.216136
	H395	H	0.840318	0.989239	0.220281
	O396	O	-0.109034	0.217964	1.015570
	H397	H	-0.133002	0.237575	0.996100
	H398	H	-0.098263	0.197321	1.002017
	O399	O	-0.183778	1.043391	-0.191696
	H400	H	-0.184270	1.023274	-0.188280
	H401	H	-0.185228	1.029849	-0.203288
	O402	O	-0.225249	-0.205651	0.796415
	H403	H	-0.243798	-0.204469	0.792397
	H404	H	-0.219067	-0.197294	0.790122
	O405	O	-0.189754	-0.212277	0.029544
	H406	H	-0.201737	-0.225159	0.037621
	H407	H	-0.189613	-0.225540	0.036992
	O408	O	0.344277	0.583115	0.690203
	H409	H	0.327746	0.580312	0.692189
	H410	H	0.342274	0.578257	0.670939
	O411	O	0.724803	0.302472	0.306055
	H412	H	0.744473	0.317372	0.290264
	H413	H	0.744230	0.308724	0.297648
	O414	O	0.304525	0.470338	0.460216
	H415	H	0.306486	0.458012	0.467565
	H416	H	0.304897	0.478026	0.485232
	O417	O	0.423820	0.663597	0.430456
	H418	H	0.430031	0.671535	0.411387
	H419	H	0.404052	0.680135	0.422883
	O420	O	0.614038	0.359421	0.627372
	H421	H	0.603089	0.353088	0.606061
	H422	H	0.637484	0.348524	0.624011
	O423	O	-0.680068	0.542972	0.298837
	H424	H	-0.701285	0.529716	0.296043
	H425	H	-0.660973	0.517109	0.302776
	O426	O	1.045431	1.200898	1.211025
	H427	H	1.041350	1.203433	1.204657
	H428	H	1.047841	1.211663	1.212561
	O429	O	0.307183	0.292250	0.534291
	H430	H	0.316550	0.293346	0.537355
	H431	H	0.286954	0.272468	0.533172
	O432	O	0.829952	0.185062	0.818053
	H433	H	0.822971	0.141103	0.812914
	H434	H	0.834681	0.201958	0.806324
	O435	O	-0.032633	0.049291	0.215985
	H436	H	-0.019216	0.049810	0.222092
	H437	H	-0.029057	0.050340	0.203447
	O438	O	1.220131	-0.198279	-0.023140
	H439	H	1.225469	-0.215651	-0.016649
	H440	H	1.219336	-0.180456	-0.015986
	O441	O	0.563202	0.409564	0.656644
	H442	H	0.564310	0.407748	0.648978
	H443	H	0.567115	0.409843	0.653334
	O444	O	0.374775	0.795632	0.663681
	H445	H	0.377515	0.778514	0.649395
	H446	H	0.368950	0.784502	0.642874
	O447	O	0.560856	0.700405	0.713403
	H448	H	0.539973	0.694337	0.708975
	H449	H	0.549258	0.710064	0.729164
	O450	O	0.535826	0.527035	0.293375
	H451	H	0.529206	0.525054	0.294168
	H452	H	0.542673	0.526086	0.290004
	O453	O	0.690917	0.409656	0.577469
	H454	H	0.691094	0.420160	0.575913
	H455	H	0.696666	0.405677	0.577823
	O456	O	0.727988	-0.346647	-0.428229
	H457	H	0.735167	-0.329438	-0.436868
	H458	H	0.719924	-0.345667	-0.440265
	O459	O	0.288416	0.737268	0.284667
	H460	H	0.285634	0.699188	0.268496
	H461	H	0.284802	0.762755	0.266895
	O462	O	0.149761	1.071757	0.197162
	H463	H	0.172899	1.073651	0.208326
	H464	H	0.154706	1.066555	0.186497
	O465	O	1.036394	-0.177364	-0.161460
	H466	H	1.032942	-0.194822	-0.163862
	H467	H	1.054304	-0.170597	-0.155830
