data_Molecule from HDF5

_cell_length_a		16.279352
_cell_length_b		16.327963
_cell_length_c		16.503538
_cell_angle_alpha	90.085505
_cell_angle_beta	89.899243
_cell_angle_gamma	89.923159
_symmetry_space_group_name_H-M	'P 1'
_symmetry_Int_Tables_number		1

loop_
	_symmetry_equiv_pos_as_xyz
	x,y,z

loop_
	_atom_site_label
	_atom_site_type_symbol
	_atom_site_fract_x
	_atom_site_fract_y
	_atom_site_fract_z
	H0	H	0.404093	0.840913	0.731675
	H1	H	0.619778	0.159264	0.733016
	H2	H	0.615271	0.840918	0.289181
	H3	H	0.405090	0.161493	0.289703
	H4	H	0.732298	0.393756	0.853477
	H5	H	0.726867	0.601277	0.171384
	H6	H	0.286236	0.603346	0.853259
	H7	H	0.287409	0.393336	0.170851
	H8	H	0.848576	0.716067	0.410305
	H9	H	0.171203	0.716090	0.615441
	H10	H	0.848311	0.277151	0.616126
	H11	H	0.171748	0.279098	0.408593
	H12	H	0.848396	0.391274	0.733197
	H13	H	0.169285	0.602123	0.733153
	H14	H	0.849335	0.601217	0.293018
	H15	H	0.168597	0.388365	0.288405
	H16	H	0.403709	0.720203	0.852769
	H17	H	0.612757	0.721146	0.168635
	H18	H	0.617795	0.275322	0.853636
	H19	H	0.404323	0.277436	0.170601
	H20	H	0.726166	0.838319	0.408401
	H21	H	0.728437	0.160992	0.610204
	H22	H	0.292658	0.839147	0.613168
	H23	H	0.289454	0.160496	0.406748
	H24	H	0.902685	0.337188	0.232839
	H25	H	0.112269	0.657271	0.232134
	H26	H	0.114895	0.337867	0.789804
	H27	H	0.902433	0.656992	0.791249
	H28	H	0.227879	0.897184	0.350981
	H29	H	0.231377	0.102405	0.669850
	H30	H	0.792855	0.101967	0.350110
	H31	H	0.787020	0.895396	0.669055
	H32	H	0.347887	0.217663	0.908811
	H33	H	0.670095	0.219696	0.113929
	H34	H	0.347968	0.785166	0.108239
	H35	H	0.670620	0.778921	0.904786
	H36	H	0.350922	0.896301	0.230295
	H37	H	0.670079	0.108202	0.231158
	H38	H	0.350466	0.106275	0.787791
	H39	H	0.670579	0.894340	0.789500
	H40	H	0.907971	0.218379	0.352043
	H41	H	0.115323	0.219725	0.670322
	H42	H	0.110493	0.779816	0.351668
	H43	H	0.904769	0.780218	0.671181
	H44	H	0.228893	0.337617	0.908198
	H45	H	0.223755	0.659181	0.112553
	H46	H	0.790592	0.336294	0.113716
	H47	H	0.793642	0.660525	0.913559
	H48	H	0.423904	0.116562	0.608801
	H49	H	0.606392	0.885940	0.593155
	H50	H	0.601094	0.115704	0.421273
	H51	H	0.415337	0.885123	0.419848
	H52	H	0.596584	0.416467	0.120775
	H53	H	0.601998	0.588454	0.897694
	H54	H	0.422166	0.591855	0.122937
	H55	H	0.422147	0.409443	0.900842
	H56	H	0.124965	0.583569	0.416705
	H57	H	0.894427	0.589151	0.602708
	H58	H	0.123433	0.410050	0.605328
	H59	H	0.899659	0.419712	0.422591
	H60	H	0.122355	0.407502	0.597781
	H61	H	0.894910	0.587005	0.602620
	H62	H	0.126274	0.591616	0.421636
	H63	H	0.890533	0.404445	0.413209
	H64	H	0.415559	0.593462	0.126413
	H65	H	0.600253	0.588159	0.897324
	H66	H	0.593339	0.404419	0.123354
	H67	H	0.418961	0.408376	0.899161
	H68	H	0.603582	0.116704	0.417217
	H69	H	0.599076	0.882311	0.609668
	H70	H	0.432140	0.107833	0.593089
	H71	H	0.422961	0.884606	0.410328
	H72	H	0.916117	0.615386	0.109651
	H73	H	0.094600	0.385374	0.096285
	H74	H	0.103992	0.611287	0.930525
	H75	H	0.921504	0.385044	0.925382
	H76	H	0.101029	0.907645	0.624699
	H77	H	0.097066	0.087048	0.399363
	H78	H	0.917150	0.080098	0.622342
	H79	H	0.919543	0.917333	0.401007
	H80	H	0.622769	0.082317	0.917191
	H81	H	0.398980	0.082448	0.095102
	H82	H	0.624597	0.913332	0.098024
	H83	H	0.398035	0.911412	0.928349
	H84	H	0.626982	0.910373	0.103191
	H85	H	0.394333	0.085197	0.109095
	H86	H	0.625783	0.092425	0.920508
	H87	H	0.396845	0.918474	0.913826
	H88	H	0.928325	0.086385	0.620861
	H89	H	0.099791	0.091459	0.398332
	H90	H	0.102671	0.907183	0.625374
	H91	H	0.929983	0.899818	0.398640
	H92	H	0.099344	0.615428	0.912122
	H93	H	0.102513	0.381441	0.101511
	H94	H	0.924460	0.610558	0.105269
	H95	H	0.917553	0.382128	0.920978
	H96	H	0.414278	0.114257	0.592285
	H97	H	0.588960	0.890280	0.596111
	H98	H	0.598850	0.115613	0.417058
	H99	H	0.426942	0.889948	0.420787
	H100	H	0.604823	0.408467	0.126416
	H101	H	0.601036	0.590502	0.897638
	H102	H	0.417010	0.586886	0.122721
	H103	H	0.419811	0.411569	0.900419
	H104	H	0.122881	0.584100	0.425700
	H105	H	0.894248	0.588182	0.604353
	H106	H	0.120106	0.414537	0.600295
	H107	H	0.896732	0.402214	0.432026
	H108	H	0.915980	0.611822	0.100282
	H109	H	0.093487	0.382598	0.105797
	H110	H	0.086059	0.607457	0.923910
	H111	H	0.923647	0.384017	0.919718
	H112	H	0.102191	0.908616	0.624677
	H113	H	0.102054	0.086546	0.398131
	H114	H	0.918448	0.092357	0.625598
	H115	H	0.909703	0.900900	0.393026
	H116	H	0.621402	0.085502	0.927478
	H117	H	0.393649	0.095432	0.098002
	H118	H	0.626276	0.907356	0.097357
	H119	H	0.391766	0.903596	0.915908
	C120	C	0.391197	0.007647	0.630296
	C121	C	0.631398	0.991677	0.631165
	C122	C	0.631645	0.009242	0.388047
	C123	C	0.389059	0.992292	0.386721
	C124	C	0.631836	0.376649	0.019532
	C125	C	0.631411	0.620656	1.002342
	C126	C	0.386690	0.621292	0.019341
	C127	C	0.387835	0.377411	1.004342
	C128	C	0.018195	0.617783	0.391286
	C129	C	1.000649	0.619436	0.634373
	C130	C	0.016971	0.376952	0.633394
	C131	C	1.001548	0.376287	0.390545
	C132	C	0.886973	0.506012	0.135281
	C133	C	0.128924	0.488800	0.132893
	C134	C	0.129383	0.506050	0.890207
	C135	C	0.888776	0.489580	0.891369
	C136	C	0.132395	0.876479	0.519778
	C137	C	0.132224	0.120444	0.503227
	C138	C	0.890113	0.118857	0.518158
	C139	C	0.887319	0.875602	0.502558
	C140	C	0.517713	0.120166	0.889293
	C141	C	0.501603	0.120573	0.131874
	C142	C	0.519227	0.879659	0.130330
	C143	C	0.501543	0.878288	0.887532
	C144	C	0.387085	0.888366	0.691058
	C145	C	0.636096	0.111522	0.691980
	C146	C	0.633452	0.888588	0.329045
	C147	C	0.386907	0.113152	0.328990
	C148	C	0.692618	0.374786	0.900884
	C149	C	0.688119	0.620734	0.123185
	C150	C	0.326589	0.622106	0.900520
	C151	C	0.327688	0.375393	0.123310
	C152	C	0.896896	0.676591	0.391511
	C153	C	0.122483	0.677530	0.634842
	C154	C	0.896270	0.316762	0.634774
	C155	C	0.122802	0.317559	0.389404
	C156	C	0.896357	0.373742	0.692794
	C157	C	0.121338	0.620650	0.693396
	C158	C	0.897300	0.619647	0.332986
	C159	C	0.121220	0.372172	0.329380
	C160	C	0.385120	0.680224	0.900153
	C161	C	0.631620	0.680296	0.121987
	C162	C	0.635351	0.315918	0.901000
	C163	C	0.386237	0.317781	0.123307
	C164	C	0.688548	0.887323	0.388400
	C165	C	0.690580	0.112637	0.631226
	C166	C	0.331567	0.887318	0.631933
	C167	C	0.329266	0.112736	0.387336
	C168	C	0.885170	0.385144	0.193110
	C169	C	0.130781	0.609461	0.192177
	C170	C	0.132562	0.385853	0.830140
	C171	C	0.885303	0.609715	0.831908
	C172	C	0.188878	0.877201	0.398797
	C173	C	0.191848	0.121596	0.622342
	C174	C	0.831659	0.120844	0.398344
	C175	C	0.827252	0.876228	0.621735
	C176	C	0.396435	0.179028	0.888990
	C177	C	0.622176	0.180403	0.132608
	C178	C	0.397004	0.822946	0.129470
	C179	C	0.622314	0.818532	0.886475
	C180	C	0.398548	0.878153	0.189791
	C181	C	0.622348	0.124549	0.190702
	C182	C	0.397896	0.123943	0.828671
	C183	C	0.622348	0.876078	0.828886
	C184	C	0.889170	0.178753	0.399128
	C185	C	0.133869	0.179849	0.622606
	C186	C	0.130927	0.818661	0.399539
	C187	C	0.885971	0.818617	0.622786
	C188	C	0.189271	0.385474	0.889090
	C189	C	0.186193	0.610542	0.132808
	C190	C	0.829229	0.384798	0.133789
	C191	C	0.831217	0.611490	0.892542
	C192	C	0.416375	0.091089	0.605228
	C193	C	0.605533	0.908100	0.606784
	C194	C	0.608003	0.093797	0.411547
	C195	C	0.414362	0.908337	0.410233
	C196	C	0.605674	0.402243	0.102049
	C197	C	0.607839	0.596090	0.919335
	C198	C	0.411125	0.597596	0.102476
	C199	C	0.412972	0.402701	0.921598
	C200	C	0.102749	0.593456	0.414775
	C201	C	0.916418	0.595288	0.610093
	C202	C	0.100451	0.403165	0.608268
	C203	C	0.917481	0.401538	0.415358
	C204	C	0.911617	0.590595	0.112028
	C205	C	0.104203	0.404890	0.108339
	C206	C	0.103937	0.589630	0.914939
	C207	C	0.913671	0.405724	0.915046
	C208	C	0.108931	0.900725	0.603092
	C209	C	0.107074	0.095613	0.420203
	C210	C	0.914269	0.093668	0.601213
	C211	C	0.912359	0.899010	0.419355
	C212	C	0.601353	0.094275	0.914249
	C213	C	0.417708	0.094995	0.107711
	C214	C	0.603828	0.903438	0.106450
	C215	C	0.417483	0.903735	0.912083
	Zn216	Zn	0.510452	0.000054	0.759854
	Zn217	Zn	0.511849	0.001122	0.258999
	Zn218	Zn	0.760672	0.498688	0.012203
	Zn219	Zn	0.257527	0.498118	0.012171
	Zn220	Zn	0.010252	0.746960	0.512481
	Zn221	Zn	0.009460	0.249017	0.512184
	Zn222	Zn	0.007961	0.497513	0.762032
	Zn223	Zn	0.009468	0.496324	0.262134
	Zn224	Zn	0.509657	0.750323	0.009845
	Zn225	Zn	0.509166	0.247756	0.011278
	Zn226	Zn	0.759377	-0.000086	0.509445
	Zn227	Zn	0.261945	-0.000736	0.510423
	N228	N	0.423559	0.964031	0.689890
	N229	N	0.600156	0.035197	0.692202
	N230	N	0.599011	0.965487	0.328593
	N231	N	0.423308	0.037161	0.328447
	N232	N	0.690476	0.411763	0.975733
	N233	N	0.688356	0.584566	0.047957
	N234	N	0.327491	0.586023	0.975579
	N235	N	0.328647	0.411898	0.048325
	N236	N	0.973076	0.675433	0.427264
	N237	N	0.046329	0.677004	0.598930
	N238	N	0.972455	0.318689	0.598442
	N239	N	0.047584	0.320190	0.427204
	N240	N	0.972275	0.410343	0.692122
	N241	N	0.044566	0.585541	0.693197
	N242	N	0.973598	0.583555	0.332848
	N243	N	0.044807	0.408063	0.330121
	N244	N	0.422000	0.679729	0.974868
	N245	N	0.597246	0.680649	0.045926
	N246	N	0.598084	0.317032	0.975844
	N247	N	0.423113	0.319070	0.048374
	N248	N	0.687851	0.963348	0.424224
	N249	N	0.687838	0.037279	0.594141
	N250	N	0.333974	0.962490	0.594603
	N251	N	0.330153	0.036356	0.422255
	N252	N	0.920157	0.461918	0.194269
	N253	N	0.096046	0.532841	0.192326
	N254	N	0.096390	0.461927	0.830454
	N255	N	0.920304	0.533147	0.831222
	N256	N	0.190469	0.912036	0.474730
	N257	N	0.191030	0.085598	0.546942
	N258	N	0.832290	0.083983	0.473218
	N259	N	0.827807	0.910916	0.545800
	N260	N	0.472146	0.177035	0.925599
	N261	N	0.546150	0.177983	0.096565
	N262	N	0.473078	0.823708	0.093290
	N263	N	0.545927	0.819557	0.922189
	N264	N	0.475619	0.912522	0.190623
	N265	N	0.546351	0.088102	0.190331
	N266	N	0.474451	0.088251	0.828715
	N267	N	0.546225	0.912526	0.829512
	N268	N	0.924984	0.177446	0.474472
	N269	N	0.097754	0.179279	0.547439
	N270	N	0.096939	0.817812	0.475643
	N271	N	0.922469	0.818001	0.547737
	N272	N	0.187669	0.461258	0.925550
	N273	N	0.185442	0.534356	0.096900
	N274	N	0.830249	0.461048	0.098660
	N275	N	0.833054	0.535919	0.928917
	O276	O	0.338462	0.446273	0.482588
	H277	H	0.355066	0.428093	0.495476
	H278	H	0.332765	0.451564	0.480296
	O279	O	0.494026	0.500078	0.391744
	H280	H	0.484950	0.491158	0.381160
	H281	H	0.502822	0.513180	0.380965
	O282	O	0.556127	0.302785	0.635802
	H283	H	0.549959	0.296032	0.634295
	H284	H	0.550887	0.295733	0.639005
	O285	O	0.873719	1.181234	-0.174847
	H286	H	0.857697	1.192980	-0.139364
	H287	H	0.893152	1.186630	-0.186719
	O288	O	0.605279	0.470786	0.355412
	H289	H	0.603200	0.436871	0.369443
	H290	H	0.626040	0.460235	0.336512
	O291	O	0.700700	0.694848	0.617052
	H292	H	0.691983	0.701344	0.633863
	H293	H	0.719689	0.701064	0.607236
	O294	O	1.022805	0.847659	1.061741
	H295	H	1.028121	0.842071	1.064051
	H296	H	1.013633	0.854119	1.073159
	O297	O	0.519267	0.473631	0.508593
	H298	H	0.533656	0.473621	0.508465
	H299	H	0.513945	0.493890	0.517527
	O300	O	0.462879	0.578737	0.479890
	H301	H	0.464674	0.597598	0.474780
	H302	H	0.456195	0.574663	0.484010
	O303	O	0.000248	0.119050	1.003650
	H304	H	-0.005635	0.100386	1.004631
	H305	H	-0.010692	0.121699	0.983543
	O306	O	0.325332	0.573803	0.658819
	H307	H	0.338816	0.592245	0.641075
	H308	H	0.317064	0.563684	0.655260
	O309	O	1.015920	-0.171004	0.196480
	H310	H	1.000024	-0.161684	0.188567
	H311	H	1.012715	-0.169818	0.211528
	O312	O	0.485746	0.705139	0.531580
	H313	H	0.480525	0.713448	0.537906
	H314	H	0.474785	0.704153	0.529791
	O315	O	0.992417	1.166574	1.073130
	H316	H	0.984351	1.167747	1.072878
	H317	H	1.004717	1.161236	1.085279
	O318	O	0.183900	0.117004	0.136217
	H319	H	0.189033	0.130828	0.128411
	H320	H	0.169350	0.129726	0.137355
	O321	O	0.611082	0.693700	0.714301
	H322	H	0.597879	0.693236	0.731227
	H323	H	0.619987	0.685231	0.715229
	O324	O	1.151380	0.092660	1.182275
	H325	H	1.148720	0.089735	1.177302
	H326	H	1.143847	0.100608	1.167085
	O327	O	0.567880	0.337851	0.345158
	H328	H	0.559355	0.352985	0.341555
	H329	H	0.567477	0.344536	0.332016
	O330	O	-0.165987	1.143159	1.027390
	H331	H	-0.185902	1.143002	1.026445
	H332	H	-0.159873	1.126020	1.042738
	O333	O	-0.501998	0.691102	-0.672622
	H334	H	-0.505327	0.675806	-0.662014
	H335	H	-0.498312	0.712541	-0.676745
	O336	O	1.150600	0.878916	0.192298
	H337	H	1.149926	0.889399	0.179629
	H338	H	1.134440	0.890750	0.192583
	O339	O	-0.154364	1.019668	1.022769
	H340	H	-0.148176	1.007430	1.006936
	H341	H	-0.153697	1.019182	1.033967
	O342	O	0.398767	0.394927	0.400182
	H343	H	0.410294	0.402472	0.390317
	H344	H	0.382452	0.400830	0.397447
	O345	O	0.192968	0.074020	0.895566
	H346	H	0.191654	0.066379	0.888713
	H347	H	0.200799	0.080661	0.892353
	O348	O	0.305977	0.695258	0.417826
	H349	H	0.288064	0.720806	0.427336
	H350	H	0.312452	0.685184	0.385392
	O351	O	0.806763	1.014925	-0.192870
	H352	H	0.799520	1.043202	-0.195214
	H353	H	0.800985	1.028583	-0.202054
	O354	O	1.020484	0.825361	0.873261
	H355	H	1.057401	0.833389	0.890578
	H356	H	1.022375	0.806052	0.850763
	O357	O	-0.101224	-0.188433	-0.035228
	H358	H	-0.093834	-0.193182	-0.028584
	H359	H	-0.094794	-0.192041	-0.060806
	O360	O	0.696316	0.674614	0.403277
	H361	H	0.692731	0.675903	0.404576
	H362	H	0.691434	0.649505	0.402065
	O363	O	0.599869	-0.387835	-0.555849
	H364	H	0.597468	-0.385314	-0.550934
	H365	H	0.604881	-0.391465	-0.564659
	O366	O	-0.082323	-0.206952	1.059061
	H367	H	-0.083930	-0.215834	1.029019
	H368	H	-0.097528	-0.220180	1.078561
	O369	O	0.969403	0.170277	0.813208
	H370	H	0.970841	0.169427	0.804328
	H371	H	0.971700	0.175878	0.810721
	O372	O	0.427581	0.597920	0.679853
	H373	H	0.430210	0.603492	0.661803
	H374	H	0.426485	0.578149	0.688441
	O375	O	-0.434829	-0.604829	0.686435
	H376	H	-0.436950	-0.634339	0.675971
	H377	H	-0.454062	-0.594243	0.697686
	O378	O	0.326907	0.320478	0.585988
	H379	H	0.313370	0.309167	0.565137
	H380	H	0.330174	0.335783	0.581991
	O381	O	-0.190859	0.868080	0.117762
	H382	H	-0.208569	0.859636	0.114580
	H383	H	-0.190662	0.864743	0.095463
	O384	O	0.701735	0.476391	0.551340
	H385	H	0.710370	0.493528	0.557387
	H386	H	0.706757	0.485567	0.559956
	O387	O	0.163450	-0.022415	0.102449
	H388	H	0.166779	-0.026643	0.120383
	H389	H	0.162999	-0.003592	0.103762
	O390	O	0.998505	1.180663	0.159481
	H391	H	0.993438	1.172247	0.156509
	H392	H	1.000311	1.180184	0.172198
	O393	O	1.155575	-0.139293	0.817738
	H394	H	1.167968	-0.135054	0.813560
	H395	H	1.159629	-0.123296	0.835964
	O396	O	0.547590	0.379800	0.584753
	H397	H	0.538433	0.370646	0.575897
	H398	H	0.543247	0.372902	0.593662
	O399	O	0.063321	1.103049	-0.007811
	H400	H	0.080105	1.106877	-0.000806
	H401	H	0.048422	1.107913	-0.009105
	O402	O	1.482479	1.370216	-0.511623
	H403	H	1.484588	1.378147	-0.516609
	H404	H	1.489938	1.373806	-0.509239
	O405	O	0.638496	0.579246	0.687944
	H406	H	0.646107	0.583137	0.705689
	H407	H	0.626120	0.582797	0.694698
	O408	O	0.365149	0.497086	0.670411
	H409	H	0.349170	0.494456	0.678071
	H410	H	0.368935	0.499548	0.663269
	O411	O	0.935302	0.885758	0.898600
	H412	H	0.945671	0.876538	0.891845
	H413	H	0.930553	0.890707	0.871792
	O414	O	0.392934	0.298889	0.709092
	H415	H	0.387872	0.279423	0.694522
	H416	H	0.373729	0.318297	0.707422
	O417	O	0.122584	0.991105	0.830897
	H418	H	0.110739	0.978871	0.831292
	H419	H	0.115763	0.974751	0.834748
	O420	O	0.045067	0.897541	0.892939
	H421	H	0.040328	0.874414	0.883422
	H422	H	0.046629	0.889844	0.884388
	O423	O	0.072291	1.098141	0.140870
	H424	H	0.057025	1.112478	0.135272
	H425	H	0.061698	1.102370	0.156630
	O426	O	-0.187165	-0.069998	1.201844
	H427	H	-0.182195	-0.096448	1.188555
	H428	H	-0.199375	-0.077001	1.218741
	O429	O	0.338277	0.654234	0.303955
	H430	H	0.358320	0.659110	0.288704
	H431	H	0.336091	0.658028	0.287695
	O432	O	0.695384	0.392063	0.358080
	H433	H	0.687514	0.389013	0.380663
	H434	H	0.678509	0.390149	0.371017
	O435	O	-0.326367	0.392231	-0.405399
	H436	H	-0.348225	0.385589	-0.394500
	H437	H	-0.321242	0.397471	-0.401724
	O438	O	0.199579	0.864536	1.006758
	H439	H	0.204202	0.881393	1.003713
	H440	H	0.197054	0.851043	1.011792
	O441	O	0.335818	0.512032	0.303248
	H442	H	0.323732	0.515537	0.290234
	H443	H	0.341985	0.532202	0.307896
