data_Molecule from HDF5

_cell_length_a		16.550498
_cell_length_b		16.521872
_cell_length_c		16.465623
_cell_angle_alpha	90.034190
_cell_angle_beta	89.995876
_cell_angle_gamma	89.965784
_symmetry_space_group_name_H-M	'P 1'
_symmetry_Int_Tables_number		1

loop_
	_symmetry_equiv_pos_as_xyz
	x,y,z

loop_
	_atom_site_label
	_atom_site_type_symbol
	_atom_site_fract_x
	_atom_site_fract_y
	_atom_site_fract_z
	H0	H	0.376404	0.856084	0.709683
	H1	H	0.586643	0.170048	0.710738
	H2	H	0.584430	0.856644	0.267593
	H3	H	0.377818	0.170879	0.268750
	H4	H	0.707101	0.404407	0.833289
	H5	H	0.701722	0.617025	0.147357
	H6	H	0.262715	0.613515	0.829669
	H7	H	0.260023	0.405599	0.144599
	H8	H	0.824921	0.734343	0.384517
	H9	H	0.139531	0.730579	0.591737
	H10	H	0.823852	0.290246	0.595901
	H11	H	0.137411	0.290328	0.384968
	H12	H	0.822419	0.409205	0.709617
	H13	H	0.139989	0.612520	0.707482
	H14	H	0.824780	0.616904	0.268857
	H15	H	0.139061	0.408568	0.270449
	H16	H	0.378634	0.731342	0.830242
	H17	H	0.583573	0.731939	0.147464
	H18	H	0.591907	0.287962	0.832511
	H19	H	0.379075	0.291558	0.145779
	H20	H	0.703535	0.857387	0.381692
	H21	H	0.703543	0.169871	0.595242
	H22	H	0.258340	0.857086	0.595467
	H23	H	0.260334	0.169896	0.384181
	H24	H	0.874290	0.355987	0.213108
	H25	H	0.087458	0.668626	0.211369
	H26	H	0.083525	0.353729	0.769191
	H27	H	0.876044	0.669784	0.767385
	H28	H	0.202356	0.907637	0.331682
	H29	H	0.201851	0.117729	0.647411
	H30	H	0.760850	0.117952	0.330229
	H31	H	0.758083	0.908014	0.646142
	H32	H	0.327171	0.238774	0.878941
	H33	H	0.638955	0.235199	0.095343
	H34	H	0.323672	0.792688	0.093877
	H35	H	0.636898	0.789009	0.882903
	H36	H	0.323337	0.911059	0.207704
	H37	H	0.638239	0.118857	0.211927
	H38	H	0.324822	0.118628	0.766884
	H39	H	0.637926	0.906865	0.766825
	H40	H	0.874261	0.235625	0.331784
	H41	H	0.084271	0.232359	0.648864
	H42	H	0.085337	0.791726	0.331912
	H43	H	0.877260	0.794068	0.647895
	H44	H	0.202224	0.354518	0.882834
	H45	H	0.202260	0.669412	0.092737
	H46	H	0.756745	0.356884	0.098135
	H47	H	0.760019	0.669587	0.883603
	H48	H	0.391419	0.125451	0.575169
	H49	H	0.571509	0.901039	0.575219
	H50	H	0.575505	0.129184	0.395916
	H51	H	0.391008	0.900434	0.399500
	H52	H	0.567200	0.428638	0.098829
	H53	H	0.573958	0.594034	0.877385
	H54	H	0.392442	0.599914	0.100777
	H55	H	0.395375	0.420498	0.875433
	H56	H	0.093600	0.600446	0.399434
	H57	H	0.865994	0.607836	0.583184
	H58	H	0.090467	0.422510	0.573150
	H59	H	0.868071	0.423177	0.398699
	H60	H	0.092470	0.427540	0.581334
	H61	H	0.869098	0.605229	0.574270
	H62	H	0.094285	0.604578	0.400994
	H63	H	0.869474	0.422494	0.403766
	H64	H	0.391650	0.606216	0.102944
	H65	H	0.563601	0.602227	0.878612
	H66	H	0.567018	0.423362	0.099598
	H67	H	0.389309	0.424104	0.873305
	H68	H	0.565162	0.124929	0.397916
	H69	H	0.570332	0.901104	0.577496
	H70	H	0.391813	0.125533	0.578487
	H71	H	0.391085	0.899619	0.398436
	H72	H	0.897110	0.622845	0.079210
	H73	H	0.067828	0.402323	0.073246
	H74	H	0.068909	0.623647	0.898011
	H75	H	0.895338	0.401109	0.899515
	H76	H	0.073150	0.921268	0.604769
	H77	H	0.067210	0.103033	0.377995
	H78	H	0.888356	0.102458	0.602593
	H79	H	0.893725	0.924340	0.377794
	H80	H	0.595221	0.102023	0.898890
	H81	H	0.370202	0.104286	0.075887
	H82	H	0.595847	0.916969	0.077897
	H83	H	0.371181	0.926629	0.902429
	H84	H	0.591315	0.925181	0.072073
	H85	H	0.370517	0.101307	0.076649
	H86	H	0.592657	0.100469	0.904013
	H87	H	0.367295	0.923533	0.894504
	H88	H	0.891926	0.095792	0.598456
	H89	H	0.071610	0.104184	0.376716
	H90	H	0.072453	0.927359	0.601634
	H91	H	0.891742	0.923087	0.376256
	H92	H	0.073248	0.623554	0.901693
	H93	H	0.077930	0.397972	0.076872
	H94	H	0.892564	0.622869	0.073809
	H95	H	0.893737	0.402416	0.903815
	H96	H	0.394929	0.123863	0.576777
	H97	H	0.569095	0.901812	0.575437
	H98	H	0.572576	0.124663	0.405821
	H99	H	0.391837	0.900541	0.398764
	H100	H	0.571319	0.425575	0.100975
	H101	H	0.574826	0.606318	0.873765
	H102	H	0.386754	0.601755	0.103863
	H103	H	0.394868	0.427782	0.877146
	H104	H	0.093121	0.601202	0.403631
	H105	H	0.869057	0.598566	0.581381
	H106	H	0.094637	0.417647	0.580527
	H107	H	0.870326	0.426911	0.401511
	H108	H	0.891008	0.625795	0.079747
	H109	H	0.068718	0.398448	0.083874
	H110	H	0.073283	0.626288	0.896863
	H111	H	0.891050	0.399751	0.900731
	H112	H	0.067126	0.923061	0.601976
	H113	H	0.070590	0.099646	0.377544
	H114	H	0.896696	0.102735	0.600276
	H115	H	0.891362	0.925711	0.376969
	H116	H	0.592147	0.096765	0.899435
	H117	H	0.369686	0.103926	0.078763
	H118	H	0.594393	0.926339	0.082861
	H119	H	0.367553	0.918093	0.901875
	C120	C	0.360126	0.021591	0.609640
	C121	C	0.602701	1.004783	0.609472
	C122	C	0.602605	0.022312	0.367304
	C123	C	0.359599	1.004399	0.367155
	C124	C	0.603363	0.391741	-0.003069
	C125	C	0.602293	0.633003	0.980991
	C126	C	0.359806	0.633080	-0.002707
	C127	C	0.361504	0.391259	0.979363
	C128	C	-0.009717	0.634625	0.368429
	C129	C	0.972800	0.633839	0.610840
	C130	C	-0.011343	0.391160	0.610706
	C131	C	0.972530	0.391443	0.368848
	C132	C	0.860037	0.520760	0.111187
	C133	C	0.103238	0.503567	0.110273
	C134	C	0.102943	0.520192	0.866938
	C135	C	0.860405	0.504307	0.868232
	C136	C	0.102593	0.891957	0.498323
	C137	C	0.102064	0.134372	0.481496
	C138	C	0.859641	0.133880	0.496958
	C139	C	0.859534	0.891908	0.480646
	C140	C	0.490219	0.133620	0.867441
	C141	C	0.473638	0.134878	0.110109
	C142	C	0.489570	0.891686	0.109952
	C143	C	0.472222	0.890399	0.866908
	C144	C	0.357802	0.903507	0.669955
	C145	C	0.604804	0.122801	0.670309
	C146	C	0.604050	0.903909	0.307026
	C147	C	0.358584	0.123273	0.308154
	C148	C	0.666125	0.387161	0.879863
	C149	C	0.661881	0.635381	0.099745
	C150	C	0.302265	0.632877	0.877167
	C151	C	0.300825	0.387893	0.097672
	C152	C	0.872321	0.694571	0.365971
	C153	C	0.092155	0.691402	0.611211
	C154	C	0.870507	0.331160	0.613465
	C155	C	0.090652	0.330829	0.366655
	C156	C	0.870036	0.390288	0.670121
	C157	C	0.092415	0.632592	0.668329
	C158	C	0.872050	0.636027	0.308365
	C159	C	0.091313	0.389438	0.309519
	C160	C	0.359570	0.691544	0.877604
	C161	C	0.603271	0.692642	0.099807
	C162	C	0.608494	0.329277	0.879540
	C163	C	0.360060	0.331333	0.098139
	C164	C	0.662858	0.904261	0.364060
	C165	C	0.663001	0.122927	0.612781
	C166	C	0.299174	0.903920	0.613042
	C167	C	0.300288	0.122963	0.365491
	C168	C	0.856454	0.403223	0.172710
	C169	C	0.105599	0.621596	0.170856
	C170	C	0.102863	0.401201	0.808397
	C171	C	0.857814	0.622415	0.807488
	C172	C	0.162189	0.889563	0.379135
	C173	C	0.162038	0.136331	0.600200
	C174	C	0.800003	0.136357	0.378198
	C175	C	0.798584	0.889512	0.599035
	C176	C	0.373549	0.196809	0.862585
	C177	C	0.591826	0.195110	0.113392
	C178	C	0.371054	0.832578	0.112132
	C179	C	0.590094	0.829402	0.864324
	C180	C	0.370963	0.891416	0.168991
	C181	C	0.591460	0.137100	0.171270
	C182	C	0.372372	0.137085	0.806575
	C183	C	0.590455	0.888160	0.806902
	C184	C	0.856865	0.194774	0.378811
	C185	C	0.103446	0.193453	0.600687
	C186	C	0.104411	0.831646	0.379412
	C187	C	0.857603	0.832752	0.600025
	C188	C	0.162263	0.401621	0.864582
	C189	C	0.162965	0.621882	0.112016
	C190	C	0.797883	0.403655	0.115478
	C191	C	0.799935	0.622356	0.865337
	C192	C	0.385282	0.103631	0.583968
	C193	C	0.577548	0.922599	0.583512
	C194	C	0.578135	0.104761	0.392535
	C195	C	0.384138	0.921727	0.391883
	C196	C	0.576384	0.418302	0.078412
	C197	C	0.577774	0.607861	0.898170
	C198	C	0.383515	0.609463	0.080758
	C199	C	0.386214	0.416781	0.896814
	C200	C	0.072348	0.609292	0.393920
	C201	C	0.889603	0.610708	0.586630
	C202	C	0.071241	0.415526	0.585613
	C203	C	0.890766	0.416886	0.394025
	C204	C	0.886327	0.602431	0.084981
	C205	C	0.078371	0.420974	0.085257
	C206	C	0.078896	0.603027	0.891846
	C207	C	0.885935	0.422457	0.894091
	C208	C	0.078034	0.916742	0.581204
	C209	C	0.076997	0.109348	0.398741
	C210	C	0.885081	0.107853	0.579181
	C211	C	0.885140	0.916942	0.398328
	C212	C	0.571933	0.107321	0.893352
	C213	C	0.391694	0.110190	0.084462
	C214	C	0.572347	0.915867	0.084794
	C215	C	0.390171	0.915498	0.892333
	Zn216	Zn	0.481333	0.013090	0.738086
	Zn217	Zn	0.481002	0.013455	0.238709
	Zn218	Zn	0.731901	0.512563	-0.010418
	Zn219	Zn	0.231642	0.511629	-0.012072
	Zn220	Zn	-0.018447	0.763726	0.490303
	Zn221	Zn	-0.019807	0.262440	0.489614
	Zn222	Zn	-0.018982	0.512121	0.739017
	Zn223	Zn	-0.018379	0.512264	0.239569
	Zn224	Zn	0.480815	0.762375	-0.010592
	Zn225	Zn	0.483268	0.262774	-0.011812
	Zn226	Zn	0.731418	0.013353	0.488425
	Zn227	Zn	0.231026	0.013558	0.488887
	N228	N	0.395157	0.977638	0.667945
	N229	N	0.568075	0.048219	0.668402
	N230	N	0.567446	0.978294	0.308870
	N231	N	0.394837	0.048529	0.309239
	N232	N	0.662740	0.425518	0.953748
	N233	N	0.661385	0.599245	0.024672
	N234	N	0.302086	0.597679	0.952676
	N235	N	0.301523	0.424328	0.022707
	N236	N	0.946870	0.693849	0.402417
	N237	N	0.016639	0.692379	0.576179
	N238	N	0.945365	0.331487	0.577273
	N239	N	0.015626	0.331546	0.402397
	N240	N	0.944505	0.426816	0.668314
	N241	N	0.017157	0.597767	0.668209
	N242	N	0.946619	0.599623	0.309464
	N243	N	0.016975	0.426292	0.310591
	N244	N	0.394351	0.692024	0.953389
	N245	N	0.566915	0.691493	0.024827
	N246	N	0.570189	0.331989	0.953451
	N247	N	0.396961	0.333171	0.023534
	N248	N	0.662034	0.978829	0.400832
	N249	N	0.661690	0.048524	0.575543
	N250	N	0.300676	0.978303	0.576054
	N251	N	0.300431	0.047875	0.401260
	N252	N	0.894446	0.477014	0.170059
	N253	N	0.069338	0.546924	0.169903
	N254	N	0.066718	0.475988	0.809720
	N255	N	0.894502	0.547909	0.809039
	N256	N	0.161555	0.926127	0.454106
	N257	N	0.161463	0.100527	0.524857
	N258	N	0.801451	0.099392	0.452827
	N259	N	0.799468	0.925274	0.523826
	N260	N	0.447952	0.194875	0.899521
	N261	N	0.517608	0.193853	0.076129
	N262	N	0.445965	0.832729	0.075904
	N263	N	0.515452	0.830494	0.900736
	N264	N	0.445660	0.927469	0.167661
	N265	N	0.516971	0.100595	0.169700
	N266	N	0.446000	0.098614	0.809373
	N267	N	0.516066	0.925028	0.807970
	N268	N	0.893109	0.193460	0.453897
	N269	N	0.066942	0.192361	0.525705
	N270	N	0.068223	0.833004	0.454499
	N271	N	0.894615	0.833940	0.525374
	N272	N	0.162301	0.476695	0.900454
	N273	N	0.161747	0.547256	0.075092
	N274	N	0.799951	0.477977	0.078049
	N275	N	0.801191	0.547808	0.902207
	O276	O	1.062605	0.968392	-0.092275
	H277	H	1.073568	0.970513	-0.095451
	H278	H	1.058546	0.973896	-0.085247
	O279	O	0.068824	-0.140744	1.131469
	H280	H	0.056426	-0.133924	1.114146
	H281	H	0.058101	-0.125925	1.128198
	O282	O	0.526095	0.734098	0.407597
	H283	H	0.526031	0.737933	0.399511
	H284	H	0.519152	0.724440	0.413746
	O285	O	0.286081	0.323286	0.682910
	H286	H	0.330406	0.312812	0.691120
	H287	H	0.278207	0.377046	0.690593
	O288	O	0.784786	-0.003997	1.197483
	H289	H	0.795963	0.009077	1.190255
	H290	H	0.768374	0.000743	1.215927
	O291	O	0.314368	0.530394	0.468494
	H292	H	0.312905	0.545755	0.469280
	H293	H	0.311444	0.516777	0.467285
	O294	O	0.193344	-0.164125	-0.025668
	H295	H	0.190071	-0.173717	-0.036739
	H296	H	0.196814	-0.170672	-0.025047
	O297	O	0.926095	-0.133428	-0.148292
	H298	H	0.921901	-0.141095	-0.152361
	H299	H	0.908673	-0.137870	-0.138599
	O300	O	-0.081441	-0.093849	-0.031622
	H301	H	-0.086233	-0.101476	-0.029357
	H302	H	-0.095582	-0.104657	-0.035758
	O303	O	-0.042739	0.052870	0.150832
	H304	H	-0.037156	0.054875	0.146931
	H305	H	-0.032529	0.050180	0.153781
	O306	O	0.867479	-0.134001	-0.183222
	H307	H	0.858824	-0.150939	-0.187576
	H308	H	0.847041	-0.114395	-0.172773
	O309	O	0.433095	0.461628	0.275175
	H310	H	0.455136	0.466836	0.284327
	H311	H	0.404965	0.466224	0.270993
	O312	O	-0.126543	0.140812	0.190420
	H313	H	-0.114873	0.137764	0.197834
	H314	H	-0.117689	0.144737	0.171483
	O315	O	0.427213	0.333808	0.678837
	H316	H	0.448817	0.347507	0.686120
	H317	H	0.440555	0.328214	0.692157
	O318	O	1.201661	0.987576	0.007952
	H319	H	1.204041	0.965248	0.003470
	H320	H	1.203388	0.999031	-0.014076
	O321	O	-0.191083	1.082757	0.809102
	H322	H	-0.184678	1.079395	0.831642
	H323	H	-0.202892	1.075154	0.802352
	O324	O	0.786529	0.066780	1.050147
	H325	H	0.801369	0.076581	1.060454
	H326	H	0.785242	0.071171	1.046463
	O327	O	0.471303	0.479196	0.459769
	H328	H	0.477111	0.490263	0.476085
	H329	H	0.456061	0.472223	0.463040
	O330	O	0.266544	0.539129	0.270898
	H331	H	0.253802	0.548825	0.274181
	H332	H	0.252120	0.546894	0.255345
	O333	O	0.486004	0.310233	0.353762
	H334	H	0.473161	0.308446	0.334406
	H335	H	0.467202	0.311520	0.345433
	O336	O	0.783191	0.209747	0.787825
	H337	H	0.788197	0.202937	0.814154
	H338	H	0.798728	0.193734	0.784879
	O339	O	0.436672	0.648703	0.493080
	H340	H	0.438784	0.635754	0.492579
	H341	H	0.429135	0.647656	0.498202
	O342	O	0.010083	1.217239	-0.061218
	H343	H	0.011869	1.212140	-0.060205
	H344	H	0.029658	1.225248	-0.062080
	O345	O	0.512700	0.720825	0.701201
	H346	H	0.506525	0.722145	0.701412
	H347	H	0.509983	0.741444	0.709042
	O348	O	0.773795	0.800092	0.196728
	H349	H	0.766862	0.794727	0.218306
	H350	H	0.756773	0.815031	0.216166
	O351	O	0.252989	0.289821	1.254386
	H352	H	0.259368	0.270578	1.261891
	H353	H	0.266538	0.303780	1.280650
	O354	O	0.895759	0.177472	0.774778
	H355	H	0.884341	0.174643	0.784701
	H356	H	0.895464	0.197843	0.755795
	O357	O	0.627144	0.353057	0.560770
	H358	H	0.628465	0.340975	0.566505
	H359	H	0.630225	0.342716	0.563112
	O360	O	0.676702	0.319802	0.575683
	H361	H	0.673753	0.321128	0.566834
	H362	H	0.685832	0.300486	0.562072
	O363	O	0.670773	0.701440	0.303750
	H364	H	0.652912	0.685572	0.322414
	H365	H	0.654493	0.681935	0.322967
	O366	O	1.007779	0.086987	0.889284
	H367	H	1.029381	0.087998	0.897078
	H368	H	0.993679	0.079759	0.877951
	O369	O	0.184807	-0.128035	0.782346
	H370	H	0.172445	-0.125795	0.775344
	H371	H	0.183384	-0.102759	0.773867
	O372	O	0.119715	0.795950	0.926576
	H373	H	0.117500	0.792034	0.920510
	H374	H	0.122104	0.804626	0.932394
	O375	O	1.019201	-0.203638	-0.225843
	H376	H	1.017807	-0.212310	-0.228169
	H377	H	1.025073	-0.213513	-0.231398
	O378	O	1.012270	0.213920	1.184567
	H379	H	1.023268	0.228434	1.199447
	H380	H	1.038412	0.216981	1.182481
	O381	O	0.083851	1.140286	-0.075019
	H382	H	0.085684	1.130454	-0.066560
	H383	H	0.092721	1.158226	-0.066706
	O384	O	0.010515	0.087161	-0.187574
	H385	H	0.003413	0.075220	-0.191895
	H386	H	0.003227	0.092521	-0.178766
	O387	O	-0.237661	0.793486	1.019194
	H388	H	-0.236728	0.787992	1.045426
	H389	H	-0.250717	0.773375	1.044732
	O390	O	-0.118139	1.046082	1.021986
	H391	H	-0.120372	1.052148	1.018136
	H392	H	-0.117714	1.043791	1.009525
	O393	O	0.794481	0.213412	0.001728
	H394	H	0.809442	0.223947	-0.002019
	H395	H	0.796256	0.219757	0.002252
	O396	O	0.281204	0.510879	0.658526
	H397	H	0.283596	0.523057	0.636041
	H398	H	0.291555	0.513155	0.676198
	O399	O	0.609956	0.528969	0.274183
	H400	H	0.619602	0.532703	0.276841
	H401	H	0.608885	0.528242	0.268750
	O402	O	1.680339	0.433939	0.556902
	H403	H	1.696400	0.436831	0.578608
	H404	H	1.681577	0.401582	0.548520
	O405	O	0.262488	0.295227	0.516658
	H406	H	0.263157	0.301708	0.549185
	H407	H	0.237697	0.270568	0.538175
	O408	O	1.185169	1.090140	0.874009
	H409	H	1.187002	1.092362	0.864637
	H410	H	1.186734	1.099760	0.874386
	O411	O	0.599524	0.528929	0.434585
	H412	H	0.595490	0.516376	0.443603
	H413	H	0.599515	0.514859	0.436051
	O414	O	-0.047781	-0.201359	0.200324
	H415	H	-0.065438	-0.209684	0.195352
	H416	H	-0.059551	-0.216566	0.216339
	O417	O	0.362077	0.718019	0.384511
	H418	H	0.370844	0.699246	0.370063
	H419	H	0.344871	0.733999	0.377770
	O420	O	1.003872	-0.032626	1.201715
	H421	H	0.991160	-0.028641	1.198298
	H422	H	0.985081	-0.040372	1.188592
	O423	O	1.286234	0.713831	0.288569
	H424	H	1.279811	0.716163	0.287833
	H425	H	1.282240	0.720526	0.282846
	O426	O	0.513985	0.651650	0.509379
	H427	H	0.523716	0.643512	0.499892
	H428	H	0.510782	0.666097	0.510648
	O429	O	0.474009	0.523881	0.404262
	H430	H	0.467060	0.525529	0.404041
	H431	H	0.472992	0.511239	0.399529
	O432	O	1.078460	-0.079635	0.988471
	H433	H	1.081868	-0.080010	0.972819
	H434	H	1.074034	-0.069589	0.978845
	O435	O	0.455529	0.434872	0.706764
	H436	H	0.464626	0.458614	0.706556
	H437	H	0.462327	0.443422	0.721747
	O438	O	0.486584	0.473327	0.504167
	H439	H	0.504870	0.461379	0.510951
	H440	H	0.467377	0.461853	0.499454
	O441	O	0.671958	0.414757	0.307635
	H442	H	0.680880	0.415125	0.316060
	H443	H	0.680282	0.420176	0.324400
	O444	O	0.692566	0.539214	0.708176
	H445	H	0.679313	0.571690	0.698123
	H446	H	0.723154	0.541356	0.733009
	O447	O	1.198754	0.229992	1.035229
	H448	H	1.212580	0.231305	1.035887
	H449	H	1.212697	0.244625	1.055586
	O450	O	1.700943	0.732710	0.518483
	H451	H	1.694148	0.730993	0.508026
	H452	H	1.722459	0.753201	0.522986
	O453	O	0.409261	0.310356	0.423205
	H454	H	0.408437	0.308300	0.454375
	H455	H	0.402701	0.324162	0.415270
	O456	O	0.090871	1.132004	1.119172
	H457	H	0.104655	1.121442	1.123809
	H458	H	0.082743	1.130377	1.112748
	O459	O	0.269161	0.618611	0.482179
	H460	H	0.281426	0.628143	0.498564
	H461	H	0.252263	0.619530	0.475636
	O462	O	0.673808	0.702442	0.681608
	H463	H	0.678416	0.693181	0.641560
	H464	H	0.642697	0.713334	0.694902
	O465	O	0.606659	0.304173	0.280463
	H466	H	0.585152	0.289450	0.264330
	H467	H	0.636947	0.304385	0.266990
	O468	O	0.312058	0.702383	0.659020
	H469	H	0.312257	0.695727	0.657924
	H470	H	0.308972	0.706301	0.658486
	O471	O	0.779126	0.888675	-0.133161
	H472	H	0.775798	0.909222	-0.108808
	H473	H	0.784685	0.875973	-0.123685
	O474	O	2.188864	1.041221	1.190925
	H475	H	2.176326	1.026836	1.199775
	H476	H	2.208019	1.026820	1.190415
	O477	O	0.484764	0.557297	0.639531
	H478	H	0.491806	0.549611	0.623047
	H479	H	0.490509	0.559510	0.635778
