data_Molecule from HDF5

_cell_length_a		16.211570
_cell_length_b		16.188581
_cell_length_c		16.102538
_cell_angle_alpha	90.135598
_cell_angle_beta	89.804798
_cell_angle_gamma	89.571533
_symmetry_space_group_name_H-M	'P 1'
_symmetry_Int_Tables_number		1

loop_
	_symmetry_equiv_pos_as_xyz
	x,y,z

loop_
	_atom_site_label
	_atom_site_type_symbol
	_atom_site_fract_x
	_atom_site_fract_y
	_atom_site_fract_z
	H0	H	0.407627	0.839837	0.709403
	H1	H	0.601288	0.169691	0.709623
	H2	H	0.605281	0.839812	0.281503
	H3	H	0.408041	0.170328	0.284205
	H4	H	0.720117	0.403847	0.833667
	H5	H	0.714038	0.604298	0.163682
	H6	H	0.288507	0.603738	0.833372
	H7	H	0.291841	0.408153	0.164215
	H8	H	0.840139	0.720621	0.401784
	H9	H	0.168965	0.718120	0.598978
	H10	H	0.839479	0.290143	0.599040
	H11	H	0.169197	0.290197	0.400639
	H12	H	0.837736	0.409983	0.711925
	H13	H	0.168288	0.601492	0.713618
	H14	H	0.839001	0.604293	0.287820
	H15	H	0.169111	0.405653	0.284034
	H16	H	0.404049	0.716331	0.831027
	H17	H	0.599892	0.719756	0.161319
	H18	H	0.603882	0.292132	0.831515
	H19	H	0.405746	0.291746	0.162774
	H20	H	0.722907	0.840219	0.394040
	H21	H	0.716937	0.169771	0.593649
	H22	H	0.292250	0.840215	0.595741
	H23	H	0.287640	0.168810	0.396087
	H24	H	0.907031	0.339486	0.212296
	H25	H	0.097926	0.671031	0.209920
	H26	H	0.102806	0.340257	0.785284
	H27	H	0.902397	0.670297	0.786445
	H28	H	0.219443	0.903484	0.331803
	H29	H	0.218858	0.103543	0.662552
	H30	H	0.792619	0.103895	0.331217
	H31	H	0.791419	0.908004	0.661670
	H32	H	0.340002	0.220575	0.897251
	H33	H	0.669107	0.218247	0.094860
	H34	H	0.338125	0.794892	0.093229
	H35	H	0.667495	0.786540	0.894711
	H36	H	0.340089	0.908704	0.210973
	H37	H	0.670291	0.102255	0.209570
	H38	H	0.339084	0.103130	0.783444
	H39	H	0.669987	0.906765	0.783788
	H40	H	0.905194	0.219687	0.333010
	H41	H	0.101646	0.216209	0.664402
	H42	H	0.104920	0.788244	0.332744
	H43	H	0.905910	0.793913	0.664139
	H44	H	0.219342	0.340877	0.898610
	H45	H	0.216586	0.669970	0.099695
	H46	H	0.787919	0.340109	0.100304
	H47	H	0.786863	0.668985	0.900774
	H48	H	0.401983	0.123320	0.583409
	H49	H	0.608053	0.884312	0.588015
	H50	H	0.601403	0.124622	0.400474
	H51	H	0.407389	0.886714	0.404946
	H52	H	0.598144	0.417410	0.115649
	H53	H	0.590229	0.602400	0.878068
	H54	H	0.419372	0.600772	0.114212
	H55	H	0.411819	0.421516	0.882702
	H56	H	0.124918	0.597847	0.397318
	H57	H	0.890886	0.589605	0.590156
	H58	H	0.123335	0.407391	0.598044
	H59	H	0.884852	0.409443	0.400660
	H60	H	0.120100	0.406862	0.587354
	H61	H	0.881819	0.602442	0.604507
	H62	H	0.122935	0.603747	0.409897
	H63	H	0.886243	0.407988	0.411777
	H64	H	0.404343	0.610376	0.121551
	H65	H	0.604476	0.595182	0.875664
	H66	H	0.589053	0.410292	0.114720
	H67	H	0.417400	0.405441	0.878401
	H68	H	0.595374	0.122381	0.400982
	H69	H	0.595124	0.885581	0.595254
	H70	H	0.409184	0.125747	0.598343
	H71	H	0.415119	0.885250	0.397316
	H72	H	0.905389	0.625093	0.098099
	H73	H	0.106514	0.387050	0.083648
	H74	H	0.095623	0.625489	0.898290
	H75	H	0.907508	0.386248	0.906215
	H76	H	0.097390	0.918053	0.614448
	H77	H	0.096465	0.105121	0.377136
	H78	H	0.902229	0.104008	0.620380
	H79	H	0.912013	0.907190	0.377429
	H80	H	0.621149	0.100064	0.907053
	H81	H	0.384696	0.105242	0.090027
	H82	H	0.623163	0.910162	0.091262
	H83	H	0.388359	0.922606	0.897964
	H84	H	0.623026	0.906496	0.085432
	H85	H	0.389483	0.096269	0.083844
	H86	H	0.621270	0.092899	0.900749
	H87	H	0.380752	0.902682	0.891998
	H88	H	0.908865	0.090502	0.614662
	H89	H	0.103492	0.094522	0.378283
	H90	H	0.094813	0.906709	0.617337
	H91	H	0.911426	0.915212	0.379089
	H92	H	0.088479	0.620946	0.909735
	H93	H	0.100583	0.383059	0.101909
	H94	H	0.910983	0.621413	0.092790
	H95	H	0.914008	0.386804	0.903606
	H96	H	0.418631	0.118958	0.586938
	H97	H	0.595538	0.889601	0.582355
	H98	H	0.600258	0.121243	0.406698
	H99	H	0.416405	0.889232	0.406834
	H100	H	0.598572	0.406326	0.119192
	H101	H	0.593107	0.586847	0.882299
	H102	H	0.402578	0.592265	0.116819
	H103	H	0.401770	0.410230	0.876204
	H104	H	0.119046	0.590345	0.408020
	H105	H	0.885832	0.609070	0.584830
	H106	H	0.119665	0.416716	0.591904
	H107	H	0.888587	0.417060	0.406720
	H108	H	0.902542	0.622727	0.090442
	H109	H	0.089153	0.391118	0.088668
	H110	H	0.102663	0.623990	0.910582
	H111	H	0.912732	0.389118	0.911274
	H112	H	0.104736	0.911339	0.617973
	H113	H	0.092073	0.094498	0.381535
	H114	H	0.918278	0.102559	0.616029
	H115	H	0.918497	0.912735	0.379728
	H116	H	0.624465	0.102543	0.897448
	H117	H	0.387774	0.094970	0.095373
	H118	H	0.620450	0.912971	0.085387
	H119	H	0.388426	0.907399	0.912822
	C120	C	0.382808	0.013651	0.618129
	C121	C	0.626676	0.995999	0.617344
	C122	C	0.628362	0.013620	0.373411
	C123	C	0.383667	0.995891	0.374547
	C124	C	0.625279	0.382778	0.006910
	C125	C	0.623232	0.624656	0.988073
	C126	C	0.380545	0.627874	0.007366
	C127	C	0.382534	0.383975	0.988677
	C128	C	0.013261	0.626373	0.377887
	C129	C	0.995310	0.627717	0.621822
	C130	C	0.012056	0.382593	0.621204
	C131	C	0.995566	0.382721	0.377080
	C132	C	0.879370	0.513639	0.122162
	C133	C	0.125330	0.496588	0.119961
	C134	C	0.125121	0.514042	0.877451
	C135	C	0.881993	0.496310	0.878492
	C136	C	0.127614	0.882224	0.507008
	C137	C	0.125517	0.125481	0.488958
	C138	C	0.882209	0.127309	0.506890
	C139	C	0.885102	0.884240	0.488251
	C140	C	0.513016	0.126805	0.873759
	C141	C	0.496293	0.126648	0.118156
	C142	C	0.513067	0.883147	0.116731
	C143	C	0.494989	0.881950	0.872965
	C144	C	0.387027	0.889166	0.672087
	C145	C	0.622152	0.120234	0.671733
	C146	C	0.626118	0.889164	0.318717
	C147	C	0.386747	0.120797	0.321008
	C148	C	0.681666	0.384644	0.882597
	C149	C	0.677167	0.624069	0.113518
	C150	C	0.326040	0.624397	0.882405
	C151	C	0.328743	0.387250	0.114103
	C152	C	0.889169	0.682422	0.381318
	C153	C	0.119535	0.680788	0.619080
	C154	C	0.888245	0.328163	0.619073
	C155	C	0.119829	0.327546	0.379754
	C156	C	0.887593	0.387570	0.675375
	C157	C	0.119363	0.623029	0.676259
	C158	C	0.888461	0.624401	0.324563
	C159	C	0.119854	0.385139	0.321991
	C160	C	0.383467	0.680303	0.881231
	C161	C	0.620558	0.681353	0.112525
	C162	C	0.624001	0.328792	0.881574
	C163	C	0.385212	0.329106	0.113464
	C164	C	0.684385	0.889505	0.374819
	C165	C	0.679753	0.120335	0.614154
	C166	C	0.329380	0.889413	0.615562
	C167	C	0.326998	0.119925	0.376656
	C168	C	0.884886	0.389051	0.175814
	C169	C	0.119895	0.621326	0.173942
	C170	C	0.122978	0.389803	0.822782
	C171	C	0.883194	0.620673	0.824099
	C172	C	0.182073	0.883740	0.381613
	C173	C	0.180515	0.122897	0.613546
	C174	C	0.829446	0.124137	0.381343
	C175	C	0.829030	0.887108	0.612791
	C176	C	0.388973	0.182457	0.876646
	C177	C	0.620157	0.180935	0.115167
	C178	C	0.388100	0.831288	0.113826
	C179	C	0.618656	0.825500	0.875032
	C180	C	0.389037	0.887925	0.172268
	C181	C	0.620916	0.122989	0.172065
	C182	C	0.388594	0.123747	0.820298
	C183	C	0.619926	0.885151	0.819839
	C184	C	0.885452	0.181810	0.382245
	C185	C	0.122448	0.179184	0.614423
	C186	C	0.125182	0.826457	0.382134
	C187	C	0.886493	0.830812	0.613821
	C188	C	0.181330	0.390159	0.878906
	C189	C	0.179071	0.620760	0.118845
	C190	C	0.825874	0.389357	0.119812
	C191	C	0.825151	0.619993	0.880836
	C192	C	0.403670	0.100321	0.595982
	C193	C	0.605755	0.908998	0.595068
	C194	C	0.605606	0.100295	0.395982
	C195	C	0.406248	0.909501	0.396574
	C196	C	0.602261	0.404755	0.094005
	C197	C	0.602025	0.601640	0.901270
	C198	C	0.402264	0.607309	0.094749
	C199	C	0.404047	0.405810	0.901532
	C200	C	0.099869	0.603905	0.398823
	C201	C	0.908539	0.606719	0.599837
	C202	C	0.098646	0.403945	0.598841
	C203	C	0.908926	0.404950	0.399435
	C204	C	0.900055	0.600539	0.100322
	C205	C	0.104783	0.409568	0.097956
	C206	C	0.102471	0.601088	0.899744
	C207	C	0.904823	0.409669	0.900469
	C208	C	0.105606	0.905344	0.594083
	C209	C	0.103707	0.104189	0.401711
	C210	C	0.903478	0.105568	0.594344
	C211	C	0.907553	0.905453	0.401407
	C212	C	0.599787	0.105070	0.895410
	C213	C	0.409623	0.105263	0.096503
	C214	C	0.599782	0.903797	0.094077
	C215	C	0.408213	0.904286	0.894487
	Zn216	Zn	0.504104	0.004402	0.745876
	Zn217	Zn	0.506051	0.004780	0.246475
	Zn218	Zn	0.751641	0.504406	-0.000929
	Zn219	Zn	0.253832	0.506148	-0.001248
	Zn220	Zn	0.005265	0.755498	0.498984
	Zn221	Zn	0.003906	0.253935	0.498643
	Zn222	Zn	0.003378	0.505458	0.749953
	Zn223	Zn	0.003633	0.505007	0.248592
	Zn224	Zn	0.502674	0.753770	-0.004521
	Zn225	Zn	0.504148	0.255717	-0.003409
	Zn226	Zn	0.756036	0.004462	0.495768
	Zn227	Zn	0.254743	0.004302	0.496693
	N228	N	0.419505	0.967547	0.673854
	N229	N	0.590149	0.041670	0.673967
	N230	N	0.592053	0.967423	0.317779
	N231	N	0.421377	0.042860	0.319763
	N232	N	0.682725	0.417356	0.961652
	N233	N	0.679039	0.589380	0.035352
	N234	N	0.323954	0.592581	0.961558
	N235	N	0.327095	0.420972	0.035629
	N236	N	0.967681	0.683641	0.413726
	N237	N	0.041407	0.683718	0.585982
	N238	N	0.966668	0.325138	0.586075
	N239	N	0.041666	0.325937	0.413272
	N240	N	0.965645	0.420729	0.676852
	N241	N	0.041015	0.590666	0.677927
	N242	N	0.966445	0.590190	0.322158
	N243	N	0.041457	0.418648	0.320123
	N244	N	0.416677	0.682741	0.959924
	N245	N	0.587838	0.681952	0.033670
	N246	N	0.589572	0.327375	0.959816
	N247	N	0.417969	0.326893	0.034610
	N248	N	0.686091	0.967959	0.408052
	N249	N	0.682845	0.041854	0.581228
	N250	N	0.326770	0.967732	0.582503
	N251	N	0.325133	0.041383	0.409206
	N252	N	0.917432	0.467383	0.177282
	N253	N	0.086833	0.543041	0.174700
	N254	N	0.088982	0.467959	0.821520
	N255	N	0.917778	0.542745	0.822504
	N256	N	0.183902	0.917594	0.460237
	N257	N	0.182568	0.090317	0.534435
	N258	N	0.827346	0.090826	0.459858
	N259	N	0.827848	0.919852	0.533813
	N260	N	0.467395	0.184604	0.909288
	N261	N	0.541659	0.183151	0.082186
	N262	N	0.466208	0.828272	0.079922
	N263	N	0.540049	0.823277	0.907298
	N264	N	0.467846	0.919479	0.174457
	N265	N	0.543062	0.089834	0.173942
	N266	N	0.466764	0.089950	0.818318
	N267	N	0.542035	0.919542	0.818280
	N268	N	0.917551	0.183928	0.461455
	N269	N	0.088898	0.180952	0.535937
	N270	N	0.091921	0.825470	0.460954
	N271	N	0.920493	0.828821	0.535486
	N272	N	0.182815	0.468604	0.912092
	N273	N	0.182483	0.542270	0.085940
	N274	N	0.822189	0.467918	0.087285
	N275	N	0.824367	0.541718	0.914149
	O276	O	0.079507	0.062902	0.016070
	H277	H	0.080633	0.063962	0.022040
	H278	H	0.073538	0.061124	0.011188
	O279	O	0.543474	0.440711	0.502575
	H280	H	0.544902	0.445225	0.507827
	H281	H	0.549749	0.447503	0.506592
	O282	O	0.626243	0.503245	0.519843
	H283	H	0.628038	0.510182	0.512514
	H284	H	0.625271	0.501535	0.512382
	O285	O	1.032537	0.033829	1.051824
	H286	H	1.033228	0.033698	1.056512
	H287	H	1.041480	0.036016	1.048802
	O288	O	0.978027	-0.025747	0.005342
	H289	H	0.980168	-0.017750	0.009889
	H290	H	0.964130	-0.019888	0.005215
	O291	O	0.498845	0.618033	0.529209
	H292	H	0.504788	0.622325	0.544457
	H293	H	0.500418	0.618367	0.535814
	O294	O	0.972738	0.041138	1.004697
	H295	H	0.975979	0.032835	1.012919
	H296	H	0.975731	0.033800	1.012961
	O297	O	-0.022378	0.034279	-0.041589
	H298	H	-0.028226	0.030260	-0.034849
	H299	H	-0.013301	0.033026	-0.026492
	O300	O	0.463657	0.492550	0.448312
	H301	H	0.457047	0.475289	0.444196
	H302	H	0.467791	0.485367	0.440146
	O303	O	0.542404	0.429718	0.458305
	H304	H	0.539526	0.421910	0.471209
	H305	H	0.540472	0.441876	0.464016
	O306	O	1.087546	-0.058130	-0.049787
	H307	H	1.094788	-0.057457	-0.052856
	H308	H	1.085546	-0.054864	-0.053833
	O309	O	-0.087399	0.050655	0.993294
	H310	H	-0.074799	0.046920	1.007106
	H311	H	-0.081066	0.055941	0.995197
	O312	O	1.058757	0.951631	1.030903
	H313	H	1.070738	0.946020	1.032773
	H314	H	1.048861	0.958735	1.023268
	O315	O	0.494575	0.459293	0.441597
	H316	H	0.501579	0.455404	0.440634
	H317	H	0.504031	0.464973	0.445113
	O318	O	0.493188	0.523795	0.567548
	H319	H	0.505839	0.525200	0.553702
	H320	H	0.498549	0.526750	0.575268
	O321	O	0.004653	0.913976	0.935756
	H322	H	0.006984	0.908511	0.939836
	H323	H	0.012954	0.906517	0.924532
	O324	O	0.468121	0.476272	0.528361
	H325	H	0.474079	0.472151	0.509688
	H326	H	0.480622	0.474966	0.541471
	O327	O	0.564583	0.507103	0.406685
	H328	H	0.557709	0.503615	0.407729
	H329	H	0.569434	0.505544	0.403583
	O330	O	0.514703	0.459786	0.521576
	H331	H	0.515761	0.450150	0.544876
	H332	H	0.511405	0.453897	0.514532
	O333	O	0.436043	0.397691	0.570689
	H334	H	0.430491	0.396867	0.566598
	H335	H	0.443750	0.397533	0.571596
	O336	O	0.564174	0.517979	0.503272
	H337	H	0.559118	0.511529	0.497271
	H338	H	0.555793	0.521815	0.493447
	O339	O	0.981485	1.018688	-0.004123
	H340	H	0.980907	1.025560	-0.008590
	H341	H	0.977644	1.016624	-0.012163
	O342	O	0.452872	0.595876	0.502181
	H343	H	0.448131	0.603443	0.509977
	H344	H	0.453234	0.599248	0.514720
	O345	O	0.539768	0.577373	0.453201
	H346	H	0.539031	0.575084	0.450148
	H347	H	0.524725	0.578673	0.444525
	O348	O	0.100342	0.039512	-0.020612
	H349	H	0.105403	0.040269	-0.019230
	H350	H	0.102715	0.035146	-0.025445
	O351	O	-0.023659	1.022431	0.973900
	H352	H	-0.030308	1.015498	0.973482
	H353	H	-0.028426	1.027978	0.965391
	O354	O	0.440208	0.516023	0.501011
	H355	H	0.435253	0.513695	0.500811
	H356	H	0.436130	0.517090	0.487158
	O357	O	-0.075623	0.983188	0.965888
	H358	H	-0.087559	0.985389	0.961019
	H359	H	-0.081119	0.985481	0.962021
