data_Molecule from HDF5

_cell_length_a		16.241444
_cell_length_b		16.252946
_cell_length_c		16.467778
_cell_angle_alpha	90.086731
_cell_angle_beta	89.895093
_cell_angle_gamma	89.851480
_symmetry_space_group_name_H-M	'P 1'
_symmetry_Int_Tables_number		1

loop_
	_symmetry_equiv_pos_as_xyz
	x,y,z

loop_
	_atom_site_label
	_atom_site_type_symbol
	_atom_site_fract_x
	_atom_site_fract_y
	_atom_site_fract_z
	H0	H	0.386847	0.841076	0.717774
	H1	H	0.597549	0.160827	0.720490
	H2	H	0.593606	0.840867	0.280251
	H3	H	0.385356	0.163096	0.277983
	H4	H	0.715542	0.398954	0.838887
	H5	H	0.708682	0.602117	0.161042
	H6	H	0.271293	0.607892	0.840475
	H7	H	0.272935	0.397166	0.158095
	H8	H	0.829734	0.716524	0.401977
	H9	H	0.153630	0.719900	0.601560
	H10	H	0.830587	0.285953	0.603295
	H11	H	0.154180	0.282744	0.397567
	H12	H	0.832849	0.397972	0.721893
	H13	H	0.153130	0.608030	0.719293
	H14	H	0.832534	0.609130	0.279752
	H15	H	0.153041	0.395328	0.279130
	H16	H	0.392997	0.718565	0.836946
	H17	H	0.597490	0.724461	0.156802
	H18	H	0.597923	0.282593	0.837142
	H19	H	0.390214	0.280946	0.156837
	H20	H	0.708476	0.841013	0.397155
	H21	H	0.707122	0.164545	0.600253
	H22	H	0.275387	0.839094	0.597688
	H23	H	0.272990	0.163538	0.396326
	H24	H	0.888687	0.341742	0.220998
	H25	H	0.098402	0.663298	0.221287
	H26	H	0.104548	0.344179	0.776534
	H27	H	0.888273	0.663699	0.782159
	H28	H	0.210052	0.897085	0.338520
	H29	H	0.213322	0.106045	0.657986
	H30	H	0.775783	0.104219	0.338095
	H31	H	0.771403	0.901630	0.658688
	H32	H	0.330496	0.221449	0.895559
	H33	H	0.654414	0.218063	0.098734
	H34	H	0.330120	0.785747	0.096098
	H35	H	0.655512	0.786324	0.895418
	H36	H	0.330840	0.895797	0.217167
	H37	H	0.651390	0.107940	0.218866
	H38	H	0.330272	0.107003	0.778406
	H39	H	0.651581	0.894128	0.775977
	H40	H	0.889480	0.222123	0.340369
	H41	H	0.097552	0.222857	0.659155
	H42	H	0.092774	0.781969	0.339378
	H43	H	0.888678	0.784872	0.660461
	H44	H	0.212418	0.341507	0.897903
	H45	H	0.210943	0.665077	0.102064
	H46	H	0.777182	0.340040	0.101543
	H47	H	0.778592	0.665221	0.902642
	H48	H	0.400476	0.115645	0.585241
	H49	H	0.586392	0.885573	0.585383
	H50	H	0.568466	0.115370	0.405748
	H51	H	0.402943	0.886572	0.405580
	H52	H	0.586098	0.414525	0.110793
	H53	H	0.592268	0.595121	0.881924
	H54	H	0.403933	0.591466	0.111107
	H55	H	0.403689	0.411204	0.884284
	H56	H	0.108230	0.591517	0.410929
	H57	H	0.873260	0.600629	0.592627
	H58	H	0.109510	0.408192	0.588083
	H59	H	0.878593	0.414051	0.413366
	H60	H	0.104705	0.417453	0.585750
	H61	H	0.880040	0.587855	0.586266
	H62	H	0.107616	0.589989	0.410622
	H63	H	0.879796	0.417368	0.410864
	H64	H	0.406669	0.596978	0.111801
	H65	H	0.586690	0.587782	0.886218
	H66	H	0.579455	0.408002	0.111034
	H67	H	0.402425	0.416294	0.885968
	H68	H	0.587154	0.117232	0.416855
	H69	H	0.576203	0.886333	0.591537
	H70	H	0.400575	0.118326	0.591284
	H71	H	0.399774	0.886703	0.406888
	H72	H	0.903133	0.616719	0.089198
	H73	H	0.081972	0.391568	0.080394
	H74	H	0.083909	0.619001	0.907422
	H75	H	0.905861	0.389312	0.916931
	H76	H	0.081584	0.903875	0.614253
	H77	H	0.084490	0.091969	0.384743
	H78	H	0.896767	0.092877	0.614050
	H79	H	0.904936	0.916496	0.389441
	H80	H	0.606117	0.089358	0.909326
	H81	H	0.376862	0.091329	0.086833
	H82	H	0.610687	0.909094	0.094806
	H83	H	0.375390	0.908895	0.906584
	H84	H	0.606751	0.909830	0.082069
	H85	H	0.376407	0.090188	0.088046
	H86	H	0.605969	0.087079	0.904780
	H87	H	0.377379	0.912364	0.908933
	H88	H	0.901340	0.091292	0.612229
	H89	H	0.079205	0.088143	0.388385
	H90	H	0.089474	0.915388	0.613871
	H91	H	0.903862	0.901367	0.384628
	H92	H	0.077097	0.616801	0.909731
	H93	H	0.092563	0.383258	0.094827
	H94	H	0.900221	0.619601	0.093799
	H95	H	0.900900	0.384511	0.906875
	H96	H	0.405877	0.116070	0.588917
	H97	H	0.576743	0.890662	0.580897
	H98	H	0.586080	0.123145	0.396367
	H99	H	0.400436	0.884475	0.403855
	H100	H	0.587718	0.405820	0.113557
	H101	H	0.582448	0.596564	0.884749
	H102	H	0.400398	0.595927	0.113233
	H103	H	0.408052	0.414570	0.886915
	H104	H	0.108139	0.590786	0.409100
	H105	H	0.875622	0.588171	0.601214
	H106	H	0.108971	0.416296	0.594974
	H107	H	0.877629	0.414593	0.409055
	H108	H	0.906017	0.618159	0.094329
	H109	H	0.073531	0.388677	0.097299
	H110	H	0.081905	0.615639	0.914775
	H111	H	0.912418	0.387989	0.906619
	H112	H	0.076207	0.915893	0.609394
	H113	H	0.078433	0.095396	0.386791
	H114	H	0.900357	0.096353	0.613857
	H115	H	0.891414	0.911392	0.381659
	H116	H	0.608440	0.092179	0.905909
	H117	H	0.376891	0.092419	0.087896
	H118	H	0.605693	0.921063	0.090328
	H119	H	0.376819	0.912839	0.903898
	C120	C	0.370806	0.010036	0.618916
	C121	C	0.611234	0.993764	0.618013
	C122	C	0.611876	0.011545	0.376197
	C123	C	0.369510	0.992932	0.375713
	C124	C	0.616433	0.378808	0.006224
	C125	C	0.616648	0.624166	0.990477
	C126	C	0.372432	0.624651	0.006704
	C127	C	0.372573	0.381822	0.990623
	C128	C	0.001227	0.622193	0.379670
	C129	C	0.983207	0.624009	0.623029
	C130	C	0.001756	0.381718	0.622167
	C131	C	0.984375	0.382045	0.379128
	C132	C	0.872222	0.511080	0.122548
	C133	C	0.114540	0.494524	0.122068
	C134	C	0.114444	0.511491	0.878841
	C135	C	0.873953	0.493960	0.879842
	C136	C	0.113017	0.879696	0.507207
	C137	C	0.113738	0.123581	0.491521
	C138	C	0.869444	0.124790	0.507870
	C139	C	0.868632	0.879960	0.490819
	C140	C	0.500428	0.122061	0.875856
	C141	C	0.483245	0.122743	0.118749
	C142	C	0.500628	0.881416	0.118998
	C143	C	0.483320	0.880507	0.875582
	C144	C	0.368874	0.888717	0.677559
	C145	C	0.614545	0.113788	0.679112
	C146	C	0.613029	0.889666	0.318618
	C147	C	0.367123	0.114730	0.317560
	C148	C	0.675765	0.379345	0.886572
	C149	C	0.671529	0.622713	0.111973
	C150	C	0.312487	0.625591	0.887272
	C151	C	0.313005	0.379333	0.110295
	C152	C	0.878747	0.679173	0.380758
	C153	C	0.105023	0.681838	0.622030
	C154	C	0.879641	0.324217	0.622750
	C155	C	0.105862	0.322332	0.378735
	C156	C	0.880813	0.379891	0.682018
	C157	C	0.104980	0.625919	0.680368
	C158	C	0.880386	0.625478	0.320235
	C159	C	0.105196	0.378254	0.319605
	C160	C	0.372644	0.681201	0.885650
	C161	C	0.616103	0.683608	0.109889
	C162	C	0.617353	0.321233	0.885826
	C163	C	0.371287	0.321345	0.109738
	C164	C	0.669949	0.889682	0.376768
	C165	C	0.668884	0.115660	0.619064
	C166	C	0.313433	0.887953	0.617977
	C167	C	0.311039	0.114896	0.376234
	C168	C	0.870876	0.389707	0.181286
	C169	C	0.116728	0.615303	0.181501
	C170	C	0.119931	0.391687	0.817691
	C171	C	0.870876	0.615494	0.821585
	C172	C	0.170974	0.878483	0.386808
	C173	C	0.173501	0.124631	0.610722
	C174	C	0.813180	0.124483	0.386824
	C175	C	0.810430	0.881367	0.611167
	C176	C	0.378599	0.181702	0.876029
	C177	C	0.605300	0.180144	0.118677
	C178	C	0.378662	0.823951	0.116836
	C179	C	0.606017	0.823782	0.875728
	C180	C	0.379217	0.878610	0.177204
	C181	C	0.603788	0.125308	0.178615
	C182	C	0.378510	0.124658	0.818042
	C183	C	0.604258	0.877743	0.816161
	C184	C	0.870222	0.183009	0.387876
	C185	C	0.115905	0.183034	0.611196
	C186	C	0.112670	0.820944	0.387366
	C187	C	0.868746	0.823134	0.611841
	C188	C	0.174270	0.390265	0.878021
	C189	C	0.172625	0.616264	0.122183
	C190	C	0.815297	0.388769	0.121916
	C191	C	0.816027	0.616141	0.881345
	C192	C	0.395290	0.094636	0.595456
	C193	C	0.586675	0.909526	0.593141
	C194	C	0.587639	0.096546	0.399547
	C195	C	0.394002	0.908131	0.398673
	C196	C	0.591639	0.402691	0.089987
	C197	C	0.593693	0.600050	0.906199
	C198	C	0.396716	0.601233	0.090394
	C199	C	0.397421	0.406998	0.907381
	C200	C	0.085919	0.597720	0.403381
	C201	C	0.898188	0.599440	0.599875
	C202	C	0.085876	0.406793	0.597087
	C203	C	0.900537	0.407980	0.403964
	C204	C	0.896023	0.595994	0.099315
	C205	C	0.089830	0.409961	0.097783
	C206	C	0.088443	0.595246	0.903711
	C207	C	0.899196	0.409308	0.903425
	C208	C	0.089123	0.904468	0.590902
	C209	C	0.088048	0.099012	0.408213
	C210	C	0.892667	0.100726	0.591539
	C211	C	0.893118	0.903012	0.407127
	C212	C	0.584764	0.096811	0.899697
	C213	C	0.398745	0.098291	0.094582
	C214	C	0.585545	0.906202	0.095832
	C215	C	0.398567	0.904723	0.899556
	Zn216	Zn	0.491683	0.000956	0.747419
	Zn217	Zn	0.490794	0.002624	0.247576
	Zn218	Zn	0.745345	0.501836	0.000378
	Zn219	Zn	0.242530	0.503270	-0.000112
	Zn220	Zn	-0.008508	0.750300	0.500711
	Zn221	Zn	-0.008044	0.253190	0.500493
	Zn222	Zn	-0.006329	0.503066	0.750777
	Zn223	Zn	-0.006933	0.503032	0.250654
	Zn224	Zn	0.494005	0.753968	-0.003081
	Zn225	Zn	0.492554	0.250562	-0.003424
	Zn226	Zn	0.740261	0.003168	0.498182
	Zn227	Zn	0.242700	0.001452	0.497959
	N228	N	0.403659	0.965742	0.678411
	N229	N	0.579239	0.037075	0.678440
	N230	N	0.577830	0.966535	0.318019
	N231	N	0.402537	0.037847	0.316803
	N232	N	0.675489	0.414215	0.962759
	N233	N	0.671688	0.586319	0.036665
	N234	N	0.311979	0.591348	0.963521
	N235	N	0.313658	0.416180	0.035127
	N236	N	0.954738	0.677335	0.416989
	N237	N	0.028169	0.680761	0.587254
	N238	N	0.955849	0.324931	0.586421
	N239	N	0.029594	0.324303	0.414913
	N240	N	0.957773	0.414916	0.681753
	N241	N	0.028147	0.590563	0.681058
	N242	N	0.957789	0.590845	0.319501
	N243	N	0.028842	0.414649	0.319737
	N244	N	0.409423	0.680530	0.960904
	N245	N	0.582956	0.684771	0.033122
	N246	N	0.581429	0.320532	0.961427
	N247	N	0.407774	0.322850	0.034371
	N248	N	0.669676	0.966638	0.411600
	N249	N	0.666948	0.040019	0.581651
	N250	N	0.314522	0.964340	0.582391
	N251	N	0.312374	0.038277	0.411465
	N252	N	0.905531	0.466795	0.181772
	N253	N	0.081699	0.538314	0.181798
	N254	N	0.083342	0.467862	0.817955
	N255	N	0.905903	0.538341	0.820384
	N256	N	0.171458	0.914360	0.462444
	N257	N	0.172399	0.088737	0.535123
	N258	N	0.812456	0.089109	0.462461
	N259	N	0.810218	0.915850	0.534899
	N260	N	0.455349	0.180255	0.911089
	N261	N	0.529411	0.178640	0.081917
	N262	N	0.455406	0.825522	0.081506
	N263	N	0.529912	0.825115	0.911671
	N264	N	0.456196	0.913546	0.178763
	N265	N	0.526824	0.090371	0.178633
	N266	N	0.455138	0.088474	0.817497
	N267	N	0.526841	0.912402	0.815783
	N268	N	0.904305	0.183468	0.464158
	N269	N	0.079300	0.182518	0.535964
	N270	N	0.077513	0.821489	0.463332
	N271	N	0.904099	0.821919	0.535857
	N272	N	0.170914	0.465793	0.915537
	N273	N	0.171618	0.539889	0.086253
	N274	N	0.816075	0.465109	0.086098
	N275	N	0.817677	0.539519	0.916691
	O276	O	0.665968	0.468254	0.364978
	H277	H	0.668688	0.464065	0.369843
	H278	H	0.677442	0.462965	0.353636
	O279	O	0.561607	0.432943	0.661378
	H280	H	0.572192	0.426870	0.659657
	H281	H	0.554733	0.427798	0.663830
	O282	O	0.295379	0.412739	0.697108
	H283	H	0.287587	0.400198	0.689995
	H284	H	0.286477	0.409863	0.692242
	O285	O	0.959727	-0.148158	0.193125
	H286	H	0.982228	-0.160735	0.192344
	H287	H	0.973075	-0.147921	0.189011
	O288	O	-0.081188	-0.053324	1.136818
	H289	H	-0.107033	-0.061072	1.151790
	H290	H	-0.061064	-0.084020	1.128177
	O291	O	0.575570	0.417860	0.399899
	H292	H	0.586086	0.422702	0.404449
	H293	H	0.586800	0.423758	0.385152
	O294	O	0.659658	0.586183	0.623703
	H295	H	0.658618	0.588027	0.639110
	H296	H	0.657482	0.595973	0.625935
	O297	O	1.172917	0.942740	0.983523
	H298	H	1.162737	0.934674	0.976751
	H299	H	1.192134	0.956035	0.998530
	O300	O	-0.041063	-0.010891	0.110429
	H301	H	-0.050489	-0.009803	0.118035
	H302	H	-0.039218	-0.016413	0.103578
	O303	O	0.539428	0.579785	0.586578
	H304	H	0.530332	0.574816	0.579045
	H305	H	0.540278	0.576713	0.585301
	O306	O	0.945628	-0.139663	0.039799
	H307	H	0.942201	-0.146207	0.055366
	H308	H	0.938342	-0.137004	0.042679
	O309	O	0.530847	0.633838	0.412958
	H310	H	0.551163	0.621649	0.426780
	H311	H	0.544063	0.645337	0.400795
	O312	O	0.931035	1.021992	-0.146916
	H313	H	0.921585	1.015412	-0.146847
	H314	H	0.920580	1.019388	-0.163043
	O315	O	0.392061	0.555556	0.303572
	H316	H	0.402065	0.577525	0.300379
	H317	H	0.397782	0.557967	0.311381
	O318	O	0.409951	0.318737	0.691801
	H319	H	0.409826	0.318608	0.688981
	H320	H	0.399588	0.304429	0.684103
	O321	O	1.113827	-0.118643	0.814277
	H322	H	1.112873	-0.113737	0.831027
	H323	H	1.124075	-0.126773	0.808806
	O324	O	0.174501	0.077613	1.006108
	H325	H	0.166321	0.072416	0.991747
	H326	H	0.174107	0.090287	0.996405
	O327	O	0.358770	0.345665	0.424602
	H328	H	0.347963	0.353923	0.412017
	H329	H	0.372459	0.341262	0.419966
	O330	O	0.422662	0.482797	0.598131
	H331	H	0.424950	0.465844	0.582561
	H332	H	0.417096	0.474307	0.591843
	O333	O	0.863477	0.965882	0.896987
	H334	H	0.877867	0.979389	0.899509
	H335	H	0.863283	0.978439	0.886313
	O336	O	0.312266	0.525074	0.357934
	H337	H	0.301188	0.522105	0.352778
	H338	H	0.308481	0.533382	0.359911
	O339	O	1.032722	-0.181130	1.055041
	H340	H	1.030996	-0.172565	1.056714
	H341	H	1.041849	-0.173547	1.032369
	O342	O	-0.149176	0.913837	1.067094
	H343	H	-0.154813	0.930006	1.057804
	H344	H	-0.123879	0.925192	1.077071
	O345	O	0.588186	0.592924	0.591726
	H346	H	0.578404	0.586480	0.593588
	H347	H	0.586361	0.589568	0.605490
	O348	O	0.670288	0.535658	0.485098
	H349	H	0.666067	0.528534	0.498422
	H350	H	0.676488	0.556601	0.480493
	O351	O	0.046454	0.171552	0.131097
	H352	H	0.045303	0.169284	0.095107
	H353	H	0.044742	0.179302	0.146153
	O354	O	1.117400	1.050778	0.011708
	H355	H	1.121977	1.040400	0.006144
	H356	H	1.124476	1.059043	0.015063
	O357	O	0.068614	1.127929	0.115601
	H358	H	0.065562	1.132186	0.103730
	H359	H	0.066652	1.134481	0.109665
	O360	O	0.324211	0.668924	0.411886
	H361	H	0.348193	0.668430	0.406946
	H362	H	0.314886	0.642680	0.398876
	O363	O	0.582970	0.629305	0.337866
	H364	H	0.604320	0.631101	0.340400
	H365	H	0.578456	0.626863	0.352692
	O366	O	0.545690	0.566515	0.474456
	H367	H	0.554100	0.573656	0.483438
	H368	H	0.543063	0.553671	0.479868
	O369	O	0.528862	0.340602	0.338649
	H370	H	0.516567	0.370985	0.332960
	H371	H	0.524478	0.336840	0.335271
	O372	O	0.411550	0.453572	0.505488
	H373	H	0.401998	0.470567	0.496482
	H374	H	0.424352	0.444606	0.515307
	O375	O	0.379369	0.598068	0.673976
	H376	H	0.380321	0.587810	0.653648
	H377	H	0.394387	0.588345	0.668985
	O378	O	0.321171	0.646926	0.450063
	H379	H	0.314673	0.652046	0.430445
	H380	H	0.311679	0.645129	0.423002
	O381	O	0.618875	0.301660	0.555704
	H382	H	0.619804	0.297111	0.542871
	H383	H	0.640845	0.285194	0.543270
	O384	O	-0.070825	0.842909	0.821383
	H385	H	-0.047609	0.841645	0.825988
	H386	H	-0.073078	0.827982	0.800012
	O387	O	0.905337	1.051348	0.103226
	H388	H	0.919782	1.048993	0.091796
	H389	H	0.890270	1.063218	0.090118
	O390	O	0.433819	0.539289	0.547065
	H391	H	0.436159	0.558362	0.539898
	H392	H	0.428075	0.532416	0.533309
	O393	O	0.850623	0.008839	0.916769
	H394	H	0.856794	-0.011248	0.935674
	H395	H	0.854140	0.010897	0.922244
	O396	O	0.061437	1.189570	0.973897
	H397	H	0.068761	1.184793	0.946585
	H398	H	0.046257	1.192638	0.955789
	O399	O	0.627493	0.334261	0.312507
	H400	H	0.628802	0.336269	0.305692
	H401	H	0.615802	0.341147	0.318850
	O402	O	1.048044	-0.157505	0.970330
	H403	H	1.026990	-0.167894	0.973986
	H404	H	1.055075	-0.150921	0.987873
	O405	O	-0.151075	0.134063	0.108636
	H406	H	-0.135786	0.137287	0.106571
	H407	H	-0.155120	0.114256	0.131775
	O408	O	0.810062	1.177342	0.851690
	H409	H	0.810373	1.179825	0.888589
	H410	H	0.804631	1.169877	0.846770
	O411	O	0.963994	0.837815	0.000919
	H412	H	0.955751	0.838114	-0.013576
	H413	H	0.979815	0.838245	0.000822
	O414	O	-0.004252	0.208232	0.825967
	H415	H	-0.018001	0.217596	0.797461
	H416	H	-0.017850	0.205352	0.823577
	O417	O	1.135467	-0.041559	0.801115
	H418	H	1.138278	-0.043521	0.787252
	H419	H	1.144389	-0.051608	0.792921
	O420	O	0.189586	1.065318	0.186569
	H421	H	0.197943	1.080536	0.190983
	H422	H	0.189380	1.066065	0.198749
	O423	O	1.452611	0.409612	-0.463912
	H424	H	1.455422	0.413108	-0.455040
	H425	H	1.458062	0.399499	-0.455783
	O426	O	-0.158554	0.127613	1.042033
	H427	H	-0.161244	0.139463	1.053116
	H428	H	-0.160853	0.122905	1.047062
	O429	O	0.543815	0.619402	0.553552
	H430	H	0.545472	0.623780	0.559998
	H431	H	0.535927	0.611854	0.553904
