data_Molecule from HDF5

_cell_length_a		16.142581
_cell_length_b		16.194579
_cell_length_c		16.282575
_cell_angle_alpha	90.370102
_cell_angle_beta	89.861253
_cell_angle_gamma	89.771516
_symmetry_space_group_name_H-M	'P 1'
_symmetry_Int_Tables_number		1

loop_
	_symmetry_equiv_pos_as_xyz
	x,y,z

loop_
	_atom_site_label
	_atom_site_type_symbol
	_atom_site_fract_x
	_atom_site_fract_y
	_atom_site_fract_z
	H0	H	0.402175	0.835772	0.713218
	H1	H	0.600030	0.164558	0.716282
	H2	H	0.603259	0.836098	0.282363
	H3	H	0.401221	0.163980	0.286793
	H4	H	0.717231	0.401549	0.836288
	H5	H	0.714367	0.599125	0.164295
	H6	H	0.288128	0.597703	0.835452
	H7	H	0.289261	0.404984	0.163732
	H8	H	0.837090	0.712839	0.403888
	H9	H	0.167463	0.712906	0.598009
	H10	H	0.836758	0.287513	0.599250
	H11	H	0.166195	0.284843	0.399653
	H12	H	0.837976	0.402552	0.715766
	H13	H	0.167006	0.600647	0.714656
	H14	H	0.837894	0.601134	0.286216
	H15	H	0.166001	0.399407	0.284602
	H16	H	0.404069	0.713825	0.835742
	H17	H	0.601093	0.716788	0.163114
	H18	H	0.603028	0.283148	0.836152
	H19	H	0.402175	0.288760	0.163496
	H20	H	0.716357	0.835233	0.400335
	H21	H	0.713271	0.165595	0.598430
	H22	H	0.289691	0.834981	0.594973
	H23	H	0.288238	0.164634	0.403049
	H24	H	0.901892	0.336404	0.214396
	H25	H	0.100671	0.664341	0.215968
	H26	H	0.105164	0.337907	0.783022
	H27	H	0.902038	0.665795	0.787395
	H28	H	0.215513	0.901457	0.335347
	H29	H	0.214611	0.099555	0.663003
	H30	H	0.786841	0.098289	0.335621
	H31	H	0.787274	0.903616	0.664028
	H32	H	0.336275	0.213187	0.904087
	H33	H	0.666243	0.215160	0.099971
	H34	H	0.337803	0.788385	0.097435
	H35	H	0.667198	0.787129	0.901791
	H36	H	0.337512	0.902133	0.212957
	H37	H	0.666063	0.099905	0.215119
	H38	H	0.336378	0.100304	0.787014
	H39	H	0.666286	0.899634	0.784729
	H40	H	0.901704	0.215219	0.335837
	H41	H	0.100516	0.216150	0.662186
	H42	H	0.101807	0.783710	0.336450
	H43	H	0.903504	0.788033	0.664400
	H44	H	0.215344	0.335825	0.902277
	H45	H	0.214832	0.665014	0.098693
	H46	H	0.787822	0.336776	0.098280
	H47	H	0.788188	0.665897	0.904629
	H48	H	0.411938	0.119042	0.602459
	H49	H	0.598943	0.881832	0.591943
	H50	H	0.588829	0.117194	0.401894
	H51	H	0.403761	0.881353	0.407634
	H52	H	0.600883	0.403715	0.119462
	H53	H	0.607476	0.598199	0.877625
	H54	H	0.418474	0.594147	0.113544
	H55	H	0.397957	0.414958	0.880914
	H56	H	0.119775	0.591234	0.408460
	H57	H	0.884476	0.590768	0.597179
	H58	H	0.120961	0.411022	0.598173
	H59	H	0.885096	0.407584	0.413419
	H60	H	0.121503	0.400485	0.591038
	H61	H	0.882215	0.597113	0.596519
	H62	H	0.119984	0.590518	0.406646
	H63	H	0.885526	0.414316	0.405370
	H64	H	0.404966	0.605003	0.119590
	H65	H	0.594863	0.580443	0.886531
	H66	H	0.595167	0.414533	0.114504
	H67	H	0.421935	0.410599	0.887349
	H68	H	0.591319	0.114720	0.413451
	H69	H	0.591762	0.881470	0.596576
	H70	H	0.413214	0.114676	0.588613
	H71	H	0.410966	0.880485	0.398681
	H72	H	0.911847	0.616287	0.091083
	H73	H	0.101829	0.379351	0.097984
	H74	H	0.088644	0.617672	0.905236
	H75	H	0.911540	0.382650	0.902526
	H76	H	0.088437	0.910047	0.614402
	H77	H	0.089219	0.092897	0.383160
	H78	H	0.906561	0.097421	0.617210
	H79	H	0.909120	0.909421	0.384177
	H80	H	0.618836	0.094573	0.911294
	H81	H	0.383332	0.098607	0.090847
	H82	H	0.618386	0.915314	0.093086
	H83	H	0.387699	0.916668	0.911745
	H84	H	0.623449	0.904220	0.098123
	H85	H	0.385249	0.089306	0.092260
	H86	H	0.616910	0.086433	0.908718
	H87	H	0.379890	0.908376	0.895370
	H88	H	0.906915	0.091468	0.615731
	H89	H	0.097640	0.097370	0.379934
	H90	H	0.095689	0.899096	0.619196
	H91	H	0.912038	0.903873	0.383324
	H92	H	0.095277	0.617167	0.913859
	H93	H	0.087848	0.383293	0.095668
	H94	H	0.904163	0.619470	0.093992
	H95	H	0.914677	0.385992	0.909589
	H96	H	0.398842	0.119623	0.593311
	H97	H	0.592167	0.884710	0.588777
	H98	H	0.601042	0.119809	0.406064
	H99	H	0.414702	0.885202	0.408365
	H100	H	0.587614	0.404015	0.115708
	H101	H	0.584430	0.601445	0.883725
	H102	H	0.401853	0.587368	0.116336
	H103	H	0.408417	0.392330	0.878457
	H104	H	0.120780	0.592077	0.406975
	H105	H	0.885218	0.594154	0.591470
	H106	H	0.117002	0.410968	0.586240
	H107	H	0.881643	0.404309	0.404105
	H108	H	0.911364	0.619033	0.099409
	H109	H	0.097506	0.384972	0.084807
	H110	H	0.098753	0.620960	0.904599
	H111	H	0.906387	0.383447	0.909829
	H112	H	0.102539	0.911807	0.617532
	H113	H	0.097334	0.087555	0.382987
	H114	H	0.912204	0.094751	0.615079
	H115	H	0.905812	0.904350	0.382282
	H116	H	0.621014	0.092094	0.903217
	H117	H	0.381812	0.094828	0.099635
	H118	H	0.619741	0.905683	0.085354
	H119	H	0.382193	0.897011	0.912522
	C120	C	0.379518	0.008803	0.622150
	C121	C	0.622519	0.991724	0.621525
	C122	C	0.623196	0.008312	0.377937
	C123	C	0.380526	0.991312	0.377910
	C124	C	0.624184	0.378052	0.008376
	C125	C	0.623613	0.622079	0.991191
	C126	C	0.380054	0.622981	0.008176
	C127	C	0.380693	0.378888	0.991054
	C128	C	0.011000	0.620764	0.379447
	C129	C	0.993566	0.622125	0.622635
	C130	C	0.010792	0.379378	0.621235
	C131	C	0.992657	0.378699	0.377895
	C132	C	0.880198	0.509616	0.122747
	C133	C	0.123714	0.491508	0.121876
	C134	C	0.123789	0.509703	0.878466
	C135	C	0.881375	0.492503	0.879121
	C136	C	0.124167	0.877784	0.508475
	C137	C	0.123004	0.121650	0.490423
	C138	C	0.879394	0.122744	0.508083
	C139	C	0.880222	0.878327	0.491594
	C140	C	0.510199	0.120892	0.879371
	C141	C	0.492540	0.122821	0.122808
	C142	C	0.511517	0.880192	0.120756
	C143	C	0.492785	0.878555	0.877697
	C144	C	0.382064	0.884937	0.675905
	C145	C	0.620476	0.115403	0.677909
	C146	C	0.622299	0.884863	0.321607
	C147	C	0.381853	0.115018	0.324100
	C148	C	0.679670	0.380246	0.885083
	C149	C	0.677183	0.619616	0.115152
	C150	C	0.325667	0.618835	0.884583
	C151	C	0.326609	0.383615	0.114711
	C152	C	0.886456	0.675870	0.382879
	C153	C	0.117974	0.676376	0.619049
	C154	C	0.886404	0.324970	0.619590
	C155	C	0.116918	0.322905	0.379698
	C156	C	0.887012	0.382170	0.677446
	C157	C	0.117922	0.620234	0.676809
	C158	C	0.886962	0.620515	0.324142
	C159	C	0.116784	0.379713	0.322353
	C160	C	0.383361	0.676484	0.884572
	C161	C	0.620955	0.678245	0.114526
	C162	C	0.622575	0.321583	0.885274
	C163	C	0.382755	0.325780	0.114491
	C164	C	0.678780	0.884448	0.380073
	C165	C	0.676497	0.116024	0.618941
	C166	C	0.326357	0.884451	0.616942
	C167	C	0.325531	0.115251	0.381866
	C168	C	0.882054	0.385683	0.176883
	C169	C	0.121306	0.615162	0.177817
	C170	C	0.123413	0.386411	0.821979
	C171	C	0.882546	0.616551	0.824944
	C172	C	0.178549	0.880513	0.384661
	C173	C	0.177188	0.119616	0.614032
	C174	C	0.824359	0.119180	0.384538
	C175	C	0.825409	0.882630	0.615276
	C176	C	0.385556	0.175566	0.883043
	C177	C	0.616917	0.177374	0.120089
	C178	C	0.386917	0.825869	0.118035
	C179	C	0.617617	0.823968	0.880729
	C180	C	0.387033	0.882558	0.175363
	C181	C	0.616873	0.120107	0.177357
	C182	C	0.385757	0.119549	0.824917
	C183	C	0.617007	0.879952	0.822595
	C184	C	0.881409	0.177143	0.384584
	C185	C	0.120321	0.177555	0.613571
	C186	C	0.121783	0.822179	0.385159
	C187	C	0.882932	0.825144	0.615477
	C188	C	0.178800	0.385464	0.881051
	C189	C	0.177755	0.615625	0.119449
	C190	C	0.825094	0.385842	0.119234
	C191	C	0.825715	0.616727	0.883028
	C192	C	0.401442	0.095511	0.601079
	C193	C	0.600860	0.905143	0.599123
	C194	C	0.600395	0.094858	0.400635
	C195	C	0.403018	0.904492	0.398666
	C196	C	0.601438	0.400884	0.094342
	C197	C	0.601975	0.599912	0.904938
	C198	C	0.402059	0.601977	0.094367
	C199	C	0.402792	0.399682	0.904486
	C200	C	0.097780	0.597918	0.400941
	C201	C	0.906574	0.600501	0.601383
	C202	C	0.097560	0.401077	0.598530
	C203	C	0.906232	0.401840	0.400809
	C204	C	0.902714	0.595849	0.101180
	C205	C	0.102259	0.404664	0.099361
	C206	C	0.100768	0.596112	0.901145
	C207	C	0.904217	0.406392	0.900766
	C208	C	0.102083	0.900312	0.594754
	C209	C	0.101228	0.099112	0.404307
	C210	C	0.901707	0.101016	0.593698
	C211	C	0.902383	0.899485	0.405634
	C212	C	0.596528	0.097788	0.901275
	C213	C	0.405925	0.100933	0.100772
	C214	C	0.598141	0.902063	0.098709
	C215	C	0.405768	0.900813	0.899934
	Zn216	Zn	0.501304	0.000112	0.750496
	Zn217	Zn	0.501830	0.000306	0.249904
	Zn218	Zn	0.752539	0.501273	0.000674
	Zn219	Zn	0.252156	0.500208	-0.000334
	Zn220	Zn	0.002001	0.749089	0.500421
	Zn221	Zn	0.001512	0.250907	0.499091
	Zn222	Zn	0.002845	0.501101	0.750247
	Zn223	Zn	0.001865	0.500447	0.250764
	Zn224	Zn	0.502175	0.751618	-0.000432
	Zn225	Zn	0.501369	0.249734	0.000322
	Zn226	Zn	0.751319	0.000258	0.499667
	Zn227	Zn	0.252242	0.000102	0.499394
	N228	N	0.414430	0.963418	0.679176
	N229	N	0.587770	0.037166	0.679586
	N230	N	0.588715	0.963058	0.320185
	N231	N	0.415300	0.036860	0.321558
	N232	N	0.680885	0.414665	0.962520
	N233	N	0.678754	0.585500	0.037620
	N234	N	0.323469	0.586267	0.962431
	N235	N	0.325276	0.416153	0.036819
	N236	N	0.964452	0.676101	0.416486
	N237	N	0.039576	0.677616	0.585915
	N238	N	0.964325	0.323191	0.585331
	N239	N	0.038783	0.322346	0.413688
	N240	N	0.965518	0.415204	0.678603
	N241	N	0.039703	0.587090	0.679027
	N242	N	0.965395	0.586656	0.322064
	N243	N	0.038578	0.413852	0.321159
	N244	N	0.416563	0.679115	0.962346
	N245	N	0.588352	0.679946	0.036463
	N246	N	0.589107	0.320019	0.963109
	N247	N	0.415682	0.322832	0.036418
	N248	N	0.679202	0.962260	0.414556
	N249	N	0.677887	0.037977	0.584522
	N250	N	0.324688	0.962567	0.584076
	N251	N	0.324717	0.037257	0.414833
	N252	N	0.915478	0.463821	0.179347
	N253	N	0.088243	0.537036	0.179241
	N254	N	0.089643	0.464695	0.820636
	N255	N	0.916240	0.538405	0.822273
	N256	N	0.180151	0.914387	0.462325
	N257	N	0.179208	0.085652	0.536399
	N258	N	0.822815	0.085992	0.462191
	N259	N	0.823541	0.915054	0.537359
	N260	N	0.463804	0.176510	0.916265
	N261	N	0.538606	0.179342	0.086985
	N262	N	0.465159	0.824424	0.084366
	N263	N	0.539244	0.823019	0.914277
	N264	N	0.465401	0.915517	0.177126
	N265	N	0.538597	0.087029	0.179084
	N266	N	0.464267	0.086143	0.822557
	N267	N	0.538462	0.913257	0.820806
	N268	N	0.915032	0.179314	0.462150
	N269	N	0.087196	0.178806	0.535835
	N270	N	0.088836	0.820207	0.463259
	N271	N	0.916368	0.822435	0.537682
	N272	N	0.178962	0.463033	0.915662
	N273	N	0.179527	0.537598	0.085477
	N274	N	0.823899	0.463745	0.086351
	N275	N	0.824788	0.538695	0.916124
	O276	O	0.980722	1.020683	-0.050495
	H277	H	0.978609	1.020130	-0.045634
	H278	H	0.983043	1.024552	-0.055267
	O279	O	0.011383	-0.008817	-0.046570
	H280	H	0.019838	-0.003539	-0.048812
	H281	H	0.008986	-0.002381	-0.035897
	O282	O	0.007108	0.021770	0.971359
	H283	H	-0.001533	0.020395	0.972481
	H284	H	0.011586	0.011797	0.968564
	O285	O	0.533123	0.454799	0.511936
	H286	H	0.539263	0.452448	0.512948
	H287	H	0.538018	0.455325	0.517861
	O288	O	0.514866	0.488186	0.438582
	H289	H	0.511174	0.490167	0.429542
	H290	H	0.517934	0.483436	0.438353
	O291	O	0.571792	0.469547	0.460595
	H292	H	0.580436	0.477830	0.456531
	H293	H	0.574199	0.463061	0.450382
	O294	O	-0.398377	-0.509462	0.500127
	H295	H	-0.401339	-0.504277	0.495496
	H296	H	-0.384252	-0.510220	0.497468
	O297	O	0.543590	0.435106	0.472592
	H298	H	0.540970	0.429233	0.473063
	H299	H	0.544373	0.423011	0.474746
	O300	O	0.014465	1.002514	0.986086
	H301	H	0.013682	1.004117	0.975086
	H302	H	0.011147	1.005176	0.983454
	O303	O	0.582769	0.445040	0.477848
	H304	H	0.582155	0.457830	0.488870
	H305	H	0.581836	0.446791	0.474580
	O306	O	-0.056030	0.052359	0.942687
	H307	H	-0.050387	0.056587	0.945041
	H308	H	-0.057371	0.044243	0.944474
	O309	O	0.962760	1.080075	0.930329
	H310	H	0.961212	1.085739	0.923236
	H311	H	0.966967	1.085038	0.931133
	O312	O	0.560696	0.539304	0.460621
	H313	H	0.556673	0.537459	0.467359
	H314	H	0.556010	0.543318	0.454908
	O315	O	0.515769	0.551872	0.508770
	H316	H	0.512189	0.549941	0.515775
	H317	H	0.518712	0.555570	0.512714
	O318	O	0.019032	1.055928	-0.071353
	H319	H	0.018329	1.059232	-0.069161
	H320	H	0.023265	1.049999	-0.076855
	O321	O	1.007954	0.978871	-0.046469
	H322	H	1.007195	0.975419	-0.053301
	H323	H	1.001055	0.982207	-0.045485
