data_Molecule from HDF5

_cell_length_a		16.108232
_cell_length_b		16.306568
_cell_length_c		16.245239
_cell_angle_alpha	89.829271
_cell_angle_beta	90.351607
_cell_angle_gamma	89.843983
_symmetry_space_group_name_H-M	'P 1'
_symmetry_Int_Tables_number		1

loop_
	_symmetry_equiv_pos_as_xyz
	x,y,z

loop_
	_atom_site_label
	_atom_site_type_symbol
	_atom_site_fract_x
	_atom_site_fract_y
	_atom_site_fract_z
	H0	H	0.408252	0.840716	0.722838
	H1	H	0.605174	0.168192	0.721371
	H2	H	0.604549	0.840585	0.292574
	H3	H	0.404677	0.167266	0.289832
	H4	H	0.717252	0.407277	0.840961
	H5	H	0.721248	0.600374	0.169982
	H6	H	0.292142	0.601775	0.840949
	H7	H	0.295279	0.407353	0.170996
	H8	H	0.841512	0.718008	0.405159
	H9	H	0.171731	0.715504	0.606171
	H10	H	0.841233	0.288196	0.604441
	H11	H	0.171011	0.289140	0.408272
	H12	H	0.839723	0.404970	0.717655
	H13	H	0.171442	0.599651	0.720107
	H14	H	0.841305	0.602132	0.290711
	H15	H	0.170770	0.404307	0.293959
	H16	H	0.403804	0.721998	0.843562
	H17	H	0.606587	0.717729	0.170873
	H18	H	0.604306	0.289250	0.842504
	H19	H	0.406570	0.289343	0.169660
	H20	H	0.716754	0.839174	0.412491
	H21	H	0.721272	0.167716	0.605151
	H22	H	0.295032	0.838757	0.603110
	H23	H	0.291584	0.167443	0.408453
	H24	H	0.908721	0.339088	0.220770
	H25	H	0.106439	0.666134	0.222583
	H26	H	0.104433	0.338905	0.793538
	H27	H	0.904683	0.666221	0.788505
	H28	H	0.218547	0.905404	0.341203
	H29	H	0.218567	0.097790	0.670631
	H30	H	0.792231	0.100549	0.341384
	H31	H	0.794490	0.905468	0.671283
	H32	H	0.340311	0.217548	0.906621
	H33	H	0.671024	0.216502	0.106155
	H34	H	0.341696	0.789982	0.106407
	H35	H	0.670531	0.788643	0.908547
	H36	H	0.340913	0.907399	0.218878
	H37	H	0.670944	0.100898	0.219869
	H38	H	0.340993	0.103237	0.791348
	H39	H	0.672137	0.906025	0.795229
	H40	H	0.903867	0.219543	0.341976
	H41	H	0.106375	0.217117	0.669497
	H42	H	0.105734	0.787615	0.342617
	H43	H	0.907289	0.786488	0.669847
	H44	H	0.218493	0.338519	0.912272
	H45	H	0.220282	0.667437	0.103784
	H46	H	0.794535	0.338708	0.102042
	H47	H	0.790768	0.666783	0.906610
	H48	H	0.404945	0.122033	0.596276
	H49	H	0.604222	0.888015	0.595986
	H50	H	0.600749	0.121554	0.412679
	H51	H	0.415885	0.886724	0.407227
	H52	H	0.607830	0.407191	0.126134
	H53	H	0.594070	0.598076	0.890656
	H54	H	0.418529	0.604696	0.124070
	H55	H	0.417719	0.413183	0.891088
	H56	H	0.126766	0.599578	0.408015
	H57	H	0.889683	0.594654	0.592710
	H58	H	0.123440	0.407039	0.593870
	H59	H	0.885525	0.412431	0.405056
	H60	H	0.123058	0.415209	0.603055
	H61	H	0.887805	0.593113	0.600919
	H62	H	0.123761	0.598589	0.422114
	H63	H	0.886117	0.402608	0.416665
	H64	H	0.405070	0.599285	0.126104
	H65	H	0.597099	0.599889	0.888921
	H66	H	0.598294	0.416918	0.120311
	H67	H	0.411834	0.403690	0.886810
	H68	H	0.597163	0.121531	0.410506
	H69	H	0.603961	0.884522	0.609668
	H70	H	0.415358	0.121340	0.606721
	H71	H	0.416375	0.889039	0.416504
	H72	H	0.906922	0.619973	0.094041
	H73	H	0.108932	0.384725	0.098714
	H74	H	0.101950	0.620786	0.910512
	H75	H	0.899011	0.381878	0.907941
	H76	H	0.095581	0.915545	0.620186
	H77	H	0.090925	0.100262	0.389206
	H78	H	0.916000	0.103708	0.624206
	H79	H	0.908378	0.908987	0.387800
	H80	H	0.621793	0.085379	0.914174
	H81	H	0.385397	0.101236	0.096753
	H82	H	0.620356	0.914013	0.089444
	H83	H	0.388195	0.912973	0.913428
	H84	H	0.625021	0.918634	0.109079
	H85	H	0.387649	0.096112	0.097188
	H86	H	0.628162	0.103406	0.904491
	H87	H	0.388457	0.912444	0.914469
	H88	H	0.908117	0.092835	0.623911
	H89	H	0.103054	0.101205	0.385819
	H90	H	0.095833	0.900943	0.623815
	H91	H	0.912930	0.912223	0.389712
	H92	H	0.093391	0.618950	0.909144
	H93	H	0.098426	0.385222	0.109354
	H94	H	0.914340	0.622198	0.107114
	H95	H	0.923449	0.386992	0.902227
	H96	H	0.418474	0.116938	0.593803
	H97	H	0.592278	0.889485	0.602496
	H98	H	0.597472	0.120431	0.414428
	H99	H	0.408021	0.886134	0.412656
	H100	H	0.593996	0.402711	0.123483
	H101	H	0.598055	0.596453	0.889512
	H102	H	0.416298	0.590411	0.120718
	H103	H	0.406454	0.414246	0.887165
	H104	H	0.122250	0.587641	0.412983
	H105	H	0.886808	0.600866	0.597616
	H106	H	0.126987	0.403492	0.604677
	H107	H	0.891193	0.417586	0.418179
	H108	H	0.921611	0.615872	0.095558
	H109	H	0.094975	0.390185	0.094947
	H110	H	0.097228	0.618344	0.917816
	H111	H	0.914872	0.390580	0.925358
	H112	H	0.108575	0.909028	0.625889
	H113	H	0.098382	0.090153	0.389664
	H114	H	0.920579	0.093029	0.619514
	H115	H	0.913491	0.906822	0.388977
	H116	H	0.622646	0.103753	0.924185
	H117	H	0.386382	0.098159	0.101419
	H118	H	0.628023	0.899087	0.102015
	H119	H	0.388925	0.913008	0.914283
	C120	C	0.384728	0.011969	0.627707
	C121	C	0.628529	0.995561	0.630012
	C122	C	0.626940	0.012698	0.384784
	C123	C	0.383765	0.995524	0.383465
	C124	C	0.627567	0.381446	0.014750
	C125	C	0.626720	0.625780	0.997845
	C126	C	0.383940	0.626498	0.014803
	C127	C	0.384675	0.382390	0.997419
	C128	C	0.015228	0.624449	0.384573
	C129	C	0.997607	0.623687	0.626419
	C130	C	0.014559	0.380805	0.627918
	C131	C	0.996912	0.382081	0.385380
	C132	C	0.885500	0.511238	0.127270
	C133	C	0.128987	0.494933	0.128911
	C134	C	0.126837	0.511135	0.884792
	C135	C	0.883230	0.494599	0.882867
	C136	C	0.128260	0.880535	0.514787
	C137	C	0.127053	0.124527	0.497155
	C138	C	0.884844	0.125285	0.514132
	C139	C	0.884470	0.880912	0.497865
	C140	C	0.514673	0.125818	0.885042
	C141	C	0.496548	0.125368	0.127317
	C142	C	0.515145	0.882756	0.128316
	C143	C	0.497451	0.883386	0.885721
	C144	C	0.387916	0.888998	0.683990
	C145	C	0.625949	0.119049	0.684079
	C146	C	0.624701	0.889336	0.330563
	C147	C	0.385049	0.118359	0.328053
	C148	C	0.680708	0.385801	0.890403
	C149	C	0.682902	0.621679	0.121403
	C150	C	0.329041	0.622946	0.890640
	C151	C	0.331772	0.386226	0.121639
	C152	C	0.890768	0.680058	0.385388
	C153	C	0.122132	0.678274	0.625750
	C154	C	0.890292	0.325917	0.624968
	C155	C	0.121762	0.326924	0.388300
	C156	C	0.889714	0.384184	0.681120
	C157	C	0.121861	0.620921	0.682525
	C158	C	0.890710	0.622359	0.328614
	C159	C	0.121687	0.384173	0.331600
	C160	C	0.384834	0.682451	0.891654
	C161	C	0.626206	0.680102	0.121661
	C162	C	0.624639	0.326934	0.891428
	C163	C	0.387461	0.327694	0.120899
	C164	C	0.680395	0.888641	0.390203
	C165	C	0.683398	0.119042	0.626137
	C166	C	0.331599	0.888134	0.624530
	C167	C	0.328437	0.118387	0.386760
	C168	C	0.888235	0.387980	0.182571
	C169	C	0.126505	0.617702	0.184270
	C170	C	0.124581	0.387752	0.831047
	C171	C	0.884854	0.617399	0.826922
	C172	C	0.181976	0.883898	0.390751
	C173	C	0.181914	0.119951	0.621098
	C174	C	0.829394	0.121842	0.390528
	C175	C	0.831389	0.884509	0.621954
	C176	C	0.389993	0.180391	0.886338
	C177	C	0.621390	0.179170	0.125856
	C178	C	0.390845	0.827974	0.126165
	C179	C	0.621660	0.827417	0.888574
	C180	C	0.390534	0.886073	0.182161
	C181	C	0.621385	0.122020	0.182707
	C182	C	0.390383	0.123512	0.829018
	C183	C	0.622241	0.885614	0.832179
	C184	C	0.885474	0.180889	0.390937
	C185	C	0.126251	0.178983	0.620643
	C186	C	0.125463	0.826031	0.391210
	C187	C	0.887568	0.825362	0.621103
	C188	C	0.181731	0.387598	0.889697
	C189	C	0.183116	0.618420	0.125214
	C190	C	0.831360	0.387811	0.123628
	C191	C	0.828483	0.617838	0.885862
	C192	C	0.406511	0.097821	0.605449
	C193	C	0.606727	0.909629	0.608944
	C194	C	0.604879	0.098853	0.406168
	C195	C	0.406679	0.909495	0.405573
	C196	C	0.606402	0.402687	0.101003
	C197	C	0.603330	0.604489	0.912023
	C198	C	0.406647	0.604686	0.101303
	C199	C	0.405783	0.404033	0.910632
	C200	C	0.101935	0.602023	0.407707
	C201	C	0.910537	0.602372	0.603703
	C202	C	0.101885	0.402297	0.606700
	C203	C	0.909966	0.404216	0.406934
	C204	C	0.907572	0.597272	0.105428
	C205	C	0.107294	0.408924	0.107304
	C206	C	0.104164	0.597034	0.906141
	C207	C	0.905635	0.408660	0.905180
	C208	C	0.106493	0.902116	0.600915
	C209	C	0.104161	0.103344	0.410675
	C210	C	0.908134	0.103101	0.600357
	C211	C	0.905487	0.902786	0.411191
	C212	C	0.601720	0.103827	0.907790
	C213	C	0.409120	0.104515	0.105104
	C214	C	0.602171	0.904220	0.106513
	C215	C	0.410769	0.906037	0.907628
	Zn216	Zn	0.506470	0.004475	0.757864
	Zn217	Zn	0.505768	0.004410	0.255070
	Zn218	Zn	0.755354	0.503341	0.005570
	Zn219	Zn	0.256602	0.503589	0.005946
	Zn220	Zn	0.006868	0.752355	0.505787
	Zn221	Zn	0.006220	0.254013	0.505607
	Zn222	Zn	0.005523	0.502811	0.754577
	Zn223	Zn	0.006710	0.502669	0.257167
	Zn224	Zn	0.505731	0.755301	0.006841
	Zn225	Zn	0.505526	0.253234	0.006485
	Zn226	Zn	0.756320	0.003621	0.506729
	Zn227	Zn	0.255305	0.002966	0.505277
	N228	N	0.420207	0.967029	0.686132
	N229	N	0.592703	0.041573	0.686548
	N230	N	0.592122	0.967527	0.327114
	N231	N	0.418739	0.040798	0.325894
	N232	N	0.682620	0.419115	0.968090
	N233	N	0.683539	0.588599	0.043528
	N234	N	0.328491	0.588940	0.968313
	N235	N	0.329966	0.419641	0.043806
	N236	N	0.969162	0.681491	0.419429
	N237	N	0.043793	0.679951	0.591313
	N238	N	0.968979	0.323715	0.592588
	N239	N	0.043234	0.325657	0.421238
	N240	N	0.968150	0.417288	0.683120
	N241	N	0.043559	0.587626	0.682994
	N242	N	0.968979	0.588290	0.328133
	N243	N	0.043274	0.417709	0.329658
	N244	N	0.418291	0.684780	0.969780
	N245	N	0.591751	0.682657	0.044080
	N246	N	0.592206	0.324268	0.969548
	N247	N	0.419744	0.325316	0.042766
	N248	N	0.681814	0.966215	0.423357
	N249	N	0.685565	0.041229	0.593423
	N250	N	0.329248	0.965508	0.590530
	N251	N	0.327674	0.040895	0.420517
	N252	N	0.920992	0.465673	0.184852
	N253	N	0.093638	0.539959	0.186506
	N254	N	0.091331	0.465601	0.827839
	N255	N	0.918203	0.539752	0.825079
	N256	N	0.183643	0.917321	0.468505
	N257	N	0.182505	0.086899	0.543228
	N258	N	0.828859	0.087862	0.468258
	N259	N	0.829455	0.918386	0.544444
	N260	N	0.468350	0.181819	0.920622
	N261	N	0.542727	0.181328	0.092159
	N262	N	0.469373	0.825766	0.093453
	N263	N	0.542993	0.826054	0.921315
	N264	N	0.468819	0.919413	0.183541
	N265	N	0.542671	0.089404	0.183620
	N266	N	0.468930	0.090395	0.828075
	N267	N	0.544158	0.919752	0.830540
	N268	N	0.919239	0.182949	0.468921
	N269	N	0.092761	0.181970	0.542605
	N270	N	0.092798	0.823709	0.469301
	N271	N	0.919552	0.822903	0.542640
	N272	N	0.183116	0.465339	0.922403
	N273	N	0.184690	0.541170	0.091629
	N274	N	0.829746	0.465373	0.089796
	N275	N	0.827305	0.540549	0.919900
	O276	O	0.528362	0.616844	0.456732
	H277	H	0.530763	0.616154	0.453108
	H278	H	0.545921	0.617073	0.461960
	O279	O	-0.015401	-0.054663	-0.041124
	H280	H	-0.019548	-0.058248	-0.051718
	H281	H	-0.018695	-0.054890	-0.037745
	O282	O	0.473759	0.566896	0.524681
	H283	H	0.474098	0.564895	0.517926
	H284	H	0.466776	0.574316	0.520357
	O285	O	0.545753	0.552852	0.470398
	H286	H	0.541594	0.554560	0.476460
	H287	H	0.546482	0.554234	0.471900
	O288	O	0.947492	0.013573	-0.077323
	H289	H	0.946981	0.007947	-0.078181
	H290	H	0.953460	0.016521	-0.066301
	O291	O	-0.563125	0.552364	-0.504706
	H292	H	-0.560757	0.555168	-0.516225
	H293	H	-0.558724	0.556860	-0.508856
	O294	O	0.524702	0.558064	0.541144
	H295	H	0.525896	0.558847	0.550402
	H296	H	0.516375	0.550949	0.550418
	O297	O	-0.022223	0.994641	-0.090162
	H298	H	-0.012245	1.001860	-0.092716
	H299	H	-0.023480	0.994941	-0.102218
	O300	O	1.007676	0.008118	0.917001
	H301	H	1.011555	0.013331	0.909324
	H302	H	1.016197	0.004450	0.925420
	O303	O	0.503922	0.519079	0.427068
	H304	H	0.504641	0.521411	0.428662
	H305	H	0.512434	0.521483	0.429279
	O306	O	0.001700	0.963626	0.878399
	H307	H	-0.009555	0.958584	0.872531
	H308	H	-0.006508	0.956465	0.876442
	O309	O	0.514344	0.553634	0.512661
	H310	H	0.508132	0.550513	0.511628
	H311	H	0.502293	0.557166	0.502714
