data_Molecule from HDF5

_cell_length_a		16.365273
_cell_length_b		16.458429
_cell_length_c		16.414850
_cell_angle_alpha	90.003913
_cell_angle_beta	90.086637
_cell_angle_gamma	90.003976
_symmetry_space_group_name_H-M	'P 1'
_symmetry_Int_Tables_number		1

loop_
	_symmetry_equiv_pos_as_xyz
	x,y,z

loop_
	_atom_site_label
	_atom_site_type_symbol
	_atom_site_fract_x
	_atom_site_fract_y
	_atom_site_fract_z
	H0	H	0.395739	0.844757	0.740492
	H1	H	0.614792	0.157481	0.737659
	H2	H	0.615434	0.844121	0.288539
	H3	H	0.397390	0.157154	0.290450
	H4	H	0.728454	0.393415	0.856928
	H5	H	0.730642	0.609815	0.170693
	H6	H	0.281752	0.606993	0.856652
	H7	H	0.283877	0.394784	0.172998
	H8	H	0.847081	0.723470	0.408236
	H9	H	0.161164	0.727192	0.624729
	H10	H	0.847726	0.276836	0.623367
	H11	H	0.162547	0.278671	0.407902
	H12	H	0.849077	0.391100	0.740498
	H13	H	0.162632	0.610666	0.738970
	H14	H	0.847815	0.611168	0.290994
	H15	H	0.163766	0.395882	0.294026
	H16	H	0.395602	0.724894	0.857641
	H17	H	0.615220	0.725898	0.170283
	H18	H	0.616484	0.274705	0.858092
	H19	H	0.398364	0.276588	0.171405
	H20	H	0.730500	0.844231	0.406328
	H21	H	0.726020	0.159474	0.618886
	H22	H	0.279231	0.845200	0.624790
	H23	H	0.282513	0.157783	0.407077
	H24	H	0.898296	0.343746	0.238203
	H25	H	0.112288	0.658990	0.236980
	H26	H	0.114294	0.345784	0.789897
	H27	H	0.896100	0.657877	0.790814
	H28	H	0.228074	0.894107	0.356170
	H29	H	0.229156	0.108425	0.670916
	H30	H	0.781053	0.109692	0.357091
	H31	H	0.781837	0.892816	0.670909
	H32	H	0.348635	0.224049	0.906091
	H33	H	0.662836	0.225124	0.124310
	H34	H	0.348449	0.776538	0.124309
	H35	H	0.661611	0.776467	0.906814
	H36	H	0.347894	0.893847	0.237028
	H37	H	0.662231	0.109724	0.239366
	H38	H	0.348727	0.108347	0.790581
	H39	H	0.663021	0.891868	0.792423
	H40	H	0.895477	0.225945	0.357740
	H41	H	0.115479	0.225713	0.670340
	H42	H	0.112868	0.777715	0.356829
	H43	H	0.896644	0.776312	0.670517
	H44	H	0.228246	0.344065	0.907649
	H45	H	0.228932	0.658515	0.122667
	H46	H	0.782262	0.343037	0.121255
	H47	H	0.782271	0.658343	0.908924
	H48	H	0.424699	0.107956	0.596204
	H49	H	0.591417	0.888189	0.604651
	H50	H	0.592350	0.111855	0.425465
	H51	H	0.417366	0.888024	0.425270
	H52	H	0.591120	0.415462	0.125364
	H53	H	0.592163	0.590661	0.900069
	H54	H	0.421885	0.592109	0.127210
	H55	H	0.421939	0.415389	0.904199
	H56	H	0.119581	0.593664	0.428834
	H57	H	0.893395	0.587171	0.601131
	H58	H	0.117425	0.412104	0.599747
	H59	H	0.891053	0.415404	0.423788
	H60	H	0.116667	0.416444	0.601015
	H61	H	0.891247	0.588945	0.602313
	H62	H	0.116979	0.585067	0.429833
	H63	H	0.890260	0.410464	0.426994
	H64	H	0.413826	0.590594	0.128827
	H65	H	0.593656	0.587022	0.901727
	H66	H	0.591056	0.411347	0.126268
	H67	H	0.418614	0.405407	0.899743
	H68	H	0.592625	0.112402	0.425061
	H69	H	0.594186	0.888894	0.599682
	H70	H	0.411387	0.114259	0.599114
	H71	H	0.418127	0.888271	0.426308
	H72	H	0.909608	0.616092	0.103747
	H73	H	0.094780	0.387038	0.107044
	H74	H	0.089410	0.612192	0.929179
	H75	H	0.921415	0.389821	0.926876
	H76	H	0.089036	0.910509	0.626240
	H77	H	0.092893	0.086774	0.401635
	H78	H	0.911846	0.086994	0.628466
	H79	H	0.921121	0.912493	0.401595
	H80	H	0.621522	0.092629	0.925755
	H81	H	0.394776	0.084812	0.100472
	H82	H	0.618174	0.910016	0.096323
	H83	H	0.393673	0.910973	0.934491
	H84	H	0.616404	0.918578	0.100381
	H85	H	0.390944	0.088772	0.104503
	H86	H	0.616938	0.087857	0.933027
	H87	H	0.393753	0.920869	0.925795
	H88	H	0.922334	0.086477	0.623759
	H89	H	0.089682	0.090459	0.402561
	H90	H	0.096524	0.912946	0.628024
	H91	H	0.916526	0.913327	0.400874
	H92	H	0.094908	0.613096	0.929760
	H93	H	0.091587	0.388987	0.104196
	H94	H	0.922002	0.614034	0.109457
	H95	H	0.917408	0.389197	0.929394
	H96	H	0.422462	0.114383	0.609513
	H97	H	0.596615	0.886651	0.604193
	H98	H	0.591948	0.113285	0.425549
	H99	H	0.416342	0.887743	0.426499
	H100	H	0.594689	0.413282	0.127717
	H101	H	0.589580	0.587969	0.903102
	H102	H	0.418534	0.584721	0.125361
	H103	H	0.411468	0.414371	0.900415
	H104	H	0.119887	0.588729	0.421436
	H105	H	0.892755	0.588813	0.600288
	H106	H	0.118787	0.413466	0.603768
	H107	H	0.893121	0.415105	0.429203
	H108	H	0.919666	0.609550	0.096733
	H109	H	0.095744	0.388335	0.102801
	H110	H	0.092232	0.614941	0.925226
	H111	H	0.917484	0.388300	0.924506
	H112	H	0.091385	0.918050	0.624642
	H113	H	0.093785	0.090536	0.399865
	H114	H	0.918491	0.095815	0.629719
	H115	H	0.919064	0.916503	0.403297
	H116	H	0.618559	0.083584	0.923905
	H117	H	0.392857	0.090868	0.098330
	H118	H	0.620393	0.911631	0.105757
	H119	H	0.389263	0.909035	0.922438
	C120	C	0.384483	0.009382	0.636371
	C121	C	0.627456	0.991870	0.635885
	C122	C	0.627110	0.009026	0.391885
	C123	C	0.383901	0.991668	0.392429
	C124	C	0.626899	0.379198	0.023059
	C125	C	0.626225	0.622186	1.005627
	C126	C	0.384010	0.622408	0.023049
	C127	C	0.384312	0.379139	1.005933
	C128	C	0.014275	0.622996	0.393172
	C129	C	0.996530	0.622619	0.635658
	C130	C	0.014059	0.379655	0.636001
	C131	C	0.996061	0.380534	0.393353
	C132	C	0.883273	0.509763	0.136896
	C133	C	0.127378	0.492357	0.137359
	C134	C	0.126238	0.509944	0.893828
	C135	C	0.884042	0.492552	0.893377
	C136	C	0.126787	0.879322	0.522744
	C137	C	0.126490	0.122956	0.505247
	C138	C	0.883941	0.123049	0.523136
	C139	C	0.884653	0.880341	0.505677
	C140	C	0.514875	0.121554	0.893536
	C141	C	0.496815	0.122080	0.135360
	C142	C	0.514261	0.879817	0.134795
	C143	C	0.496277	0.879436	0.893203
	C144	C	0.378792	0.891966	0.699429
	C145	C	0.631740	0.110213	0.697354
	C146	C	0.632221	0.891125	0.329863
	C147	C	0.380302	0.109989	0.330928
	C148	C	0.688460	0.375380	0.904251
	C149	C	0.689314	0.626360	0.123533
	C150	C	0.322304	0.625388	0.904298
	C151	C	0.323760	0.376376	0.125181
	C152	C	0.895214	0.684275	0.389660
	C153	C	0.114426	0.685846	0.641368
	C154	C	0.895582	0.317274	0.640802
	C155	C	0.115099	0.319153	0.389813
	C156	C	0.895982	0.374357	0.699091
	C157	C	0.115051	0.627509	0.698300
	C158	C	0.895418	0.627593	0.331640
	C159	C	0.115537	0.377654	0.333149
	C160	C	0.378984	0.684048	0.904702
	C161	C	0.631607	0.684360	0.123401
	C162	C	0.632625	0.316137	0.905348
	C163	C	0.380760	0.317674	0.124478
	C164	C	0.689538	0.891212	0.388572
	C165	C	0.687243	0.111119	0.637844
	C166	C	0.320770	0.892145	0.641473
	C167	C	0.323098	0.110503	0.389336
	C168	C	0.879937	0.391163	0.198212
	C169	C	0.129973	0.611448	0.197047
	C170	C	0.131420	0.392725	0.830752
	C171	C	0.879281	0.610907	0.831783
	C172	C	0.187946	0.876025	0.403826
	C173	C	0.188677	0.126254	0.623459
	C174	C	0.821961	0.126595	0.404530
	C175	C	0.822589	0.875908	0.623831
	C176	C	0.396013	0.183147	0.889228
	C177	C	0.615292	0.184310	0.140769
	C178	C	0.395749	0.817582	0.140349
	C179	C	0.614489	0.817103	0.889303
	C180	C	0.395321	0.875854	0.196712
	C181	C	0.615184	0.126671	0.198156
	C182	C	0.396092	0.125719	0.831295
	C183	C	0.615108	0.874515	0.832162
	C184	C	0.878606	0.185251	0.405184
	C185	C	0.131653	0.184717	0.623129
	C186	C	0.130422	0.818065	0.403991
	C187	C	0.879934	0.817772	0.623697
	C188	C	0.187971	0.391835	0.889802
	C189	C	0.188532	0.610964	0.140189
	C190	C	0.822282	0.390673	0.139818
	C191	C	0.822149	0.610960	0.890231
	C192	C	0.411594	0.090967	0.609383
	C193	C	0.601308	0.909460	0.610259
	C194	C	0.600071	0.091119	0.417978
	C195	C	0.409722	0.909413	0.418596
	C196	C	0.600158	0.405573	0.105081
	C197	C	0.599371	0.596046	0.923232
	C198	C	0.410576	0.596598	0.105662
	C199	C	0.409843	0.404557	0.923031
	C200	C	0.097133	0.596786	0.419482
	C201	C	0.914169	0.595992	0.608910
	C202	C	0.096188	0.406400	0.609352
	C203	C	0.913130	0.406084	0.419321
	C204	C	0.909581	0.591822	0.110823
	C205	C	0.101435	0.409632	0.112093
	C206	C	0.099720	0.592212	0.920496
	C207	C	0.910724	0.410569	0.919421
	C208	C	0.100115	0.906201	0.605054
	C209	C	0.099762	0.096643	0.422776
	C210	C	0.910065	0.097126	0.605852
	C211	C	0.911476	0.906660	0.423483
	C212	C	0.597576	0.095444	0.919792
	C213	C	0.414310	0.095744	0.108834
	C214	C	0.596650	0.906011	0.108524
	C215	C	0.413810	0.905995	0.919685
	Zn216	Zn	0.506653	0.000317	0.765039
	Zn217	Zn	0.505399	0.000390	0.263248
	Zn218	Zn	0.755271	0.500566	0.014221
	Zn219	Zn	0.255652	0.501024	0.014985
	Zn220	Zn	0.004996	0.750908	0.513976
	Zn221	Zn	0.004916	0.251671	0.514453
	Zn222	Zn	0.005093	0.502056	0.764455
	Zn223	Zn	0.005236	0.501932	0.265592
	Zn224	Zn	0.505048	0.751228	0.014551
	Zn225	Zn	0.505834	0.250543	0.014587
	Zn226	Zn	0.755854	0.001078	0.514167
	Zn227	Zn	0.255080	0.001026	0.513608
	N228	N	0.417710	0.965757	0.696248
	N229	N	0.595234	0.034898	0.696417
	N230	N	0.594090	0.965523	0.331849
	N231	N	0.417322	0.035102	0.332738
	N232	N	0.685275	0.413878	0.978460
	N233	N	0.685947	0.588212	0.049201
	N234	N	0.325351	0.587803	0.978932
	N235	N	0.325957	0.414056	0.050425
	N236	N	0.970100	0.681259	0.427342
	N237	N	0.039894	0.682868	0.603036
	N238	N	0.969881	0.320508	0.602302
	N239	N	0.039599	0.320692	0.426377
	N240	N	0.970617	0.412528	0.696438
	N241	N	0.040662	0.588790	0.694748
	N242	N	0.970662	0.590424	0.333388
	N243	N	0.040576	0.415070	0.335286
	N244	N	0.416430	0.682375	0.979742
	N245	N	0.592974	0.681697	0.049110
	N246	N	0.595268	0.318117	0.980248
	N247	N	0.417404	0.319075	0.049316
	N248	N	0.686418	0.965631	0.426188
	N249	N	0.685075	0.036537	0.600523
	N250	N	0.324122	0.966108	0.602755
	N251	N	0.325221	0.036074	0.427044
	N252	N	0.916985	0.466146	0.196621
	N253	N	0.092809	0.536650	0.195586
	N254	N	0.093872	0.467323	0.833135
	N255	N	0.916992	0.536328	0.833522
	N256	N	0.185997	0.913244	0.478885
	N257	N	0.185607	0.088364	0.548927
	N258	N	0.825203	0.088541	0.479098
	N259	N	0.825331	0.914066	0.549429
	N260	N	0.470949	0.180899	0.926993
	N261	N	0.540694	0.181463	0.102405
	N262	N	0.470544	0.819866	0.102520
	N263	N	0.539551	0.819921	0.926460
	N264	N	0.469900	0.913981	0.193423
	N265	N	0.540492	0.088648	0.194904
	N266	N	0.471136	0.088295	0.833703
	N267	N	0.540430	0.912742	0.834590
	N268	N	0.916506	0.183062	0.479803
	N269	N	0.093620	0.182489	0.548561
	N270	N	0.093261	0.820040	0.478901
	N271	N	0.917947	0.820585	0.549201
	N272	N	0.184864	0.465846	0.928306
	N273	N	0.187010	0.535793	0.103714
	N274	N	0.823986	0.465400	0.102705
	N275	N	0.825083	0.536369	0.927670
	O276	O	0.300985	0.533207	0.307746
	H277	H	0.314055	0.544115	0.314359
	H278	H	0.276183	0.533469	0.279417
	O279	O	1.222009	-0.215890	0.996435
	H280	H	1.257428	-0.244323	0.990321
	H281	H	1.212060	-0.204454	0.953496
	O282	O	-0.190929	1.061155	1.093845
	H283	H	-0.196159	1.031408	1.096597
	H284	H	-0.195627	1.035765	1.102092
	O285	O	-0.193870	0.799663	0.031628
	H286	H	-0.202402	0.782055	0.021072
	H287	H	-0.168677	0.798223	0.009797
	O288	O	1.321724	1.314372	-0.295140
	H289	H	1.312367	1.351495	-0.288568
	H290	H	1.311104	1.318481	-0.329869
	O291	O	0.336479	0.679848	0.358620
	H292	H	0.350904	0.657598	0.355092
	H293	H	0.347654	0.688619	0.384368
	O294	O	0.019209	-0.203823	0.808381
	H295	H	-0.001660	-0.182088	0.803397
	H296	H	0.018172	-0.208479	0.779153
	O297	O	0.308423	0.297783	0.528035
	H298	H	0.296973	0.272838	0.531137
	H299	H	0.328677	0.290948	0.509347
	O300	O	0.905389	0.960326	1.004509
	H301	H	0.898959	0.956154	0.990175
	H302	H	0.898870	0.965441	0.998136
	O303	O	0.721231	0.514431	0.482361
	H304	H	0.720565	0.524049	0.499458
	H305	H	0.724946	0.537574	0.469421
	O306	O	0.292656	0.713788	0.509637
	H307	H	0.301895	0.718276	0.507097
	H308	H	0.280681	0.743811	0.512331
	O309	O	1.217305	0.086295	-0.032813
	H310	H	1.218865	0.088294	-0.016932
	H311	H	1.208967	0.082279	-0.006920
	O312	O	0.036701	0.887906	1.216072
	H313	H	0.043527	0.880977	1.199582
	H314	H	0.035606	0.868247	1.227336
	O315	O	0.473714	0.320503	0.443207
	H316	H	0.493224	0.307596	0.447536
	H317	H	0.475821	0.325974	0.440338
	O318	O	0.982279	-0.071125	-0.087987
	H319	H	0.980856	-0.057929	-0.091834
	H320	H	0.978353	-0.067872	-0.084435
	O321	O	0.018448	0.211669	-0.198073
	H322	H	0.023829	0.223042	-0.213849
	H323	H	0.031414	0.217921	-0.182894
	O324	O	0.461686	0.401544	0.393416
	H325	H	0.464749	0.401344	0.391148
	H326	H	0.461776	0.395696	0.393705
	O327	O	0.302642	0.478991	0.726345
	H328	H	0.287873	0.490561	0.740827
	H329	H	0.292690	0.497119	0.705653
	O330	O	0.079435	0.800378	0.096905
	H331	H	0.104440	0.806506	0.083731
	H332	H	0.085006	0.817279	0.074697
	O333	O	0.549194	0.418523	0.693089
	H334	H	0.544349	0.419031	0.699286
	H335	H	0.550110	0.405689	0.690857
	O336	O	-0.175766	-0.107167	0.206929
	H337	H	-0.171545	-0.118390	0.210997
	H338	H	-0.161893	-0.132582	0.185367
	O339	O	-0.096864	0.854739	-0.029699
	H340	H	-0.084699	0.856483	-0.035876
	H341	H	-0.090499	0.856184	-0.053884
	O342	O	-0.157195	1.008456	1.224698
	H343	H	-0.187700	0.997714	1.246203
	H344	H	-0.152968	0.981026	1.217771
	O345	O	0.296131	0.444894	-0.553371
	H346	H	0.292648	0.452906	-0.572471
	H347	H	0.298344	0.412717	-0.552804
	O348	O	0.599478	0.532605	0.668912
	H349	H	0.596089	0.556150	0.659713
	H350	H	0.608921	0.529336	0.685286
	O351	O	0.201981	1.050689	1.210663
	H352	H	0.210922	1.054768	1.232842
	H353	H	0.185944	1.046430	1.200068
	O354	O	0.522574	0.357934	-0.611857
	H355	H	0.547148	0.359996	-0.607775
	H356	H	0.521564	0.340712	-0.600340
	O357	O	-0.204759	0.217158	0.989732
	H358	H	-0.237335	0.240601	0.995641
	H359	H	-0.209405	0.189158	1.018018
	O360	O	0.488096	0.282991	0.728829
	H361	H	0.448875	0.283942	0.725257
	H362	H	0.473921	0.257189	0.748849
	O363	O	0.019868	0.170272	1.180685
	H364	H	0.020488	0.187783	1.193728
	H365	H	-0.004090	0.153849	1.179925
	O366	O	0.462971	0.723583	0.590354
	H367	H	0.448488	0.715736	0.593786
	H368	H	0.481907	0.716351	0.584001
	O369	O	0.678801	0.314823	0.333878
	H370	H	0.681967	0.304803	0.371472
	H371	H	0.675466	0.340401	0.335139
	O372	O	0.962165	0.203025	1.056992
	H373	H	0.951576	0.207653	1.069326
	H374	H	0.952228	0.191095	1.046017
	O375	O	0.552235	0.461117	0.591202
	H376	H	0.543562	0.454808	0.604739
	H377	H	0.550975	0.459316	0.603764
	O378	O	0.681614	0.686634	0.678865
	H379	H	0.685266	0.673746	0.651379
	H380	H	0.650998	0.693182	0.686671
	O381	O	0.718521	0.491636	0.329114
	H382	H	0.743640	0.489737	0.300846
	H383	H	0.715612	0.480309	0.339517
	O384	O	0.500522	0.503953	0.430090
	H385	H	0.505191	0.497766	0.450583
	H386	H	0.512084	0.495261	0.417886
	O387	O	0.145242	0.194265	1.207202
	H388	H	0.136264	0.170259	1.199485
	H389	H	0.112527	0.211411	1.218318
	O390	O	0.222785	-0.027356	0.073947
	H391	H	0.219314	-0.028736	0.090818
	H392	H	0.226243	-0.054818	0.066226
	O393	O	0.785160	1.021307	0.795107
	H394	H	0.791367	1.067100	0.798995
	H395	H	0.755363	1.033794	0.763594
	O396	O	1.181822	-0.184514	-0.160746
	H397	H	1.132392	-0.194216	-0.169015
	H398	H	1.192096	-0.134572	-0.172202
	O399	O	1.192550	0.182412	1.036111
	H400	H	1.222417	0.197949	1.035496
	H401	H	1.188879	0.175889	1.055118
	O402	O	1.005324	1.053615	0.990573
	H403	H	1.013277	1.062164	1.002045
	H404	H	1.002549	1.059623	0.998420
	O405	O	0.916038	0.801115	0.211021
	H406	H	0.941643	0.780426	0.207187
	H407	H	0.923368	0.790195	0.185034
	O408	O	0.578166	-0.278243	0.443819
	H409	H	0.577082	-0.280356	0.440565
	H410	H	0.563043	-0.274618	0.420191
	O411	O	1.086269	1.210225	-0.064837
	H412	H	1.068003	1.206024	-0.052007
	H413	H	1.119572	1.212855	-0.046278
	O414	O	0.296152	0.553481	0.579087
	H415	H	0.291747	0.541859	0.553887
	H416	H	0.297362	0.574922	0.563023
	O417	O	0.496721	0.658465	0.303794
	H418	H	0.496229	0.658912	0.299578
	H419	H	0.508512	0.639464	0.292581
	O420	O	0.021349	0.017792	-0.200773
	H421	H	0.010736	0.029460	-0.209842
	H422	H	0.039557	0.015277	-0.180763
	O423	O	0.470278	0.555309	0.686459
	H424	H	0.466332	0.553053	0.690517
	H425	H	0.479380	0.556064	0.679103
	O426	O	0.711542	0.458745	0.625488
	H427	H	0.716524	0.466139	0.642452
	H428	H	0.708202	0.460849	0.633147
	O429	O	0.015875	1.031655	0.207055
	H430	H	0.009101	1.022822	0.215808
	H431	H	0.013316	1.025043	0.204313
	O432	O	0.699557	0.687315	0.534329
	H433	H	0.680331	0.672198	0.535901
	H434	H	0.702507	0.715074	0.533157
	O435	O	0.674656	0.329075	0.535696
	H436	H	0.681727	0.325390	0.545096
	H437	H	0.682138	0.334262	0.548146
	O438	O	-0.100605	-0.094068	-0.163199
	H439	H	-0.101313	-0.080552	-0.170679
	H440	H	-0.113167	-0.072258	-0.159263
	O441	O	1.208337	-0.022977	-0.195029
	H442	H	1.207598	-0.000501	-0.167949
	H443	H	1.234255	-0.016393	-0.216963
	O444	O	-0.172731	1.177084	0.830392
	H445	H	-0.118877	1.188432	0.820535
	H446	H	-0.183129	1.192831	0.883243
	O447	O	0.513910	0.407693	0.365151
	H448	H	0.509647	0.411999	0.365772
	H449	H	0.510419	0.396354	0.359209
	O450	O	0.552833	0.494697	0.310095
	H451	H	0.559924	0.496136	0.317784
	H452	H	0.547989	0.496694	0.298527
	O453	O	0.490820	0.697217	0.691580
	H454	H	0.490851	0.695904	0.709309
	H455	H	0.482553	0.707672	0.686526
