data_Molecule from HDF5

_cell_length_a		16.296032
_cell_length_b		16.103860
_cell_length_c		16.049498
_cell_angle_alpha	91.251750
_cell_angle_beta	91.319831
_cell_angle_gamma	91.299144
_symmetry_space_group_name_H-M	'P 1'
_symmetry_Int_Tables_number		1

loop_
	_symmetry_equiv_pos_as_xyz
	x,y,z

loop_
	_atom_site_label
	_atom_site_type_symbol
	_atom_site_fract_x
	_atom_site_fract_y
	_atom_site_fract_z
	H0	H	0.414171	0.837046	0.697023
	H1	H	0.615262	0.170294	0.712610
	H2	H	0.598939	0.839454	0.280430
	H3	H	0.416003	0.173268	0.286141
	H4	H	0.715142	0.403556	0.829857
	H5	H	0.730753	0.614927	0.160173
	H6	H	0.291346	0.595966	0.831682
	H7	H	0.297576	0.406023	0.163427
	H8	H	0.845341	0.708465	0.399070
	H9	H	0.172944	0.727387	0.606040
	H10	H	0.846694	0.286599	0.588927
	H11	H	0.175998	0.293431	0.401142
	H12	H	0.843474	0.407545	0.700699
	H13	H	0.173252	0.609278	0.719348
	H14	H	0.847168	0.596482	0.282585
	H15	H	0.174987	0.408230	0.285191
	H16	H	0.411109	0.704856	0.826652
	H17	H	0.613828	0.727134	0.160093
	H18	H	0.595930	0.291946	0.829158
	H19	H	0.412097	0.292802	0.162434
	H20	H	0.714568	0.837359	0.393894
	H21	H	0.734324	0.167282	0.602826
	H22	H	0.292953	0.840674	0.588341
	H23	H	0.294897	0.169806	0.392920
	H24	H	0.912914	0.336948	0.200844
	H25	H	0.113712	0.670300	0.216801
	H26	H	0.097548	0.339153	0.785795
	H27	H	0.913427	0.671560	0.787256
	H28	H	0.213854	0.905648	0.327822
	H29	H	0.234525	0.112681	0.659813
	H30	H	0.794555	0.096664	0.331437
	H31	H	0.796440	0.904487	0.661351
	H32	H	0.342912	0.208024	0.894913
	H33	H	0.671324	0.227989	0.101149
	H34	H	0.344085	0.790060	0.083911
	H35	H	0.672779	0.789964	0.894500
	H36	H	0.343748	0.906146	0.201720
	H37	H	0.672841	0.110928	0.214647
	H38	H	0.346820	0.094566	0.777575
	H39	H	0.675808	0.909670	0.784055
	H40	H	0.912899	0.208318	0.329124
	H41	H	0.116123	0.222793	0.662684
	H42	H	0.099330	0.788821	0.330572
	H43	H	0.917208	0.798116	0.665554
	H44	H	0.212975	0.338031	0.898327
	H45	H	0.232543	0.668670	0.106099
	H46	H	0.790591	0.341000	0.091747
	H47	H	0.794758	0.669844	0.896103
	H48	H	0.409723	0.129436	0.592008
	H49	H	0.608501	0.886350	0.575935
	H50	H	0.597057	0.119521	0.413254
	H51	H	0.406701	0.880924	0.380559
	H52	H	0.590832	0.411375	0.113762
	H53	H	0.603019	0.603592	0.873262
	H54	H	0.424425	0.607083	0.116618
	H55	H	0.410195	0.406087	0.877877
	H56	H	0.127085	0.604121	0.420134
	H57	H	0.889639	0.598274	0.598182
	H58	H	0.128550	0.417143	0.595578
	H59	H	0.893398	0.407274	0.397022
	H60	H	0.129460	0.414449	0.597658
	H61	H	0.889404	0.605472	0.589991
	H62	H	0.125266	0.589795	0.408714
	H63	H	0.892125	0.399621	0.398817
	H64	H	0.414645	0.599853	0.117768
	H65	H	0.609257	0.590692	0.875034
	H66	H	0.614102	0.412931	0.119887
	H67	H	0.404969	0.400402	0.875070
	H68	H	0.618771	0.125093	0.415833
	H69	H	0.610283	0.880119	0.595415
	H70	H	0.435573	0.122855	0.597445
	H71	H	0.424235	0.892358	0.401920
	H72	H	0.916999	0.626114	0.096691
	H73	H	0.099348	0.388438	0.080180
	H74	H	0.104853	0.623242	0.917432
	H75	H	0.911833	0.386197	0.897058
	H76	H	0.104646	0.921188	0.613748
	H77	H	0.106889	0.092559	0.375940
	H78	H	0.922561	0.092547	0.614667
	H79	H	0.913955	0.901918	0.378311
	H80	H	0.628831	0.111968	0.911341
	H81	H	0.388823	0.096076	0.096167
	H82	H	0.627711	0.918879	0.095200
	H83	H	0.394064	0.906553	0.898434
	H84	H	0.627095	0.911577	0.086900
	H85	H	0.388957	0.105392	0.086456
	H86	H	0.622812	0.094003	0.912387
	H87	H	0.391585	0.907658	0.887382
	H88	H	0.926923	0.098224	0.615033
	H89	H	0.097279	0.096617	0.378649
	H90	H	0.105573	0.916405	0.615912
	H91	H	0.905862	0.898797	0.374383
	H92	H	0.110711	0.625889	0.909213
	H93	H	0.114454	0.381003	0.092580
	H94	H	0.926237	0.622494	0.092988
	H95	H	0.909757	0.386907	0.903535
	H96	H	0.425816	0.118793	0.572702
	H97	H	0.592720	0.887221	0.588625
	H98	H	0.608678	0.128353	0.395637
	H99	H	0.397540	0.885496	0.407062
	H100	H	0.602765	0.431978	0.110895
	H101	H	0.594302	0.591698	0.879343
	H102	H	0.424932	0.593951	0.113028
	H103	H	0.402361	0.407196	0.875908
	H104	H	0.131776	0.605585	0.403641
	H105	H	0.894167	0.595004	0.588453
	H106	H	0.127537	0.413868	0.594811
	H107	H	0.895214	0.405917	0.403175
	H108	H	0.918014	0.623651	0.086040
	H109	H	0.096201	0.385337	0.099057
	H110	H	0.100461	0.624297	0.908215
	H111	H	0.905130	0.384123	0.898631
	H112	H	0.110010	0.920190	0.616195
	H113	H	0.105524	0.103443	0.373573
	H114	H	0.920059	0.099054	0.617806
	H115	H	0.908621	0.907479	0.376741
	H116	H	0.630612	0.100891	0.896756
	H117	H	0.393804	0.092175	0.084832
	H118	H	0.622863	0.921870	0.085209
	H119	H	0.390108	0.896541	0.892531
	C120	C	0.392613	0.013874	0.612986
	C121	C	0.635295	0.994233	0.618515
	C122	C	0.631031	0.014115	0.376462
	C123	C	0.385473	0.996690	0.370655
	C124	C	0.627492	0.386657	0.005134
	C125	C	0.633066	0.628670	0.985623
	C126	C	0.390375	0.623537	0.005053
	C127	C	0.382533	0.379676	0.987360
	C128	C	0.019617	0.624541	0.379125
	C129	C	1.000028	0.630276	0.623558
	C130	C	0.019200	0.384418	0.619116
	C131	C	1.002339	0.379775	0.373505
	C132	C	0.890013	0.514054	0.117279
	C133	C	0.134358	0.494949	0.122106
	C134	C	0.128747	0.514150	0.880175
	C135	C	0.884223	0.495986	0.873643
	C136	C	0.130098	0.886441	0.505130
	C137	C	0.135335	0.129052	0.486078
	C138	C	0.892679	0.122048	0.505504
	C139	C	0.885870	0.879418	0.487656
	C140	C	0.518579	0.125531	0.875429
	C141	C	0.499201	0.129899	0.120079
	C142	C	0.517156	0.886043	0.114234
	C143	C	0.501084	0.879248	0.868265
	C144	C	0.393954	0.887534	0.662096
	C145	C	0.635501	0.119875	0.675505
	C146	C	0.622009	0.888828	0.318515
	C147	C	0.393117	0.122797	0.320635
	C148	C	0.678326	0.385458	0.879316
	C149	C	0.691250	0.632145	0.110588
	C150	C	0.331296	0.616835	0.880573
	C151	C	0.332996	0.385145	0.113319
	C152	C	0.895095	0.673662	0.379582
	C153	C	0.123659	0.688355	0.624700
	C154	C	0.895507	0.325729	0.611453
	C155	C	0.126341	0.328832	0.379009
	C156	C	0.893605	0.386285	0.666628
	C157	C	0.123807	0.629657	0.681170
	C158	C	0.895998	0.617917	0.321360
	C159	C	0.125824	0.386026	0.321260
	C160	C	0.390925	0.671089	0.877872
	C161	C	0.633188	0.688314	0.110310
	C162	C	0.618976	0.329744	0.879197
	C163	C	0.389825	0.328674	0.112791
	C164	C	0.679505	0.887794	0.374990
	C165	C	0.694515	0.118436	0.620633
	C166	C	0.333671	0.889406	0.607937
	C167	C	0.332992	0.121076	0.373786
	C168	C	0.891790	0.387633	0.166696
	C169	C	0.133931	0.620309	0.179111
	C170	C	0.119980	0.388608	0.823601
	C171	C	0.891303	0.621502	0.822630
	C172	C	0.179008	0.885686	0.378559
	C173	C	0.194809	0.130650	0.610796
	C174	C	0.834314	0.117214	0.380606
	C175	C	0.834037	0.884557	0.612501
	C176	C	0.393264	0.173802	0.875331
	C177	C	0.622273	0.189069	0.120488
	C178	C	0.393182	0.828973	0.106331
	C179	C	0.624149	0.827115	0.873762
	C180	C	0.393017	0.886830	0.164955
	C181	C	0.623319	0.130807	0.176915
	C182	C	0.395119	0.117514	0.816411
	C183	C	0.625778	0.886682	0.818835
	C184	C	0.893525	0.172546	0.379513
	C185	C	0.136112	0.185645	0.612239
	C186	C	0.121868	0.827819	0.380025
	C187	C	0.893898	0.831439	0.614489
	C188	C	0.177776	0.388309	0.879387
	C189	C	0.193133	0.619318	0.124206
	C190	C	0.830949	0.389560	0.112281
	C191	C	0.832013	0.620533	0.876800
	C192	C	0.416641	0.101177	0.593374
	C193	C	0.610993	0.907044	0.594021
	C194	C	0.613591	0.101622	0.401263
	C195	C	0.404128	0.908898	0.390472
	C196	C	0.608339	0.411548	0.092439
	C197	C	0.609109	0.602997	0.898335
	C198	C	0.414342	0.605491	0.093185
	C199	C	0.400421	0.398706	0.899181
	C200	C	0.105901	0.605421	0.403581
	C201	C	0.913579	0.606607	0.599357
	C202	C	0.105974	0.408149	0.601373
	C203	C	0.915821	0.398686	0.393609
	C204	C	0.913541	0.601409	0.097776
	C205	C	0.110371	0.407517	0.097872
	C206	C	0.110739	0.601912	0.904379
	C207	C	0.903246	0.408418	0.893690
	C208	C	0.112214	0.911793	0.592615
	C209	C	0.110586	0.104645	0.398651
	C210	C	0.916437	0.102383	0.593209
	C211	C	0.904043	0.897501	0.399234
	C212	C	0.605081	0.107699	0.899695
	C213	C	0.412887	0.105147	0.096189
	C214	C	0.603659	0.910274	0.094976
	C215	C	0.414379	0.897868	0.887112
	Zn216	Zn	0.512197	0.004136	0.743732
	Zn217	Zn	0.509252	0.006966	0.247001
	Zn218	Zn	0.758644	0.505884	-0.004176
	Zn219	Zn	0.259484	0.503329	-0.001047
	Zn220	Zn	0.009035	0.755204	0.498690
	Zn221	Zn	0.011846	0.253073	0.497226
	Zn222	Zn	0.008418	0.506143	0.749686
	Zn223	Zn	0.011126	0.504098	0.247596
	Zn224	Zn	0.509794	0.753766	-0.007198
	Zn225	Zn	0.506465	0.255936	-0.003566
	Zn226	Zn	0.761333	0.001812	0.496440
	Zn227	Zn	0.260584	0.007007	0.493511
	N228	N	0.429954	0.965947	0.665368
	N229	N	0.599430	0.041629	0.674504
	N230	N	0.592691	0.968336	0.319130
	N231	N	0.425168	0.044216	0.318272
	N232	N	0.683409	0.420361	0.958546
	N233	N	0.691324	0.595738	0.032098
	N234	N	0.330871	0.587899	0.960741
	N235	N	0.328242	0.415923	0.034102
	N236	N	0.972983	0.678151	0.414939
	N237	N	0.045618	0.688935	0.589694
	N238	N	0.974532	0.324431	0.582802
	N239	N	0.048441	0.324500	0.410715
	N240	N	0.971397	0.422262	0.671352
	N241	N	0.046008	0.594243	0.680669
	N242	N	0.974475	0.588182	0.320974
	N243	N	0.047858	0.417148	0.317929
	N244	N	0.426975	0.675604	0.956344
	N245	N	0.597519	0.686068	0.031544
	N246	N	0.587952	0.330529	0.958238
	N247	N	0.419770	0.325054	0.033395
	N248	N	0.685293	0.966507	0.410402
	N249	N	0.694431	0.039406	0.585860
	N250	N	0.332653	0.969080	0.578207
	N251	N	0.327968	0.041764	0.403942
	N252	N	0.927851	0.466044	0.169881
	N253	N	0.098472	0.541831	0.178289
	N254	N	0.090524	0.468015	0.823697
	N255	N	0.922956	0.543055	0.820236
	N256	N	0.184256	0.921700	0.457342
	N257	N	0.194532	0.096481	0.531237
	N258	N	0.833590	0.086622	0.459995
	N259	N	0.828729	0.913505	0.532476
	N260	N	0.470890	0.178980	0.911445
	N261	N	0.544022	0.188485	0.085614
	N262	N	0.471432	0.828364	0.075551
	N263	N	0.545711	0.822179	0.903647
	N264	N	0.471142	0.921735	0.169898
	N265	N	0.545820	0.094905	0.177008
	N266	N	0.473913	0.088294	0.816439
	N267	N	0.548223	0.918474	0.815246
	N268	N	0.929304	0.175702	0.458260
	N269	N	0.099606	0.184644	0.533950
	N270	N	0.092232	0.828104	0.459688
	N271	N	0.925144	0.827850	0.535746
	N272	N	0.183243	0.467325	0.914287
	N273	N	0.193621	0.540334	0.089545
	N274	N	0.829612	0.469030	0.082220
	N275	N	0.827468	0.541386	0.907895
	O276	O	-0.018066	-0.011194	-0.089803
	H277	H	-0.015661	-0.001509	-0.089090
	H278	H	-0.021298	-0.012571	-0.084843
	O279	O	0.456681	0.530925	0.492869
	H280	H	0.459103	0.522156	0.498022
	H281	H	0.449960	0.532790	0.488961
	O282	O	0.580302	0.470332	0.526797
	H283	H	0.568403	0.469718	0.528824
	H284	H	0.575138	0.470112	0.535446
	O285	O	0.992076	0.008065	0.976698
	H286	H	0.986565	0.011280	0.986417
	H287	H	0.983330	0.012980	0.979144
	O288	O	1.099278	0.071644	0.049486
	H289	H	1.113858	0.084513	0.049219
	H290	H	1.095108	0.070910	0.043992
	O291	O	0.511512	0.436734	0.452899
	H292	H	0.499739	0.424221	0.455955
	H293	H	0.507504	0.443499	0.445857
	O294	O	1.006325	-0.003356	0.903628
	H295	H	0.998927	-0.007514	0.897997
	H296	H	1.001428	-0.006601	0.914478
	O297	O	-0.052550	0.028388	0.085885
	H298	H	-0.044429	0.031442	0.095908
	H299	H	-0.050293	0.029692	0.075824
	O300	O	0.560166	0.591959	0.568481
	H301	H	0.563944	0.589923	0.565458
	H302	H	0.566951	0.596173	0.571435
	O303	O	0.075958	-0.006614	0.081558
	H304	H	0.078419	0.002168	0.085626
	H305	H	0.082392	0.004323	0.079608
	O306	O	0.952120	-0.040738	0.068657
	H307	H	0.952487	-0.038594	0.069802
	H308	H	0.956937	-0.043962	0.078983
	O309	O	-0.040584	0.064374	0.989909
	H310	H	-0.028097	0.069819	0.997163
	H311	H	-0.039841	0.064256	0.996054
	O312	O	1.088109	0.999050	0.949549
	H313	H	1.091506	0.990523	0.943624
	H314	H	1.079778	0.989472	0.953411
	O315	O	0.556246	0.473258	0.498719
	H316	H	0.564138	0.482645	0.487704
	H317	H	0.549768	0.478772	0.520509
	O318	O	0.445326	0.411954	0.568282
	H319	H	0.446560	0.409505	0.570108
	H320	H	0.446163	0.414919	0.578718
	O321	O	0.024540	1.082300	1.013408
	H322	H	0.034339	1.084598	1.001853
	H323	H	0.019272	1.092243	1.013111
	O324	O	0.540205	0.533223	0.568627
	H325	H	0.536793	0.526609	0.570381
	H326	H	0.542575	0.538652	0.561569
	O327	O	0.514974	0.501981	0.410265
	H328	H	0.528879	0.498216	0.412369
	H329	H	0.526262	0.493830	0.417581
	O330	O	0.452321	0.582892	0.423986
	H331	H	0.445595	0.585245	0.419694
	H332	H	0.458738	0.587605	0.433492
	O333	O	0.521605	0.550710	0.406970
	H334	H	0.510181	0.553346	0.401172
	H335	H	0.525869	0.539562	0.398570
	O336	O	0.420250	0.444072	0.451022
	H337	H	0.413993	0.442829	0.461681
	H338	H	0.422264	0.435801	0.448519
	O339	O	0.998944	0.869148	-0.012796
	H340	H	0.994257	0.853779	-0.015897
	H341	H	1.006222	0.872318	0.003294
	O342	O	0.618895	0.524022	0.509692
	H343	H	0.617563	0.525988	0.506898
	H344	H	0.609768	0.515386	0.509776
	O345	O	0.526011	0.410893	0.497469
	H346	H	0.515434	0.405392	0.506769
	H347	H	0.536825	0.422697	0.493438
	O348	O	-0.037077	-0.068329	0.032529
	H349	H	-0.039095	-0.062269	0.034865
	H350	H	-0.039500	-0.062677	0.036232
	O351	O	-0.425152	1.593780	1.586079
	H352	H	-0.422493	1.607681	1.576678
	H353	H	-0.421229	1.604755	1.578754
	O354	O	0.487697	0.455174	0.513548
	H355	H	0.498493	0.465187	0.516872
	H356	H	0.497560	0.462217	0.516673
	O357	O	0.020564	1.100253	0.986273
	H358	H	0.019935	1.093174	0.968909
	H359	H	0.010416	1.086224	0.979466
