data_Molecule from HDF5

_cell_length_a		16.223599
_cell_length_b		16.457560
_cell_length_c		16.423882
_cell_angle_alpha	90.086667
_cell_angle_beta	90.022912
_cell_angle_gamma	90.114428
_symmetry_space_group_name_H-M	'P 1'
_symmetry_Int_Tables_number		1

loop_
	_symmetry_equiv_pos_as_xyz
	x,y,z

loop_
	_atom_site_label
	_atom_site_type_symbol
	_atom_site_fract_x
	_atom_site_fract_y
	_atom_site_fract_z
	H0	H	0.389922	0.839299	0.721274
	H1	H	0.604709	0.155036	0.721205
	H2	H	0.603235	0.838568	0.278314
	H3	H	0.392165	0.155442	0.278665
	H4	H	0.715207	0.392860	0.839605
	H5	H	0.715032	0.601176	0.158140
	H6	H	0.277690	0.599268	0.839059
	H7	H	0.278120	0.397669	0.160019
	H8	H	0.837410	0.716931	0.393529
	H9	H	0.158029	0.716344	0.603645
	H10	H	0.837246	0.275895	0.601026
	H11	H	0.159799	0.279444	0.393862
	H12	H	0.835100	0.392507	0.715337
	H13	H	0.157147	0.601263	0.719835
	H14	H	0.836095	0.600271	0.280319
	H15	H	0.157666	0.395513	0.277719
	H16	H	0.387867	0.719546	0.841534
	H17	H	0.602235	0.718786	0.156833
	H18	H	0.602112	0.274392	0.840846
	H19	H	0.390280	0.276641	0.158077
	H20	H	0.716107	0.837058	0.398265
	H21	H	0.718207	0.155681	0.602695
	H22	H	0.277397	0.837815	0.602469
	H23	H	0.279041	0.156486	0.398363
	H24	H	0.889508	0.338860	0.220669
	H25	H	0.103405	0.654890	0.221289
	H26	H	0.099297	0.338143	0.778765
	H27	H	0.886109	0.653796	0.774429
	H28	H	0.215242	0.896138	0.338815
	H29	H	0.214980	0.099099	0.659682
	H30	H	0.778401	0.099126	0.339640
	H31	H	0.778754	0.893524	0.659282
	H32	H	0.334186	0.213552	0.897143
	H33	H	0.657612	0.217171	0.102088
	H34	H	0.336130	0.776778	0.105753
	H35	H	0.656691	0.776059	0.893569
	H36	H	0.336553	0.893793	0.219453
	H37	H	0.659132	0.099981	0.216586
	H38	H	0.335973	0.100845	0.779482
	H39	H	0.658760	0.893891	0.780564
	H40	H	0.893692	0.216368	0.339636
	H41	H	0.105927	0.219488	0.656780
	H42	H	0.104606	0.774254	0.340657
	H43	H	0.889212	0.772477	0.655710
	H44	H	0.214128	0.337622	0.896660
	H45	H	0.215707	0.656519	0.102973
	H46	H	0.776274	0.337299	0.101066
	H47	H	0.774853	0.655540	0.894780
	H48	H	0.410762	0.106742	0.581421
	H49	H	0.579949	0.885821	0.588981
	H50	H	0.579575	0.107556	0.413951
	H51	H	0.406492	0.884571	0.411120
	H52	H	0.583174	0.406221	0.112487
	H53	H	0.574746	0.583909	0.889218
	H54	H	0.409602	0.589227	0.112122
	H55	H	0.409912	0.403614	0.886217
	H56	H	0.112855	0.585360	0.407597
	H57	H	0.883619	0.577207	0.592198
	H58	H	0.111726	0.412582	0.590222
	H59	H	0.880345	0.406557	0.404404
	H60	H	0.114286	0.405155	0.591454
	H61	H	0.878575	0.593942	0.588701
	H62	H	0.112531	0.587304	0.410815
	H63	H	0.882352	0.400597	0.412322
	H64	H	0.404213	0.590666	0.114472
	H65	H	0.584640	0.594246	0.882634
	H66	H	0.584870	0.406358	0.113410
	H67	H	0.401867	0.401956	0.883231
	H68	H	0.595688	0.111068	0.412787
	H69	H	0.589999	0.883926	0.585212
	H70	H	0.399174	0.113640	0.591664
	H71	H	0.406190	0.882076	0.406052
	H72	H	0.900513	0.612284	0.087604
	H73	H	0.086944	0.384986	0.082832
	H74	H	0.079001	0.610526	0.902769
	H75	H	0.902411	0.379019	0.896812
	H76	H	0.085236	0.906922	0.612037
	H77	H	0.084572	0.082080	0.387498
	H78	H	0.916626	0.089061	0.610914
	H79	H	0.910674	0.911787	0.388201
	H80	H	0.612277	0.087286	0.910235
	H81	H	0.378108	0.090395	0.093469
	H82	H	0.612476	0.902523	0.083753
	H83	H	0.387790	0.915717	0.918964
	H84	H	0.608950	0.913448	0.086475
	H85	H	0.382843	0.088231	0.084964
	H86	H	0.610875	0.087774	0.911739
	H87	H	0.380816	0.913895	0.900186
	H88	H	0.905710	0.092003	0.615497
	H89	H	0.084823	0.094942	0.384167
	H90	H	0.085182	0.905553	0.612531
	H91	H	0.912184	0.902064	0.385110
	H92	H	0.084758	0.608329	0.915293
	H93	H	0.088241	0.381248	0.093199
	H94	H	0.909826	0.611597	0.095290
	H95	H	0.918014	0.387208	0.908926
	H96	H	0.414886	0.111469	0.596948
	H97	H	0.587318	0.881646	0.594473
	H98	H	0.585786	0.112869	0.400029
	H99	H	0.410819	0.884558	0.408061
	H100	H	0.583972	0.407672	0.112336
	H101	H	0.589773	0.579626	0.885320
	H102	H	0.405111	0.584708	0.112900
	H103	H	0.403817	0.409729	0.885599
	H104	H	0.111377	0.583631	0.410780
	H105	H	0.885498	0.583404	0.576430
	H106	H	0.111683	0.407429	0.584536
	H107	H	0.884688	0.409945	0.412395
	H108	H	0.911166	0.607259	0.084406
	H109	H	0.078582	0.385129	0.089935
	H110	H	0.092406	0.614825	0.904790
	H111	H	0.897864	0.383797	0.917465
	H112	H	0.087314	0.906011	0.612962
	H113	H	0.095799	0.087488	0.382311
	H114	H	0.907130	0.081168	0.611111
	H115	H	0.902949	0.906697	0.384028
	H116	H	0.611987	0.086061	0.910538
	H117	H	0.382719	0.081497	0.091791
	H118	H	0.614925	0.907175	0.094275
	H119	H	0.379474	0.897756	0.913014
	C120	C	0.375647	0.005750	0.621662
	C121	C	0.618905	0.988266	0.621325
	C122	C	0.618789	0.005267	0.377767
	C123	C	0.376201	0.989029	0.377665
	C124	C	0.616738	0.374687	0.007892
	C125	C	0.616273	0.617968	0.990286
	C126	C	0.373737	0.619619	0.008172
	C127	C	0.373597	0.375191	0.990774
	C128	C	0.006270	0.617124	0.377782
	C129	C	0.988076	0.617683	0.619343
	C130	C	0.006094	0.375956	0.619352
	C131	C	0.988922	0.375245	0.377007
	C132	C	0.874345	0.505452	0.120727
	C133	C	0.116688	0.489020	0.120037
	C134	C	0.116634	0.505701	0.876910
	C135	C	0.873248	0.487997	0.876028
	C136	C	0.118252	0.875179	0.507456
	C137	C	0.120315	0.119373	0.489992
	C138	C	0.877658	0.118241	0.507372
	C139	C	0.876326	0.874773	0.490713
	C140	C	0.505017	0.117873	0.878784
	C141	C	0.487930	0.118636	0.120967
	C142	C	0.505641	0.876248	0.119930
	C143	C	0.488405	0.876491	0.878395
	C144	C	0.372752	0.886612	0.681041
	C145	C	0.622070	0.107605	0.680900
	C146	C	0.620922	0.885744	0.318523
	C147	C	0.374089	0.107941	0.318433
	C148	C	0.676001	0.373519	0.887766
	C149	C	0.676225	0.619872	0.109896
	C150	C	0.315722	0.619445	0.887610
	C151	C	0.316309	0.376968	0.111649
	C152	C	0.885554	0.677094	0.375549
	C153	C	0.109554	0.676823	0.622096
	C154	C	0.885142	0.315992	0.619611
	C155	C	0.111105	0.318315	0.375568
	C156	C	0.884021	0.374022	0.676647
	C157	C	0.108961	0.619549	0.679934
	C158	C	0.884679	0.618653	0.319382
	C159	C	0.110058	0.375775	0.317801
	C160	C	0.370765	0.679297	0.888794
	C161	C	0.619439	0.678058	0.109556
	C162	C	0.619536	0.314683	0.888311
	C163	C	0.371959	0.316839	0.110794
	C164	C	0.677151	0.885205	0.378116
	C165	C	0.678752	0.108064	0.622078
	C166	C	0.316359	0.885898	0.622027
	C167	C	0.317864	0.108592	0.377963
	C168	C	0.871707	0.385988	0.180080
	C169	C	0.120416	0.607838	0.180682
	C170	C	0.118105	0.385838	0.818021
	C171	C	0.869409	0.606721	0.815358
	C172	C	0.176794	0.875736	0.386896
	C173	C	0.177888	0.119422	0.610781
	C174	C	0.818027	0.118466	0.387321
	C175	C	0.817499	0.874236	0.610920
	C176	C	0.383028	0.175195	0.877854
	C177	C	0.609480	0.177674	0.121151
	C178	C	0.384450	0.817076	0.122624
	C179	C	0.608820	0.816262	0.876034
	C180	C	0.384514	0.875029	0.179688
	C181	C	0.610365	0.119554	0.178078
	C182	C	0.383706	0.118780	0.819370
	C183	C	0.609775	0.874408	0.819317
	C184	C	0.875393	0.176987	0.387519
	C185	C	0.123104	0.179188	0.609238
	C186	C	0.121815	0.815291	0.387712
	C187	C	0.872691	0.813910	0.609198
	C188	C	0.175247	0.385751	0.876752
	C189	C	0.176178	0.608631	0.121443
	C190	C	0.815075	0.385306	0.120917
	C191	C	0.813582	0.607591	0.875008
	C192	C	0.400975	0.088981	0.597157
	C193	C	0.593184	0.905420	0.596630
	C194	C	0.594124	0.088806	0.402019
	C195	C	0.400810	0.905358	0.401486
	C196	C	0.591311	0.399649	0.090977
	C197	C	0.590391	0.593072	0.907250
	C198	C	0.398882	0.595424	0.091464
	C199	C	0.398122	0.398319	0.906976
	C200	C	0.090332	0.592621	0.402672
	C201	C	0.904327	0.592304	0.593160
	C202	C	0.090615	0.401076	0.595685
	C203	C	0.904306	0.398892	0.402167
	C204	C	0.899651	0.588585	0.096108
	C205	C	0.091608	0.405502	0.095583
	C206	C	0.092349	0.589420	0.900717
	C207	C	0.898857	0.405130	0.900499
	C208	C	0.093035	0.899164	0.590796
	C209	C	0.095796	0.095054	0.406233
	C210	C	0.902559	0.094319	0.590741
	C211	C	0.901522	0.899578	0.407407
	C212	C	0.589609	0.094016	0.903555
	C213	C	0.403263	0.093877	0.097162
	C214	C	0.590115	0.900671	0.095161
	C215	C	0.404481	0.901763	0.903455
	Zn216	Zn	0.497481	-0.002722	0.750041
	Zn217	Zn	0.498077	-0.002886	0.248117
	Zn218	Zn	0.745115	0.497130	-0.001009
	Zn219	Zn	0.245450	0.497359	-0.000968
	Zn220	Zn	-0.002099	0.745700	0.498093
	Zn221	Zn	-0.000763	0.247535	0.498401
	Zn222	Zn	-0.004610	0.496862	0.747911
	Zn223	Zn	-0.003859	0.497044	0.249527
	Zn224	Zn	0.495854	0.747368	-0.000945
	Zn225	Zn	0.495397	0.246329	-0.000785
	Zn226	Zn	0.748038	-0.003165	0.499875
	Zn227	Zn	0.247159	-0.003303	0.499900
	N228	N	0.408780	0.962181	0.680869
	N229	N	0.585713	0.032235	0.680714
	N230	N	0.585500	0.961613	0.318235
	N231	N	0.409842	0.032369	0.318186
	N232	N	0.674812	0.410078	0.963098
	N233	N	0.674324	0.583102	0.034675
	N234	N	0.317197	0.583097	0.962737
	N235	N	0.317174	0.412369	0.035963
	N236	N	0.962144	0.676215	0.411362
	N237	N	0.033387	0.675937	0.585244
	N238	N	0.962192	0.316947	0.584873
	N239	N	0.034606	0.317748	0.411536
	N240	N	0.960052	0.410752	0.676361
	N241	N	0.032393	0.583711	0.678617
	N242	N	0.960643	0.582085	0.320707
	N243	N	0.032992	0.410026	0.318439
	N244	N	0.405956	0.679763	0.964889
	N245	N	0.583040	0.677141	0.034114
	N246	N	0.583624	0.315258	0.964104
	N247	N	0.407059	0.315677	0.034646
	N248	N	0.675964	0.960445	0.414203
	N249	N	0.677019	0.032890	0.585660
	N250	N	0.317892	0.961120	0.585810
	N251	N	0.319041	0.033502	0.414083
	N252	N	0.907400	0.461774	0.180346
	N253	N	0.084043	0.532243	0.179917
	N254	N	0.082439	0.461545	0.818092
	N255	N	0.905604	0.531242	0.815694
	N256	N	0.174814	0.912130	0.462264
	N257	N	0.176138	0.082556	0.535564
	N258	N	0.819093	0.083058	0.462913
	N259	N	0.819556	0.911226	0.536035
	N260	N	0.459518	0.174875	0.913861
	N261	N	0.532458	0.177147	0.086244
	N262	N	0.460689	0.817720	0.086142
	N263	N	0.532293	0.817176	0.911750
	N264	N	0.460933	0.911103	0.178122
	N265	N	0.533814	0.083682	0.178218
	N266	N	0.460880	0.084228	0.819614
	N267	N	0.533816	0.911284	0.820636
	N268	N	0.911758	0.177104	0.463086
	N269	N	0.088177	0.179246	0.533181
	N270	N	0.086191	0.814680	0.463649
	N271	N	0.908302	0.813999	0.533344
	N272	N	0.174818	0.461336	0.912298
	N273	N	0.174178	0.533723	0.084550
	N274	N	0.816721	0.460441	0.084640
	N275	N	0.815732	0.532866	0.912043
	O276	O	0.546819	0.542130	0.514300
	H277	H	0.549737	0.544263	0.515879
	H278	H	0.552643	0.547091	0.515204
	O279	O	0.682455	0.292394	0.484613
	H280	H	0.686305	0.290974	0.478087
	H281	H	0.682672	0.282971	0.468183
	O282	O	0.340572	0.593933	0.506874
	H283	H	0.354878	0.597109	0.489410
	H284	H	0.349718	0.604231	0.506160
	O285	O	0.991044	1.132199	0.000905
	H286	H	0.969222	1.144489	0.030223
	H287	H	0.978827	1.130485	-0.019144
	O288	O	0.404784	0.383187	0.498732
	H289	H	0.404976	0.392234	0.502755
	H290	H	0.411794	0.379482	0.522068
	O291	O	0.563179	0.574348	0.612040
	H292	H	0.569288	0.573922	0.587867
	H293	H	0.574156	0.552163	0.623967
	O294	O	0.834776	0.936206	0.971207
	H295	H	0.836877	0.928864	0.957967
	H296	H	0.839499	0.941321	0.961752
	O297	O	0.295710	0.293972	0.569054
	H298	H	0.303699	0.299868	0.585497
	H299	H	0.266723	0.286664	0.572076
	O300	O	0.586259	0.344249	0.662056
	H301	H	0.581145	0.342665	0.642675
	H302	H	0.584354	0.347957	0.661761
	O303	O	0.596338	0.660081	0.382011
	H304	H	0.579503	0.661687	0.393752
	H305	H	0.619434	0.665884	0.376720
	O306	O	0.181916	-0.145114	0.874172
	H307	H	0.193266	-0.122075	0.877968
	H308	H	0.181593	-0.156711	0.903645
	O309	O	1.179681	0.040049	0.038504
	H310	H	1.180927	0.055828	0.015040
	H311	H	1.186333	0.032625	0.037683
	O312	O	0.422449	0.398616	0.590558
	H313	H	0.403627	0.391598	0.568929
	H314	H	0.415856	0.412165	0.595949
	O315	O	0.531231	0.676581	0.547027
	H316	H	0.531484	0.691938	0.541141
	H317	H	0.534317	0.668577	0.553577
	O318	O	0.085185	0.143690	0.094693
	H319	H	0.096184	0.147127	0.106927
	H320	H	0.096313	0.161531	0.101417
	O321	O	0.574516	0.457982	0.481896
	H322	H	0.568609	0.466314	0.466495
	H323	H	0.569221	0.464786	0.476841
	O324	O	1.111088	0.107848	0.850240
	H325	H	1.114446	0.095957	0.863666
	H326	H	1.099578	0.121898	0.852833
	O327	O	0.579877	0.430222	0.326688
	H328	H	0.570144	0.429488	0.322844
	H329	H	0.588188	0.439923	0.322660
	O330	O	0.011025	0.803165	0.804029
	H331	H	0.020726	0.780756	0.783432
	H332	H	0.049005	0.815996	0.805589
	O333	O	0.046356	0.813126	0.058318
	H334	H	0.056471	0.801922	0.057468
	H335	H	0.053578	0.831254	0.051281
	O336	O	1.003452	1.022290	0.127368
	H337	H	0.989943	1.016401	0.102795
	H338	H	1.007017	1.016125	0.132042
	O339	O	-0.168282	0.795587	1.065490
	H340	H	-0.167420	0.794875	1.047682
	H341	H	-0.171199	0.780604	1.065559
	O342	O	0.301523	0.694974	0.471771
	H343	H	0.284122	0.713435	0.469862
	H344	H	0.313264	0.695386	0.448741
	O345	O	-0.190063	0.144636	0.804143
	H346	H	-0.204750	0.140765	0.793871
	H347	H	-0.193981	0.155790	0.830415
	O348	O	0.443855	0.360175	0.516266
	H349	H	0.434522	0.354072	0.533193
	H350	H	0.442134	0.371612	0.518202
	O351	O	0.838962	1.157817	0.074416
	H352	H	0.844417	1.160640	0.081459
	H353	H	0.842113	1.149371	0.091125
	O354	O	1.024251	0.863947	0.844420
	H355	H	1.038098	0.867950	0.849157
	H356	H	1.029522	0.858386	0.839553
	O357	O	0.002618	0.017566	-0.140951
	H358	H	-0.006032	0.010433	-0.144012
	H359	H	0.000578	0.026254	-0.153043
	O360	O	0.325671	0.392927	0.607358
	H361	H	0.343190	0.397999	0.592246
	H362	H	0.322511	0.411341	0.621571
	O363	O	0.930941	0.198786	-0.170069
	H364	H	0.927971	0.199318	-0.168422
	H365	H	0.919257	0.207866	-0.182538
	O366	O	0.178087	0.017427	0.850914
	H367	H	0.174490	0.020321	0.846759
	H368	H	0.183959	0.021909	0.849338
	O369	O	0.819176	0.093946	0.882628
	H370	H	0.824926	0.088366	0.884839
	H371	H	0.807483	0.089666	0.882743
	O372	O	0.700661	0.519163	0.705157
	H373	H	0.700573	0.501605	0.697579
	H374	H	0.707744	0.508865	0.727559
	O375	O	0.067825	0.067539	1.079004
	H376	H	0.065780	0.062491	1.081742
	H377	H	0.070059	0.071628	1.074333
	O378	O	0.393530	0.327245	0.331010
	H379	H	0.398555	0.323402	0.358178
	H380	H	0.404931	0.321009	0.332418
	O381	O	0.177114	1.091403	0.200700
	H382	H	0.189813	1.093851	0.215521
	H383	H	0.183506	1.066617	0.191667
	O384	O	0.538628	0.698015	0.702410
	H385	H	0.572020	0.678313	0.697294
	H386	H	0.544332	0.719473	0.707907
	O387	O	0.365054	0.515923	0.688652
	H388	H	0.365139	0.540062	0.702741
	H389	H	0.366088	0.519868	0.681702
	O390	O	0.801825	0.815018	0.194020
	H391	H	0.810710	0.812707	0.177011
	H392	H	0.802048	0.837755	0.179213
	O393	O	1.042974	0.181219	1.048795
	H394	H	1.047625	0.184733	1.055785
	H395	H	1.047103	0.198461	1.062363
	O396	O	0.508619	0.698072	0.326819
	H397	H	0.504871	0.702568	0.326013
	H398	H	0.508296	0.706105	0.341578
	O399	O	0.575766	0.449779	0.501349
	H400	H	0.564144	0.455804	0.493421
	H401	H	0.569810	0.448210	0.505397
	O402	O	0.858826	0.894681	0.106100
	H403	H	0.846282	0.908016	0.102516
	H404	H	0.853658	0.877975	0.102421
	O405	O	0.368982	0.499356	0.323700
	H406	H	0.371283	0.482208	0.323522
	H407	H	0.383838	0.486046	0.326897
	O408	O	0.631385	0.542289	0.594939
	H409	H	0.634199	0.549228	0.578624
	H410	H	0.639052	0.528032	0.592781
	O411	O	0.976698	0.884893	1.038467
	H412	H	0.982017	0.871419	1.029701
	H413	H	0.980165	0.881815	1.036108
	O414	O	0.577070	0.371205	0.303489
	H415	H	0.582230	0.365644	0.316829
	H416	H	0.585577	0.369959	0.292553
	O417	O	0.030125	0.861832	1.089991
	H418	H	0.025842	0.858642	1.101914
	H419	H	0.027554	0.871034	1.072029
	O420	O	-0.129928	1.014341	1.136038
	H421	H	-0.119537	1.005441	1.133562
	H422	H	-0.127971	1.024112	1.119456
	O423	O	0.037836	0.950671	-0.019184
	H424	H	0.035983	0.944642	-0.033775
	H425	H	0.031066	0.942805	-0.020269
	O426	O	0.337523	0.682710	0.309788
	H427	H	0.346495	0.673652	0.312677
	H428	H	0.348497	0.665961	0.304375
	O429	O	0.479480	0.539354	0.669340
	H430	H	0.471442	0.534079	0.667600
	H431	H	0.490211	0.538972	0.662846
	O432	O	0.682601	0.379090	0.410529
	H433	H	0.669727	0.388695	0.425935
	H434	H	0.687495	0.358309	0.396708
	O435	O	-0.002423	0.198394	0.153245
	H436	H	0.012579	0.207807	0.184526
	H437	H	0.013532	0.193469	0.153923
	O438	O	0.165467	0.791619	1.005466
	H439	H	0.168250	0.801165	1.020254
	H440	H	0.172994	0.787153	1.016159
	O441	O	0.603114	0.514655	0.331659
	H442	H	0.611334	0.502369	0.333645
	H443	H	0.603282	0.504309	0.337824
