data_Molecule from HDF5

_cell_length_a		16.664714
_cell_length_b		16.538538
_cell_length_c		16.488106
_cell_angle_alpha	89.864779
_cell_angle_beta	90.079493
_cell_angle_gamma	90.012005
_symmetry_space_group_name_H-M	'P 1'
_symmetry_Int_Tables_number		1

loop_
	_symmetry_equiv_pos_as_xyz
	x,y,z

loop_
	_atom_site_label
	_atom_site_type_symbol
	_atom_site_fract_x
	_atom_site_fract_y
	_atom_site_fract_z
	H0	H	0.390529	0.845203	0.704894
	H1	H	0.602046	0.156447	0.706893
	H2	H	0.599926	0.844898	0.261387
	H3	H	0.390787	0.158895	0.262324
	H4	H	0.714959	0.397798	0.825687
	H5	H	0.718277	0.609798	0.138767
	H6	H	0.269458	0.610852	0.829367
	H7	H	0.270946	0.391989	0.137402
	H8	H	0.839244	0.723499	0.377331
	H9	H	0.150414	0.724425	0.589129
	H10	H	0.839677	0.279603	0.590002
	H11	H	0.149449	0.277024	0.376573
	H12	H	0.838179	0.398501	0.703764
	H13	H	0.149305	0.609222	0.707463
	H14	H	0.838572	0.605892	0.262649
	H15	H	0.149269	0.393193	0.259554
	H16	H	0.387038	0.725228	0.828251
	H17	H	0.600666	0.723125	0.140419
	H18	H	0.600598	0.280559	0.826158
	H19	H	0.391673	0.280560	0.140253
	H20	H	0.718273	0.846279	0.375780
	H21	H	0.719983	0.155977	0.592610
	H22	H	0.271446	0.846971	0.590721
	H23	H	0.273388	0.158685	0.378054
	H24	H	0.893045	0.343486	0.202321
	H25	H	0.099979	0.657373	0.204701
	H26	H	0.101010	0.345528	0.760176
	H27	H	0.892005	0.660213	0.764732
	H28	H	0.213785	0.899635	0.325450
	H29	H	0.216184	0.107240	0.641690
	H30	H	0.772067	0.109180	0.328217
	H31	H	0.775660	0.897300	0.640252
	H32	H	0.339318	0.225431	0.874586
	H33	H	0.650711	0.221180	0.087155
	H34	H	0.339274	0.778194	0.089864
	H35	H	0.649520	0.780260	0.879234
	H36	H	0.338619	0.895664	0.205785
	H37	H	0.649776	0.104928	0.205008
	H38	H	0.339122	0.107647	0.759368
	H39	H	0.649846	0.896039	0.761824
	H40	H	0.891179	0.222995	0.326886
	H41	H	0.099809	0.221534	0.642737
	H42	H	0.098224	0.783607	0.325085
	H43	H	0.893245	0.782559	0.639961
	H44	H	0.220835	0.347074	0.872123
	H45	H	0.219495	0.655452	0.091678
	H46	H	0.774812	0.344360	0.087098
	H47	H	0.774624	0.659398	0.879404
	H48	H	0.406360	0.114589	0.575529
	H49	H	0.582977	0.890367	0.570467
	H50	H	0.588067	0.113688	0.397548
	H51	H	0.401202	0.885529	0.386058
	H52	H	0.583290	0.407381	0.096647
	H53	H	0.586020	0.594912	0.868836
	H54	H	0.407791	0.585654	0.094214
	H55	H	0.406442	0.416764	0.871709
	H56	H	0.108737	0.595672	0.391613
	H57	H	0.883717	0.592372	0.571668
	H58	H	0.106680	0.412225	0.573632
	H59	H	0.883867	0.413870	0.391966
	H60	H	0.105727	0.411601	0.571766
	H61	H	0.882532	0.592335	0.574092
	H62	H	0.105049	0.592552	0.398790
	H63	H	0.883962	0.408807	0.398406
	H64	H	0.408904	0.589103	0.096237
	H65	H	0.586220	0.585004	0.872415
	H66	H	0.590400	0.410992	0.098364
	H67	H	0.410113	0.414720	0.872329
	H68	H	0.580813	0.113852	0.391018
	H69	H	0.586331	0.889118	0.570678
	H70	H	0.409673	0.112114	0.568252
	H71	H	0.412179	0.893355	0.397137
	H72	H	0.899829	0.616773	0.076156
	H73	H	0.089527	0.387344	0.069255
	H74	H	0.085394	0.612065	0.899345
	H75	H	0.903336	0.387575	0.889870
	H76	H	0.093113	0.915653	0.597833
	H77	H	0.081237	0.089415	0.373682
	H78	H	0.911405	0.087628	0.594142
	H79	H	0.906060	0.909935	0.368317
	H80	H	0.605545	0.088524	0.891253
	H81	H	0.382677	0.089380	0.074141
	H82	H	0.606799	0.906987	0.070098
	H83	H	0.382677	0.914630	0.892403
	H84	H	0.602388	0.916057	0.069564
	H85	H	0.381460	0.093574	0.072488
	H86	H	0.605284	0.093375	0.897454
	H87	H	0.382633	0.911275	0.896452
	H88	H	0.906203	0.095796	0.598871
	H89	H	0.083535	0.092289	0.371801
	H90	H	0.078303	0.919466	0.591794
	H91	H	0.901043	0.914744	0.368664
	H92	H	0.081907	0.612740	0.894299
	H93	H	0.078798	0.388132	0.076980
	H94	H	0.910267	0.613654	0.076075
	H95	H	0.908232	0.390867	0.896334
	H96	H	0.401935	0.114629	0.568364
	H97	H	0.584007	0.889447	0.573678
	H98	H	0.579362	0.110168	0.400100
	H99	H	0.396326	0.888552	0.402094
	H100	H	0.584331	0.415042	0.094760
	H101	H	0.577340	0.590393	0.873086
	H102	H	0.405239	0.587893	0.096404
	H103	H	0.407047	0.413242	0.869470
	H104	H	0.105467	0.587537	0.391552
	H105	H	0.882621	0.594057	0.573111
	H106	H	0.105508	0.413847	0.572598
	H107	H	0.886885	0.416153	0.399182
	H108	H	0.904222	0.611905	0.066961
	H109	H	0.078738	0.393369	0.064795
	H110	H	0.079067	0.609962	0.899751
	H111	H	0.899830	0.388847	0.897394
	H112	H	0.080797	0.904876	0.598724
	H113	H	0.085421	0.088351	0.372496
	H114	H	0.901185	0.086302	0.596828
	H115	H	0.907135	0.916548	0.371626
	H116	H	0.602282	0.086858	0.898021
	H117	H	0.383759	0.090538	0.069114
	H118	H	0.606994	0.913196	0.078492
	H119	H	0.385253	0.915624	0.896431
	C120	C	0.373667	0.010460	0.603668
	C121	C	0.617065	0.992576	0.604938
	C122	C	0.615365	0.009493	0.362884
	C123	C	0.372206	0.993170	0.362338
	C124	C	0.617025	0.379847	-0.007956
	C125	C	0.615813	0.622553	0.975027
	C126	C	0.373349	0.622187	-0.007170
	C127	C	0.374618	0.380818	0.974047
	C128	C	0.003377	0.623641	0.361686
	C129	C	0.986471	0.624442	0.604910
	C130	C	0.002998	0.380757	0.605052
	C131	C	0.986845	0.379912	0.363021
	C132	C	0.873706	0.510003	0.104389
	C133	C	0.115905	0.492388	0.104296
	C134	C	0.115810	0.509432	0.862719
	C135	C	0.873030	0.493444	0.862655
	C136	C	0.115925	0.881402	0.491816
	C137	C	0.116060	0.123097	0.476361
	C138	C	0.873953	0.122873	0.492800
	C139	C	0.873874	0.881548	0.473820
	C140	C	0.502442	0.123224	0.861228
	C141	C	0.485884	0.122900	0.104387
	C142	C	0.502780	0.879617	0.105320
	C143	C	0.485965	0.880522	0.862626
	C144	C	0.371865	0.892263	0.664333
	C145	C	0.620352	0.109589	0.666639
	C146	C	0.618207	0.892159	0.301411
	C147	C	0.371581	0.111531	0.302355
	C148	C	0.675636	0.378841	0.873163
	C149	C	0.677159	0.626439	0.092265
	C150	C	0.310995	0.627458	0.875729
	C151	C	0.312628	0.375339	0.091320
	C152	C	0.886059	0.682979	0.359499
	C153	C	0.103463	0.684531	0.607530
	C154	C	0.885907	0.320366	0.607703
	C155	C	0.103188	0.318094	0.359289
	C156	C	0.885327	0.379543	0.664235
	C157	C	0.102898	0.627172	0.666313
	C158	C	0.885856	0.624636	0.302083
	C159	C	0.103062	0.375998	0.301100
	C160	C	0.369175	0.684611	0.875376
	C161	C	0.618679	0.682980	0.093093
	C162	C	0.618534	0.320643	0.873386
	C163	C	0.372230	0.319825	0.092621
	C164	C	0.676991	0.892714	0.358403
	C165	C	0.678681	0.109479	0.609366
	C166	C	0.312773	0.892957	0.607789
	C167	C	0.313250	0.111619	0.359710
	C168	C	0.873255	0.390972	0.163294
	C169	C	0.118960	0.610048	0.165129
	C170	C	0.119036	0.392564	0.800629
	C171	C	0.872434	0.612505	0.803744
	C172	C	0.174757	0.880444	0.373053
	C173	C	0.176033	0.125374	0.594498
	C174	C	0.813266	0.126482	0.374804
	C175	C	0.815448	0.878987	0.592903
	C176	C	0.385861	0.184694	0.857127
	C177	C	0.603626	0.181789	0.106019
	C178	C	0.385866	0.818556	0.108325
	C179	C	0.602984	0.820191	0.860576
	C180	C	0.385553	0.876957	0.165887
	C181	C	0.603310	0.123879	0.164363
	C182	C	0.385764	0.126301	0.799627
	C183	C	0.602922	0.877784	0.802083
	C184	C	0.872185	0.183044	0.374127
	C185	C	0.118333	0.182552	0.594884
	C186	C	0.116865	0.823181	0.372524
	C187	C	0.873800	0.822151	0.592749
	C188	C	0.178691	0.393290	0.856494
	C189	C	0.178169	0.609114	0.108726
	C190	C	0.814418	0.391603	0.106209
	C191	C	0.814493	0.612268	0.861090
	C192	C	0.398795	0.092414	0.577750
	C193	C	0.591710	0.910830	0.578747
	C194	C	0.589869	0.091311	0.388701
	C195	C	0.396274	0.910619	0.387883
	C196	C	0.592775	0.404065	0.074928
	C197	C	0.590395	0.597275	0.892931
	C198	C	0.399763	0.595192	0.074346
	C199	C	0.400409	0.407179	0.892571
	C200	C	0.085272	0.599025	0.386705
	C201	C	0.904527	0.599931	0.580002
	C202	C	0.084691	0.405470	0.579937
	C203	C	0.905978	0.405966	0.388988
	C204	C	0.897855	0.592712	0.080015
	C205	C	0.089912	0.410654	0.077855
	C206	C	0.089477	0.590586	0.890103
	C207	C	0.897010	0.410828	0.887251
	C208	C	0.091196	0.906146	0.574504
	C209	C	0.090653	0.097392	0.394024
	C210	C	0.899097	0.097263	0.575115
	C211	C	0.897711	0.906782	0.391012
	C212	C	0.583267	0.097084	0.887796
	C213	C	0.404043	0.098122	0.079289
	C214	C	0.584144	0.904874	0.079965
	C215	C	0.404532	0.906276	0.888001
	Zn216	Zn	0.494474	0.001564	0.732513
	Zn217	Zn	0.494124	0.001467	0.234164
	Zn218	Zn	0.744264	0.501763	-0.016769
	Zn219	Zn	0.245130	0.500650	-0.016431
	Zn220	Zn	-0.004705	0.753275	0.482596
	Zn221	Zn	-0.004851	0.250958	0.484569
	Zn222	Zn	-0.005301	0.502305	0.734246
	Zn223	Zn	-0.004961	0.501351	0.233313
	Zn224	Zn	0.494537	0.750465	-0.015902
	Zn225	Zn	0.494635	0.252321	-0.017666
	Zn226	Zn	0.745248	0.001709	0.483425
	Zn227	Zn	0.244277	0.002497	0.483933
	N228	N	0.409018	0.966252	0.661942
	N229	N	0.582586	0.035878	0.663991
	N230	N	0.580377	0.965861	0.304309
	N231	N	0.407336	0.036780	0.303701
	N232	N	0.674916	0.414850	0.948116
	N233	N	0.675325	0.589289	0.017938
	N234	N	0.313403	0.589288	0.949809
	N235	N	0.313711	0.412343	0.016704
	N236	N	0.960296	0.682765	0.395663
	N237	N	0.029955	0.682864	0.569912
	N238	N	0.960232	0.320764	0.571689
	N239	N	0.029962	0.320344	0.397176
	N240	N	0.959144	0.416267	0.662973
	N241	N	0.028987	0.590662	0.664998
	N242	N	0.960048	0.588506	0.303103
	N243	N	0.029843	0.413927	0.303444
	N244	N	0.407360	0.681400	0.949187
	N245	N	0.580849	0.680471	0.019249
	N246	N	0.582739	0.321078	0.948378
	N247	N	0.410024	0.322996	0.018774
	N248	N	0.675537	0.966778	0.395804
	N249	N	0.676895	0.035529	0.571880
	N250	N	0.313797	0.967422	0.571007
	N251	N	0.313344	0.036847	0.396021
	N252	N	0.909089	0.465770	0.162579
	N253	N	0.081107	0.536292	0.162613
	N254	N	0.080647	0.465869	0.804368
	N255	N	0.908041	0.537536	0.804262
	N256	N	0.174452	0.915658	0.448312
	N257	N	0.174967	0.089138	0.519486
	N258	N	0.813983	0.090100	0.449788
	N259	N	0.815214	0.914888	0.517806
	N260	N	0.459368	0.183145	0.894596
	N261	N	0.529522	0.181491	0.069695
	N262	N	0.459701	0.820096	0.071524
	N263	N	0.529081	0.821513	0.897263
	N264	N	0.459333	0.913956	0.164621
	N265	N	0.528867	0.088148	0.163611
	N266	N	0.459354	0.088876	0.801814
	N267	N	0.528977	0.914439	0.803050
	N268	N	0.909026	0.180976	0.448525
	N269	N	0.081923	0.181483	0.520161
	N270	N	0.081111	0.823318	0.447735
	N271	N	0.909336	0.823537	0.517704
	N272	N	0.176799	0.467043	0.894612
	N273	N	0.176413	0.534853	0.071757
	N274	N	0.814380	0.466688	0.070596
	N275	N	0.814351	0.537108	0.896668
	O276	O	-0.120934	1.165199	-0.233027
	H277	H	-0.118594	1.162105	-0.220832
	H278	H	-0.129821	1.165231	-0.248340
	O279	O	0.261064	0.437526	0.443874
	H280	H	0.264943	0.460431	0.438745
	H281	H	0.255917	0.450802	0.430507
	O282	O	0.890011	-0.208672	1.114925
	H283	H	0.907075	-0.205865	1.097504
	H284	H	0.898928	-0.224211	1.122788
	O285	O	0.716757	0.468347	0.263148
	H286	H	0.726070	0.466092	0.260615
	H287	H	0.724187	0.462562	0.255673
	O288	O	0.544685	0.713389	0.565971
	H289	H	0.562646	0.710635	0.569234
	H290	H	0.562672	0.718949	0.578414
	O291	O	0.429062	0.507008	0.478637
	H292	H	0.429994	0.506409	0.480322
	H293	H	0.413092	0.521347	0.473925
	O294	O	0.775854	0.210896	0.944816
	H295	H	0.778651	0.194437	0.944472
	H296	H	0.755120	0.228794	0.957381
	O297	O	0.289343	0.708338	0.280495
	H298	H	0.285198	0.712275	0.327590
	H299	H	0.292542	0.715292	0.268993
	O300	O	-0.720378	0.289896	0.272849
	H301	H	-0.728802	0.304844	0.269646
	H302	H	-0.732023	0.286065	0.261075
	O303	O	0.031781	0.202293	1.191176
	H304	H	0.025866	0.203576	1.195584
	H305	H	0.042751	0.208237	1.187009
	O306	O	0.803743	-0.185303	0.798243
	H307	H	0.828514	-0.166118	0.810109
	H308	H	0.815200	-0.164635	0.821046
	O309	O	0.533753	0.280557	0.266530
	H310	H	0.516592	0.295500	0.257679
	H311	H	0.523749	0.259768	0.254311
	O312	O	0.312975	0.681933	0.673278
	H313	H	0.325317	0.686381	0.671943
	H314	H	0.330334	0.661286	0.661277
	O315	O	0.468355	1.577353	0.308493
	H316	H	0.475949	1.588674	0.309887
	H317	H	0.478397	1.589382	0.317225
	O318	O	0.710575	0.415751	0.570302
	H319	H	0.705649	0.430876	0.556850
	H320	H	0.699387	0.421586	0.561327
	O321	O	0.483810	0.400781	0.618531
	H322	H	0.497151	0.418772	0.613464
	H323	H	0.476740	0.409062	0.620344
	O324	O	1.004649	0.966630	-0.142577
	H325	H	0.993346	0.984457	-0.147820
	H326	H	1.010742	0.963919	-0.144987
	O327	O	-0.112688	0.074461	1.030006
	H328	H	-0.111823	0.077236	1.033199
	H329	H	-0.114519	0.078971	1.036326
	O330	O	0.413283	0.285348	0.396329
	H331	H	0.405941	0.290693	0.393548
	H332	H	0.402474	0.286389	0.403259
	O333	O	0.103384	0.026769	0.910291
	H334	H	0.088731	0.038836	0.913956
	H335	H	0.102333	0.043971	0.903298
	O336	O	1.140170	0.059767	0.961308
	H337	H	1.142425	0.050455	0.937787
	H338	H	1.141017	0.063197	0.968859
	O339	O	0.781126	-0.119924	1.100168
	H340	H	0.770694	-0.133831	1.103560
	H341	H	0.778779	-0.117566	1.097653
	O342	O	-0.665856	0.495691	0.615588
	H343	H	-0.660334	0.498585	0.621261
	H344	H	-0.667945	0.508165	0.623871
	O345	O	0.082905	1.138687	0.859329
	H346	H	0.080127	1.130877	0.887084
	H347	H	0.086624	1.150971	0.845471
	O348	O	0.637830	0.465663	0.576694
	H349	H	0.636698	0.452687	0.579360
	H350	H	0.646132	0.462853	0.562428
	O351	O	0.865090	1.132348	0.188068
	H352	H	0.850271	1.120338	0.192354
	H353	H	0.855605	1.133437	0.198189
	O354	O	0.169972	-0.077701	1.002245
	H355	H	0.167664	-0.090534	0.987575
	H356	H	0.175730	-0.073631	1.007726
	O357	O	1.466882	1.721593	0.264552
	H358	H	1.453288	1.737118	0.263951
	H359	H	1.461287	1.740503	0.260119
	O360	O	0.279824	0.287580	0.512996
	H361	H	0.265399	0.277481	0.505209
	H362	H	0.266577	0.311103	0.493535
	O363	O	-0.208341	-0.197826	0.184650
	H364	H	-0.196683	-0.193221	0.162891
	H365	H	-0.201655	-0.193251	0.180418
	O366	O	0.714165	0.723526	0.517298
	H367	H	0.731216	0.740749	0.529243
	H368	H	0.720380	0.723649	0.530079
	O369	O	1.206497	-0.030748	-0.224535
	H370	H	1.192131	-0.010436	-0.225391
	H371	H	1.214779	-0.031493	-0.242685
	O372	O	1.021876	0.786962	-0.225232
	H373	H	1.049252	0.805737	-0.225952
	H374	H	1.031996	0.762913	-0.246042
	O375	O	1.038954	0.219852	-0.042264
	H376	H	1.024027	0.220439	-0.038531
	H377	H	1.026272	0.220122	-0.032654
	O378	O	0.047884	1.006005	0.896855
	H379	H	0.037156	1.023509	0.899621
	H380	H	0.049734	1.021417	0.891136
	O381	O	0.570242	0.272764	1.538710
	H382	H	0.549651	0.268550	1.538528
	H383	H	0.551534	0.281200	1.551529
	O384	O	1.136857	-0.138518	1.175553
	H385	H	1.124080	-0.142886	1.173582
	H386	H	1.141912	-0.128202	1.163032
	O387	O	1.205210	0.788731	-0.047986
	H388	H	1.225714	0.772314	-0.046546
	H389	H	1.200694	0.793072	-0.055874
	O390	O	0.484366	0.702657	0.461954
	H391	H	0.481440	0.702426	0.461951
	H392	H	0.493849	0.703902	0.473252
	O393	O	0.378665	0.535199	0.707157
	H394	H	0.391024	0.545523	0.714604
	H395	H	0.391875	0.525687	0.704524
	O396	O	0.266281	1.563654	1.527507
	H397	H	0.281398	1.555447	1.537656
	H398	H	0.262594	1.578813	1.530005
	O399	O	0.197963	-0.201756	0.781711
	H400	H	0.202789	-0.173368	0.798301
	H401	H	0.213465	-0.211510	0.765135
	O402	O	0.473964	0.282280	0.697583
	H403	H	0.447362	0.284310	0.700247
	H404	H	0.465112	0.274798	0.720760
	O405	O	0.974115	0.217337	0.772164
	H406	H	0.954196	0.226933	0.759340
	H407	H	0.970163	0.229041	0.774249
	O408	O	-0.291492	-0.464852	-0.298545
	H409	H	-0.288758	-0.464096	-0.302292
	H410	H	-0.269976	-0.477397	-0.293876
	O411	O	0.484107	0.717388	0.643018
	H412	H	0.502902	0.731731	0.652387
	H413	H	0.516489	0.713951	0.639189
	O414	O	0.768198	-0.008597	1.079503
	H415	H	0.774470	-0.015282	1.089995
	H416	H	0.769689	-0.007235	1.087679
	O417	O	0.674356	0.366508	0.351163
	H418	H	0.671222	0.365119	0.360413
	H419	H	0.645761	0.382122	0.351794
	O420	O	0.276314	0.718471	0.454472
	H421	H	0.277441	0.731293	0.468809
	H422	H	0.280128	0.722600	0.471107
	O423	O	0.214433	0.036335	1.200576
	H424	H	0.217397	0.053224	1.203471
	H425	H	0.234607	0.025844	1.211102
	O426	O	0.491816	0.463801	0.522775
	H427	H	0.494626	0.460553	0.519213
	H428	H	0.494657	0.465221	0.524396
	O429	O	0.204206	0.206407	1.137015
	H430	H	0.194338	0.208812	1.123422
	H431	H	0.206240	0.194401	1.121966
	O432	O	0.701354	0.282738	0.450067
	H433	H	0.682009	0.266303	0.456661
	H434	H	0.708928	0.268705	0.446704
	O435	O	0.275310	0.517967	0.265207
	H436	H	0.265236	0.530632	0.246330
	H437	H	0.274633	0.552255	0.267719
	O438	O	-0.102680	-0.135085	0.109262
	H439	H	-0.106574	-0.116495	0.107934
	H440	H	-0.103691	-0.161924	0.132590
	O441	O	0.587750	0.594255	0.448452
	H442	H	0.591748	0.584918	0.456563
	H443	H	0.598328	0.589448	0.430581
	O444	O	0.750830	0.239054	0.224059
	H445	H	0.728855	0.226018	0.225754
	H446	H	0.742010	0.262091	0.263606
	O447	O	-0.336033	1.330268	0.739242
	H448	H	-0.348058	1.330335	0.735916
	H449	H	-0.340551	1.326871	0.749358
	O450	O	-0.085139	1.027500	0.930018
	H451	H	-0.086588	1.019872	0.926576
	H452	H	-0.076428	1.023117	0.944963
	O453	O	0.671572	0.513393	0.435103
	H454	H	0.662782	0.524561	0.426101
	H455	H	0.659639	0.509605	0.418800
	O456	O	0.143778	0.146747	1.000367
	H457	H	0.138056	0.140173	0.985844
	H458	H	0.162293	0.164489	0.994752
	O459	O	0.989016	0.852083	-0.107967
	H460	H	0.991561	0.836158	-0.122029
	H461	H	1.004866	0.867927	-0.109352
	O462	O	0.540160	0.553307	0.443630
	H463	H	0.553302	0.544230	0.439539
	H464	H	0.542722	0.548847	0.432818
	O465	O	0.673177	-0.339527	-0.694346
	H466	H	0.675850	-0.323339	-0.705882
	H467	H	0.670794	-0.368135	-0.695462
	O468	O	0.479154	0.439895	0.274333
	H469	H	0.481504	0.450921	0.271554
	H470	H	0.469773	0.448718	0.271869
	O471	O	-0.030639	0.034715	1.108747
	H472	H	-0.022115	0.054921	1.110645
	H473	H	-0.023403	0.040678	1.113535
	O474	O	-0.212775	1.027749	0.777027
	H475	H	-0.218504	1.032074	0.775406
	H476	H	-0.221156	1.037906	0.775190
	O477	O	0.844176	0.004487	1.015753
	H478	H	0.849170	-0.002240	1.028442
	H479	H	0.851455	-0.009228	1.019726
	O480	O	0.704821	0.715008	0.692416
	H481	H	0.737304	0.744962	0.726400
	H482	H	0.707103	0.681152	0.683318
	O483	O	1.302686	1.311017	0.674852
	H484	H	1.308582	1.309097	0.640379
	H485	H	1.297607	1.339878	0.665394
	O486	O	1.017105	0.013997	1.055239
	H487	H	1.006959	0.020797	1.063447
	H488	H	1.012884	0.004896	1.070110
	O489	O	1.031888	0.846666	0.071698
	H490	H	1.026376	0.853943	0.067310
	H491	H	1.040873	0.845988	0.057499
