data_Molecule from HDF5

_cell_length_a		16.256193
_cell_length_b		16.273152
_cell_length_c		16.196691
_cell_angle_alpha	89.974259
_cell_angle_beta	89.931311
_cell_angle_gamma	89.867206
_symmetry_space_group_name_H-M	'P 1'
_symmetry_Int_Tables_number		1

loop_
	_symmetry_equiv_pos_as_xyz
	x,y,z

loop_
	_atom_site_label
	_atom_site_type_symbol
	_atom_site_fract_x
	_atom_site_fract_y
	_atom_site_fract_z
	H0	H	0.398441	0.834905	0.710385
	H1	H	0.593272	0.163081	0.710393
	H2	H	0.593449	0.834479	0.285142
	H3	H	0.399075	0.162913	0.283320
	H4	H	0.710776	0.400146	0.831711
	H5	H	0.708947	0.595966	0.160669
	H6	H	0.282659	0.597996	0.831372
	H7	H	0.283559	0.400431	0.160256
	H8	H	0.832544	0.714302	0.396593
	H9	H	0.160099	0.713990	0.594917
	H10	H	0.832952	0.285541	0.594824
	H11	H	0.160510	0.284344	0.397176
	H12	H	0.832609	0.402092	0.709941
	H13	H	0.160772	0.598048	0.710895
	H14	H	0.832091	0.597381	0.282648
	H15	H	0.160940	0.401510	0.282758
	H16	H	0.396756	0.713926	0.832534
	H17	H	0.594165	0.711109	0.160363
	H18	H	0.596269	0.284001	0.832441
	H19	H	0.398693	0.285233	0.160302
	H20	H	0.711213	0.835487	0.398628
	H21	H	0.711210	0.162848	0.596469
	H22	H	0.281485	0.835493	0.596065
	H23	H	0.282543	0.163310	0.398707
	H24	H	0.900244	0.334359	0.209377
	H25	H	0.093503	0.663446	0.208796
	H26	H	0.094987	0.334980	0.782982
	H27	H	0.899283	0.663068	0.784230
	H28	H	0.209867	0.902268	0.332217
	H29	H	0.208483	0.096644	0.661817
	H30	H	0.784149	0.096309	0.332152
	H31	H	0.783103	0.902473	0.661318
	H32	H	0.333654	0.213324	0.898353
	H33	H	0.660700	0.211698	0.095032
	H34	H	0.332877	0.783927	0.095266
	H35	H	0.659880	0.784169	0.897944
	H36	H	0.331920	0.900875	0.211258
	H37	H	0.660663	0.094831	0.209495
	H38	H	0.331955	0.095813	0.784535
	H39	H	0.659590	0.899463	0.781658
	H40	H	0.897435	0.214766	0.332523
	H41	H	0.093596	0.212580	0.661501
	H42	H	0.095715	0.785198	0.332250
	H43	H	0.898304	0.786506	0.661102
	H44	H	0.211558	0.334880	0.897782
	H45	H	0.211381	0.662726	0.094600
	H46	H	0.782054	0.334919	0.094923
	H47	H	0.781704	0.661830	0.897281
	H48	H	0.397378	0.117301	0.589192
	H49	H	0.591624	0.882931	0.585098
	H50	H	0.591387	0.115206	0.409031
	H51	H	0.403370	0.882038	0.402258
	H52	H	0.586087	0.406335	0.112362
	H53	H	0.588132	0.590523	0.879018
	H54	H	0.413257	0.578627	0.106682
	H55	H	0.406681	0.415444	0.881969
	H56	H	0.115135	0.597921	0.401192
	H57	H	0.876108	0.602944	0.591808
	H58	H	0.115670	0.399718	0.588968
	H59	H	0.880699	0.404528	0.408788
	H60	H	0.111505	0.409127	0.585682
	H61	H	0.883993	0.590287	0.579810
	H62	H	0.111843	0.592728	0.408882
	H63	H	0.880860	0.411348	0.402213
	H64	H	0.410899	0.606386	0.116424
	H65	H	0.589239	0.593570	0.877487
	H66	H	0.591004	0.400704	0.115393
	H67	H	0.413150	0.397699	0.879045
	H68	H	0.593597	0.118077	0.399773
	H69	H	0.592903	0.881358	0.592543
	H70	H	0.402619	0.117649	0.594707
	H71	H	0.403201	0.882840	0.405031
	H72	H	0.905369	0.613989	0.087409
	H73	H	0.084803	0.385322	0.081880
	H74	H	0.088208	0.617214	0.895676
	H75	H	0.902455	0.383160	0.908939
	H76	H	0.097133	0.914951	0.613592
	H77	H	0.091808	0.096418	0.377480
	H78	H	0.891351	0.098740	0.620022
	H79	H	0.904431	0.903690	0.379065
	H80	H	0.616260	0.094647	0.899308
	H81	H	0.376956	0.094987	0.096059
	H82	H	0.613773	0.903252	0.091757
	H83	H	0.378137	0.898100	0.907678
	H84	H	0.613716	0.903575	0.090433
	H85	H	0.379430	0.096572	0.084996
	H86	H	0.613381	0.093126	0.908158
	H87	H	0.382227	0.911761	0.907638
	H88	H	0.903697	0.079357	0.609915
	H89	H	0.091476	0.087814	0.380648
	H90	H	0.077679	0.907674	0.610152
	H91	H	0.900448	0.907867	0.377915
	H92	H	0.084332	0.612611	0.909046
	H93	H	0.100647	0.380027	0.087667
	H94	H	0.898070	0.616484	0.086896
	H95	H	0.898237	0.378412	0.898978
	H96	H	0.404536	0.114608	0.588135
	H97	H	0.586327	0.884009	0.590027
	H98	H	0.584241	0.114551	0.401906
	H99	H	0.400703	0.881378	0.403641
	H100	H	0.593404	0.407795	0.114630
	H101	H	0.591113	0.590890	0.877857
	H102	H	0.387728	0.587843	0.116872
	H103	H	0.394891	0.402238	0.874959
	H104	H	0.113235	0.588625	0.399417
	H105	H	0.879712	0.585403	0.598403
	H106	H	0.114924	0.408088	0.595674
	H107	H	0.877109	0.402728	0.399719
	H108	H	0.901730	0.616863	0.094214
	H109	H	0.086641	0.380636	0.098180
	H110	H	0.098064	0.616817	0.906308
	H111	H	0.909437	0.382121	0.899373
	H112	H	0.092606	0.894846	0.618709
	H113	H	0.083714	0.092911	0.380751
	H114	H	0.915042	0.101464	0.612987
	H115	H	0.905530	0.909025	0.379275
	H116	H	0.612739	0.086624	0.902041
	H117	H	0.380856	0.086316	0.089400
	H118	H	0.614332	0.904463	0.091770
	H119	H	0.376463	0.906202	0.895823
	C120	C	0.373940	0.007872	0.618665
	C121	C	0.617969	0.990990	0.618020
	C122	C	0.618080	0.007539	0.375319
	C123	C	0.374638	0.990541	0.375382
	C124	C	0.618303	0.376873	0.005161
	C125	C	0.617758	0.619828	0.986995
	C126	C	0.374916	0.619876	0.004596
	C127	C	0.375983	0.377164	0.987357
	C128	C	0.005036	0.621402	0.374353
	C129	C	0.988529	0.621194	0.618337
	C130	C	0.005412	0.377713	0.617860
	C131	C	0.988155	0.377989	0.375116
	C132	C	0.874511	0.507064	0.117966
	C133	C	0.118821	0.490681	0.117662
	C134	C	0.118821	0.507250	0.874833
	C135	C	0.875065	0.489884	0.874698
	C136	C	0.117822	0.877799	0.505320
	C137	C	0.117278	0.120701	0.488325
	C138	C	0.875108	0.121375	0.505510
	C139	C	0.875002	0.878510	0.487615
	C140	C	0.505547	0.119862	0.875125
	C141	C	0.487802	0.120145	0.118247
	C142	C	0.505081	0.876255	0.118950
	C143	C	0.487312	0.877206	0.875482
	C144	C	0.377460	0.884046	0.672980
	C145	C	0.614199	0.114348	0.672570
	C146	C	0.614977	0.883897	0.321506
	C147	C	0.377710	0.113964	0.320695
	C148	C	0.672982	0.379438	0.880846
	C149	C	0.671945	0.616650	0.111228
	C150	C	0.320310	0.617876	0.880680
	C151	C	0.321116	0.379944	0.111011
	C152	C	0.881330	0.676102	0.376756
	C153	C	0.111490	0.676100	0.615478
	C154	C	0.881791	0.323108	0.615262
	C155	C	0.111786	0.322893	0.377496
	C156	C	0.881473	0.381297	0.672079
	C157	C	0.111747	0.618230	0.673049
	C158	C	0.881369	0.618389	0.319673
	C159	C	0.111833	0.380802	0.320313
	C160	C	0.376630	0.675878	0.881310
	C161	C	0.614774	0.673892	0.111233
	C162	C	0.616513	0.321397	0.881420
	C163	C	0.378123	0.322471	0.111136
	C164	C	0.673265	0.884325	0.378386
	C165	C	0.672815	0.114055	0.615993
	C166	C	0.319460	0.884413	0.616089
	C167	C	0.319786	0.114033	0.378050
	C168	C	0.878563	0.383680	0.172454
	C169	C	0.115108	0.614322	0.171625
	C170	C	0.115891	0.383886	0.820409
	C171	C	0.878089	0.613741	0.820761
	C172	C	0.172542	0.881166	0.381489
	C173	C	0.171254	0.117350	0.612427
	C174	C	0.820611	0.118280	0.381321
	C175	C	0.820955	0.881745	0.612356
	C176	C	0.382077	0.175081	0.877861
	C177	C	0.611572	0.174257	0.115586
	C178	C	0.381649	0.821739	0.116086
	C179	C	0.611026	0.822265	0.877927
	C180	C	0.381207	0.880002	0.173512
	C181	C	0.611533	0.116392	0.172522
	C182	C	0.381316	0.116800	0.821508
	C183	C	0.610842	0.879317	0.819985
	C184	C	0.877283	0.176459	0.381394
	C185	C	0.114263	0.174868	0.612418
	C186	C	0.115588	0.823306	0.381329
	C187	C	0.877905	0.824063	0.611949
	C188	C	0.173884	0.383897	0.877386
	C189	C	0.173642	0.613741	0.114975
	C190	C	0.819966	0.383804	0.115648
	C191	C	0.819628	0.613097	0.877004
	C192	C	0.395303	0.094218	0.597147
	C193	C	0.596616	0.904851	0.595781
	C194	C	0.596129	0.093879	0.397048
	C195	C	0.396072	0.904366	0.397121
	C196	C	0.596597	0.398567	0.091622
	C197	C	0.595951	0.598115	0.900615
	C198	C	0.397418	0.597637	0.091065
	C199	C	0.398335	0.398930	0.900792
	C200	C	0.091116	0.599524	0.396666
	C201	C	0.902225	0.599437	0.596381
	C202	C	0.091693	0.399153	0.596450
	C203	C	0.901752	0.399954	0.396922
	C204	C	0.895593	0.593482	0.095972
	C205	C	0.096991	0.404243	0.095795
	C206	C	0.096646	0.593305	0.897091
	C207	C	0.896824	0.403469	0.896243
	C208	C	0.095732	0.899337	0.591899
	C209	C	0.095374	0.098889	0.401847
	C210	C	0.896922	0.099719	0.591847
	C211	C	0.896838	0.900435	0.401236
	C212	C	0.591783	0.097933	0.896775
	C213	C	0.401278	0.099043	0.096356
	C214	C	0.591628	0.897384	0.097480
	C215	C	0.401294	0.898830	0.897314
	Zn216	Zn	0.496088	-0.001267	0.746528
	Zn217	Zn	0.496275	-0.001363	0.246625
	Zn218	Zn	0.746183	0.498372	-0.004104
	Zn219	Zn	0.247396	0.498953	-0.004163
	Zn220	Zn	-0.003949	0.749733	0.496107
	Zn221	Zn	-0.002962	0.249383	0.496522
	Zn222	Zn	-0.003302	0.498900	0.746990
	Zn223	Zn	-0.003478	0.499403	0.246421
	Zn224	Zn	0.496306	0.747927	-0.003768
	Zn225	Zn	0.497251	0.248561	-0.003742
	Zn226	Zn	0.746930	-0.000378	0.496622
	Zn227	Zn	0.246306	-0.000668	0.497352
	N228	N	0.410405	0.961803	0.674880
	N229	N	0.580929	0.036661	0.674192
	N230	N	0.581138	0.961483	0.319635
	N231	N	0.411147	0.036272	0.318965
	N232	N	0.674389	0.413125	0.958696
	N233	N	0.673798	0.583500	0.033099
	N234	N	0.319213	0.583684	0.958400
	N235	N	0.319595	0.413231	0.032963
	N236	N	0.959221	0.678095	0.410288
	N237	N	0.033816	0.677723	0.581919
	N238	N	0.959804	0.320926	0.582298
	N239	N	0.033825	0.320872	0.410752
	N240	N	0.959285	0.414475	0.674010
	N241	N	0.034095	0.584916	0.675012
	N242	N	0.959141	0.584945	0.318130
	N243	N	0.034039	0.414546	0.319055
	N244	N	0.410156	0.677159	0.959363
	N245	N	0.581763	0.676026	0.033153
	N246	N	0.583147	0.319851	0.959572
	N247	N	0.411902	0.320791	0.033265
	N248	N	0.675174	0.962307	0.411132
	N249	N	0.675039	0.036466	0.582646
	N250	N	0.317295	0.962397	0.583025
	N251	N	0.317847	0.036216	0.411367
	N252	N	0.911555	0.461509	0.174039
	N253	N	0.081851	0.536674	0.173372
	N254	N	0.082133	0.461558	0.818865
	N255	N	0.911919	0.536085	0.819227
	N256	N	0.174143	0.914227	0.459541
	N257	N	0.173399	0.084392	0.534257
	N258	N	0.819124	0.084790	0.459300
	N259	N	0.819093	0.914732	0.534349
	N260	N	0.460202	0.177008	0.910799
	N261	N	0.533559	0.176862	0.082708
	N262	N	0.459711	0.819205	0.083092
	N263	N	0.533449	0.820867	0.911716
	N264	N	0.458995	0.913058	0.175309
	N265	N	0.533618	0.083492	0.174298
	N266	N	0.458885	0.083280	0.819797
	N267	N	0.533092	0.912899	0.818201
	N268	N	0.910447	0.178539	0.459463
	N269	N	0.081233	0.176849	0.534203
	N270	N	0.082148	0.821004	0.459449
	N271	N	0.910868	0.821692	0.533540
	N272	N	0.175567	0.461651	0.910500
	N273	N	0.176115	0.535650	0.082227
	N274	N	0.817479	0.461581	0.082371
	N275	N	0.817841	0.535086	0.909776
	O276	O	0.531322	-0.489043	1.435530
	H277	H	0.535975	-0.482547	1.436204
	H278	H	0.538385	-0.492491	1.432406
	O279	O	0.484995	0.539775	0.401032
	H280	H	0.484687	0.540849	0.404728
	H281	H	0.473655	0.536641	0.392587
	O282	O	1.486267	1.522658	0.416008
	H283	H	1.492703	1.522899	0.416489
	H284	H	1.492756	1.516436	0.420553
	O285	O	0.534517	0.533039	0.419676
	H286	H	0.535236	0.543199	0.409480
	H287	H	0.523223	0.533819	0.419236
