data_Molecule from HDF5

_cell_length_a		16.241658
_cell_length_b		16.202506
_cell_length_c		16.258742
_cell_angle_alpha	89.807561
_cell_angle_beta	89.988936
_cell_angle_gamma	89.946762
_symmetry_space_group_name_H-M	'P 1'
_symmetry_Int_Tables_number		1

loop_
	_symmetry_equiv_pos_as_xyz
	x,y,z

loop_
	_atom_site_label
	_atom_site_type_symbol
	_atom_site_fract_x
	_atom_site_fract_y
	_atom_site_fract_z
	H0	H	0.400337	0.832916	0.716423
	H1	H	0.595128	0.162657	0.716486
	H2	H	0.595627	0.833519	0.291663
	H3	H	0.397874	0.161610	0.287236
	H4	H	0.711468	0.399848	0.838241
	H5	H	0.712734	0.594074	0.165754
	H6	H	0.285064	0.596695	0.837313
	H7	H	0.282931	0.397793	0.165866
	H8	H	0.833061	0.713201	0.403757
	H9	H	0.162803	0.711310	0.598528
	H10	H	0.833535	0.285955	0.598832
	H11	H	0.162847	0.285574	0.404220
	H12	H	0.834446	0.400759	0.716446
	H13	H	0.162035	0.595917	0.714482
	H14	H	0.833361	0.598165	0.286603
	H15	H	0.162403	0.400948	0.287620
	H16	H	0.401422	0.712007	0.838362
	H17	H	0.597509	0.709573	0.166866
	H18	H	0.595490	0.284238	0.837824
	H19	H	0.401144	0.284272	0.167359
	H20	H	0.711923	0.834295	0.405607
	H21	H	0.709937	0.163550	0.600473
	H22	H	0.283401	0.834372	0.603105
	H23	H	0.285593	0.163214	0.405662
	H24	H	0.899849	0.334771	0.217455
	H25	H	0.096289	0.663307	0.213968
	H26	H	0.096036	0.333873	0.787918
	H27	H	0.899617	0.662962	0.788435
	H28	H	0.213233	0.900719	0.338492
	H29	H	0.210849	0.096992	0.666917
	H30	H	0.782942	0.098784	0.339054
	H31	H	0.783819	0.899520	0.666627
	H32	H	0.333582	0.211446	0.904961
	H33	H	0.662345	0.210525	0.101340
	H34	H	0.333336	0.782513	0.101767
	H35	H	0.663646	0.784759	0.906969
	H36	H	0.333211	0.899172	0.217363
	H37	H	0.661995	0.095035	0.216480
	H38	H	0.333578	0.095734	0.789302
	H39	H	0.662030	0.897779	0.788203
	H40	H	0.900508	0.212528	0.337873
	H41	H	0.095082	0.211285	0.666829
	H42	H	0.094735	0.787174	0.336984
	H43	H	0.899177	0.783193	0.666254
	H44	H	0.210833	0.333441	0.903752
	H45	H	0.211630	0.662548	0.098148
	H46	H	0.785706	0.332833	0.100853
	H47	H	0.783828	0.662215	0.903624
	H48	H	0.395112	0.118614	0.598911
	H49	H	0.594231	0.880848	0.592848
	H50	H	0.585553	0.117360	0.398664
	H51	H	0.407707	0.883167	0.417490
	H52	H	0.600406	0.404447	0.121223
	H53	H	0.585364	0.590396	0.886936
	H54	H	0.404296	0.590378	0.119034
	H55	H	0.401801	0.411143	0.886482
	H56	H	0.113656	0.584269	0.404129
	H57	H	0.884036	0.589072	0.586189
	H58	H	0.115437	0.397412	0.587722
	H59	H	0.881173	0.397319	0.418437
	H60	H	0.112671	0.414647	0.593133
	H61	H	0.880250	0.585288	0.604060
	H62	H	0.117568	0.599187	0.402804
	H63	H	0.885705	0.417068	0.410683
	H64	H	0.402697	0.588457	0.119180
	H65	H	0.593317	0.596261	0.882588
	H66	H	0.588036	0.408410	0.117091
	H67	H	0.411581	0.402521	0.886517
	H68	H	0.585016	0.111870	0.418636
	H69	H	0.592764	0.879327	0.599867
	H70	H	0.410545	0.116578	0.604828
	H71	H	0.398997	0.878669	0.411258
	H72	H	0.901746	0.616618	0.093993
	H73	H	0.079928	0.384256	0.095385
	H74	H	0.100044	0.615326	0.916939
	H75	H	0.919879	0.382426	0.900455
	H76	H	0.087284	0.900983	0.619115
	H77	H	0.084528	0.089628	0.387679
	H78	H	0.894189	0.100040	0.624419
	H79	H	0.917334	0.911248	0.390992
	H80	H	0.616628	0.100093	0.915576
	H81	H	0.381639	0.091469	0.093233
	H82	H	0.613674	0.911820	0.102635
	H83	H	0.379075	0.905452	0.899223
	H84	H	0.618712	0.894967	0.102673
	H85	H	0.381605	0.087363	0.096471
	H86	H	0.610764	0.080759	0.914824
	H87	H	0.379837	0.894254	0.916252
	H88	H	0.901538	0.079720	0.616532
	H89	H	0.093012	0.099869	0.382700
	H90	H	0.095625	0.904170	0.620996
	H91	H	0.902588	0.892846	0.380665
	H92	H	0.095733	0.620177	0.897387
	H93	H	0.097238	0.381795	0.085912
	H94	H	0.905579	0.616404	0.096750
	H95	H	0.903900	0.384951	0.925053
	H96	H	0.407062	0.112577	0.589057
	H97	H	0.588073	0.882239	0.595467
	H98	H	0.601979	0.119130	0.409787
	H99	H	0.408564	0.881197	0.406527
	H100	H	0.589629	0.395682	0.121008
	H101	H	0.595619	0.585790	0.885212
	H102	H	0.405177	0.588565	0.118202
	H103	H	0.400193	0.398581	0.882340
	H104	H	0.112760	0.593718	0.416611
	H105	H	0.876425	0.602141	0.597117
	H106	H	0.119582	0.401916	0.604858
	H107	H	0.876389	0.402229	0.397150
	H108	H	0.905816	0.614991	0.092161
	H109	H	0.095705	0.376629	0.105546
	H110	H	0.081118	0.612054	0.909406
	H111	H	0.890600	0.374476	0.900073
	H112	H	0.089632	0.909808	0.617031
	H113	H	0.099015	0.087091	0.385019
	H114	H	0.916328	0.097963	0.618086
	H115	H	0.892776	0.915823	0.384303
	H116	H	0.618524	0.089517	0.898655
	H117	H	0.379266	0.092621	0.098481
	H118	H	0.612431	0.902461	0.088113
	H119	H	0.386188	0.913458	0.915873
	C120	C	0.375800	0.007072	0.625610
	C121	C	0.619274	0.989918	0.624418
	C122	C	0.619317	0.007223	0.381516
	C123	C	0.376983	0.989767	0.382805
	C124	C	0.620330	0.375214	0.011024
	C125	C	0.619447	0.618024	0.993649
	C126	C	0.376330	0.618764	0.010588
	C127	C	0.376297	0.375792	0.993915
	C128	C	0.006043	0.621076	0.379438
	C129	C	0.989093	0.620151	0.623064
	C130	C	0.007018	0.376734	0.623670
	C131	C	0.989963	0.377426	0.380326
	C132	C	0.876900	0.506966	0.122878
	C133	C	0.119471	0.489824	0.123152
	C134	C	0.119977	0.506878	0.879907
	C135	C	0.876584	0.489454	0.880302
	C136	C	0.119724	0.876790	0.510540
	C137	C	0.119443	0.119790	0.494087
	C138	C	0.876150	0.120719	0.511006
	C139	C	0.876178	0.877583	0.494121
	C140	C	0.506481	0.118592	0.881538
	C141	C	0.489115	0.118696	0.124351
	C142	C	0.506162	0.874728	0.125849
	C143	C	0.490346	0.875967	0.882139
	C144	C	0.379238	0.882384	0.679364
	C145	C	0.615963	0.113637	0.679168
	C146	C	0.616597	0.883093	0.328095
	C147	C	0.378360	0.113137	0.326124
	C148	C	0.674285	0.378795	0.887276
	C149	C	0.674567	0.614736	0.117242
	C150	C	0.322732	0.616704	0.886494
	C151	C	0.321198	0.378158	0.117280
	C152	C	0.882216	0.675707	0.382673
	C153	C	0.113481	0.673899	0.619010
	C154	C	0.882909	0.323043	0.620109
	C155	C	0.113711	0.323035	0.383362
	C156	C	0.883282	0.380163	0.678324
	C157	C	0.113093	0.617123	0.677103
	C158	C	0.882363	0.618662	0.324462
	C159	C	0.113564	0.380484	0.325592
	C160	C	0.380260	0.674266	0.887153
	C161	C	0.617127	0.671714	0.117656
	C162	C	0.616553	0.321488	0.887035
	C163	C	0.379718	0.321309	0.117887
	C164	C	0.674438	0.883383	0.384950
	C165	C	0.673265	0.114082	0.621643
	C166	C	0.320811	0.883228	0.623244
	C167	C	0.322635	0.113890	0.384943
	C168	C	0.879631	0.383548	0.179065
	C169	C	0.117118	0.613901	0.176816
	C170	C	0.116800	0.382946	0.825590
	C171	C	0.878959	0.613618	0.825686
	C172	C	0.175074	0.880213	0.387253
	C173	C	0.173354	0.117016	0.617802
	C174	C	0.821273	0.118649	0.387694
	C175	C	0.821748	0.879261	0.617682
	C176	C	0.382800	0.173748	0.884364
	C177	C	0.613230	0.172908	0.121782
	C178	C	0.382531	0.820007	0.122659
	C179	C	0.614347	0.821864	0.885817
	C180	C	0.382642	0.877888	0.180262
	C181	C	0.613044	0.115412	0.178873
	C182	C	0.382622	0.116121	0.827034
	C183	C	0.613602	0.878216	0.826807
	C184	C	0.879653	0.175141	0.387125
	C185	C	0.115606	0.173947	0.617933
	C186	C	0.116673	0.823316	0.386558
	C187	C	0.879169	0.821608	0.617431
	C188	C	0.173810	0.382692	0.882946
	C189	C	0.174576	0.613462	0.119425
	C190	C	0.823180	0.382448	0.120946
	C191	C	0.821211	0.613178	0.882757
	C192	C	0.397652	0.093700	0.604042
	C193	C	0.597868	0.903245	0.602551
	C194	C	0.597296	0.093892	0.402824
	C195	C	0.398782	0.903329	0.405087
	C196	C	0.599025	0.396601	0.097491
	C197	C	0.597865	0.597010	0.907317
	C198	C	0.397632	0.595986	0.096675
	C199	C	0.398059	0.397614	0.907330
	C200	C	0.092423	0.598826	0.401361
	C201	C	0.902637	0.598528	0.601987
	C202	C	0.093593	0.398445	0.601776
	C203	C	0.903410	0.399100	0.402219
	C204	C	0.898081	0.593681	0.100614
	C205	C	0.097524	0.403254	0.101913
	C206	C	0.098522	0.593485	0.901375
	C207	C	0.898587	0.402991	0.902028
	C208	C	0.097370	0.898447	0.596826
	C209	C	0.098203	0.098579	0.407548
	C210	C	0.897601	0.098931	0.597491
	C211	C	0.897844	0.900070	0.407634
	C212	C	0.592934	0.096694	0.903253
	C213	C	0.403007	0.096929	0.102630
	C214	C	0.592662	0.896593	0.104148
	C215	C	0.403837	0.897953	0.903987
	Zn216	Zn	0.497847	-0.002468	0.752968
	Zn217	Zn	0.497269	-0.001883	0.253686
	Zn218	Zn	0.748059	0.497340	0.001932
	Zn219	Zn	0.247568	0.497508	0.001506
	Zn220	Zn	-0.002505	0.748590	0.501579
	Zn221	Zn	-0.001758	0.248498	0.501905
	Zn222	Zn	-0.001563	0.498805	0.752181
	Zn223	Zn	-0.002223	0.498877	0.251625
	Zn224	Zn	0.498575	0.746718	0.003053
	Zn225	Zn	0.498471	0.247208	0.002840
	Zn226	Zn	0.747594	-0.000932	0.502930
	Zn227	Zn	0.248418	-0.001610	0.503231
	N228	N	0.412756	0.960293	0.680982
	N229	N	0.583202	0.035275	0.681073
	N230	N	0.583049	0.961042	0.325784
	N231	N	0.411477	0.034896	0.324672
	N232	N	0.676716	0.411433	0.965258
	N233	N	0.676071	0.581911	0.039316
	N234	N	0.320113	0.582997	0.964278
	N235	N	0.318984	0.411241	0.039166
	N236	N	0.960081	0.677253	0.415959
	N237	N	0.035417	0.675893	0.586100
	N238	N	0.960804	0.320869	0.587101
	N239	N	0.035647	0.320898	0.416600
	N240	N	0.961625	0.412740	0.680743
	N241	N	0.035075	0.584171	0.679741
	N242	N	0.960568	0.585395	0.322328
	N243	N	0.035585	0.413462	0.323522
	N244	N	0.413069	0.675395	0.965177
	N245	N	0.583399	0.673784	0.040016
	N246	N	0.583817	0.319181	0.965100
	N247	N	0.413231	0.319764	0.040104
	N248	N	0.676224	0.961755	0.417473
	N249	N	0.675579	0.036217	0.588387
	N250	N	0.318550	0.961718	0.590477
	N251	N	0.321435	0.036096	0.419108
	N252	N	0.912211	0.461832	0.180358
	N253	N	0.083534	0.536078	0.179265
	N254	N	0.083909	0.461140	0.823558
	N255	N	0.912533	0.535669	0.824041
	N256	N	0.177222	0.912507	0.465583
	N257	N	0.175830	0.083927	0.539939
	N258	N	0.819100	0.085437	0.465691
	N259	N	0.819938	0.913517	0.540084
	N260	N	0.460877	0.175456	0.917558
	N261	N	0.535481	0.174894	0.088277
	N262	N	0.460479	0.818000	0.089575
	N263	N	0.536640	0.820582	0.919645
	N264	N	0.460654	0.911067	0.182542
	N265	N	0.535025	0.082153	0.180574
	N266	N	0.460496	0.082617	0.825182
	N267	N	0.535283	0.910967	0.824280
	N268	N	0.913138	0.176431	0.464855
	N269	N	0.082896	0.176055	0.539817
	N270	N	0.082937	0.821181	0.464120
	N271	N	0.912321	0.820493	0.539395
	N272	N	0.175923	0.460751	0.916152
	N273	N	0.176100	0.535132	0.086663
	N274	N	0.821274	0.460289	0.086673
	N275	N	0.819471	0.535028	0.916094
	O276	O	0.965836	0.019246	0.983180
	H277	H	0.963645	0.021904	0.984201
	H278	H	0.964360	0.019868	0.986327
	O279	O	0.423513	0.596633	0.405035
	H280	H	0.417443	0.601772	0.402769
	H281	H	0.417486	0.596902	0.399677
	O282	O	0.998339	1.040105	-0.024709
	H283	H	0.994664	1.043968	-0.026493
	H284	H	1.002265	1.043443	-0.022386
	O285	O	0.426619	0.587789	0.410401
	H286	H	0.419729	0.593145	0.404533
	H287	H	0.420226	0.592244	0.407061
