data_Molecule from HDF5

_cell_length_a		16.576661
_cell_length_b		16.509981
_cell_length_c		16.623310
_cell_angle_alpha	90.038255
_cell_angle_beta	89.919875
_cell_angle_gamma	89.895131
_symmetry_space_group_name_H-M	'P 1'
_symmetry_Int_Tables_number		1

loop_
	_symmetry_equiv_pos_as_xyz
	x,y,z

loop_
	_atom_site_label
	_atom_site_type_symbol
	_atom_site_fract_x
	_atom_site_fract_y
	_atom_site_fract_z
	H0	H	0.385044	0.836675	0.707205
	H1	H	0.590704	0.152599	0.707572
	H2	H	0.591225	0.837481	0.268570
	H3	H	0.379964	0.149919	0.265991
	H4	H	0.709401	0.389569	0.831999
	H5	H	0.710589	0.600729	0.142957
	H6	H	0.267171	0.597573	0.832568
	H7	H	0.264002	0.385942	0.143867
	H8	H	0.830603	0.713728	0.385181
	H9	H	0.143498	0.714855	0.591558
	H10	H	0.831507	0.272491	0.594115
	H11	H	0.144988	0.272924	0.384594
	H12	H	0.832640	0.387853	0.711992
	H13	H	0.143355	0.599685	0.708567
	H14	H	0.830808	0.597619	0.267749
	H15	H	0.144211	0.387406	0.266391
	H16	H	0.385633	0.712395	0.830967
	H17	H	0.593575	0.717599	0.142731
	H18	H	0.591219	0.274308	0.831576
	H19	H	0.381069	0.270470	0.143701
	H20	H	0.706009	0.837454	0.385160
	H21	H	0.706189	0.152940	0.591072
	H22	H	0.268441	0.836709	0.591135
	H23	H	0.265577	0.150967	0.383487
	H24	H	0.882642	0.336284	0.209138
	H25	H	0.092092	0.650679	0.209700
	H26	H	0.097298	0.339815	0.764024
	H27	H	0.880806	0.649300	0.766328
	H28	H	0.212110	0.886296	0.333522
	H29	H	0.208675	0.099104	0.644252
	H30	H	0.765457	0.101158	0.331187
	H31	H	0.767761	0.891744	0.644290
	H32	H	0.330044	0.214645	0.884893
	H33	H	0.643509	0.216413	0.094083
	H34	H	0.330686	0.774235	0.091930
	H35	H	0.643846	0.773774	0.884237
	H36	H	0.331101	0.890427	0.209086
	H37	H	0.642376	0.102518	0.212467
	H38	H	0.331702	0.100901	0.765777
	H39	H	0.644717	0.890271	0.768045
	H40	H	0.883146	0.215722	0.330820
	H41	H	0.090448	0.213695	0.644612
	H42	H	0.093661	0.771956	0.332291
	H43	H	0.883180	0.773833	0.642947
	H44	H	0.210512	0.338563	0.881827
	H45	H	0.207192	0.650836	0.093036
	H46	H	0.767374	0.336967	0.092751
	H47	H	0.766146	0.649436	0.882329
	H48	H	0.396816	0.107121	0.577549
	H49	H	0.576005	0.880697	0.583622
	H50	H	0.576306	0.108909	0.397756
	H51	H	0.402880	0.883869	0.402889
	H52	H	0.572706	0.404635	0.097818
	H53	H	0.580534	0.587144	0.874718
	H54	H	0.398791	0.583363	0.100503
	H55	H	0.394808	0.400612	0.874491
	H56	H	0.100595	0.586044	0.400513
	H57	H	0.874932	0.580706	0.579254
	H58	H	0.102048	0.400914	0.581115
	H59	H	0.879483	0.411398	0.403689
	H60	H	0.097367	0.402772	0.571025
	H61	H	0.874737	0.585617	0.578092
	H62	H	0.097902	0.579392	0.399555
	H63	H	0.874392	0.407483	0.391668
	H64	H	0.399000	0.583447	0.099696
	H65	H	0.581248	0.579466	0.877173
	H66	H	0.579770	0.402537	0.101195
	H67	H	0.396263	0.413430	0.879204
	H68	H	0.573630	0.106880	0.398992
	H69	H	0.575579	0.883810	0.573951
	H70	H	0.399143	0.106913	0.579325
	H71	H	0.395241	0.881484	0.400116
	H72	H	0.895940	0.606956	0.079534
	H73	H	0.080818	0.378899	0.078762
	H74	H	0.075385	0.605622	0.901930
	H75	H	0.904699	0.382737	0.900644
	H76	H	0.079318	0.908050	0.598776
	H77	H	0.072646	0.076937	0.379484
	H78	H	0.900591	0.083731	0.597513
	H79	H	0.892347	0.909233	0.374880
	H80	H	0.600792	0.081778	0.892107
	H81	H	0.378076	0.079636	0.074796
	H82	H	0.597320	0.911440	0.078279
	H83	H	0.374428	0.902391	0.898062
	H84	H	0.601976	0.902966	0.080415
	H85	H	0.375500	0.081635	0.080151
	H86	H	0.600596	0.089174	0.900032
	H87	H	0.374866	0.906718	0.897270
	H88	H	0.894765	0.087845	0.600805
	H89	H	0.074593	0.088801	0.375273
	H90	H	0.073205	0.906853	0.597574
	H91	H	0.902433	0.906872	0.378344
	H92	H	0.079315	0.607642	0.899534
	H93	H	0.071107	0.382075	0.079516
	H94	H	0.901667	0.606197	0.079807
	H95	H	0.900237	0.382931	0.902886
	H96	H	0.399814	0.106559	0.576399
	H97	H	0.584057	0.880192	0.577822
	H98	H	0.576593	0.107160	0.401057
	H99	H	0.402157	0.881765	0.394654
	H100	H	0.578729	0.410289	0.099121
	H101	H	0.574293	0.583239	0.877333
	H102	H	0.398812	0.584105	0.100400
	H103	H	0.406802	0.404678	0.879884
	H104	H	0.101065	0.583005	0.394232
	H105	H	0.876678	0.582199	0.575005
	H106	H	0.098566	0.411175	0.578819
	H107	H	0.875346	0.398480	0.401923
	H108	H	0.899047	0.604925	0.075221
	H109	H	0.076081	0.383281	0.070896
	H110	H	0.074935	0.607190	0.897357
	H111	H	0.900443	0.381266	0.898230
	H112	H	0.076913	0.902157	0.601084
	H113	H	0.084200	0.080276	0.374672
	H114	H	0.893963	0.080357	0.598589
	H115	H	0.896012	0.899634	0.373210
	H116	H	0.596971	0.079549	0.902137
	H117	H	0.376048	0.085863	0.075238
	H118	H	0.598132	0.904403	0.071719
	H119	H	0.373486	0.904049	0.894167
	C120	C	0.366857	0.002882	0.609446
	C121	C	0.609399	0.986208	0.609619
	C122	C	0.607545	0.003496	0.367220
	C123	C	0.366630	0.985830	0.367332
	C124	C	0.609077	0.373013	-0.003506
	C125	C	0.610264	0.615648	0.979576
	C126	C	0.366954	0.615045	-0.003100
	C127	C	0.365928	0.372892	0.980500
	C128	C	-0.003807	0.614991	0.366363
	C129	C	0.978952	0.615184	0.608824
	C130	C	-0.003750	0.372457	0.610020
	C131	C	0.979743	0.372951	0.367261
	C132	C	0.866242	0.502334	0.110267
	C133	C	0.108128	0.485093	0.108995
	C134	C	0.109262	0.503271	0.867012
	C135	C	0.868056	0.485234	0.867563
	C136	C	0.109010	0.872716	0.496287
	C137	C	0.108712	0.114416	0.479725
	C138	C	0.865013	0.116359	0.495446
	C139	C	0.866032	0.873924	0.478959
	C140	C	0.495642	0.115580	0.866688
	C141	C	0.479293	0.115844	0.110002
	C142	C	0.495535	0.873687	0.108855
	C143	C	0.478539	0.872906	0.865697
	C144	C	0.365971	0.883985	0.667766
	C145	C	0.609905	0.105120	0.668322
	C146	C	0.609764	0.884854	0.308390
	C147	C	0.362484	0.103236	0.306423
	C148	C	0.669158	0.370929	0.878888
	C149	C	0.670244	0.618532	0.096542
	C150	C	0.307390	0.616316	0.879297
	C151	C	0.304714	0.368705	0.097346
	C152	C	0.877660	0.673875	0.365820
	C153	C	0.096603	0.674765	0.610052
	C154	C	0.878586	0.312612	0.612400
	C155	C	0.097829	0.312876	0.365691
	C156	C	0.879040	0.369840	0.671042
	C157	C	0.096423	0.617408	0.668231
	C158	C	0.878049	0.616251	0.307637
	C159	C	0.097561	0.369974	0.307108
	C160	C	0.366286	0.673258	0.878344
	C161	C	0.612209	0.676685	0.096253
	C162	C	0.610603	0.313545	0.878706
	C163	C	0.363138	0.311328	0.097212
	C164	C	0.666884	0.884789	0.366278
	C165	C	0.667201	0.105494	0.610404
	C166	C	0.308069	0.884063	0.610092
	C167	C	0.305619	0.103668	0.364865
	C168	C	0.864114	0.383941	0.169687
	C169	C	0.110149	0.603635	0.169326
	C170	C	0.113961	0.386385	0.805297
	C171	C	0.863547	0.602529	0.806711
	C172	C	0.170982	0.868695	0.379896
	C173	C	0.168551	0.117171	0.597413
	C174	C	0.805444	0.119051	0.378121
	C175	C	0.807046	0.872584	0.596827
	C176	C	0.377425	0.175077	0.865765
	C177	C	0.596475	0.176440	0.112681
	C178	C	0.377649	0.813875	0.110654
	C179	C	0.596874	0.813555	0.865273
	C180	C	0.377872	0.871437	0.168896
	C181	C	0.595829	0.119520	0.171442
	C182	C	0.378137	0.118409	0.806663
	C183	C	0.597302	0.871741	0.807748
	C184	C	0.864066	0.176048	0.377924
	C185	C	0.109642	0.173945	0.597534
	C186	C	0.111859	0.812013	0.379165
	C187	C	0.864636	0.814229	0.596586
	C188	C	0.170449	0.385724	0.864013
	C189	C	0.167592	0.603771	0.111570
	C190	C	0.806846	0.384096	0.111658
	C191	C	0.806412	0.602653	0.864170
	C192	C	0.391427	0.085490	0.584935
	C193	C	0.585478	0.903390	0.585412
	C194	C	0.582579	0.086114	0.392110
	C195	C	0.392651	0.903561	0.392329
	C196	C	0.583905	0.398360	0.078293
	C197	C	0.585791	0.590404	0.897638
	C198	C	0.391797	0.590647	0.078883
	C199	C	0.391835	0.398898	0.899048
	C200	C	0.078458	0.590107	0.391109
	C201	C	0.896807	0.590077	0.584283
	C202	C	0.077993	0.397948	0.584468
	C203	C	0.897960	0.398411	0.392010
	C204	C	0.891572	0.584524	0.085326
	C205	C	0.083123	0.403060	0.083789
	C206	C	0.083804	0.585452	0.892416
	C207	C	0.894243	0.403595	0.893220
	C208	C	0.083660	0.898345	0.578015
	C209	C	0.084075	0.089169	0.397813
	C210	C	0.889426	0.091176	0.577551
	C211	C	0.890156	0.898274	0.396822
	C212	C	0.577987	0.090681	0.891114
	C213	C	0.397777	0.089866	0.083966
	C214	C	0.577646	0.898910	0.083885
	C215	C	0.395812	0.897299	0.889691
	Zn216	Zn	0.487890	-0.005331	0.737580
	Zn217	Zn	0.487212	-0.005884	0.238452
	Zn218	Zn	0.739443	0.493550	-0.012398
	Zn219	Zn	0.237142	0.494417	-0.010716
	Zn220	Zn	-0.012721	0.744229	0.487621
	Zn221	Zn	-0.012556	0.243735	0.487785
	Zn222	Zn	-0.012114	0.494545	0.738463
	Zn223	Zn	-0.012043	0.493168	0.237462
	Zn224	Zn	0.486949	0.744522	-0.012130
	Zn225	Zn	0.487887	0.244141	-0.012078
	Zn226	Zn	0.736551	-0.004840	0.487504
	Zn227	Zn	0.238058	-0.006013	0.488248
	N228	N	0.401488	0.959054	0.667570
	N229	N	0.574822	0.029865	0.668169
	N230	N	0.573865	0.959810	0.308685
	N231	N	0.399712	0.028901	0.307920
	N232	N	0.668608	0.406850	0.953392
	N233	N	0.669236	0.581322	0.022733
	N234	N	0.307412	0.580933	0.954108
	N235	N	0.306477	0.406533	0.023668
	N236	N	0.952282	0.673458	0.401342
	N237	N	0.022353	0.673597	0.573938
	N238	N	0.952589	0.313892	0.575168
	N239	N	0.023629	0.314575	0.402384
	N240	N	0.953318	0.406238	0.669678
	N241	N	0.022064	0.581046	0.667644
	N242	N	0.952822	0.580532	0.307623
	N243	N	0.023148	0.406695	0.307949
	N244	N	0.402370	0.672642	0.952508
	N245	N	0.575895	0.675316	0.022296
	N246	N	0.574114	0.314547	0.952904
	N247	N	0.400535	0.313938	0.023579
	N248	N	0.665994	0.959925	0.401906
	N249	N	0.667254	0.030473	0.574801
	N250	N	0.308259	0.959132	0.574780
	N251	N	0.308169	0.029566	0.402127
	N252	N	0.900084	0.458607	0.169088
	N253	N	0.074353	0.528769	0.168264
	N254	N	0.076602	0.460601	0.807049
	N255	N	0.901373	0.528655	0.808676
	N256	N	0.169377	0.905736	0.453827
	N257	N	0.168113	0.080712	0.523035
	N258	N	0.805607	0.082855	0.452504
	N259	N	0.807562	0.908772	0.522638
	N260	N	0.451497	0.173465	0.902180
	N261	N	0.522810	0.174294	0.075081
	N262	N	0.451948	0.814959	0.074139
	N263	N	0.521943	0.814103	0.900537
	N264	N	0.452267	0.907850	0.167850
	N265	N	0.521779	0.082545	0.169881
	N266	N	0.452764	0.082240	0.806861
	N267	N	0.522535	0.907536	0.807533
	N268	N	0.899989	0.174782	0.452203
	N269	N	0.073288	0.172533	0.523395
	N270	N	0.074116	0.814312	0.452720
	N271	N	0.900352	0.814573	0.522001
	N272	N	0.168135	0.459740	0.901531
	N273	N	0.166468	0.529209	0.074712
	N274	N	0.807843	0.458897	0.075493
	N275	N	0.809005	0.528698	0.901363
	O276	O	-0.102374	0.973564	0.045691
	H277	H	-0.109640	0.980625	0.048000
	H278	H	-0.088328	0.977531	0.044799
	O279	O	0.323422	0.358653	0.351568
	H280	H	0.330841	0.361238	0.355273
	H281	H	0.338956	0.371869	0.354819
	O282	O	1.063206	-0.196643	0.982747
	H283	H	1.061912	-0.177504	0.975388
	H284	H	1.071245	-0.214223	0.978947
	O285	O	0.669565	0.674494	0.309345
	H286	H	0.671574	0.668589	0.302722
	H287	H	0.645623	0.666746	0.317351
	O288	O	0.542583	0.570140	0.267373
	H289	H	0.532194	0.556675	0.267519
	H290	H	0.551364	0.557026	0.267835
	O291	O	0.275605	0.361910	0.599332
	H292	H	0.279494	0.353665	0.578567
	H293	H	0.266501	0.352099	0.590093
	O294	O	0.992137	0.032637	1.180261
	H295	H	0.997149	0.021662	1.172597
	H296	H	0.975104	0.018487	1.172335
	O297	O	0.518330	0.709910	0.709054
	H298	H	0.527780	0.710566	0.711314
	H299	H	0.531451	0.733411	0.726839
	O300	O	-0.213249	0.203454	0.787687
	H301	H	-0.208145	0.216479	0.766625
	H302	H	-0.224961	0.183273	0.775637
	O303	O	0.281226	0.287501	0.649019
	H304	H	0.252062	0.259949	0.662966
	H305	H	0.278774	0.291350	0.604670
	O306	O	0.806528	0.020238	0.784106
	H307	H	0.807311	0.017304	0.778591
	H308	H	0.804192	0.014239	0.785023
	O309	O	0.343881	0.489430	0.687809
	H310	H	0.323612	0.489166	0.705626
	H311	H	0.352533	0.474273	0.680069
	O312	O	0.539320	0.704952	0.410925
	H313	H	0.570931	0.716634	0.411570
	H314	H	0.542905	0.697285	0.381140
	O315	O	0.298818	1.678308	0.675933
	H316	H	0.305824	1.648885	0.660694
	H317	H	0.325910	1.671431	0.653511
	O318	O	0.432205	0.710839	0.564453
	H319	H	0.445846	0.710158	0.541166
	H320	H	0.449510	0.719091	0.578910
	O321	O	0.205996	0.782925	0.778246
	H322	H	0.234780	0.748518	0.744297
	H323	H	0.174421	0.789495	0.776704
	O324	O	0.898283	1.013814	-0.137996
	H325	H	0.882283	1.033557	-0.135030
	H326	H	0.895111	1.015737	-0.133518
	O327	O	-0.226342	-0.226070	1.020457
	H328	H	-0.230323	-0.206889	1.016441
	H329	H	-0.246355	-0.240737	1.019310
	O330	O	0.405572	0.267812	0.446929
	H331	H	0.423346	0.265934	0.435859
	H332	H	0.418946	0.267220	0.441004
	O333	O	-0.114178	0.193121	1.076415
	H334	H	-0.114600	0.198728	1.063321
	H335	H	-0.103423	0.175665	1.077461
	O336	O	0.682223	0.299938	0.289788
	H337	H	0.688992	0.284091	0.308010
	H338	H	0.686497	0.323347	0.274953
	O339	O	1.036478	0.203014	0.932504
	H340	H	1.036045	0.204125	0.914829
	H341	H	1.026938	0.198087	0.944039
	O342	O	0.123707	-0.202543	0.132083
	H343	H	0.119293	-0.185982	0.131083
	H344	H	0.102024	-0.201599	0.119203
	O345	O	0.192769	0.787563	1.008700
	H346	H	0.214099	0.773377	0.993329
	H347	H	0.174220	0.796347	0.981289
	O348	O	0.705355	0.462760	0.262511
	H349	H	0.723650	0.462329	0.255894
	H350	H	0.713957	0.463765	0.263906
	O351	O	0.952780	0.774035	0.211445
	H352	H	0.939628	0.780505	0.202780
	H353	H	0.946524	0.742859	0.238605
	O354	O	0.020913	0.209808	1.206794
	H355	H	0.026023	0.214875	1.207206
	H356	H	0.028915	0.224479	1.223290
	O357	O	0.785804	0.793785	0.189787
	H358	H	0.791253	0.773323	0.211038
	H359	H	0.776520	0.809548	0.159166
	O360	O	0.265783	0.526322	0.524239
	H361	H	0.264864	0.538873	0.532071
	H362	H	0.264270	0.530264	0.511263
	O363	O	-0.231976	0.216180	-0.039714
	H364	H	-0.244570	0.230924	-0.061975
	H365	H	-0.244329	0.220698	-0.062667
	O366	O	0.324519	0.476070	0.429888
	H367	H	0.322626	0.491094	0.437974
	H368	H	0.321115	0.481024	0.431046
	O369	O	0.972687	0.162020	-0.014008
	H370	H	0.969495	0.168768	-0.007573
	H371	H	0.960300	0.147758	-0.016966
	O372	O	1.162983	1.016716	0.151387
	H373	H	1.182079	1.034742	0.168794
	H374	H	1.166065	1.037330	0.152526
	O375	O	0.871778	0.112350	0.194008
	H376	H	0.876820	0.104222	0.192725
	H377	H	0.884722	0.111340	0.197119
	O378	O	0.505994	0.493964	0.714827
	H379	H	0.484247	0.482274	0.718593
	H380	H	0.488832	0.503784	0.706701
	O381	O	0.034615	0.969845	0.972047
	H382	H	0.037462	0.970436	0.982196
	H383	H	0.041575	0.962963	0.979276
	O384	O	1.186507	0.148964	0.832291
	H385	H	1.180549	0.135640	0.838683
	H386	H	1.162313	0.143397	0.837220
	O387	O	0.948334	0.852617	-0.132926
	H388	H	0.928658	0.866609	-0.129662
	H389	H	0.958014	0.852501	-0.113968
	O390	O	0.707296	0.276951	0.455553
	H391	H	0.725287	0.258351	0.452702
	H392	H	0.700668	0.273006	0.451980
	O393	O	0.517643	0.399069	0.464973
	H394	H	0.510399	0.415668	0.456635
	H395	H	0.518500	0.396161	0.470855
	O396	O	0.365800	1.593947	1.405177
	H397	H	0.356540	1.607623	1.413401
	H398	H	0.370375	1.589733	1.388102
	O399	O	0.022907	-0.226683	0.766262
	H400	H	0.010421	-0.224232	0.763643
	H401	H	0.022191	-0.234713	0.749166
	O402	O	0.499528	0.526390	0.489294
	H403	H	0.489426	0.531982	0.483392
	H404	H	0.483133	0.530946	0.499266
	O405	O	0.814491	-0.049670	0.919158
	H406	H	0.814642	-0.040893	0.933599
	H407	H	0.806435	-0.033517	0.911992
	O408	O	-0.233914	-0.036138	0.208900
	H409	H	-0.251550	-0.033589	0.225932
	H410	H	-0.232275	-0.057032	0.211844
	O411	O	0.673040	0.324706	0.678126
	H412	H	0.664512	0.341046	0.663006
	H413	H	0.654490	0.341050	0.662642
	O414	O	0.794752	-0.167066	0.826656
	H415	H	0.818315	-0.162273	0.829582
	H416	H	0.795783	-0.145349	0.848257
	O417	O	0.453816	0.451324	0.268160
	H418	H	0.447388	0.444422	0.275263
	H419	H	0.442444	0.446630	0.263024
	O420	O	0.693999	0.699801	0.687405
	H421	H	0.697417	0.723689	0.714422
	H422	H	0.698767	0.647462	0.693536
	O423	O	0.188380	0.195426	1.190636
	H424	H	0.185646	0.215063	1.209594
	H425	H	0.198328	0.198676	1.140400
	O426	O	0.452351	0.371228	0.521966
	H427	H	0.449479	0.364761	0.536628
	H428	H	0.449431	0.378189	0.516832
	O429	O	0.800910	1.046198	1.011982
	H430	H	0.799083	1.042451	1.023406
	H431	H	0.799070	1.065552	1.016164
	O432	O	0.435961	0.533050	0.557975
	H433	H	0.435618	0.528683	0.547145
	H434	H	0.435611	0.523945	0.557990
	O435	O	0.213849	0.987146	-0.015759
	H436	H	0.216797	0.984709	-0.015479
	H437	H	0.209081	0.974775	-0.009797
	O438	O	0.198342	0.202588	0.021375
	H439	H	0.175479	0.198015	-0.002364
	H440	H	0.219132	0.214582	0.009274
	O441	O	0.305675	0.683125	0.453871
	H442	H	0.296850	0.699422	0.458594
	H443	H	0.325058	0.682866	0.447976
	O444	O	0.442069	0.695779	0.299680
	H445	H	0.461144	0.684552	0.288556
	H446	H	0.410654	0.702591	0.287371
	O447	O	-0.049752	0.979468	0.768727
	H448	H	-0.031455	0.969372	0.774212
	H449	H	-0.039603	0.978558	0.761186
	O450	O	0.206052	0.778052	1.249435
	H451	H	0.200138	0.806509	1.229160
	H452	H	0.204441	0.780908	1.258568
	O453	O	0.547220	0.298740	0.580798
	H454	H	0.545608	0.311349	0.586272
	H455	H	0.550647	0.295125	0.578871
	O456	O	-0.037032	0.216087	0.773413
	H457	H	-0.044380	0.233927	0.763772
	H458	H	-0.046366	0.207018	0.759186
	O459	O	1.072883	1.017743	0.175322
	H460	H	1.087617	1.031846	0.186370
	H461	H	1.078966	1.013078	0.168925
	O462	O	0.707910	0.712928	0.514340
	H463	H	0.724810	0.736779	0.526296
	H464	H	0.708773	0.710055	0.553728
	O465	O	0.689629	-0.465290	-0.303262
	H466	H	0.667379	-0.491374	-0.303436
	H467	H	0.699687	-0.476112	-0.293997
	O468	O	0.709080	0.539361	0.425493
	H469	H	0.696876	0.531366	0.414960
	H470	H	0.707890	0.573043	0.439356
	O471	O	0.401284	0.292413	0.704530
	H472	H	0.398623	0.290255	0.720906
	H473	H	0.366541	0.287292	0.692484
	O474	O	0.293070	0.512233	0.262000
	H475	H	0.277608	0.525132	0.254690
	H476	H	0.287422	0.526583	0.260205
	O477	O	0.514264	0.278212	1.270407
	H478	H	0.529264	0.286898	1.268861
	H479	H	0.523392	0.256690	1.242198
	O480	O	0.713462	0.447371	0.551222
	H481	H	0.714802	0.437642	0.543509
	H482	H	0.716097	0.468495	0.537030
	O483	O	1.035704	0.807439	0.994529
	H484	H	1.029799	0.786967	0.991880
	H485	H	1.042751	0.816323	0.995394
	O486	O	1.210312	-0.037869	0.765022
	H487	H	1.227878	-0.043766	0.753193
	H488	H	1.218351	-0.061742	0.760625
	O489	O	1.101546	1.022720	-0.114306
	H490	H	1.118558	1.017761	-0.113901
	H491	H	1.114995	1.006840	-0.104854
