data_Molecule from HDF5

_cell_length_a		16.555851
_cell_length_b		16.386963
_cell_length_c		16.463484
_cell_angle_alpha	90.289156
_cell_angle_beta	90.039315
_cell_angle_gamma	90.130008
_symmetry_space_group_name_H-M	'P 1'
_symmetry_Int_Tables_number		1

loop_
	_symmetry_equiv_pos_as_xyz
	x,y,z

loop_
	_atom_site_label
	_atom_site_type_symbol
	_atom_site_fract_x
	_atom_site_fract_y
	_atom_site_fract_z
	H0	H	0.413143	0.854513	0.721549
	H1	H	0.623226	0.171772	0.720235
	H2	H	0.627169	0.854218	0.276573
	H3	H	0.421000	0.172065	0.284359
	H4	H	0.739462	0.408287	0.841144
	H5	H	0.741194	0.622960	0.156927
	H6	H	0.295014	0.621546	0.843403
	H7	H	0.297265	0.408244	0.155637
	H8	H	0.863538	0.738384	0.392040
	H9	H	0.176144	0.737948	0.608468
	H10	H	0.861729	0.292891	0.602484
	H11	H	0.178573	0.296741	0.398201
	H12	H	0.862078	0.407374	0.721783
	H13	H	0.174914	0.622790	0.725639
	H14	H	0.862086	0.620448	0.276173
	H15	H	0.175087	0.408698	0.276737
	H16	H	0.414069	0.733954	0.841221
	H17	H	0.621990	0.734869	0.158684
	H18	H	0.622072	0.291864	0.840973
	H19	H	0.417208	0.294915	0.157285
	H20	H	0.745082	0.855701	0.389574
	H21	H	0.741118	0.170951	0.606483
	H22	H	0.295210	0.855411	0.607263
	H23	H	0.302366	0.171436	0.397760
	H24	H	0.917494	0.353052	0.213345
	H25	H	0.123904	0.672087	0.222401
	H26	H	0.119998	0.355052	0.781433
	H27	H	0.913223	0.673235	0.778589
	H28	H	0.241742	0.905190	0.340878
	H29	H	0.238776	0.116142	0.657878
	H30	H	0.797199	0.119428	0.343286
	H31	H	0.796762	0.905335	0.655443
	H32	H	0.362218	0.232342	0.896631
	H33	H	0.676141	0.235262	0.104460
	H34	H	0.360714	0.793173	0.103984
	H35	H	0.676566	0.792527	0.896121
	H36	H	0.362450	0.906952	0.222662
	H37	H	0.676791	0.118664	0.221194
	H38	H	0.363098	0.116177	0.779220
	H39	H	0.676023	0.906729	0.777380
	H40	H	0.917647	0.230426	0.340114
	H41	H	0.121816	0.232766	0.658563
	H42	H	0.127278	0.788300	0.342289
	H43	H	0.916183	0.793047	0.656964
	H44	H	0.240413	0.357372	0.892528
	H45	H	0.241737	0.671804	0.108673
	H46	H	0.798973	0.355972	0.100592
	H47	H	0.797916	0.673210	0.894269
	H48	H	0.423899	0.128242	0.589141
	H49	H	0.612710	0.899206	0.582749
	H50	H	0.606010	0.123056	0.414142
	H51	H	0.428960	0.897715	0.409444
	H52	H	0.612241	0.429332	0.111770
	H53	H	0.615413	0.593318	0.888161
	H54	H	0.433295	0.597545	0.109129
	H55	H	0.430772	0.424452	0.886218
	H56	H	0.127100	0.598900	0.417454
	H57	H	0.907548	0.600661	0.592034
	H58	H	0.130227	0.424197	0.583908
	H59	H	0.902694	0.413076	0.408148
	H60	H	0.131235	0.431151	0.594891
	H61	H	0.907843	0.605424	0.585605
	H62	H	0.128805	0.594109	0.408023
	H63	H	0.907846	0.425643	0.412573
	H64	H	0.433003	0.607492	0.112441
	H65	H	0.597782	0.601453	0.890643
	H66	H	0.605164	0.425749	0.111145
	H67	H	0.427896	0.421300	0.884632
	H68	H	0.614305	0.126807	0.413594
	H69	H	0.609744	0.897461	0.592333
	H70	H	0.433183	0.127170	0.594504
	H71	H	0.432751	0.898902	0.410638
	H72	H	0.930171	0.629918	0.091561
	H73	H	0.103937	0.404409	0.081994
	H74	H	0.110186	0.629020	0.914344
	H75	H	0.933129	0.400781	0.903390
	H76	H	0.110871	0.930402	0.610132
	H77	H	0.108525	0.102759	0.386589
	H78	H	0.931133	0.100429	0.611953
	H79	H	0.935869	0.929120	0.389154
	H80	H	0.631723	0.100614	0.911445
	H81	H	0.408929	0.100989	0.086566
	H82	H	0.631190	0.926894	0.092565
	H83	H	0.407292	0.922686	0.911780
	H84	H	0.632039	0.920745	0.087295
	H85	H	0.406044	0.099617	0.096350
	H86	H	0.632878	0.102598	0.910274
	H87	H	0.408111	0.927052	0.910220
	H88	H	0.932347	0.105701	0.613422
	H89	H	0.112882	0.109469	0.383379
	H90	H	0.104458	0.927041	0.608424
	H91	H	0.934060	0.922901	0.386587
	H92	H	0.105113	0.628657	0.910528
	H93	H	0.116037	0.399045	0.084845
	H94	H	0.932702	0.627142	0.087424
	H95	H	0.932633	0.404453	0.916832
	H96	H	0.432730	0.122765	0.584250
	H97	H	0.603127	0.901586	0.585583
	H98	H	0.608858	0.126659	0.406028
	H99	H	0.429836	0.898589	0.413218
	H100	H	0.611342	0.421525	0.114190
	H101	H	0.611976	0.611829	0.882259
	H102	H	0.424852	0.601100	0.113614
	H103	H	0.426570	0.425583	0.884687
	H104	H	0.132010	0.604413	0.409800
	H105	H	0.910825	0.597915	0.584980
	H106	H	0.134687	0.418559	0.594744
	H107	H	0.903280	0.423877	0.399325
	H108	H	0.927542	0.627945	0.086715
	H109	H	0.106440	0.399202	0.094375
	H110	H	0.105070	0.624981	0.916361
	H111	H	0.921239	0.399066	0.910651
	H112	H	0.109889	0.923654	0.613009
	H113	H	0.116656	0.101759	0.384072
	H114	H	0.927570	0.103498	0.614371
	H115	H	0.929417	0.928171	0.386955
	H116	H	0.632252	0.103063	0.912664
	H117	H	0.404548	0.108721	0.091527
	H118	H	0.628513	0.927256	0.084710
	H119	H	0.405874	0.924285	0.907408
	C120	C	0.397924	0.021343	0.621210
	C121	C	0.640902	1.004270	0.620085
	C122	C	0.642585	0.021197	0.377832
	C123	C	0.399883	1.003733	0.379878
	C124	C	0.640492	0.392750	0.007671
	C125	C	0.640111	0.635610	0.991264
	C126	C	0.397617	0.634970	0.007990
	C127	C	0.397481	0.392676	0.989953
	C128	C	0.026455	0.633531	0.378646
	C129	C	1.011584	0.635361	0.621614
	C130	C	0.027638	0.392546	0.621502
	C131	C	1.009836	0.390616	0.376343
	C132	C	0.898462	0.522744	0.118909
	C133	C	0.140794	0.505370	0.120868
	C134	C	0.138970	0.523195	0.880033
	C135	C	0.896781	0.506234	0.877754
	C136	C	0.141533	0.892488	0.507122
	C137	C	0.142472	0.135640	0.489981
	C138	C	0.898766	0.134503	0.508648
	C139	C	0.899795	0.893184	0.491202
	C140	C	0.528431	0.133805	0.879352
	C141	C	0.510816	0.135090	0.122551
	C142	C	0.526985	0.891765	0.121333
	C143	C	0.510583	0.891530	0.877487
	C144	C	0.395287	0.902035	0.681377
	C145	C	0.642537	0.123907	0.680566
	C146	C	0.645462	0.902104	0.316491
	C147	C	0.400475	0.124202	0.322386
	C148	C	0.699646	0.389988	0.888579
	C149	C	0.700844	0.640012	0.109763
	C150	C	0.336182	0.638918	0.890052
	C151	C	0.337579	0.390085	0.108726
	C152	C	0.909704	0.696483	0.374811
	C153	C	0.129030	0.697368	0.625930
	C154	C	0.909121	0.332600	0.621971
	C155	C	0.130097	0.334581	0.377403
	C156	C	0.909062	0.390123	0.680950
	C157	C	0.128265	0.640249	0.684612
	C158	C	0.909090	0.637877	0.317049
	C159	C	0.128766	0.390377	0.317360
	C160	C	0.395444	0.694813	0.889127
	C161	C	0.641398	0.695637	0.110720
	C162	C	0.641185	0.332292	0.888384
	C163	C	0.397044	0.333868	0.109363
	C164	C	0.704028	0.902836	0.373260
	C165	C	0.701064	0.123443	0.623848
	C166	C	0.336368	0.902436	0.624619
	C167	C	0.341953	0.123883	0.378833
	C168	C	0.897882	0.401909	0.175365
	C169	C	0.142594	0.624406	0.182406
	C170	C	0.139767	0.403253	0.820210
	C171	C	0.895225	0.625396	0.818224
	C172	C	0.202166	0.887828	0.388616
	C173	C	0.199810	0.135739	0.610200
	C174	C	0.838202	0.136720	0.390039
	C175	C	0.838125	0.888767	0.608887
	C176	C	0.409517	0.192566	0.877779
	C177	C	0.629123	0.195161	0.123436
	C178	C	0.408366	0.832281	0.122883
	C179	C	0.629148	0.831732	0.876332
	C180	C	0.409473	0.888872	0.182250
	C181	C	0.629542	0.137096	0.181404
	C182	C	0.410046	0.135177	0.819236
	C183	C	0.628924	0.888398	0.817409
	C184	C	0.898208	0.192171	0.388517
	C185	C	0.141641	0.193505	0.610584
	C186	C	0.145240	0.829264	0.389418
	C187	C	0.897350	0.832661	0.609583
	C188	C	0.199583	0.404360	0.875586
	C189	C	0.201279	0.624494	0.125535
	C190	C	0.839025	0.403180	0.119200
	C191	C	0.837542	0.625518	0.875722
	C192	C	0.422888	0.104372	0.596305
	C193	C	0.615688	0.921064	0.594178
	C194	C	0.617075	0.103845	0.403955
	C195	C	0.423616	0.920111	0.403968
	C196	C	0.616334	0.418272	0.090648
	C197	C	0.615372	0.609699	0.908584
	C198	C	0.423126	0.609498	0.090326
	C199	C	0.421450	0.416920	0.906743
	C200	C	0.107953	0.606834	0.404684
	C201	C	0.930078	0.608934	0.595072
	C202	C	0.110525	0.417455	0.597787
	C203	C	0.926590	0.414027	0.399905
	C204	C	0.922971	0.606631	0.095299
	C205	C	0.115983	0.422522	0.094506
	C206	C	0.114032	0.605959	0.906207
	C207	C	0.921688	0.423023	0.903012
	C208	C	0.115678	0.919378	0.589465
	C209	C	0.119259	0.111722	0.406366
	C210	C	0.923357	0.110169	0.591688
	C211	C	0.925665	0.919396	0.408987
	C212	C	0.610834	0.109194	0.904429
	C213	C	0.428005	0.110125	0.098473
	C214	C	0.609241	0.917425	0.095498
	C215	C	0.428544	0.917278	0.902570
	Zn216	Zn	0.520240	0.013082	0.749016
	Zn217	Zn	0.520136	0.012679	0.250721
	Zn218	Zn	0.768999	0.515029	-0.000821
	Zn219	Zn	0.268796	0.514365	-0.000496
	Zn220	Zn	0.020189	0.764068	0.499383
	Zn221	Zn	0.019989	0.263243	0.499302
	Zn222	Zn	0.018905	0.514443	0.750745
	Zn223	Zn	0.018226	0.513129	0.248118
	Zn224	Zn	0.518657	0.763385	-0.000386
	Zn225	Zn	0.519121	0.263440	-0.000508
	Zn226	Zn	0.770290	0.012978	0.499949
	Zn227	Zn	0.270505	0.012458	0.498902
	N228	N	0.432998	0.976712	0.679242
	N229	N	0.606055	0.048574	0.678424
	N230	N	0.607824	0.976640	0.319236
	N231	N	0.435564	0.048396	0.322803
	N232	N	0.699563	0.426737	0.963651
	N233	N	0.700361	0.603482	0.034436
	N234	N	0.337174	0.602660	0.965002
	N235	N	0.337677	0.425850	0.033386
	N236	N	0.983764	0.693972	0.412302
	N237	N	0.055412	0.694551	0.587529
	N238	N	0.983859	0.333992	0.585830
	N239	N	0.055083	0.334339	0.412890
	N240	N	0.983917	0.426557	0.680947
	N241	N	0.054166	0.602417	0.682119
	N242	N	0.982700	0.599304	0.319406
	N243	N	0.052853	0.424169	0.316174
	N244	N	0.432975	0.692507	0.963542
	N245	N	0.604329	0.693046	0.036092
	N246	N	0.605621	0.333500	0.963744
	N247	N	0.433319	0.335176	0.034534
	N248	N	0.702655	0.978064	0.410474
	N249	N	0.700430	0.047887	0.587242
	N250	N	0.337920	0.977485	0.587760
	N251	N	0.341291	0.047850	0.413543
	N252	N	0.934012	0.477478	0.175409
	N253	N	0.105800	0.549385	0.179617
	N254	N	0.102625	0.478008	0.823001
	N255	N	0.931185	0.549876	0.819289
	N256	N	0.199896	0.926429	0.463070
	N257	N	0.200822	0.100743	0.534102
	N258	N	0.838350	0.101557	0.465710
	N259	N	0.839485	0.925428	0.534137
	N260	N	0.483953	0.191801	0.914193
	N261	N	0.554269	0.193802	0.087393
	N262	N	0.482655	0.834045	0.085790
	N263	N	0.554452	0.833292	0.912783
	N264	N	0.484487	0.924830	0.181524
	N265	N	0.554823	0.100560	0.181132
	N266	N	0.484928	0.099156	0.820179
	N267	N	0.554171	0.924558	0.817789
	N268	N	0.935155	0.190925	0.463161
	N269	N	0.107079	0.193734	0.534788
	N270	N	0.108306	0.832090	0.464051
	N271	N	0.934807	0.835151	0.535364
	N272	N	0.199155	0.479925	0.911991
	N273	N	0.200371	0.549391	0.088016
	N274	N	0.839152	0.479606	0.085090
	N275	N	0.838428	0.550228	0.911791
	O276	O	0.482512	0.716130	0.546465
	H277	H	0.472687	0.714063	0.551125
	H278	H	0.467554	0.714604	0.552094
	O279	O	0.395630	0.322008	0.375051
	H280	H	0.401352	0.350188	0.377378
	H281	H	0.401999	0.331254	0.393681
	O282	O	1.443370	1.532922	0.355456
	H283	H	1.430004	1.533837	0.348228
	H284	H	1.440939	1.530860	0.361220
	O285	O	0.815884	-0.889164	-0.197558
	H286	H	0.810936	-0.871627	-0.215784
	H287	H	0.826862	-0.889605	-0.197162
	O288	O	0.049062	-0.107296	-0.207030
	H289	H	0.062599	-0.111009	-0.213235
	H290	H	0.058795	-0.101275	-0.203731
	O291	O	0.980096	0.897064	-0.123427
	H292	H	0.991054	0.906963	-0.125455
	H293	H	0.985080	0.878062	-0.128393
	O294	O	-0.174212	0.960042	-0.165615
	H295	H	-0.180007	0.969189	-0.170517
	H296	H	-0.168698	0.986805	-0.169866
	O297	O	0.737847	0.480594	0.527828
	H298	H	0.730806	0.493428	0.514287
	H299	H	0.748460	0.469501	0.516498
	O300	O	0.251243	0.241052	0.772315
	H301	H	0.257219	0.245940	0.740904
	H302	H	0.241238	0.229086	0.795256
	O303	O	0.213396	-0.157891	0.812005
	H304	H	0.216889	-0.169948	0.830368
	H305	H	0.212546	-0.134830	0.828272
	O306	O	-0.189666	1.022396	1.012123
	H307	H	-0.182762	1.011187	1.030517
	H308	H	-0.187280	1.001990	1.013306
	O309	O	0.226111	0.162442	-0.051986
	H310	H	0.225722	0.175365	-0.059536
	H311	H	0.205994	0.160677	-0.052006
	O312	O	-0.328988	0.664549	0.325449
	H313	H	-0.327110	0.664654	0.325074
	H314	H	-0.331926	0.664394	0.329844
	O315	O	0.160519	0.184935	1.107219
	H316	H	0.163525	0.190931	1.085654
	H317	H	0.160889	0.198524	1.120411
	O318	O	0.515995	1.310765	-0.371398
	H319	H	0.520653	1.301540	-0.381751
	H320	H	0.514764	1.322938	-0.361391
	O321	O	0.557172	0.428786	0.450145
	H322	H	0.569548	0.430402	0.443229
	H323	H	0.572729	0.424511	0.442156
	O324	O	0.489034	0.719488	0.287394
	H325	H	0.515167	0.717444	0.320378
	H326	H	0.497089	0.744966	0.261977
	O327	O	0.034694	0.998712	1.892676
	H328	H	0.042518	1.001292	1.891246
	H329	H	0.028464	0.993073	1.894493
	O330	O	0.321009	-0.557936	-0.536069
	H331	H	0.326589	-0.540697	-0.539742
	H332	H	0.317763	-0.552620	-0.542190
	O333	O	1.037332	0.855317	0.991865
	H334	H	1.034298	0.846357	1.004976
	H335	H	1.029430	0.852490	0.983350
	O336	O	1.110789	-0.073389	0.977079
	H337	H	1.089963	-0.052142	0.964226
	H338	H	1.113061	-0.087233	0.990890
	O339	O	1.258254	0.261461	1.251029
	H340	H	1.271229	0.286161	1.251152
	H341	H	1.282721	0.260236	1.269259
	O342	O	0.723921	0.312110	0.296641
	H343	H	0.730901	0.315139	0.304220
	H344	H	0.743197	0.305447	0.281084
	O345	O	0.234030	0.041490	0.217091
	H346	H	0.247886	0.051253	0.221477
	H347	H	0.245110	0.061557	0.224260
	O348	O	1.303938	0.300809	1.539939
	H349	H	1.290573	0.293955	1.536166
	H350	H	1.298407	0.306393	1.521643
	O351	O	0.703549	0.507139	-0.714624
	H352	H	0.697824	0.507179	-0.730345
	H353	H	0.718520	0.502555	-0.711907
	O354	O	0.027009	1.199922	0.900559
	H355	H	0.016017	1.212524	0.904890
	H356	H	0.028380	1.180897	0.915099
	O357	O	0.861447	1.202462	0.917771
	H358	H	0.848863	1.207083	0.913721
	H359	H	0.856181	1.189139	0.899241
	O360	O	0.307766	0.657254	0.531391
	H361	H	0.290530	0.652273	0.540247
	H362	H	0.308821	0.633546	0.543298
	O363	O	0.302853	0.489289	0.705688
	H364	H	0.310692	0.477586	0.722407
	H365	H	0.302250	0.463737	0.720726
	O366	O	1.066695	-0.011386	0.995037
	H367	H	1.080671	-0.010226	0.992314
	H368	H	1.074414	-0.005566	1.009940
	O369	O	0.420666	0.572639	0.639183
	H370	H	0.416784	0.578615	0.652162
	H371	H	0.420968	0.553735	0.635706
	O372	O	0.722284	0.302510	0.467742
	H373	H	0.732753	0.283079	0.458808
	H374	H	0.716402	0.308087	0.466527
	O375	O	-0.181266	0.829981	1.009994
	H376	H	-0.187962	0.819772	1.013073
	H377	H	-0.171685	0.825916	1.000085
	O378	O	0.571505	0.665875	0.400613
	H379	H	0.559033	0.681140	0.418685
	H380	H	0.582198	0.660684	0.408760
	O381	O	1.014697	0.029593	0.196181
	H382	H	1.037159	0.041406	0.205594
	H383	H	1.028552	0.019210	0.204504
	O384	O	0.112266	0.144749	1.001534
	H385	H	0.116710	0.145280	1.012654
	H386	H	0.106520	0.158392	1.010779
	O387	O	-0.181005	0.996451	1.205662
	H388	H	-0.170096	1.009161	1.214151
	H389	H	-0.183920	0.999209	1.221547
	O390	O	0.201889	0.034910	0.923744
	H391	H	0.207179	0.034079	0.913867
	H392	H	0.192884	0.042782	0.909448
	O393	O	0.864401	1.199334	0.153744
	H394	H	0.879034	1.191823	0.137483
	H395	H	0.872498	1.182522	0.146298
	O396	O	-0.090369	0.126443	0.989487
	H397	H	-0.101462	0.109357	0.991380
	H398	H	-0.102211	0.126532	0.971631
	O399	O	-0.026620	1.221966	-0.125318
	H400	H	-0.026523	1.232384	-0.139022
	H401	H	-0.011276	1.222661	-0.117107
	O402	O	-0.380221	-0.541130	0.590503
	H403	H	-0.373181	-0.546010	0.590832
	H404	H	-0.380264	-0.542167	0.579748
	O405	O	-0.103344	-0.153437	-0.115791
	H406	H	-0.074975	-0.149311	-0.102005
	H407	H	-0.101245	-0.133828	-0.099042
	O408	O	0.399539	0.623812	0.496889
	H409	H	0.412740	0.606262	0.496961
	H410	H	0.390458	0.635797	0.495681
	O411	O	0.613519	0.336652	0.444957
	H412	H	0.611989	0.335822	0.436144
	H413	H	0.601444	0.328811	0.440873
	O414	O	0.505781	0.389148	0.321364
	H415	H	0.520972	0.406966	0.321990
	H416	H	0.516344	0.387918	0.304801
	O417	O	0.737957	0.542681	0.720790
	H418	H	0.758599	0.544665	0.730314
	H419	H	0.755164	0.556021	0.719213
	O420	O	0.747310	0.633868	0.476932
	H421	H	0.742492	0.648342	0.475008
	H422	H	0.757724	0.650691	0.488471
	O423	O	-0.698942	0.534844	0.285826
	H424	H	-0.723765	0.545396	0.263297
	H425	H	-0.691630	0.579148	0.289770
	O426	O	1.001651	0.804918	1.184921
	H427	H	0.978727	0.808989	1.177622
	H428	H	0.992263	0.791421	1.203175
	O429	O	0.571746	0.508186	0.566361
	H430	H	0.586134	0.523254	0.555405
	H431	H	0.574869	0.521616	0.580508
	O432	O	1.036087	-0.005148	1.163200
	H433	H	1.036855	-0.013180	1.162998
	H434	H	1.060480	-0.018757	1.164971
	O435	O	0.057613	0.216483	0.215700
	H436	H	0.084391	0.227417	0.230143
	H437	H	0.079218	0.234244	0.231447
	O438	O	1.221875	-0.191974	-0.020225
	H439	H	1.231960	-0.183417	0.003322
	H440	H	1.228355	-0.199847	-0.001996
	O441	O	0.364094	0.335960	0.706324
	H442	H	0.372248	0.330819	0.709981
	H443	H	0.354176	0.328736	0.688165
	O444	O	0.511894	0.480419	0.658348
	H445	H	0.519940	0.500144	0.640108
	H446	H	0.539375	0.477913	0.673183
	O447	O	0.551305	0.721376	0.709064
	H448	H	0.542091	0.729675	0.714874
	H449	H	0.535821	0.726373	0.709062
	O450	O	0.692926	0.648537	0.475430
	H451	H	0.685183	0.645121	0.501294
	H452	H	0.711462	0.664880	0.492412
	O453	O	0.434835	0.521303	0.623384
	H454	H	0.453390	0.508421	0.615816
	H455	H	0.430533	0.523996	0.642447
	O456	O	0.716268	-0.289627	-0.311561
	H457	H	0.676597	-0.279872	-0.303994
	H458	H	0.735113	-0.295546	-0.284441
	O459	O	0.330408	0.696559	0.314550
	H460	H	0.333183	0.707948	0.350191
	H461	H	0.370402	0.707652	0.315738
	O462	O	-0.137627	0.824704	0.181857
	H463	H	-0.148993	0.832472	0.172047
	H464	H	-0.139092	0.848805	0.173072
	O465	O	1.219912	-0.023332	-0.092532
	H466	H	1.214367	-0.015404	-0.092616
	H467	H	1.217306	-0.025383	-0.091357
