data_Molecule from HDF5

_cell_length_a		16.024344
_cell_length_b		16.248921
_cell_length_c		16.253686
_cell_angle_alpha	90.104795
_cell_angle_beta	90.269076
_cell_angle_gamma	89.542873
_symmetry_space_group_name_H-M	'P 1'
_symmetry_Int_Tables_number		1

loop_
	_symmetry_equiv_pos_as_xyz
	x,y,z

loop_
	_atom_site_label
	_atom_site_type_symbol
	_atom_site_fract_x
	_atom_site_fract_y
	_atom_site_fract_z
	H0	H	0.403896	0.834631	0.707285
	H1	H	0.604329	0.161673	0.710275
	H2	H	0.604817	0.834873	0.277160
	H3	H	0.400548	0.162092	0.275605
	H4	H	0.714907	0.400232	0.828833
	H5	H	0.714051	0.593726	0.158587
	H6	H	0.286507	0.596070	0.829007
	H7	H	0.292503	0.405090	0.159837
	H8	H	0.836139	0.713324	0.395613
	H9	H	0.169239	0.711544	0.594151
	H10	H	0.836352	0.289493	0.590742
	H11	H	0.167688	0.283689	0.395248
	H12	H	0.836332	0.403858	0.704428
	H13	H	0.167654	0.598878	0.710248
	H14	H	0.836867	0.600025	0.279622
	H15	H	0.169120	0.399203	0.282691
	H16	H	0.398356	0.715209	0.829788
	H17	H	0.602106	0.713678	0.156941
	H18	H	0.602806	0.282257	0.829060
	H19	H	0.402374	0.281679	0.155894
	H20	H	0.717000	0.834221	0.397142
	H21	H	0.712020	0.164570	0.589350
	H22	H	0.292631	0.833447	0.586164
	H23	H	0.289144	0.164613	0.395244
	H24	H	0.903979	0.335074	0.210131
	H25	H	0.101525	0.663243	0.209428
	H26	H	0.104248	0.336087	0.778034
	H27	H	0.899130	0.663173	0.778146
	H28	H	0.214182	0.901745	0.327135
	H29	H	0.215855	0.096024	0.657190
	H30	H	0.787660	0.096804	0.328567
	H31	H	0.791618	0.904783	0.658687
	H32	H	0.337831	0.213445	0.890728
	H33	H	0.668961	0.209073	0.091092
	H34	H	0.334514	0.789777	0.088219
	H35	H	0.667837	0.781321	0.893024
	H36	H	0.336625	0.901502	0.204360
	H37	H	0.667498	0.096334	0.206921
	H38	H	0.337605	0.097283	0.778843
	H39	H	0.669199	0.896976	0.780310
	H40	H	0.900475	0.216402	0.329833
	H41	H	0.101895	0.212857	0.657154
	H42	H	0.103570	0.781524	0.329708
	H43	H	0.903984	0.785366	0.657375
	H44	H	0.215368	0.334506	0.897171
	H45	H	0.211986	0.665011	0.090304
	H46	H	0.793068	0.331503	0.088509
	H47	H	0.785722	0.662766	0.897800
	H48	H	0.405089	0.118471	0.593589
	H49	H	0.589236	0.882250	0.592538
	H50	H	0.599074	0.117453	0.402039
	H51	H	0.412031	0.883759	0.402897
	H52	H	0.596873	0.404362	0.110554
	H53	H	0.593938	0.591015	0.876242
	H54	H	0.411617	0.602844	0.111955
	H55	H	0.410056	0.402127	0.875967
	H56	H	0.123479	0.597217	0.402684
	H57	H	0.881900	0.594182	0.588924
	H58	H	0.125461	0.405861	0.598498
	H59	H	0.882408	0.402030	0.403434
	H60	H	0.123141	0.394747	0.582852
	H61	H	0.883917	0.597045	0.583293
	H62	H	0.120173	0.588403	0.404583
	H63	H	0.886896	0.415087	0.404453
	H64	H	0.400795	0.594667	0.113223
	H65	H	0.591750	0.589859	0.876801
	H66	H	0.593029	0.401459	0.110977
	H67	H	0.404988	0.405478	0.875242
	H68	H	0.593816	0.118672	0.391266
	H69	H	0.595681	0.883341	0.578084
	H70	H	0.417394	0.113719	0.586443
	H71	H	0.403010	0.879586	0.396834
	H72	H	0.914618	0.615410	0.094498
	H73	H	0.099247	0.378902	0.096349
	H74	H	0.087261	0.613577	0.907143
	H75	H	0.906254	0.382523	0.906418
	H76	H	0.102878	0.909503	0.610252
	H77	H	0.095094	0.086858	0.376381
	H78	H	0.900468	0.093850	0.613429
	H79	H	0.913581	0.913065	0.378909
	H80	H	0.626234	0.092566	0.892599
	H81	H	0.383595	0.090494	0.083886
	H82	H	0.619702	0.913503	0.086420
	H83	H	0.388016	0.920686	0.899778
	H84	H	0.625349	0.899121	0.092037
	H85	H	0.382758	0.092008	0.083262
	H86	H	0.623343	0.096191	0.906784
	H87	H	0.378460	0.903081	0.885382
	H88	H	0.913630	0.091170	0.608454
	H89	H	0.086948	0.096350	0.375966
	H90	H	0.090813	0.907306	0.607905
	H91	H	0.915396	0.898042	0.376197
	H92	H	0.102414	0.619479	0.901993
	H93	H	0.089102	0.383823	0.086746
	H94	H	0.909969	0.611993	0.078502
	H95	H	0.904252	0.377211	0.890639
	H96	H	0.405555	0.116395	0.579304
	H97	H	0.605891	0.877683	0.590034
	H98	H	0.587359	0.113309	0.399669
	H99	H	0.413514	0.880850	0.391380
	H100	H	0.597570	0.400214	0.112086
	H101	H	0.591388	0.592150	0.875719
	H102	H	0.412746	0.590167	0.109085
	H103	H	0.410583	0.408113	0.877296
	H104	H	0.123403	0.590657	0.395581
	H105	H	0.884921	0.590931	0.584390
	H106	H	0.118244	0.413402	0.582178
	H107	H	0.881671	0.409633	0.393572
	H108	H	0.898660	0.618831	0.089303
	H109	H	0.102870	0.382032	0.082873
	H110	H	0.089095	0.618941	0.891191
	H111	H	0.919006	0.382993	0.895344
	H112	H	0.097888	0.899684	0.612079
	H113	H	0.098450	0.098016	0.372207
	H114	H	0.909142	0.103697	0.613294
	H115	H	0.900853	0.904092	0.373596
	H116	H	0.619188	0.082220	0.901617
	H117	H	0.383824	0.091188	0.081449
	H118	H	0.621116	0.900748	0.076927
	H119	H	0.384574	0.898022	0.909208
	C120	C	0.381377	0.007133	0.614055
	C121	C	0.624559	0.989959	0.615080
	C122	C	0.623761	0.007740	0.370143
	C123	C	0.379997	0.990143	0.368903
	C124	C	0.624048	0.374868	0.002086
	C125	C	0.622342	0.619483	0.984842
	C126	C	0.378967	0.622544	0.002431
	C127	C	0.380611	0.376997	0.984809
	C128	C	0.011777	0.620629	0.372744
	C129	C	0.993511	0.621605	0.615123
	C130	C	0.011733	0.378452	0.614742
	C131	C	0.993408	0.378314	0.372374
	C132	C	0.880404	0.506618	0.115559
	C133	C	0.124228	0.490935	0.116427
	C134	C	0.122822	0.508459	0.872031
	C135	C	0.879397	0.489793	0.870193
	C136	C	0.124937	0.876839	0.501255
	C137	C	0.123069	0.121270	0.483835
	C138	C	0.879457	0.123019	0.502463
	C139	C	0.881695	0.878151	0.485080
	C140	C	0.512911	0.119472	0.871014
	C141	C	0.493312	0.119068	0.112400
	C142	C	0.511354	0.877731	0.112679
	C143	C	0.493750	0.876620	0.870170
	C144	C	0.384177	0.883681	0.668843
	C145	C	0.622818	0.113268	0.671058
	C146	C	0.623702	0.883873	0.315493
	C147	C	0.381072	0.113385	0.313624
	C148	C	0.677991	0.379175	0.878041
	C149	C	0.677206	0.615490	0.109092
	C150	C	0.323999	0.617533	0.878106
	C151	C	0.328079	0.381985	0.109640
	C152	C	0.886122	0.675897	0.375012
	C153	C	0.119082	0.674909	0.614046
	C154	C	0.886169	0.325877	0.611308
	C155	C	0.118338	0.321802	0.374976
	C156	C	0.886129	0.383100	0.667621
	C157	C	0.118525	0.618788	0.671566
	C158	C	0.886375	0.619381	0.317557
	C159	C	0.118921	0.379085	0.318700
	C160	C	0.379497	0.676792	0.878521
	C161	C	0.621158	0.674755	0.108327
	C162	C	0.621986	0.320808	0.877991
	C163	C	0.383015	0.320930	0.107700
	C164	C	0.679564	0.883535	0.374990
	C165	C	0.676584	0.114878	0.611033
	C166	C	0.328465	0.883052	0.608839
	C167	C	0.325907	0.114787	0.373274
	C168	C	0.883797	0.383445	0.171310
	C169	C	0.121302	0.614514	0.171049
	C170	C	0.122943	0.385100	0.816300
	C171	C	0.879974	0.613820	0.816176
	C172	C	0.178008	0.880283	0.376844
	C173	C	0.178318	0.117024	0.607942
	C174	C	0.824810	0.118820	0.378057
	C175	C	0.828350	0.883120	0.609335
	C176	C	0.387310	0.175119	0.871809
	C177	C	0.618909	0.172822	0.111347
	C178	C	0.385281	0.825107	0.109520
	C179	C	0.618246	0.819398	0.872768
	C180	C	0.386166	0.880573	0.167196
	C181	C	0.618152	0.116748	0.168991
	C182	C	0.387305	0.117781	0.815965
	C183	C	0.619058	0.877220	0.816694
	C184	C	0.880558	0.178478	0.378851
	C185	C	0.121778	0.175272	0.607999
	C186	C	0.122791	0.820643	0.378271
	C187	C	0.883966	0.823521	0.608621
	C188	C	0.178742	0.384231	0.875356
	C189	C	0.176336	0.615530	0.111731
	C190	C	0.828503	0.381774	0.111039
	C191	C	0.823411	0.613608	0.875203
	C192	C	0.403036	0.093806	0.592832
	C193	C	0.603290	0.903548	0.593470
	C194	C	0.600372	0.094141	0.391435
	C195	C	0.402714	0.903662	0.390776
	C196	C	0.602384	0.395952	0.088734
	C197	C	0.599384	0.597546	0.898590
	C198	C	0.401514	0.601973	0.089020
	C199	C	0.402159	0.398796	0.898613
	C200	C	0.099382	0.598649	0.394375
	C201	C	0.906117	0.600325	0.592312
	C202	C	0.099508	0.398604	0.593972
	C203	C	0.906163	0.401906	0.394113
	C204	C	0.901498	0.593175	0.093899
	C205	C	0.103148	0.404101	0.095072
	C206	C	0.099689	0.594807	0.893608
	C207	C	0.903010	0.403374	0.891331
	C208	C	0.103529	0.898975	0.587676
	C209	C	0.100267	0.099886	0.397293
	C210	C	0.901322	0.102355	0.589013
	C211	C	0.903322	0.899065	0.398704
	C212	C	0.600340	0.096977	0.893705
	C213	C	0.406105	0.097510	0.089586
	C214	C	0.599309	0.898258	0.091483
	C215	C	0.406268	0.900335	0.891733
	Zn216	Zn	0.503832	-0.001325	0.743566
	Zn217	Zn	0.501918	-0.002075	0.240561
	Zn218	Zn	0.751332	0.497015	-0.006314
	Zn219	Zn	0.251555	0.500010	-0.005741
	Zn220	Zn	0.003219	0.748555	0.493907
	Zn221	Zn	0.002141	0.250946	0.493972
	Zn222	Zn	0.002315	0.500107	0.742093
	Zn223	Zn	0.002828	0.498988	0.244777
	Zn224	Zn	0.501636	0.750174	-0.007223
	Zn225	Zn	0.502788	0.246335	-0.007632
	Zn226	Zn	0.751618	-0.000069	0.493370
	Zn227	Zn	0.252218	-0.000565	0.491502
	N228	N	0.416309	0.962007	0.672186
	N229	N	0.591041	0.034804	0.673642
	N230	N	0.589797	0.962100	0.312215
	N231	N	0.414079	0.034793	0.310979
	N232	N	0.679473	0.412057	0.956240
	N233	N	0.677939	0.581768	0.031333
	N234	N	0.323327	0.584717	0.956194
	N235	N	0.326364	0.416235	0.032306
	N236	N	0.965074	0.676875	0.408694
	N237	N	0.040367	0.676805	0.579563
	N238	N	0.965473	0.322811	0.579135
	N239	N	0.039303	0.321086	0.407678
	N240	N	0.965238	0.415153	0.669852
	N241	N	0.039545	0.586295	0.672408
	N242	N	0.965413	0.585551	0.316035
	N243	N	0.040184	0.413805	0.317071
	N244	N	0.412987	0.680126	0.956674
	N245	N	0.587778	0.677379	0.030092
	N246	N	0.589023	0.317924	0.956102
	N247	N	0.414766	0.317644	0.029154
	N248	N	0.679756	0.961538	0.408170
	N249	N	0.677801	0.037318	0.576811
	N250	N	0.326440	0.961028	0.575502
	N251	N	0.324712	0.037075	0.406617
	N252	N	0.915253	0.462194	0.174234
	N253	N	0.089723	0.535966	0.174092
	N254	N	0.088937	0.463301	0.814146
	N255	N	0.914196	0.535782	0.812932
	N256	N	0.179273	0.914832	0.454246
	N257	N	0.179326	0.084192	0.529775
	N258	N	0.823791	0.085310	0.455672
	N259	N	0.826550	0.916277	0.531479
	N260	N	0.466444	0.176334	0.905406
	N261	N	0.540322	0.174324	0.076883
	N262	N	0.464169	0.823188	0.076317
	N263	N	0.539060	0.818965	0.905306
	N264	N	0.465607	0.912353	0.169577
	N265	N	0.539137	0.083956	0.169759
	N266	N	0.466292	0.083909	0.815268
	N267	N	0.540600	0.912218	0.815063
	N268	N	0.913750	0.181561	0.457327
	N269	N	0.088186	0.178158	0.529868
	N270	N	0.090617	0.818314	0.456667
	N271	N	0.916521	0.820303	0.530447
	N272	N	0.178887	0.461905	0.909373
	N273	N	0.178200	0.537644	0.078357
	N274	N	0.826202	0.459455	0.077218
	N275	N	0.823051	0.535611	0.908115
	O276	O	0.890021	0.896048	0.057748
	H277	H	0.885526	0.886147	0.063050
	H278	H	0.899414	0.898032	0.061140
	O279	O	-0.080605	-0.029616	0.971382
	H280	H	-0.066903	-0.027404	0.968163
	H281	H	-0.088673	-0.036257	0.968000
	O282	O	0.067450	0.040148	0.035299
	H283	H	0.076570	0.027326	0.036187
	H284	H	0.074561	0.042100	0.042682
	O285	O	0.482830	0.441985	0.455674
	H286	H	0.481646	0.437011	0.452073
	H287	H	0.476888	0.445744	0.453644
	O288	O	0.061439	0.031398	0.009340
	H289	H	0.063402	0.027676	0.006326
	H290	H	0.062750	0.043074	0.017722
	O291	O	0.054832	0.994216	0.041506
	H292	H	0.050345	1.000813	0.046384
	H293	H	0.054734	0.986764	0.032394
	O294	O	0.034949	1.030767	-0.082464
	H295	H	0.036481	1.028030	-0.092950
	H296	H	0.041753	1.034450	-0.083066
	O297	O	0.524863	0.483721	0.531936
	H298	H	0.519916	0.496135	0.534877
	H299	H	0.545711	0.478755	0.528600
	O300	O	0.533873	0.424895	0.507441
	H301	H	0.535438	0.429668	0.510060
	H302	H	0.537433	0.415201	0.507332
	O303	O	1.052811	0.015737	0.966135
	H304	H	1.050389	0.019766	0.960225
	H305	H	1.050463	0.018296	0.966403
	O306	O	-0.025387	0.939325	0.982973
	H307	H	-0.029730	0.934556	0.986186
	H308	H	-0.020546	0.939493	0.977625
	O309	O	-0.051645	0.942286	1.044033
	H310	H	-0.063387	0.936029	1.051568
	H311	H	-0.043748	0.938432	1.034107
	O312	O	0.036842	0.045357	1.042534
	H313	H	0.036798	0.044209	1.053236
	H314	H	0.028223	0.060778	1.041477
	O315	O	0.489853	0.576406	0.517014
	H316	H	0.487025	0.579671	0.508990
	H317	H	0.492743	0.577244	0.520301
	O318	O	0.031107	0.002541	0.974361
	H319	H	0.033099	0.005758	0.984285
	H320	H	0.031453	-0.005670	0.981445
	O321	O	0.532926	0.524161	0.573645
	H322	H	0.535304	0.524373	0.568418
	H323	H	0.528429	0.518108	0.572528
	O324	O	0.943276	-0.063011	0.984804
	H325	H	0.937918	-0.066153	0.978128
	H326	H	0.936889	-0.069130	0.992272
	O327	O	1.032419	1.072917	1.056465
	H328	H	1.039738	1.072093	1.059925
	H329	H	1.014470	1.079269	1.051860
	O330	O	0.536043	0.482793	0.543412
	H331	H	0.530235	0.475819	0.552556
	H332	H	0.531959	0.486740	0.539732
	O333	O	0.477597	0.495674	0.485147
	H334	H	0.483913	0.499949	0.488975
	H335	H	0.473119	0.492753	0.497823
	O336	O	0.463484	0.434398	0.518646
	H337	H	0.460449	0.434948	0.522354
	H338	H	0.465049	0.442088	0.525255
	O339	O	0.518361	0.510780	0.486257
	H340	H	0.527570	0.503060	0.483845
	H341	H	0.514269	0.513285	0.498100
	O342	O	0.542785	0.530277	0.489664
	H343	H	0.538027	0.533206	0.472839
	H344	H	0.545069	0.538347	0.488073
	O345	O	0.533958	0.490557	0.461102
	H346	H	0.530164	0.486733	0.470896
	H347	H	0.537238	0.488881	0.464841
