data_Molecule from HDF5

_cell_length_a		16.432473
_cell_length_b		16.486171
_cell_length_c		16.487798
_cell_angle_alpha	89.910299
_cell_angle_beta	89.922411
_cell_angle_gamma	90.037207
_symmetry_space_group_name_H-M	'P 1'
_symmetry_Int_Tables_number		1

loop_
	_symmetry_equiv_pos_as_xyz
	x,y,z

loop_
	_atom_site_label
	_atom_site_type_symbol
	_atom_site_fract_x
	_atom_site_fract_y
	_atom_site_fract_z
	H0	H	0.411588	0.863789	0.714189
	H1	H	0.632045	0.175159	0.713155
	H2	H	0.625203	0.861602	0.267589
	H3	H	0.412971	0.175068	0.261305
	H4	H	0.746127	0.412994	0.828536
	H5	H	0.745571	0.624309	0.142384
	H6	H	0.299109	0.630190	0.829002
	H7	H	0.300320	0.415091	0.142468
	H8	H	0.863449	0.738768	0.383290
	H9	H	0.179017	0.743473	0.594857
	H10	H	0.866796	0.295135	0.594777
	H11	H	0.180900	0.298809	0.380811
	H12	H	0.867535	0.409370	0.712616
	H13	H	0.180361	0.628833	0.710054
	H14	H	0.865207	0.625731	0.263693
	H15	H	0.181320	0.416130	0.266209
	H16	H	0.418167	0.743849	0.828050
	H17	H	0.628741	0.739071	0.143062
	H18	H	0.632511	0.293389	0.831124
	H19	H	0.415984	0.298255	0.142805
	H20	H	0.741628	0.861083	0.383662
	H21	H	0.745262	0.177220	0.592855
	H22	H	0.298480	0.862195	0.594569
	H23	H	0.296511	0.174800	0.378144
	H24	H	0.913787	0.363155	0.210367
	H25	H	0.125099	0.677409	0.206060
	H26	H	0.132490	0.363128	0.761730
	H27	H	0.915540	0.675917	0.761258
	H28	H	0.239997	0.917071	0.330097
	H29	H	0.247975	0.129138	0.644419
	H30	H	0.804189	0.121578	0.328880
	H31	H	0.799768	0.914408	0.647091
	H32	H	0.365999	0.245478	0.877386
	H33	H	0.679897	0.243005	0.094479
	H34	H	0.365998	0.798692	0.089970
	H35	H	0.682754	0.799382	0.879980
	H36	H	0.364808	0.916626	0.204879
	H37	H	0.681136	0.123859	0.206745
	H38	H	0.365708	0.127261	0.763655
	H39	H	0.678659	0.909834	0.760166
	H40	H	0.917115	0.240638	0.329499
	H41	H	0.132257	0.246087	0.643463
	H42	H	0.123031	0.801170	0.330272
	H43	H	0.912611	0.794699	0.645773
	H44	H	0.249065	0.363716	0.877099
	H45	H	0.242470	0.677865	0.089948
	H46	H	0.800340	0.361798	0.091519
	H47	H	0.800353	0.676749	0.877723
	H48	H	0.438670	0.129326	0.574181
	H49	H	0.609575	0.911101	0.568555
	H50	H	0.612127	0.131650	0.400228
	H51	H	0.431214	0.907056	0.400712
	H52	H	0.614844	0.426512	0.101273
	H53	H	0.615893	0.610231	0.870980
	H54	H	0.433515	0.608573	0.097251
	H55	H	0.429345	0.438052	0.873120
	H56	H	0.133932	0.610290	0.401506
	H57	H	0.910241	0.605510	0.577252
	H58	H	0.134802	0.436575	0.574530
	H59	H	0.912689	0.436442	0.401996
	H60	H	0.135847	0.430491	0.574089
	H61	H	0.910375	0.608126	0.573124
	H62	H	0.135877	0.605089	0.393436
	H63	H	0.907091	0.432258	0.390160
	H64	H	0.435786	0.609412	0.096504
	H65	H	0.611280	0.606368	0.873714
	H66	H	0.614771	0.438645	0.096282
	H67	H	0.444470	0.437267	0.877660
	H68	H	0.615934	0.134650	0.396123
	H69	H	0.614043	0.905897	0.577158
	H70	H	0.436416	0.129568	0.571643
	H71	H	0.428764	0.904595	0.394071
	H72	H	0.938499	0.630438	0.074257
	H73	H	0.114946	0.406945	0.071174
	H74	H	0.109805	0.631330	0.899045
	H75	H	0.930905	0.405772	0.898377
	H76	H	0.106425	0.930967	0.600379
	H77	H	0.107739	0.111548	0.376031
	H78	H	0.936794	0.108628	0.599675
	H79	H	0.939244	0.933158	0.380076
	H80	H	0.630922	0.103764	0.906200
	H81	H	0.413018	0.108543	0.067555
	H82	H	0.639441	0.925406	0.076677
	H83	H	0.411206	0.929867	0.901372
	H84	H	0.636798	0.931993	0.076023
	H85	H	0.411019	0.101859	0.079203
	H86	H	0.633249	0.102102	0.896873
	H87	H	0.413288	0.932617	0.904005
	H88	H	0.932361	0.109746	0.600755
	H89	H	0.114557	0.105895	0.376046
	H90	H	0.111655	0.928244	0.602771
	H91	H	0.932744	0.917468	0.372741
	H92	H	0.111401	0.631846	0.897305
	H93	H	0.113720	0.404248	0.079541
	H94	H	0.932032	0.631524	0.071680
	H95	H	0.940056	0.407608	0.894560
	H96	H	0.435435	0.130202	0.574653
	H97	H	0.603627	0.909149	0.577650
	H98	H	0.609818	0.132920	0.394251
	H99	H	0.436214	0.906732	0.394999
	H100	H	0.604228	0.431769	0.095641
	H101	H	0.609858	0.612699	0.871740
	H102	H	0.434371	0.610460	0.098091
	H103	H	0.437826	0.424603	0.871353
	H104	H	0.137753	0.614633	0.393838
	H105	H	0.912491	0.603899	0.572927
	H106	H	0.133156	0.434095	0.569144
	H107	H	0.908138	0.423611	0.400887
	H108	H	0.933226	0.633131	0.078103
	H109	H	0.107555	0.407714	0.074513
	H110	H	0.108854	0.630787	0.896918
	H111	H	0.938158	0.410088	0.904530
	H112	H	0.111683	0.934255	0.601430
	H113	H	0.106764	0.103781	0.379418
	H114	H	0.933503	0.105551	0.599593
	H115	H	0.921772	0.932163	0.373923
	H116	H	0.635498	0.110284	0.901217
	H117	H	0.405964	0.115029	0.077627
	H118	H	0.639647	0.930293	0.081708
	H119	H	0.411980	0.933886	0.899888
	C120	C	0.401844	0.026886	0.608045
	C121	C	0.643494	1.011786	0.608785
	C122	C	0.643694	0.028105	0.365711
	C123	C	0.399469	1.009977	0.364021
	C124	C	0.644813	0.398170	-0.005518
	C125	C	0.644887	0.641080	0.976646
	C126	C	0.401962	0.642901	-0.006446
	C127	C	0.402742	0.399835	0.977074
	C128	C	0.031161	0.641463	0.364828
	C129	C	1.014509	0.640307	0.608215
	C130	C	0.031721	0.398526	0.607796
	C131	C	1.013910	0.398644	0.365063
	C132	C	0.901170	0.527666	0.107235
	C133	C	0.143462	0.510894	0.106558
	C134	C	0.145164	0.528313	0.863936
	C135	C	0.902588	0.511070	0.864749
	C136	C	0.141424	0.899336	0.497223
	C137	C	0.144711	0.141433	0.479934
	C138	C	0.901970	0.139991	0.495715
	C139	C	0.898693	0.895865	0.480239
	C140	C	0.530128	0.140209	0.866616
	C141	C	0.513960	0.141210	0.107998
	C142	C	0.533069	0.897919	0.108428
	C143	C	0.515609	0.899069	0.866875
	C144	C	0.395597	0.910073	0.671874
	C145	C	0.648633	0.128896	0.671242
	C146	C	0.644076	0.908943	0.307304
	C147	C	0.395211	0.127940	0.302174
	C148	C	0.705851	0.394698	0.875958
	C149	C	0.705458	0.642894	0.095086
	C150	C	0.340476	0.647027	0.875778
	C151	C	0.340551	0.396698	0.095095
	C152	C	0.911495	0.699968	0.364110
	C153	C	0.132261	0.702910	0.612258
	C154	C	0.913934	0.335742	0.612835
	C155	C	0.133384	0.338943	0.362775
	C156	C	0.914285	0.392814	0.671186
	C157	C	0.132735	0.645604	0.669594
	C158	C	0.912118	0.643434	0.304813
	C159	C	0.133439	0.397033	0.305433
	C160	C	0.399661	0.703905	0.875433
	C161	C	0.647476	0.700199	0.095303
	C162	C	0.649432	0.335266	0.877441
	C163	C	0.398245	0.338765	0.095463
	C164	C	0.702074	0.908851	0.364995
	C165	C	0.705081	0.129755	0.611555
	C166	C	0.339134	0.909289	0.612484
	C167	C	0.337385	0.127831	0.360417
	C168	C	0.896666	0.409939	0.169116
	C169	C	0.144240	0.630194	0.166129
	C170	C	0.149669	0.410197	0.802454
	C171	C	0.898486	0.628854	0.802506
	C172	C	0.200410	0.898109	0.377668
	C173	C	0.207318	0.146204	0.597172
	C174	C	0.843209	0.140752	0.376497
	C175	C	0.838918	0.895083	0.599239
	C176	C	0.412903	0.203408	0.861187
	C177	C	0.632538	0.202143	0.111585
	C178	C	0.413521	0.838775	0.108943
	C179	C	0.634682	0.838641	0.862218
	C180	C	0.412627	0.897234	0.166032
	C181	C	0.633443	0.142760	0.167431
	C182	C	0.412509	0.144782	0.804200
	C183	C	0.632592	0.893721	0.802508
	C184	C	0.899563	0.200042	0.376899
	C185	C	0.149554	0.204472	0.596817
	C186	C	0.142453	0.840508	0.377818
	C187	C	0.895176	0.835483	0.598685
	C188	C	0.208010	0.410673	0.859853
	C189	C	0.202523	0.630321	0.108353
	C190	C	0.840301	0.409206	0.109707
	C191	C	0.840724	0.629255	0.860280
	C192	C	0.429231	0.108332	0.581163
	C193	C	0.616783	0.930136	0.582041
	C194	C	0.619498	0.111415	0.389825
	C195	C	0.424952	0.927642	0.389316
	C196	C	0.618779	0.424634	0.076366
	C197	C	0.619708	0.616542	0.893528
	C198	C	0.427276	0.616902	0.075936
	C199	C	0.429392	0.425808	0.895429
	C200	C	0.114218	0.617003	0.389190
	C201	C	0.932334	0.613356	0.582087
	C202	C	0.113087	0.425824	0.580411
	C203	C	0.931236	0.423565	0.390252
	C204	C	0.927115	0.610207	0.081955
	C205	C	0.119023	0.427913	0.082027
	C206	C	0.117916	0.609986	0.890144
	C207	C	0.928742	0.429301	0.891346
	C208	C	0.116981	0.924235	0.580072
	C209	C	0.117341	0.114792	0.398377
	C210	C	0.926980	0.115378	0.578421
	C211	C	0.923911	0.920429	0.397211
	C212	C	0.611964	0.113111	0.893652
	C213	C	0.431490	0.115803	0.082225
	C214	C	0.616681	0.922202	0.085055
	C215	C	0.433716	0.924867	0.893991
	Zn216	Zn	0.522192	0.019169	0.738118
	Zn217	Zn	0.522845	0.019950	0.236743
	Zn218	Zn	0.773143	0.519481	-0.014696
	Zn219	Zn	0.273089	0.520953	-0.014881
	Zn220	Zn	0.021529	0.768808	0.489066
	Zn221	Zn	0.022925	0.270028	0.486598
	Zn222	Zn	0.023977	0.519509	0.735505
	Zn223	Zn	0.022205	0.519207	0.236351
	Zn224	Zn	0.524878	0.770201	-0.014301
	Zn225	Zn	0.522535	0.269444	-0.013269
	Zn226	Zn	0.772443	0.019174	0.487554
	Zn227	Zn	0.272482	0.019082	0.487945
	N228	N	0.433937	0.984225	0.669215
	N229	N	0.611256	0.054302	0.669837
	N230	N	0.608487	0.984266	0.307723
	N231	N	0.433077	0.053684	0.304143
	N232	N	0.703130	0.433117	0.949750
	N233	N	0.704023	0.606854	0.020015
	N234	N	0.341663	0.609721	0.950433
	N235	N	0.342915	0.433992	0.020477
	N236	N	0.986486	0.698971	0.400710
	N237	N	0.057518	0.699830	0.575037
	N238	N	0.988014	0.338947	0.574228
	N239	N	0.057922	0.339377	0.398885
	N240	N	0.988634	0.430799	0.668187
	N241	N	0.058427	0.607366	0.667253
	N242	N	0.987571	0.607690	0.305057
	N243	N	0.058186	0.433189	0.306553
	N244	N	0.437057	0.701280	0.949718
	N245	N	0.610608	0.698875	0.020690
	N246	N	0.612384	0.337093	0.952174
	N247	N	0.435995	0.340378	0.021169
	N248	N	0.701893	0.984053	0.400708
	N249	N	0.701966	0.055701	0.573515
	N250	N	0.342934	0.982893	0.573656
	N251	N	0.339811	0.053576	0.398213
	N252	N	0.933790	0.484573	0.167686
	N253	N	0.108450	0.554870	0.165404
	N254	N	0.111340	0.484252	0.804713
	N255	N	0.935889	0.554311	0.804699
	N256	N	0.200117	0.933800	0.452852
	N257	N	0.204370	0.107946	0.523219
	N258	N	0.844292	0.104411	0.451505
	N259	N	0.840936	0.931801	0.524388
	N260	N	0.487288	0.200723	0.899033
	N261	N	0.557368	0.201310	0.075407
	N262	N	0.489507	0.838738	0.074326
	N263	N	0.560950	0.841908	0.901627
	N264	N	0.488132	0.933132	0.166124
	N265	N	0.558455	0.105800	0.165714
	N266	N	0.486574	0.106269	0.807502
	N267	N	0.557767	0.930744	0.805374
	N268	N	0.935332	0.200022	0.452205
	N269	N	0.111085	0.201586	0.522946
	N270	N	0.106693	0.840824	0.453267
	N271	N	0.931465	0.835774	0.523514
	N272	N	0.205386	0.485242	0.897027
	N273	N	0.202341	0.555241	0.072322
	N274	N	0.842913	0.483581	0.072121
	N275	N	0.843027	0.554999	0.898363
	O276	O	0.740430	0.734689	0.517560
	H277	H	0.739934	0.729828	0.521485
	H278	H	0.763458	0.753045	0.510130
	O279	O	0.471975	0.505991	0.429300
	H280	H	0.481915	0.492615	0.422367
	H281	H	0.468494	0.509734	0.430377
	O282	O	1.496876	1.321997	0.439980
	H283	H	1.520265	1.322556	0.461235
	H284	H	1.510891	1.323722	0.423027
	O285	O	0.818226	-1.054050	0.187690
	H286	H	0.834756	-1.065926	0.193047
	H287	H	0.801694	-1.041424	0.211038
	O288	O	0.022815	0.052702	0.179271
	H289	H	0.040985	0.052665	0.182439
	H290	H	0.021788	0.054698	0.169114
	O291	O	0.896621	0.797246	-0.039807
	H292	H	0.907922	0.786802	-0.028057
	H293	H	0.913453	0.801621	-0.037609
	O294	O	-0.117411	1.016799	-0.043268
	H295	H	-0.122148	1.014103	-0.052338
	H296	H	-0.109359	1.016192	-0.021382
	O297	O	0.436768	0.619342	0.589210
	H298	H	0.420208	0.598864	0.587102
	H299	H	0.449650	0.614087	0.576831
	O300	O	0.027974	-0.195102	1.000421
	H301	H	0.024560	-0.187234	1.030724
	H302	H	0.039049	-0.197019	1.014499
	O303	O	-0.018191	0.172977	1.094009
	H304	H	-0.015439	0.179379	1.099506
	H305	H	0.001247	0.177976	1.115666
	O306	O	-0.165630	1.214031	0.860919
	H307	H	-0.175716	1.204700	0.907919
	H308	H	-0.189160	1.190271	0.853171
	O309	O	0.027659	-0.190549	0.143673
	H310	H	0.026281	-0.212149	0.152352
	H311	H	0.005834	-0.168021	0.144015
	O312	O	-0.260095	0.407907	0.515450
	H313	H	-0.243058	0.415142	0.543223
	H314	H	-0.266036	0.403561	0.531171
	O315	O	0.237250	0.230756	1.009294
	H316	H	0.239835	0.254325	1.009459
	H317	H	0.219863	0.247945	1.000027
	O318	O	0.342236	1.338276	-0.327696
	H319	H	0.331230	1.358815	-0.346935
	H320	H	0.367636	1.332804	-0.347170
	O321	O	0.547386	0.421687	0.596140
	H322	H	0.565990	0.414310	0.609130
	H323	H	0.535424	0.433145	0.608108
	O324	O	0.490722	0.730425	0.273575
	H325	H	0.461324	0.738879	0.264531
	H326	H	0.490999	0.733495	0.255346
	O327	O	0.231373	0.832922	1.971417
	H328	H	0.257874	0.812684	1.963852
	H329	H	0.219360	0.849408	1.933513
	O330	O	0.410360	-0.490124	-0.373634
	H331	H	0.417109	-0.505445	-0.381445
	H332	H	0.425237	-0.492395	-0.382586
	O333	O	1.040954	0.804654	0.774938
	H334	H	1.038359	0.815170	0.763670
	H335	H	1.040840	0.782328	0.769022
	O336	O	1.324005	-0.281466	1.279992
	H337	H	1.325922	-0.279749	1.314352
	H338	H	1.295962	-0.254315	1.252787
	O339	O	1.309235	0.306233	1.510732
	H340	H	1.296806	0.282846	1.506310
	H341	H	1.320476	0.299295	1.492550
	O342	O	0.512492	0.298875	0.666890
	H343	H	0.501280	0.309246	0.653738
	H344	H	0.512462	0.274750	0.690889
	O345	O	0.694662	0.518787	0.496839
	H346	H	0.698129	0.521923	0.496186
	H347	H	0.692472	0.515795	0.500266
	O348	O	1.307567	0.552206	1.267815
	H349	H	1.282740	0.556485	1.247855
	H350	H	1.317714	0.577115	1.267297
	O351	O	0.730806	0.502319	-0.722389
	H352	H	0.729094	0.500690	-0.734250
	H353	H	0.742009	0.490808	-0.710405
	O354	O	-0.187906	1.045853	0.779409
	H355	H	-0.188417	1.020755	0.802332
	H356	H	-0.210308	1.036551	0.760076
	O357	O	1.185269	1.091356	1.115766
	H358	H	1.189359	1.085057	1.121543
	H359	H	1.187852	1.077887	1.094240
	O360	O	0.313948	0.728796	0.450542
	H361	H	0.299214	0.734425	0.457351
	H362	H	0.308904	0.714770	0.457221
	O363	O	0.307125	0.499389	0.705666
	H364	H	0.289940	0.488562	0.726850
	H365	H	0.320522	0.492316	0.717895
	O366	O	0.772961	0.271453	0.604225
	H367	H	0.777365	0.247826	0.612409
	H368	H	0.770566	0.270407	0.633460
	O369	O	0.037458	0.240552	0.963928
	H370	H	0.001019	0.242128	0.954873
	H371	H	0.030425	0.236548	0.974306
	O372	O	0.717221	0.329138	0.295440
	H373	H	0.704615	0.335330	0.315743
	H374	H	0.706389	0.338535	0.316201
	O375	O	0.047928	0.973191	1.201894
	H376	H	0.042509	0.973854	1.198569
	H377	H	0.036934	0.973090	1.205193
	O378	O	0.504030	0.488054	0.434866
	H379	H	0.489005	0.497919	0.422140
	H380	H	0.518152	0.507468	0.437476
	O381	O	0.886785	-0.182163	0.187933
	H382	H	0.876953	-0.191139	0.169947
	H383	H	0.873700	-0.198229	0.193388
	O384	O	0.220969	0.040704	0.964531
	H385	H	0.218481	0.042399	0.955882
	H386	H	0.208711	0.046588	0.942518
	O387	O	0.231341	1.000831	0.782549
	H388	H	0.241229	1.009037	0.785072
	H389	H	0.233466	1.020542	0.775523
	O390	O	-0.186290	-0.131784	0.976181
	H391	H	-0.144977	-0.145932	0.952422
	H392	H	-0.204138	-0.157586	0.992079
	O393	O	1.047441	1.241715	0.202711
	H394	H	1.070100	1.252763	0.216400
	H395	H	1.066928	1.250804	0.217200
	O396	O	-0.173933	0.098778	1.078593
	H397	H	-0.178085	0.116995	1.085435
	H398	H	-0.167555	0.069655	1.089774
	O399	O	0.002937	1.238614	-0.234096
	H400	H	-0.046547	1.224870	-0.216626
	H401	H	-0.004369	1.276634	-0.271910
	O402	O	-0.544082	-0.578130	0.342682
	H403	H	-0.547085	-0.553284	0.337822
	H404	H	-0.546046	-0.575294	0.351963
	O405	O	-0.182872	0.177862	-0.000376
	H406	H	-0.164557	0.159025	0.004198
	H407	H	-0.201567	0.185141	0.025112
	O408	O	0.318538	0.516654	0.453172
	H409	H	0.316734	0.510925	0.464695
	H410	H	0.312334	0.513416	0.430226
	O411	O	0.503208	0.629198	0.454949
	H412	H	0.503307	0.617362	0.449144
	H413	H	0.497641	0.645395	0.427778
	O414	O	0.580623	0.348656	0.298819
	H415	H	0.585550	0.375160	0.296634
	H416	H	0.587147	0.327472	0.284247
	O417	O	0.696911	0.696573	0.334345
	H418	H	0.680410	0.673727	0.334465
	H419	H	0.675041	0.685301	0.351629
	O420	O	0.731355	0.604822	0.695371
	H421	H	0.710288	0.631528	0.694154
	H422	H	0.750291	0.602594	0.724227
	O423	O	-0.444567	0.351146	0.451208
	H424	H	-0.437606	0.341824	0.462091
	H425	H	-0.453468	0.360085	0.462359
	O426	O	1.215961	0.833369	1.177944
	H427	H	1.193921	0.854259	1.171076
	H428	H	1.208061	0.849340	1.149217
	O429	O	0.155960	0.033494	0.968474
	H430	H	0.146958	0.052764	0.944202
	H431	H	0.151670	0.033411	0.973703
	O432	O	1.210723	0.212636	1.175434
	H433	H	1.222516	0.209884	1.140584
	H434	H	1.218727	0.177632	1.188271
	O435	O	-0.054926	-0.058801	-0.222407
	H436	H	-0.058175	-0.062045	-0.226196
	H437	H	-0.039145	-0.042116	-0.214937
	O438	O	1.094027	0.034364	-0.205825
	H439	H	1.097975	0.053921	-0.211139
	H440	H	1.082189	0.046474	-0.201600
	O441	O	-0.007941	0.012456	1.018542
	H442	H	-0.010194	0.010726	1.015853
	H443	H	-0.027265	0.026969	1.026374
	O444	O	0.483681	0.717672	0.654017
	H445	H	0.470163	0.727591	0.663438
	H446	H	0.462655	0.715500	0.628153
	O447	O	0.582236	0.579919	0.327862
	H448	H	0.586261	0.582556	0.331961
	H449	H	0.571432	0.572551	0.322157
	O450	O	0.485178	0.621116	0.423868
	H451	H	0.473229	0.627581	0.432111
	H452	H	0.475321	0.617026	0.418481
	O453	O	0.537619	0.563035	0.691667
	H454	H	0.534539	0.563949	0.686320
	H455	H	0.532707	0.561365	0.695337
	O456	O	0.647038	-0.558402	-0.339568
	H457	H	0.628504	-0.558424	-0.339013
	H458	H	0.651719	-0.546357	-0.320564
	O459	O	0.658713	0.711152	0.578442
	H460	H	0.635625	0.721296	0.591930
	H461	H	0.649617	0.722939	0.551783
	O462	O	0.132475	1.062958	-0.046419
	H463	H	0.116221	1.060527	-0.044372
	H464	H	0.135259	1.078028	-0.036554
	O465	O	1.206996	-0.162798	-0.194225
	H466	H	1.170149	-0.169407	-0.186933
	H467	H	1.215643	-0.114177	-0.206140
