data_Molecule from HDF5

_cell_length_a		16.367771
_cell_length_b		16.307853
_cell_length_c		16.410780
_cell_angle_alpha	90.257424
_cell_angle_beta	89.801880
_cell_angle_gamma	89.847963
_symmetry_space_group_name_H-M	'P 1'
_symmetry_Int_Tables_number		1

loop_
	_symmetry_equiv_pos_as_xyz
	x,y,z

loop_
	_atom_site_label
	_atom_site_type_symbol
	_atom_site_fract_x
	_atom_site_fract_y
	_atom_site_fract_z
	H0	H	0.400174	0.836544	0.730635
	H1	H	0.610711	0.154788	0.729472
	H2	H	0.614419	0.839700	0.281762
	H3	H	0.399893	0.156944	0.290336
	H4	H	0.733009	0.386966	0.851006
	H5	H	0.729796	0.600912	0.168216
	H6	H	0.285660	0.602429	0.850953
	H7	H	0.283479	0.387604	0.165463
	H8	H	0.847482	0.715466	0.403099
	H9	H	0.166120	0.716693	0.611982
	H10	H	0.847377	0.275206	0.616529
	H11	H	0.165164	0.269076	0.402394
	H12	H	0.848711	0.390686	0.732381
	H13	H	0.166144	0.602410	0.728679
	H14	H	0.848939	0.598896	0.287983
	H15	H	0.166460	0.384770	0.285927
	H16	H	0.401024	0.718252	0.851596
	H17	H	0.614999	0.719234	0.167837
	H18	H	0.613684	0.275511	0.848973
	H19	H	0.406117	0.277575	0.168577
	H20	H	0.726252	0.837315	0.399337
	H21	H	0.724369	0.155675	0.613498
	H22	H	0.285193	0.836213	0.615395
	H23	H	0.285680	0.156025	0.407645
	H24	H	0.901789	0.336633	0.231635
	H25	H	0.117455	0.653228	0.233993
	H26	H	0.116370	0.337668	0.783979
	H27	H	0.900427	0.655649	0.789983
	H28	H	0.231832	0.886201	0.351723
	H29	H	0.227549	0.103230	0.667846
	H30	H	0.783322	0.102356	0.349714
	H31	H	0.780611	0.888233	0.665764
	H32	H	0.348497	0.215492	0.907010
	H33	H	0.667043	0.217092	0.114436
	H34	H	0.347787	0.774379	0.115524
	H35	H	0.667000	0.771841	0.903214
	H36	H	0.346643	0.892924	0.229585
	H37	H	0.663649	0.107535	0.234650
	H38	H	0.346953	0.099843	0.791820
	H39	H	0.665173	0.885406	0.783947
	H40	H	0.897798	0.219689	0.351880
	H41	H	0.109983	0.217408	0.668091
	H42	H	0.111598	0.774822	0.349177
	H43	H	0.903043	0.777740	0.668585
	H44	H	0.229037	0.336072	0.901588
	H45	H	0.227590	0.655308	0.113891
	H46	H	0.785944	0.336779	0.118591
	H47	H	0.787042	0.654819	0.907370
	H48	H	0.417829	0.111375	0.602950
	H49	H	0.595704	0.879344	0.598161
	H50	H	0.597113	0.109984	0.426759
	H51	H	0.423798	0.886886	0.428012
	H52	H	0.597590	0.401249	0.125022
	H53	H	0.601305	0.589967	0.892962
	H54	H	0.419376	0.584143	0.121959
	H55	H	0.423695	0.402484	0.895070
	H56	H	0.119846	0.583557	0.422542
	H57	H	0.892374	0.585632	0.599480
	H58	H	0.116797	0.416868	0.596434
	H59	H	0.894542	0.412679	0.416275
	H60	H	0.124190	0.402441	0.604943
	H61	H	0.892045	0.586065	0.600160
	H62	H	0.120837	0.581850	0.419202
	H63	H	0.893591	0.404063	0.420265
	H64	H	0.417871	0.583244	0.122935
	H65	H	0.603050	0.571545	0.898732
	H66	H	0.603490	0.408785	0.123449
	H67	H	0.414529	0.404573	0.892969
	H68	H	0.595154	0.113646	0.415125
	H69	H	0.588629	0.882310	0.598344
	H70	H	0.416836	0.108441	0.598355
	H71	H	0.409575	0.878895	0.419133
	H72	H	0.916264	0.610493	0.097213
	H73	H	0.095578	0.381662	0.094157
	H74	H	0.098684	0.612550	0.916149
	H75	H	0.925881	0.382652	0.917740
	H76	H	0.097360	0.908720	0.622435
	H77	H	0.091690	0.087332	0.395786
	H78	H	0.911201	0.076911	0.620728
	H79	H	0.910124	0.902447	0.391353
	H80	H	0.621619	0.082446	0.919968
	H81	H	0.390992	0.095434	0.097531
	H82	H	0.616294	0.912348	0.091518
	H83	H	0.392361	0.905175	0.913870
	H84	H	0.620298	0.912023	0.100127
	H85	H	0.397103	0.082176	0.092098
	H86	H	0.622793	0.082215	0.915182
	H87	H	0.394545	0.902595	0.926139
	H88	H	0.922317	0.085862	0.619796
	H89	H	0.100323	0.077992	0.396049
	H90	H	0.092755	0.907180	0.621232
	H91	H	0.914855	0.913774	0.396767
	H92	H	0.092254	0.609351	0.919235
	H93	H	0.097099	0.381485	0.096196
	H94	H	0.923452	0.609246	0.103014
	H95	H	0.920733	0.382621	0.924733
	H96	H	0.413306	0.111427	0.600570
	H97	H	0.593106	0.882417	0.591762
	H98	H	0.586193	0.108520	0.421757
	H99	H	0.425143	0.881604	0.410432
	H100	H	0.594355	0.408835	0.120455
	H101	H	0.586610	0.581223	0.900982
	H102	H	0.418927	0.582499	0.121346
	H103	H	0.420306	0.411340	0.896822
	H104	H	0.121966	0.585974	0.419970
	H105	H	0.892324	0.586873	0.599229
	H106	H	0.118726	0.400970	0.587158
	H107	H	0.897478	0.411266	0.425598
	H108	H	0.923723	0.606556	0.093884
	H109	H	0.094458	0.381925	0.096890
	H110	H	0.099339	0.609679	0.923327
	H111	H	0.917950	0.379475	0.917249
	H112	H	0.096401	0.904291	0.623032
	H113	H	0.088626	0.076248	0.400928
	H114	H	0.910064	0.090331	0.625952
	H115	H	0.922194	0.902692	0.395323
	H116	H	0.622981	0.086273	0.917608
	H117	H	0.391944	0.082649	0.106161
	H118	H	0.620741	0.903995	0.095044
	H119	H	0.397303	0.913847	0.921784
	C120	C	0.384124	0.004898	0.632188
	C121	C	0.625663	0.986571	0.628910
	C122	C	0.626858	0.005605	0.386523
	C123	C	0.386075	0.988058	0.388444
	C124	C	0.631672	0.372926	0.018066
	C125	C	0.629636	0.615222	1.001792
	C126	C	0.386205	0.616703	0.017862
	C127	C	0.386908	0.374257	0.999759
	C128	C	0.016056	0.616362	0.387490
	C129	C	0.997687	0.618203	0.630630
	C130	C	0.015448	0.374848	0.630015
	C131	C	0.999405	0.373689	0.387299
	C132	C	0.887776	0.503712	0.130887
	C133	C	0.129245	0.486574	0.129675
	C134	C	0.129789	0.504895	0.886151
	C135	C	0.887764	0.487136	0.888766
	C136	C	0.128640	0.873574	0.517382
	C137	C	0.126094	0.115255	0.501759
	C138	C	0.882955	0.117203	0.517241
	C139	C	0.883407	0.874113	0.499638
	C140	C	0.516379	0.116051	0.887457
	C141	C	0.498652	0.118761	0.130697
	C142	C	0.514565	0.876437	0.129372
	C143	C	0.499362	0.872520	0.887024
	C144	C	0.382069	0.884363	0.691313
	C145	C	0.628347	0.107202	0.689375
	C146	C	0.631425	0.886976	0.323023
	C147	C	0.382333	0.108810	0.329744
	C148	C	0.692896	0.369698	0.898841
	C149	C	0.689965	0.619208	0.120868
	C150	C	0.325636	0.620251	0.898616
	C151	C	0.325474	0.370960	0.118770
	C152	C	0.895656	0.675404	0.385397
	C153	C	0.118273	0.677223	0.630915
	C154	C	0.895302	0.315066	0.633887
	C155	C	0.117916	0.310068	0.384164
	C156	C	0.896205	0.372420	0.691864
	C157	C	0.118252	0.620366	0.689198
	C158	C	0.896471	0.617659	0.327647
	C159	C	0.118803	0.368129	0.326396
	C160	C	0.383300	0.677909	0.898966
	C161	C	0.632902	0.678197	0.120366
	C162	C	0.633332	0.314058	0.897403
	C163	C	0.386221	0.315758	0.120222
	C164	C	0.687450	0.885853	0.381683
	C165	C	0.685092	0.107446	0.631592
	C166	C	0.324924	0.884279	0.633523
	C167	C	0.325388	0.108133	0.387908
	C168	C	0.884366	0.384186	0.191442
	C169	C	0.133965	0.605854	0.192434
	C170	C	0.133682	0.385359	0.824634
	C171	C	0.883931	0.607796	0.829945
	C172	C	0.190706	0.869253	0.398850
	C173	C	0.187087	0.119849	0.620243
	C174	C	0.822941	0.120213	0.397853
	C175	C	0.822321	0.871281	0.618760
	C176	C	0.395926	0.175617	0.887861
	C177	C	0.618604	0.177949	0.132734
	C178	C	0.395333	0.815187	0.133068
	C179	C	0.618687	0.811286	0.884103
	C180	C	0.394851	0.874185	0.189975
	C181	C	0.616884	0.123232	0.192901
	C182	C	0.395492	0.117901	0.830515
	C183	C	0.617940	0.868212	0.824989
	C184	C	0.879959	0.179033	0.398890
	C185	C	0.128426	0.177027	0.620621
	C186	C	0.130807	0.813560	0.397527
	C187	C	0.882966	0.815817	0.619931
	C188	C	0.189940	0.384504	0.883103
	C189	C	0.188958	0.606880	0.132625
	C190	C	0.826485	0.384609	0.134753
	C191	C	0.826889	0.607239	0.888040
	C192	C	0.408838	0.088437	0.607767
	C193	C	0.600060	0.903378	0.603267
	C194	C	0.600413	0.088959	0.413410
	C195	C	0.412012	0.904464	0.412284
	C196	C	0.605887	0.398623	0.101265
	C197	C	0.604369	0.588522	0.919210
	C198	C	0.411519	0.590665	0.100382
	C199	C	0.412335	0.398962	0.916756
	C200	C	0.099419	0.590933	0.413001
	C201	C	0.914046	0.593288	0.606584
	C202	C	0.098256	0.399643	0.603517
	C203	C	0.916871	0.401267	0.413276
	C204	C	0.913767	0.586904	0.105231
	C205	C	0.103288	0.403445	0.103278
	C206	C	0.104185	0.588555	0.912171
	C207	C	0.913919	0.403674	0.913063
	C208	C	0.102865	0.899365	0.600558
	C209	C	0.100686	0.088227	0.418875
	C210	C	0.907362	0.091699	0.600381
	C211	C	0.908562	0.899153	0.416186
	C212	C	0.600456	0.090992	0.910999
	C213	C	0.414979	0.093750	0.105850
	C214	C	0.597586	0.902130	0.103147
	C215	C	0.416251	0.899284	0.913167
	Zn216	Zn	0.506825	-0.004466	0.758804
	Zn217	Zn	0.505689	-0.002093	0.258815
	Zn218	Zn	0.759423	0.494600	0.010158
	Zn219	Zn	0.257129	0.495500	0.008356
	Zn220	Zn	0.006326	0.745567	0.508214
	Zn221	Zn	0.005493	0.245084	0.509291
	Zn222	Zn	0.007350	0.496706	0.758734
	Zn223	Zn	0.009070	0.494754	0.258035
	Zn224	Zn	0.507986	0.745168	0.010120
	Zn225	Zn	0.508742	0.245568	0.007722
	Zn226	Zn	0.753859	-0.004109	0.508411
	Zn227	Zn	0.256957	-0.004565	0.509519
	N228	N	0.417875	0.960494	0.690936
	N229	N	0.592243	0.031071	0.688140
	N230	N	0.594683	0.962784	0.325745
	N231	N	0.419280	0.033139	0.329857
	N232	N	0.692166	0.405242	0.974989
	N233	N	0.687872	0.580726	0.046265
	N234	N	0.326935	0.583087	0.973610
	N235	N	0.325860	0.406679	0.043260
	N236	N	0.971091	0.674796	0.421657
	N237	N	0.042328	0.676240	0.595499
	N238	N	0.970294	0.316522	0.595846
	N239	N	0.042557	0.313235	0.421140
	N240	N	0.971806	0.408655	0.689757
	N241	N	0.042193	0.584480	0.689227
	N242	N	0.972640	0.581887	0.328651
	N243	N	0.044176	0.406780	0.328092
	N244	N	0.420298	0.675830	0.973906
	N245	N	0.595779	0.675671	0.045456
	N246	N	0.596340	0.315454	0.972621
	N247	N	0.423790	0.317516	0.045200
	N248	N	0.684816	0.960779	0.420222
	N249	N	0.683611	0.031574	0.594750
	N250	N	0.325714	0.960010	0.597665
	N251	N	0.327468	0.031994	0.423598
	N252	N	0.922058	0.459275	0.189160
	N253	N	0.097619	0.529930	0.190821
	N254	N	0.096869	0.461172	0.826274
	N255	N	0.921027	0.532078	0.830143
	N256	N	0.189674	0.905521	0.474610
	N257	N	0.185658	0.082251	0.545250
	N258	N	0.824497	0.082656	0.472651
	N259	N	0.822119	0.906186	0.542649
	N260	N	0.472170	0.174565	0.922569
	N261	N	0.544037	0.175302	0.094585
	N262	N	0.470887	0.816377	0.096295
	N263	N	0.543749	0.813805	0.921525
	N264	N	0.470012	0.911766	0.187660
	N265	N	0.541157	0.087094	0.191605
	N266	N	0.471394	0.081483	0.830344
	N267	N	0.542436	0.905542	0.826545
	N268	N	0.916461	0.177230	0.474148
	N269	N	0.090935	0.174057	0.545779
	N270	N	0.092860	0.816135	0.472296
	N271	N	0.920108	0.817302	0.544592
	N272	N	0.187664	0.460146	0.920492
	N273	N	0.186306	0.531716	0.094400
	N274	N	0.828544	0.459979	0.097802
	N275	N	0.829344	0.531371	0.923944
	O276	O	0.542003	0.457591	0.467198
	H277	H	0.549019	0.472316	0.479792
	H278	H	0.568098	0.445790	0.455896
	O279	O	0.303659	0.645351	0.485374
	H280	H	0.329459	0.648661	0.508223
	H281	H	0.292039	0.670766	0.493251
	O282	O	0.625905	0.325541	0.415391
	H283	H	0.614507	0.303134	0.406560
	H284	H	0.629236	0.358593	0.396607
	O285	O	1.069842	1.016957	-0.126370
	H286	H	1.075265	1.007787	-0.129342
	H287	H	1.064554	1.010271	-0.121245
	O288	O	0.475886	0.611340	0.659448
	H289	H	0.478798	0.582586	0.669368
	H290	H	0.479654	0.617553	0.682257
	O291	O	0.722208	0.712362	0.535883
	H292	H	0.749145	0.751176	0.536175
	H293	H	0.701748	0.709361	0.558666
	O294	O	0.796092	1.207526	0.983881
	H295	H	0.770951	1.241175	0.988300
	H296	H	0.823569	1.210293	1.011027
	O297	O	0.680903	0.508491	0.344186
	H298	H	0.685870	0.533851	0.343224
	H299	H	0.666566	0.519507	0.356855
	O300	O	0.367982	0.369002	0.702397
	H301	H	0.365556	0.392008	0.709753
	H302	H	0.348289	0.357263	0.675654
	O303	O	0.165266	0.066328	0.902592
	H304	H	0.158843	0.055765	0.900187
	H305	H	0.154169	0.084542	0.897347
	O306	O	0.393429	0.677396	0.586925
	H307	H	0.403095	0.677235	0.601911
	H308	H	0.410102	0.672084	0.592271
	O309	O	1.060335	-0.060858	0.194738
	H310	H	1.047611	-0.076992	0.207140
	H311	H	1.037841	-0.048572	0.197342
	O312	O	0.349952	0.663073	0.327946
	H313	H	0.337109	0.623524	0.321863
	H314	H	0.335470	0.667170	0.372733
	O315	O	0.841294	0.924106	1.200164
	H316	H	0.814333	0.920006	1.220277
	H317	H	0.850483	0.945056	1.175473
	O318	O	0.177210	-0.122947	0.019043
	H319	H	0.155705	-0.119989	0.018831
	H320	H	0.183109	-0.125119	0.042259
	O321	O	0.640911	0.682310	0.692790
	H322	H	0.652816	0.664537	0.687035
	H323	H	0.613464	0.694779	0.705092
	O324	O	1.204731	-0.202588	0.900455
	H325	H	1.213457	-0.209083	0.934966
	H326	H	1.183574	-0.217424	0.904815
	O327	O	0.521596	0.315516	0.354282
	H328	H	0.521997	0.329675	0.362815
	H329	H	0.518187	0.308231	0.329148
	O330	O	0.114545	1.105588	0.905638
	H331	H	0.122618	1.107660	0.895502
	H332	H	0.111564	1.123909	0.895034
	O333	O	-0.433782	0.611048	-0.435004
	H334	H	-0.442813	0.594555	-0.431812
	H335	H	-0.419625	0.623330	-0.425315
	O336	O	1.207955	0.896440	-0.195031
	H337	H	1.227229	0.907421	-0.200018
	H338	H	1.216017	0.874449	-0.180004
	O339	O	-0.170669	1.130966	0.827503
	H340	H	-0.136009	1.141510	0.816442
	H341	H	-0.177776	1.143598	0.869056
	O342	O	0.324565	0.340201	0.567153
	H343	H	0.331138	0.325487	0.549099
	H344	H	0.330153	0.360264	0.555208
	O345	O	-0.162483	0.040269	0.801954
	H346	H	-0.163175	0.070643	0.816014
	H347	H	-0.187973	0.061410	0.771290
	O348	O	0.302181	0.509999	0.305338
	H349	H	0.283618	0.497304	0.313378
	H350	H	0.301284	0.493461	0.299485
	O351	O	1.022942	1.082989	-0.027435
	H352	H	1.024535	1.089061	-0.016001
	H353	H	1.049195	1.074391	-0.018704
	O354	O	0.966739	1.194280	0.813006
	H355	H	0.965528	1.199895	0.790058
	H356	H	0.977799	1.185611	0.835532
	O357	O	-0.094240	-0.089723	-0.064206
	H358	H	-0.092239	-0.094656	-0.060762
	H359	H	-0.093977	-0.089478	-0.083880
	O360	O	0.691246	0.403234	0.357304
	H361	H	0.685402	0.420892	0.351981
	H362	H	0.691901	0.418805	0.369250
	O363	O	0.972301	-0.223853	-0.210309
	H364	H	0.983788	-0.245925	-0.226718
	H365	H	0.993874	-0.214919	-0.198790
	O366	O	-0.015714	-0.191019	0.994407
	H367	H	-0.022560	-0.187098	0.983949
	H368	H	-0.006920	-0.203679	0.986618
	O369	O	0.838433	-0.192312	1.157682
	H370	H	0.833344	-0.194294	1.123526
	H371	H	0.828835	-0.159110	1.163115
	O372	O	0.300430	0.469649	0.721309
	H373	H	0.270382	0.462049	0.746122
	H374	H	0.298269	0.452232	0.703393
	O375	O	-0.270852	-0.511762	0.517093
	H376	H	-0.271987	-0.499483	0.514609
	H377	H	-0.258165	-0.520939	0.519364
	O378	O	0.539680	0.603771	0.406003
	H379	H	0.544381	0.601302	0.406089
	H380	H	0.528781	0.619192	0.388611
	O381	O	0.179405	0.979019	0.162535
	H382	H	0.183866	0.988171	0.183468
	H383	H	0.177417	0.980788	0.150818
	O384	O	0.306945	0.506039	0.551879
	H385	H	0.307334	0.536678	0.556895
	H386	H	0.326877	0.501668	0.553861
	O387	O	0.097660	0.161964	0.208629
	H388	H	0.120831	0.169774	0.235645
	H389	H	0.091291	0.135014	0.205694
	O390	O	0.906056	1.001190	0.079299
	H391	H	0.928259	1.021959	0.074476
	H392	H	0.902771	0.986084	0.077527
	O393	O	0.949648	-0.157462	0.914600
	H394	H	0.946764	-0.136570	0.908257
	H395	H	0.958583	-0.165413	0.920059
	O396	O	0.529779	0.556863	0.699358
	H397	H	0.539086	0.538364	0.694533
	H398	H	0.532081	0.542499	0.692883
	O399	O	0.017121	0.946852	0.181112
	H400	H	-0.011400	0.934776	0.181895
	H401	H	0.018732	0.938607	0.166869
	O402	O	1.350419	1.438026	-0.579713
	H403	H	1.377648	1.445807	-0.573769
	H404	H	1.345267	1.445076	-0.553612
	O405	O	0.598133	0.355781	0.601760
	H406	H	0.587164	0.358858	0.606677
	H407	H	0.598291	0.356176	0.589119
	O408	O	0.568235	0.291388	0.493516
	H409	H	0.584352	0.280266	0.479631
	H410	H	0.572955	0.287441	0.466967
	O411	O	0.802420	0.985986	1.109999
	H412	H	0.801528	0.979414	1.102833
	H413	H	0.812569	0.993068	1.099357
	O414	O	0.529942	0.519635	0.550823
	H415	H	0.547482	0.525734	0.557745
	H416	H	0.544282	0.495597	0.550407
	O417	O	-0.008473	1.199345	1.100624
	H418	H	0.011587	1.199893	1.122137
	H419	H	-0.000345	1.195557	1.098457
	O420	O	0.201929	1.183995	1.048059
	H421	H	0.196452	1.183361	1.068659
	H422	H	0.221994	1.188274	1.052375
	O423	O	-0.116962	1.021862	-0.005479
	H424	H	-0.111987	1.013354	0.003689
	H425	H	-0.118563	1.027219	-0.024833
	O426	O	-0.070854	-0.171006	1.190611
	H427	H	-0.086376	-0.189062	1.189557
	H428	H	-0.095384	-0.176953	1.205843
	O429	O	0.514857	0.330979	0.691443
	H430	H	0.490014	0.331712	0.697004
	H431	H	0.507638	0.325098	0.695259
	O432	O	0.503727	0.469433	0.305886
	H433	H	0.502538	0.484112	0.299863
	H434	H	0.506359	0.492362	0.306994
	O435	O	-0.294313	0.514776	-0.299688
	H436	H	-0.276348	0.519134	-0.298893
	H437	H	-0.302438	0.502392	-0.301396
	O438	O	0.173921	1.100896	1.113976
	H439	H	0.171696	1.071773	1.121390
	H440	H	0.151629	1.099489	1.110642
	O441	O	0.494371	0.708958	0.301333
	H442	H	0.442315	0.698437	0.308588
	H443	H	0.491084	0.739892	0.289196
