data_Molecule from HDF5

_cell_length_a		16.214090
_cell_length_b		16.548498
_cell_length_c		16.362296
_cell_angle_alpha	90.124716
_cell_angle_beta	89.921898
_cell_angle_gamma	89.799861
_symmetry_space_group_name_H-M	'P 1'
_symmetry_Int_Tables_number		1

loop_
	_symmetry_equiv_pos_as_xyz
	x,y,z

loop_
	_atom_site_label
	_atom_site_type_symbol
	_atom_site_fract_x
	_atom_site_fract_y
	_atom_site_fract_z
	H0	H	0.394451	0.837366	0.726286
	H1	H	0.602733	0.154111	0.726962
	H2	H	0.605165	0.836957	0.283496
	H3	H	0.395689	0.153996	0.285884
	H4	H	0.717764	0.390916	0.845267
	H5	H	0.713491	0.592738	0.167920
	H6	H	0.283260	0.595324	0.845021
	H7	H	0.280942	0.392639	0.166496
	H8	H	0.837584	0.716002	0.400839
	H9	H	0.157628	0.714975	0.610943
	H10	H	0.837573	0.274775	0.610832
	H11	H	0.157943	0.273270	0.398047
	H12	H	0.835822	0.391773	0.724925
	H13	H	0.159771	0.595653	0.721775
	H14	H	0.837175	0.599163	0.285641
	H15	H	0.159582	0.390798	0.285889
	H16	H	0.393661	0.716362	0.847629
	H17	H	0.609490	0.718550	0.162485
	H18	H	0.608434	0.270693	0.846913
	H19	H	0.393727	0.274083	0.164860
	H20	H	0.720432	0.837350	0.401282
	H21	H	0.715471	0.156232	0.606771
	H22	H	0.279410	0.836700	0.607567
	H23	H	0.279630	0.155725	0.404274
	H24	H	0.896434	0.336534	0.226257
	H25	H	0.105911	0.653123	0.229526
	H26	H	0.103541	0.337834	0.784059
	H27	H	0.891644	0.653251	0.785929
	H28	H	0.216634	0.892473	0.344681
	H29	H	0.213102	0.095771	0.666718
	H30	H	0.778368	0.098868	0.344357
	H31	H	0.777876	0.894495	0.664976
	H32	H	0.338580	0.215316	0.902946
	H33	H	0.659062	0.215816	0.113319
	H34	H	0.339286	0.772688	0.112247
	H35	H	0.658970	0.771375	0.896694
	H36	H	0.336572	0.891990	0.223842
	H37	H	0.659852	0.097156	0.225546
	H38	H	0.337163	0.096864	0.789851
	H39	H	0.659311	0.888913	0.783177
	H40	H	0.888784	0.220148	0.346776
	H41	H	0.103839	0.217599	0.662952
	H42	H	0.105240	0.772751	0.347213
	H43	H	0.888553	0.773354	0.663713
	H44	H	0.217766	0.336294	0.905028
	H45	H	0.219703	0.654188	0.110321
	H46	H	0.781462	0.334764	0.106777
	H47	H	0.778100	0.653355	0.904369
	H48	H	0.402173	0.109941	0.596283
	H49	H	0.588626	0.883429	0.596051
	H50	H	0.600131	0.114681	0.407821
	H51	H	0.409728	0.882025	0.411849
	H52	H	0.584300	0.409073	0.116605
	H53	H	0.589187	0.584875	0.890464
	H54	H	0.405316	0.591622	0.123901
	H55	H	0.410143	0.396690	0.889602
	H56	H	0.115161	0.580659	0.407101
	H57	H	0.879464	0.588237	0.597982
	H58	H	0.114433	0.399011	0.591047
	H59	H	0.886750	0.414822	0.418301
	H60	H	0.109108	0.410620	0.589328
	H61	H	0.881493	0.588526	0.593855
	H62	H	0.115330	0.595869	0.421275
	H63	H	0.880846	0.404523	0.411150
	H64	H	0.407884	0.577710	0.118730
	H65	H	0.586711	0.581331	0.892484
	H66	H	0.583787	0.397445	0.120468
	H67	H	0.404601	0.408989	0.891910
	H68	H	0.573107	0.106351	0.405418
	H69	H	0.584395	0.884205	0.594689
	H70	H	0.408739	0.109638	0.601277
	H71	H	0.408985	0.883660	0.416394
	H72	H	0.908171	0.604561	0.088406
	H73	H	0.087752	0.383434	0.095077
	H74	H	0.088065	0.610372	0.910038
	H75	H	0.910268	0.381074	0.911994
	H76	H	0.086313	0.902328	0.620149
	H77	H	0.082953	0.083063	0.392409
	H78	H	0.912815	0.085936	0.616701
	H79	H	0.919432	0.910173	0.396700
	H80	H	0.613269	0.085448	0.921852
	H81	H	0.385822	0.084531	0.090396
	H82	H	0.611170	0.906952	0.090748
	H83	H	0.382903	0.895588	0.920499
	H84	H	0.614596	0.906325	0.096942
	H85	H	0.383608	0.083661	0.096430
	H86	H	0.613451	0.078889	0.915921
	H87	H	0.389793	0.911855	0.925239
	H88	H	0.909092	0.090157	0.619243
	H89	H	0.085634	0.091304	0.389224
	H90	H	0.089458	0.903386	0.621450
	H91	H	0.913520	0.896697	0.389899
	H92	H	0.086452	0.606665	0.916176
	H93	H	0.089483	0.383283	0.095350
	H94	H	0.901001	0.611667	0.099049
	H95	H	0.910814	0.382464	0.915029
	H96	H	0.409156	0.106775	0.593974
	H97	H	0.587989	0.884326	0.592348
	H98	H	0.587115	0.102397	0.429928
	H99	H	0.405144	0.881498	0.413844
	H100	H	0.593962	0.403796	0.121939
	H101	H	0.584562	0.585864	0.891681
	H102	H	0.419231	0.587570	0.118482
	H103	H	0.418195	0.406163	0.894257
	H104	H	0.107502	0.576820	0.426187
	H105	H	0.882014	0.584704	0.596024
	H106	H	0.113725	0.407863	0.600883
	H107	H	0.884356	0.402601	0.424048
	H108	H	0.915025	0.606968	0.100770
	H109	H	0.088854	0.383090	0.096970
	H110	H	0.092950	0.609602	0.915334
	H111	H	0.907814	0.380869	0.914204
	H112	H	0.086764	0.905682	0.619018
	H113	H	0.091682	0.084376	0.389084
	H114	H	0.906699	0.084828	0.617680
	H115	H	0.904338	0.910085	0.390745
	H116	H	0.616490	0.086531	0.913293
	H117	H	0.383071	0.088737	0.093875
	H118	H	0.614195	0.901455	0.092167
	H119	H	0.383049	0.909336	0.908273
	C120	C	0.375982	0.003869	0.627849
	C121	C	0.619380	0.988341	0.626408
	C122	C	0.620296	0.003588	0.382453
	C123	C	0.376272	0.987113	0.383216
	C124	C	0.620904	0.371406	0.014236
	C125	C	0.619486	0.615279	0.997108
	C126	C	0.378789	0.616323	0.014944
	C127	C	0.378711	0.373316	0.997389
	C128	C	0.006581	0.616243	0.385060
	C129	C	0.988003	0.617127	0.627039
	C130	C	0.005942	0.374588	0.625888
	C131	C	0.989672	0.374778	0.385011
	C132	C	0.877246	0.502943	0.127287
	C133	C	0.121061	0.487670	0.128173
	C134	C	0.120878	0.504045	0.883195
	C135	C	0.876445	0.486040	0.883445
	C136	C	0.119674	0.872517	0.514600
	C137	C	0.118282	0.117001	0.496169
	C138	C	0.876392	0.118655	0.512950
	C139	C	0.878257	0.874632	0.497221
	C140	C	0.508082	0.115837	0.885707
	C141	C	0.490406	0.116497	0.126419
	C142	C	0.507318	0.873138	0.126108
	C143	C	0.490849	0.873272	0.884516
	C144	C	0.375424	0.884680	0.686472
	C145	C	0.621284	0.107000	0.686714
	C146	C	0.623268	0.884573	0.323252
	C147	C	0.376148	0.106627	0.325163
	C148	C	0.679534	0.371287	0.893636
	C149	C	0.676692	0.614014	0.118578
	C150	C	0.321238	0.615466	0.893517
	C151	C	0.320017	0.373440	0.118001
	C152	C	0.885524	0.676064	0.382522
	C153	C	0.109415	0.675486	0.628981
	C154	C	0.885236	0.315458	0.628226
	C155	C	0.110240	0.313836	0.381044
	C156	C	0.884625	0.373361	0.685550
	C157	C	0.110442	0.616113	0.684267
	C158	C	0.885545	0.617920	0.325298
	C159	C	0.111036	0.372385	0.325139
	C160	C	0.376170	0.675664	0.895062
	C161	C	0.624722	0.676614	0.116048
	C162	C	0.625037	0.311167	0.894690
	C163	C	0.376081	0.314157	0.117310
	C164	C	0.680250	0.884589	0.382289
	C165	C	0.677293	0.107948	0.626448
	C166	C	0.318424	0.884263	0.627255
	C167	C	0.318360	0.107290	0.384045
	C168	C	0.876664	0.383799	0.186446
	C169	C	0.123660	0.605955	0.188858
	C170	C	0.122214	0.384952	0.824140
	C171	C	0.873815	0.605790	0.825492
	C172	C	0.178306	0.872478	0.393422
	C173	C	0.175149	0.115910	0.617728
	C174	C	0.817247	0.118850	0.392469
	C175	C	0.817681	0.874897	0.617058
	C176	C	0.386683	0.175538	0.884145
	C177	C	0.611001	0.176059	0.130367
	C178	C	0.386885	0.813206	0.129403
	C179	C	0.611141	0.812324	0.880088
	C180	C	0.385722	0.872335	0.185437
	C181	C	0.611473	0.116756	0.186088
	C182	C	0.385902	0.116754	0.827852
	C183	C	0.611334	0.870843	0.823301
	C184	C	0.872350	0.178978	0.393628
	C185	C	0.120779	0.176538	0.616034
	C186	C	0.122729	0.812800	0.394645
	C187	C	0.872872	0.814580	0.616394
	C188	C	0.179142	0.384374	0.884005
	C189	C	0.180495	0.606614	0.129621
	C190	C	0.819805	0.382774	0.127026
	C191	C	0.817123	0.605596	0.884317
	C192	C	0.399952	0.087117	0.604126
	C193	C	0.594309	0.905564	0.601568
	C194	C	0.594348	0.086384	0.407242
	C195	C	0.400720	0.904107	0.407117
	C196	C	0.594850	0.396258	0.097970
	C197	C	0.594114	0.591117	0.913382
	C198	C	0.403614	0.592670	0.098599
	C199	C	0.403849	0.397124	0.913767
	C200	C	0.090730	0.591563	0.410816
	C201	C	0.903157	0.593784	0.602944
	C202	C	0.090449	0.398963	0.600982
	C203	C	0.905867	0.400119	0.410718
	C204	C	0.901201	0.585956	0.103336
	C205	C	0.095923	0.404971	0.103134
	C206	C	0.096296	0.587301	0.906984
	C207	C	0.902098	0.403034	0.906970
	C208	C	0.094793	0.896743	0.598361
	C209	C	0.093873	0.093127	0.412164
	C210	C	0.902126	0.094055	0.596195
	C211	C	0.904900	0.898896	0.413878
	C212	C	0.592501	0.090753	0.910016
	C213	C	0.406271	0.092362	0.101063
	C214	C	0.591522	0.897706	0.100613
	C215	C	0.407048	0.898276	0.910678
	Zn216	Zn	0.498862	-0.004576	0.757142
	Zn217	Zn	0.498407	-0.005511	0.253376
	Zn218	Zn	0.747777	0.494372	0.005709
	Zn219	Zn	0.250153	0.495448	0.006087
	Zn220	Zn	-0.002308	0.744642	0.505571
	Zn221	Zn	-0.001975	0.246425	0.504350
	Zn222	Zn	-0.002647	0.495228	0.754368
	Zn223	Zn	-0.001204	0.495143	0.256914
	Zn224	Zn	0.500094	0.744683	0.005826
	Zn225	Zn	0.499621	0.244221	0.005672
	Zn226	Zn	0.749175	-0.003887	0.504719
	Zn227	Zn	0.246401	-0.004541	0.505404
	N228	N	0.410305	0.960128	0.687125
	N229	N	0.586051	0.031539	0.686737
	N230	N	0.586846	0.959688	0.323107
	N231	N	0.410987	0.030763	0.324156
	N232	N	0.676955	0.408322	0.968809
	N233	N	0.673681	0.576695	0.043542
	N234	N	0.322541	0.579435	0.969139
	N235	N	0.321579	0.409683	0.042615
	N236	N	0.961883	0.675175	0.418828
	N237	N	0.032063	0.676613	0.594654
	N238	N	0.961755	0.316056	0.592045
	N239	N	0.033733	0.315179	0.417340
	N240	N	0.960738	0.409860	0.683862
	N241	N	0.033943	0.580524	0.683281
	N242	N	0.961737	0.581663	0.326719
	N243	N	0.035248	0.409803	0.327402
	N244	N	0.410827	0.676668	0.971504
	N245	N	0.589857	0.677542	0.039401
	N246	N	0.589494	0.310981	0.971009
	N247	N	0.411982	0.313896	0.041156
	N248	N	0.678646	0.959787	0.418121
	N249	N	0.676319	0.033036	0.589778
	N250	N	0.318496	0.959405	0.591634
	N251	N	0.318002	0.031982	0.419145
	N252	N	0.911289	0.459538	0.186921
	N253	N	0.087618	0.530828	0.188169
	N254	N	0.086832	0.460572	0.823389
	N255	N	0.909678	0.530372	0.824435
	N256	N	0.176890	0.908769	0.469123
	N257	N	0.173668	0.079331	0.542123
	N258	N	0.819462	0.082094	0.467482
	N259	N	0.820911	0.911782	0.541861
	N260	N	0.463769	0.175199	0.919049
	N261	N	0.534765	0.175963	0.094082
	N262	N	0.463523	0.813588	0.093403
	N263	N	0.535302	0.813790	0.917481
	N264	N	0.461702	0.908975	0.183413
	N265	N	0.535501	0.080375	0.183756
	N266	N	0.462302	0.080473	0.828626
	N267	N	0.535544	0.908228	0.825961
	N268	N	0.908385	0.178954	0.469596
	N269	N	0.086328	0.177326	0.539420
	N270	N	0.087194	0.812515	0.470958
	N271	N	0.909764	0.814583	0.540895
	N272	N	0.178548	0.459510	0.919698
	N273	N	0.179088	0.532021	0.092730
	N274	N	0.819925	0.457748	0.091064
	N275	N	0.818440	0.530097	0.919305
	O276	O	0.524309	0.619873	0.704975
	H277	H	0.534979	0.592005	0.711233
	H278	H	0.528304	0.630269	0.696680
	O279	O	0.679220	0.361869	0.524466
	H280	H	0.689764	0.352721	0.533001
	H281	H	0.672280	0.363065	0.522493
	O282	O	0.980209	1.100416	-0.146233
	H283	H	0.985370	1.111494	-0.156063
	H284	H	0.978821	1.105645	-0.142814
	O285	O	0.848714	0.882920	0.152384
	H286	H	0.848565	0.880814	0.153030
	H287	H	0.845786	0.868205	0.129845
	O288	O	0.288749	0.598719	0.375668
	H289	H	0.284534	0.617271	0.367063
	H290	H	0.281173	0.622997	0.377886
	O291	O	0.625603	0.471277	0.584041
	H292	H	0.625587	0.468598	0.573697
	H293	H	0.619231	0.454576	0.592793
	O294	O	0.814388	0.977869	0.813177
	H295	H	0.817069	1.021730	0.820967
	H296	H	0.799426	0.975961	0.789058
	O297	O	0.404359	0.383770	0.532779
	H298	H	0.398361	0.386403	0.534081
	H299	H	0.405183	0.379798	0.535668
	O300	O	0.501946	0.670679	0.434297
	H301	H	0.510858	0.667684	0.417051
	H302	H	0.505900	0.669216	0.416892
	O303	O	0.381072	0.575288	0.527081
	H304	H	0.393740	0.575053	0.539963
	H305	H	0.388596	0.568764	0.531016
	O306	O	0.256199	0.357583	0.667972
	H307	H	0.249408	0.348332	0.651318
	H308	H	0.254188	0.378125	0.662447
	O309	O	0.801102	-0.071958	-0.072272
	H310	H	0.801308	-0.062255	-0.073667
	H311	H	0.792709	-0.068555	-0.101782
	O312	O	0.484576	0.541958	0.344192
	H313	H	0.483384	0.534062	0.340719
	H314	H	0.501377	0.535223	0.339731
	O315	O	-0.038981	0.181715	0.977241
	H316	H	-0.040799	0.183100	0.985224
	H317	H	-0.047290	0.173971	0.979780
	O318	O	0.176228	0.185599	0.143207
	H319	H	0.174615	0.186126	0.138209
	H320	H	0.172384	0.189540	0.151754
	O321	O	0.407319	0.464973	0.322450
	H322	H	0.410598	0.468465	0.311036
	H323	H	0.392708	0.491319	0.319011
	O324	O	0.806482	0.058860	1.070416
	H325	H	0.803119	0.042017	1.080068
	H326	H	0.812645	0.043005	1.075833
	O327	O	0.558672	0.529395	0.441464
	H328	H	0.560810	0.520762	0.434424
	H329	H	0.566483	0.520163	0.444386
	O330	O	-0.184710	0.827805	1.037681
	H331	H	-0.190285	0.830979	1.036185
	H332	H	-0.174928	0.839900	1.031027
	O333	O	-0.641247	0.295064	-0.460232
	H334	H	-0.640626	0.306599	-0.457639
	H335	H	-0.668471	0.288383	-0.460494
	O336	O	1.200391	1.084848	0.101364
	H337	H	1.196307	1.097414	0.109394
	H338	H	1.207956	1.095442	0.117647
	O339	O	0.086397	0.897010	1.032651
	H340	H	0.091904	0.889964	1.027638
	H341	H	0.092396	0.896016	1.035618
	O342	O	0.317443	0.572780	0.697806
	H343	H	0.324906	0.570802	0.681354
	H344	H	0.329151	0.553305	0.694828
	O345	O	0.047687	0.030352	1.184591
	H346	H	0.046269	0.018743	1.195764
	H347	H	0.048264	0.037408	1.191516
	O348	O	0.606912	0.292780	0.319212
	H349	H	0.588379	0.279675	0.324708
	H350	H	0.611809	0.284957	0.320443
	O351	O	1.125060	0.951576	0.146736
	H352	H	1.125058	0.941296	0.158644
	H353	H	1.116702	0.937745	0.133643
	O354	O	1.153348	0.989893	0.805097
	H355	H	1.141252	0.968065	0.801534
	H356	H	1.167430	0.980568	0.786696
	O357	O	0.209212	-0.218372	-0.019933
	H358	H	0.214920	-0.228048	-0.041097
	H359	H	0.224052	-0.225092	-0.025167
	O360	O	0.591508	0.623268	0.513405
	H361	H	0.598783	0.622674	0.507270
	H362	H	0.585356	0.617209	0.523868
	O363	O	0.832223	-0.044063	0.189120
	H364	H	0.834216	-0.072008	0.198540
	H365	H	0.832365	-0.046589	0.196296
	O366	O	-0.170332	0.171718	0.828231
	H367	H	-0.141066	0.175040	0.832024
	H368	H	-0.165473	0.181015	0.865640
	O369	O	1.192957	-0.146043	0.810110
	H370	H	1.159128	-0.168543	0.803240
	H371	H	1.212885	-0.156664	0.803317
	O372	O	0.536864	0.642094	0.555339
	H373	H	0.541642	0.644620	0.566315
	H374	H	0.538975	0.644352	0.546476
	O375	O	0.024568	-0.006275	0.897924
	H376	H	0.038427	-0.000757	0.899769
	H377	H	0.012468	-0.010413	0.892727
	O378	O	0.698401	0.418614	0.312908
	H379	H	0.684244	0.392573	0.313826
	H380	H	0.716783	0.416780	0.300900
	O381	O	-0.077160	1.125548	0.065844
	H382	H	-0.057268	1.135020	0.075874
	H383	H	-0.080294	1.122883	0.076201
	O384	O	0.452358	0.590424	0.426264
	H385	H	0.450559	0.604091	0.437864
	H386	H	0.453740	0.592986	0.442396
	O387	O	0.481312	0.671243	0.450561
	H388	H	0.484901	0.665916	0.454967
	H389	H	0.488173	0.674475	0.447959
	O390	O	1.031936	1.087854	0.106306
	H391	H	1.029882	1.088093	0.106501
	H392	H	1.027981	1.086058	0.103530
	O393	O	0.954956	-0.162109	1.197880
	H394	H	0.950079	-0.164449	1.196320
	H395	H	0.957180	-0.184955	1.200743
	O396	O	0.588341	0.511015	0.625873
	H397	H	0.580554	0.503845	0.629566
	H398	H	0.590590	0.495774	0.616925
	O399	O	0.204521	0.792340	0.226363
	H400	H	0.218553	0.776716	0.226608
	H401	H	0.191298	0.797815	0.241482
	O402	O	1.204216	1.210904	-0.095577
	H403	H	1.206240	1.185519	-0.087798
	H404	H	1.206933	1.228242	-0.087395
	O405	O	0.683692	0.628002	0.568251
	H406	H	0.697168	0.621557	0.590713
	H407	H	0.660142	0.619939	0.554533
	O408	O	0.532914	0.358121	0.586083
	H409	H	0.504905	0.348147	0.584677
	H410	H	0.524264	0.345593	0.584937
	O411	O	0.822875	1.175902	1.007106
	H412	H	0.826174	1.144975	1.025508
	H413	H	0.794809	1.193006	1.011684
	O414	O	0.606637	0.555234	0.699196
	H415	H	0.608985	0.532882	0.708051
	H416	H	0.629474	0.548552	0.699929
	O417	O	0.188563	1.001239	1.007141
	H418	H	0.197035	0.971057	1.008814
	H419	H	0.184185	0.990026	0.986610
	O420	O	-0.002263	0.948816	0.981754
	H421	H	0.005933	0.959589	0.990614
	H422	H	0.005340	0.949361	0.964025
	O423	O	0.023837	0.792458	-0.180053
	H424	H	-0.006204	0.792754	-0.186140
	H425	H	0.024091	0.785933	-0.193303
	O426	O	0.418428	0.410606	0.424250
	H427	H	0.426563	0.394637	0.432066
	H428	H	0.417629	0.413861	0.418579
	O429	O	0.311884	0.384162	0.527237
	H430	H	0.311280	0.391324	0.521291
	H431	H	0.303264	0.413471	0.521278
	O432	O	0.484763	0.327944	0.592611
	H433	H	0.485426	0.310302	0.610456
	H434	H	0.458789	0.322935	0.584216
	O435	O	-0.001065	-0.151780	-0.200293
	H436	H	-0.020504	-0.123016	-0.202477
	H437	H	-0.017139	-0.163872	-0.214353
	O438	O	-0.045337	0.976456	1.183696
	H439	H	-0.045826	0.969810	1.183949
	H440	H	-0.026268	0.959690	1.193861
	O441	O	0.607536	0.512438	0.497327
	H442	H	0.600986	0.502762	0.497556
	H443	H	0.617396	0.502327	0.493348
