data_Molecule from HDF5

_cell_length_a		16.171494
_cell_length_b		16.247262
_cell_length_c		16.285406
_cell_angle_alpha	90.131598
_cell_angle_beta	90.245636
_cell_angle_gamma	90.045803
_symmetry_space_group_name_H-M	'P 1'
_symmetry_Int_Tables_number		1

loop_
	_symmetry_equiv_pos_as_xyz
	x,y,z

loop_
	_atom_site_label
	_atom_site_type_symbol
	_atom_site_fract_x
	_atom_site_fract_y
	_atom_site_fract_z
	H0	H	0.398039	0.834691	0.705745
	H1	H	0.596004	0.162869	0.707607
	H2	H	0.594656	0.834242	0.278666
	H3	H	0.396103	0.161765	0.277036
	H4	H	0.709582	0.400671	0.829578
	H5	H	0.708946	0.594422	0.158410
	H6	H	0.282856	0.594337	0.829169
	H7	H	0.284122	0.401293	0.157750
	H8	H	0.831667	0.710975	0.394968
	H9	H	0.161250	0.712310	0.592984
	H10	H	0.831095	0.285803	0.589424
	H11	H	0.161207	0.284899	0.395789
	H12	H	0.832483	0.398678	0.707760
	H13	H	0.161024	0.597652	0.709131
	H14	H	0.831497	0.596168	0.278768
	H15	H	0.160842	0.400396	0.280603
	H16	H	0.397663	0.711451	0.829574
	H17	H	0.596614	0.713925	0.157001
	H18	H	0.594889	0.283325	0.828845
	H19	H	0.397504	0.282289	0.156254
	H20	H	0.708155	0.833542	0.397396
	H21	H	0.709587	0.163480	0.590613
	H22	H	0.284160	0.834301	0.588260
	H23	H	0.283411	0.162841	0.395540
	H24	H	0.898957	0.333435	0.205930
	H25	H	0.095839	0.661849	0.208888
	H26	H	0.094597	0.334204	0.779648
	H27	H	0.897661	0.662189	0.779038
	H28	H	0.207733	0.901388	0.327911
	H29	H	0.211256	0.095774	0.656902
	H30	H	0.782895	0.094653	0.328204
	H31	H	0.784975	0.902762	0.657984
	H32	H	0.331623	0.210031	0.894094
	H33	H	0.661606	0.211803	0.091074
	H34	H	0.331773	0.785063	0.089278
	H35	H	0.661770	0.785690	0.895959
	H36	H	0.331427	0.898840	0.205886
	H37	H	0.660518	0.098009	0.208559
	H38	H	0.332152	0.095506	0.778690
	H39	H	0.661893	0.900351	0.779747
	H40	H	0.896859	0.212750	0.329264
	H41	H	0.095840	0.212716	0.657221
	H42	H	0.093408	0.783218	0.328906
	H43	H	0.898108	0.783646	0.657292
	H44	H	0.208170	0.333448	0.897152
	H45	H	0.210504	0.662468	0.092023
	H46	H	0.782567	0.334306	0.090412
	H47	H	0.782717	0.662916	0.895653
	H48	H	0.408420	0.116750	0.593960
	H49	H	0.593741	0.876946	0.599536
	H50	H	0.595184	0.117616	0.399464
	H51	H	0.408560	0.881713	0.395266
	H52	H	0.593034	0.399165	0.112275
	H53	H	0.587705	0.590280	0.877405
	H54	H	0.402992	0.583946	0.108228
	H55	H	0.393837	0.399861	0.872676
	H56	H	0.114303	0.591588	0.401939
	H57	H	0.881633	0.578219	0.587114
	H58	H	0.109694	0.401839	0.569877
	H59	H	0.879042	0.408459	0.398491
	H60	H	0.111753	0.422311	0.594040
	H61	H	0.874307	0.596874	0.597459
	H62	H	0.113405	0.589801	0.401633
	H63	H	0.877078	0.402693	0.396525
	H64	H	0.412236	0.596517	0.109284
	H65	H	0.588622	0.594449	0.876711
	H66	H	0.592553	0.410908	0.108736
	H67	H	0.402292	0.412369	0.878838
	H68	H	0.586102	0.115921	0.393994
	H69	H	0.577415	0.885144	0.584617
	H70	H	0.407476	0.113250	0.579781
	H71	H	0.403047	0.882983	0.404394
	H72	H	0.897733	0.615707	0.083648
	H73	H	0.088808	0.383567	0.079123
	H74	H	0.084470	0.613146	0.904147
	H75	H	0.902033	0.383915	0.908233
	H76	H	0.089432	0.903215	0.609185
	H77	H	0.090085	0.082488	0.378550
	H78	H	0.919048	0.086869	0.603790
	H79	H	0.897903	0.907543	0.376307
	H80	H	0.616033	0.088594	0.894153
	H81	H	0.375252	0.095604	0.090695
	H82	H	0.618606	0.898994	0.095108
	H83	H	0.377215	0.901379	0.895224
	H84	H	0.612654	0.901575	0.075596
	H85	H	0.379441	0.093065	0.078340
	H86	H	0.615633	0.096544	0.901721
	H87	H	0.379432	0.902464	0.903055
	H88	H	0.901108	0.109958	0.615755
	H89	H	0.079831	0.096806	0.377292
	H90	H	0.092615	0.905181	0.610309
	H91	H	0.907922	0.904704	0.378399
	H92	H	0.095346	0.616676	0.903803
	H93	H	0.099278	0.377237	0.090620
	H94	H	0.902928	0.618048	0.094788
	H95	H	0.896872	0.378103	0.894698
	H96	H	0.395900	0.118532	0.587087
	H97	H	0.599496	0.881814	0.577408
	H98	H	0.587249	0.113292	0.404471
	H99	H	0.397552	0.878850	0.395811
	H100	H	0.582292	0.404190	0.107863
	H101	H	0.592094	0.591369	0.876595
	H102	H	0.396758	0.596866	0.113870
	H103	H	0.409530	0.397801	0.876504
	H104	H	0.114611	0.590648	0.400505
	H105	H	0.880307	0.597461	0.575507
	H106	H	0.121279	0.392370	0.597897
	H107	H	0.878598	0.403530	0.402659
	H108	H	0.909303	0.612965	0.085239
	H109	H	0.082707	0.380619	0.094796
	H110	H	0.088781	0.616702	0.894068
	H111	H	0.911452	0.382607	0.896228
	H112	H	0.089656	0.906917	0.608812
	H113	H	0.097364	0.098089	0.372171
	H114	H	0.889124	0.080941	0.610331
	H115	H	0.901002	0.897534	0.374654
	H116	H	0.612674	0.087183	0.904881
	H117	H	0.381130	0.083486	0.087087
	H118	H	0.611408	0.917176	0.089198
	H119	H	0.380106	0.909118	0.897674
	C120	C	0.375509	0.007478	0.614099
	C121	C	0.618388	0.990414	0.614933
	C122	C	0.617811	0.007011	0.371370
	C123	C	0.374785	0.989695	0.370424
	C124	C	0.617475	0.376521	0.001387
	C125	C	0.618355	0.620138	0.985415
	C126	C	0.375024	0.619915	0.001766
	C127	C	0.374672	0.376061	0.984620
	C128	C	0.004990	0.618892	0.372247
	C129	C	0.988004	0.619374	0.615278
	C130	C	0.005160	0.377095	0.614864
	C131	C	0.987465	0.376880	0.372022
	C132	C	0.875044	0.506763	0.114881
	C133	C	0.118537	0.489444	0.116314
	C134	C	0.117602	0.506859	0.872335
	C135	C	0.874635	0.489713	0.871495
	C136	C	0.118074	0.876497	0.500932
	C137	C	0.118269	0.120617	0.484583
	C138	C	0.874604	0.120024	0.501249
	C139	C	0.874200	0.875748	0.485066
	C140	C	0.505707	0.118930	0.871581
	C141	C	0.487667	0.119600	0.114254
	C142	C	0.504982	0.877372	0.113923
	C143	C	0.488033	0.876841	0.870948
	C144	C	0.378026	0.883568	0.667904
	C145	C	0.616025	0.113909	0.669604
	C146	C	0.614709	0.883009	0.317098
	C147	C	0.376381	0.113183	0.315476
	C148	C	0.671976	0.379862	0.878014
	C149	C	0.672604	0.616314	0.108952
	C150	C	0.320312	0.615715	0.878278
	C151	C	0.320951	0.379891	0.108417
	C152	C	0.880693	0.673299	0.374677
	C153	C	0.112041	0.674692	0.613445
	C154	C	0.880646	0.322683	0.610964
	C155	C	0.112014	0.322585	0.375399
	C156	C	0.881154	0.379134	0.669358
	C157	C	0.111958	0.617791	0.671063
	C158	C	0.880823	0.616580	0.316704
	C159	C	0.111990	0.379759	0.318071
	C160	C	0.377173	0.674128	0.878472
	C161	C	0.616465	0.675324	0.108484
	C162	C	0.614844	0.321634	0.877747
	C163	C	0.377411	0.321033	0.107736
	C164	C	0.671177	0.882634	0.375717
	C165	C	0.672691	0.114390	0.611593
	C166	C	0.321332	0.883458	0.609603
	C167	C	0.320498	0.113647	0.374265
	C168	C	0.878168	0.382717	0.168762
	C169	C	0.116341	0.612781	0.171380
	C170	C	0.114917	0.383117	0.817314
	C171	C	0.877117	0.613274	0.816823
	C172	C	0.171221	0.879938	0.377305
	C173	C	0.173384	0.116998	0.607997
	C174	C	0.819968	0.116181	0.377422
	C175	C	0.821408	0.880927	0.608923
	C176	C	0.381181	0.172946	0.873804
	C177	C	0.612132	0.174344	0.111586
	C178	C	0.380959	0.822522	0.110173
	C179	C	0.612431	0.822544	0.874787
	C180	C	0.380860	0.879167	0.168033
	C181	C	0.611517	0.118217	0.170342
	C182	C	0.381182	0.115932	0.816722
	C183	C	0.612592	0.879760	0.817225
	C184	C	0.876955	0.174386	0.377804
	C185	C	0.116140	0.175107	0.608006
	C186	C	0.114446	0.821119	0.377851
	C187	C	0.877924	0.821786	0.608533
	C188	C	0.170905	0.382449	0.876136
	C189	C	0.172942	0.613286	0.112774
	C190	C	0.820255	0.383035	0.111502
	C191	C	0.820067	0.613619	0.874711
	C192	C	0.397317	0.093983	0.593116
	C193	C	0.596556	0.903742	0.593517
	C194	C	0.596061	0.093231	0.392916
	C195	C	0.396605	0.903467	0.392023
	C196	C	0.595754	0.398332	0.087373
	C197	C	0.596052	0.598493	0.899121
	C198	C	0.397478	0.598612	0.088340
	C199	C	0.395752	0.397146	0.898331
	C200	C	0.091608	0.597135	0.394713
	C201	C	0.901341	0.597245	0.593154
	C202	C	0.091783	0.399040	0.593609
	C203	C	0.900642	0.398499	0.392980
	C204	C	0.896802	0.593300	0.094022
	C205	C	0.096757	0.402835	0.094528
	C206	C	0.095969	0.593191	0.894255
	C207	C	0.896727	0.403758	0.893456
	C208	C	0.096691	0.898624	0.587389
	C209	C	0.095766	0.098886	0.398218
	C210	C	0.896718	0.098914	0.587587
	C211	C	0.895711	0.897028	0.398651
	C212	C	0.592396	0.097134	0.893759
	C213	C	0.400997	0.097388	0.091913
	C214	C	0.591910	0.899429	0.092851
	C215	C	0.401301	0.898118	0.892202
	Zn216	Zn	0.496991	-0.001351	0.743127
	Zn217	Zn	0.496274	-0.001875	0.242618
	Zn218	Zn	0.746706	0.498159	-0.006561
	Zn219	Zn	0.246371	0.498267	-0.006492
	Zn220	Zn	-0.003479	0.747004	0.493629
	Zn221	Zn	-0.003833	0.249151	0.492943
	Zn222	Zn	-0.003142	0.498180	0.743377
	Zn223	Zn	-0.003607	0.497620	0.244243
	Zn224	Zn	0.496749	0.748763	-0.007009
	Zn225	Zn	0.496563	0.246966	-0.007528
	Zn226	Zn	0.746047	-0.001207	0.492999
	Zn227	Zn	0.246893	-0.001244	0.492241
	N228	N	0.411089	0.961726	0.670995
	N229	N	0.583068	0.035760	0.671909
	N230	N	0.582381	0.961147	0.314216
	N231	N	0.409468	0.035245	0.313047
	N232	N	0.673945	0.413096	0.955736
	N233	N	0.673627	0.582500	0.031464
	N234	N	0.318880	0.582969	0.956146
	N235	N	0.319040	0.413228	0.030939
	N236	N	0.958785	0.674782	0.408531
	N237	N	0.034034	0.675709	0.579430
	N238	N	0.958788	0.321320	0.577933
	N239	N	0.033749	0.320684	0.408016
	N240	N	0.959469	0.412346	0.671889
	N241	N	0.033807	0.584122	0.672351
	N242	N	0.959134	0.583345	0.315150
	N243	N	0.033609	0.412801	0.315935
	N244	N	0.410602	0.676688	0.956365
	N245	N	0.583249	0.677746	0.030415
	N246	N	0.581511	0.319501	0.955339
	N247	N	0.410181	0.318343	0.029734
	N248	N	0.673066	0.960688	0.408920
	N249	N	0.674345	0.036442	0.578369
	N250	N	0.319606	0.961487	0.577102
	N251	N	0.319416	0.035956	0.407921
	N252	N	0.911654	0.460688	0.170939
	N253	N	0.083101	0.534912	0.173302
	N254	N	0.082437	0.461459	0.815024
	N255	N	0.910397	0.535467	0.814540
	N256	N	0.173605	0.913612	0.454934
	N257	N	0.174828	0.083807	0.530138
	N258	N	0.818504	0.082901	0.455168
	N259	N	0.818754	0.913475	0.530934
	N260	N	0.459389	0.174993	0.907152
	N261	N	0.533873	0.175709	0.077771
	N262	N	0.459134	0.821369	0.077328
	N263	N	0.534079	0.820378	0.907545
	N264	N	0.459121	0.912591	0.170434
	N265	N	0.533390	0.084529	0.171660
	N266	N	0.459632	0.083056	0.815168
	N267	N	0.534293	0.912571	0.814583
	N268	N	0.910094	0.176940	0.455740
	N269	N	0.082545	0.177325	0.530257
	N270	N	0.082183	0.819023	0.455865
	N271	N	0.910147	0.818602	0.530481
	N272	N	0.172717	0.460284	0.909562
	N273	N	0.174507	0.535422	0.079238
	N274	N	0.818790	0.460818	0.078551
	N275	N	0.818407	0.535782	0.908015
	O276	O	0.511839	-0.420623	1.552597
	H277	H	0.510262	-0.415214	1.549396
	H278	H	0.511985	-0.421140	1.555793
	O279	O	0.520380	0.556989	0.556727
	H280	H	0.526504	0.557002	0.558273
	H281	H	0.526116	0.563666	0.560832
	O282	O	1.503544	1.543394	0.539802
	H283	H	1.496346	1.545566	0.540401
	H284	H	1.507394	1.536875	0.545501
	O285	O	0.509214	0.540962	0.531627
	H286	H	0.507328	0.539404	0.535356
	H287	H	0.505018	0.539825	0.523561
