data_Molecule from HDF5

_cell_length_a		16.490630
_cell_length_b		16.230028
_cell_length_c		16.499019
_cell_angle_alpha	90.055482
_cell_angle_beta	90.013982
_cell_angle_gamma	89.864990
_symmetry_space_group_name_H-M	'P 1'
_symmetry_Int_Tables_number		1

loop_
	_symmetry_equiv_pos_as_xyz
	x,y,z

loop_
	_atom_site_label
	_atom_site_type_symbol
	_atom_site_fract_x
	_atom_site_fract_y
	_atom_site_fract_z
	H0	H	0.394426	0.844050	0.738324
	H1	H	0.613641	0.159567	0.740267
	H2	H	0.608964	0.841455	0.293981
	H3	H	0.395016	0.160400	0.290095
	H4	H	0.731373	0.388186	0.858025
	H5	H	0.728285	0.606296	0.170190
	H6	H	0.276908	0.615631	0.859813
	H7	H	0.280327	0.391936	0.169240
	H8	H	0.846135	0.720963	0.411494
	H9	H	0.161947	0.728162	0.622019
	H10	H	0.846208	0.283650	0.617582
	H11	H	0.163126	0.278289	0.408589
	H12	H	0.850465	0.393923	0.738314
	H13	H	0.161594	0.614892	0.740905
	H14	H	0.849726	0.608973	0.290334
	H15	H	0.163104	0.392681	0.290655
	H16	H	0.400092	0.723237	0.855950
	H17	H	0.610030	0.721098	0.171214
	H18	H	0.610002	0.278991	0.855787
	H19	H	0.401170	0.281340	0.171789
	H20	H	0.726010	0.842598	0.407738
	H21	H	0.725255	0.161404	0.620991
	H22	H	0.282562	0.842143	0.621497
	H23	H	0.281791	0.160771	0.407386
	H24	H	0.904744	0.340937	0.232155
	H25	H	0.113922	0.660497	0.237149
	H26	H	0.118856	0.344501	0.787324
	H27	H	0.899804	0.660380	0.792297
	H28	H	0.228308	0.893492	0.357638
	H29	H	0.231648	0.113888	0.669444
	H30	H	0.781282	0.110205	0.357840
	H31	H	0.779352	0.893854	0.669682
	H32	H	0.347078	0.226620	0.906518
	H33	H	0.661250	0.221647	0.118146
	H34	H	0.348416	0.776836	0.120312
	H35	H	0.662595	0.779987	0.908617
	H36	H	0.348335	0.890702	0.237581
	H37	H	0.657467	0.112202	0.240213
	H38	H	0.348731	0.115010	0.786625
	H39	H	0.659722	0.892700	0.789233
	H40	H	0.905670	0.218253	0.355047
	H41	H	0.111213	0.224920	0.671777
	H42	H	0.109477	0.781482	0.355766
	H43	H	0.898781	0.780031	0.671017
	H44	H	0.231014	0.343446	0.904583
	H45	H	0.228291	0.660667	0.121631
	H46	H	0.787073	0.341088	0.119483
	H47	H	0.782903	0.658938	0.906382
	H48	H	0.419913	0.114292	0.600441
	H49	H	0.584601	0.890072	0.602915
	H50	H	0.589735	0.115427	0.426153
	H51	H	0.412452	0.884883	0.422218
	H52	H	0.600877	0.410910	0.128833
	H53	H	0.597248	0.588145	0.900028
	H54	H	0.418167	0.587365	0.125091
	H55	H	0.420294	0.420471	0.903953
	H56	H	0.118223	0.586336	0.423155
	H57	H	0.895770	0.588197	0.601526
	H58	H	0.118116	0.417019	0.601122
	H59	H	0.890816	0.412886	0.417497
	H60	H	0.118709	0.412999	0.602585
	H61	H	0.894468	0.587623	0.605332
	H62	H	0.120943	0.593636	0.423576
	H63	H	0.891807	0.409293	0.423676
	H64	H	0.418670	0.586827	0.125162
	H65	H	0.594972	0.587797	0.900576
	H66	H	0.596767	0.416029	0.125343
	H67	H	0.420520	0.412180	0.901097
	H68	H	0.592007	0.115915	0.426440
	H69	H	0.592294	0.890632	0.594112
	H70	H	0.418086	0.114472	0.598528
	H71	H	0.420918	0.887386	0.422676
	H72	H	0.919070	0.614911	0.099028
	H73	H	0.092770	0.390523	0.094782
	H74	H	0.085926	0.612026	0.929453
	H75	H	0.916773	0.386050	0.927581
	H76	H	0.092225	0.917729	0.625588
	H77	H	0.087914	0.079750	0.407321
	H78	H	0.909841	0.092563	0.630286
	H79	H	0.911619	0.914339	0.400147
	H80	H	0.615657	0.086018	0.922626
	H81	H	0.388495	0.092529	0.103119
	H82	H	0.616673	0.912553	0.101908
	H83	H	0.392531	0.916214	0.927481
	H84	H	0.616365	0.915056	0.104051
	H85	H	0.392282	0.089021	0.097753
	H86	H	0.616565	0.091125	0.926318
	H87	H	0.391599	0.914840	0.924094
	H88	H	0.913648	0.086849	0.627022
	H89	H	0.088466	0.099720	0.400040
	H90	H	0.092468	0.915244	0.625819
	H91	H	0.915292	0.915705	0.401359
	H92	H	0.093946	0.614160	0.932584
	H93	H	0.101559	0.384368	0.103042
	H94	H	0.912473	0.617918	0.101717
	H95	H	0.918946	0.384266	0.921358
	H96	H	0.417196	0.115527	0.601441
	H97	H	0.595449	0.885379	0.604565
	H98	H	0.591057	0.117359	0.424664
	H99	H	0.415941	0.888611	0.429427
	H100	H	0.594150	0.408920	0.126733
	H101	H	0.595451	0.589862	0.900027
	H102	H	0.418311	0.587617	0.124820
	H103	H	0.413490	0.416423	0.900712
	H104	H	0.116798	0.590477	0.429292
	H105	H	0.893126	0.591196	0.603384
	H106	H	0.116873	0.414027	0.598555
	H107	H	0.893814	0.416234	0.423406
	H108	H	0.918792	0.617339	0.106181
	H109	H	0.089358	0.387229	0.107342
	H110	H	0.091827	0.616095	0.924577
	H111	H	0.923375	0.387557	0.925866
	H112	H	0.094110	0.917452	0.626155
	H113	H	0.105742	0.087104	0.398886
	H114	H	0.916769	0.093441	0.628044
	H115	H	0.914844	0.911570	0.400633
	H116	H	0.614105	0.086316	0.928844
	H117	H	0.391364	0.085323	0.103964
	H118	H	0.618345	0.911976	0.104967
	H119	H	0.392297	0.912514	0.927234
	C120	C	0.383637	0.010528	0.635054
	C121	C	0.624557	0.993588	0.634899
	C122	C	0.624437	0.010867	0.392486
	C123	C	0.382383	0.992229	0.391601
	C124	C	0.628969	0.378025	0.022860
	C125	C	0.627882	0.621690	1.004045
	C126	C	0.384323	0.622517	0.022176
	C127	C	0.384272	0.381618	1.005146
	C128	C	0.014552	0.623056	0.392459
	C129	C	0.997540	0.624189	0.636659
	C130	C	0.014234	0.381510	0.634211
	C131	C	0.996941	0.379699	0.390795
	C132	C	0.885689	0.510419	0.134236
	C133	C	0.127487	0.492849	0.134933
	C134	C	0.126707	0.510034	0.893235
	C135	C	0.885692	0.491523	0.892240
	C136	C	0.125561	0.882421	0.522231
	C137	C	0.127294	0.123646	0.505499
	C138	C	0.882598	0.123041	0.523482
	C139	C	0.881589	0.880456	0.504659
	C140	C	0.512467	0.122992	0.892066
	C141	C	0.494365	0.122425	0.134885
	C142	C	0.513360	0.879267	0.135564
	C143	C	0.495782	0.880648	0.892882
	C144	C	0.377864	0.891547	0.697727
	C145	C	0.629701	0.112313	0.698179
	C146	C	0.627541	0.890236	0.332656
	C147	C	0.377527	0.112058	0.330072
	C148	C	0.690226	0.372643	0.905023
	C149	C	0.687987	0.624352	0.123002
	C150	C	0.320081	0.630029	0.905618
	C151	C	0.321783	0.375661	0.122598
	C152	C	0.894785	0.682412	0.391368
	C153	C	0.114939	0.687629	0.640087
	C154	C	0.894875	0.322110	0.636383
	C155	C	0.115812	0.318556	0.389880
	C156	C	0.896946	0.376877	0.696951
	C157	C	0.114883	0.630858	0.699262
	C158	C	0.896278	0.626637	0.331273
	C159	C	0.115819	0.375525	0.330894
	C160	C	0.381041	0.684376	0.903873
	C161	C	0.629384	0.681636	0.123409
	C162	C	0.629694	0.317728	0.903979
	C163	C	0.381978	0.320539	0.123985
	C164	C	0.685604	0.890615	0.389784
	C165	C	0.685664	0.113208	0.639042
	C166	C	0.322249	0.890658	0.639066
	C167	C	0.321550	0.112685	0.388890
	C168	C	0.885393	0.389176	0.193098
	C169	C	0.131415	0.612532	0.196705
	C170	C	0.134087	0.391951	0.828980
	C171	C	0.882266	0.611976	0.832272
	C172	C	0.187037	0.877251	0.404430
	C173	C	0.189929	0.129632	0.622922
	C174	C	0.822576	0.126788	0.404688
	C175	C	0.820472	0.876685	0.622837
	C176	C	0.394479	0.186034	0.888212
	C177	C	0.613262	0.182742	0.137287
	C178	C	0.395430	0.817286	0.138162
	C179	C	0.614630	0.819718	0.889975
	C180	C	0.395345	0.874409	0.196457
	C181	C	0.611376	0.127833	0.197764
	C182	C	0.395238	0.130206	0.828622
	C183	C	0.613266	0.875955	0.830574
	C184	C	0.883917	0.180917	0.403113
	C185	C	0.129870	0.185098	0.624100
	C186	C	0.127684	0.821357	0.403544
	C187	C	0.879834	0.820052	0.623501
	C188	C	0.190671	0.391547	0.887235
	C189	C	0.188365	0.612709	0.138971
	C190	C	0.826926	0.389393	0.136770
	C191	C	0.823924	0.611299	0.889171
	C192	C	0.410474	0.093319	0.608033
	C193	C	0.598138	0.910325	0.608178
	C194	C	0.598365	0.094406	0.418295
	C195	C	0.408580	0.908829	0.417516
	C196	C	0.604287	0.404328	0.105624
	C197	C	0.602881	0.596026	0.921747
	C198	C	0.410785	0.595249	0.103535
	C199	C	0.410445	0.408797	0.923345
	C200	C	0.097002	0.597398	0.417992
	C201	C	0.915909	0.596733	0.611005
	C202	C	0.096391	0.407357	0.608303
	C203	C	0.913757	0.405521	0.414693
	C204	C	0.909974	0.594631	0.109485
	C205	C	0.101945	0.409134	0.109074
	C206	C	0.098576	0.592714	0.921013
	C207	C	0.911960	0.407774	0.917730
	C208	C	0.100150	0.909105	0.604561
	C209	C	0.101341	0.096660	0.423602
	C210	C	0.906523	0.098203	0.606578
	C211	C	0.906765	0.906415	0.422171
	C212	C	0.593971	0.095673	0.918291
	C213	C	0.412133	0.096399	0.109069
	C214	C	0.595826	0.905622	0.110544
	C215	C	0.413406	0.906935	0.918659
	Zn216	Zn	0.503486	0.001582	0.762898
	Zn217	Zn	0.503236	0.000876	0.264033
	Zn218	Zn	0.757285	0.499841	0.013243
	Zn219	Zn	0.255037	0.501874	0.013851
	Zn220	Zn	0.004960	0.752617	0.513980
	Zn221	Zn	0.004828	0.251636	0.513885
	Zn222	Zn	0.007056	0.501173	0.764224
	Zn223	Zn	0.006710	0.501552	0.262771
	Zn224	Zn	0.505728	0.750945	0.013291
	Zn225	Zn	0.504116	0.251939	0.013656
	Zn226	Zn	0.752637	0.002839	0.513875
	Zn227	Zn	0.255854	0.001806	0.514280
	N228	N	0.415028	0.967117	0.695542
	N229	N	0.592585	0.036534	0.695796
	N230	N	0.590241	0.966065	0.334259
	N231	N	0.414657	0.036223	0.331757
	N232	N	0.689864	0.409411	0.980186
	N233	N	0.687444	0.588070	0.047780
	N234	N	0.321828	0.592419	0.980134
	N235	N	0.323147	0.412700	0.047698
	N236	N	0.969357	0.680631	0.428356
	N237	N	0.040825	0.683856	0.602019
	N238	N	0.968997	0.324547	0.598226
	N239	N	0.040840	0.321084	0.426438
	N240	N	0.972339	0.412822	0.695820
	N241	N	0.041006	0.592184	0.697342
	N242	N	0.971948	0.590909	0.331411
	N243	N	0.040985	0.412930	0.331552
	N244	N	0.420224	0.679896	0.977289
	N245	N	0.592894	0.680460	0.048493
	N246	N	0.592252	0.321005	0.978286
	N247	N	0.420182	0.324132	0.050024
	N248	N	0.683858	0.966762	0.426285
	N249	N	0.682409	0.038340	0.600334
	N250	N	0.325676	0.965796	0.600635
	N251	N	0.324209	0.037152	0.426380
	N252	N	0.920977	0.465696	0.191809
	N253	N	0.094403	0.536828	0.194387
	N254	N	0.095204	0.466930	0.832618
	N255	N	0.919907	0.536268	0.834074
	N256	N	0.185994	0.914390	0.479284
	N257	N	0.188903	0.092460	0.548058
	N258	N	0.821490	0.091795	0.480525
	N259	N	0.821039	0.913160	0.547721
	N260	N	0.468243	0.181996	0.926675
	N261	N	0.539475	0.179539	0.098725
	N262	N	0.469879	0.820245	0.100674
	N263	N	0.540480	0.822338	0.927756
	N264	N	0.469593	0.912319	0.194808
	N265	N	0.536482	0.091039	0.196293
	N266	N	0.469613	0.091796	0.830501
	N267	N	0.538286	0.912953	0.832230
	N268	N	0.920298	0.178947	0.477954
	N269	N	0.091666	0.181586	0.550161
	N270	N	0.090216	0.824285	0.477948
	N271	N	0.917166	0.822323	0.549121
	N272	N	0.186215	0.466240	0.926404
	N273	N	0.186165	0.537024	0.101437
	N274	N	0.826771	0.465816	0.100821
	N275	N	0.825825	0.535253	0.925666
	O276	O	0.290053	0.713725	0.493582
	H277	H	0.280643	0.718826	0.493021
	H278	H	0.284570	0.725660	0.468512
	O279	O	1.219565	-0.208344	0.998819
	H280	H	1.207928	-0.198008	0.951332
	H281	H	1.251694	-0.234083	0.988661
	O282	O	-0.021016	0.793108	1.229934
	H283	H	-0.027889	0.777143	1.238709
	H284	H	-0.024112	0.782693	1.230743
	O285	O	-0.208796	0.805151	0.031511
	H286	H	-0.214690	0.781516	0.015820
	H287	H	-0.195597	0.799688	0.016600
	O288	O	1.324981	1.330786	-0.307436
	H289	H	1.376911	1.316803	-0.297402
	H290	H	1.315295	1.317282	-0.359780
	O291	O	0.286536	0.488914	0.730932
	H292	H	0.267436	0.467351	0.747444
	H293	H	0.282899	0.452299	0.733240
	O294	O	0.005872	-0.208822	0.837794
	H295	H	-0.005951	-0.219449	0.819630
	H296	H	-0.008839	-0.200949	0.821670
	O297	O	0.314071	0.483842	0.464334
	H298	H	0.305970	0.482074	0.496851
	H299	H	0.319045	0.491012	0.465779
	O300	O	0.797597	0.955936	0.961515
	H301	H	0.815205	0.944870	0.966538
	H302	H	0.802490	0.955738	0.968566
	O303	O	0.588908	0.680711	0.453907
	H304	H	0.568468	0.672977	0.444396
	H305	H	0.592848	0.691473	0.457319
	O306	O	0.481429	0.511988	0.490642
	H307	H	0.480558	0.515686	0.504070
	H308	H	0.475607	0.517634	0.497731
	O309	O	1.155039	0.184949	0.193956
	H310	H	1.171815	0.145021	0.203077
	H311	H	1.170605	0.199516	0.172180
	O312	O	0.090082	0.903640	1.049663
	H313	H	0.091328	0.913856	1.040799
	H314	H	0.082302	0.914722	1.083822
	O315	O	0.390497	0.433692	0.353339
	H316	H	0.394746	0.427785	0.346159
	H317	H	0.383807	0.445319	0.368372
	O318	O	0.986245	-0.036451	-0.165991
	H319	H	1.006084	-0.020686	-0.167665
	H320	H	0.968908	-0.030704	-0.162593
	O321	O	-0.010288	0.212591	-0.198123
	H322	H	-0.049621	0.195175	-0.192183
	H323	H	-0.010749	0.244415	-0.215562
	O324	O	0.627089	0.349784	0.575721
	H325	H	0.624949	0.346463	0.568623
	H326	H	0.634563	0.365010	0.568805
	O327	O	0.364286	0.568074	0.636273
	H328	H	0.345272	0.558066	0.662553
	H329	H	0.365077	0.595838	0.634481
	O330	O	0.205852	0.899728	0.119673
	H331	H	0.215928	0.864072	0.099741
	H332	H	0.195718	0.910751	0.102990
	O333	O	0.436924	0.297266	0.465801
	H334	H	0.449001	0.295284	0.480260
	H335	H	0.443207	0.309100	0.448864
	O336	O	0.036308	-0.018160	0.232750
	H337	H	0.038860	-0.032133	0.236679
	H338	H	0.043158	-0.028388	0.240451
	O339	O	0.020457	0.801647	0.035075
	H340	H	0.046930	0.798891	0.032801
	H341	H	0.031027	0.821804	0.039584
	O342	O	-0.214331	0.980327	1.228553
	H343	H	-0.220369	0.975695	1.241854
	H344	H	-0.223873	0.958052	1.232676
	O345	O	0.292857	0.527164	-0.697860
	H346	H	0.266225	0.523145	-0.711512
	H347	H	0.304488	0.506417	-0.690145
	O348	O	0.579729	0.442775	0.662678
	H349	H	0.601768	0.462033	0.668942
	H350	H	0.573378	0.460810	0.655935
	O351	O	0.212489	1.039580	1.223022
	H352	H	0.233329	1.029201	1.219803
	H353	H	0.224517	1.022634	1.222123
	O354	O	0.715878	0.293252	-0.517418
	H355	H	0.733211	0.289371	-0.525389
	H356	H	0.724385	0.289541	-0.518155
	O357	O	-0.205742	0.205548	0.992329
	H358	H	-0.198209	0.192271	1.009046
	H359	H	-0.237285	0.232059	0.986130
	O360	O	0.485522	0.292526	0.722561
	H361	H	0.506073	0.295708	0.711606
	H362	H	0.494356	0.274207	0.738095
	O363	O	0.156805	0.212564	1.015609
	H364	H	0.129227	0.221829	0.999611
	H365	H	0.171620	0.241924	1.022393
	O366	O	0.698677	0.690459	0.710313
	H367	H	0.711430	0.701055	0.685747
	H368	H	0.664200	0.685677	0.714168
	O369	O	0.698700	0.310052	0.317161
	H370	H	0.701017	0.340503	0.324174
	H371	H	0.710267	0.292533	0.307837
	O372	O	0.874104	0.045193	1.087571
	H373	H	0.877922	0.020350	1.110311
	H374	H	0.888135	0.049790	1.081713
	O375	O	0.717932	0.518852	0.728707
	H376	H	0.720661	0.547837	0.735812
	H377	H	0.723778	0.519832	0.742903
	O378	O	0.481730	0.700108	0.560539
	H379	H	0.470547	0.709096	0.564972
	H380	H	0.471613	0.701969	0.561696
	O381	O	0.708474	0.480995	0.312129
	H382	H	0.712592	0.478637	0.315227
	H383	H	0.710375	0.487684	0.306829
	O384	O	0.478666	0.685511	0.334798
	H385	H	0.474113	0.677366	0.319436
	H386	H	0.481164	0.680657	0.335012
	O387	O	-0.021131	0.195252	1.102782
	H388	H	-0.028060	0.196661	1.101848
	H389	H	-0.016236	0.199691	1.129057
	O390	O	0.052995	0.155375	0.154312
	H391	H	0.062722	0.128314	0.166648
	H392	H	0.081855	0.170203	0.164537
	O393	O	0.798583	1.017661	0.812782
	H394	H	0.791899	1.004457	0.835644
	H395	H	0.776324	1.014527	0.806874
	O396	O	1.186459	-0.177505	-0.158596
	H397	H	1.186553	-0.133284	-0.173950
	H398	H	1.143336	-0.179304	-0.171710
	O399	O	1.076317	0.143648	0.975140
	H400	H	1.054217	0.143060	0.994103
	H401	H	1.055575	0.140045	0.948526
	O402	O	0.952171	1.024893	1.002270
	H403	H	0.934978	1.043133	1.012751
	H404	H	0.965768	1.024744	0.991989
	O405	O	0.814049	0.819071	0.200749
	H406	H	0.832187	0.817554	0.172092
	H407	H	0.812523	0.823682	0.183196
	O408	O	0.563731	-0.441804	0.298850
	H409	H	0.569789	-0.435871	0.307828
	H410	H	0.562257	-0.454385	0.293735
	O411	O	1.074397	1.032183	-0.166746
	H412	H	1.096226	1.033660	-0.155828
	H413	H	1.054656	1.062385	-0.170288
	O414	O	0.501057	0.513725	0.518715
	H415	H	0.502980	0.522520	0.520528
	H416	H	0.508351	0.518913	0.512530
	O417	O	0.321346	0.691245	0.328231
	H418	H	0.308575	0.659667	0.331346
	H419	H	0.357572	0.680351	0.318398
	O420	O	-0.146000	0.130060	0.121265
	H421	H	-0.150824	0.110145	0.106696
	H422	H	-0.121339	0.122942	0.123720
	O423	O	0.539051	0.691137	0.711535
	H424	H	0.548922	0.700265	0.723389
	H425	H	0.519280	0.680453	0.722199
	O426	O	0.655909	0.419034	0.565105
	H427	H	0.655400	0.438963	0.571126
	H428	H	0.666220	0.424885	0.575870
	O429	O	0.181545	1.043857	-0.056047
	H430	H	0.175577	1.053052	-0.034858
	H431	H	0.180056	1.055919	-0.044366
	O432	O	0.711732	0.704200	0.541138
	H433	H	0.712197	0.707789	0.537880
	H434	H	0.712939	0.722376	0.533235
	O435	O	0.502486	0.525778	0.729159
	H436	H	0.472105	0.508669	0.731056
	H437	H	0.494635	0.520061	0.721664
	O438	O	-0.108558	-0.186151	-0.070230
	H439	H	-0.101472	-0.168554	-0.084811
	H440	H	-0.075359	-0.187681	-0.042781
	O441	O	1.218983	-0.017307	-0.199613
	H442	H	1.237271	0.000838	-0.188208
	H443	H	1.239781	-0.003475	-0.206476
	O444	O	-0.170168	1.181136	0.830181
	H445	H	-0.167848	1.143041	0.820546
	H446	H	-0.187116	1.185970	0.861031
	O447	O	0.526410	0.302030	0.312887
	H448	H	0.546587	0.298141	0.317308
	H449	H	0.535801	0.288614	0.306861
	O450	O	0.650315	0.582687	0.416493
	H451	H	0.660941	0.579209	0.417559
	H452	H	0.647240	0.574482	0.420928
	O453	O	0.297583	0.305510	0.528527
	H454	H	0.280134	0.309269	0.513421
	H455	H	0.307899	0.291095	0.515326
