data_Molecule from HDF5

_cell_length_a		16.458584
_cell_length_b		16.314027
_cell_length_c		16.453431
_cell_angle_alpha	89.967450
_cell_angle_beta	89.941185
_cell_angle_gamma	89.831631
_symmetry_space_group_name_H-M	'P 1'
_symmetry_Int_Tables_number		1

loop_
	_symmetry_equiv_pos_as_xyz
	x,y,z

loop_
	_atom_site_label
	_atom_site_type_symbol
	_atom_site_fract_x
	_atom_site_fract_y
	_atom_site_fract_z
	H0	H	0.385324	0.835914	0.735598
	H1	H	0.595653	0.153635	0.739477
	H2	H	0.597997	0.835605	0.294030
	H3	H	0.382089	0.152762	0.292909
	H4	H	0.710091	0.386214	0.857227
	H5	H	0.711099	0.603020	0.171187
	H6	H	0.262843	0.603083	0.859147
	H7	H	0.262207	0.384765	0.171411
	H8	H	0.826686	0.716668	0.411741
	H9	H	0.145280	0.712352	0.617226
	H10	H	0.829840	0.269834	0.622066
	H11	H	0.145422	0.274373	0.409387
	H12	H	0.830142	0.383943	0.740176
	H13	H	0.143242	0.598682	0.735362
	H14	H	0.826485	0.600512	0.295038
	H15	H	0.142417	0.386708	0.289944
	H16	H	0.382472	0.715720	0.857631
	H17	H	0.589617	0.713179	0.174281
	H18	H	0.593927	0.270555	0.856839
	H19	H	0.380786	0.271120	0.172458
	H20	H	0.711407	0.836656	0.410503
	H21	H	0.708264	0.155360	0.621870
	H22	H	0.269623	0.835884	0.620979
	H23	H	0.266494	0.152997	0.408750
	H24	H	0.876889	0.335800	0.238449
	H25	H	0.089455	0.652230	0.234087
	H26	H	0.096059	0.335520	0.789269
	H27	H	0.876767	0.651698	0.790166
	H28	H	0.211188	0.889840	0.358901
	H29	H	0.212678	0.104780	0.672807
	H30	H	0.760548	0.107686	0.361465
	H31	H	0.762656	0.886949	0.672101
	H32	H	0.330131	0.218564	0.907166
	H33	H	0.644691	0.216661	0.120336
	H34	H	0.329818	0.776617	0.119605
	H35	H	0.645214	0.769832	0.908188
	H36	H	0.332367	0.887734	0.238525
	H37	H	0.645739	0.101747	0.237459
	H38	H	0.331524	0.104504	0.791142
	H39	H	0.645217	0.885427	0.791292
	H40	H	0.881571	0.217986	0.358151
	H41	H	0.095812	0.220027	0.672240
	H42	H	0.090749	0.776457	0.356572
	H43	H	0.878858	0.772427	0.672901
	H44	H	0.212719	0.336193	0.903910
	H45	H	0.205847	0.651309	0.119049
	H46	H	0.764137	0.335156	0.119523
	H47	H	0.762867	0.652515	0.905727
	H48	H	0.395626	0.111917	0.606500
	H49	H	0.574275	0.882602	0.603372
	H50	H	0.578319	0.108899	0.429682
	H51	H	0.400545	0.881665	0.431814
	H52	H	0.572913	0.405149	0.126355
	H53	H	0.572450	0.590402	0.900320
	H54	H	0.389222	0.585170	0.132126
	H55	H	0.399850	0.406005	0.902484
	H56	H	0.099196	0.583022	0.422611
	H57	H	0.872328	0.587173	0.601610
	H58	H	0.099646	0.405764	0.605438
	H59	H	0.875455	0.408203	0.429782
	H60	H	0.097024	0.406470	0.595889
	H61	H	0.872893	0.581378	0.602225
	H62	H	0.100188	0.587515	0.420716
	H63	H	0.873752	0.409216	0.423292
	H64	H	0.396631	0.577244	0.126104
	H65	H	0.583158	0.578314	0.900224
	H66	H	0.576639	0.406741	0.127198
	H67	H	0.397664	0.407524	0.902587
	H68	H	0.575934	0.110352	0.422416
	H69	H	0.575712	0.883518	0.601290
	H70	H	0.404986	0.108664	0.606387
	H71	H	0.398100	0.878788	0.425824
	H72	H	0.893809	0.608575	0.103432
	H73	H	0.075094	0.378514	0.102614
	H74	H	0.075310	0.606462	0.926902
	H75	H	0.898460	0.381901	0.930390
	H76	H	0.077784	0.900462	0.630968
	H77	H	0.082361	0.085563	0.400633
	H78	H	0.898871	0.082730	0.628338
	H79	H	0.898907	0.908911	0.403598
	H80	H	0.602022	0.082730	0.921435
	H81	H	0.371965	0.084505	0.108999
	H82	H	0.604668	0.900654	0.106179
	H83	H	0.374073	0.905351	0.923433
	H84	H	0.601504	0.904300	0.100012
	H85	H	0.376112	0.083152	0.098838
	H86	H	0.598887	0.085748	0.933857
	H87	H	0.375550	0.905222	0.928461
	H88	H	0.899994	0.079850	0.627233
	H89	H	0.079535	0.077637	0.404469
	H90	H	0.083010	0.905466	0.631558
	H91	H	0.899750	0.909402	0.403671
	H92	H	0.072533	0.607255	0.924610
	H93	H	0.073378	0.379094	0.103426
	H94	H	0.899148	0.607848	0.106367
	H95	H	0.899703	0.380716	0.926321
	H96	H	0.399311	0.108101	0.597933
	H97	H	0.577185	0.882786	0.603035
	H98	H	0.571030	0.106629	0.427191
	H99	H	0.404464	0.881841	0.426075
	H100	H	0.573777	0.409197	0.125036
	H101	H	0.568657	0.576611	0.906261
	H102	H	0.400589	0.588614	0.129860
	H103	H	0.399820	0.408694	0.903910
	H104	H	0.099013	0.586453	0.424983
	H105	H	0.870521	0.584448	0.606791
	H106	H	0.094999	0.414641	0.601785
	H107	H	0.872309	0.403158	0.425870
	H108	H	0.898611	0.606994	0.100250
	H109	H	0.073533	0.379010	0.101630
	H110	H	0.072250	0.604573	0.927168
	H111	H	0.902448	0.382851	0.929448
	H112	H	0.076555	0.907559	0.628038
	H113	H	0.073559	0.085125	0.403897
	H114	H	0.901789	0.083292	0.627380
	H115	H	0.899485	0.908264	0.403635
	H116	H	0.596583	0.073673	0.929383
	H117	H	0.376613	0.074750	0.106352
	H118	H	0.601840	0.908178	0.106977
	H119	H	0.375995	0.909129	0.926028
	C120	C	0.367442	0.004462	0.636676
	C121	C	0.608801	0.987526	0.636542
	C122	C	0.609823	0.003785	0.394054
	C123	C	0.368385	0.985943	0.395111
	C124	C	0.607981	0.372975	0.022620
	C125	C	0.607969	0.614967	1.006208
	C126	C	0.364004	0.616262	0.024689
	C127	C	0.365439	0.372911	1.006340
	C128	C	-0.006061	0.617598	0.392361
	C129	C	0.976779	0.615927	0.635825
	C130	C	-0.005364	0.373566	0.635692
	C131	C	0.977650	0.373388	0.393115
	C132	C	0.863667	0.503149	0.136088
	C133	C	0.106341	0.483858	0.135174
	C134	C	0.108006	0.501748	0.892229
	C135	C	0.865924	0.485883	0.893954
	C136	C	0.110117	0.873324	0.525039
	C137	C	0.110519	0.116643	0.507085
	C138	C	0.866294	0.116571	0.524596
	C139	C	0.865938	0.875301	0.507488
	C140	C	0.495796	0.115492	0.894211
	C141	C	0.479112	0.114966	0.136800
	C142	C	0.498041	0.872611	0.137252
	C143	C	0.479348	0.872786	0.893109
	C144	C	0.366376	0.884025	0.696012
	C145	C	0.612706	0.106459	0.698698
	C146	C	0.614663	0.883761	0.333974
	C147	C	0.364627	0.105045	0.333506
	C148	C	0.669436	0.368697	0.904341
	C149	C	0.669587	0.619199	0.124514
	C150	C	0.303538	0.620115	0.906286
	C151	C	0.303184	0.367615	0.124406
	C152	C	0.874418	0.677083	0.392532
	C153	C	0.096871	0.673927	0.636779
	C154	C	0.876915	0.310512	0.640099
	C155	C	0.097241	0.313418	0.390430
	C156	C	0.877179	0.367275	0.699020
	C157	C	0.096032	0.617185	0.695196
	C158	C	0.874317	0.619120	0.334294
	C159	C	0.095816	0.369534	0.331143
	C160	C	0.363117	0.676340	0.905624
	C161	C	0.609118	0.674265	0.126059
	C162	C	0.611769	0.310981	0.904386
	C163	C	0.362206	0.311074	0.125004
	C164	C	0.671542	0.884502	0.391861
	C165	C	0.669009	0.107245	0.640180
	C166	C	0.308625	0.884037	0.638988
	C167	C	0.307058	0.105384	0.391432
	C168	C	0.859457	0.383539	0.197750
	C169	C	0.108000	0.604131	0.194505
	C170	C	0.112776	0.383045	0.830137
	C171	C	0.860627	0.604503	0.831199
	C172	C	0.170511	0.871271	0.405908
	C173	C	0.172347	0.121997	0.625121
	C174	C	0.802789	0.123277	0.407510
	C175	C	0.803904	0.870396	0.625411
	C176	C	0.377476	0.177735	0.890065
	C177	C	0.597511	0.176636	0.139091
	C178	C	0.378151	0.814511	0.138822
	C179	C	0.597910	0.810660	0.890122
	C180	C	0.379299	0.870105	0.197808
	C181	C	0.598048	0.119211	0.197329
	C182	C	0.378212	0.120827	0.831976
	C183	C	0.597954	0.868489	0.831926
	C184	C	0.862909	0.178409	0.405989
	C185	C	0.113572	0.179075	0.625132
	C186	C	0.110807	0.814828	0.405057
	C187	C	0.861906	0.813195	0.625516
	C188	C	0.170995	0.383450	0.887557
	C189	C	0.165935	0.603655	0.137583
	C190	C	0.803412	0.383134	0.138561
	C191	C	0.803440	0.604549	0.888767
	C192	C	0.392625	0.087970	0.611129
	C193	C	0.582997	0.904708	0.610099
	C194	C	0.582837	0.087045	0.419166
	C195	C	0.393929	0.902310	0.420688
	C196	C	0.581801	0.399472	0.104814
	C197	C	0.582328	0.589110	0.923823
	C198	C	0.388312	0.590880	0.107755
	C199	C	0.391558	0.399787	0.924431
	C200	C	0.077544	0.592778	0.415901
	C201	C	0.893700	0.591605	0.610839
	C202	C	0.075905	0.401134	0.608769
	C203	C	0.895386	0.399253	0.418862
	C204	C	0.889709	0.585956	0.110383
	C205	C	0.081221	0.400635	0.109850
	C206	C	0.081178	0.584610	0.918749
	C207	C	0.892757	0.403178	0.920906
	C208	C	0.086120	0.897508	0.608298
	C209	C	0.085519	0.090495	0.424502
	C210	C	0.892565	0.089641	0.606367
	C211	C	0.891797	0.901589	0.425071
	C212	C	0.577842	0.088616	0.920642
	C213	C	0.396637	0.088712	0.111785
	C214	C	0.581107	0.897441	0.111711
	C215	C	0.396838	0.899002	0.918605
	Zn216	Zn	0.488128	-0.004511	0.764744
	Zn217	Zn	0.489332	-0.006519	0.265441
	Zn218	Zn	0.737041	0.493702	0.013675
	Zn219	Zn	0.235536	0.493236	0.014651
	Zn220	Zn	-0.013831	0.745919	0.515594
	Zn221	Zn	-0.012090	0.244239	0.514867
	Zn222	Zn	-0.014508	0.494311	0.764788
	Zn223	Zn	-0.015206	0.494115	0.263953
	Zn224	Zn	0.487098	0.744675	0.015864
	Zn225	Zn	0.486511	0.243957	0.014426
	Zn226	Zn	0.736969	-0.004027	0.515971
	Zn227	Zn	0.239178	-0.004983	0.516341
	N228	N	0.401838	0.960099	0.694935
	N229	N	0.576184	0.030868	0.696715
	N230	N	0.576991	0.959021	0.335152
	N231	N	0.402304	0.029802	0.335878
	N232	N	0.667270	0.406637	0.978890
	N233	N	0.669150	0.583107	0.048969
	N234	N	0.304107	0.583204	0.981206
	N235	N	0.304847	0.405180	0.049543
	N236	N	0.950178	0.676624	0.427388
	N237	N	0.021674	0.673453	0.600687
	N238	N	0.950782	0.314323	0.601420
	N239	N	0.022728	0.315518	0.428181
	N240	N	0.951290	0.405675	0.696282
	N241	N	0.020143	0.582308	0.695138
	N242	N	0.949870	0.583067	0.333786
	N243	N	0.020522	0.405967	0.332533
	N244	N	0.399995	0.674179	0.980354
	N245	N	0.571644	0.672097	0.051598
	N246	N	0.574193	0.313685	0.978900
	N247	N	0.400041	0.314197	0.050714
	N248	N	0.668780	0.960330	0.428409
	N249	N	0.666628	0.032357	0.602251
	N250	N	0.309058	0.960145	0.603031
	N251	N	0.309204	0.030190	0.429053
	N252	N	0.896212	0.459165	0.196504
	N253	N	0.071776	0.528447	0.193531
	N254	N	0.074431	0.457991	0.832846
	N255	N	0.898955	0.529664	0.834510
	N256	N	0.170649	0.906415	0.481775
	N257	N	0.170678	0.083995	0.550468
	N258	N	0.804603	0.085661	0.482177
	N259	N	0.806555	0.908556	0.551015
	N260	N	0.451561	0.174570	0.928090
	N261	N	0.522485	0.174446	0.102312
	N262	N	0.453082	0.815924	0.101899
	N263	N	0.523218	0.813447	0.927753
	N264	N	0.455021	0.905078	0.197246
	N265	N	0.523458	0.081790	0.196146
	N266	N	0.452837	0.082776	0.834417
	N267	N	0.523264	0.906447	0.833681
	N268	N	0.901853	0.174422	0.479714
	N269	N	0.075837	0.175805	0.550730
	N270	N	0.074142	0.815733	0.480032
	N271	N	0.900120	0.816324	0.551209
	N272	N	0.168275	0.458528	0.925272
	N273	N	0.165194	0.527728	0.101614
	N274	N	0.805640	0.458482	0.101374
	N275	N	0.806707	0.529868	0.927258
	O276	O	0.482647	0.418314	0.493482
	H277	H	0.490580	0.397871	0.511914
	H278	H	0.474146	0.427883	0.496971
	O279	O	1.177748	-0.200559	0.823868
	H280	H	1.169036	-0.166154	0.814746
	H281	H	1.204065	-0.202006	0.804846
	O282	O	-0.216142	1.145272	0.903080
	H283	H	-0.232714	1.149998	0.915470
	H284	H	-0.206697	1.135179	0.916210
	O285	O	-0.006477	1.103958	0.129878
	H286	H	-0.002145	1.107437	0.128947
	H287	H	-0.006181	1.098560	0.109366
	O288	O	1.454685	1.621573	-0.523299
	H289	H	1.463999	1.633619	-0.510244
	H290	H	1.451427	1.613055	-0.534252
	O291	O	0.558080	0.603635	0.492752
	H292	H	0.563802	0.618225	0.479837
	H293	H	0.560189	0.591961	0.477711
	O294	O	-0.033400	0.210355	0.800402
	H295	H	-0.062952	0.193844	0.802353
	H296	H	-0.036093	0.242381	0.771369
	O297	O	0.421226	0.606991	0.520938
	H298	H	0.396745	0.610759	0.511261
	H299	H	0.422501	0.595910	0.514358
	O300	O	0.944407	0.945915	0.803284
	H301	H	0.922537	0.948804	0.798306
	H302	H	0.953046	0.936286	0.803182
	O303	O	0.801333	0.811228	0.196811
	H304	H	0.789142	0.812609	0.154065
	H305	H	0.794285	0.853835	0.194172
	O306	O	0.504815	0.294165	0.304703
	H307	H	0.498210	0.301415	0.308222
	H308	H	0.497015	0.278552	0.283941
	O309	O	0.993475	0.047217	-0.134337
	H310	H	0.995872	0.034278	-0.137435
	H311	H	0.999431	0.055569	-0.128880
	O312	O	-0.173891	1.027975	1.057017
	H313	H	-0.171436	1.020086	1.068031
	H314	H	-0.161298	1.000408	1.069671
	O315	O	0.483292	0.648236	0.364618
	H316	H	0.480476	0.669405	0.350509
	H317	H	0.501418	0.645878	0.362639
	O318	O	1.012260	-0.226887	-0.203731
	H319	H	1.025504	-0.221808	-0.215123
	H320	H	1.032780	-0.245562	-0.229130
	O321	O	0.201419	-0.036908	-0.200872
	H322	H	0.204789	-0.012674	-0.198345
	H323	H	0.217514	-0.020390	-0.202839
	O324	O	0.620958	0.629905	0.410168
	H325	H	0.625026	0.635576	0.396731
	H326	H	0.629288	0.609547	0.409010
	O327	O	0.693869	0.506870	0.356363
	H328	H	0.703980	0.498953	0.319979
	H329	H	0.690172	0.480260	0.366489
	O330	O	0.225546	1.229834	0.235660
	H331	H	0.221607	1.212351	0.234032
	H332	H	0.187891	1.227603	0.235035
	O333	O	0.272995	0.477693	0.733992
	H334	H	0.252832	0.459051	0.755084
	H335	H	0.269467	0.438214	0.731268
	O336	O	-0.196998	0.006604	-0.006329
	H337	H	-0.192579	-0.011411	-0.005309
	H338	H	-0.196491	0.004850	0.004679
	O339	O	0.051244	1.038822	0.060006
	H340	H	0.061039	1.031322	0.039259
	H341	H	0.033253	1.030059	0.047693
	O342	O	-0.193349	0.974755	0.908661
	H343	H	-0.202673	0.966928	0.914285
	H344	H	-0.199526	0.964269	0.900055
	O345	O	0.682066	0.377565	-0.688094
	H346	H	0.666142	0.354790	-0.678434
	H347	H	0.691071	0.375336	-0.702170
	O348	O	0.517359	0.275924	0.548057
	H349	H	0.540533	0.287712	0.536306
	H350	H	0.526575	0.266986	0.545486
	O351	O	0.563301	1.302943	1.608274
	H352	H	0.561859	1.310552	1.627053
	H353	H	0.598607	1.307695	1.612088
	O354	O	0.345593	0.636295	-0.288955
	H355	H	0.354420	0.618540	-0.308701
	H356	H	0.343767	0.609469	-0.295579
	O357	O	0.009888	-0.159457	1.143660
	H358	H	0.005560	-0.191087	1.177216
	H359	H	-0.012111	-0.153283	1.127419
	O360	O	0.306307	0.320269	0.693605
	H361	H	0.295736	0.307502	0.645800
	H362	H	0.359642	0.310675	0.703150
	O363	O	-0.057607	0.163900	1.227071
	H364	H	-0.041683	0.180915	1.246072
	H365	H	-0.076826	0.171218	1.203362
	O366	O	0.672971	0.356216	0.469152
	H367	H	0.645385	0.361068	0.451361
	H368	H	0.678911	0.357383	0.507297
	O369	O	0.676516	0.498839	0.720070
	H370	H	0.685432	0.512515	0.743212
	H371	H	0.668980	0.540347	0.712695
	O372	O	1.058737	-0.027769	1.188621
	H373	H	1.047714	-0.023439	1.177417
	H374	H	1.048214	-0.042350	1.196751
	O375	O	0.275692	0.485412	0.494900
	H376	H	0.270749	0.490669	0.498114
	H377	H	0.280574	0.485721	0.511193
	O378	O	0.705402	0.371408	0.539731
	H379	H	0.705798	0.385683	0.550094
	H380	H	0.716326	0.364460	0.561280
	O381	O	0.610341	0.516738	0.488441
	H382	H	0.612789	0.519866	0.474558
	H383	H	0.594869	0.495923	0.481139
	O384	O	0.284489	0.302731	0.529626
	H385	H	0.271902	0.294084	0.520542
	H386	H	0.295098	0.291988	0.509047
	O387	O	0.167240	0.017419	1.019703
	H388	H	0.155892	0.000083	1.016448
	H389	H	0.166291	0.006482	1.001505
	O390	O	0.159718	-0.006822	0.209568
	H391	H	0.143550	-0.019538	0.215147
	H392	H	0.171450	-0.011588	0.195056
	O393	O	0.866278	1.200178	1.042897
	H394	H	0.864540	1.198784	1.031248
	H395	H	0.872287	1.189357	1.027787
	O396	O	1.015403	0.199631	-0.019391
	H397	H	1.011515	0.200396	-0.048470
	H398	H	1.031780	0.197911	-0.021674
	O399	O	1.198497	0.207408	1.034321
	H400	H	1.208895	0.217650	1.051016
	H401	H	1.195819	0.215820	1.037082
	O402	O	0.863144	0.885566	1.229003
	H403	H	0.847210	0.871261	1.252568
	H404	H	0.867081	0.901760	1.231367
	O405	O	1.278242	1.563203	0.308788
	H406	H	1.263563	1.556834	0.310299
	H407	H	1.288442	1.553961	0.316219
	O408	O	0.282242	-0.304875	0.363639
	H409	H	0.264213	-0.294095	0.355015
	H410	H	0.293048	-0.327591	0.367470
	O411	O	1.057537	0.872541	0.091867
	H412	H	1.052904	0.861762	0.117585
	H413	H	1.058824	0.871799	0.077875
	O414	O	0.410963	0.618828	0.300465
	H415	H	0.393434	0.619175	0.298442
	H416	H	0.411559	0.653842	0.282642
	O417	O	0.834462	0.027770	0.851376
	H418	H	0.833515	0.033277	0.874915
	H419	H	0.832161	0.003554	0.849063
	O420	O	0.176412	-0.166103	0.177324
	H421	H	0.165882	-0.153304	0.172527
	H422	H	0.178918	-0.149769	0.173268
	O423	O	0.483284	0.496865	0.711732
	H424	H	0.474140	0.506050	0.719339
	H425	H	0.479641	0.489643	0.692115
	O426	O	0.508030	0.691217	0.718045
	H427	H	0.498040	0.688254	0.737386
	H428	H	0.487949	0.685496	0.708454
	O429	O	-0.054299	0.772939	-0.017447
	H430	H	-0.035493	0.758188	-0.027733
	H431	H	-0.027775	0.783648	-0.020609
	O432	O	0.331407	0.704178	0.514014
	H433	H	0.333976	0.716089	0.487892
	H434	H	0.326381	0.700640	0.508827
	O435	O	0.668788	0.673833	0.693306
	H436	H	0.646133	0.684773	0.675073
	H437	H	0.646441	0.685373	0.670588
	O438	O	-0.224912	-0.212487	0.036330
	H439	H	-0.227303	-0.238333	0.022617
	H440	H	-0.209205	-0.216838	0.016755
	O441	O	1.587833	0.285122	-0.256260
	H442	H	1.593886	0.310812	-0.245438
	H443	H	1.605213	0.275533	-0.265720
	O444	O	-0.141481	1.016352	1.230385
	H445	H	-0.129380	1.029241	1.213026
	H446	H	-0.132838	1.031380	1.244792
	O447	O	1.197852	0.784657	-0.008539
	H448	H	1.214832	0.758961	-0.014545
	H449	H	1.196213	0.791729	-0.041669
	O450	O	1.154841	0.074330	-0.105198
	H451	H	1.128945	0.060514	-0.095168
	H452	H	1.153101	0.106169	-0.089641
	O453	O	0.427358	0.392380	0.358252
	H454	H	0.422591	0.385424	0.364893
	H455	H	0.440788	0.404094	0.348408
