data_Molecule from HDF5

_cell_length_a		16.534905
_cell_length_b		16.581148
_cell_length_c		16.571475
_cell_angle_alpha	90.049441
_cell_angle_beta	89.961058
_cell_angle_gamma	89.822156
_symmetry_space_group_name_H-M	'P 1'
_symmetry_Int_Tables_number		1

loop_
	_symmetry_equiv_pos_as_xyz
	x,y,z

loop_
	_atom_site_label
	_atom_site_type_symbol
	_atom_site_fract_x
	_atom_site_fract_y
	_atom_site_fract_z
	H0	H	0.395938	0.860199	0.718443
	H1	H	0.604758	0.173138	0.714445
	H2	H	0.607555	0.859729	0.273953
	H3	H	0.395005	0.170432	0.273305
	H4	H	0.721664	0.412131	0.839033
	H5	H	0.725279	0.623528	0.151277
	H6	H	0.283529	0.617325	0.837807
	H7	H	0.280637	0.411268	0.152529
	H8	H	0.845562	0.739382	0.390093
	H9	H	0.159483	0.734958	0.599096
	H10	H	0.844539	0.296920	0.599560
	H11	H	0.157716	0.293270	0.389708
	H12	H	0.843961	0.414922	0.714904
	H13	H	0.160022	0.617769	0.714598
	H14	H	0.847208	0.626328	0.270879
	H15	H	0.157844	0.409266	0.273671
	H16	H	0.398744	0.734681	0.838381
	H17	H	0.607135	0.738435	0.151665
	H18	H	0.607083	0.294277	0.840016
	H19	H	0.395802	0.293860	0.151602
	H20	H	0.725098	0.860306	0.390144
	H21	H	0.718956	0.174312	0.595633
	H22	H	0.280656	0.859329	0.602058
	H23	H	0.279495	0.171002	0.390282
	H24	H	0.893714	0.361872	0.221500
	H25	H	0.107656	0.672568	0.218452
	H26	H	0.103796	0.357436	0.778178
	H27	H	0.900029	0.673280	0.778584
	H28	H	0.224524	0.908916	0.339527
	H29	H	0.220039	0.115629	0.653264
	H30	H	0.782556	0.120305	0.339177
	H31	H	0.781922	0.912125	0.651966
	H32	H	0.345705	0.235940	0.891226
	H33	H	0.658481	0.235906	0.100288
	H34	H	0.343864	0.795183	0.101304
	H35	H	0.658583	0.793878	0.891141
	H36	H	0.346742	0.908552	0.220218
	H37	H	0.658403	0.119649	0.216663
	H38	H	0.345565	0.119810	0.774992
	H39	H	0.659895	0.912147	0.776952
	H40	H	0.897223	0.238720	0.340376
	H41	H	0.104726	0.234381	0.653274
	H42	H	0.108988	0.792245	0.339962
	H43	H	0.900769	0.797515	0.653707
	H44	H	0.221468	0.358039	0.894248
	H45	H	0.221977	0.673528	0.100090
	H46	H	0.778233	0.360886	0.104584
	H47	H	0.780068	0.671972	0.892731
	H48	H	0.418282	0.126064	0.586421
	H49	H	0.591864	0.903497	0.585278
	H50	H	0.592268	0.127362	0.407404
	H51	H	0.407423	0.902407	0.411700
	H52	H	0.589891	0.420551	0.110194
	H53	H	0.583670	0.603089	0.887548
	H54	H	0.414516	0.604380	0.107516
	H55	H	0.407165	0.423588	0.880744
	H56	H	0.111752	0.605053	0.413107
	H57	H	0.889746	0.606122	0.585253
	H58	H	0.116647	0.426455	0.595139
	H59	H	0.891737	0.431235	0.409921
	H60	H	0.117372	0.416364	0.585870
	H61	H	0.888659	0.605405	0.589662
	H62	H	0.111185	0.598472	0.408391
	H63	H	0.890570	0.429465	0.408326
	H64	H	0.411282	0.608788	0.109702
	H65	H	0.590893	0.609381	0.881986
	H66	H	0.594063	0.430060	0.108791
	H67	H	0.413482	0.431675	0.885072
	H68	H	0.594005	0.129450	0.404451
	H69	H	0.594981	0.902415	0.585223
	H70	H	0.410663	0.125294	0.579985
	H71	H	0.417307	0.901916	0.399390
	H72	H	0.917190	0.629057	0.092496
	H73	H	0.095538	0.402994	0.084938
	H74	H	0.089575	0.628218	0.903894
	H75	H	0.915585	0.402210	0.899567
	H76	H	0.084172	0.932080	0.602504
	H77	H	0.087487	0.109631	0.383568
	H78	H	0.914579	0.110579	0.608683
	H79	H	0.912672	0.928593	0.383262
	H80	H	0.616031	0.106966	0.905899
	H81	H	0.393066	0.096746	0.083080
	H82	H	0.614232	0.926170	0.086791
	H83	H	0.387400	0.919981	0.907037
	H84	H	0.613621	0.923238	0.082643
	H85	H	0.387276	0.105992	0.090096
	H86	H	0.614538	0.104598	0.906701
	H87	H	0.391978	0.930606	0.910463
	H88	H	0.907803	0.105368	0.609371
	H89	H	0.095891	0.105486	0.381613
	H90	H	0.089565	0.915454	0.610739
	H91	H	0.916929	0.927084	0.385306
	H92	H	0.095135	0.629096	0.908464
	H93	H	0.087173	0.405049	0.089082
	H94	H	0.922334	0.621407	0.077153
	H95	H	0.913669	0.405896	0.911611
	H96	H	0.409264	0.129470	0.588721
	H97	H	0.593304	0.902159	0.587827
	H98	H	0.589806	0.128249	0.404070
	H99	H	0.422137	0.908840	0.413115
	H100	H	0.584277	0.427888	0.105199
	H101	H	0.593674	0.599203	0.884974
	H102	H	0.408949	0.603692	0.109304
	H103	H	0.417785	0.421773	0.883920
	H104	H	0.114281	0.605200	0.405521
	H105	H	0.888283	0.609770	0.587896
	H106	H	0.112737	0.429063	0.582454
	H107	H	0.891211	0.429091	0.410673
	H108	H	0.905360	0.628365	0.078982
	H109	H	0.088336	0.407707	0.080137
	H110	H	0.095920	0.630755	0.901492
	H111	H	0.904144	0.400086	0.905003
	H112	H	0.102394	0.930076	0.609983
	H113	H	0.088942	0.100452	0.386025
	H114	H	0.915267	0.102034	0.606623
	H115	H	0.914039	0.924358	0.382898
	H116	H	0.615867	0.104690	0.904011
	H117	H	0.390847	0.108516	0.077879
	H118	H	0.612119	0.928087	0.082044
	H119	H	0.388180	0.928828	0.899591
	C120	C	0.380929	0.023868	0.617066
	C121	C	0.623358	1.007176	0.616162
	C122	C	0.624192	0.024874	0.373429
	C123	C	0.381641	1.006858	0.375002
	C124	C	0.622114	0.394568	0.004552
	C125	C	0.622373	0.636663	0.987941
	C126	C	0.380497	0.636901	0.004604
	C127	C	0.380908	0.394536	0.987350
	C128	C	0.009966	0.637204	0.375238
	C129	C	0.993404	0.637613	0.618126
	C130	C	0.010878	0.394050	0.618316
	C131	C	0.993987	0.396264	0.376073
	C132	C	0.881296	0.524047	0.116996
	C133	C	0.122944	0.508438	0.116993
	C134	C	0.124028	0.524611	0.874397
	C135	C	0.879856	0.506794	0.874661
	C136	C	0.124402	0.893354	0.504231
	C137	C	0.122676	0.136688	0.487418
	C138	C	0.880832	0.137833	0.504749
	C139	C	0.882252	0.895122	0.487499
	C140	C	0.511261	0.137266	0.874084
	C141	C	0.493577	0.136327	0.116462
	C142	C	0.509898	0.894000	0.116904
	C143	C	0.493374	0.894389	0.874110
	C144	C	0.378819	0.906607	0.677675
	C145	C	0.623263	0.126108	0.674408
	C146	C	0.626363	0.906648	0.313938
	C147	C	0.377571	0.123980	0.314011
	C148	C	0.681938	0.393093	0.886411
	C149	C	0.683949	0.640615	0.104894
	C150	C	0.322612	0.636917	0.885274
	C151	C	0.320672	0.392852	0.105314
	C152	C	0.892594	0.698937	0.372206
	C153	C	0.112291	0.695587	0.618417
	C154	C	0.891753	0.336321	0.618654
	C155	C	0.110947	0.334252	0.372159
	C156	C	0.891467	0.394860	0.675940
	C157	C	0.112496	0.637709	0.676094
	C158	C	0.893383	0.642581	0.312914
	C159	C	0.111101	0.391987	0.314428
	C160	C	0.379685	0.695280	0.885592
	C161	C	0.625335	0.697855	0.105027
	C162	C	0.624924	0.334742	0.886606
	C163	C	0.377883	0.334428	0.104796
	C164	C	0.684547	0.906989	0.371770
	C165	C	0.680166	0.126652	0.615526
	C166	C	0.321054	0.906273	0.619945
	C167	C	0.320049	0.123991	0.372038
	C168	C	0.876381	0.408127	0.180098
	C169	C	0.125427	0.625930	0.177657
	C170	C	0.123908	0.405207	0.816977
	C171	C	0.879991	0.625832	0.817356
	C172	C	0.184515	0.890735	0.386423
	C173	C	0.181012	0.136051	0.606016
	C174	C	0.821856	0.139491	0.386350
	C175	C	0.822443	0.893867	0.605448
	C176	C	0.392934	0.196450	0.872490
	C177	C	0.611407	0.196005	0.118773
	C178	C	0.391736	0.834503	0.119932
	C179	C	0.611539	0.834048	0.872497
	C180	C	0.392954	0.890994	0.179060
	C181	C	0.611348	0.138472	0.176752
	C182	C	0.392944	0.138676	0.814848
	C183	C	0.612219	0.892713	0.815633
	C184	C	0.878531	0.198221	0.387082
	C185	C	0.123687	0.194780	0.606172
	C186	C	0.127047	0.832818	0.386768
	C187	C	0.881279	0.836936	0.606244
	C188	C	0.182194	0.405339	0.874571
	C189	C	0.182368	0.626314	0.118677
	C190	C	0.818937	0.407664	0.121865
	C191	C	0.820686	0.625360	0.873989
	C192	C	0.405725	0.105776	0.591964
	C193	C	0.600131	0.924385	0.592767
	C194	C	0.599159	0.107191	0.397986
	C195	C	0.408058	0.925494	0.400656
	C196	C	0.596743	0.419118	0.086665
	C197	C	0.596828	0.611074	0.906176
	C198	C	0.404640	0.612697	0.087114
	C199	C	0.405761	0.418679	0.904724
	C200	C	0.091461	0.610427	0.401426
	C201	C	0.910526	0.613993	0.594261
	C202	C	0.093932	0.417263	0.594848
	C203	C	0.912238	0.422556	0.402316
	C204	C	0.907552	0.605123	0.090546
	C205	C	0.097711	0.426485	0.091880
	C206	C	0.100323	0.607596	0.897900
	C207	C	0.904253	0.424188	0.898656
	C208	C	0.099154	0.918734	0.586344
	C209	C	0.097747	0.112405	0.405172
	C210	C	0.905644	0.113021	0.586870
	C211	C	0.907229	0.919669	0.405270
	C212	C	0.594020	0.112496	0.898561
	C213	C	0.411724	0.110928	0.091001
	C214	C	0.591880	0.918871	0.091302
	C215	C	0.410739	0.919301	0.898599
	Zn216	Zn	0.502588	0.015503	0.745615
	Zn217	Zn	0.501918	0.015483	0.245392
	Zn218	Zn	0.751333	0.515218	-0.003303
	Zn219	Zn	0.252331	0.515766	-0.004046
	Zn220	Zn	0.002523	0.765405	0.496304
	Zn221	Zn	0.001828	0.266143	0.496065
	Zn222	Zn	0.002057	0.516070	0.746390
	Zn223	Zn	0.002053	0.516455	0.246280
	Zn224	Zn	0.500835	0.765825	-0.004630
	Zn225	Zn	0.501762	0.265284	-0.004174
	Zn226	Zn	0.752559	0.016058	0.495282
	Zn227	Zn	0.252080	0.014716	0.495623
	N228	N	0.415393	0.980844	0.676118
	N229	N	0.588906	0.050806	0.675175
	N230	N	0.589644	0.981068	0.314803
	N231	N	0.415289	0.050154	0.315754
	N232	N	0.680483	0.429590	0.960819
	N233	N	0.681991	0.603256	0.031040
	N234	N	0.322629	0.601544	0.960317
	N235	N	0.322414	0.429432	0.031076
	N236	N	0.966259	0.695561	0.410305
	N237	N	0.037208	0.695662	0.583255
	N238	N	0.967062	0.335545	0.583706
	N239	N	0.037238	0.336992	0.410080
	N240	N	0.966659	0.429822	0.675941
	N241	N	0.037436	0.602498	0.676368
	N242	N	0.967396	0.604798	0.314723
	N243	N	0.037186	0.429855	0.316681
	N244	N	0.414559	0.695635	0.960742
	N245	N	0.587739	0.695627	0.031278
	N246	N	0.588629	0.335301	0.961132
	N247	N	0.414496	0.335229	0.030411
	N248	N	0.683437	0.981462	0.407756
	N249	N	0.680700	0.051695	0.580212
	N250	N	0.322248	0.980136	0.582696
	N251	N	0.322264	0.050075	0.409147
	N252	N	0.914563	0.481482	0.177120
	N253	N	0.089214	0.551546	0.176667
	N254	N	0.088836	0.480401	0.816421
	N255	N	0.915667	0.550892	0.817262
	N256	N	0.183033	0.927524	0.460691
	N257	N	0.180607	0.100788	0.531075
	N258	N	0.822962	0.102713	0.460558
	N259	N	0.822642	0.929003	0.530445
	N260	N	0.467651	0.195785	0.908503
	N261	N	0.537144	0.194780	0.081947
	N262	N	0.465441	0.836198	0.081996
	N263	N	0.536393	0.834695	0.907878
	N264	N	0.467618	0.927118	0.177429
	N265	N	0.537083	0.102000	0.175508
	N266	N	0.467654	0.102562	0.815715
	N267	N	0.537632	0.929288	0.816278
	N268	N	0.914432	0.197348	0.461802
	N269	N	0.088684	0.195746	0.531160
	N270	N	0.090638	0.834000	0.461177
	N271	N	0.917441	0.837202	0.531680
	N272	N	0.182532	0.480688	0.909266
	N273	N	0.181167	0.552103	0.081804
	N274	N	0.821672	0.480891	0.083367
	N275	N	0.820324	0.550202	0.908650
	O276	O	-0.311363	1.332004	-0.317984
	H277	H	-0.332078	1.350645	-0.327661
	H278	H	-0.324681	1.341703	-0.347875
	O279	O	0.476942	0.516472	0.319360
	H280	H	0.470064	0.534752	0.302843
	H281	H	0.461065	0.520835	0.314859
	O282	O	0.787545	-0.202782	1.023798
	H283	H	0.775251	-0.198064	1.040344
	H284	H	0.770453	-0.209737	1.045324
	O285	O	0.527868	0.307247	0.287576
	H286	H	0.527990	0.292254	0.293892
	H287	H	0.539735	0.309567	0.281235
	O288	O	0.466805	0.729995	0.279544
	H289	H	0.466430	0.743873	0.279709
	H290	H	0.480090	0.748920	0.284651
	O291	O	0.339862	0.350307	0.302344
	H292	H	0.365756	0.349655	0.309681
	H293	H	0.341613	0.348483	0.293442
	O294	O	0.792104	0.222965	0.954363
	H295	H	0.788396	0.225813	0.955118
	H296	H	0.781624	0.221501	0.958290
	O297	O	0.395331	0.623143	0.543062
	H298	H	0.401391	0.612491	0.526822
	H299	H	0.379662	0.620760	0.532440
	O300	O	-0.784641	0.223919	0.033492
	H301	H	-0.782015	0.227414	0.034454
	H302	H	-0.775578	0.232500	0.040429
	O303	O	0.064933	0.231725	0.948584
	H304	H	0.065141	0.228758	0.945434
	H305	H	0.056719	0.237768	0.954279
	O306	O	0.345555	-0.489845	0.536776
	H307	H	0.345401	-0.484513	0.522674
	H308	H	0.343535	-0.498821	0.526767
	O309	O	0.682795	0.363787	0.281327
	H310	H	0.675543	0.370101	0.312037
	H311	H	0.673072	0.378920	0.278709
	O312	O	0.458320	0.558021	0.622466
	H313	H	0.459296	0.555338	0.624188
	H314	H	0.461412	0.542887	0.626892
	O315	O	0.343166	1.671157	0.474087
	H316	H	0.345640	1.671508	0.462387
	H317	H	0.333244	1.678017	0.479025
	O318	O	0.572138	0.708612	0.411634
	H319	H	0.579842	0.712316	0.428649
	H320	H	0.570484	0.701836	0.429741
	O321	O	0.459733	0.356438	0.435605
	H322	H	0.450127	0.359944	0.439980
	H323	H	0.457494	0.356498	0.432965
	O324	O	0.973627	1.032426	-0.068343
	H325	H	0.981350	1.025617	-0.067642
	H326	H	0.961146	1.043259	-0.074143
	O327	O	-0.192379	0.034820	1.016401
	H328	H	-0.198662	0.035033	1.014345
	H329	H	-0.194764	0.043151	1.017539
	O330	O	0.210781	0.222142	0.206030
	H331	H	0.213710	0.221444	0.210260
	H332	H	0.192896	0.210876	0.190770
	O333	O	-0.218149	0.039704	0.789378
	H334	H	-0.245197	0.047827	0.768168
	H335	H	-0.220474	0.075556	0.802784
	O336	O	1.225448	0.067788	0.921502
	H337	H	1.224889	0.047311	0.934740
	H338	H	1.232046	0.062098	0.942174
	O339	O	1.189719	0.024963	1.212859
	H340	H	1.187609	0.024902	1.228910
	H341	H	1.184808	0.026603	1.218074
	O342	O	-0.715398	0.480250	0.716184
	H343	H	-0.733535	0.474629	0.720612
	H344	H	-0.724663	0.463890	0.728821
	O345	O	-0.037698	1.234511	0.777092
	H346	H	-0.059496	1.230623	0.779288
	H347	H	-0.031623	1.250758	0.753820
	O348	O	0.719716	0.482833	0.540810
	H349	H	0.717002	0.505991	0.538008
	H350	H	0.720820	0.500156	0.547522
	O351	O	0.969358	0.797841	0.012796
	H352	H	0.962927	0.787593	0.018862
	H353	H	0.961657	0.794943	0.013042
	O354	O	-0.287103	-0.273080	0.703130
	H355	H	-0.297949	-0.305401	0.707025
	H356	H	-0.254067	-0.243051	0.737336
	O357	O	1.375497	1.724611	0.436397
	H358	H	1.378409	1.724705	0.448022
	H359	H	1.390295	1.713047	0.436784
	O360	O	0.782695	0.235953	0.251017
	H361	H	0.769310	0.252297	0.265531
	H362	H	0.795955	0.246536	0.260626
	O363	O	-0.041317	-0.002309	0.171537
	H364	H	-0.046811	-0.011166	0.169248
	H365	H	-0.034920	-0.004658	0.170111
	O366	O	0.425515	0.432497	0.497935
	H367	H	0.424646	0.414249	0.508208
	H368	H	0.418143	0.438007	0.494967
	O369	O	1.188943	-0.018934	-0.212035
	H370	H	1.185003	-0.011039	-0.198400
	H371	H	1.194283	-0.021524	-0.221663
	O372	O	1.035424	0.802566	-0.215029
	H373	H	1.028610	0.790649	-0.216077
	H374	H	1.044595	0.800201	-0.218690
	O375	O	1.112237	-0.094868	0.194290
	H376	H	1.106373	-0.096095	0.181613
	H377	H	1.094300	-0.091915	0.179056
	O378	O	0.152913	1.003659	1.020054
	H379	H	0.156303	0.995836	1.029882
	H380	H	0.158740	0.983189	1.019000
	O381	O	0.374596	0.427463	1.456746
	H382	H	0.378558	0.435778	1.448151
	H383	H	0.373398	0.417480	1.452687
	O384	O	1.024048	0.086396	1.014388
	H385	H	1.041734	0.075302	1.010996
	H386	H	1.028809	0.090829	1.005350
	O387	O	1.225676	0.793578	-0.040056
	H388	H	1.252348	0.767343	-0.052787
	H389	H	1.225152	0.791519	-0.079694
	O390	O	0.529070	0.736784	0.711669
	H391	H	0.545005	0.723264	0.718235
	H392	H	0.542678	0.754509	0.732977
	O393	O	0.292595	0.303010	0.706975
	H394	H	0.258183	0.270594	0.737419
	H395	H	0.286799	0.310985	0.670264
	O396	O	0.534065	1.624914	1.607758
	H397	H	0.514524	1.606042	1.619226
	H398	H	0.541601	1.634996	1.626770
	O399	O	0.209802	-0.189306	0.792059
	H400	H	0.213053	-0.179715	0.772157
	H401	H	0.210769	-0.197628	0.768962
	O402	O	0.519470	0.311932	0.620857
	H403	H	0.505060	0.312768	0.612481
	H404	H	0.511198	0.296065	0.634004
	O405	O	1.189790	0.202009	0.807798
	H406	H	1.168519	0.175314	0.816877
	H407	H	1.181165	0.185482	0.837489
	O408	O	-0.294410	-0.653762	-0.518278
	H409	H	-0.295886	-0.651993	-0.513172
	H410	H	-0.293132	-0.637875	-0.507978
	O411	O	0.280276	0.550173	0.341112
	H412	H	0.268503	0.570389	0.332161
	H413	H	0.274685	0.564769	0.338423
	O414	O	0.779592	-0.000107	0.972235
	H415	H	0.784012	-0.009691	0.979280
	H416	H	0.787950	0.003385	0.978871
	O417	O	0.898451	0.102128	0.202175
	H418	H	0.902565	0.111938	0.202966
	H419	H	0.906272	0.090807	0.186886
	O420	O	0.579287	0.540039	0.475459
	H421	H	0.577151	0.536733	0.481271
	H422	H	0.578934	0.561341	0.465765
	O423	O	-0.176352	-0.030245	1.186323
	H424	H	-0.172667	-0.020211	1.197148
	H425	H	-0.177038	-0.015591	1.185156
	O426	O	0.480531	0.303464	0.659774
	H427	H	0.469202	0.286859	0.661329
	H428	H	0.449887	0.308941	0.663915
	O429	O	0.037301	0.221106	1.192132
	H430	H	0.038556	0.209673	1.195989
	H431	H	0.035076	0.234183	1.182197
	O432	O	0.706647	0.466783	0.289292
	H433	H	0.692626	0.470138	0.284795
	H434	H	0.718534	0.465112	0.273012
	O435	O	0.446492	0.516305	0.276485
	H436	H	0.444417	0.530948	0.277121
	H437	H	0.450836	0.500767	0.272164
	O438	O	-0.202421	-0.191817	0.200044
	H439	H	-0.204426	-0.204700	0.216944
	H440	H	-0.212743	-0.155278	0.204147
	O441	O	0.314633	0.702854	0.682926
	H442	H	0.341208	0.678859	0.675577
	H443	H	0.324814	0.689960	0.656416
	O444	O	1.002529	-0.006892	-0.197583
	H445	H	0.992288	-0.001418	-0.199069
	H446	H	1.012048	-0.012048	-0.201193
	O447	O	-0.480799	1.512764	0.712676
	H448	H	-0.487989	1.498303	0.706868
	H449	H	-0.490213	1.491553	0.703532
	O450	O	-0.206542	1.225015	0.785391
	H451	H	-0.200756	1.231964	0.804924
	H452	H	-0.225710	1.251416	0.768821
	O453	O	0.714506	0.555118	0.425591
	H454	H	0.721135	0.572524	0.430986
	H455	H	0.720754	0.564943	0.408343
	O456	O	0.124845	-0.142261	1.033554
	H457	H	0.125080	-0.138839	1.051875
	H458	H	0.142487	-0.161760	1.022564
	O459	O	0.999004	0.820056	0.186286
	H460	H	0.999283	0.798575	0.186180
	H461	H	0.986864	0.819951	0.182511
	O462	O	0.283376	0.294901	0.533840
	H463	H	0.278085	0.307594	0.520437
	H464	H	0.265385	0.281376	0.538521
	O465	O	0.671926	-0.311713	-0.694357
	H466	H	0.674084	-0.330079	-0.692709
	H467	H	0.646379	-0.307315	-0.664612
	O468	O	0.716665	0.558646	0.713551
	H469	H	0.735013	0.548935	0.729396
	H470	H	0.703945	0.564214	0.721976
	O471	O	0.015051	0.095892	0.826895
	H472	H	-0.001585	0.095360	0.823459
	H473	H	0.008528	0.097480	0.820569
	O474	O	-0.184760	0.824501	0.807729
	H475	H	-0.154747	0.830817	0.827385
	H476	H	-0.179881	0.856296	0.824995
	O477	O	1.031524	0.004050	1.127650
	H478	H	1.024088	0.005085	1.123191
	H479	H	1.027916	-0.008094	1.129688
	O480	O	0.725564	0.739436	0.525441
	H481	H	0.733696	0.751390	0.555885
	H482	H	0.734772	0.755466	0.540447
	O483	O	0.918249	1.164832	1.023041
	H484	H	0.909713	1.167345	1.028777
	H485	H	0.903431	1.165392	1.037855
	O486	O	1.239975	-0.224982	1.230897
	H487	H	1.222544	-0.208421	1.217360
	H488	H	1.245937	-0.225265	1.252974
	O489	O	0.968734	0.888721	-0.120613
	H490	H	0.950936	0.902735	-0.126674
	H491	H	0.975776	0.897217	-0.126190
