data_Molecule from HDF5

_cell_length_a		16.483159
_cell_length_b		16.468135
_cell_length_c		16.449208
_cell_angle_alpha	89.945572
_cell_angle_beta	90.087703
_cell_angle_gamma	90.012265
_symmetry_space_group_name_H-M	'P 1'
_symmetry_Int_Tables_number		1

loop_
	_symmetry_equiv_pos_as_xyz
	x,y,z

loop_
	_atom_site_label
	_atom_site_type_symbol
	_atom_site_fract_x
	_atom_site_fract_y
	_atom_site_fract_z
	H0	H	0.413646	0.862677	0.710285
	H1	H	0.627459	0.175579	0.702423
	H2	H	0.629236	0.861301	0.258847
	H3	H	0.415894	0.176443	0.261208
	H4	H	0.746046	0.414846	0.827296
	H5	H	0.751645	0.632299	0.138941
	H6	H	0.298986	0.630910	0.827152
	H7	H	0.303135	0.416005	0.142404
	H8	H	0.866115	0.743731	0.372845
	H9	H	0.178982	0.745148	0.592179
	H10	H	0.866287	0.298928	0.588450
	H11	H	0.178999	0.294960	0.375580
	H12	H	0.867757	0.415027	0.705794
	H13	H	0.179772	0.630296	0.708567
	H14	H	0.868311	0.630609	0.255292
	H15	H	0.180096	0.413052	0.261738
	H16	H	0.415675	0.745978	0.827193
	H17	H	0.635355	0.748269	0.139150
	H18	H	0.628714	0.299098	0.826194
	H19	H	0.419503	0.299968	0.142323
	H20	H	0.745178	0.860144	0.375484
	H21	H	0.746913	0.172395	0.589188
	H22	H	0.298898	0.860780	0.592126
	H23	H	0.297478	0.174675	0.375581
	H24	H	0.918093	0.362523	0.203900
	H25	H	0.130495	0.677559	0.208274
	H26	H	0.129515	0.363519	0.762714
	H27	H	0.916374	0.677286	0.758371
	H28	H	0.245783	0.910939	0.326079
	H29	H	0.244797	0.124408	0.640604
	H30	H	0.799291	0.123783	0.326036
	H31	H	0.800421	0.910463	0.641079
	H32	H	0.364855	0.241220	0.878831
	H33	H	0.681942	0.239439	0.085956
	H34	H	0.368763	0.793708	0.094255
	H35	H	0.678485	0.795176	0.872706
	H36	H	0.366882	0.913275	0.206759
	H37	H	0.680211	0.126799	0.206143
	H38	H	0.364840	0.126656	0.760796
	H39	H	0.680431	0.915014	0.762019
	H40	H	0.914798	0.241025	0.325653
	H41	H	0.128921	0.241353	0.640199
	H42	H	0.128654	0.795600	0.325607
	H43	H	0.917095	0.796305	0.640892
	H44	H	0.245152	0.363487	0.879741
	H45	H	0.246128	0.678983	0.090602
	H46	H	0.800976	0.364055	0.089837
	H47	H	0.799548	0.677715	0.874092
	H48	H	0.430058	0.131814	0.570781
	H49	H	0.608611	0.905111	0.568953
	H50	H	0.607820	0.126202	0.400662
	H51	H	0.436182	0.908830	0.400554
	H52	H	0.612665	0.432103	0.097517
	H53	H	0.611175	0.599643	0.876219
	H54	H	0.431719	0.608174	0.096948
	H55	H	0.434248	0.429302	0.869713
	H56	H	0.135891	0.607689	0.391845
	H57	H	0.912031	0.606900	0.569123
	H58	H	0.137751	0.431356	0.572261
	H59	H	0.909915	0.429580	0.393744
	H60	H	0.137134	0.429332	0.571829
	H61	H	0.912722	0.605118	0.571557
	H62	H	0.133299	0.609650	0.401790
	H63	H	0.910899	0.430379	0.394483
	H64	H	0.439344	0.602547	0.092309
	H65	H	0.602341	0.611725	0.874296
	H66	H	0.611594	0.432153	0.096164
	H67	H	0.431111	0.431565	0.869917
	H68	H	0.617224	0.131946	0.397998
	H69	H	0.615817	0.902996	0.573001
	H70	H	0.436793	0.129366	0.573951
	H71	H	0.431268	0.905049	0.394434
	H72	H	0.943809	0.629772	0.069468
	H73	H	0.106652	0.412873	0.066190
	H74	H	0.107345	0.631997	0.895795
	H75	H	0.944609	0.412124	0.895341
	H76	H	0.113625	0.934272	0.595194
	H77	H	0.107435	0.111940	0.369767
	H78	H	0.932739	0.105739	0.595870
	H79	H	0.931519	0.929072	0.369845
	H80	H	0.634493	0.107119	0.894380
	H81	H	0.409938	0.107555	0.073476
	H82	H	0.634988	0.939167	0.075119
	H83	H	0.411367	0.936293	0.893108
	H84	H	0.637326	0.929945	0.069931
	H85	H	0.408237	0.112437	0.074313
	H86	H	0.637662	0.110964	0.889505
	H87	H	0.411067	0.929649	0.899877
	H88	H	0.936486	0.107657	0.595421
	H89	H	0.115307	0.105241	0.369579
	H90	H	0.105670	0.933508	0.592952
	H91	H	0.934803	0.933909	0.371691
	H92	H	0.113583	0.632951	0.899736
	H93	H	0.125173	0.405550	0.069756
	H94	H	0.935744	0.631387	0.064265
	H95	H	0.929584	0.409648	0.903263
	H96	H	0.435606	0.128132	0.566728
	H97	H	0.608680	0.903375	0.577390
	H98	H	0.609140	0.130384	0.389958
	H99	H	0.439335	0.907475	0.392703
	H100	H	0.611438	0.430917	0.096884
	H101	H	0.616494	0.611542	0.868620
	H102	H	0.440786	0.612659	0.095601
	H103	H	0.434177	0.432642	0.871377
	H104	H	0.131420	0.600753	0.397893
	H105	H	0.910850	0.608161	0.571723
	H106	H	0.136172	0.430603	0.570651
	H107	H	0.909530	0.431372	0.393166
	H108	H	0.936486	0.634356	0.073643
	H109	H	0.110904	0.405195	0.084531
	H110	H	0.113587	0.635223	0.892794
	H111	H	0.931955	0.404790	0.887227
	H112	H	0.109277	0.926738	0.596467
	H113	H	0.106203	0.101634	0.373769
	H114	H	0.933032	0.109729	0.597205
	H115	H	0.937406	0.928538	0.370676
	H116	H	0.636429	0.113639	0.895506
	H117	H	0.410897	0.111528	0.070081
	H118	H	0.631433	0.937364	0.064713
	H119	H	0.415108	0.938004	0.901789
	C120	C	0.400663	0.026383	0.604789
	C121	C	0.643634	1.008161	0.604457
	C122	C	0.644249	0.026003	0.361892
	C123	C	0.401240	1.010482	0.361991
	C124	C	0.644157	0.399631	-0.007606
	C125	C	0.645406	0.642710	0.975654
	C126	C	0.402678	0.642495	-0.008011
	C127	C	0.402009	0.399460	0.975523
	C128	C	0.030720	0.640270	0.362010
	C129	C	1.014959	0.641163	0.605005
	C130	C	0.032936	0.398564	0.604097
	C131	C	1.013947	0.397548	0.361284
	C132	C	0.904069	0.528655	0.103284
	C133	C	0.146765	0.511865	0.106515
	C134	C	0.144559	0.529459	0.863437
	C135	C	0.902014	0.512485	0.861265
	C136	C	0.143789	0.897012	0.491797
	C137	C	0.143159	0.139380	0.474812
	C138	C	0.900841	0.139982	0.491959
	C139	C	0.901424	0.896635	0.474788
	C140	C	0.531455	0.142831	0.860857
	C141	C	0.514044	0.142256	0.105135
	C142	C	0.531873	0.900115	0.104305
	C143	C	0.515171	0.900226	0.863347
	C144	C	0.396135	0.909283	0.668535
	C145	C	0.646033	0.127606	0.663217
	C146	C	0.647239	0.908204	0.299630
	C147	C	0.397350	0.128615	0.300904
	C148	C	0.705012	0.397025	0.874057
	C149	C	0.709683	0.648715	0.092361
	C150	C	0.339887	0.647738	0.874401
	C151	C	0.342877	0.397682	0.094685
	C152	C	0.913540	0.702987	0.356089
	C153	C	0.132351	0.704176	0.609555
	C154	C	0.913894	0.338936	0.606731
	C155	C	0.131814	0.335750	0.358089
	C156	C	0.914608	0.396767	0.664803
	C157	C	0.132569	0.646834	0.667540
	C158	C	0.914312	0.646304	0.297488
	C159	C	0.132638	0.394796	0.301492
	C160	C	0.397795	0.705630	0.874478
	C161	C	0.652030	0.706722	0.092390
	C162	C	0.646733	0.339461	0.873544
	C163	C	0.400652	0.339708	0.094742
	C164	C	0.705049	0.907681	0.357582
	C165	C	0.705438	0.126094	0.607066
	C166	C	0.339265	0.908292	0.609480
	C167	C	0.338688	0.127886	0.358039
	C168	C	0.900195	0.410339	0.164225
	C169	C	0.148968	0.630596	0.167621
	C170	C	0.147784	0.410804	0.802892
	C171	C	0.898758	0.630432	0.799499
	C172	C	0.205360	0.893145	0.373281
	C173	C	0.204303	0.142456	0.593431
	C174	C	0.839857	0.142138	0.373219
	C175	C	0.840596	0.893031	0.593461
	C176	C	0.412471	0.202145	0.859673
	C177	C	0.634108	0.200761	0.106036
	C178	C	0.415167	0.835900	0.110366
	C179	C	0.632096	0.837100	0.857313
	C180	C	0.414089	0.895407	0.166354
	C181	C	0.632939	0.144791	0.165701
	C182	C	0.412664	0.145050	0.800824
	C183	C	0.632877	0.896666	0.801741
	C184	C	0.897260	0.200772	0.373109
	C185	C	0.146805	0.200739	0.593184
	C186	C	0.147297	0.835524	0.373151
	C187	C	0.898478	0.835904	0.593348
	C188	C	0.205045	0.410792	0.861186
	C189	C	0.206413	0.631248	0.109182
	C190	C	0.842052	0.410948	0.107103
	C191	C	0.840088	0.630314	0.856769
	C192	C	0.426787	0.108297	0.578180
	C193	C	0.618361	0.925357	0.579991
	C194	C	0.618654	0.108063	0.388495
	C195	C	0.427972	0.928401	0.388235
	C196	C	0.618898	0.424720	0.075308
	C197	C	0.617776	0.615499	0.894333
	C198	C	0.429627	0.615472	0.073664
	C199	C	0.426213	0.424127	0.892137
	C200	C	0.112343	0.613523	0.389348
	C201	C	0.933322	0.614420	0.578591
	C202	C	0.115470	0.423224	0.578734
	C203	C	0.931607	0.423201	0.386599
	C204	C	0.930976	0.610577	0.076784
	C205	C	0.121509	0.429541	0.080943
	C206	C	0.118855	0.611817	0.888670
	C207	C	0.928068	0.430258	0.887673
	C208	C	0.117226	0.923583	0.573467
	C209	C	0.117246	0.113617	0.392606
	C210	C	0.926723	0.115008	0.574540
	C211	C	0.927015	0.922925	0.392340
	C212	C	0.614474	0.117809	0.885791
	C213	C	0.431633	0.117775	0.080033
	C214	C	0.613181	0.927331	0.077301
	C215	C	0.433649	0.927084	0.890649
	Zn216	Zn	0.522445	0.019224	0.733307
	Zn217	Zn	0.523268	0.019975	0.233302
	Zn218	Zn	0.773604	0.521261	-0.016447
	Zn219	Zn	0.273813	0.521446	-0.016061
	Zn220	Zn	0.022258	0.768865	0.482823
	Zn221	Zn	0.022724	0.268710	0.483121
	Zn222	Zn	0.024577	0.520393	0.733344
	Zn223	Zn	0.023504	0.520167	0.233127
	Zn224	Zn	0.524223	0.771217	-0.016505
	Zn225	Zn	0.523292	0.270397	-0.016486
	Zn226	Zn	0.773090	0.016631	0.483140
	Zn227	Zn	0.272298	0.017949	0.483268
	N228	N	0.433318	0.983853	0.665981
	N229	N	0.608349	0.053329	0.661740
	N230	N	0.610237	0.983028	0.302056
	N231	N	0.435423	0.054435	0.303080
	N232	N	0.703447	0.433899	0.948906
	N233	N	0.705652	0.609664	0.018696
	N234	N	0.342676	0.609476	0.948589
	N235	N	0.343573	0.434090	0.019522
	N236	N	0.986809	0.699067	0.395913
	N237	N	0.058339	0.700755	0.571212
	N238	N	0.988421	0.339878	0.569735
	N239	N	0.057005	0.337377	0.394586
	N240	N	0.989782	0.433070	0.663468
	N241	N	0.058593	0.608389	0.664796
	N242	N	0.988072	0.607744	0.301377
	N243	N	0.058298	0.432404	0.303208
	N244	N	0.436009	0.702677	0.948759
	N245	N	0.612777	0.703088	0.018899
	N246	N	0.609494	0.341174	0.948127
	N247	N	0.436549	0.340431	0.019440
	N248	N	0.703283	0.981893	0.395542
	N249	N	0.704054	0.050842	0.571146
	N250	N	0.341798	0.982200	0.570749
	N251	N	0.340885	0.053163	0.395118
	N252	N	0.938118	0.484648	0.161992
	N253	N	0.112854	0.555397	0.166338
	N254	N	0.111001	0.485745	0.803989
	N255	N	0.936528	0.556094	0.802123
	N256	N	0.203406	0.930335	0.448032
	N257	N	0.202170	0.104982	0.518858
	N258	N	0.841814	0.105053	0.448088
	N259	N	0.842106	0.929788	0.518411
	N260	N	0.487566	0.201130	0.895918
	N261	N	0.559227	0.199762	0.069438
	N262	N	0.489582	0.838463	0.072730
	N263	N	0.557889	0.839199	0.895149
	N264	N	0.487692	0.934434	0.162717
	N265	N	0.557416	0.109449	0.165719
	N266	N	0.487883	0.109096	0.801267
	N267	N	0.559020	0.935278	0.805504
	N268	N	0.934257	0.199816	0.448095
	N269	N	0.109899	0.199299	0.518297
	N270	N	0.109975	0.837621	0.447782
	N271	N	0.935381	0.837983	0.518576
	N272	N	0.203191	0.485543	0.897944
	N273	N	0.205313	0.556455	0.072308
	N274	N	0.844169	0.485728	0.070101
	N275	N	0.842158	0.555799	0.894590
	O276	O	0.735424	0.732692	0.507818
	H277	H	0.723408	0.731199	0.490083
	H278	H	0.758325	0.751752	0.510745
	O279	O	0.543212	0.727049	0.686800
	H280	H	0.519075	0.706523	0.681211
	H281	H	0.531450	0.740280	0.702615
	O282	O	1.408389	1.487177	0.449256
	H283	H	1.412783	1.493252	0.453195
	H284	H	1.412465	1.504017	0.439502
	O285	O	0.869332	-1.150516	0.151412
	H286	H	0.891889	-1.164427	0.151402
	H287	H	0.884447	-1.155814	0.123051
	O288	O	0.013724	0.020346	0.186357
	H289	H	-0.009543	0.018278	0.193203
	H290	H	0.007750	0.015245	0.173708
	O291	O	0.817424	0.814307	0.020049
	H292	H	0.807868	0.842664	0.004326
	H293	H	0.784902	0.801308	0.021822
	O294	O	-0.189703	1.000989	0.188290
	H295	H	-0.169854	0.964054	0.172991
	H296	H	-0.218463	0.993892	0.213553
	O297	O	0.502662	0.506595	0.387661
	H298	H	0.521803	0.504761	0.378269
	H299	H	0.498790	0.506146	0.392994
	O300	O	-0.030922	-0.194197	0.910278
	H301	H	-0.037278	-0.187680	0.938170
	H302	H	-0.046786	-0.182872	0.931373
	O303	O	-0.009265	0.166032	0.995782
	H304	H	-0.013016	0.178411	0.972259
	H305	H	-0.002117	0.156217	1.008093
	O306	O	-0.173761	1.220920	0.783277
	H307	H	-0.189043	1.190464	0.776542
	H308	H	-0.201736	1.229090	0.758708
	O309	O	0.079939	-0.192064	0.034659
	H310	H	0.105811	-0.185332	0.017696
	H311	H	0.086981	-0.177881	0.025733
	O312	O	-0.258707	0.459301	0.547069
	H313	H	-0.260057	0.484405	0.549889
	H314	H	-0.246606	0.462874	0.541534
	O315	O	0.229423	0.224397	1.019790
	H316	H	0.216447	0.210960	1.060090
	H317	H	0.246746	0.252971	1.030904
	O318	O	0.326585	1.332124	-0.325774
	H319	H	0.339240	1.332134	-0.351185
	H320	H	0.328993	1.311555	-0.326544
	O321	O	0.429532	0.650166	0.549406
	H322	H	0.418445	0.648794	0.551958
	H323	H	0.438077	0.668535	0.541261
	O324	O	0.476063	0.731289	0.273093
	H325	H	0.507994	0.712333	0.275079
	H326	H	0.479292	0.749175	0.238321
	O327	O	0.238740	0.805085	1.961867
	H328	H	0.269951	0.786368	1.953540
	H329	H	0.248243	0.826077	1.966062
	O330	O	0.388741	-0.538637	-0.599865
	H331	H	0.387818	-0.532413	-0.596021
	H332	H	0.390048	-0.530112	-0.591962
	O333	O	1.068828	0.844025	0.794474
	H334	H	1.046054	0.841709	0.834517
	H335	H	1.065205	0.812704	0.768504
	O336	O	1.531327	-0.506631	1.425000
	H337	H	1.542268	-0.496734	1.414111
	H338	H	1.538424	-0.488869	1.442805
	O339	O	1.312787	0.312455	1.509492
	H340	H	1.291591	0.308818	1.506326
	H341	H	1.305263	0.336547	1.501642
	O342	O	0.489950	0.302019	0.702805
	H343	H	0.482570	0.300295	0.713235
	H344	H	0.500422	0.277668	0.709263
	O345	O	0.557422	0.451208	0.692311
	H346	H	0.557910	0.454766	0.688428
	H347	H	0.554384	0.442886	0.694244
	O348	O	1.304440	0.544629	1.262990
	H349	H	1.293154	0.573488	1.255613
	H350	H	1.289422	0.554845	1.254276
	O351	O	0.744608	0.467022	-0.736673
	H352	H	0.721883	0.425614	-0.724839
	H353	H	0.775808	0.465974	-0.767483
	O354	O	-0.153967	1.026786	0.781673
	H355	H	-0.160631	1.013041	0.768486
	H356	H	-0.143905	1.008225	0.775436
	O357	O	1.238713	1.043674	1.195767
	H358	H	1.264042	1.036397	1.219478
	H359	H	1.220248	1.024749	1.192363
	O360	O	0.324477	0.738220	0.469757
	H361	H	0.325767	0.704702	0.468886
	H362	H	0.282697	0.769705	0.462623
	O363	O	0.302205	0.498889	0.702685
	H364	H	0.301788	0.467333	0.696205
	H365	H	0.280732	0.488024	0.727292
	O366	O	0.738998	0.303032	0.458082
	H367	H	0.750812	0.307826	0.451805
	H368	H	0.747818	0.290380	0.459995
	O369	O	0.074440	0.199002	0.958085
	H370	H	0.083444	0.203421	0.977822
	H371	H	0.058601	0.207210	0.961459
	O372	O	0.675483	0.341017	0.298699
	H373	H	0.643162	0.334035	0.298027
	H374	H	0.662376	0.333349	0.316973
	O375	O	0.117888	1.080509	0.975382
	H376	H	0.113682	1.093121	0.982895
	H377	H	0.113748	1.072705	0.966539
	O378	O	0.475708	0.533785	0.309961
	H379	H	0.452076	0.540374	0.305593
	H380	H	0.485874	0.524612	0.320641
	O381	O	1.017250	-0.167419	0.185419
	H382	H	1.035813	-0.159179	0.161308
	H383	H	1.018014	-0.186434	0.188152
	O384	O	0.238207	-0.050667	1.053508
	H385	H	0.233002	-0.039952	1.065097
	H386	H	0.236389	-0.031308	1.023399
	O387	O	0.209093	1.011578	0.775379
	H388	H	0.215590	0.989689	0.767423
	H389	H	0.211504	1.000581	0.772337
	O390	O	-0.084654	-0.063497	0.783731
	H391	H	-0.072925	-0.085680	0.790382
	H392	H	-0.060199	-0.058602	0.786114
	O393	O	1.049566	1.230975	0.196887
	H394	H	1.055614	1.246733	0.215425
	H395	H	1.032591	1.226443	0.200820
	O396	O	0.022020	0.117723	1.045088
	H397	H	0.019608	0.114027	1.038186
	H398	H	0.013989	0.132653	1.040157
	O399	O	-0.000154	1.230509	-0.227368
	H400	H	-0.022242	1.241729	-0.225245
	H401	H	-0.027650	1.242773	-0.236696
	O402	O	-0.525420	-0.710971	0.432893
	H403	H	-0.547749	-0.704077	0.437607
	H404	H	-0.527675	-0.704689	0.441605
	O405	O	-0.174064	0.199501	-0.030382
	H406	H	-0.167576	0.210365	-0.033370
	H407	H	-0.168536	0.207116	-0.053459
	O408	O	0.315156	0.558759	0.534599
	H409	H	0.321905	0.550992	0.551238
	H410	H	0.313360	0.545030	0.551222
	O411	O	0.484733	0.568354	0.688172
	H412	H	0.480737	0.552961	0.683341
	H413	H	0.472919	0.557792	0.692056
	O414	O	0.748996	0.584362	0.417239
	H415	H	0.753879	0.581126	0.396909
	H416	H	0.745092	0.595069	0.410871
	O417	O	0.562639	0.521050	0.538358
	H418	H	0.551965	0.533836	0.535943
	H419	H	0.575782	0.512116	0.533595
	O420	O	0.735047	0.539796	0.694779
	H421	H	0.746848	0.540089	0.722362
	H422	H	0.729756	0.570990	0.689021
	O423	O	-0.456163	0.335697	0.270880
	H424	H	-0.479374	0.347855	0.293599
	H425	H	-0.459594	0.308920	0.246781
	O426	O	1.336535	0.704394	1.325934
	H427	H	1.382656	0.715703	1.307872
	H428	H	1.326214	0.703513	1.352968
	O429	O	-0.110562	0.031081	1.000163
	H430	H	-0.121948	0.033254	1.021170
	H431	H	-0.104599	0.064126	0.992976
	O432	O	1.215546	0.217193	1.172797
	H433	H	1.222736	0.194303	1.186587
	H434	H	1.189016	0.205498	1.177382
	O435	O	-0.181018	-0.027481	-0.105682
	H436	H	-0.185661	-0.016408	-0.126921
	H437	H	-0.168924	-0.006215	-0.088265
	O438	O	1.064679	0.061966	-0.195346
	H439	H	1.074673	0.082705	-0.205174
	H440	H	1.076628	0.078397	-0.198163
	O441	O	-0.082130	0.101727	1.129094
	H442	H	-0.070718	0.085568	1.119825
	H443	H	-0.105444	0.101297	1.131852
	O444	O	0.550993	0.736902	0.442123
	H445	H	0.549257	0.745275	0.449362
	H446	H	0.531480	0.733389	0.427842
	O447	O	0.562115	0.567246	0.262366
	H448	H	0.546313	0.540772	0.262135
	H449	H	0.585249	0.556825	0.262711
	O450	O	0.282533	0.770125	0.734209
	H451	H	0.236466	0.761649	0.729775
	H452	H	0.296003	0.772618	0.758801
	O453	O	0.717195	0.323791	0.676757
	H454	H	0.707548	0.344475	0.660373
	H455	H	0.696949	0.342193	0.657113
	O456	O	0.537363	-0.676845	-0.494467
	H457	H	0.547288	-0.677570	-0.482133
	H458	H	0.520064	-0.661386	-0.516361
	O459	O	0.705985	0.702390	0.670300
	H460	H	0.668639	0.698968	0.680063
	H461	H	0.703700	0.714595	0.628531
	O462	O	0.239781	1.055875	-0.085367
	H463	H	0.237588	1.069663	-0.103029
	H464	H	0.239413	1.082614	-0.091562
	O465	O	1.035503	0.012123	-0.065681
	H466	H	1.020000	0.017896	-0.073833
	H467	H	1.027465	0.024977	-0.078163
