data_Molecule from HDF5

_cell_length_a		16.046538
_cell_length_b		16.104880
_cell_length_c		16.412212
_cell_angle_alpha	90.603163
_cell_angle_beta	90.471880
_cell_angle_gamma	90.798578
_symmetry_space_group_name_H-M	'P 1'
_symmetry_Int_Tables_number		1

loop_
	_symmetry_equiv_pos_as_xyz
	x,y,z

loop_
	_atom_site_label
	_atom_site_type_symbol
	_atom_site_fract_x
	_atom_site_fract_y
	_atom_site_fract_z
	H0	H	0.400318	0.836173	0.708558
	H1	H	0.611211	0.163503	0.713641
	H2	H	0.605564	0.837426	0.276777
	H3	H	0.404881	0.165480	0.279957
	H4	H	0.717542	0.400928	0.833330
	H5	H	0.722277	0.603084	0.158214
	H6	H	0.288083	0.593540	0.833464
	H7	H	0.291208	0.402196	0.159649
	H8	H	0.836638	0.704295	0.404442
	H9	H	0.169745	0.718277	0.598402
	H10	H	0.838559	0.288580	0.589999
	H11	H	0.171614	0.290118	0.401505
	H12	H	0.840297	0.396813	0.710911
	H13	H	0.169545	0.606158	0.716780
	H14	H	0.841145	0.600292	0.281649
	H15	H	0.170242	0.401964	0.282930
	H16	H	0.406138	0.709204	0.830526
	H17	H	0.608371	0.722429	0.155795
	H18	H	0.599310	0.285044	0.833009
	H19	H	0.404595	0.284011	0.158113
	H20	H	0.709331	0.833229	0.400046
	H21	H	0.718575	0.165876	0.593167
	H22	H	0.289962	0.835044	0.587292
	H23	H	0.294494	0.167111	0.399794
	H24	H	0.901667	0.336830	0.210900
	H25	H	0.109856	0.665973	0.215175
	H26	H	0.106850	0.337668	0.778938
	H27	H	0.904694	0.663653	0.781152
	H28	H	0.213262	0.902703	0.331909
	H29	H	0.224092	0.104127	0.657428
	H30	H	0.790478	0.093361	0.332999
	H31	H	0.788432	0.901801	0.659234
	H32	H	0.337114	0.206466	0.899798
	H33	H	0.670874	0.216303	0.093501
	H34	H	0.337767	0.787975	0.086251
	H35	H	0.671503	0.791119	0.897763
	H36	H	0.340619	0.895342	0.209350
	H37	H	0.670021	0.106753	0.213172
	H38	H	0.340327	0.099218	0.778377
	H39	H	0.669784	0.901681	0.779724
	H40	H	0.903479	0.213408	0.334773
	H41	H	0.107104	0.218381	0.659477
	H42	H	0.099839	0.782721	0.334901
	H43	H	0.904538	0.786353	0.660130
	H44	H	0.209187	0.332898	0.902629
	H45	H	0.220461	0.665889	0.096170
	H46	H	0.791872	0.334831	0.089704
	H47	H	0.796940	0.667152	0.902057
	H48	H	0.415823	0.119127	0.588846
	H49	H	0.586921	0.884363	0.584099
	H50	H	0.598218	0.120306	0.401362
	H51	H	0.421757	0.885487	0.396552
	H52	H	0.602388	0.412328	0.112446
	H53	H	0.614894	0.596048	0.874224
	H54	H	0.408058	0.593212	0.112544
	H55	H	0.416179	0.403330	0.881966
	H56	H	0.123144	0.590803	0.408737
	H57	H	0.892336	0.584682	0.573927
	H58	H	0.124054	0.406545	0.585660
	H59	H	0.884903	0.404800	0.399711
	H60	H	0.121355	0.419956	0.590546
	H61	H	0.884924	0.577331	0.608019
	H62	H	0.125229	0.593486	0.402194
	H63	H	0.886468	0.405563	0.403934
	H64	H	0.419851	0.591378	0.108047
	H65	H	0.595295	0.580993	0.882993
	H66	H	0.592960	0.411323	0.110781
	H67	H	0.402565	0.394263	0.876198
	H68	H	0.597939	0.118818	0.404006
	H69	H	0.602579	0.879515	0.584483
	H70	H	0.416413	0.118717	0.589861
	H71	H	0.405233	0.883866	0.410289
	H72	H	0.912882	0.618153	0.081968
	H73	H	0.099630	0.381784	0.090166
	H74	H	0.103032	0.620750	0.907558
	H75	H	0.919022	0.385765	0.906233
	H76	H	0.090505	0.916283	0.608070
	H77	H	0.097490	0.100926	0.378695
	H78	H	0.911483	0.097767	0.613864
	H79	H	0.904250	0.906649	0.381079
	H80	H	0.624754	0.099361	0.906974
	H81	H	0.392251	0.078434	0.082051
	H82	H	0.624578	0.915802	0.092847
	H83	H	0.391816	0.911893	0.915137
	H84	H	0.624617	0.907807	0.087325
	H85	H	0.382338	0.088432	0.102546
	H86	H	0.621115	0.088101	0.905602
	H87	H	0.384871	0.917840	0.884024
	H88	H	0.909392	0.094166	0.613523
	H89	H	0.100979	0.090971	0.379798
	H90	H	0.095007	0.902499	0.614211
	H91	H	0.911872	0.898999	0.381076
	H92	H	0.092693	0.619303	0.900923
	H93	H	0.095454	0.380081	0.097365
	H94	H	0.909298	0.624157	0.100478
	H95	H	0.902733	0.380736	0.906966
	H96	H	0.417416	0.118666	0.589149
	H97	H	0.593516	0.878487	0.596890
	H98	H	0.599973	0.120048	0.403301
	H99	H	0.403251	0.877954	0.389290
	H100	H	0.598148	0.404325	0.113158
	H101	H	0.590538	0.605805	0.877893
	H102	H	0.416178	0.602930	0.112598
	H103	H	0.400131	0.410397	0.880922
	H104	H	0.124960	0.598035	0.408583
	H105	H	0.879335	0.610359	0.595478
	H106	H	0.127026	0.409379	0.599826
	H107	H	0.886602	0.409253	0.400834
	H108	H	0.926946	0.617347	0.095735
	H109	H	0.091414	0.383659	0.090481
	H110	H	0.093275	0.615420	0.913307
	H111	H	0.911426	0.379341	0.892780
	H112	H	0.105600	0.914054	0.613824
	H113	H	0.091196	0.093530	0.381867
	H114	H	0.913917	0.094665	0.611820
	H115	H	0.902547	0.896767	0.378017
	H116	H	0.625828	0.094146	0.896969
	H117	H	0.384222	0.102411	0.082187
	H118	H	0.620866	0.917239	0.083721
	H119	H	0.379127	0.887372	0.895716
	C120	C	0.384485	0.009747	0.615858
	C121	C	0.625483	0.990480	0.617353
	C122	C	0.625549	0.010127	0.374250
	C123	C	0.382534	0.992231	0.371897
	C124	C	0.625480	0.379664	0.004373
	C125	C	0.629471	0.624899	0.985795
	C126	C	0.383954	0.621629	0.003359
	C127	C	0.379849	0.375647	0.987663
	C128	C	0.014072	0.620163	0.378435
	C129	C	0.995454	0.622436	0.621359
	C130	C	0.014313	0.381124	0.618641
	C131	C	0.995941	0.378407	0.374324
	C132	C	0.884929	0.510342	0.119007
	C133	C	0.126854	0.491557	0.121038
	C134	C	0.124132	0.509129	0.878180
	C135	C	0.883647	0.491423	0.874745
	C136	C	0.124199	0.880261	0.504707
	C137	C	0.127358	0.124969	0.487551
	C138	C	0.882778	0.121445	0.505187
	C139	C	0.879305	0.875179	0.488366
	C140	C	0.513998	0.120751	0.874344
	C141	C	0.495820	0.121787	0.117894
	C142	C	0.513916	0.881303	0.115192
	C143	C	0.495442	0.878786	0.871427
	C144	C	0.382782	0.885270	0.669816
	C145	C	0.628351	0.114823	0.674282
	C146	C	0.623846	0.885941	0.316873
	C147	C	0.385412	0.116231	0.317742
	C148	C	0.679347	0.381555	0.881913
	C149	C	0.684908	0.623868	0.109124
	C150	C	0.327114	0.615306	0.881209
	C151	C	0.327437	0.380609	0.110510
	C152	C	0.887223	0.669795	0.382763
	C153	C	0.120284	0.679991	0.618988
	C154	C	0.888502	0.325629	0.612567
	C155	C	0.121392	0.326123	0.379717
	C156	C	0.889518	0.379023	0.673053
	C157	C	0.120188	0.624124	0.677689
	C158	C	0.889539	0.618155	0.321623
	C159	C	0.120848	0.381624	0.320555
	C160	C	0.385871	0.672881	0.879770
	C161	C	0.628164	0.682874	0.107788
	C162	C	0.620686	0.323752	0.881673
	C163	C	0.383909	0.321813	0.109794
	C164	C	0.675556	0.883726	0.378017
	C165	C	0.681981	0.115681	0.614528
	C166	C	0.327898	0.884632	0.609773
	C167	C	0.329936	0.117136	0.376991
	C168	C	0.883486	0.385966	0.172621
	C169	C	0.127969	0.616175	0.176822
	C170	C	0.123893	0.385534	0.819683
	C171	C	0.885789	0.615258	0.819999
	C172	C	0.176743	0.881892	0.381225
	C173	C	0.185425	0.123821	0.609254
	C174	C	0.827876	0.115484	0.382000
	C175	C	0.825824	0.880858	0.610676
	C176	C	0.387677	0.171805	0.877923
	C177	C	0.620972	0.178903	0.114825
	C178	C	0.388103	0.825052	0.109150
	C179	C	0.621283	0.826554	0.875794
	C180	C	0.389716	0.878529	0.170356
	C181	C	0.620396	0.124315	0.174301
	C182	C	0.389162	0.118190	0.817786
	C183	C	0.620407	0.881691	0.817468
	C184	C	0.884433	0.175069	0.382972
	C185	C	0.127097	0.180761	0.610200
	C186	C	0.120213	0.822457	0.382723
	C187	C	0.883573	0.822881	0.610946
	C188	C	0.175321	0.383291	0.880964
	C189	C	0.183381	0.616269	0.117999
	C190	C	0.828468	0.385143	0.112665
	C191	C	0.832053	0.616947	0.879935
	C192	C	0.409314	0.096597	0.595350
	C193	C	0.601309	0.903428	0.595099
	C194	C	0.604974	0.097143	0.396458
	C195	C	0.403795	0.904919	0.392718
	C196	C	0.604020	0.402725	0.089871
	C197	C	0.606920	0.601448	0.900461
	C198	C	0.407462	0.601611	0.088820
	C199	C	0.400081	0.396588	0.901835
	C200	C	0.101821	0.600098	0.400034
	C201	C	0.908021	0.597956	0.599203
	C202	C	0.101553	0.405116	0.598266
	C203	C	0.908330	0.400085	0.395253
	C204	C	0.909206	0.597300	0.098764
	C205	C	0.102577	0.404348	0.099114
	C206	C	0.102764	0.595869	0.900652
	C207	C	0.905000	0.404465	0.895688
	C208	C	0.103296	0.904094	0.589895
	C209	C	0.103558	0.101785	0.402250
	C210	C	0.904976	0.101314	0.590930
	C211	C	0.900097	0.894845	0.402219
	C212	C	0.601201	0.099893	0.896580
	C213	C	0.408670	0.097139	0.095409
	C214	C	0.600823	0.906164	0.094125
	C215	C	0.407972	0.899532	0.892127
	Zn216	Zn	0.505262	0.000667	0.745139
	Zn217	Zn	0.505407	0.000991	0.245468
	Zn218	Zn	0.757076	0.501404	-0.003828
	Zn219	Zn	0.252399	0.499461	-0.002592
	Zn220	Zn	0.003494	0.747725	0.497393
	Zn221	Zn	0.005050	0.252573	0.497327
	Zn222	Zn	0.005442	0.500276	0.748418
	Zn223	Zn	0.005695	0.501520	0.248633
	Zn224	Zn	0.505547	0.752830	-0.006757
	Zn225	Zn	0.503125	0.248177	-0.004061
	Zn226	Zn	0.751671	-0.000853	0.495934
	Zn227	Zn	0.255033	0.001730	0.494660
	N228	N	0.417055	0.964117	0.673846
	N229	N	0.593918	0.036228	0.676025
	N230	N	0.593677	0.965443	0.314314
	N231	N	0.417262	0.037158	0.314664
	N232	N	0.682363	0.415633	0.959266
	N233	N	0.685789	0.588542	0.032391
	N234	N	0.325729	0.584383	0.959029
	N235	N	0.324704	0.413406	0.033432
	N236	N	0.965681	0.671058	0.417492
	N237	N	0.041565	0.679317	0.584865
	N238	N	0.967046	0.326532	0.579674
	N239	N	0.042569	0.323992	0.412203
	N240	N	0.968736	0.413272	0.676675
	N241	N	0.041609	0.588846	0.679019
	N242	N	0.969350	0.587927	0.318923
	N243	N	0.041593	0.413235	0.317053
	N244	N	0.420601	0.676921	0.956759
	N245	N	0.594373	0.683740	0.030380
	N246	N	0.588170	0.322262	0.958901
	N247	N	0.415676	0.318649	0.032392
	N248	N	0.676967	0.961895	0.413043
	N249	N	0.680234	0.037291	0.579751
	N250	N	0.328925	0.963062	0.576798
	N251	N	0.327747	0.038869	0.409651
	N252	N	0.917824	0.464813	0.176628
	N253	N	0.093502	0.537400	0.178715
	N254	N	0.092796	0.464676	0.817754
	N255	N	0.917337	0.536211	0.816905
	N256	N	0.179273	0.917157	0.457975
	N257	N	0.185672	0.089828	0.531903
	N258	N	0.826625	0.082746	0.458986
	N259	N	0.823131	0.912726	0.533191
	N260	N	0.466067	0.173475	0.912753
	N261	N	0.542283	0.177421	0.080394
	N262	N	0.466480	0.826457	0.075544
	N263	N	0.542659	0.824660	0.908669
	N264	N	0.468899	0.912695	0.174140
	N265	N	0.541558	0.089533	0.176208
	N266	N	0.468751	0.087515	0.815248
	N267	N	0.541196	0.913407	0.814559
	N268	N	0.917560	0.179100	0.460529
	N269	N	0.091721	0.181499	0.533498
	N270	N	0.088542	0.821062	0.460457
	N271	N	0.916237	0.819449	0.533943
	N272	N	0.175487	0.460957	0.916886
	N273	N	0.182743	0.537876	0.083906
	N274	N	0.829305	0.463533	0.079955
	N275	N	0.830589	0.538957	0.913300
	O276	O	1.008132	0.990735	0.089455
	H277	H	1.010617	0.988385	0.092180
	H278	H	1.006048	0.997846	0.083621
	O279	O	-0.009888	-0.037736	1.029497
	H280	H	0.001076	-0.039944	1.024016
	H281	H	-0.010129	-0.048971	1.018064
	O282	O	-0.038733	0.016517	-0.015273
	H283	H	-0.033665	0.014738	-0.014217
	H284	H	-0.038910	0.017197	-0.015681
	O285	O	0.513527	0.489547	0.477533
	H286	H	0.514430	0.487440	0.481147
	H287	H	0.512249	0.495137	0.468803
	O288	O	0.111885	-0.015698	-0.018523
	H289	H	0.123758	-0.004873	-0.027711
	H290	H	0.101710	-0.023508	-0.030333
	O291	O	-0.011411	1.004606	0.038300
	H292	H	-0.001993	1.015218	0.048395
	H293	H	-0.011363	1.016705	0.035673
	O294	O	-0.058075	0.968853	-0.000480
	H295	H	-0.050864	0.980188	0.006526
	H296	H	-0.052321	0.957652	0.001013
	O297	O	0.441077	0.469055	0.475850
	H298	H	0.436376	0.461684	0.473413
	H299	H	0.427421	0.461374	0.470532
	O300	O	0.490392	0.534184	0.463446
	H301	H	0.489343	0.529643	0.463841
	H302	H	0.491792	0.541384	0.462326
	O303	O	0.995847	0.014254	0.964299
	H304	H	1.003529	0.013420	0.959112
	H305	H	0.977834	0.009131	0.965423
	O306	O	0.059468	1.037763	0.968055
	H307	H	0.062510	1.052810	0.971255
	H308	H	0.068116	1.030074	0.960199
	O309	O	0.079586	1.089994	1.112831
	H310	H	0.067032	1.101701	1.117696
	H311	H	0.086436	1.105424	1.122897
	O312	O	-0.098718	0.009430	1.010409
	H313	H	-0.098895	0.019698	1.017265
	H314	H	-0.103981	-0.001354	1.010623
	O315	O	0.172367	0.229669	0.219674
	H316	H	0.180988	0.228783	0.236881
	H317	H	0.161163	0.235175	0.211407
	O318	O	0.050299	-0.098717	0.965781
	H319	H	0.055448	-0.090155	0.967501
	H320	H	0.054024	-0.087570	0.968950
	O321	O	0.492091	0.498653	0.488403
	H322	H	0.489117	0.501580	0.488289
	H323	H	0.497217	0.503611	0.490648
	O324	O	0.908443	0.026078	0.961484
	H325	H	0.908512	0.014210	0.954822
	H326	H	0.913346	0.007201	0.970407
	O327	O	1.084511	0.968643	1.050988
	H328	H	1.089450	0.968092	1.044724
	H329	H	1.074155	0.977242	1.054906
	O330	O	0.505972	0.445500	0.467081
	H331	H	0.523429	0.455732	0.473844
	H332	H	0.514821	0.441838	0.467770
	O333	O	1.069282	-0.024721	-0.062689
	H334	H	1.069460	-0.025415	-0.062887
	H335	H	1.069785	-0.035322	-0.062767
	O336	O	0.572663	0.528794	0.510814
	H337	H	0.572869	0.528505	0.518309
	H338	H	0.570983	0.535850	0.502384
	O339	O	0.503847	0.525697	0.442422
	H340	H	0.496143	0.523828	0.442749
	H341	H	0.503581	0.521538	0.438261
	O342	O	-0.032447	0.952796	1.056974
	H343	H	-0.043895	0.953154	1.047838
	H344	H	-0.027689	0.944170	1.065033
	O345	O	0.522309	0.457225	0.468452
	H346	H	0.521889	0.451755	0.467922
	H347	H	0.529464	0.446904	0.462089
