data_Molecule from HDF5

_cell_length_a		16.083365
_cell_length_b		16.316875
_cell_length_c		16.314723
_cell_angle_alpha	89.999219
_cell_angle_beta	90.009480
_cell_angle_gamma	89.909034
_symmetry_space_group_name_H-M	'P 1'
_symmetry_Int_Tables_number		1

loop_
	_symmetry_equiv_pos_as_xyz
	x,y,z

loop_
	_atom_site_label
	_atom_site_type_symbol
	_atom_site_fract_x
	_atom_site_fract_y
	_atom_site_fract_z
	H0	H	0.397238	0.836411	0.709524
	H1	H	0.594835	0.162939	0.710384
	H2	H	0.595973	0.836241	0.279103
	H3	H	0.394198	0.162173	0.278642
	H4	H	0.708343	0.402580	0.830749
	H5	H	0.708141	0.595680	0.159143
	H6	H	0.283625	0.595132	0.830821
	H7	H	0.284204	0.404859	0.159242
	H8	H	0.830084	0.712092	0.397358
	H9	H	0.160569	0.713142	0.594545
	H10	H	0.829901	0.286437	0.593656
	H11	H	0.160532	0.285385	0.396913
	H12	H	0.830711	0.400302	0.710034
	H13	H	0.160577	0.597147	0.708266
	H14	H	0.829400	0.596157	0.282641
	H15	H	0.160769	0.399872	0.281225
	H16	H	0.394528	0.715376	0.832145
	H17	H	0.595729	0.715600	0.157574
	H18	H	0.596941	0.281713	0.832558
	H19	H	0.394359	0.283322	0.157241
	H20	H	0.708235	0.835240	0.398606
	H21	H	0.707375	0.163591	0.590944
	H22	H	0.284539	0.834923	0.590268
	H23	H	0.281573	0.162966	0.398008
	H24	H	0.895967	0.335465	0.209565
	H25	H	0.095823	0.662148	0.211286
	H26	H	0.097315	0.336637	0.778892
	H27	H	0.894892	0.662453	0.779962
	H28	H	0.207797	0.902757	0.330389
	H29	H	0.206610	0.093491	0.659051
	H30	H	0.782750	0.094660	0.330792
	H31	H	0.784161	0.904702	0.659632
	H32	H	0.329384	0.212336	0.897707
	H33	H	0.660903	0.212260	0.093612
	H34	H	0.329482	0.786675	0.092616
	H35	H	0.661089	0.786227	0.897227
	H36	H	0.329910	0.900783	0.208875
	H37	H	0.660194	0.098371	0.209640
	H38	H	0.329567	0.097669	0.782588
	H39	H	0.661002	0.902331	0.782392
	H40	H	0.894748	0.214540	0.331861
	H41	H	0.094156	0.214155	0.658027
	H42	H	0.094581	0.783921	0.331692
	H43	H	0.896578	0.784327	0.658278
	H44	H	0.207790	0.334792	0.899668
	H45	H	0.208321	0.663963	0.091089
	H46	H	0.783294	0.334861	0.089652
	H47	H	0.782034	0.663148	0.898736
	H48	H	0.398390	0.117477	0.589928
	H49	H	0.589778	0.882437	0.590265
	H50	H	0.585360	0.115845	0.399250
	H51	H	0.406245	0.883651	0.401793
	H52	H	0.578771	0.399301	0.110155
	H53	H	0.591007	0.594529	0.877026
	H54	H	0.405706	0.592806	0.110374
	H55	H	0.415349	0.404200	0.880645
	H56	H	0.116284	0.591749	0.394406
	H57	H	0.876564	0.596410	0.583765
	H58	H	0.114016	0.398974	0.580392
	H59	H	0.876247	0.405804	0.399281
	H60	H	0.110576	0.415225	0.585850
	H61	H	0.879191	0.586382	0.586360
	H62	H	0.114234	0.598172	0.407880
	H63	H	0.876726	0.404918	0.403898
	H64	H	0.403503	0.597596	0.112430
	H65	H	0.587036	0.590080	0.879664
	H66	H	0.596842	0.400026	0.115786
	H67	H	0.396991	0.393365	0.873087
	H68	H	0.586896	0.114850	0.402585
	H69	H	0.586785	0.883029	0.590844
	H70	H	0.403103	0.117605	0.592564
	H71	H	0.401709	0.883069	0.402789
	H72	H	0.908670	0.613404	0.088816
	H73	H	0.084879	0.383623	0.092195
	H74	H	0.101823	0.619726	0.901574
	H75	H	0.906757	0.384335	0.902642
	H76	H	0.090080	0.906913	0.610350
	H77	H	0.092961	0.083250	0.379255
	H78	H	0.892090	0.089606	0.613037
	H79	H	0.901835	0.906458	0.378495
	H80	H	0.612376	0.094730	0.906841
	H81	H	0.375475	0.093199	0.091283
	H82	H	0.611055	0.908725	0.081626
	H83	H	0.377435	0.912735	0.899447
	H84	H	0.614013	0.910705	0.093736
	H85	H	0.377423	0.094982	0.082489
	H86	H	0.611969	0.086637	0.902533
	H87	H	0.373702	0.901756	0.897540
	H88	H	0.910580	0.088588	0.608156
	H89	H	0.075459	0.094734	0.381175
	H90	H	0.086388	0.903752	0.611719
	H91	H	0.904403	0.903283	0.377941
	H92	H	0.082150	0.618057	0.888451
	H93	H	0.088125	0.384732	0.084255
	H94	H	0.897448	0.616587	0.084501
	H95	H	0.900710	0.382538	0.903046
	H96	H	0.402754	0.115677	0.587394
	H97	H	0.587988	0.883097	0.588657
	H98	H	0.589573	0.117095	0.399674
	H99	H	0.403315	0.882138	0.398704
	H100	H	0.588303	0.414739	0.107945
	H101	H	0.584803	0.596229	0.878832
	H102	H	0.400342	0.593127	0.112047
	H103	H	0.395641	0.415317	0.878693
	H104	H	0.110413	0.584436	0.406180
	H105	H	0.875186	0.592709	0.593633
	H106	H	0.117190	0.403731	0.596156
	H107	H	0.878031	0.409385	0.401888
	H108	H	0.900209	0.618463	0.096286
	H109	H	0.093187	0.380799	0.090082
	H110	H	0.082159	0.610717	0.911196
	H111	H	0.903506	0.381532	0.898008
	H112	H	0.090988	0.901996	0.612447
	H113	H	0.093451	0.102654	0.373980
	H114	H	0.902683	0.105100	0.615364
	H115	H	0.900853	0.903157	0.377213
	H116	H	0.616103	0.093477	0.897993
	H117	H	0.378700	0.086010	0.086721
	H118	H	0.616005	0.899178	0.088454
	H119	H	0.377638	0.904905	0.907672
	C120	C	0.373720	0.008256	0.617175
	C121	C	0.616762	0.991153	0.617408
	C122	C	0.616350	0.007760	0.372848
	C123	C	0.373900	0.990799	0.372542
	C124	C	0.616770	0.376888	0.003314
	C125	C	0.616661	0.621567	0.986544
	C126	C	0.374184	0.621934	0.003399
	C127	C	0.374401	0.377364	0.986038
	C128	C	0.004096	0.619618	0.374089
	C129	C	0.986660	0.620155	0.616080
	C130	C	0.004303	0.378151	0.616258
	C131	C	0.986572	0.378147	0.373751
	C132	C	0.873885	0.507332	0.117151
	C133	C	0.117653	0.491229	0.117149
	C134	C	0.117532	0.507805	0.872921
	C135	C	0.874219	0.490781	0.873014
	C136	C	0.117744	0.876217	0.503366
	C137	C	0.115972	0.121153	0.486137
	C138	C	0.873024	0.121856	0.503922
	C139	C	0.873896	0.877197	0.486451
	C140	C	0.503938	0.120330	0.874228
	C141	C	0.486708	0.120174	0.115885
	C142	C	0.503771	0.878624	0.115997
	C143	C	0.486473	0.878433	0.873762
	C144	C	0.376544	0.885138	0.671700
	C145	C	0.614676	0.114161	0.671976
	C146	C	0.615244	0.884742	0.317701
	C147	C	0.374857	0.113592	0.316962
	C148	C	0.671686	0.380700	0.879868
	C149	C	0.671025	0.617338	0.109937
	C150	C	0.319825	0.617410	0.879960
	C151	C	0.320279	0.382138	0.109975
	C152	C	0.879488	0.674639	0.376520
	C153	C	0.111340	0.674851	0.613841
	C154	C	0.879307	0.324126	0.613864
	C155	C	0.111389	0.323045	0.376601
	C156	C	0.879925	0.380542	0.671678
	C157	C	0.111346	0.617398	0.670720
	C158	C	0.879197	0.617091	0.319658
	C159	C	0.111453	0.380029	0.319121
	C160	C	0.375088	0.677218	0.880594
	C161	C	0.615351	0.676969	0.109247
	C162	C	0.615920	0.321029	0.880693
	C163	C	0.375614	0.322285	0.109151
	C164	C	0.671164	0.884290	0.376936
	C165	C	0.670742	0.114495	0.612744
	C166	C	0.320987	0.884346	0.611895
	C167	C	0.318630	0.113982	0.375931
	C168	C	0.876080	0.384295	0.171547
	C169	C	0.115831	0.613721	0.172530
	C170	C	0.116544	0.385159	0.817440
	C171	C	0.875268	0.613560	0.818043
	C172	C	0.171385	0.880698	0.379604
	C173	C	0.169697	0.115990	0.609930
	C174	C	0.819392	0.116641	0.380048
	C175	C	0.820785	0.882407	0.610373
	C176	C	0.379045	0.175175	0.877013
	C177	C	0.611371	0.174899	0.113735
	C178	C	0.379049	0.824137	0.113211
	C179	C	0.611618	0.824057	0.876568
	C180	C	0.379098	0.880781	0.170782
	C181	C	0.611129	0.118065	0.171194
	C182	C	0.378987	0.118277	0.819815
	C183	C	0.611466	0.881459	0.819576
	C184	C	0.875055	0.176379	0.380583
	C185	C	0.113780	0.175691	0.609518
	C186	C	0.114941	0.821764	0.380300
	C187	C	0.876498	0.822646	0.609714
	C188	C	0.171386	0.383995	0.877628
	C189	C	0.171638	0.614616	0.112667
	C190	C	0.820244	0.383824	0.111907
	C191	C	0.819106	0.614132	0.876894
	C192	C	0.395277	0.094675	0.596209
	C193	C	0.594839	0.904959	0.596030
	C194	C	0.593976	0.093510	0.394226
	C195	C	0.397009	0.905046	0.394545
	C196	C	0.594668	0.398422	0.089169
	C197	C	0.594061	0.600084	0.900613
	C198	C	0.396562	0.600785	0.089390
	C199	C	0.396151	0.398159	0.899854
	C200	C	0.091127	0.597800	0.396375
	C201	C	0.899518	0.598144	0.594273
	C202	C	0.091476	0.399441	0.594153
	C203	C	0.899433	0.400204	0.395212
	C204	C	0.895672	0.593722	0.096030
	C205	C	0.095337	0.405226	0.095303
	C206	C	0.095360	0.593899	0.894211
	C207	C	0.896860	0.405054	0.894760
	C208	C	0.095856	0.897709	0.589317
	C209	C	0.093919	0.099797	0.400147
	C210	C	0.895082	0.100686	0.590003
	C211	C	0.895726	0.898073	0.400167
	C212	C	0.591105	0.098075	0.895850
	C213	C	0.399724	0.097815	0.093510
	C214	C	0.591231	0.899962	0.094307
	C215	C	0.398954	0.900114	0.895160
	Zn216	Zn	0.495211	-0.000006	0.746377
	Zn217	Zn	0.495159	-0.000811	0.243592
	Zn218	Zn	0.745113	0.499204	-0.004992
	Zn219	Zn	0.246469	0.499262	-0.005370
	Zn220	Zn	-0.004237	0.748021	0.495313
	Zn221	Zn	-0.005047	0.250777	0.495085
	Zn222	Zn	-0.004074	0.499221	0.743869
	Zn223	Zn	-0.004344	0.499024	0.245968
	Zn224	Zn	0.495315	0.750729	-0.004883
	Zn225	Zn	0.495384	0.248095	-0.005054
	Zn226	Zn	0.744900	-0.000739	0.495087
	Zn227	Zn	0.245652	-0.000557	0.494435
	N228	N	0.408645	0.963198	0.674926
	N229	N	0.581959	0.036337	0.675108
	N230	N	0.581812	0.962350	0.315068
	N231	N	0.408432	0.035904	0.314771
	N232	N	0.672032	0.415002	0.956954
	N233	N	0.671778	0.583347	0.032698
	N234	N	0.319175	0.583786	0.957234
	N235	N	0.319755	0.415900	0.032669
	N236	N	0.958188	0.676680	0.409601
	N237	N	0.032732	0.676780	0.580559
	N238	N	0.957629	0.322570	0.580022
	N239	N	0.032681	0.321753	0.409912
	N240	N	0.958615	0.413283	0.673318
	N241	N	0.032720	0.584201	0.672088
	N242	N	0.957721	0.583858	0.318017
	N243	N	0.033109	0.413829	0.317638
	N244	N	0.408255	0.680127	0.958395
	N245	N	0.582211	0.679552	0.031484
	N246	N	0.582334	0.318808	0.958229
	N247	N	0.408336	0.319163	0.031234
	N248	N	0.672032	0.961573	0.410592
	N249	N	0.672030	0.036920	0.579538
	N250	N	0.318907	0.961930	0.578755
	N251	N	0.318087	0.036764	0.409803
	N252	N	0.908612	0.462130	0.174734
	N253	N	0.082943	0.535953	0.175246
	N254	N	0.083688	0.463174	0.814482
	N255	N	0.908978	0.535959	0.815755
	N256	N	0.173081	0.913954	0.457000
	N257	N	0.171149	0.082856	0.532358
	N258	N	0.818137	0.083339	0.457582
	N259	N	0.819051	0.915449	0.532835
	N260	N	0.457743	0.176320	0.910289
	N261	N	0.532914	0.176302	0.080066
	N262	N	0.457706	0.822446	0.080046
	N263	N	0.532891	0.822009	0.909477
	N264	N	0.457750	0.914082	0.172391
	N265	N	0.532454	0.085078	0.172759
	N266	N	0.457614	0.084969	0.817938
	N267	N	0.532694	0.914737	0.817899
	N268	N	0.907571	0.179916	0.458552
	N269	N	0.081126	0.178895	0.531588
	N270	N	0.082403	0.818919	0.458217
	N271	N	0.908882	0.819350	0.531624
	N272	N	0.172221	0.461241	0.911382
	N273	N	0.172976	0.537246	0.079057
	N274	N	0.818866	0.461373	0.078733
	N275	N	0.818176	0.536757	0.910434
	O276	O	0.551297	-0.507581	1.443879
	H277	H	0.547066	-0.508450	1.441042
	H278	H	0.556799	-0.507963	1.440180
	O279	O	0.546581	0.508860	0.486351
	H280	H	0.554513	0.506022	0.490194
	H281	H	0.542880	0.503869	0.482647
	O282	O	1.549425	1.517937	0.461835
	H283	H	1.551880	1.522662	0.472888
	H284	H	1.549407	1.527359	0.465867
	O285	O	0.558601	0.537988	0.517922
	H286	H	0.556885	0.536098	0.513329
	H287	H	0.559638	0.537931	0.509168
