data_Molecule from HDF5

_cell_length_a		16.248644
_cell_length_b		16.105440
_cell_length_c		16.297123
_cell_angle_alpha	90.061926
_cell_angle_beta	89.975054
_cell_angle_gamma	89.866841
_symmetry_space_group_name_H-M	'P 1'
_symmetry_Int_Tables_number		1

loop_
	_symmetry_equiv_pos_as_xyz
	x,y,z

loop_
	_atom_site_label
	_atom_site_type_symbol
	_atom_site_fract_x
	_atom_site_fract_y
	_atom_site_fract_z
	H0	H	0.408462	0.837093	0.709770
	H1	H	0.607512	0.166935	0.712308
	H2	H	0.607791	0.837835	0.281967
	H3	H	0.407575	0.167372	0.283382
	H4	H	0.723069	0.402057	0.834356
	H5	H	0.722771	0.602773	0.159882
	H6	H	0.289916	0.602583	0.834350
	H7	H	0.291177	0.401251	0.160308
	H8	H	0.840789	0.713606	0.402015
	H9	H	0.170719	0.716214	0.595648
	H10	H	0.841044	0.290290	0.594103
	H11	H	0.171214	0.287844	0.401031
	H12	H	0.842758	0.401555	0.714374
	H13	H	0.169994	0.602952	0.714328
	H14	H	0.844028	0.602341	0.282196
	H15	H	0.170271	0.400623	0.282413
	H16	H	0.407901	0.716035	0.832798
	H17	H	0.604400	0.716236	0.161078
	H18	H	0.605988	0.287266	0.834205
	H19	H	0.410177	0.289473	0.161889
	H20	H	0.721472	0.837566	0.398721
	H21	H	0.719884	0.167729	0.594494
	H22	H	0.293753	0.837834	0.596175
	H23	H	0.293323	0.167967	0.399476
	H24	H	0.909585	0.336733	0.211606
	H25	H	0.106363	0.666825	0.212703
	H26	H	0.106094	0.336806	0.782788
	H27	H	0.905824	0.666468	0.783495
	H28	H	0.223168	0.902342	0.334447
	H29	H	0.222303	0.103407	0.660513
	H30	H	0.792383	0.101923	0.334317
	H31	H	0.790631	0.902608	0.659967
	H32	H	0.342861	0.215694	0.901159
	H33	H	0.671540	0.213816	0.093298
	H34	H	0.341810	0.790517	0.093720
	H35	H	0.671025	0.788173	0.899712
	H36	H	0.343760	0.902075	0.213066
	H37	H	0.670413	0.101290	0.211811
	H38	H	0.343658	0.103083	0.782183
	H39	H	0.670452	0.901350	0.782452
	H40	H	0.908544	0.215797	0.334053
	H41	H	0.103280	0.215759	0.661932
	H42	H	0.104453	0.788260	0.332947
	H43	H	0.908716	0.790103	0.661967
	H44	H	0.220767	0.336207	0.899218
	H45	H	0.219266	0.667636	0.095381
	H46	H	0.794076	0.336569	0.095879
	H47	H	0.793320	0.666880	0.899433
	H48	H	0.416482	0.120078	0.590818
	H49	H	0.598363	0.886153	0.584279
	H50	H	0.598453	0.121034	0.399888
	H51	H	0.417869	0.886477	0.408797
	H52	H	0.593065	0.417423	0.110163
	H53	H	0.609063	0.593385	0.878704
	H54	H	0.415805	0.591078	0.111611
	H55	H	0.412842	0.417498	0.882336
	H56	H	0.122330	0.592052	0.407029
	H57	H	0.891864	0.589867	0.588843
	H58	H	0.125291	0.409972	0.601937
	H59	H	0.888593	0.401956	0.410707
	H60	H	0.124468	0.400064	0.585937
	H61	H	0.887570	0.595249	0.597452
	H62	H	0.123577	0.593633	0.402197
	H63	H	0.893845	0.418747	0.407694
	H64	H	0.415415	0.599868	0.114698
	H65	H	0.595660	0.587645	0.883598
	H66	H	0.599091	0.396477	0.117751
	H67	H	0.421659	0.407229	0.881980
	H68	H	0.597696	0.119900	0.407049
	H69	H	0.606274	0.881899	0.591357
	H70	H	0.413401	0.121076	0.589222
	H71	H	0.409921	0.883038	0.405128
	H72	H	0.910040	0.618428	0.080581
	H73	H	0.097238	0.378948	0.108322
	H74	H	0.096488	0.619948	0.901124
	H75	H	0.915378	0.384262	0.906763
	H76	H	0.088359	0.909531	0.610214
	H77	H	0.102360	0.088244	0.382371
	H78	H	0.913595	0.093576	0.614069
	H79	H	0.914574	0.906206	0.380632
	H80	H	0.622910	0.091498	0.906067
	H81	H	0.389638	0.096845	0.087796
	H82	H	0.620878	0.918083	0.088210
	H83	H	0.392047	0.915350	0.907122
	H84	H	0.627060	0.907801	0.098829
	H85	H	0.390238	0.091391	0.091166
	H86	H	0.624920	0.093113	0.899411
	H87	H	0.387948	0.911283	0.896573
	H88	H	0.913348	0.097754	0.615271
	H89	H	0.094018	0.096695	0.382554
	H90	H	0.106023	0.899695	0.619130
	H91	H	0.910128	0.908912	0.379027
	H92	H	0.095674	0.618218	0.909381
	H93	H	0.086435	0.391109	0.080594
	H94	H	0.908647	0.624089	0.099429
	H95	H	0.913471	0.382341	0.904490
	H96	H	0.413561	0.122161	0.592513
	H97	H	0.595179	0.883966	0.594903
	H98	H	0.604304	0.122569	0.403965
	H99	H	0.418197	0.883954	0.400437
	H100	H	0.614546	0.412737	0.116604
	H101	H	0.596592	0.601935	0.879092
	H102	H	0.407390	0.595289	0.115104
	H103	H	0.408329	0.405422	0.877639
	H104	H	0.124883	0.597470	0.406228
	H105	H	0.888751	0.600037	0.588140
	H106	H	0.119409	0.418284	0.586098
	H107	H	0.886742	0.409380	0.394171
	H108	H	0.925620	0.617633	0.092226
	H109	H	0.116646	0.380191	0.082482
	H110	H	0.103475	0.620477	0.906342
	H111	H	0.916773	0.384140	0.903203
	H112	H	0.106943	0.921019	0.612103
	H113	H	0.104732	0.099372	0.378396
	H114	H	0.909275	0.095543	0.616008
	H115	H	0.913910	0.911253	0.381068
	H116	H	0.625520	0.097720	0.904585
	H117	H	0.388260	0.096745	0.094270
	H118	H	0.624316	0.902334	0.084114
	H119	H	0.388982	0.903284	0.905792
	C120	C	0.386243	0.011540	0.618879
	C121	C	0.628744	0.993372	0.618592
	C122	C	0.628616	0.011655	0.375504
	C123	C	0.386012	0.993888	0.376174
	C124	C	0.630395	0.380109	0.006540
	C125	C	0.628615	0.623621	0.988507
	C126	C	0.384221	0.624480	0.005624
	C127	C	0.385910	0.381057	0.989112
	C128	C	0.015119	0.623584	0.376499
	C129	C	0.997879	0.624055	0.620240
	C130	C	0.014445	0.380915	0.619438
	C131	C	0.998034	0.380168	0.375850
	C132	C	0.886112	0.510795	0.119386
	C133	C	0.128851	0.492842	0.119328
	C134	C	0.127617	0.510196	0.876759
	C135	C	0.885899	0.492661	0.876551
	C136	C	0.129216	0.880276	0.505802
	C137	C	0.128467	0.123933	0.489191
	C138	C	0.884409	0.124068	0.506426
	C139	C	0.884585	0.880792	0.488630
	C140	C	0.515879	0.123665	0.875234
	C141	C	0.498178	0.123685	0.119143
	C142	C	0.515758	0.880497	0.118740
	C143	C	0.497985	0.880502	0.874962
	C144	C	0.388427	0.886815	0.672897
	C145	C	0.626999	0.117668	0.674081
	C146	C	0.627069	0.887006	0.320471
	C147	C	0.387962	0.118240	0.321325
	C148	C	0.685316	0.381663	0.883184
	C149	C	0.684029	0.622224	0.111301
	C150	C	0.328329	0.622639	0.882882
	C151	C	0.329990	0.382138	0.111734
	C152	C	0.890702	0.677663	0.380088
	C153	C	0.121562	0.678985	0.617039
	C154	C	0.890460	0.326757	0.615751
	C155	C	0.122004	0.325469	0.379673
	C156	C	0.891150	0.382446	0.674991
	C157	C	0.121153	0.622505	0.675898
	C158	C	0.892015	0.622209	0.320618
	C159	C	0.121630	0.381560	0.320803
	C160	C	0.387335	0.678778	0.882037
	C161	C	0.624946	0.678320	0.111989
	C162	C	0.627152	0.324744	0.883132
	C163	C	0.389418	0.326613	0.112480
	C164	C	0.683801	0.886957	0.378041
	C165	C	0.682751	0.118262	0.615273
	C166	C	0.330974	0.887385	0.616602
	C167	C	0.330423	0.118277	0.378453
	C168	C	0.888640	0.386115	0.174125
	C169	C	0.126455	0.617530	0.174629
	C170	C	0.126271	0.385980	0.821035
	C171	C	0.887056	0.617332	0.821680
	C172	C	0.185057	0.881866	0.383148
	C173	C	0.183680	0.122391	0.612086
	C174	C	0.830326	0.121842	0.383084
	C175	C	0.829121	0.882929	0.611690
	C176	C	0.392283	0.178678	0.879134
	C177	C	0.622077	0.177389	0.115294
	C178	C	0.391441	0.826844	0.115054
	C179	C	0.621880	0.825639	0.878729
	C180	C	0.392363	0.882588	0.174122
	C181	C	0.621460	0.121567	0.174058
	C182	C	0.392692	0.122641	0.820145
	C183	C	0.621556	0.881906	0.820283
	C184	C	0.888126	0.178417	0.382979
	C185	C	0.124410	0.178240	0.612945
	C186	C	0.126159	0.825023	0.382467
	C187	C	0.888069	0.827239	0.612605
	C188	C	0.183016	0.385551	0.878779
	C189	C	0.182865	0.617936	0.116499
	C190	C	0.831413	0.386138	0.116721
	C191	C	0.831188	0.617510	0.879228
	C192	C	0.408080	0.098638	0.597293
	C193	C	0.606515	0.906334	0.596525
	C194	C	0.606746	0.098594	0.397254
	C195	C	0.408589	0.906986	0.398245
	C196	C	0.608700	0.402467	0.092576
	C197	C	0.606745	0.601026	0.902633
	C198	C	0.406344	0.602104	0.091399
	C199	C	0.407705	0.403609	0.902932
	C200	C	0.101247	0.601017	0.398556
	C201	C	0.911804	0.601686	0.598211
	C202	C	0.100674	0.403112	0.597796
	C203	C	0.911989	0.403271	0.397626
	C204	C	0.908190	0.597577	0.097184
	C205	C	0.106803	0.405953	0.097090
	C206	C	0.105238	0.597041	0.899072
	C207	C	0.908535	0.405981	0.898417
	C208	C	0.106974	0.903169	0.591582
	C209	C	0.106958	0.101363	0.403244
	C210	C	0.905674	0.102143	0.592666
	C211	C	0.906319	0.902486	0.402610
	C212	C	0.602179	0.100884	0.896901
	C213	C	0.411621	0.101548	0.097437
	C214	C	0.601846	0.902695	0.097004
	C215	C	0.411846	0.903377	0.896547
	Zn216	Zn	0.507118	0.002206	0.746524
	Zn217	Zn	0.507195	0.002137	0.247606
	Zn218	Zn	0.758517	0.502074	-0.002973
	Zn219	Zn	0.256051	0.501992	-0.002397
	Zn220	Zn	0.006135	0.751931	0.497542
	Zn221	Zn	0.006217	0.252095	0.497869
	Zn222	Zn	0.005746	0.502134	0.749011
	Zn223	Zn	0.007319	0.502027	0.247491
	Zn224	Zn	0.506511	0.752673	-0.003002
	Zn225	Zn	0.507494	0.252325	-0.002103
	Zn226	Zn	0.756301	0.002468	0.496889
	Zn227	Zn	0.258210	0.002866	0.497742
	N228	N	0.422056	0.965126	0.674568
	N229	N	0.594213	0.039010	0.676249
	N230	N	0.593677	0.965422	0.318588
	N231	N	0.421620	0.039782	0.319650
	N232	N	0.687570	0.415116	0.960918
	N233	N	0.686277	0.588655	0.033607
	N234	N	0.326327	0.589443	0.960516
	N235	N	0.327740	0.415372	0.033876
	N236	N	0.968241	0.678625	0.414000
	N237	N	0.044104	0.680069	0.583196
	N238	N	0.968083	0.325799	0.581913
	N239	N	0.044250	0.324319	0.413066
	N240	N	0.969297	0.415334	0.677623
	N241	N	0.043231	0.589004	0.677974
	N242	N	0.970298	0.589262	0.318226
	N243	N	0.043563	0.414920	0.318334
	N244	N	0.421146	0.680276	0.959488
	N245	N	0.591180	0.679393	0.034608
	N246	N	0.593557	0.323839	0.960646
	N247	N	0.423733	0.326182	0.035165
	N248	N	0.684677	0.965412	0.411777
	N249	N	0.683991	0.039876	0.581546
	N250	N	0.329471	0.965924	0.583588
	N251	N	0.329517	0.039929	0.412196
	N252	N	0.921905	0.464519	0.175884
	N253	N	0.093782	0.538796	0.176553
	N254	N	0.092628	0.464430	0.819470
	N255	N	0.920641	0.538872	0.820058
	N256	N	0.187174	0.915304	0.460933
	N257	N	0.186258	0.089459	0.534288
	N258	N	0.828115	0.088526	0.460674
	N259	N	0.826592	0.915433	0.533617
	N260	N	0.469817	0.179346	0.912797
	N261	N	0.544374	0.178597	0.081868
	N262	N	0.469113	0.825567	0.081313
	N263	N	0.544125	0.824602	0.911994
	N264	N	0.470598	0.915186	0.176585
	N265	N	0.543194	0.088847	0.176624
	N266	N	0.470711	0.089123	0.817547
	N267	N	0.543501	0.915165	0.817842
	N268	N	0.920964	0.180001	0.460877
	N269	N	0.090815	0.179366	0.535447
	N270	N	0.092065	0.823975	0.459798
	N271	N	0.922023	0.825862	0.535306
	N272	N	0.183931	0.463945	0.912633
	N273	N	0.184288	0.539560	0.082750
	N274	N	0.829894	0.464572	0.083151
	N275	N	0.830302	0.539210	0.912616
	O276	O	1.024242	0.970751	0.014476
	H277	H	1.038554	0.965324	0.007132
	H278	H	1.017308	0.965460	0.017932
	O279	O	-0.024944	-0.086341	0.020743
	H280	H	-0.027174	-0.089426	0.018212
	H281	H	-0.022578	-0.078283	0.018222
	O282	O	-0.014237	0.011015	0.951310
	H283	H	-0.008597	0.003136	0.948658
	H284	H	-0.008393	0.009605	0.949180
	O285	O	0.438683	0.510214	0.498645
	H286	H	0.433740	0.512596	0.494979
	H287	H	0.435521	0.511733	0.497779
	O288	O	0.387149	0.544317	0.515970
	H289	H	0.374942	0.540953	0.524495
	H290	H	0.386927	0.542735	0.510744
	O291	O	0.423346	0.514471	0.433724
	H292	H	0.408399	0.517508	0.431384
	H293	H	0.420469	0.510522	0.433640
	O294	O	-0.552249	-0.513519	0.481994
	H295	H	-0.554139	-0.511002	0.488399
	H296	H	-0.550346	-0.525983	0.486732
	O297	O	0.473107	0.532974	0.503722
	H298	H	0.484467	0.540165	0.490639
	H299	H	0.473827	0.519951	0.499447
	O300	O	0.042153	0.949424	0.962408
	H301	H	0.039767	0.945154	0.961810
	H302	H	0.046779	0.944391	0.961120
	O303	O	0.458767	0.534379	0.483892
	H304	H	0.452076	0.544448	0.479049
	H305	H	0.460927	0.532619	0.482717
	O306	O	0.039426	-0.051944	0.957206
	H307	H	0.036207	-0.044779	0.959292
	H308	H	0.027649	-0.047958	0.958430
	O309	O	0.970238	0.949839	1.000297
	H310	H	0.965562	0.954033	0.996439
	H311	H	0.972455	0.952598	0.994411
	O312	O	0.424671	0.514975	0.497520
	H313	H	0.423660	0.511586	0.488192
	H314	H	0.427616	0.514378	0.505999
	O315	O	0.481651	0.535195	0.535655
	H316	H	0.486484	0.545636	0.538192
	H317	H	0.472285	0.546554	0.538217
	O318	O	0.017688	0.966669	0.015151
	H319	H	0.017101	0.958730	0.026352
	H320	H	0.024989	0.963522	0.014316
	O321	O	1.021386	0.929170	-0.046726
	H322	H	1.014882	0.926076	-0.044675
	H323	H	1.016583	0.930151	-0.043736
