data_Molecule from HDF5

_cell_length_a		16.258907
_cell_length_b		16.198610
_cell_length_c		16.513219
_cell_angle_alpha	90.133009
_cell_angle_beta	90.410751
_cell_angle_gamma	90.231870
_symmetry_space_group_name_H-M	'P 1'
_symmetry_Int_Tables_number		1

loop_
	_symmetry_equiv_pos_as_xyz
	x,y,z

loop_
	_atom_site_label
	_atom_site_type_symbol
	_atom_site_fract_x
	_atom_site_fract_y
	_atom_site_fract_z
	H0	H	0.387586	0.840543	0.722560
	H1	H	0.604241	0.160225	0.724876
	H2	H	0.603161	0.840683	0.280351
	H3	H	0.389257	0.160099	0.280266
	H4	H	0.712539	0.393502	0.841424
	H5	H	0.721521	0.609414	0.156088
	H6	H	0.275193	0.598580	0.840610
	H7	H	0.272408	0.393986	0.159717
	H8	H	0.834068	0.716843	0.399010
	H9	H	0.155377	0.720772	0.607896
	H10	H	0.832710	0.283314	0.599770
	H11	H	0.157179	0.284384	0.402856
	H12	H	0.834750	0.391523	0.720533
	H13	H	0.155424	0.605109	0.723426
	H14	H	0.839211	0.610947	0.275669
	H15	H	0.155310	0.393645	0.281852
	H16	H	0.388780	0.718849	0.841393
	H17	H	0.601262	0.722486	0.158308
	H18	H	0.592787	0.280093	0.841751
	H19	H	0.388000	0.276185	0.159760
	H20	H	0.710000	0.837983	0.402476
	H21	H	0.715141	0.162243	0.606510
	H22	H	0.274530	0.840452	0.604719
	H23	H	0.279578	0.163293	0.400435
	H24	H	0.889135	0.339532	0.221542
	H25	H	0.108102	0.659838	0.226094
	H26	H	0.097013	0.337935	0.784793
	H27	H	0.888299	0.659791	0.779129
	H28	H	0.215398	0.894815	0.342927
	H29	H	0.218186	0.106938	0.659281
	H30	H	0.771811	0.105119	0.343632
	H31	H	0.774729	0.896194	0.660880
	H32	H	0.330661	0.211071	0.903215
	H33	H	0.654182	0.221742	0.107428
	H34	H	0.332562	0.781767	0.100728
	H35	H	0.655552	0.781679	0.898553
	H36	H	0.335214	0.891160	0.221460
	H37	H	0.654790	0.108190	0.224259
	H38	H	0.336733	0.107471	0.778266
	H39	H	0.654714	0.892957	0.781282
	H40	H	0.890628	0.219465	0.341948
	H41	H	0.097091	0.218978	0.661370
	H42	H	0.099614	0.777366	0.343332
	H43	H	0.890769	0.778872	0.660329
	H44	H	0.205641	0.335275	0.904756
	H45	H	0.214716	0.662179	0.104184
	H46	H	0.775863	0.338488	0.102865
	H47	H	0.776888	0.662400	0.897521
	H48	H	0.410910	0.117871	0.599256
	H49	H	0.581590	0.886332	0.589312
	H50	H	0.583214	0.116769	0.410974
	H51	H	0.408466	0.887135	0.416015
	H52	H	0.587483	0.412293	0.114288
	H53	H	0.593270	0.593441	0.882834
	H54	H	0.402226	0.596902	0.115953
	H55	H	0.403056	0.411392	0.890402
	H56	H	0.112679	0.594259	0.414957
	H57	H	0.881652	0.583263	0.589538
	H58	H	0.106801	0.423046	0.594877
	H59	H	0.878588	0.414601	0.402721
	H60	H	0.116590	0.405273	0.606072
	H61	H	0.878549	0.588438	0.594504
	H62	H	0.107073	0.584256	0.420268
	H63	H	0.878179	0.404926	0.411280
	H64	H	0.401446	0.583865	0.113564
	H65	H	0.583130	0.580820	0.889792
	H66	H	0.582719	0.414989	0.111709
	H67	H	0.403915	0.400252	0.887483
	H68	H	0.580558	0.115087	0.412272
	H69	H	0.586786	0.883693	0.592324
	H70	H	0.415541	0.111794	0.586599
	H71	H	0.400261	0.882076	0.411432
	H72	H	0.909841	0.613263	0.085370
	H73	H	0.085730	0.387437	0.083388
	H74	H	0.084504	0.614107	0.918705
	H75	H	0.892942	0.383972	0.923094
	H76	H	0.078359	0.916455	0.609984
	H77	H	0.085856	0.085361	0.388771
	H78	H	0.900699	0.084343	0.614296
	H79	H	0.896903	0.916112	0.388693
	H80	H	0.609076	0.083940	0.912144
	H81	H	0.378613	0.089857	0.090593
	H82	H	0.611615	0.908982	0.096008
	H83	H	0.380942	0.914333	0.910228
	H84	H	0.608215	0.910816	0.086445
	H85	H	0.381610	0.082939	0.089677
	H86	H	0.612769	0.091808	0.909089
	H87	H	0.378495	0.911202	0.906664
	H88	H	0.913280	0.091126	0.612321
	H89	H	0.080494	0.096161	0.387117
	H90	H	0.083913	0.906560	0.615750
	H91	H	0.910570	0.913025	0.392010
	H92	H	0.090787	0.619296	0.906973
	H93	H	0.089353	0.380319	0.099419
	H94	H	0.908660	0.615819	0.090139
	H95	H	0.897759	0.376772	0.893266
	H96	H	0.401337	0.116931	0.587818
	H97	H	0.581989	0.884943	0.595763
	H98	H	0.583964	0.115644	0.414054
	H99	H	0.408395	0.884377	0.405520
	H100	H	0.582251	0.409438	0.113585
	H101	H	0.576265	0.597412	0.887587
	H102	H	0.412818	0.590317	0.112111
	H103	H	0.394181	0.405999	0.885784
	H104	H	0.111214	0.583799	0.408460
	H105	H	0.880761	0.590236	0.587807
	H106	H	0.110590	0.403459	0.584290
	H107	H	0.883182	0.416246	0.414914
	H108	H	0.913128	0.613145	0.089614
	H109	H	0.072129	0.387498	0.095911
	H110	H	0.076888	0.615413	0.906291
	H111	H	0.920984	0.389419	0.910620
	H112	H	0.090359	0.917449	0.614421
	H113	H	0.091681	0.095112	0.384444
	H114	H	0.902157	0.097941	0.617904
	H115	H	0.902327	0.902693	0.386714
	H116	H	0.609654	0.091033	0.917661
	H117	H	0.378772	0.085030	0.096407
	H118	H	0.608398	0.919308	0.093592
	H119	H	0.379466	0.909735	0.911975
	C120	C	0.375228	0.009469	0.622951
	C121	C	0.616574	0.991370	0.624247
	C122	C	0.615003	0.009462	0.381428
	C123	C	0.374143	0.991522	0.380037
	C124	C	0.614750	0.378809	0.008701
	C125	C	0.617338	0.623047	0.991306
	C126	C	0.372929	0.620455	0.008627
	C127	C	0.370095	0.375760	0.993044
	C128	C	0.004968	0.620997	0.380827
	C129	C	0.986148	0.620638	0.623686
	C130	C	0.004141	0.378826	0.623482
	C131	C	0.986416	0.379903	0.380005
	C132	C	0.876359	0.508236	0.120771
	C133	C	0.116966	0.491582	0.124412
	C134	C	0.113902	0.508248	0.881470
	C135	C	0.872641	0.490466	0.878390
	C136	C	0.116572	0.879284	0.509295
	C137	C	0.117292	0.123193	0.492378
	C138	C	0.872895	0.122463	0.509927
	C139	C	0.872593	0.878573	0.493773
	C140	C	0.503724	0.119545	0.881741
	C141	C	0.485385	0.120680	0.124326
	C142	C	0.503279	0.879119	0.122543
	C143	C	0.485739	0.879528	0.879124
	C144	C	0.370727	0.888687	0.682742
	C145	C	0.621093	0.112331	0.684366
	C146	C	0.618953	0.888238	0.321831
	C147	C	0.371641	0.112230	0.320333
	C148	C	0.672865	0.376113	0.889161
	C149	C	0.679682	0.626819	0.109438
	C150	C	0.314001	0.619303	0.888625
	C151	C	0.311940	0.375325	0.112481
	C152	C	0.883510	0.679619	0.378961
	C153	C	0.107369	0.680597	0.625875
	C154	C	0.881599	0.321270	0.620594
	C155	C	0.108325	0.321946	0.381772
	C156	C	0.882631	0.375385	0.680634
	C157	C	0.107187	0.623464	0.683871
	C158	C	0.886023	0.626570	0.317636
	C159	C	0.107435	0.376452	0.321791
	C160	C	0.370752	0.678973	0.888929
	C161	C	0.619969	0.683237	0.110458
	C162	C	0.613490	0.319063	0.889318
	C163	C	0.369336	0.316384	0.112337
	C164	C	0.672640	0.887181	0.382211
	C165	C	0.676122	0.113334	0.625267
	C166	C	0.314310	0.888690	0.623981
	C167	C	0.316839	0.113792	0.380209
	C168	C	0.872167	0.387718	0.181143
	C169	C	0.123258	0.611858	0.185200
	C170	C	0.114754	0.386070	0.824282
	C171	C	0.870873	0.612007	0.819068
	C172	C	0.176003	0.876317	0.390551
	C173	C	0.177741	0.124834	0.611841
	C174	C	0.812292	0.123674	0.390758
	C175	C	0.814188	0.877403	0.613042
	C176	C	0.380443	0.174885	0.882462
	C177	C	0.605990	0.182075	0.126088
	C178	C	0.381541	0.820290	0.121098
	C179	C	0.607074	0.820850	0.879503
	C180	C	0.382793	0.874846	0.181352
	C181	C	0.606202	0.125516	0.184423
	C182	C	0.383667	0.123315	0.820262
	C183	C	0.606596	0.876182	0.820796
	C184	C	0.871553	0.180754	0.389941
	C185	C	0.117479	0.180714	0.613034
	C186	C	0.118131	0.817935	0.390764
	C187	C	0.872114	0.818974	0.612912
	C188	C	0.169368	0.385038	0.883770
	C189	C	0.176719	0.613035	0.124419
	C190	C	0.815706	0.386937	0.121963
	C191	C	0.815469	0.613150	0.878172
	C192	C	0.401726	0.093690	0.598418
	C193	C	0.590817	0.907070	0.599586
	C194	C	0.589870	0.094001	0.405497
	C195	C	0.398801	0.906560	0.404100
	C196	C	0.591097	0.404770	0.091597
	C197	C	0.591636	0.597634	0.908458
	C198	C	0.398194	0.597090	0.092134
	C199	C	0.393425	0.399139	0.909741
	C200	C	0.088456	0.594989	0.407063
	C201	C	0.902260	0.594820	0.598025
	C202	C	0.088979	0.403518	0.601478
	C203	C	0.902211	0.404880	0.402947
	C204	C	0.902664	0.592137	0.095653
	C205	C	0.090184	0.406918	0.099976
	C206	C	0.090708	0.594050	0.904301
	C207	C	0.896847	0.405690	0.902155
	C208	C	0.091536	0.905826	0.591830
	C209	C	0.092872	0.099245	0.408591
	C210	C	0.898000	0.098249	0.593128
	C211	C	0.896438	0.903316	0.410739
	C212	C	0.588313	0.095964	0.906074
	C213	C	0.401567	0.093686	0.099372
	C214	C	0.587501	0.905354	0.098780
	C215	C	0.401383	0.904612	0.902829
	Zn216	Zn	0.495869	0.000506	0.751848
	Zn217	Zn	0.495232	-0.000956	0.252494
	Zn218	Zn	0.745645	0.499908	-0.000193
	Zn219	Zn	0.242403	0.499609	0.000979
	Zn220	Zn	-0.005003	0.748813	0.502107
	Zn221	Zn	-0.005138	0.251961	0.501421
	Zn222	Zn	-0.005379	0.498941	0.751774
	Zn223	Zn	-0.003724	0.500876	0.252055
	Zn224	Zn	0.494170	0.751600	-0.000103
	Zn225	Zn	0.493326	0.247649	0.001410
	Zn226	Zn	0.742583	0.000748	0.502205
	Zn227	Zn	0.246624	0.001006	0.501141
	N228	N	0.407770	0.965103	0.682369
	N229	N	0.584944	0.035460	0.684111
	N230	N	0.583713	0.965281	0.321208
	N231	N	0.406482	0.035067	0.320163
	N232	N	0.673811	0.412483	0.964515
	N233	N	0.678343	0.590337	0.034283
	N234	N	0.315118	0.584054	0.964157
	N235	N	0.312239	0.411633	0.037483
	N236	N	0.958597	0.676391	0.417539
	N237	N	0.031121	0.679060	0.589194
	N238	N	0.958020	0.323205	0.585676
	N239	N	0.031973	0.323676	0.417175
	N240	N	0.959740	0.410528	0.682564
	N241	N	0.030788	0.586857	0.682664
	N242	N	0.962591	0.590984	0.318619
	N243	N	0.030736	0.411636	0.320319
	N244	N	0.406748	0.679806	0.964617
	N245	N	0.581762	0.680983	0.035990
	N246	N	0.578193	0.320368	0.964724
	N247	N	0.405059	0.316653	0.037369
	N248	N	0.670165	0.963491	0.418572
	N249	N	0.673701	0.037011	0.588761
	N250	N	0.317051	0.964657	0.587552
	N251	N	0.318388	0.037504	0.416634
	N252	N	0.908956	0.464296	0.180702
	N253	N	0.086929	0.534952	0.185343
	N254	N	0.080979	0.463843	0.822705
	N255	N	0.905372	0.534603	0.818735
	N256	N	0.175070	0.913721	0.465244
	N257	N	0.177711	0.089860	0.535750
	N258	N	0.812643	0.088553	0.466369
	N259	N	0.814208	0.913763	0.537912
	N260	N	0.456158	0.172862	0.919995
	N261	N	0.529833	0.179326	0.089435
	N262	N	0.457722	0.822435	0.085560
	N263	N	0.530922	0.822548	0.915036
	N264	N	0.459674	0.910558	0.182403
	N265	N	0.530116	0.088215	0.183692
	N266	N	0.461028	0.089529	0.819708
	N267	N	0.530009	0.912085	0.820632
	N268	N	0.908628	0.179910	0.465078
	N269	N	0.080790	0.179939	0.537812
	N270	N	0.081839	0.819667	0.465733
	N271	N	0.907677	0.819529	0.537773
	N272	N	0.168932	0.462183	0.918487
	N273	N	0.172958	0.537066	0.087389
	N274	N	0.818079	0.462908	0.085119
	N275	N	0.816301	0.536773	0.914220
	O276	O	0.421369	0.633821	0.584104
	H277	H	0.415168	0.635198	0.567055
	H278	H	0.420533	0.623275	0.577592
	O279	O	0.478589	0.702910	0.294291
	H280	H	0.501831	0.684511	0.282226
	H281	H	0.490862	0.712522	0.274414
	O282	O	0.304747	0.383739	0.630833
	H283	H	0.298756	0.400356	0.637138
	H284	H	0.300080	0.383598	0.623027
	O285	O	0.921473	-0.034332	0.091307
	H286	H	0.909310	-0.048167	0.093907
	H287	H	0.915747	-0.017898	0.077165
	O288	O	0.120915	-0.010214	0.807585
	H289	H	0.125508	-0.021187	0.814465
	H290	H	0.125895	-0.021815	0.802644
	O291	O	0.525198	0.615943	0.674506
	H292	H	0.508074	0.615588	0.658652
	H293	H	0.524116	0.626509	0.680130
	O294	O	0.376651	0.509344	0.301315
	H295	H	0.383822	0.521508	0.312120
	H296	H	0.371472	0.507431	0.308669
	O297	O	1.128084	0.992698	0.976437
	H298	H	1.136872	0.985425	0.983789
	H299	H	1.109434	0.988330	0.974151
	O300	O	0.123541	0.004764	0.159419
	H301	H	0.120843	0.010974	0.165717
	H302	H	0.122768	0.016618	0.160935
	O303	O	0.558704	0.309627	0.492716
	H304	H	0.566873	0.315715	0.502428
	H305	H	0.552894	0.302214	0.504903
	O306	O	0.967602	-0.162589	0.211614
	H307	H	0.995390	-0.157595	0.216713
	H308	H	0.972538	-0.188430	0.217015
	O309	O	0.632170	0.523567	0.437260
	H310	H	0.636507	0.523407	0.443479
	H311	H	0.619038	0.514139	0.437501
	O312	O	0.873746	1.068337	0.075482
	H313	H	0.882977	1.088963	0.081799
	H314	H	0.896296	1.056609	0.076581
	O315	O	0.359960	0.374986	0.475478
	H316	H	0.364846	0.371834	0.488238
	H317	H	0.368576	0.370008	0.465012
	O318	O	0.483233	0.419865	0.363661
	H319	H	0.465473	0.434351	0.371322
	H320	H	0.479920	0.422971	0.337973
	O321	O	1.130725	-0.018397	1.129631
	H322	H	1.139879	-0.000967	1.125128
	H323	H	1.128598	-0.012232	1.139765
	O324	O	0.103052	0.163189	0.989037
	H325	H	0.094227	0.167148	0.993842
	H326	H	0.107946	0.144639	0.980686
	O327	O	0.296696	0.434163	0.397668
	H328	H	0.300303	0.422185	0.383322
	H329	H	0.304094	0.422707	0.400699
	O330	O	0.637278	0.520364	0.289189
	H331	H	0.637822	0.488721	0.279977
	H332	H	0.659424	0.500747	0.295701
	O333	O	0.931743	0.891796	1.192243
	H334	H	0.932464	0.906658	1.191293
	H335	H	0.952113	0.882212	1.202340
	O336	O	0.565423	0.337094	0.484426
	H337	H	0.560893	0.324371	0.497478
	H338	H	0.554187	0.344004	0.495798
	O339	O	0.911415	0.119917	0.864879
	H340	H	0.923699	0.106255	0.857539
	H341	H	0.914024	0.132198	0.854971
	O342	O	0.071560	0.927627	1.077709
	H343	H	0.056805	0.929123	1.082865
	H344	H	0.058356	0.938985	1.059299
	O345	O	0.371472	0.635091	0.379096
	H346	H	0.391162	0.625961	0.364846
	H347	H	0.384042	0.619704	0.379372
	O348	O	0.677582	0.456569	0.418602
	H349	H	0.680412	0.456973	0.423458
	H350	H	0.669979	0.445501	0.411884
	O351	O	0.042553	-0.099251	-0.175434
	H352	H	0.060586	-0.106007	-0.166420
	H353	H	0.042755	-0.109952	-0.190311
	O354	O	0.820764	0.970101	-0.142729
	H355	H	0.816206	0.965840	-0.150384
	H356	H	0.827259	0.955837	-0.152081
	O357	O	-0.177820	0.969118	0.087246
	H358	H	-0.191249	0.967003	0.107038
	H359	H	-0.177581	0.970702	0.096138
	O360	O	0.624235	0.665366	0.665044
	H361	H	0.603351	0.667410	0.662169
	H362	H	0.619380	0.669193	0.639745
	O363	O	0.511895	0.497973	0.600425
	H364	H	0.517846	0.494792	0.603209
	H365	H	0.523376	0.508908	0.602829
	O366	O	0.575377	0.322318	0.345842
	H367	H	0.556892	0.308615	0.350043
	H368	H	0.572537	0.311375	0.355341
	O369	O	0.366628	0.497868	0.609979
	H370	H	0.377661	0.512184	0.616826
	H371	H	0.362504	0.490259	0.598362
	O372	O	0.386560	0.691488	0.500236
	H373	H	0.381103	0.697044	0.491253
	H374	H	0.391225	0.689646	0.490330
	O375	O	0.677091	0.545549	0.716937
	H376	H	0.673138	0.581814	0.710025
	H377	H	0.698303	0.556153	0.732545
	O378	O	0.557744	0.297810	0.576263
	H379	H	0.536645	0.282143	0.588156
	H380	H	0.544305	0.301116	0.594727
	O381	O	0.528634	0.459180	0.598139
	H382	H	0.538130	0.465268	0.613236
	H383	H	0.524387	0.468606	0.589083
	O384	O	0.139337	0.825353	0.855202
	H385	H	0.143652	0.823463	0.883467
	H386	H	0.137817	0.831992	0.857506
	O387	O	0.932397	1.143872	0.060816
	H388	H	0.925693	1.138777	0.063443
	H389	H	0.926905	1.156516	0.060804
	O390	O	0.323476	0.407853	0.675912
	H391	H	0.320190	0.416784	0.671947
	H392	H	0.335266	0.419476	0.680308
	O393	O	1.044800	0.153784	1.057509
	H394	H	1.050131	0.153767	1.054336
	H395	H	1.043887	0.164854	1.053235
	O396	O	0.143693	1.156974	1.073767
	H397	H	0.155361	1.165771	1.065146
	H398	H	0.131092	1.153370	1.059539
	O399	O	0.686186	0.679985	0.531225
	H400	H	0.679560	0.687389	0.513053
	H401	H	0.697811	0.661361	0.512646
	O402	O	0.832673	-0.066027	1.020597
	H403	H	0.831378	-0.068152	1.035005
	H404	H	0.828174	-0.084700	1.020120
	O405	O	-0.119510	-0.020198	0.038963
	H406	H	-0.124021	-0.004867	0.035456
	H407	H	-0.136373	-0.022447	0.045883
	O408	O	0.825855	1.126877	0.953394
	H409	H	0.830533	1.124387	0.940403
	H410	H	0.813669	1.140931	0.935174
	O411	O	0.846392	1.109664	-0.075587
	H412	H	0.870952	1.100686	-0.081997
	H413	H	0.833405	1.088008	-0.081623
	O414	O	-0.018316	-0.169063	0.997353
	H415	H	-0.031276	-0.167886	1.005926
	H416	H	-0.021432	-0.172768	0.980576
	O417	O	0.423548	0.608158	0.521477
	H418	H	0.420774	0.596689	0.509309
	H419	H	0.435042	0.619229	0.510033
	O420	O	0.151185	0.830643	-0.044463
	H421	H	0.133458	0.836490	-0.034054
	H422	H	0.163347	0.823700	-0.040874
	O423	O	1.531637	0.430292	-0.441766
	H424	H	1.541196	0.422811	-0.449767
	H425	H	1.520348	0.426095	-0.437309
	O426	O	0.019469	0.023200	0.829677
	H427	H	0.024786	0.003653	0.823062
	H428	H	0.018814	0.010583	0.840864
	O429	O	0.501172	0.538335	0.290191
	H430	H	0.506226	0.532491	0.281588
	H431	H	0.492923	0.543589	0.295670
