data_Molecule from HDF5

_cell_length_a		16.303147
_cell_length_b		16.145792
_cell_length_c		15.993776
_cell_angle_alpha	89.004781
_cell_angle_beta	89.596871
_cell_angle_gamma	92.177907
_symmetry_space_group_name_H-M	'P 1'
_symmetry_Int_Tables_number		1

loop_
	_symmetry_equiv_pos_as_xyz
	x,y,z

loop_
	_atom_site_label
	_atom_site_type_symbol
	_atom_site_fract_x
	_atom_site_fract_y
	_atom_site_fract_z
	H0	H	0.388850	0.836454	0.712339
	H1	H	0.595875	0.169468	0.696880
	H2	H	0.583665	0.833434	0.285905
	H3	H	0.406174	0.167215	0.278299
	H4	H	0.707517	0.412689	0.828769
	H5	H	0.718353	0.605293	0.160931
	H6	H	0.287988	0.603371	0.828735
	H7	H	0.277538	0.391500	0.160052
	H8	H	0.831726	0.712543	0.390742
	H9	H	0.159647	0.724725	0.588095
	H10	H	0.834511	0.275812	0.602204
	H11	H	0.162153	0.296726	0.396654
	H12	H	0.832449	0.396135	0.709116
	H13	H	0.161640	0.606474	0.704597
	H14	H	0.832151	0.593175	0.279510
	H15	H	0.162184	0.414898	0.281572
	H16	H	0.411295	0.713579	0.827877
	H17	H	0.602376	0.715938	0.162679
	H18	H	0.590741	0.304166	0.825826
	H19	H	0.392683	0.279238	0.159565
	H20	H	0.703120	0.835112	0.396064
	H21	H	0.719276	0.163520	0.593574
	H22	H	0.270101	0.837814	0.602327
	H23	H	0.288106	0.167641	0.392348
	H24	H	0.893090	0.337793	0.210250
	H25	H	0.099693	0.669280	0.198500
	H26	H	0.086662	0.334215	0.783530
	H27	H	0.910598	0.668433	0.780059
	H28	H	0.206417	0.909391	0.329815
	H29	H	0.214874	0.104137	0.661709
	H30	H	0.786870	0.099937	0.327787
	H31	H	0.775837	0.890907	0.661663
	H32	H	0.332779	0.213528	0.892236
	H33	H	0.662168	0.221462	0.087261
	H34	H	0.338916	0.772371	0.103349
	H35	H	0.664767	0.801587	0.897789
	H36	H	0.331946	0.895665	0.206938
	H37	H	0.661573	0.106076	0.205129
	H38	H	0.330876	0.093165	0.781791
	H39	H	0.660723	0.914873	0.779840
	H40	H	0.906376	0.213545	0.327171
	H41	H	0.097828	0.215477	0.663501
	H42	H	0.088731	0.803376	0.326833
	H43	H	0.891598	0.779065	0.659848
	H44	H	0.206309	0.335192	0.895719
	H45	H	0.221860	0.664731	0.094140
	H46	H	0.773173	0.339838	0.100861
	H47	H	0.793243	0.668568	0.892502
	H48	H	0.414658	0.115658	0.578739
	H49	H	0.592051	0.877434	0.592729
	H50	H	0.601104	0.120940	0.400589
	H51	H	0.394585	0.883416	0.404958
	H52	H	0.584331	0.413712	0.113867
	H53	H	0.596820	0.598898	0.876664
	H54	H	0.418145	0.593517	0.113905
	H55	H	0.391052	0.411107	0.871393
	H56	H	0.110538	0.592542	0.403155
	H57	H	0.874663	0.598425	0.593399
	H58	H	0.115293	0.413167	0.588856
	H59	H	0.880831	0.407507	0.404110
	H60	H	0.115906	0.410650	0.589795
	H61	H	0.881903	0.590470	0.575405
	H62	H	0.119255	0.610483	0.379763
	H63	H	0.878582	0.402296	0.399908
	H64	H	0.398289	0.589692	0.119353
	H65	H	0.594379	0.606661	0.874727
	H66	H	0.584943	0.403050	0.117761
	H67	H	0.407146	0.418078	0.877802
	H68	H	0.592233	0.120241	0.394750
	H69	H	0.575631	0.881529	0.596751
	H70	H	0.392498	0.122822	0.580727
	H71	H	0.391272	0.882262	0.404891
	H72	H	0.914417	0.619790	0.080254
	H73	H	0.089963	0.381617	0.088029
	H74	H	0.101832	0.618810	0.904417
	H75	H	0.898645	0.382040	0.901558
	H76	H	0.080449	0.912477	0.615113
	H77	H	0.079801	0.090806	0.384555
	H78	H	0.907913	0.087140	0.613165
	H79	H	0.912077	0.919267	0.381701
	H80	H	0.614257	0.116345	0.904076
	H81	H	0.378488	0.095456	0.083829
	H82	H	0.616869	0.916837	0.094659
	H83	H	0.382273	0.906615	0.909316
	H84	H	0.619368	0.907514	0.092063
	H85	H	0.381806	0.085648	0.082036
	H86	H	0.611835	0.094848	0.898041
	H87	H	0.377779	0.903658	0.899596
	H88	H	0.902803	0.091426	0.616453
	H89	H	0.090339	0.117833	0.371966
	H90	H	0.083642	0.905841	0.616720
	H91	H	0.899231	0.890320	0.367825
	H92	H	0.100186	0.621725	0.894532
	H93	H	0.085730	0.380159	0.095366
	H94	H	0.900479	0.624485	0.082643
	H95	H	0.898294	0.384518	0.907382
	H96	H	0.406264	0.125055	0.599725
	H97	H	0.580684	0.884359	0.581549
	H98	H	0.591877	0.116577	0.404824
	H99	H	0.394195	0.881492	0.403013
	H100	H	0.593110	0.411537	0.117525
	H101	H	0.602581	0.605034	0.872840
	H102	H	0.408878	0.575423	0.110915
	H103	H	0.405666	0.401337	0.871554
	H104	H	0.115289	0.622807	0.406245
	H105	H	0.880550	0.578888	0.593502
	H106	H	0.114379	0.412370	0.586282
	H107	H	0.879720	0.402293	0.406544
	H108	H	0.909907	0.624356	0.093831
	H109	H	0.081379	0.383882	0.088388
	H110	H	0.091401	0.617416	0.899494
	H111	H	0.892446	0.382210	0.905262
	H112	H	0.086521	0.912146	0.616818
	H113	H	0.109325	0.094718	0.373233
	H114	H	0.901096	0.083863	0.614782
	H115	H	0.879736	0.915872	0.371437
	H116	H	0.619886	0.110637	0.883805
	H117	H	0.378510	0.088524	0.092901
	H118	H	0.616375	0.914157	0.085553
	H119	H	0.379674	0.896168	0.907603
	C120	C	0.371861	0.011238	0.617639
	C121	C	0.615623	0.991352	0.615974
	C122	C	0.617793	0.009445	0.372617
	C123	C	0.371782	0.992323	0.373587
	C124	C	0.615132	0.385529	0.004880
	C125	C	0.625156	0.628752	0.986204
	C126	C	0.381830	0.618681	0.004214
	C127	C	0.372054	0.377492	0.984324
	C128	C	0.005735	0.628766	0.369078
	C129	C	0.987943	0.623312	0.614166
	C130	C	0.006181	0.378993	0.618354
	C131	C	0.988330	0.381085	0.374275
	C132	C	0.875201	0.513003	0.116684
	C133	C	0.118520	0.492033	0.116092
	C134	C	0.120504	0.509327	0.872018
	C135	C	0.875166	0.492913	0.873912
	C136	C	0.111933	0.885436	0.505142
	C137	C	0.121887	0.127701	0.487049
	C138	C	0.877517	0.118723	0.504101
	C139	C	0.868788	0.876403	0.484740
	C140	C	0.505628	0.128633	0.868625
	C141	C	0.488656	0.123201	0.113939
	C142	C	0.508150	0.878797	0.119727
	C143	C	0.488930	0.880880	0.875201
	C144	C	0.370107	0.886319	0.674836
	C145	C	0.616210	0.118170	0.664358
	C146	C	0.607780	0.883749	0.320800
	C147	C	0.381922	0.117728	0.316256
	C148	C	0.669863	0.391737	0.878616
	C149	C	0.680205	0.624911	0.111464
	C150	C	0.327114	0.620910	0.878486
	C151	C	0.315788	0.373814	0.110156
	C152	C	0.881192	0.676698	0.371409
	C153	C	0.111072	0.684368	0.609405
	C154	C	0.883376	0.316786	0.619807
	C155	C	0.112824	0.332166	0.376338
	C156	C	0.881989	0.376828	0.673106
	C157	C	0.111979	0.625372	0.667472
	C158	C	0.881361	0.617411	0.315902
	C159	C	0.112804	0.390794	0.319053
	C160	C	0.388248	0.675784	0.877907
	C161	C	0.622828	0.680493	0.112196
	C162	C	0.611850	0.337777	0.877064
	C163	C	0.373109	0.317830	0.109517
	C164	C	0.667350	0.884468	0.375821
	C165	C	0.677756	0.115132	0.612864
	C166	C	0.310956	0.886991	0.619714
	C167	C	0.323412	0.117856	0.373336
	C168	C	0.873889	0.387713	0.173109
	C169	C	0.119648	0.618341	0.165232
	C170	C	0.110895	0.384200	0.819363
	C171	C	0.886375	0.618511	0.817287
	C172	C	0.167790	0.889789	0.379169
	C173	C	0.176677	0.123974	0.612350
	C174	C	0.824200	0.119120	0.378031
	C175	C	0.813670	0.873517	0.611031
	C176	C	0.381707	0.177437	0.872237
	C177	C	0.612316	0.182601	0.108972
	C178	C	0.386454	0.814660	0.120871
	C179	C	0.614390	0.835097	0.877212
	C180	C	0.383100	0.876135	0.172732
	C181	C	0.612199	0.125103	0.167773
	C182	C	0.380828	0.117408	0.817326
	C183	C	0.612412	0.891732	0.818703
	C184	C	0.883735	0.175534	0.377684
	C185	C	0.118577	0.179514	0.613002
	C186	C	0.109151	0.837035	0.377567
	C187	C	0.871059	0.817574	0.610220
	C188	C	0.170085	0.384660	0.875542
	C189	C	0.180490	0.616011	0.113227
	C190	C	0.813949	0.388866	0.118697
	C191	C	0.828072	0.618682	0.873299
	C192	C	0.397212	0.098486	0.593513
	C193	C	0.590125	0.903795	0.596166
	C194	C	0.600329	0.096688	0.393611
	C195	C	0.388314	0.905152	0.397288
	C196	C	0.593744	0.404146	0.093576
	C197	C	0.604212	0.609363	0.897620
	C198	C	0.402314	0.593583	0.091881
	C199	C	0.394493	0.402803	0.896454
	C200	C	0.092416	0.613369	0.390045
	C201	C	0.901464	0.597097	0.593430
	C202	C	0.092803	0.404821	0.595042
	C203	C	0.901954	0.398669	0.396945
	C204	C	0.900790	0.600262	0.092564
	C205	C	0.093055	0.404549	0.096518
	C206	C	0.103010	0.596628	0.893176
	C207	C	0.891308	0.405601	0.897845
	C208	C	0.089884	0.904578	0.593171
	C209	C	0.100066	0.107283	0.399270
	C210	C	0.897922	0.094456	0.592062
	C211	C	0.890474	0.901232	0.396439
	C212	C	0.592726	0.112276	0.888884
	C213	C	0.401924	0.097326	0.092546
	C214	C	0.595025	0.905205	0.097202
	C215	C	0.402316	0.897145	0.898458
	Zn216	Zn	0.495252	0.002871	0.743360
	Zn217	Zn	0.495918	0.000683	0.245061
	Zn218	Zn	0.746606	0.504325	-0.004306
	Zn219	Zn	0.247719	0.499228	-0.004650
	Zn220	Zn	-0.005438	0.756183	0.492572
	Zn221	Zn	-0.001981	0.251244	0.497005
	Zn222	Zn	-0.003420	0.499928	0.744678
	Zn223	Zn	-0.002360	0.504112	0.243096
	Zn224	Zn	0.501802	0.752022	-0.002515
	Zn225	Zn	0.496765	0.256012	-0.007493
	Zn226	Zn	0.744626	-0.001690	0.495438
	Zn227	Zn	0.243683	0.002425	0.496539
	N228	N	0.407374	0.964556	0.673445
	N229	N	0.578200	0.040040	0.666930
	N230	N	0.577775	0.962443	0.318657
	N231	N	0.411224	0.038931	0.316240
	N232	N	0.672242	0.420785	0.959149
	N233	N	0.681992	0.593616	0.031788
	N234	N	0.323222	0.585849	0.957820
	N235	N	0.314880	0.410145	0.031257
	N236	N	0.959371	0.684115	0.403786
	N237	N	0.032878	0.683016	0.576829
	N238	N	0.961678	0.318118	0.586512
	N239	N	0.034507	0.325823	0.409982
	N240	N	0.959502	0.414889	0.672541
	N241	N	0.034421	0.587946	0.670355
	N242	N	0.959680	0.588420	0.314109
	N243	N	0.034609	0.420391	0.317460
	N244	N	0.421320	0.674912	0.957292
	N245	N	0.589178	0.682959	0.033361
	N246	N	0.578286	0.333762	0.956508
	N247	N	0.407459	0.320051	0.030244
	N248	N	0.673588	0.963431	0.407653
	N249	N	0.677512	0.035247	0.583607
	N250	N	0.311922	0.965903	0.584963
	N251	N	0.316763	0.039077	0.408247
	N252	N	0.911130	0.465922	0.172185
	N253	N	0.081625	0.540135	0.167566
	N254	N	0.080852	0.463028	0.816797
	N255	N	0.914889	0.539306	0.817428
	N256	N	0.169663	0.919257	0.459447
	N257	N	0.178873	0.092352	0.532821
	N258	N	0.820359	0.084122	0.457556
	N259	N	0.812260	0.909444	0.531814
	N260	N	0.460361	0.184973	0.903249
	N261	N	0.534145	0.181602	0.076188
	N262	N	0.465256	0.816180	0.088772
	N263	N	0.536739	0.828287	0.911993
	N264	N	0.459910	0.915823	0.171880
	N265	N	0.534211	0.088576	0.170860
	N266	N	0.458998	0.087897	0.814758
	N267	N	0.533496	0.919185	0.816883
	N268	N	0.916264	0.175455	0.457200
	N269	N	0.085148	0.181790	0.534116
	N270	N	0.074982	0.834083	0.456802
	N271	N	0.904501	0.818950	0.530708
	N272	N	0.176108	0.463450	0.907394
	N273	N	0.179901	0.536397	0.083546
	N274	N	0.814996	0.467790	0.084277
	N275	N	0.821019	0.539868	0.907996
	O276	O	-0.014401	0.012877	0.018388
	H277	H	-0.023316	0.010821	0.008926
	H278	H	-0.025011	0.033005	0.024796
	O279	O	0.564756	0.509629	0.490164
	H280	H	0.578926	0.519662	0.495531
	H281	H	0.555638	0.505423	0.501933
	O282	O	0.471335	0.422961	0.575415
	H283	H	0.463270	0.431741	0.580815
	H284	H	0.461389	0.409504	0.586665
	O285	O	-0.020156	0.912753	1.058125
	H286	H	-0.027275	0.913251	1.062536
	H287	H	-0.031008	0.914305	1.064559
	O288	O	0.616713	0.475498	0.521373
	H289	H	0.614277	0.482362	0.513430
	H290	H	0.625940	0.475801	0.524442
	O291	O	1.064962	1.087217	1.074947
	H292	H	1.070067	1.091993	1.073820
	H293	H	1.067115	1.088457	1.080500
	O294	O	0.990056	1.012497	0.964664
	H295	H	0.987962	1.015502	0.964686
	H296	H	0.989827	1.011041	0.962718
	O297	O	1.014891	0.021907	1.051423
	H298	H	1.013692	0.005797	1.046940
	H299	H	1.025539	0.017738	1.034407
	O300	O	0.378743	0.533769	0.406349
	H301	H	0.374695	0.532203	0.399416
	H302	H	0.380394	0.512504	0.410151
	O303	O	0.938649	-0.110064	0.085388
	H304	H	0.941255	-0.096228	0.075837
	H305	H	0.933218	-0.117323	0.091035
	O306	O	-0.023654	1.071141	1.034637
	H307	H	-0.017376	1.073154	1.035017
	H308	H	-0.017833	1.056834	1.035232
	O309	O	0.428864	0.561914	0.525149
	H310	H	0.428719	0.576184	0.517487
	H311	H	0.423397	0.569027	0.532569
	O312	O	1.062730	0.002744	0.942433
	H313	H	1.061043	0.006213	0.942687
	H314	H	1.070221	0.016019	0.962423
	O315	O	0.538032	0.474855	0.487407
	H316	H	0.542367	0.486510	0.486876
	H317	H	0.552841	0.479719	0.487562
	O318	O	0.431401	0.625652	0.437735
	H319	H	0.432426	0.622054	0.447072
	H320	H	0.429382	0.630822	0.425084
	O321	O	0.936771	0.966503	1.010767
	H322	H	0.929012	0.968580	1.011202
	H323	H	0.938960	0.976206	1.008531
	O324	O	0.334621	0.412641	0.516791
	H325	H	0.347646	0.412859	0.504976
	H326	H	0.326982	0.395862	0.510171
	O327	O	0.598165	0.434818	0.444604
	H328	H	0.605860	0.435032	0.432407
	H329	H	0.598841	0.448002	0.460072
	O330	O	0.990276	-0.045651	0.991533
	H331	H	0.984782	-0.046436	0.997137
	H332	H	0.995229	-0.058586	0.986459
	O333	O	1.075448	0.995912	-0.004486
	H334	H	1.064393	1.003470	-0.006659
	H335	H	1.083808	1.006563	-0.009468
	O336	O	0.447594	0.609361	0.438974
	H337	H	0.437169	0.596678	0.438496
	H338	H	0.444579	0.612777	0.430923
	O339	O	0.529340	0.511640	0.487654
	H340	H	0.527722	0.491137	0.488425
	H341	H	0.525633	0.513886	0.484648
	O342	O	-0.042391	0.959675	-0.081021
	H343	H	-0.045692	0.959451	-0.082826
	H344	H	-0.039860	0.949989	-0.077240
	O345	O	0.007771	-0.028643	-0.098170
	H346	H	0.003634	-0.028505	-0.099494
	H347	H	0.014818	-0.018388	-0.106413
	O348	O	0.545828	0.539433	0.451418
	H349	H	0.543139	0.552404	0.437353
	H350	H	0.543066	0.546443	0.461843
	O351	O	0.397529	0.452441	0.616069
	H352	H	0.391808	0.448252	0.603175
	H353	H	0.387399	0.470730	0.608456
	O354	O	0.589984	0.485245	0.534812
	H355	H	0.584221	0.494086	0.537204
	H356	H	0.585060	0.471164	0.548958
	O357	O	0.511829	0.539572	0.631454
	H358	H	0.500649	0.534032	0.622631
	H359	H	0.501387	0.533909	0.642197
	O360	O	0.067224	0.084706	0.049226
	H361	H	0.079682	0.083807	0.054308
	H362	H	0.063952	0.070154	0.041631
	O363	O	0.421682	0.377706	0.475456
	H364	H	0.435796	0.384859	0.478770
	H365	H	0.423387	0.368127	0.479407
	O366	O	0.137166	0.126772	1.011059
	H367	H	0.143361	0.121924	1.023922
	H368	H	0.141287	0.126255	1.013923
	O369	O	0.481516	0.451766	0.526389
	H370	H	0.489614	0.444369	0.531877
	H371	H	0.488717	0.459880	0.534874
