data_Molecule from HDF5

_cell_length_a		16.121476
_cell_length_b		16.249102
_cell_length_c		16.325658
_cell_angle_alpha	89.996859
_cell_angle_beta	90.102167
_cell_angle_gamma	89.878429
_symmetry_space_group_name_H-M	'P 1'
_symmetry_Int_Tables_number		1

loop_
	_symmetry_equiv_pos_as_xyz
	x,y,z

loop_
	_atom_site_label
	_atom_site_type_symbol
	_atom_site_fract_x
	_atom_site_fract_y
	_atom_site_fract_z
	H0	H	0.405105	0.837412	0.714130
	H1	H	0.602079	0.164847	0.715981
	H2	H	0.601823	0.836933	0.286350
	H3	H	0.401929	0.164546	0.284286
	H4	H	0.713274	0.404674	0.834563
	H5	H	0.715554	0.597271	0.162687
	H6	H	0.288358	0.598503	0.834879
	H7	H	0.289576	0.403418	0.163038
	H8	H	0.837759	0.716268	0.399990
	H9	H	0.167124	0.713508	0.598115
	H10	H	0.836593	0.288856	0.596037
	H11	H	0.168212	0.289047	0.403431
	H12	H	0.836856	0.402800	0.712078
	H13	H	0.166714	0.599822	0.713400
	H14	H	0.837286	0.600616	0.284671
	H15	H	0.166702	0.400621	0.284706
	H16	H	0.401585	0.717194	0.836138
	H17	H	0.600736	0.714739	0.162729
	H18	H	0.602452	0.283969	0.836568
	H19	H	0.403514	0.285635	0.162326
	H20	H	0.716258	0.836427	0.404371
	H21	H	0.713893	0.166780	0.595675
	H22	H	0.290518	0.836918	0.598536
	H23	H	0.290310	0.165887	0.404042
	H24	H	0.902772	0.337443	0.213705
	H25	H	0.103111	0.663610	0.215528
	H26	H	0.101211	0.337264	0.783844
	H27	H	0.903019	0.664840	0.785079
	H28	H	0.216094	0.904992	0.336121
	H29	H	0.215878	0.098511	0.664811
	H30	H	0.788522	0.100541	0.336051
	H31	H	0.791279	0.905433	0.663688
	H32	H	0.336935	0.213089	0.902945
	H33	H	0.667948	0.212959	0.097947
	H34	H	0.336246	0.787658	0.097672
	H35	H	0.667650	0.789487	0.904174
	H36	H	0.337026	0.902051	0.214021
	H37	H	0.667747	0.098664	0.214332
	H38	H	0.338228	0.100265	0.785292
	H39	H	0.666337	0.900520	0.785887
	H40	H	0.903502	0.216188	0.335980
	H41	H	0.100938	0.217278	0.663107
	H42	H	0.102473	0.785938	0.336667
	H43	H	0.902806	0.785694	0.662335
	H44	H	0.216010	0.335917	0.901795
	H45	H	0.213222	0.666037	0.094768
	H46	H	0.790926	0.335896	0.094182
	H47	H	0.789533	0.665599	0.902843
	H48	H	0.413930	0.119581	0.597299
	H49	H	0.600233	0.884866	0.588060
	H50	H	0.596474	0.120367	0.400364
	H51	H	0.403669	0.883380	0.410159
	H52	H	0.608147	0.401625	0.120771
	H53	H	0.586310	0.607953	0.881071
	H54	H	0.403726	0.587775	0.114860
	H55	H	0.411955	0.389641	0.879004
	H56	H	0.116801	0.585713	0.411304
	H57	H	0.886440	0.590440	0.585827
	H58	H	0.121061	0.400892	0.586039
	H59	H	0.884376	0.417351	0.398861
	H60	H	0.116237	0.418358	0.589022
	H61	H	0.882494	0.590281	0.600007
	H62	H	0.122707	0.591938	0.397857
	H63	H	0.880225	0.398843	0.400932
	H64	H	0.417656	0.594049	0.112357
	H65	H	0.609214	0.596824	0.877744
	H66	H	0.594226	0.418665	0.112363
	H67	H	0.393136	0.413659	0.879508
	H68	H	0.588958	0.115596	0.406878
	H69	H	0.600914	0.881654	0.600588
	H70	H	0.411057	0.116688	0.589746
	H71	H	0.410964	0.881988	0.398514
	H72	H	0.913153	0.614840	0.085693
	H73	H	0.090998	0.387515	0.085713
	H74	H	0.087081	0.613282	0.911537
	H75	H	0.910992	0.383782	0.904710
	H76	H	0.093474	0.912826	0.613206
	H77	H	0.093813	0.094546	0.384668
	H78	H	0.915593	0.104770	0.617097
	H79	H	0.920448	0.918587	0.388800
	H80	H	0.620535	0.088032	0.904877
	H81	H	0.381656	0.092134	0.101545
	H82	H	0.618662	0.904381	0.086299
	H83	H	0.383382	0.906992	0.907204
	H84	H	0.618814	0.914892	0.097547
	H85	H	0.383693	0.100806	0.090216
	H86	H	0.622076	0.096823	0.907443
	H87	H	0.384271	0.910540	0.907404
	H88	H	0.900270	0.096992	0.619300
	H89	H	0.096582	0.098454	0.383129
	H90	H	0.091757	0.900097	0.617211
	H91	H	0.914383	0.894256	0.380057
	H92	H	0.103566	0.619038	0.909838
	H93	H	0.103889	0.381018	0.092915
	H94	H	0.900309	0.620301	0.093166
	H95	H	0.905985	0.382866	0.904773
	H96	H	0.406440	0.120180	0.595710
	H97	H	0.590612	0.885871	0.595690
	H98	H	0.598598	0.118432	0.410667
	H99	H	0.416876	0.886873	0.410348
	H100	H	0.585396	0.397666	0.115328
	H101	H	0.589658	0.583847	0.887205
	H102	H	0.405762	0.602326	0.118501
	H103	H	0.422225	0.416301	0.888779
	H104	H	0.121226	0.600929	0.410900
	H105	H	0.881412	0.602721	0.591595
	H106	H	0.123677	0.407859	0.603000
	H107	H	0.887194	0.408573	0.416081
	H108	H	0.914015	0.619513	0.100526
	H109	H	0.090423	0.382260	0.099647
	H110	H	0.092173	0.619821	0.896115
	H111	H	0.908670	0.382645	0.901190
	H112	H	0.103922	0.907044	0.619422
	H113	H	0.098308	0.093750	0.384378
	H114	H	0.913468	0.088015	0.612976
	H115	H	0.896068	0.913195	0.380705
	H116	H	0.618817	0.091193	0.913048
	H117	H	0.387772	0.087244	0.089542
	H118	H	0.623705	0.900756	0.100100
	H119	H	0.383223	0.909023	0.904507
	C120	C	0.381871	0.010140	0.622381
	C121	C	0.624845	0.992800	0.622566
	C122	C	0.623887	0.009690	0.378452
	C123	C	0.381399	0.992689	0.378456
	C124	C	0.623732	0.378398	0.007426
	C125	C	0.623707	0.623473	0.990647
	C126	C	0.380312	0.623003	0.007594
	C127	C	0.380658	0.378422	0.990684
	C128	C	0.010809	0.622058	0.377968
	C129	C	0.992922	0.622420	0.621043
	C130	C	0.010886	0.380205	0.620345
	C131	C	0.993469	0.379780	0.377860
	C132	C	0.880485	0.509690	0.120619
	C133	C	0.123984	0.492147	0.120913
	C134	C	0.123218	0.509104	0.877323
	C135	C	0.880175	0.491738	0.876422
	C136	C	0.125192	0.878445	0.508576
	C137	C	0.124667	0.123671	0.492227
	C138	C	0.880888	0.124468	0.508225
	C139	C	0.881881	0.880268	0.491260
	C140	C	0.511359	0.121272	0.879385
	C141	C	0.493835	0.121592	0.121726
	C142	C	0.510719	0.878790	0.122199
	C143	C	0.493194	0.880424	0.878785
	C144	C	0.384424	0.886240	0.676616
	C145	C	0.622383	0.116124	0.677671
	C146	C	0.622370	0.885834	0.324215
	C147	C	0.382916	0.115913	0.323061
	C148	C	0.676857	0.383010	0.883785
	C149	C	0.677980	0.618763	0.113903
	C150	C	0.325682	0.619568	0.883983
	C151	C	0.326530	0.382198	0.114062
	C152	C	0.886736	0.677721	0.380117
	C153	C	0.117587	0.676508	0.618740
	C154	C	0.886065	0.326144	0.616659
	C155	C	0.118532	0.325779	0.381724
	C156	C	0.886151	0.382454	0.674372
	C157	C	0.117213	0.619947	0.676195
	C158	C	0.886582	0.620304	0.322668
	C159	C	0.117834	0.381332	0.323063
	C160	C	0.382099	0.678529	0.884619
	C161	C	0.621078	0.677328	0.113790
	C162	C	0.621483	0.323088	0.884876
	C163	C	0.383432	0.323766	0.113712
	C164	C	0.679138	0.885763	0.382736
	C165	C	0.677981	0.117027	0.618073
	C166	C	0.327587	0.886169	0.619061
	C167	C	0.327241	0.116690	0.382302
	C168	C	0.882877	0.386288	0.175451
	C169	C	0.121803	0.615289	0.176160
	C170	C	0.121170	0.385754	0.822043
	C171	C	0.882598	0.615787	0.822531
	C172	C	0.179121	0.883116	0.385272
	C173	C	0.178538	0.119762	0.615760
	C174	C	0.826319	0.121017	0.384892
	C175	C	0.828048	0.884063	0.614669
	C176	C	0.386594	0.175979	0.881889
	C177	C	0.618487	0.175772	0.118686
	C178	C	0.385738	0.825234	0.118555
	C179	C	0.617961	0.826171	0.882770
	C180	C	0.386340	0.881474	0.176662
	C181	C	0.618414	0.118495	0.176254
	C182	C	0.387199	0.120059	0.823468
	C183	C	0.617635	0.881717	0.824443
	C184	C	0.883627	0.178496	0.384815
	C185	C	0.121820	0.179100	0.614804
	C186	C	0.122496	0.823966	0.385445
	C187	C	0.883805	0.824726	0.614067
	C188	C	0.178294	0.385268	0.880703
	C189	C	0.177038	0.616415	0.116536
	C190	C	0.827161	0.385401	0.116158
	C191	C	0.826485	0.616304	0.881199
	C192	C	0.404128	0.096391	0.600787
	C193	C	0.603457	0.906311	0.601295
	C194	C	0.601433	0.095876	0.399657
	C195	C	0.403889	0.906280	0.400088
	C196	C	0.602343	0.399809	0.093909
	C197	C	0.601677	0.602397	0.904269
	C198	C	0.402392	0.601122	0.093237
	C199	C	0.402667	0.400027	0.904831
	C200	C	0.097678	0.599516	0.400024
	C201	C	0.905933	0.600931	0.598838
	C202	C	0.097707	0.402282	0.598867
	C203	C	0.906498	0.401752	0.398940
	C204	C	0.902435	0.596051	0.099351
	C205	C	0.101771	0.405773	0.099263
	C206	C	0.100711	0.595175	0.899332
	C207	C	0.901920	0.405343	0.897305
	C208	C	0.102730	0.899981	0.594505
	C209	C	0.102726	0.101856	0.406291
	C210	C	0.902896	0.102930	0.594353
	C211	C	0.904013	0.902048	0.405341
	C212	C	0.598002	0.098673	0.901819
	C213	C	0.406723	0.099913	0.100159
	C214	C	0.597937	0.900190	0.100881
	C215	C	0.406088	0.902428	0.900086
	Zn216	Zn	0.502621	0.000807	0.750994
	Zn217	Zn	0.502470	0.000135	0.249603
	Zn218	Zn	0.752048	0.500626	-0.001381
	Zn219	Zn	0.252126	0.500817	-0.000427
	Zn220	Zn	0.002583	0.750011	0.499882
	Zn221	Zn	0.002448	0.252835	0.499494
	Zn222	Zn	0.001247	0.501148	0.748184
	Zn223	Zn	0.002235	0.500842	0.249767
	Zn224	Zn	0.501356	0.752345	-0.000481
	Zn225	Zn	0.502590	0.249231	-0.000376
	Zn226	Zn	0.753074	0.002412	0.499909
	Zn227	Zn	0.253896	0.001128	0.500938
	N228	N	0.417190	0.964159	0.679059
	N229	N	0.589873	0.037913	0.680493
	N230	N	0.588797	0.963648	0.321353
	N231	N	0.415651	0.037584	0.320406
	N232	N	0.678157	0.416895	0.961114
	N233	N	0.679672	0.586180	0.036207
	N234	N	0.324383	0.585890	0.961413
	N235	N	0.324663	0.415563	0.036676
	N236	N	0.964987	0.678906	0.413757
	N237	N	0.039419	0.678037	0.584750
	N238	N	0.964601	0.324852	0.583680
	N239	N	0.040382	0.324959	0.415152
	N240	N	0.964653	0.415241	0.677078
	N241	N	0.038768	0.586901	0.677419
	N242	N	0.964994	0.586462	0.321138
	N243	N	0.039081	0.414299	0.320516
	N244	N	0.415172	0.681004	0.962324
	N245	N	0.587971	0.680234	0.036041
	N246	N	0.589541	0.320037	0.962888
	N247	N	0.416153	0.321205	0.035906
	N248	N	0.680170	0.963791	0.415787
	N249	N	0.679502	0.039518	0.584534
	N250	N	0.325900	0.964274	0.586063
	N251	N	0.326350	0.039148	0.416141
	N252	N	0.915647	0.464405	0.178104
	N253	N	0.089575	0.537035	0.179017
	N254	N	0.087796	0.463830	0.819931
	N255	N	0.915345	0.537673	0.819667
	N256	N	0.181041	0.916069	0.462878
	N257	N	0.180198	0.085866	0.538556
	N258	N	0.824394	0.088129	0.462669
	N259	N	0.826741	0.917958	0.537388
	N260	N	0.464591	0.176656	0.915921
	N261	N	0.539992	0.177720	0.085458
	N262	N	0.464119	0.823324	0.085516
	N263	N	0.539536	0.825299	0.915918
	N264	N	0.465087	0.914142	0.178879
	N265	N	0.539848	0.085718	0.178271
	N266	N	0.465772	0.086757	0.821842
	N267	N	0.538923	0.914600	0.821770
	N268	N	0.916726	0.180846	0.462433
	N269	N	0.089113	0.181564	0.536945
	N270	N	0.089695	0.821042	0.463241
	N271	N	0.916456	0.822208	0.536234
	N272	N	0.179617	0.462795	0.914394
	N273	N	0.178434	0.538757	0.082953
	N274	N	0.825430	0.463173	0.082925
	N275	N	0.824485	0.538203	0.913887
	O276	O	-0.020828	0.051926	1.053411
	H277	H	-0.020206	0.050579	1.047116
	H278	H	-0.018282	0.063113	1.061541
	O279	O	0.477736	0.487565	0.461573
	H280	H	0.472232	0.491699	0.467381
	H281	H	0.476567	0.490358	0.466408
	O282	O	0.449361	0.516312	0.449107
	H283	H	0.451558	0.516457	0.438177
	H284	H	0.451815	0.529880	0.447472
	O285	O	0.450036	0.462321	0.460878
	H286	H	0.449650	0.464700	0.461442
	H287	H	0.443903	0.459606	0.467833
	O288	O	0.491718	0.526286	0.418482
	H289	H	0.487320	0.508036	0.412539
	H290	H	0.499658	0.527076	0.407045
	O291	O	-0.005278	1.063122	1.027364
	H292	H	-0.009784	1.057801	1.025952
	H293	H	-0.007228	1.064591	1.033392
	O294	O	0.457505	0.475105	0.432510
	H295	H	0.457702	0.479246	0.436160
	H296	H	0.454051	0.470574	0.428737
	O297	O	1.000731	0.071016	0.041442
	H298	H	1.006610	0.072664	0.033859
	H299	H	0.996610	0.072862	0.047984
