data_Molecule from HDF5

_cell_length_a		16.327069
_cell_length_b		16.404060
_cell_length_c		16.509831
_cell_angle_alpha	90.064411
_cell_angle_beta	89.972175
_cell_angle_gamma	90.082811
_symmetry_space_group_name_H-M	'P 1'
_symmetry_Int_Tables_number		1

loop_
	_symmetry_equiv_pos_as_xyz
	x,y,z

loop_
	_atom_site_label
	_atom_site_type_symbol
	_atom_site_fract_x
	_atom_site_fract_y
	_atom_site_fract_z
	H0	H	0.399876	0.849154	0.737649
	H1	H	0.620733	0.163268	0.736246
	H2	H	0.617683	0.848773	0.290399
	H3	H	0.402762	0.161852	0.287397
	H4	H	0.735653	0.396566	0.855666
	H5	H	0.729642	0.606213	0.170628
	H6	H	0.287781	0.612142	0.855388
	H7	H	0.288051	0.397877	0.169087
	H8	H	0.851691	0.720639	0.410977
	H9	H	0.170257	0.725774	0.619456
	H10	H	0.850484	0.284075	0.615384
	H11	H	0.168926	0.277633	0.402941
	H12	H	0.852650	0.395785	0.734348
	H13	H	0.171497	0.608429	0.733656
	H14	H	0.853799	0.609202	0.291729
	H15	H	0.168921	0.392336	0.286410
	H16	H	0.401597	0.730163	0.856604
	H17	H	0.614817	0.724718	0.169505
	H18	H	0.620857	0.279793	0.856334
	H19	H	0.402748	0.279952	0.169191
	H20	H	0.725837	0.844119	0.413699
	H21	H	0.734359	0.163120	0.617926
	H22	H	0.288711	0.846919	0.617600
	H23	H	0.283844	0.159471	0.399931
	H24	H	0.901376	0.346689	0.237448
	H25	H	0.121453	0.660466	0.237977
	H26	H	0.124291	0.345907	0.787736
	H27	H	0.908728	0.661155	0.791385
	H28	H	0.236424	0.893506	0.355381
	H29	H	0.237648	0.112980	0.665913
	H30	H	0.791236	0.106846	0.353254
	H31	H	0.792232	0.901026	0.671093
	H32	H	0.353658	0.229411	0.904298
	H33	H	0.670610	0.228053	0.119758
	H34	H	0.353136	0.782247	0.120722
	H35	H	0.668594	0.784231	0.906297
	H36	H	0.354050	0.898325	0.235992
	H37	H	0.670455	0.113863	0.235608
	H38	H	0.354911	0.117365	0.785280
	H39	H	0.668081	0.898807	0.789294
	H40	H	0.901016	0.228162	0.355491
	H41	H	0.121074	0.229003	0.666949
	H42	H	0.121554	0.775766	0.356710
	H43	H	0.908235	0.783636	0.670766
	H44	H	0.237595	0.346613	0.905009
	H45	H	0.234668	0.662352	0.119295
	H46	H	0.786304	0.346815	0.120566
	H47	H	0.794203	0.663242	0.908952
	H48	H	0.431092	0.114639	0.598387
	H49	H	0.593393	0.893785	0.604763
	H50	H	0.594387	0.117402	0.426440
	H51	H	0.422396	0.890502	0.423331
	H52	H	0.598076	0.425301	0.121655
	H53	H	0.601813	0.591726	0.899174
	H54	H	0.420462	0.594092	0.125881
	H55	H	0.428212	0.424110	0.904108
	H56	H	0.127582	0.588491	0.419629
	H57	H	0.897346	0.588894	0.608026
	H58	H	0.122810	0.412285	0.590262
	H59	H	0.900918	0.418572	0.429701
	H60	H	0.121834	0.425917	0.601116
	H61	H	0.895824	0.597884	0.602343
	H62	H	0.125941	0.594547	0.428971
	H63	H	0.898234	0.419840	0.418832
	H64	H	0.423977	0.591582	0.123741
	H65	H	0.598520	0.597338	0.898262
	H66	H	0.592021	0.412065	0.123920
	H67	H	0.430637	0.413311	0.901797
	H68	H	0.608486	0.120829	0.426780
	H69	H	0.603038	0.893142	0.596072
	H70	H	0.426516	0.114806	0.592685
	H71	H	0.428040	0.892277	0.420078
	H72	H	0.929957	0.615631	0.104484
	H73	H	0.097842	0.391030	0.103316
	H74	H	0.103476	0.615718	0.928126
	H75	H	0.924707	0.388201	0.919081
	H76	H	0.101341	0.916940	0.623228
	H77	H	0.092156	0.087479	0.402579
	H78	H	0.921678	0.097041	0.626579
	H79	H	0.923894	0.902946	0.396513
	H80	H	0.626878	0.090071	0.915732
	H81	H	0.399413	0.091752	0.097834
	H82	H	0.624326	0.918400	0.098355
	H83	H	0.394597	0.917782	0.919631
	H84	H	0.625660	0.917827	0.103813
	H85	H	0.400166	0.089784	0.100464
	H86	H	0.624989	0.099090	0.929261
	H87	H	0.396901	0.914463	0.928247
	H88	H	0.920185	0.090061	0.623259
	H89	H	0.095482	0.091568	0.400157
	H90	H	0.097366	0.917153	0.622433
	H91	H	0.911830	0.911906	0.395832
	H92	H	0.100980	0.618590	0.916197
	H93	H	0.093486	0.394118	0.097247
	H94	H	0.921049	0.616001	0.097396
	H95	H	0.927745	0.391471	0.926055
	H96	H	0.424130	0.118056	0.599212
	H97	H	0.604565	0.887956	0.607481
	H98	H	0.600945	0.122411	0.415385
	H99	H	0.427068	0.894406	0.426535
	H100	H	0.606002	0.414148	0.127352
	H101	H	0.604861	0.596146	0.895876
	H102	H	0.425263	0.596130	0.124730
	H103	H	0.420065	0.417111	0.899612
	H104	H	0.122553	0.584430	0.428451
	H105	H	0.899617	0.588748	0.597745
	H106	H	0.128770	0.410734	0.607096
	H107	H	0.896607	0.409955	0.424064
	H108	H	0.919747	0.619497	0.107793
	H109	H	0.100827	0.392165	0.096172
	H110	H	0.091790	0.612806	0.923112
	H111	H	0.920082	0.389198	0.925313
	H112	H	0.098994	0.913379	0.624199
	H113	H	0.097435	0.085850	0.401015
	H114	H	0.926910	0.093011	0.623242
	H115	H	0.924820	0.917311	0.400990
	H116	H	0.619337	0.083796	0.928552
	H117	H	0.398694	0.092839	0.100813
	H118	H	0.626235	0.912982	0.100230
	H119	H	0.398577	0.923610	0.926701
	C120	C	0.391684	0.012699	0.631464
	C121	C	0.633563	0.996301	0.635092
	C122	C	0.632598	0.014753	0.391361
	C123	C	0.390652	0.995864	0.389488
	C124	C	0.633217	0.382987	0.020968
	C125	C	0.632713	0.626353	1.002494
	C126	C	0.389342	0.627148	0.021106
	C127	C	0.391160	0.383525	1.004688
	C128	C	0.020576	0.622320	0.393270
	C129	C	1.003153	0.623977	0.634598
	C130	C	0.019421	0.382366	0.632502
	C131	C	1.002785	0.381671	0.390082
	C132	C	0.889677	0.512570	0.135148
	C133	C	0.132302	0.495899	0.133145
	C134	C	0.134368	0.511969	0.889712
	C135	C	0.891771	0.494551	0.891486
	C136	C	0.133412	0.881153	0.520276
	C137	C	0.131667	0.124318	0.502928
	C138	C	0.889324	0.125661	0.520225
	C139	C	0.889632	0.881041	0.503447
	C140	C	0.519989	0.126435	0.890439
	C141	C	0.503933	0.125922	0.133406
	C142	C	0.520693	0.883539	0.134062
	C143	C	0.501224	0.884816	0.891188
	C144	C	0.384431	0.895780	0.695503
	C145	C	0.637660	0.115376	0.695809
	C146	C	0.635404	0.895428	0.331078
	C147	C	0.385398	0.114215	0.327692
	C148	C	0.695353	0.378870	0.902954
	C149	C	0.690691	0.626208	0.122716
	C150	C	0.328050	0.630028	0.902733
	C151	C	0.328774	0.379872	0.122199
	C152	C	0.900204	0.681909	0.391683
	C153	C	0.122951	0.684864	0.637124
	C154	C	0.899151	0.322772	0.634310
	C155	C	0.121506	0.318832	0.385631
	C156	C	0.900192	0.378543	0.693641
	C157	C	0.123272	0.626410	0.694083
	C158	C	0.901193	0.626301	0.332304
	C159	C	0.121716	0.376107	0.327659
	C160	C	0.384695	0.689128	0.903406
	C161	C	0.633706	0.685021	0.122231
	C162	C	0.637766	0.320953	0.903311
	C163	C	0.386032	0.321212	0.122054
	C164	C	0.689126	0.893228	0.392128
	C165	C	0.694343	0.115603	0.636671
	C166	C	0.329032	0.894416	0.635621
	C167	C	0.326031	0.112870	0.383781
	C168	C	0.884405	0.394099	0.196737
	C169	C	0.138141	0.613730	0.196321
	C170	C	0.140464	0.393515	0.828410
	C171	C	0.890104	0.613857	0.831493
	C172	C	0.195732	0.876200	0.402432
	C173	C	0.196006	0.129894	0.619452
	C174	C	0.829354	0.126855	0.401330
	C175	C	0.831399	0.881505	0.623239
	C176	C	0.401439	0.189402	0.886388
	C177	C	0.622877	0.187717	0.137385
	C178	C	0.401045	0.822850	0.137770
	C179	C	0.620714	0.823981	0.887924
	C180	C	0.401434	0.880715	0.195287
	C181	C	0.622769	0.130805	0.195121
	C182	C	0.401734	0.133365	0.827300
	C183	C	0.620187	0.880980	0.829581
	C184	C	0.884824	0.186717	0.402227
	C185	C	0.137836	0.187717	0.620018
	C186	C	0.138602	0.817309	0.403315
	C187	C	0.888988	0.822995	0.623015
	C188	C	0.197135	0.393901	0.886837
	C189	C	0.194295	0.614836	0.137033
	C190	C	0.827029	0.394170	0.138389
	C191	C	0.833045	0.614797	0.889961
	C192	C	0.419303	0.094534	0.604384
	C193	C	0.607672	0.913300	0.610207
	C194	C	0.608285	0.098239	0.415742
	C195	C	0.418138	0.913913	0.415714
	C196	C	0.606424	0.409508	0.102899
	C197	C	0.608671	0.602066	0.919544
	C198	C	0.415463	0.601530	0.103189
	C199	C	0.418531	0.410422	0.923107
	C200	C	0.103799	0.596644	0.418540
	C201	C	0.919363	0.598941	0.609851
	C202	C	0.102705	0.408518	0.606691
	C203	C	0.920328	0.408526	0.416463
	C204	C	0.916026	0.595353	0.110251
	C205	C	0.105322	0.413867	0.106446
	C206	C	0.106693	0.594245	0.915335
	C207	C	0.916993	0.411578	0.916392
	C208	C	0.106892	0.908211	0.601890
	C209	C	0.103345	0.096512	0.422265
	C210	C	0.915547	0.100617	0.602705
	C211	C	0.913413	0.904166	0.419679
	C212	C	0.602190	0.099013	0.916997
	C213	C	0.421088	0.099111	0.107371
	C214	C	0.603735	0.909067	0.108333
	C215	C	0.418390	0.911003	0.917397
	Zn216	Zn	0.510057	0.006226	0.762493
	Zn217	Zn	0.513011	0.005762	0.261666
	Zn218	Zn	0.761898	0.504342	0.012038
	Zn219	Zn	0.260947	0.504661	0.011965
	Zn220	Zn	0.011940	0.752305	0.512866
	Zn221	Zn	0.010411	0.253692	0.511307
	Zn222	Zn	0.012261	0.501891	0.762101
	Zn223	Zn	0.012152	0.503203	0.262641
	Zn224	Zn	0.511017	0.755870	0.012281
	Zn225	Zn	0.512102	0.253790	0.012773
	Zn226	Zn	0.761198	0.004000	0.512222
	Zn227	Zn	0.262057	0.003785	0.510924
	N228	N	0.422799	0.970257	0.692701
	N229	N	0.600439	0.040099	0.694899
	N230	N	0.601295	0.971962	0.330277
	N231	N	0.424764	0.040316	0.330903
	N232	N	0.692907	0.416503	0.977455
	N233	N	0.690471	0.590744	0.047267
	N234	N	0.330972	0.592143	0.976793
	N235	N	0.331524	0.417726	0.047997
	N236	N	0.975492	0.679694	0.428683
	N237	N	0.047277	0.683533	0.600783
	N238	N	0.974599	0.324624	0.597421
	N239	N	0.046747	0.322166	0.423730
	N240	N	0.976119	0.414636	0.692731
	N241	N	0.047821	0.589176	0.692493
	N242	N	0.977004	0.589925	0.333167
	N243	N	0.046908	0.414448	0.330295
	N244	N	0.421878	0.687653	0.978127
	N245	N	0.598665	0.685559	0.046437
	N246	N	0.600012	0.323406	0.977607
	N247	N	0.423816	0.323245	0.047763
	N248	N	0.687498	0.968360	0.429006
	N249	N	0.691935	0.040633	0.599577
	N250	N	0.333350	0.968216	0.596306
	N251	N	0.328925	0.038230	0.421198
	N252	N	0.922647	0.468723	0.194839
	N253	N	0.100420	0.538781	0.194048
	N254	N	0.102236	0.468155	0.829954
	N255	N	0.925625	0.537954	0.832123
	N256	N	0.192666	0.915191	0.476062
	N257	N	0.192450	0.091371	0.545676
	N258	N	0.831914	0.089732	0.475864
	N259	N	0.831388	0.916609	0.547682
	N260	N	0.475990	0.185088	0.925056
	N261	N	0.547966	0.184684	0.099591
	N262	N	0.476155	0.824653	0.100306
	N263	N	0.545545	0.826155	0.925395
	N264	N	0.476788	0.917894	0.193128
	N265	N	0.547536	0.093296	0.192932
	N266	N	0.476530	0.095212	0.829585
	N267	N	0.544723	0.917728	0.831316
	N268	N	0.921225	0.186123	0.477305
	N269	N	0.098524	0.184393	0.546560
	N270	N	0.100695	0.820252	0.477597
	N271	N	0.924358	0.822551	0.547545
	N272	N	0.193416	0.468614	0.924258
	N273	N	0.190810	0.540698	0.098296
	N274	N	0.830350	0.468796	0.100474
	N275	N	0.833720	0.539542	0.926527
	O276	O	0.679103	0.299433	0.505590
	H277	H	0.676181	0.289288	0.522077
	H278	H	0.682068	0.303572	0.519847
	O279	O	1.224724	-0.211384	0.991897
	H280	H	1.245030	-0.203642	1.001720
	H281	H	1.240672	-0.216592	0.993300
	O282	O	-0.007231	0.793695	1.227897
	H283	H	-0.027048	0.777059	1.241036
	H284	H	-0.039333	0.787978	1.222247
	O285	O	0.048722	0.957685	0.215660
	H286	H	0.032722	0.922113	0.211672
	H287	H	0.029195	0.965211	0.200841
	O288	O	0.868509	0.824127	-0.140929
	H289	H	0.870853	0.839753	-0.122906
	H290	H	0.891565	0.831421	-0.120088
	O291	O	0.459622	0.554448	0.732136
	H292	H	0.478098	0.572151	0.731905
	H293	H	0.472888	0.555083	0.723652
	O294	O	-0.205829	-0.208798	1.044226
	H295	H	-0.206252	-0.209124	1.059849
	H296	H	-0.227262	-0.228269	1.063597
	O297	O	0.300722	0.379685	0.450845
	H298	H	0.277436	0.353725	0.452651
	H299	H	0.303326	0.384919	0.474647
	O300	O	0.701754	0.693058	0.706356
	H301	H	0.689641	0.716009	0.728176
	H302	H	0.680365	0.700379	0.693586
	O303	O	0.607606	0.700284	0.555421
	H304	H	0.622375	0.688476	0.546496
	H305	H	0.589075	0.707363	0.539605
	O306	O	0.564150	0.367861	0.619455
	H307	H	0.580487	0.379148	0.633749
	H308	H	0.547110	0.375930	0.602362
	O309	O	1.028039	0.215980	0.222991
	H310	H	1.046194	0.228677	0.244397
	H311	H	1.030043	0.205373	0.235233
	O312	O	0.220024	0.980330	0.818122
	H313	H	0.206339	0.991726	0.828834
	H314	H	0.240984	0.959396	0.800498
	O315	O	0.517106	0.598471	0.392463
	H316	H	0.507229	0.621843	0.377775
	H317	H	0.501774	0.586613	0.391759
	O318	O	1.225839	0.209688	0.029215
	H319	H	1.247743	0.240257	0.021850
	H320	H	1.208665	0.208533	0.047653
	O321	O	-0.136782	0.197377	-0.176863
	H322	H	-0.138862	0.200773	-0.151218
	H323	H	-0.147884	0.162033	-0.193416
	O324	O	0.506004	0.596368	0.337023
	H325	H	0.486931	0.604437	0.337021
	H326	H	0.498401	0.579751	0.333149
	O327	O	0.327347	0.321654	0.686811
	H328	H	0.336655	0.352703	0.696106
	H329	H	0.360805	0.332654	0.699772
	O330	O	0.056929	0.803753	0.051970
	H331	H	0.078816	0.793403	0.047963
	H332	H	0.062856	0.799450	0.060405
	O333	O	0.349131	0.515994	0.526924
	H334	H	0.357001	0.506363	0.538395
	H335	H	0.353272	0.495875	0.523671
	O336	O	0.217561	0.063327	0.221318
	H337	H	0.230987	0.056442	0.232984
	H338	H	0.202373	0.037852	0.237632
	O339	O	0.032676	0.872473	0.036671
	H340	H	0.052594	0.861979	0.058853
	H341	H	0.013297	0.864775	0.034543
	O342	O	-0.196339	0.968987	1.222532
	H343	H	-0.202723	0.993085	1.204200
	H344	H	-0.209927	0.987125	1.227867
	O345	O	0.537728	0.715025	-0.277266
	H346	H	0.528355	0.744368	-0.268447
	H347	H	0.515867	0.722973	-0.297674
	O348	O	0.707384	0.453352	0.526279
	H349	H	0.697352	0.460425	0.528545
	H350	H	0.723209	0.453448	0.522990
	O351	O	-0.099568	0.985133	1.006746
	H352	H	-0.106746	0.992565	1.004683
	H353	H	-0.091162	0.987651	1.023703
	O354	O	0.220089	0.789709	-0.204450
	H355	H	0.205178	0.805953	-0.223672
	H356	H	0.220549	0.794167	-0.162039
	O357	O	-0.202220	0.214722	0.992245
	H358	H	-0.164207	0.223875	1.001455
	H359	H	-0.225725	0.253902	0.990518
	O360	O	0.512816	0.355108	0.487457
	H361	H	0.505956	0.351404	0.501688
	H362	H	0.516936	0.361307	0.478094
	O363	O	0.205305	0.094018	0.914340
	H364	H	0.196808	0.095896	0.894197
	H365	H	0.213698	0.119254	0.908788
	O366	O	0.476549	0.569755	0.521798
	H367	H	0.479314	0.553309	0.520455
	H368	H	0.472836	0.575096	0.521585
	O369	O	0.687307	0.337616	0.331177
	H370	H	0.697713	0.331776	0.369947
	H371	H	0.672239	0.342404	0.330722
	O372	O	1.069026	0.082820	0.837356
	H373	H	1.072644	0.087582	0.829882
	H374	H	1.052058	0.069313	0.847761
	O375	O	0.647098	0.468441	0.716282
	H376	H	0.669107	0.479347	0.731442
	H377	H	0.647592	0.493402	0.696825
	O378	O	0.305653	0.485154	0.717678
	H379	H	0.322210	0.499923	0.728618
	H380	H	0.294420	0.500021	0.745528
	O381	O	0.703363	0.502594	0.318459
	H382	H	0.697791	0.490546	0.307747
	H383	H	0.706438	0.491211	0.325453
	O384	O	0.455603	0.719710	0.527962
	H385	H	0.459172	0.722598	0.522923
	H386	H	0.463135	0.722013	0.491495
	O387	O	-0.019441	0.226456	0.847361
	H388	H	-0.018085	0.258421	0.829429
	H389	H	-0.034115	0.199309	0.845656
	O390	O	-0.021608	0.041041	0.217541
	H391	H	-0.041690	0.035964	0.201965
	H392	H	-0.005238	0.034722	0.216411
	O393	O	0.967173	1.165235	0.973388
	H394	H	0.975635	1.161132	0.946030
	H395	H	0.990027	1.168831	0.989851
	O396	O	1.226062	-0.098312	-0.015648
	H397	H	1.223833	-0.081004	0.011918
	H398	H	1.214622	-0.070487	-0.022104
	O399	O	1.034490	0.144991	0.968645
	H400	H	1.041440	0.162031	0.965575
	H401	H	1.034184	0.128418	0.973707
	O402	O	0.980505	0.974407	0.802469
	H403	H	0.983530	0.990751	0.820066
	H404	H	0.987383	0.968869	0.799111
	O405	O	0.819539	0.803722	0.212156
	H406	H	0.805033	0.840561	0.225159
	H407	H	0.792375	0.796071	0.224151
	O408	O	0.551561	-0.447277	0.509373
	H409	H	0.543755	-0.455783	0.503218
	H410	H	0.548365	-0.434243	0.524338
	O411	O	1.029204	0.806727	-0.192943
	H412	H	1.035801	0.809548	-0.209262
	H413	H	1.016362	0.799459	-0.172737
	O414	O	0.339595	0.505634	0.418916
	H415	H	0.339723	0.485929	0.424970
	H416	H	0.326241	0.502690	0.425797
	O417	O	0.343285	0.677408	0.381773
	H418	H	0.340848	0.650924	0.400476
	H419	H	0.327266	0.664604	0.388795
	O420	O	-0.145064	0.113623	0.068850
	H421	H	-0.125270	0.120855	0.048263
	H422	H	-0.135086	0.124127	0.068103
	O423	O	0.454111	0.375153	0.380645
	H424	H	0.435191	0.375837	0.394389
	H425	H	0.470349	0.368840	0.392353
	O426	O	0.488358	0.290993	0.725310
	H427	H	0.513595	0.302405	0.726429
	H428	H	0.494282	0.270001	0.751051
	O429	O	0.166982	1.114611	0.154912
	H430	H	0.175356	1.092939	0.155377
	H431	H	0.142821	1.100912	0.161069
	O432	O	0.687893	0.682907	0.329844
	H433	H	0.681199	0.650557	0.336583
	H434	H	0.654064	0.680041	0.342677
	O435	O	0.345711	0.574695	0.311901
	H436	H	0.340659	0.567908	0.309969
	H437	H	0.335385	0.549508	0.314399
	O438	O	-0.179534	-0.026111	-0.002821
	H439	H	-0.183063	-0.015250	0.001979
	H440	H	-0.165722	-0.036558	-0.001407
	O441	O	1.117927	-0.012298	0.040668
	H442	H	1.115087	-0.019481	0.041266
	H443	H	1.141828	-0.006807	0.044993
	O444	O	-0.191100	1.055853	0.809722
	H445	H	-0.191705	1.036088	0.800947
	H446	H	-0.200559	1.044686	0.827722
	O447	O	0.527227	0.296036	0.302420
	H448	H	0.522809	0.273798	0.298961
	H449	H	0.548268	0.290814	0.300798
	O450	O	0.605470	0.699611	0.496419
	H451	H	0.600144	0.693099	0.525414
	H452	H	0.613417	0.716078	0.478196
	O453	O	0.529321	0.415070	0.631055
	H454	H	0.526028	0.419830	0.644022
	H455	H	0.539114	0.433740	0.643220
