data_Molecule from HDF5

_cell_length_a		16.200763
_cell_length_b		15.820731
_cell_length_c		16.456594
_cell_angle_alpha	91.844755
_cell_angle_beta	89.598760
_cell_angle_gamma	89.296498
_symmetry_space_group_name_H-M	'P 1'
_symmetry_Int_Tables_number		1

loop_
	_symmetry_equiv_pos_as_xyz
	x,y,z

loop_
	_atom_site_label
	_atom_site_type_symbol
	_atom_site_fract_x
	_atom_site_fract_y
	_atom_site_fract_z
	H0	H	0.391148	0.836271	0.706998
	H1	H	0.589207	0.170271	0.718307
	H2	H	0.596554	0.839327	0.276965
	H3	H	0.389684	0.173367	0.290248
	H4	H	0.714286	0.392989	0.836748
	H5	H	0.706595	0.611662	0.159620
	H6	H	0.274225	0.600918	0.835980
	H7	H	0.273658	0.408021	0.159028
	H8	H	0.825455	0.711373	0.414748
	H9	H	0.158403	0.719772	0.596613
	H10	H	0.823877	0.306390	0.588044
	H11	H	0.156502	0.285705	0.398061
	H12	H	0.831370	0.407064	0.717024
	H13	H	0.156547	0.612751	0.718742
	H14	H	0.830184	0.611260	0.285075
	H15	H	0.155511	0.393800	0.276217
	H16	H	0.397599	0.708958	0.832280
	H17	H	0.585463	0.722910	0.159757
	H18	H	0.592733	0.280498	0.835515
	H19	H	0.399548	0.301924	0.163501
	H20	H	0.703546	0.837506	0.393433
	H21	H	0.696262	0.174898	0.598523
	H22	H	0.281782	0.835586	0.587994
	H23	H	0.278599	0.174142	0.407839
	H24	H	0.890621	0.337744	0.210631
	H25	H	0.092240	0.671378	0.218307
	H26	H	0.100203	0.340154	0.775607
	H27	H	0.893081	0.674167	0.793305
	H28	H	0.210385	0.895885	0.336421
	H29	H	0.206255	0.113788	0.659941
	H30	H	0.773955	0.101589	0.334800
	H31	H	0.773788	0.912837	0.659182
	H32	H	0.326355	0.212160	0.910592
	H33	H	0.658470	0.216672	0.095174
	H34	H	0.324538	0.802410	0.085415
	H35	H	0.658199	0.787697	0.897245
	H36	H	0.330432	0.904973	0.214269
	H37	H	0.655483	0.110643	0.219334
	H38	H	0.328954	0.108032	0.786134
	H39	H	0.655093	0.894282	0.774689
	H40	H	0.893875	0.214574	0.334607
	H41	H	0.081187	0.221703	0.662436
	H42	H	0.089087	0.782994	0.336469
	H43	H	0.898241	0.805330	0.665003
	H44	H	0.204372	0.335895	0.895112
	H45	H	0.200894	0.673290	0.100132
	H46	H	0.782377	0.335299	0.090096
	H47	H	0.779199	0.672624	0.907145
	H48	H	0.393058	0.121972	0.581721
	H49	H	0.592014	0.881640	0.580513
	H50	H	0.579772	0.126721	0.410433
	H51	H	0.404491	0.887317	0.409210
	H52	H	0.590272	0.410836	0.115574
	H53	H	0.579577	0.582052	0.885946
	H54	H	0.389879	0.598889	0.113626
	H55	H	0.398176	0.404435	0.881061
	H56	H	0.110343	0.592853	0.406912
	H57	H	0.877070	0.595618	0.597448
	H58	H	0.110496	0.417065	0.590899
	H59	H	0.872129	0.410524	0.397807
	H60	H	0.111913	0.413086	0.590304
	H61	H	0.871785	0.602538	0.609167
	H62	H	0.111022	0.590307	0.405672
	H63	H	0.876195	0.413719	0.407360
	H64	H	0.401560	0.601301	0.112019
	H65	H	0.586258	0.603884	0.877314
	H66	H	0.591591	0.418262	0.112916
	H67	H	0.396057	0.407400	0.881099
	H68	H	0.584909	0.127891	0.409301
	H69	H	0.584179	0.880368	0.593900
	H70	H	0.389199	0.132413	0.607702
	H71	H	0.395179	0.881530	0.399694
	H72	H	0.899167	0.623006	0.089601
	H73	H	0.073967	0.387292	0.086194
	H74	H	0.075464	0.626476	0.901633
	H75	H	0.906149	0.386782	0.909638
	H76	H	0.078956	0.923293	0.610397
	H77	H	0.087479	0.086732	0.383013
	H78	H	0.877108	0.100873	0.615853
	H79	H	0.901344	0.900586	0.381435
	H80	H	0.611438	0.093794	0.908188
	H81	H	0.371303	0.097844	0.110380
	H82	H	0.611536	0.906838	0.084234
	H83	H	0.373290	0.913186	0.893047
	H84	H	0.606772	0.921887	0.085258
	H85	H	0.372223	0.112668	0.091806
	H86	H	0.608789	0.084720	0.905652
	H87	H	0.371641	0.902415	0.900106
	H88	H	0.901560	0.097909	0.608538
	H89	H	0.080641	0.092932	0.383353
	H90	H	0.087226	0.904552	0.618212
	H91	H	0.889127	0.904148	0.379428
	H92	H	0.082845	0.623391	0.921452
	H93	H	0.091319	0.383826	0.077735
	H94	H	0.893736	0.628101	0.099963
	H95	H	0.900574	0.381944	0.899160
	H96	H	0.414410	0.121671	0.599700
	H97	H	0.576694	0.887020	0.580842
	H98	H	0.581363	0.128195	0.405342
	H99	H	0.408550	0.885391	0.394870
	H100	H	0.585038	0.414661	0.112966
	H101	H	0.601478	0.584891	0.879165
	H102	H	0.392149	0.611990	0.116858
	H103	H	0.398688	0.406787	0.882773
	H104	H	0.111711	0.593580	0.404953
	H105	H	0.873755	0.610615	0.596484
	H106	H	0.110574	0.414608	0.587515
	H107	H	0.875733	0.421443	0.399225
	H108	H	0.906824	0.623792	0.099886
	H109	H	0.089190	0.379220	0.096619
	H110	H	0.095670	0.630866	0.905705
	H111	H	0.913708	0.385581	0.898748
	H112	H	0.097933	0.921876	0.617342
	H113	H	0.089226	0.095065	0.380253
	H114	H	0.893029	0.119949	0.618375
	H115	H	0.898014	0.911415	0.384155
	H116	H	0.612868	0.090534	0.898656
	H117	H	0.380642	0.088258	0.089273
	H118	H	0.613477	0.914824	0.097178
	H119	H	0.376166	0.913469	0.904407
	C120	C	0.370615	0.013838	0.620447
	C121	C	0.610912	0.994645	0.617149
	C122	C	0.612368	0.015849	0.376465
	C123	C	0.372012	0.996189	0.376850
	C124	C	0.618044	0.380299	0.006621
	C125	C	0.615104	0.625029	0.988355
	C126	C	0.367767	0.627914	0.006033
	C127	C	0.370461	0.382218	0.989708
	C128	C	0.001969	0.623323	0.380715
	C129	C	0.983812	0.631356	0.626654
	C130	C	0.001663	0.387765	0.617695
	C131	C	0.983163	0.381684	0.372507
	C132	C	0.871204	0.513710	0.120937
	C133	C	0.112450	0.495000	0.118250
	C134	C	0.114985	0.515230	0.877123
	C135	C	0.875582	0.495999	0.878728
	C136	C	0.116377	0.882009	0.507707
	C137	C	0.112227	0.126008	0.489828
	C138	C	0.864630	0.130401	0.506348
	C139	C	0.869009	0.883301	0.489859
	C140	C	0.501585	0.121010	0.879186
	C141	C	0.483685	0.128662	0.124096
	C142	C	0.501394	0.886109	0.116112
	C143	C	0.482843	0.878638	0.870494
	C144	C	0.372383	0.886638	0.670569
	C145	C	0.608625	0.120889	0.677764
	C146	C	0.614309	0.889349	0.316607
	C147	C	0.371414	0.123055	0.326177
	C148	C	0.674847	0.375861	0.884954
	C149	C	0.668246	0.628819	0.111037
	C150	C	0.313026	0.621530	0.884087
	C151	C	0.313608	0.387993	0.111125
	C152	C	0.875836	0.676823	0.389462
	C153	C	0.108578	0.684310	0.619792
	C154	C	0.875236	0.339309	0.611587
	C155	C	0.106984	0.323204	0.376220
	C156	C	0.878831	0.389460	0.675738
	C157	C	0.107553	0.630822	0.680472
	C158	C	0.878458	0.626954	0.325268
	C159	C	0.106596	0.377419	0.315703
	C160	C	0.374524	0.675486	0.882128
	C161	C	0.608243	0.684339	0.111030
	C162	C	0.614510	0.319713	0.884550
	C163	C	0.376350	0.335199	0.113653
	C164	C	0.667682	0.888647	0.374548
	C165	C	0.661896	0.123186	0.617977
	C166	C	0.317780	0.886335	0.611475
	C167	C	0.315932	0.123530	0.384444
	C168	C	0.871985	0.387564	0.173098
	C169	C	0.110900	0.621498	0.178010
	C170	C	0.117228	0.389713	0.815902
	C171	C	0.874475	0.623446	0.829026
	C172	C	0.172143	0.877830	0.385301
	C173	C	0.167201	0.130547	0.611804
	C174	C	0.811333	0.123606	0.383553
	C175	C	0.813288	0.891477	0.611767
	C176	C	0.376194	0.175915	0.887138
	C177	C	0.608464	0.181319	0.117959
	C178	C	0.375270	0.836184	0.108990
	C179	C	0.607805	0.823404	0.874653
	C180	C	0.378301	0.887064	0.173381
	C181	C	0.607096	0.128443	0.179459
	C182	C	0.377648	0.124310	0.825134
	C183	C	0.606217	0.876595	0.813719
	C184	C	0.870775	0.180172	0.383442
	C185	C	0.104874	0.184252	0.613044
	C186	C	0.111857	0.821673	0.385347
	C187	C	0.875351	0.837966	0.614664
	C188	C	0.169077	0.387614	0.875586
	C189	C	0.164969	0.622503	0.119228
	C190	C	0.818046	0.386346	0.113154
	C191	C	0.817938	0.622657	0.885758
	C192	C	0.392374	0.102340	0.602031
	C193	C	0.590289	0.905888	0.592437
	C194	C	0.588740	0.104756	0.401145
	C195	C	0.395753	0.907661	0.395679
	C196	C	0.595703	0.407015	0.091944
	C197	C	0.595030	0.598228	0.902896
	C198	C	0.388428	0.609511	0.092018
	C199	C	0.391499	0.400485	0.904013
	C200	C	0.088610	0.599252	0.400139
	C201	C	0.896747	0.609433	0.606972
	C202	C	0.088617	0.408746	0.595910
	C203	C	0.896940	0.407621	0.395067
	C204	C	0.893195	0.602235	0.102222
	C205	C	0.091182	0.406380	0.094001
	C206	C	0.091554	0.603951	0.902163
	C207	C	0.899781	0.407538	0.896979
	C208	C	0.094546	0.909017	0.593068
	C209	C	0.091815	0.099320	0.404371
	C210	C	0.884605	0.112062	0.591973
	C211	C	0.889871	0.900124	0.403962
	C212	C	0.588448	0.096768	0.898330
	C213	C	0.397167	0.106222	0.103334
	C214	C	0.588231	0.907942	0.095158
	C215	C	0.395954	0.902698	0.892550
	Zn216	Zn	0.491882	0.002855	0.746358
	Zn217	Zn	0.493222	0.005879	0.249971
	Zn218	Zn	0.746443	0.503742	-0.001798
	Zn219	Zn	0.239237	0.504448	-0.002595
	Zn220	Zn	-0.007619	0.754037	0.501368
	Zn221	Zn	-0.009474	0.256981	0.497558
	Zn222	Zn	-0.005143	0.507005	0.750953
	Zn223	Zn	-0.007050	0.504676	0.247060
	Zn224	Zn	0.492190	0.754788	-0.004458
	Zn225	Zn	0.492807	0.252376	-0.001017
	Zn226	Zn	0.736968	0.005529	0.496469
	Zn227	Zn	0.244505	0.005446	0.498353
	N228	N	0.404451	0.966895	0.676212
	N229	N	0.577647	0.040224	0.677227
	N230	N	0.580755	0.969722	0.317533
	N231	N	0.405716	0.042584	0.321276
	N232	N	0.677071	0.412892	0.961948
	N233	N	0.672734	0.592405	0.033770
	N234	N	0.308649	0.592824	0.962195
	N235	N	0.309865	0.416245	0.033070
	N236	N	0.953440	0.674900	0.423622
	N237	N	0.030458	0.685118	0.587389
	N238	N	0.952642	0.338183	0.576047
	N239	N	0.029105	0.325631	0.410873
	N240	N	0.958472	0.418911	0.679668
	N241	N	0.028790	0.598696	0.684969
	N242	N	0.957628	0.594292	0.319768
	N243	N	0.028501	0.413047	0.313309
	N244	N	0.407889	0.679648	0.958990
	N245	N	0.576079	0.682200	0.033606
	N246	N	0.580012	0.322191	0.961283
	N247	N	0.410988	0.331071	0.037014
	N248	N	0.666668	0.968381	0.411057
	N249	N	0.663316	0.043721	0.580537
	N250	N	0.316539	0.966458	0.580920
	N251	N	0.316264	0.043810	0.415171
	N252	N	0.904390	0.467666	0.177967
	N253	N	0.078933	0.541121	0.177463
	N254	N	0.084129	0.470228	0.816835
	N255	N	0.909765	0.543885	0.824560
	N256	N	0.174976	0.914759	0.462518
	N257	N	0.172104	0.095211	0.534166
	N258	N	0.807240	0.093582	0.460946
	N259	N	0.809146	0.918791	0.533260
	N260	N	0.454195	0.174410	0.920186
	N261	N	0.530651	0.181752	0.084305
	N262	N	0.452988	0.835540	0.074019
	N263	N	0.530106	0.824243	0.909173
	N264	N	0.457603	0.917318	0.177914
	N265	N	0.528536	0.096603	0.183519
	N266	N	0.456399	0.090636	0.820328
	N267	N	0.527179	0.910178	0.810907
	N268	N	0.903189	0.184746	0.460614
	N269	N	0.071356	0.181493	0.536093
	N270	N	0.078060	0.824151	0.462351
	N271	N	0.909703	0.832708	0.537949
	N272	N	0.167751	0.466815	0.913121
	N273	N	0.166209	0.542895	0.082520
	N274	N	0.817249	0.466035	0.081563
	N275	N	0.818421	0.542308	0.915817
	O276	O	-0.016507	0.053959	-0.034761
	H277	H	-0.016490	0.052901	-0.030222
	H278	H	-0.015839	0.053819	-0.039875
	O279	O	0.512047	0.452560	0.440053
	H280	H	0.513678	0.452816	0.446125
	H281	H	0.523837	0.440774	0.429084
	O282	O	0.504626	0.450749	0.569755
	H283	H	0.499668	0.459174	0.567979
	H284	H	0.510191	0.447554	0.558893
	O285	O	0.128297	0.904818	0.955714
	H286	H	0.109247	0.896126	0.967258
	H287	H	0.142788	0.893692	0.941330
	O288	O	0.597851	0.487535	0.436906
	H289	H	0.602403	0.493761	0.446397
	H290	H	0.607185	0.494644	0.439067
	O291	O	0.945540	0.925794	1.009081
	H292	H	0.938852	0.935994	1.012257
	H293	H	0.928218	0.935429	1.020564
	O294	O	0.901789	0.928530	1.068653
	H295	H	0.906918	0.937452	1.071985
	H296	H	0.886250	0.939482	1.077012
	O297	O	0.999371	-0.085834	0.990677
	H298	H	1.000061	-0.090421	0.991995
	H299	H	0.995179	-0.086353	0.987183
	O300	O	0.436291	0.562163	0.492709
	H301	H	0.438361	0.558210	0.489630
	H302	H	0.435708	0.567114	0.490179
	O303	O	1.109417	0.052901	-0.072517
	H304	H	1.115126	0.034709	-0.073422
	H305	H	1.125310	0.055232	-0.079041
	O306	O	-0.072666	1.045153	1.065541
	H307	H	-0.059623	1.053989	1.061081
	H308	H	-0.075773	1.053531	1.066512
	O309	O	0.601757	0.732357	0.599710
	H310	H	0.588454	0.731590	0.600797
	H311	H	0.599593	0.739998	0.611454
	O312	O	0.974306	0.075420	1.056458
	H313	H	0.985742	0.091361	1.052160
	H314	H	0.979174	0.080649	1.061167
	O315	O	0.461825	0.405307	0.510772
	H316	H	0.461843	0.406774	0.506714
	H317	H	0.461689	0.414685	0.519164
	O318	O	0.525382	0.467736	0.494189
	H319	H	0.536040	0.472331	0.495063
	H320	H	0.540254	0.477006	0.489237
	O321	O	0.939947	1.103303	0.934662
	H322	H	0.944805	1.101567	0.919217
	H323	H	0.942601	1.092397	0.937246
	O324	O	0.927233	-0.022606	-0.072165
	H325	H	0.926137	-0.029313	-0.058267
	H326	H	0.929020	-0.015350	-0.071298
	O327	O	0.528565	0.614868	0.517027
	H328	H	0.529767	0.618358	0.521799
	H329	H	0.508423	0.614530	0.514461
	O330	O	1.105537	0.075755	1.054313
	H331	H	1.107119	0.073818	1.046815
	H332	H	1.106244	0.066271	1.062073
	O333	O	1.060356	1.064575	0.083297
	H334	H	1.080294	1.066094	0.085722
	H335	H	1.055454	1.071985	0.083295
	O336	O	0.460028	0.548569	0.525543
	H337	H	0.466020	0.549144	0.520914
	H338	H	0.455447	0.554764	0.536454
	O339	O	0.547541	0.535384	0.474499
	H340	H	0.543174	0.529048	0.458823
	H341	H	0.554478	0.515973	0.466422
	O342	O	-0.042706	0.970725	0.044634
	H343	H	-0.053489	0.967187	0.044365
	H344	H	-0.037569	0.978943	0.043254
	O345	O	0.056143	-0.011695	0.083954
	H346	H	0.054717	-0.010703	0.081009
	H347	H	0.055647	-0.021654	0.083261
	O348	O	0.526641	0.430700	0.420424
	H349	H	0.532114	0.422078	0.427962
	H350	H	0.531077	0.427576	0.425293
	O351	O	0.447108	0.464321	0.514270
	H352	H	0.462781	0.455517	0.508515
	H353	H	0.443701	0.465302	0.527189
	O354	O	0.444609	0.489951	0.610830
	H355	H	0.442504	0.479512	0.607685
	H356	H	0.444333	0.495766	0.612244
	O357	O	0.477736	0.443308	0.586243
	H358	H	0.470873	0.440919	0.582889
	H359	H	0.480557	0.435573	0.576505
	O360	O	-0.103534	0.022141	-0.003839
	H361	H	-0.086591	0.009743	-0.005343
	H362	H	-0.104821	0.031954	-0.016133
	O363	O	0.528890	0.442741	0.479199
	H364	H	0.519566	0.455004	0.483088
	H365	H	0.537352	0.438406	0.470271
	O366	O	0.121320	-0.074779	0.892054
	H367	H	0.124952	-0.092278	0.886333
	H368	H	0.113397	-0.078569	0.887758
	O369	O	0.516613	0.535599	0.414791
	H370	H	0.520635	0.526364	0.422755
	H371	H	0.513663	0.541111	0.408554
