data_Molecule from HDF5

_cell_length_a		16.353209
_cell_length_b		16.181779
_cell_length_c		16.058715
_cell_angle_alpha	89.461988
_cell_angle_beta	90.276476
_cell_angle_gamma	89.984107
_symmetry_space_group_name_H-M	'P 1'
_symmetry_Int_Tables_number		1

loop_
	_symmetry_equiv_pos_as_xyz
	x,y,z

loop_
	_atom_site_label
	_atom_site_type_symbol
	_atom_site_fract_x
	_atom_site_fract_y
	_atom_site_fract_z
	H0	H	0.407319	0.837304	0.705335
	H1	H	0.600131	0.167830	0.701350
	H2	H	0.598315	0.836760	0.282578
	H3	H	0.407696	0.168234	0.277280
	H4	H	0.717908	0.403488	0.827236
	H5	H	0.720042	0.600742	0.156975
	H6	H	0.288124	0.604806	0.828059
	H7	H	0.292228	0.399734	0.157703
	H8	H	0.840210	0.718135	0.390866
	H9	H	0.167142	0.717623	0.591039
	H10	H	0.840877	0.286820	0.592963
	H11	H	0.166536	0.288838	0.395230
	H12	H	0.840578	0.403954	0.706889
	H13	H	0.167541	0.600018	0.707038
	H14	H	0.840865	0.600933	0.275791
	H15	H	0.168442	0.407354	0.281893
	H16	H	0.406172	0.716463	0.826435
	H17	H	0.603387	0.713230	0.158393
	H18	H	0.600236	0.293763	0.825022
	H19	H	0.408227	0.287325	0.156859
	H20	H	0.720072	0.839031	0.391518
	H21	H	0.720094	0.165878	0.592188
	H22	H	0.287113	0.838760	0.594185
	H23	H	0.286865	0.166394	0.387146
	H24	H	0.910416	0.337173	0.204671
	H25	H	0.099304	0.668891	0.199814
	H26	H	0.099751	0.336329	0.783145
	H27	H	0.907516	0.667794	0.777968
	H28	H	0.216624	0.904397	0.325481
	H29	H	0.220220	0.101789	0.656287
	H30	H	0.788970	0.103264	0.326650
	H31	H	0.791177	0.901321	0.656927
	H32	H	0.341148	0.221103	0.888813
	H33	H	0.667371	0.215450	0.089419
	H34	H	0.342010	0.784455	0.092654
	H35	H	0.667465	0.788167	0.894196
	H36	H	0.339622	0.904472	0.204542
	H37	H	0.666867	0.099780	0.205560
	H38	H	0.339827	0.101340	0.774994
	H39	H	0.668085	0.906660	0.779656
	H40	H	0.905424	0.216824	0.325707
	H41	H	0.100726	0.212942	0.658408
	H42	H	0.100492	0.792389	0.324760
	H43	H	0.906824	0.787751	0.656188
	H44	H	0.221068	0.338797	0.892912
	H45	H	0.221689	0.665271	0.092870
	H46	H	0.789830	0.338038	0.093453
	H47	H	0.786896	0.665710	0.888586
	H48	H	0.413924	0.116580	0.575826
	H49	H	0.588095	0.883871	0.594752
	H50	H	0.595639	0.123980	0.384913
	H51	H	0.407803	0.884657	0.400933
	H52	H	0.604320	0.416125	0.110258
	H53	H	0.594266	0.597531	0.873710
	H54	H	0.410782	0.591828	0.111792
	H55	H	0.405369	0.412561	0.871773
	H56	H	0.122064	0.600898	0.392194
	H57	H	0.887991	0.593112	0.586306
	H58	H	0.120559	0.396247	0.577222
	H59	H	0.886993	0.411937	0.396959
	H60	H	0.115320	0.420786	0.582110
	H61	H	0.887835	0.598727	0.584128
	H62	H	0.120350	0.601926	0.402535
	H63	H	0.885893	0.407135	0.396743
	H64	H	0.413682	0.592459	0.110152
	H65	H	0.598327	0.596698	0.872280
	H66	H	0.587369	0.409737	0.108088
	H67	H	0.411752	0.418047	0.875001
	H68	H	0.587451	0.115477	0.405051
	H69	H	0.595489	0.889870	0.571373
	H70	H	0.404785	0.121054	0.579026
	H71	H	0.407805	0.884372	0.398661
	H72	H	0.909501	0.618619	0.075025
	H73	H	0.102007	0.384261	0.084319
	H74	H	0.093015	0.618912	0.899390
	H75	H	0.897850	0.379663	0.897101
	H76	H	0.098966	0.913796	0.608682
	H77	H	0.092348	0.099552	0.372669
	H78	H	0.907266	0.097206	0.612379
	H79	H	0.906452	0.929020	0.375910
	H80	H	0.621050	0.097172	0.892657
	H81	H	0.387034	0.105268	0.074497
	H82	H	0.621030	0.911829	0.092199
	H83	H	0.386103	0.901038	0.899838
	H84	H	0.622353	0.901350	0.087602
	H85	H	0.391482	0.085454	0.078425
	H86	H	0.620458	0.102228	0.897117
	H87	H	0.390787	0.914124	0.904150
	H88	H	0.909607	0.090768	0.610235
	H89	H	0.098793	0.099621	0.371554
	H90	H	0.093037	0.910236	0.608525
	H91	H	0.924783	0.905201	0.374778
	H92	H	0.097611	0.618161	0.904952
	H93	H	0.102835	0.381828	0.090954
	H94	H	0.902908	0.622931	0.085566
	H95	H	0.919042	0.385945	0.893212
	H96	H	0.412945	0.121091	0.585863
	H97	H	0.611897	0.879858	0.589147
	H98	H	0.609344	0.122452	0.403385
	H99	H	0.409375	0.885476	0.399625
	H100	H	0.600145	0.399102	0.114243
	H101	H	0.596285	0.593128	0.874537
	H102	H	0.412764	0.595171	0.111656
	H103	H	0.414278	0.409254	0.873351
	H104	H	0.119416	0.592705	0.398602
	H105	H	0.889526	0.593862	0.580204
	H106	H	0.124900	0.405785	0.600790
	H107	H	0.887801	0.409468	0.400120
	H108	H	0.916088	0.619693	0.086707
	H109	H	0.096613	0.384349	0.088109
	H110	H	0.099330	0.621069	0.898278
	H111	H	0.911449	0.388174	0.913510
	H112	H	0.098978	0.907128	0.610716
	H113	H	0.095869	0.093158	0.373425
	H114	H	0.913374	0.095543	0.610691
	H115	H	0.896684	0.902789	0.364910
	H116	H	0.618890	0.095319	0.899273
	H117	H	0.383696	0.096984	0.093136
	H118	H	0.618188	0.909560	0.080569
	H119	H	0.387042	0.911933	0.890758
	C120	C	0.382181	0.010680	0.611199
	C121	C	0.626118	0.993537	0.612802
	C122	C	0.625406	0.011550	0.370010
	C123	C	0.380690	0.993935	0.369304
	C124	C	0.624773	0.381458	0.000846
	C125	C	0.625312	0.623326	0.983225
	C126	C	0.382858	0.623630	0.001615
	C127	C	0.383261	0.382223	0.982986
	C128	C	0.012517	0.626346	0.368486
	C129	C	0.996063	0.624288	0.613134
	C130	C	0.012078	0.379846	0.614936
	C131	C	0.995200	0.381634	0.370599
	C132	C	0.882396	0.511326	0.112660
	C133	C	0.127183	0.493022	0.114622
	C134	C	0.125038	0.510482	0.872454
	C135	C	0.881340	0.493325	0.870615
	C136	C	0.124563	0.882581	0.499528
	C137	C	0.124631	0.124524	0.482613
	C138	C	0.881834	0.123999	0.501015
	C139	C	0.882142	0.882198	0.481717
	C140	C	0.512124	0.126722	0.867140
	C141	C	0.495269	0.123999	0.111703
	C142	C	0.512288	0.879594	0.114755
	C143	C	0.496026	0.881125	0.870448
	C144	C	0.385569	0.886778	0.667927
	C145	C	0.621685	0.118081	0.665508
	C146	C	0.620906	0.886664	0.317656
	C147	C	0.385513	0.118524	0.314103
	C148	C	0.679874	0.384145	0.876239
	C149	C	0.681495	0.620847	0.107911
	C150	C	0.326386	0.623853	0.877377
	C151	C	0.329675	0.381404	0.107967
	C152	C	0.889328	0.680716	0.370431
	C153	C	0.118434	0.679559	0.611162
	C154	C	0.889574	0.324937	0.612530
	C155	C	0.118049	0.326471	0.374255
	C156	C	0.889427	0.382769	0.669739
	C157	C	0.118721	0.621021	0.668836
	C158	C	0.889589	0.622217	0.313406
	C159	C	0.119114	0.385698	0.318223
	C160	C	0.385203	0.679419	0.876511
	C161	C	0.623447	0.676662	0.108584
	C162	C	0.621481	0.329236	0.875217
	C163	C	0.387073	0.325083	0.107520
	C164	C	0.681119	0.887812	0.372318
	C165	C	0.681252	0.117152	0.610982
	C166	C	0.326051	0.887559	0.612210
	C167	C	0.325500	0.117564	0.368564
	C168	C	0.887804	0.386654	0.167927
	C169	C	0.122126	0.618538	0.165538
	C170	C	0.121470	0.385885	0.819200
	C171	C	0.885627	0.618033	0.814873
	C172	C	0.178764	0.884829	0.374619
	C173	C	0.181267	0.121640	0.607065
	C174	C	0.827041	0.123168	0.375909
	C175	C	0.828387	0.882296	0.607105
	C176	C	0.389661	0.182408	0.868515
	C177	C	0.618612	0.178207	0.109495
	C178	C	0.390009	0.823698	0.112417
	C179	C	0.618993	0.826595	0.873925
	C180	C	0.388973	0.883261	0.167874
	C181	C	0.618297	0.120524	0.167279
	C182	C	0.388900	0.122798	0.812296
	C183	C	0.619291	0.885318	0.816768
	C184	C	0.884656	0.179625	0.375727
	C185	C	0.122028	0.176958	0.608258
	C186	C	0.121527	0.828691	0.374583
	C187	C	0.885569	0.825709	0.606812
	C188	C	0.181859	0.387236	0.873763
	C189	C	0.182807	0.616935	0.112313
	C190	C	0.827961	0.387147	0.112794
	C191	C	0.825531	0.616902	0.869615
	C192	C	0.404025	0.097300	0.587323
	C193	C	0.604836	0.906890	0.591405
	C194	C	0.603809	0.098179	0.391378
	C195	C	0.402130	0.907228	0.392736
	C196	C	0.603548	0.402200	0.088233
	C197	C	0.602885	0.602035	0.896057
	C198	C	0.405688	0.600050	0.088758
	C199	C	0.404241	0.406423	0.895829
	C200	C	0.098549	0.604992	0.391165
	C201	C	0.910338	0.601974	0.590180
	C202	C	0.097947	0.401445	0.593247
	C203	C	0.909083	0.403181	0.391598
	C204	C	0.903257	0.598113	0.089302
	C205	C	0.106676	0.406169	0.093964
	C206	C	0.103262	0.596866	0.894416
	C207	C	0.902918	0.406945	0.894286
	C208	C	0.103309	0.904079	0.586839
	C209	C	0.102260	0.103570	0.395169
	C210	C	0.903598	0.101325	0.588359
	C211	C	0.902979	0.905381	0.394640
	C212	C	0.597723	0.104650	0.889574
	C213	C	0.409431	0.102229	0.088790
	C214	C	0.598294	0.901201	0.093190
	C215	C	0.410093	0.902749	0.891994
	Zn216	Zn	0.503964	0.002865	0.739723
	Zn217	Zn	0.503281	0.002552	0.242037
	Zn218	Zn	0.752421	0.501903	-0.007762
	Zn219	Zn	0.254870	0.502024	-0.006977
	Zn220	Zn	0.004048	0.755175	0.490718
	Zn221	Zn	0.002996	0.252033	0.492269
	Zn222	Zn	0.004156	0.501725	0.743502
	Zn223	Zn	0.004921	0.503038	0.240888
	Zn224	Zn	0.504451	0.751144	-0.007275
	Zn225	Zn	0.504040	0.254585	-0.009194
	Zn226	Zn	0.754248	0.002870	0.491510
	Zn227	Zn	0.252043	0.002664	0.490227
	N228	N	0.419846	0.964394	0.667219
	N229	N	0.587708	0.040211	0.666621
	N230	N	0.586835	0.964518	0.316201
	N231	N	0.419081	0.040461	0.314310
	N232	N	0.682003	0.415977	0.955458
	N233	N	0.682841	0.588432	0.029054
	N234	N	0.324770	0.589977	0.956216
	N235	N	0.327029	0.416104	0.029303
	N236	N	0.966919	0.683342	0.404247
	N237	N	0.041013	0.681629	0.577268
	N238	N	0.966934	0.322926	0.579437
	N239	N	0.040023	0.323766	0.405978
	N240	N	0.966725	0.416391	0.671318
	N241	N	0.041434	0.587483	0.670272
	N242	N	0.967127	0.589254	0.312086
	N243	N	0.041805	0.419235	0.315819
	N244	N	0.419514	0.679418	0.954913
	N245	N	0.589287	0.678499	0.030070
	N246	N	0.588031	0.327333	0.953591
	N247	N	0.419623	0.325516	0.028736
	N248	N	0.684018	0.966450	0.404087
	N249	N	0.684184	0.038713	0.579145
	N250	N	0.323837	0.965702	0.577709
	N251	N	0.322513	0.039127	0.402458
	N252	N	0.920954	0.464845	0.167881
	N253	N	0.088420	0.540674	0.167089
	N254	N	0.087126	0.463552	0.818167
	N255	N	0.919478	0.540231	0.815184
	N256	N	0.180811	0.917288	0.453382
	N257	N	0.183135	0.090043	0.527700
	N258	N	0.825038	0.089425	0.454735
	N259	N	0.825924	0.916622	0.528259
	N260	N	0.467283	0.185125	0.901632
	N261	N	0.541026	0.180333	0.075572
	N262	N	0.467614	0.821393	0.080007
	N263	N	0.541023	0.823583	0.906091
	N264	N	0.466162	0.917357	0.169418
	N265	N	0.540739	0.087547	0.168689
	N266	N	0.466227	0.089095	0.810989
	N267	N	0.541828	0.918545	0.814490
	N268	N	0.918076	0.180059	0.454588
	N269	N	0.087544	0.178774	0.529937
	N270	N	0.088356	0.827105	0.453269
	N271	N	0.918234	0.825438	0.528202
	N272	N	0.184189	0.465607	0.906056
	N273	N	0.186278	0.537975	0.081397
	N274	N	0.824684	0.465545	0.078990
	N275	N	0.822894	0.538557	0.903783
	O276	O	0.553755	0.508995	0.484794
	H277	H	0.561526	0.504207	0.479723
	H278	H	0.542051	0.510216	0.486973
	O279	O	0.505453	0.465874	0.595373
	H280	H	0.512927	0.469737	0.599023
	H281	H	0.506682	0.470148	0.586396
	O282	O	0.590486	0.573880	0.501152
	H283	H	0.587732	0.567729	0.500453
	H284	H	0.586662	0.574572	0.509654
	O285	O	-0.496699	1.450576	1.522429
	H286	H	-0.504561	1.452692	1.531670
	H287	H	-0.489747	1.439444	1.531698
	O288	O	0.382275	0.555873	0.525668
	H289	H	0.382441	0.566142	0.530488
	H290	H	0.372562	0.551109	0.532673
	O291	O	-0.537399	-0.429888	1.447848
	H292	H	-0.533456	-0.433132	1.449462
	H293	H	-0.533489	-0.430199	1.441220
	O294	O	0.483627	0.496207	0.543024
	H295	H	0.481007	0.503175	0.537272
	H296	H	0.482973	0.496875	0.540579
	O297	O	0.487946	0.504711	0.455754
	H298	H	0.494612	0.499864	0.454811
	H299	H	0.488887	0.504368	0.455159
	O300	O	0.479263	0.485301	0.576899
	H301	H	0.489512	0.476202	0.579537
	H302	H	0.466514	0.487403	0.583648
	O303	O	0.467287	0.522492	0.424261
	H304	H	0.463941	0.524214	0.426048
	H305	H	0.464330	0.516375	0.438199
	O306	O	1.006693	-0.090608	0.951832
	H307	H	1.007119	-0.100798	0.951481
	H308	H	1.002909	-0.081038	0.963095
	O309	O	0.437988	0.536020	0.517864
	H310	H	0.439151	0.545426	0.516694
	H311	H	0.444131	0.539517	0.513849
	O312	O	0.521748	0.449124	0.575617
	H313	H	0.521644	0.461639	0.573292
	H314	H	0.530203	0.446386	0.581023
	O315	O	1.018756	-0.012538	0.984753
	H316	H	1.018686	-0.016132	0.974249
	H317	H	1.022510	-0.010222	0.974797
	O318	O	0.019073	-0.023047	-0.026175
	H319	H	0.015931	-0.032631	-0.026280
	H320	H	0.019732	-0.014486	-0.037040
	O321	O	0.430252	0.496703	0.517295
	H322	H	0.425100	0.491326	0.517612
	H323	H	0.413000	0.495569	0.518932
	O324	O	0.981273	-0.022712	-0.031977
	H325	H	0.977765	-0.030616	-0.023661
	H326	H	0.978954	-0.025635	-0.032451
	O327	O	1.039198	0.967720	-0.004863
	H328	H	1.047514	0.972693	-0.004436
	H329	H	1.042071	0.975840	0.003716
	O330	O	0.569082	0.537112	0.527543
	H331	H	0.577087	0.543832	0.513987
	H332	H	0.567927	0.542991	0.517602
	O333	O	0.536403	0.493204	0.432476
	H334	H	0.536066	0.483198	0.445918
	H335	H	0.530521	0.489923	0.428729
