data_Molecule from HDF5

_cell_length_a		16.678952
_cell_length_b		16.539442
_cell_length_c		16.655245
_cell_angle_alpha	89.911884
_cell_angle_beta	89.884500
_cell_angle_gamma	90.049362
_symmetry_space_group_name_H-M	'P 1'
_symmetry_Int_Tables_number		1

loop_
	_symmetry_equiv_pos_as_xyz
	x,y,z

loop_
	_atom_site_label
	_atom_site_type_symbol
	_atom_site_fract_x
	_atom_site_fract_y
	_atom_site_fract_z
	H0	H	0.404467	0.845314	0.703620
	H1	H	0.617841	0.155220	0.701880
	H2	H	0.621995	0.846454	0.254904
	H3	H	0.403526	0.153309	0.255738
	H4	H	0.735657	0.394158	0.826713
	H5	H	0.737180	0.611659	0.132727
	H6	H	0.284344	0.611429	0.829253
	H7	H	0.286010	0.388358	0.132319
	H8	H	0.858847	0.724523	0.373716
	H9	H	0.167338	0.720973	0.585923
	H10	H	0.856244	0.279873	0.584047
	H11	H	0.165605	0.276812	0.373434
	H12	H	0.857815	0.392601	0.704189
	H13	H	0.165512	0.606998	0.704412
	H14	H	0.860678	0.611893	0.254460
	H15	H	0.164144	0.390647	0.254704
	H16	H	0.400953	0.726100	0.828669
	H17	H	0.617514	0.723813	0.135009
	H18	H	0.621724	0.276333	0.827371
	H19	H	0.405474	0.275827	0.133915
	H20	H	0.737365	0.846010	0.371268
	H21	H	0.735073	0.154767	0.586914
	H22	H	0.287840	0.845869	0.589602
	H23	H	0.288158	0.154094	0.372843
	H24	H	0.906345	0.344857	0.201143
	H25	H	0.120590	0.654184	0.203941
	H26	H	0.115616	0.342950	0.760897
	H27	H	0.907626	0.657407	0.760108
	H28	H	0.231823	0.896939	0.324537
	H29	H	0.231392	0.103891	0.636076
	H30	H	0.790046	0.105977	0.326555
	H31	H	0.793298	0.896342	0.637131
	H32	H	0.357398	0.222699	0.875090
	H33	H	0.668603	0.218804	0.082570
	H34	H	0.357143	0.776940	0.087510
	H35	H	0.665549	0.777264	0.874614
	H36	H	0.358546	0.891080	0.206038
	H37	H	0.665667	0.107062	0.203266
	H38	H	0.357150	0.106394	0.758385
	H39	H	0.665638	0.893614	0.757421
	H40	H	0.908371	0.219621	0.324500
	H41	H	0.114017	0.219213	0.636741
	H42	H	0.114772	0.780896	0.324768
	H43	H	0.910569	0.781119	0.637981
	H44	H	0.232613	0.343372	0.875495
	H45	H	0.237118	0.653325	0.088816
	H46	H	0.790281	0.345223	0.085547
	H47	H	0.791853	0.657907	0.875932
	H48	H	0.426625	0.111672	0.569879
	H49	H	0.597490	0.888993	0.570430
	H50	H	0.598409	0.109710	0.395727
	H51	H	0.428473	0.889758	0.390835
	H52	H	0.597426	0.409706	0.090497
	H53	H	0.601652	0.586908	0.869856
	H54	H	0.425044	0.586947	0.090297
	H55	H	0.426827	0.407387	0.868825
	H56	H	0.118491	0.575770	0.390306
	H57	H	0.897898	0.592316	0.576811
	H58	H	0.122540	0.413236	0.571160
	H59	H	0.899875	0.411134	0.390073
	H60	H	0.124080	0.408966	0.572423
	H61	H	0.901351	0.592433	0.564602
	H62	H	0.127163	0.593119	0.385117
	H63	H	0.901299	0.411066	0.394095
	H64	H	0.423694	0.585471	0.090824
	H65	H	0.598035	0.586886	0.870928
	H66	H	0.604057	0.410109	0.092852
	H67	H	0.417902	0.415137	0.868515
	H68	H	0.602749	0.111112	0.393326
	H69	H	0.601987	0.888456	0.565876
	H70	H	0.423621	0.110149	0.565174
	H71	H	0.422952	0.889704	0.399009
	H72	H	0.922467	0.615981	0.074495
	H73	H	0.098282	0.389824	0.064023
	H74	H	0.097925	0.611257	0.890191
	H75	H	0.923729	0.388870	0.891568
	H76	H	0.103309	0.912781	0.591764
	H77	H	0.092239	0.081319	0.375165
	H78	H	0.923586	0.088516	0.591521
	H79	H	0.922730	0.912871	0.369761
	H80	H	0.620527	0.086793	0.894613
	H81	H	0.401288	0.088856	0.068255
	H82	H	0.620316	0.916606	0.067104
	H83	H	0.401713	0.912382	0.895669
	H84	H	0.622803	0.912764	0.069845
	H85	H	0.402507	0.086269	0.067955
	H86	H	0.623373	0.084828	0.886960
	H87	H	0.401212	0.916117	0.890213
	H88	H	0.922174	0.089267	0.592958
	H89	H	0.098030	0.101552	0.365462
	H90	H	0.099746	0.909630	0.591761
	H91	H	0.925786	0.911795	0.370556
	H92	H	0.097716	0.609853	0.895945
	H93	H	0.099672	0.387233	0.069401
	H94	H	0.929893	0.610080	0.067346
	H95	H	0.921121	0.388691	0.893766
	H96	H	0.421254	0.113286	0.569576
	H97	H	0.603452	0.885784	0.571714
	H98	H	0.598015	0.110624	0.391188
	H99	H	0.419157	0.885778	0.390850
	H100	H	0.601357	0.416032	0.089806
	H101	H	0.599798	0.590191	0.869519
	H102	H	0.425135	0.585433	0.089143
	H103	H	0.428776	0.418020	0.873373
	H104	H	0.119387	0.591323	0.403678
	H105	H	0.902793	0.581653	0.571257
	H106	H	0.122917	0.409984	0.567938
	H107	H	0.901354	0.414228	0.391956
	H108	H	0.919372	0.612857	0.063892
	H109	H	0.094272	0.390217	0.068986
	H110	H	0.102611	0.612132	0.893564
	H111	H	0.920902	0.387931	0.890468
	H112	H	0.103821	0.908944	0.594201
	H113	H	0.113037	0.084182	0.366691
	H114	H	0.922377	0.087200	0.592734
	H115	H	0.923466	0.909874	0.368959
	H116	H	0.624810	0.093084	0.890229
	H117	H	0.401140	0.086716	0.070261
	H118	H	0.620218	0.911280	0.065076
	H119	H	0.399690	0.909175	0.890076
	C120	C	0.390782	0.008907	0.601335
	C121	C	0.633479	0.991144	0.601832
	C122	C	0.633324	0.008130	0.359737
	C123	C	0.390464	0.990988	0.359337
	C124	C	0.633862	0.379267	-0.010758
	C125	C	0.632922	0.622191	0.971833
	C126	C	0.389839	0.620824	-0.010589
	C127	C	0.391168	0.378569	0.971701
	C128	C	0.020596	0.621329	0.359427
	C129	C	1.003422	0.621265	0.602499
	C130	C	0.020457	0.378096	0.602832
	C131	C	1.002758	0.379060	0.358955
	C132	C	0.890728	0.509982	0.101330
	C133	C	0.132444	0.491009	0.101552
	C134	C	0.132214	0.507950	0.860525
	C135	C	0.890633	0.492233	0.859891
	C136	C	0.133585	0.878709	0.489202
	C137	C	0.133233	0.121485	0.471825
	C138	C	0.890814	0.120431	0.489604
	C139	C	0.891753	0.878847	0.472495
	C140	C	0.520766	0.121450	0.858315
	C141	C	0.503757	0.120652	0.101145
	C142	C	0.519797	0.878948	0.101701
	C143	C	0.503003	0.878570	0.858972
	C144	C	0.386863	0.892026	0.663050
	C145	C	0.636214	0.108254	0.662004
	C146	C	0.638604	0.892443	0.296655
	C147	C	0.386255	0.107166	0.296936
	C148	C	0.695226	0.376141	0.873203
	C149	C	0.695330	0.627899	0.087193
	C150	C	0.326042	0.627567	0.875116
	C151	C	0.328168	0.372525	0.086770
	C152	C	0.905253	0.683892	0.355510
	C153	C	0.120354	0.681533	0.604471
	C154	C	0.902981	0.319103	0.603562
	C155	C	0.119007	0.317295	0.355320
	C156	C	0.904080	0.375352	0.663047
	C157	C	0.119581	0.624467	0.663093
	C158	C	0.905862	0.627493	0.296670
	C159	C	0.118238	0.374002	0.296325
	C160	C	0.384157	0.684801	0.874727
	C161	C	0.635629	0.683607	0.088183
	C162	C	0.638217	0.317707	0.873339
	C163	C	0.387186	0.316064	0.087349
	C164	C	0.696022	0.892185	0.354360
	C165	C	0.694191	0.108078	0.604577
	C166	C	0.328910	0.892208	0.606118
	C167	C	0.329209	0.107659	0.355230
	C168	C	0.888170	0.392033	0.161302
	C169	C	0.137787	0.607421	0.163341
	C170	C	0.134185	0.390151	0.800656
	C171	C	0.889018	0.610098	0.799715
	C172	C	0.192210	0.878105	0.371473
	C173	C	0.191789	0.122808	0.589226
	C174	C	0.830719	0.123353	0.372846
	C175	C	0.833050	0.877330	0.590250
	C176	C	0.404001	0.182389	0.856203
	C177	C	0.621126	0.179945	0.102356
	C178	C	0.403632	0.817310	0.105637
	C179	C	0.619141	0.817578	0.856233
	C180	C	0.404382	0.874054	0.164385
	C181	C	0.619857	0.123756	0.161920
	C182	C	0.403792	0.124477	0.798474
	C183	C	0.619203	0.875420	0.798060
	C184	C	0.889374	0.180104	0.371909
	C185	C	0.133685	0.180300	0.589495
	C186	C	0.134102	0.820543	0.371382
	C187	C	0.891231	0.820083	0.590562
	C188	C	0.192172	0.390270	0.857639
	C189	C	0.195826	0.606854	0.106056
	C190	C	0.830224	0.392340	0.104086
	C191	C	0.831460	0.610483	0.857534
	C192	C	0.416590	0.090380	0.575411
	C193	C	0.607969	0.909140	0.576501
	C194	C	0.607102	0.089231	0.385977
	C195	C	0.416341	0.909542	0.385898
	C196	C	0.607967	0.404791	0.070125
	C197	C	0.607168	0.595453	0.891248
	C198	C	0.416920	0.593577	0.069257
	C199	C	0.417309	0.405894	0.891113
	C200	C	0.100886	0.594301	0.385598
	C201	C	0.921955	0.595985	0.577984
	C202	C	0.102088	0.403430	0.577852
	C203	C	0.921863	0.404832	0.384786
	C204	C	0.916217	0.591692	0.075923
	C205	C	0.105051	0.410034	0.075096
	C206	C	0.106650	0.589859	0.886102
	C207	C	0.914834	0.410013	0.884887
	C208	C	0.109196	0.903074	0.571119
	C209	C	0.108361	0.096228	0.390315
	C210	C	0.915695	0.095586	0.571048
	C211	C	0.916696	0.904211	0.391047
	C212	C	0.601571	0.095640	0.883301
	C213	C	0.422593	0.095013	0.075959
	C214	C	0.600055	0.905847	0.074818
	C215	C	0.421990	0.905021	0.884738
	Zn216	Zn	0.511461	0.000233	0.729727
	Zn217	Zn	0.512316	-0.000517	0.231249
	Zn218	Zn	0.761997	0.501441	-0.019424
	Zn219	Zn	0.261126	0.499140	-0.019834
	Zn220	Zn	0.012290	0.749790	0.480722
	Zn221	Zn	0.011545	0.250140	0.480233
	Zn222	Zn	0.011903	0.499840	0.731803
	Zn223	Zn	0.011325	0.500567	0.230203
	Zn224	Zn	0.511214	0.749984	-0.019277
	Zn225	Zn	0.512533	0.249801	-0.020018
	Zn226	Zn	0.761908	-0.001006	0.480899
	Zn227	Zn	0.262381	0.000128	0.480934
	N228	N	0.424902	0.965486	0.660292
	N229	N	0.599074	0.034287	0.660378
	N230	N	0.600190	0.965609	0.299826
	N231	N	0.423776	0.033510	0.299422
	N232	N	0.692745	0.413803	0.946281
	N233	N	0.693716	0.590212	0.013879
	N234	N	0.329403	0.588348	0.947524
	N235	N	0.330390	0.410780	0.013737
	N236	N	0.977566	0.680001	0.394123
	N237	N	0.046965	0.679742	0.567531
	N238	N	0.976645	0.320524	0.566783
	N239	N	0.046152	0.320243	0.393657
	N240	N	0.978095	0.411447	0.662452
	N241	N	0.045869	0.587839	0.662324
	N242	N	0.978726	0.588978	0.298988
	N243	N	0.044981	0.411678	0.298445
	N244	N	0.423448	0.680870	0.946811
	N245	N	0.597652	0.680290	0.015380
	N246	N	0.600653	0.319304	0.946641
	N247	N	0.425771	0.319725	0.014729
	N248	N	0.692850	0.965174	0.393108
	N249	N	0.692542	0.033980	0.567933
	N250	N	0.331109	0.965977	0.568431
	N251	N	0.331725	0.034342	0.393451
	N252	N	0.924946	0.466330	0.159929
	N253	N	0.099201	0.534175	0.160795
	N254	N	0.097540	0.464425	0.802278
	N255	N	0.924952	0.535433	0.800790
	N256	N	0.192154	0.913360	0.445952
	N257	N	0.191865	0.087311	0.514803
	N258	N	0.831325	0.086887	0.446884
	N259	N	0.832953	0.912851	0.515779
	N260	N	0.477764	0.180900	0.892543
	N261	N	0.547892	0.178096	0.065358
	N262	N	0.476262	0.820250	0.067300
	N263	N	0.545618	0.819255	0.893317
	N264	N	0.477708	0.911787	0.162140
	N265	N	0.545639	0.087964	0.161887
	N266	N	0.477388	0.087573	0.799391
	N267	N	0.545758	0.912322	0.799492
	N268	N	0.926001	0.178758	0.445608
	N269	N	0.098155	0.179965	0.515262
	N270	N	0.098539	0.820607	0.445678
	N271	N	0.926880	0.820610	0.516119
	N272	N	0.191150	0.464720	0.894024
	N273	N	0.192987	0.533151	0.068636
	N274	N	0.831400	0.466810	0.067690
	N275	N	0.832149	0.536025	0.894049
	O276	O	0.244626	0.944608	0.049808
	H277	H	0.240877	0.947621	0.045700
	H278	H	0.244858	0.939022	0.049822
	O279	O	0.294266	0.713065	0.270174
	H280	H	0.336448	0.700908	0.268937
	H281	H	0.292446	0.683473	0.291082
	O282	O	0.821673	-0.050697	1.053254
	H283	H	0.814794	-0.041097	1.076024
	H284	H	0.817659	-0.062256	1.044982
	O285	O	0.351996	0.605999	0.464121
	H286	H	0.332366	0.612607	0.458099
	H287	H	0.352427	0.608919	0.479962
	O288	O	0.491016	0.277486	0.706228
	H289	H	0.476973	0.260792	0.715205
	H290	H	0.472868	0.267643	0.704532
	O291	O	0.323478	0.342764	0.459893
	H292	H	0.310505	0.345334	0.451347
	H293	H	0.323713	0.349371	0.448941
	O294	O	0.901067	-0.075836	1.058062
	H295	H	0.906995	-0.070308	1.062011
	H296	H	0.893291	-0.085347	1.065884
	O297	O	0.286896	0.520320	0.256940
	H298	H	0.317477	0.507228	0.262733
	H299	H	0.256115	0.522273	0.221426
	O300	O	-0.653666	-0.681257	1.295130
	H301	H	-0.653275	-0.694413	1.280438
	H302	H	-0.661164	-0.662856	1.296627
	O303	O	0.733543	0.723226	0.519135
	H304	H	0.750991	0.715667	0.500447
	H305	H	0.746158	0.729475	0.501789
	O306	O	0.400167	0.412233	0.596330
	H307	H	0.394395	0.421235	0.584363
	H308	H	0.400723	0.425014	0.602870
	O309	O	0.320179	0.687571	0.672976
	H310	H	0.309049	0.697327	0.696981
	H311	H	0.328681	0.685541	0.686084
	O312	O	0.282401	0.540899	0.541489
	H313	H	0.287772	0.559057	0.543306
	H314	H	0.279759	0.549703	0.563493
	O315	O	0.723884	0.709501	1.271834
	H316	H	0.730907	0.720703	1.260152
	H317	H	0.705302	0.692738	1.263530
	O318	O	0.534373	0.719980	0.706765
	H319	H	0.537198	0.721814	0.710642
	H320	H	0.551025	0.733694	0.722942
	O321	O	0.218548	0.793999	0.777629
	H322	H	0.205219	0.822138	0.784094
	H323	H	0.207537	0.801332	0.806516
	O324	O	0.803090	1.209291	-0.225325
	H325	H	0.770453	1.240253	-0.258792
	H326	H	0.815553	1.183311	-0.225994
	O327	O	0.047040	0.213096	1.189830
	H328	H	0.042267	0.221620	1.190370
	H329	H	0.037042	0.217014	1.196478
	O330	O	0.551280	0.418570	0.312727
	H331	H	0.553398	0.409481	0.315970
	H332	H	0.554285	0.421828	0.326914
	O333	O	0.519287	0.665150	0.566200
	H334	H	0.525735	0.669712	0.562276
	H335	H	0.509923	0.681840	0.574192
	O336	O	0.394777	0.318878	0.503555
	H337	H	0.386312	0.314841	0.494673
	H338	H	0.385167	0.328231	0.505429
	O339	O	1.133076	0.068947	0.992180
	H340	H	1.125333	0.071492	1.004246
	H341	H	1.134180	0.084233	0.999376
	O342	O	-0.205675	0.022220	-0.220420
	H343	H	-0.202028	0.015042	-0.221743
	H344	H	-0.224827	0.022476	-0.226611
	O345	O	0.227272	1.034863	1.193318
	H346	H	0.231698	1.037046	1.194306
	H347	H	0.244719	1.025528	1.193149
	O348	O	0.139497	0.212808	-0.032444
	H349	H	0.144417	0.228264	-0.016991
	H350	H	0.142350	0.212507	-0.036615
	O351	O	0.740616	0.480447	0.253528
	H352	H	0.749275	0.467583	0.235901
	H353	H	0.747372	0.471732	0.255660
	O354	O	-0.401906	-0.421003	1.256801
	H355	H	-0.406587	-0.432194	1.254767
	H356	H	-0.396664	-0.429790	1.272798
	O357	O	0.571055	0.443518	0.720967
	H358	H	0.568744	0.430765	0.723876
	H359	H	0.570412	0.440595	0.725836
	O360	O	0.290632	0.283600	0.697984
	H361	H	0.288444	0.290164	0.655523
	H362	H	0.288502	0.272807	0.712057
	O363	O	-0.088741	-0.019592	0.190091
	H364	H	-0.091062	-0.019896	0.195197
	H365	H	-0.076048	-0.002864	0.183423
	O366	O	0.702975	0.309419	0.673625
	H367	H	0.685251	0.331722	0.661087
	H368	H	0.684563	0.324027	0.650306
	O369	O	0.540139	0.275116	0.255254
	H370	H	0.547253	0.274673	0.267457
	H371	H	0.538041	0.247014	0.233158
	O372	O	0.732439	1.281605	0.264771
	H373	H	0.724562	1.296094	0.289298
	H374	H	0.731578	1.291167	0.263283
	O375	O	1.096231	-0.003996	-0.065134
	H376	H	1.089457	-0.002784	-0.065042
	H377	H	1.103076	-0.004869	-0.071098
	O378	O	0.564156	0.521026	0.544526
	H379	H	0.553648	0.541545	0.552903
	H380	H	0.566732	0.531766	0.546478
	O381	O	0.225335	0.988762	0.811290
	H382	H	0.195608	0.983552	0.811333
	H383	H	0.239637	1.000534	0.795637
	O384	O	1.059832	-0.053271	0.924726
	H385	H	1.057720	-0.052207	0.926489
	H386	H	1.051352	-0.050222	0.933768
	O387	O	0.830330	1.180913	0.165136
	H388	H	0.814185	1.195835	0.185381
	H389	H	0.842636	1.162932	0.152439
	O390	O	0.484428	0.716091	0.265520
	H391	H	0.486800	0.726504	0.241820
	H392	H	0.499213	0.705922	0.267308
	O393	O	0.289746	0.475911	0.710343
	H394	H	0.287985	0.454301	0.712669
	H395	H	0.274705	0.473568	0.727098
	O396	O	-0.054722	1.216860	1.042100
	H397	H	-0.051842	1.216582	1.037275
	H398	H	-0.075627	1.213074	1.036962
	O399	O	-0.194444	0.037730	0.972951
	H400	H	-0.189176	0.045419	0.968983
	H401	H	-0.194614	0.054448	0.977420
	O402	O	0.729412	0.284005	0.451022
	H403	H	0.714381	0.284965	0.463327
	H404	H	0.742313	0.263650	0.455255
	O405	O	0.903744	0.022343	0.851708
	H406	H	0.912580	0.009926	0.870178
	H407	H	0.900545	0.018071	0.869616
	O408	O	0.001577	-0.153016	0.125201
	H409	H	0.006170	-0.149321	0.132120
	H410	H	-0.000520	-0.165169	0.123360
	O411	O	1.079349	1.097907	0.945697
	H412	H	1.087681	1.113839	0.940081
	H413	H	1.063768	1.090186	0.950719
	O414	O	0.348735	0.504924	0.379299
	H415	H	0.347386	0.515610	0.403481
	H416	H	0.341919	0.510268	0.360476
	O417	O	0.556998	0.730912	0.471019
	H418	H	0.537405	0.728305	0.465529
	H419	H	0.575296	0.735865	0.473724
	O420	O	0.572206	0.641951	0.478890
	H421	H	0.568476	0.663504	0.492201
	H422	H	0.565627	0.637080	0.474567
	O423	O	0.098311	-0.000211	0.763417
	H424	H	0.087142	0.029619	0.756740
	H425	H	0.092305	0.000055	0.789188
	O426	O	0.285530	0.727124	0.446544
	H427	H	0.278430	0.738411	0.461316
	H428	H	0.272026	0.742738	0.422828
	O429	O	0.972124	0.950351	1.171756
	H430	H	0.967274	0.947927	1.182143
	H431	H	0.971794	0.944252	1.180563
	O432	O	0.452607	0.561243	0.720622
	H433	H	0.452115	0.565219	0.721398
	H434	H	0.455661	0.556576	0.722699
	O435	O	0.066768	0.942995	0.201859
	H436	H	0.075158	0.932337	0.199229
	H437	H	0.077362	0.947122	0.203966
	O438	O	-0.048124	0.122142	-0.221013
	H439	H	-0.050892	0.131097	-0.234852
	H440	H	-0.056284	0.132126	-0.217091
	O441	O	0.194172	-0.183506	0.165799
	H442	H	0.203136	-0.203654	0.182269
	H443	H	0.200687	-0.184745	0.160268
	O444	O	0.583566	0.275938	0.536161
	H445	H	0.564313	0.285379	0.540760
	H446	H	0.572619	0.276487	0.529082
	O447	O	0.098548	1.204325	0.928520
	H448	H	0.087298	1.201541	0.929192
	H449	H	0.106702	1.211682	0.935323
	O450	O	0.218938	0.792828	0.949964
	H451	H	0.227647	0.794467	0.948086
	H452	H	0.219170	0.791072	0.962051
	O453	O	0.456338	0.465864	0.324128
	H454	H	0.460207	0.462793	0.337516
	H455	H	0.451464	0.462362	0.323073
	O456	O	0.195263	0.178754	0.795708
	H457	H	0.173689	0.162425	0.808228
	H458	H	0.202701	0.182478	0.792060
	O459	O	0.740974	0.450879	0.500857
	H460	H	0.747407	0.454817	0.506726
	H461	H	0.729205	0.455681	0.517952
	O462	O	0.877153	0.878558	0.784982
	H463	H	0.868806	0.895084	0.798333
	H464	H	0.880006	0.879027	0.789255
	O465	O	0.800255	-0.118320	0.187252
	H466	H	0.825181	-0.115375	0.186802
	H467	H	0.795962	-0.114115	0.173456
	O468	O	0.563873	0.481833	0.372816
	H469	H	0.576090	0.477112	0.373195
	H470	H	0.560137	0.482623	0.383861
	O471	O	0.456618	0.264074	0.423861
	H472	H	0.450637	0.263011	0.409245
	H473	H	0.441486	0.271697	0.426726
	O474	O	0.745695	0.576108	0.429123
	H475	H	0.746931	0.554107	0.437773
	H476	H	0.741344	0.583450	0.394070
	O477	O	0.231014	0.222174	1.203384
	H478	H	0.192715	0.222459	1.216195
	H479	H	0.247945	0.213635	1.181103
	O480	O	0.528198	0.502490	0.499486
	H481	H	0.522300	0.505959	0.507987
	H482	H	0.537925	0.511770	0.517209
	O483	O	0.736864	0.525651	0.704544
	H484	H	0.715944	0.551211	0.697695
	H485	H	0.767970	0.534085	0.735137
	O486	O	1.075761	-0.231378	1.029252
	H487	H	1.071086	-0.227875	1.037810
	H488	H	1.085930	-0.230593	1.019338
	O489	O	1.043251	0.780832	-0.235183
	H490	H	1.047485	0.783680	-0.232280
	H491	H	1.047152	0.768536	-0.255681
	O492	O	-0.044603	-0.207690	-0.085849
	H493	H	-0.049487	-0.202317	-0.099082
	H494	H	-0.028712	-0.207853	-0.077516
	O495	O	-0.205542	0.868591	1.003924
	H496	H	-0.222153	0.853646	1.000537
	H497	H	-0.181770	0.870878	1.002045
	O498	O	0.802063	1.210135	0.942064
	H499	H	0.781552	1.228503	0.927979
	H500	H	0.797999	1.214445	0.924623
	O501	O	0.722059	0.709964	0.692617
	H502	H	0.735243	0.726919	0.677553
	H503	H	0.709848	0.699866	0.674066
