data_Molecule from HDF5

_cell_length_a		16.274751
_cell_length_b		16.223426
_cell_length_c		16.224368
_cell_angle_alpha	89.946120
_cell_angle_beta	89.971826
_cell_angle_gamma	89.963751
_symmetry_space_group_name_H-M	'P 1'
_symmetry_Int_Tables_number		1

loop_
	_symmetry_equiv_pos_as_xyz
	x,y,z

loop_
	_atom_site_label
	_atom_site_type_symbol
	_atom_site_fract_x
	_atom_site_fract_y
	_atom_site_fract_z
	H0	H	0.401298	0.836238	0.714564
	H1	H	0.597908	0.164610	0.712841
	H2	H	0.597349	0.834930	0.287047
	H3	H	0.402282	0.164082	0.285935
	H4	H	0.714101	0.401468	0.836050
	H5	H	0.713224	0.597605	0.164800
	H6	H	0.286780	0.597872	0.835640
	H7	H	0.285422	0.401269	0.164014
	H8	H	0.835537	0.713508	0.402458
	H9	H	0.164350	0.713719	0.597646
	H10	H	0.835677	0.286533	0.597605
	H11	H	0.163269	0.285818	0.401401
	H12	H	0.835522	0.402835	0.714127
	H13	H	0.163847	0.597839	0.713691
	H14	H	0.835620	0.597734	0.286647
	H15	H	0.163863	0.402360	0.286740
	H16	H	0.403085	0.712695	0.835461
	H17	H	0.596181	0.712178	0.164870
	H18	H	0.597000	0.287371	0.835644
	H19	H	0.402227	0.286340	0.164400
	H20	H	0.715003	0.835617	0.401343
	H21	H	0.714174	0.163986	0.597959
	H22	H	0.286100	0.835680	0.598441
	H23	H	0.286900	0.164314	0.401810
	H24	H	0.902634	0.335407	0.213507
	H25	H	0.096961	0.664733	0.213367
	H26	H	0.097500	0.335964	0.786913
	H27	H	0.901868	0.665017	0.787534
	H28	H	0.214688	0.901579	0.335512
	H29	H	0.214695	0.098721	0.664226
	H30	H	0.786059	0.098506	0.335807
	H31	H	0.786028	0.901391	0.664077
	H32	H	0.335915	0.214213	0.901618
	H33	H	0.663948	0.213659	0.097138
	H34	H	0.336296	0.785302	0.098065
	H35	H	0.664399	0.786271	0.901603
	H36	H	0.336168	0.901036	0.214056
	H37	H	0.663741	0.096494	0.212843
	H38	H	0.336225	0.097985	0.785181
	H39	H	0.664187	0.902534	0.785930
	H40	H	0.903179	0.213085	0.334915
	H41	H	0.096568	0.212343	0.664436
	H42	H	0.097936	0.786601	0.335551
	H43	H	0.902326	0.786552	0.664523
	H44	H	0.213926	0.336172	0.901361
	H45	H	0.213806	0.664181	0.097985
	H46	H	0.785950	0.335751	0.098754
	H47	H	0.786203	0.664098	0.903116
	H48	H	0.404240	0.119352	0.598170
	H49	H	0.591964	0.880564	0.602479
	H50	H	0.603269	0.118061	0.412099
	H51	H	0.410803	0.884214	0.407887
	H52	H	0.586281	0.411984	0.113812
	H53	H	0.582769	0.586440	0.887997
	H54	H	0.403330	0.599570	0.120206
	H55	H	0.405414	0.404896	0.882560
	H56	H	0.116528	0.594312	0.406277
	H57	H	0.884364	0.598497	0.584487
	H58	H	0.117553	0.411981	0.601873
	H59	H	0.883465	0.405701	0.410996
	H60	H	0.119442	0.396721	0.594520
	H61	H	0.885606	0.583391	0.595356
	H62	H	0.116666	0.593490	0.406603
	H63	H	0.882887	0.410156	0.404251
	H64	H	0.401867	0.587094	0.116552
	H65	H	0.592837	0.606867	0.878987
	H66	H	0.591840	0.397191	0.119985
	H67	H	0.405782	0.408643	0.882756
	H68	H	0.593644	0.120448	0.396064
	H69	H	0.586546	0.886495	0.587260
	H70	H	0.414199	0.114765	0.591982
	H71	H	0.402196	0.882333	0.410326
	H72	H	0.894406	0.621116	0.094155
	H73	H	0.098009	0.384729	0.084238
	H74	H	0.089392	0.618685	0.901029
	H75	H	0.900423	0.383496	0.917193
	H76	H	0.092512	0.908781	0.616728
	H77	H	0.091987	0.094123	0.383745
	H78	H	0.901730	0.089957	0.618021
	H79	H	0.906708	0.923631	0.387518
	H80	H	0.618273	0.089198	0.895894
	H81	H	0.380098	0.100623	0.095489
	H82	H	0.613038	0.913657	0.088594
	H83	H	0.383172	0.912035	0.899246
	H84	H	0.619821	0.906888	0.103721
	H85	H	0.385601	0.092128	0.084875
	H86	H	0.619807	0.104766	0.907773
	H87	H	0.380292	0.897544	0.905478
	H88	H	0.911478	0.091293	0.615230
	H89	H	0.095916	0.095169	0.380795
	H90	H	0.092903	0.904626	0.617382
	H91	H	0.921757	0.897909	0.384186
	H92	H	0.090352	0.614669	0.912479
	H93	H	0.098022	0.378558	0.101451
	H94	H	0.912809	0.618425	0.104338
	H95	H	0.902250	0.378771	0.897580
	H96	H	0.403179	0.116456	0.585382
	H97	H	0.602668	0.881205	0.589192
	H98	H	0.584952	0.112933	0.411183
	H99	H	0.405395	0.880361	0.401431
	H100	H	0.602176	0.410557	0.119496
	H101	H	0.606026	0.586785	0.880901
	H102	H	0.413528	0.592835	0.115279
	H103	H	0.408215	0.407297	0.883445
	H104	H	0.117050	0.593218	0.405653
	H105	H	0.879378	0.599532	0.602117
	H106	H	0.113090	0.409504	0.584853
	H107	H	0.880546	0.402843	0.404396
	H108	H	0.911442	0.613081	0.083249
	H109	H	0.083185	0.385391	0.094454
	H110	H	0.100349	0.620053	0.907272
	H111	H	0.917758	0.386018	0.907478
	H112	H	0.096126	0.907254	0.617411
	H113	H	0.095096	0.091041	0.382656
	H114	H	0.905668	0.098670	0.618684
	H115	H	0.892225	0.899090	0.376523
	H116	H	0.612797	0.087607	0.914651
	H117	H	0.383808	0.086921	0.097764
	H118	H	0.618449	0.896996	0.089314
	H119	H	0.386761	0.909594	0.914578
	C120	C	0.378741	0.008261	0.620838
	C121	C	0.621858	0.991362	0.621164
	C122	C	0.621795	0.008222	0.378373
	C123	C	0.378181	0.991194	0.378343
	C124	C	0.621553	0.378744	0.008809
	C125	C	0.621511	0.621405	0.991525
	C126	C	0.377920	0.621650	0.008784
	C127	C	0.378097	0.378746	0.991432
	C128	C	0.008185	0.621969	0.378093
	C129	C	0.991341	0.621817	0.621823
	C130	C	0.008326	0.378224	0.622139
	C131	C	0.991090	0.378177	0.378191
	C132	C	0.878130	0.508780	0.121938
	C133	C	0.121413	0.491454	0.121751
	C134	C	0.121762	0.509134	0.878572
	C135	C	0.878660	0.491736	0.879163
	C136	C	0.121763	0.878654	0.508075
	C137	C	0.122198	0.121533	0.491031
	C138	C	0.878669	0.121273	0.508451
	C139	C	0.878631	0.878627	0.491625
	C140	C	0.508543	0.122199	0.877763
	C141	C	0.491184	0.121528	0.121310
	C142	C	0.508572	0.877644	0.121942
	C143	C	0.491781	0.878000	0.877981
	C144	C	0.381217	0.884948	0.676403
	C145	C	0.618775	0.115496	0.675265
	C146	C	0.618309	0.884203	0.324249
	C147	C	0.381858	0.115077	0.323963
	C148	C	0.676118	0.381161	0.884964
	C149	C	0.675703	0.618267	0.115491
	C150	C	0.323934	0.618734	0.884955
	C151	C	0.323087	0.380983	0.115179
	C152	C	0.884653	0.676303	0.381723
	C153	C	0.115276	0.675885	0.618623
	C154	C	0.884773	0.323637	0.618927
	C155	C	0.114434	0.323418	0.380688
	C156	C	0.884619	0.381660	0.676577
	C157	C	0.115149	0.618472	0.676161
	C158	C	0.884665	0.618882	0.324001
	C159	C	0.114725	0.381502	0.323841
	C160	C	0.381456	0.676202	0.884915
	C161	C	0.617831	0.675302	0.115544
	C162	C	0.617997	0.324375	0.884859
	C163	C	0.381036	0.323859	0.115277
	C164	C	0.676719	0.884563	0.381048
	C165	C	0.676618	0.115052	0.618433
	C166	C	0.323491	0.885040	0.619015
	C167	C	0.324440	0.115357	0.381504
	C168	C	0.881606	0.384563	0.176217
	C169	C	0.117956	0.615554	0.175927
	C170	C	0.118229	0.384912	0.824639
	C171	C	0.881523	0.615565	0.824785
	C172	C	0.176941	0.881129	0.384665
	C173	C	0.177021	0.119132	0.615166
	C174	C	0.824119	0.118619	0.384503
	C175	C	0.823753	0.880990	0.615037
	C176	C	0.384920	0.176780	0.880354
	C177	C	0.614811	0.176108	0.118235
	C178	C	0.384974	0.823376	0.118355
	C179	C	0.615234	0.823800	0.881349
	C180	C	0.384955	0.880609	0.176216
	C181	C	0.614750	0.118231	0.175767
	C182	C	0.385114	0.118911	0.822735
	C183	C	0.615308	0.881445	0.823683
	C184	C	0.882062	0.175572	0.384222
	C185	C	0.118599	0.175631	0.615267
	C186	C	0.118779	0.824237	0.384405
	C187	C	0.881563	0.823942	0.615226
	C188	C	0.176408	0.385204	0.881107
	C189	C	0.175947	0.615249	0.118801
	C190	C	0.823815	0.384743	0.119163
	C191	C	0.823598	0.615237	0.881968
	C192	C	0.400833	0.094763	0.598625
	C193	C	0.600062	0.905049	0.599429
	C194	C	0.600224	0.094851	0.400077
	C195	C	0.399612	0.904627	0.400011
	C196	C	0.599975	0.400172	0.095473
	C197	C	0.600243	0.599849	0.904836
	C198	C	0.399778	0.599647	0.095273
	C199	C	0.400158	0.400642	0.905141
	C200	C	0.094454	0.600096	0.399685
	C201	C	0.905421	0.600420	0.600195
	C202	C	0.094521	0.399708	0.600104
	C203	C	0.904637	0.399948	0.400008
	C204	C	0.899563	0.595321	0.100292
	C205	C	0.099468	0.405091	0.099894
	C206	C	0.099884	0.595454	0.900593
	C207	C	0.900413	0.404860	0.900925
	C208	C	0.100123	0.900524	0.594740
	C209	C	0.100570	0.099879	0.404764
	C210	C	0.900066	0.099719	0.594867
	C211	C	0.900507	0.900463	0.405034
	C212	C	0.594595	0.100446	0.899676
	C213	C	0.405139	0.099728	0.099405
	C214	C	0.594946	0.899382	0.100364
	C215	C	0.405403	0.899988	0.899884
	Zn216	Zn	0.500396	0.000319	0.749411
	Zn217	Zn	0.499783	-0.000465	0.250036
	Zn218	Zn	0.749989	0.499788	0.000562
	Zn219	Zn	0.249765	0.500105	0.000107
	Zn220	Zn	0.000234	0.750345	0.500242
	Zn221	Zn	-0.000033	0.249656	0.500043
	Zn222	Zn	0.000116	0.500430	0.750673
	Zn223	Zn	-0.000368	0.499772	0.249852
	Zn224	Zn	0.499987	0.749680	-0.000070
	Zn225	Zn	0.499768	0.250732	-0.000172
	Zn226	Zn	0.750279	-0.000316	0.499939
	Zn227	Zn	0.250255	0.000100	0.500019
	N228	N	0.414948	0.962710	0.677571
	N229	N	0.585335	0.037646	0.677125
	N230	N	0.584814	0.962196	0.322581
	N231	N	0.414700	0.036876	0.321834
	N232	N	0.678442	0.413983	0.962983
	N233	N	0.678090	0.585365	0.037334
	N234	N	0.321539	0.585599	0.962962
	N235	N	0.321138	0.414211	0.037115
	N236	N	0.962551	0.678396	0.414590
	N237	N	0.037554	0.678110	0.585281
	N238	N	0.962615	0.321362	0.585795
	N239	N	0.036694	0.321323	0.413907
	N240	N	0.962424	0.414673	0.678748
	N241	N	0.037308	0.585640	0.678497
	N242	N	0.962356	0.585657	0.321827
	N243	N	0.037070	0.414918	0.322439
	N244	N	0.414346	0.678188	0.962981
	N245	N	0.584863	0.677262	0.037514
	N246	N	0.584614	0.322902	0.962793
	N247	N	0.414615	0.322423	0.037556
	N248	N	0.678785	0.962700	0.414040
	N249	N	0.678479	0.037036	0.585427
	N250	N	0.322295	0.962812	0.585011
	N251	N	0.322190	0.037335	0.414505
	N252	N	0.914900	0.462464	0.177789
	N253	N	0.084629	0.537671	0.177907
	N254	N	0.085145	0.462884	0.822726
	N255	N	0.914739	0.537553	0.822815
	N256	N	0.178747	0.914306	0.462682
	N257	N	0.179513	0.086352	0.536932
	N258	N	0.821609	0.085778	0.462789
	N259	N	0.821884	0.914257	0.537032
	N260	N	0.462459	0.178953	0.913828
	N261	N	0.537019	0.178323	0.085082
	N262	N	0.462919	0.821460	0.085446
	N263	N	0.537301	0.821819	0.914620
	N264	N	0.462710	0.913838	0.178238
	N265	N	0.537099	0.084846	0.177600
	N266	N	0.462911	0.085624	0.821143
	N267	N	0.537562	0.914605	0.821633
	N268	N	0.915286	0.177383	0.462084
	N269	N	0.085163	0.177357	0.537448
	N270	N	0.085366	0.822510	0.462274
	N271	N	0.914892	0.822448	0.537336
	N272	N	0.178694	0.463422	0.913899
	N273	N	0.177922	0.537303	0.085685
	N274	N	0.821336	0.462998	0.086360
	N275	N	0.822006	0.537253	0.915304
