data_Molecule from HDF5

_cell_length_a		16.200613
_cell_length_b		16.303569
_cell_length_c		16.211082
_cell_angle_alpha	90.015285
_cell_angle_beta	90.025371
_cell_angle_gamma	89.950105
_symmetry_space_group_name_H-M	'P 1'
_symmetry_Int_Tables_number		1

loop_
	_symmetry_equiv_pos_as_xyz
	x,y,z

loop_
	_atom_site_label
	_atom_site_type_symbol
	_atom_site_fract_x
	_atom_site_fract_y
	_atom_site_fract_z
	H0	H	0.402702	0.835763	0.713787
	H1	H	0.597847	0.163552	0.714337
	H2	H	0.597671	0.834837	0.286174
	H3	H	0.402694	0.163680	0.286301
	H4	H	0.712787	0.403064	0.835618
	H5	H	0.711940	0.595690	0.165430
	H6	H	0.287764	0.596173	0.835548
	H7	H	0.287787	0.403557	0.165729
	H8	H	0.835178	0.713678	0.401718
	H9	H	0.164575	0.714830	0.598086
	H10	H	0.835830	0.286208	0.597575
	H11	H	0.164134	0.285563	0.401360
	H12	H	0.835000	0.403882	0.711880
	H13	H	0.165522	0.596522	0.711805
	H14	H	0.835000	0.597554	0.286611
	H15	H	0.164604	0.403767	0.287331
	H16	H	0.401396	0.713547	0.836329
	H17	H	0.598655	0.713542	0.164528
	H18	H	0.598156	0.286551	0.836258
	H19	H	0.402310	0.286436	0.164658
	H20	H	0.713776	0.836263	0.402678
	H21	H	0.714354	0.163208	0.598246
	H22	H	0.286162	0.836175	0.597897
	H23	H	0.286316	0.163789	0.402961
	H24	H	0.902937	0.336595	0.213264
	H25	H	0.097849	0.664105	0.214364
	H26	H	0.097097	0.335586	0.787088
	H27	H	0.902107	0.663696	0.786145
	H28	H	0.212746	0.902937	0.335266
	H29	H	0.212389	0.096515	0.665251
	H30	H	0.785774	0.098028	0.335003
	H31	H	0.788652	0.903609	0.664553
	H32	H	0.336067	0.214684	0.900464
	H33	H	0.664708	0.213664	0.098079
	H34	H	0.335315	0.786620	0.097870
	H35	H	0.664141	0.785000	0.900961
	H36	H	0.334671	0.903683	0.211997
	H37	H	0.664911	0.095177	0.211903
	H38	H	0.335187	0.096610	0.787068
	H39	H	0.665214	0.903692	0.788095
	H40	H	0.901489	0.213770	0.335480
	H41	H	0.098958	0.214439	0.663484
	H42	H	0.098205	0.786259	0.335502
	H43	H	0.901508	0.786161	0.663375
	H44	H	0.214665	0.336033	0.902913
	H45	H	0.213059	0.663837	0.096759
	H46	H	0.786442	0.336210	0.098008
	H47	H	0.785833	0.664000	0.902781
	H48	H	0.409410	0.116228	0.595566
	H49	H	0.601015	0.879689	0.598399
	H50	H	0.589919	0.115502	0.404553
	H51	H	0.410804	0.882283	0.397543
	H52	H	0.601196	0.403509	0.121384
	H53	H	0.605455	0.590094	0.880595
	H54	H	0.400961	0.598085	0.121754
	H55	H	0.401126	0.408593	0.882433
	H56	H	0.118450	0.595109	0.406255
	H57	H	0.878412	0.593767	0.605585
	H58	H	0.117940	0.404569	0.592240
	H59	H	0.885516	0.407505	0.416832
	H60	H	0.117929	0.407316	0.592655
	H61	H	0.881357	0.604959	0.587540
	H62	H	0.117015	0.593372	0.408479
	H63	H	0.881570	0.414451	0.400137
	H64	H	0.405433	0.586317	0.116059
	H65	H	0.584564	0.586451	0.887789
	H66	H	0.592956	0.415384	0.115324
	H67	H	0.410981	0.410559	0.885137
	H68	H	0.594278	0.115829	0.409329
	H69	H	0.586657	0.883293	0.599264
	H70	H	0.404921	0.116079	0.589877
	H71	H	0.408839	0.885391	0.413670
	H72	H	0.895469	0.620837	0.095100
	H73	H	0.097100	0.382610	0.092118
	H74	H	0.096634	0.616483	0.909838
	H75	H	0.903917	0.382478	0.907211
	H76	H	0.097931	0.910426	0.617505
	H77	H	0.085676	0.100390	0.382640
	H78	H	0.901763	0.087981	0.616591
	H79	H	0.901981	0.910333	0.380779
	H80	H	0.617168	0.084345	0.899999
	H81	H	0.381032	0.094162	0.097670
	H82	H	0.614818	0.902663	0.082435
	H83	H	0.382490	0.903885	0.909666
	H84	H	0.616045	0.915821	0.097059
	H85	H	0.382104	0.098496	0.089946
	H86	H	0.621659	0.104771	0.903433
	H87	H	0.383515	0.909276	0.907527
	H88	H	0.914055	0.092295	0.614510
	H89	H	0.102388	0.096467	0.377842
	H90	H	0.086218	0.909155	0.615160
	H91	H	0.911421	0.907622	0.383107
	H92	H	0.097188	0.619108	0.901866
	H93	H	0.094825	0.381873	0.097592
	H94	H	0.913098	0.617652	0.102086
	H95	H	0.907868	0.382271	0.903522
	H96	H	0.402555	0.117855	0.596340
	H97	H	0.594626	0.884974	0.586088
	H98	H	0.596055	0.117849	0.403293
	H99	H	0.396659	0.880031	0.404716
	H100	H	0.586356	0.401458	0.117759
	H101	H	0.590136	0.606447	0.879088
	H102	H	0.414480	0.596848	0.117074
	H103	H	0.408266	0.400928	0.881656
	H104	H	0.117541	0.592489	0.406133
	H105	H	0.886985	0.584272	0.588385
	H106	H	0.118449	0.406321	0.594830
	H107	H	0.878537	0.396756	0.403713
	H108	H	0.909460	0.613205	0.083087
	H109	H	0.090920	0.384768	0.093080
	H110	H	0.090534	0.615818	0.904776
	H111	H	0.908415	0.384376	0.908121
	H112	H	0.092467	0.900103	0.619565
	H113	H	0.090936	0.084625	0.385289
	H114	H	0.905244	0.100700	0.619093
	H115	H	0.904620	0.901343	0.380038
	H116	H	0.613643	0.092483	0.918797
	H117	H	0.384363	0.089994	0.090604
	H118	H	0.621995	0.898048	0.100166
	H119	H	0.381494	0.905716	0.903992
	C120	C	0.378010	0.008314	0.621943
	C121	C	0.621978	0.991123	0.622035
	C122	C	0.621370	0.007730	0.378118
	C123	C	0.377771	0.991302	0.377720
	C124	C	0.621658	0.378753	0.009128
	C125	C	0.621451	0.621601	0.991551
	C126	C	0.378514	0.621749	0.009283
	C127	C	0.378800	0.378692	0.991968
	C128	C	0.008401	0.621466	0.378683
	C129	C	0.991612	0.622268	0.621415
	C130	C	0.008904	0.378393	0.621216
	C131	C	0.990998	0.378453	0.378609
	C132	C	0.878063	0.508792	0.121959
	C133	C	0.122096	0.491449	0.122065
	C134	C	0.122451	0.508275	0.878407
	C135	C	0.878298	0.491680	0.878406
	C136	C	0.120939	0.878495	0.508400
	C137	C	0.121267	0.121403	0.491217
	C138	C	0.878345	0.121708	0.508191
	C139	C	0.878745	0.878648	0.490548
	C140	C	0.508605	0.121686	0.878769
	C141	C	0.491547	0.121598	0.121278
	C142	C	0.508568	0.878138	0.121188
	C143	C	0.491394	0.878044	0.878590
	C144	C	0.381550	0.884763	0.676251
	C145	C	0.618553	0.114799	0.676350
	C146	C	0.618223	0.884309	0.323821
	C147	C	0.381344	0.114793	0.323603
	C148	C	0.675999	0.381556	0.885012
	C149	C	0.674859	0.617147	0.116150
	C150	C	0.324581	0.617637	0.884960
	C151	C	0.325147	0.382691	0.116396
	C152	C	0.884381	0.676268	0.381008
	C153	C	0.115610	0.676692	0.618162
	C154	C	0.884833	0.323980	0.618470
	C155	C	0.115240	0.323811	0.381190
	C156	C	0.884436	0.382391	0.674981
	C157	C	0.116216	0.618060	0.674707
	C158	C	0.884227	0.618659	0.323946
	C159	C	0.115545	0.382561	0.324915
	C160	C	0.381209	0.675719	0.885127
	C161	C	0.618756	0.675950	0.115675
	C162	C	0.618715	0.324159	0.885096
	C163	C	0.381771	0.324428	0.115902
	C164	C	0.675878	0.884539	0.381783
	C165	C	0.676105	0.114708	0.618414
	C166	C	0.323798	0.884899	0.618657
	C167	C	0.323734	0.114788	0.381525
	C168	C	0.881583	0.385575	0.176329
	C169	C	0.119012	0.614951	0.176802
	C170	C	0.118927	0.384736	0.824056
	C171	C	0.881581	0.615130	0.824187
	C172	C	0.175106	0.882099	0.384465
	C173	C	0.175205	0.117605	0.615589
	C174	C	0.823893	0.118260	0.383911
	C175	C	0.825198	0.882153	0.615066
	C176	C	0.384830	0.176536	0.880650
	C177	C	0.615503	0.175951	0.118693
	C178	C	0.384254	0.824163	0.118224
	C179	C	0.615343	0.823533	0.881137
	C180	C	0.384019	0.882398	0.174494
	C181	C	0.615733	0.117228	0.175138
	C182	C	0.384420	0.118046	0.824100
	C183	C	0.615837	0.882075	0.824984
	C184	C	0.881167	0.175930	0.384216
	C185	C	0.118890	0.176291	0.614937
	C186	C	0.118362	0.824089	0.384377
	C187	C	0.881470	0.824072	0.614561
	C188	C	0.176866	0.384801	0.881784
	C189	C	0.176065	0.614999	0.118486
	C190	C	0.824048	0.385270	0.118873
	C191	C	0.823665	0.615090	0.881741
	C192	C	0.399498	0.094465	0.600445
	C193	C	0.600513	0.905034	0.600792
	C194	C	0.599849	0.094153	0.399442
	C195	C	0.399039	0.904778	0.399066
	C196	C	0.599832	0.400234	0.095763
	C197	C	0.599784	0.600552	0.904958
	C198	C	0.400468	0.600235	0.095793
	C199	C	0.400360	0.400235	0.905287
	C200	C	0.095197	0.599882	0.400458
	C201	C	0.904716	0.600714	0.600015
	C202	C	0.095717	0.399772	0.599696
	C203	C	0.904322	0.399904	0.400595
	C204	C	0.899459	0.594998	0.099990
	C205	C	0.100657	0.405395	0.100575
	C206	C	0.101133	0.594768	0.899389
	C207	C	0.900245	0.405335	0.899794
	C208	C	0.098794	0.900266	0.595042
	C209	C	0.099550	0.100145	0.404390
	C210	C	0.900373	0.099934	0.594512
	C211	C	0.899673	0.900103	0.403677
	C212	C	0.595262	0.100267	0.900950
	C213	C	0.404760	0.100638	0.099054
	C214	C	0.595293	0.899383	0.099545
	C215	C	0.404806	0.899702	0.900448
	Zn216	Zn	0.500052	-0.000402	0.750846
	Zn217	Zn	0.499717	-0.000760	0.248895
	Zn218	Zn	0.749727	0.499909	0.000337
	Zn219	Zn	0.250847	0.499967	0.000551
	Zn220	Zn	-0.000544	0.750307	0.499190
	Zn221	Zn	-0.000369	0.250169	0.499627
	Zn222	Zn	0.000703	0.500025	0.749542
	Zn223	Zn	-0.000187	0.500346	0.250586
	Zn224	Zn	0.499737	0.749732	0.000377
	Zn225	Zn	0.499969	0.250585	0.000200
	Zn226	Zn	0.750707	-0.000083	0.499933
	Zn227	Zn	0.249307	-0.000123	0.500176
	N228	N	0.414682	0.962452	0.678269
	N229	N	0.585391	0.037151	0.678452
	N230	N	0.585123	0.962054	0.321463
	N231	N	0.414220	0.037032	0.321306
	N232	N	0.677636	0.414906	0.963003
	N233	N	0.676916	0.584235	0.037984
	N234	N	0.322814	0.584606	0.963146
	N235	N	0.323192	0.415504	0.038252
	N236	N	0.962645	0.678180	0.414271
	N237	N	0.037058	0.679143	0.585569
	N238	N	0.963202	0.321453	0.585743
	N239	N	0.036680	0.321242	0.413966
	N240	N	0.962674	0.415544	0.676864
	N241	N	0.038125	0.584894	0.676934
	N242	N	0.962263	0.585236	0.322441
	N243	N	0.037464	0.415682	0.323109
	N244	N	0.413905	0.678394	0.963347
	N245	N	0.586349	0.678888	0.037247
	N246	N	0.585678	0.322332	0.963237
	N247	N	0.414523	0.322019	0.037604
	N248	N	0.678006	0.962294	0.414899
	N249	N	0.678632	0.036798	0.585543
	N250	N	0.321330	0.962706	0.585596
	N251	N	0.321477	0.036952	0.414572
	N252	N	0.914697	0.463237	0.177976
	N253	N	0.085896	0.537278	0.178987
	N254	N	0.085846	0.462481	0.821987
	N255	N	0.914614	0.537234	0.821676
	N256	N	0.176897	0.915141	0.462539
	N257	N	0.176786	0.084350	0.537525
	N258	N	0.822250	0.085161	0.461979
	N259	N	0.823331	0.915485	0.537152
	N260	N	0.463076	0.178917	0.913984
	N261	N	0.537212	0.178717	0.085823
	N262	N	0.462832	0.821329	0.085796
	N263	N	0.536959	0.820893	0.913877
	N264	N	0.462175	0.915183	0.176277
	N265	N	0.537634	0.084136	0.176556
	N266	N	0.462355	0.084594	0.822980
	N267	N	0.537851	0.915639	0.823680
	N268	N	0.914240	0.178230	0.462485
	N269	N	0.085928	0.178674	0.536609
	N270	N	0.085393	0.821836	0.462612
	N271	N	0.914000	0.821868	0.536087
	N272	N	0.179326	0.462700	0.914618
	N273	N	0.178116	0.537432	0.085066
	N274	N	0.821774	0.463025	0.085643
	N275	N	0.821724	0.537348	0.914839
