data_Molecule from HDF5

_cell_length_a		16.177006
_cell_length_b		16.276940
_cell_length_c		16.245136
_cell_angle_alpha	89.774153
_cell_angle_beta	90.014644
_cell_angle_gamma	90.069936
_symmetry_space_group_name_H-M	'P 1'
_symmetry_Int_Tables_number		1

loop_
	_symmetry_equiv_pos_as_xyz
	x,y,z

loop_
	_atom_site_label
	_atom_site_type_symbol
	_atom_site_fract_x
	_atom_site_fract_y
	_atom_site_fract_z
	H0	H	0.400537	0.834053	0.711581
	H1	H	0.597879	0.161741	0.710879
	H2	H	0.597621	0.834856	0.282746
	H3	H	0.399363	0.161979	0.281473
	H4	H	0.712992	0.400911	0.832687
	H5	H	0.712387	0.594421	0.161642
	H6	H	0.285344	0.596045	0.831436
	H7	H	0.285210	0.399159	0.161161
	H8	H	0.833952	0.713015	0.397912
	H9	H	0.163051	0.712718	0.596062
	H10	H	0.834550	0.283500	0.597235
	H11	H	0.162654	0.284225	0.398055
	H12	H	0.834205	0.399219	0.711253
	H13	H	0.163583	0.595068	0.709897
	H14	H	0.833863	0.597193	0.282870
	H15	H	0.163138	0.400375	0.284305
	H16	H	0.399774	0.713868	0.832750
	H17	H	0.598790	0.712572	0.160196
	H18	H	0.597212	0.284656	0.832621
	H19	H	0.400701	0.282892	0.160973
	H20	H	0.712109	0.834318	0.399950
	H21	H	0.711772	0.162264	0.593936
	H22	H	0.285407	0.834245	0.594856
	H23	H	0.285994	0.163090	0.399489
	H24	H	0.900291	0.334476	0.212548
	H25	H	0.098500	0.662037	0.211491
	H26	H	0.097874	0.333800	0.783000
	H27	H	0.900818	0.661427	0.781704
	H28	H	0.213240	0.901531	0.333132
	H29	H	0.211190	0.094101	0.662038
	H30	H	0.786450	0.094881	0.332643
	H31	H	0.785452	0.900330	0.661579
	H32	H	0.334130	0.211629	0.898278
	H33	H	0.663215	0.212318	0.095765
	H34	H	0.334271	0.781766	0.096184
	H35	H	0.663700	0.785730	0.898968
	H36	H	0.333753	0.898030	0.211367
	H37	H	0.664208	0.094225	0.209232
	H38	H	0.334228	0.096147	0.783151
	H39	H	0.663636	0.901705	0.784407
	H40	H	0.898853	0.214548	0.334169
	H41	H	0.096580	0.211097	0.661676
	H42	H	0.098557	0.783864	0.333445
	H43	H	0.899595	0.783087	0.661674
	H44	H	0.211590	0.333005	0.901285
	H45	H	0.214724	0.661658	0.095012
	H46	H	0.785484	0.333831	0.095885
	H47	H	0.786693	0.662113	0.899499
	H48	H	0.397062	0.118544	0.594260
	H49	H	0.584969	0.885624	0.584476
	H50	H	0.581715	0.112933	0.399298
	H51	H	0.407101	0.885021	0.412443
	H52	H	0.601099	0.400773	0.117049
	H53	H	0.592265	0.589113	0.880698
	H54	H	0.390813	0.592798	0.118233
	H55	H	0.402030	0.406287	0.879023
	H56	H	0.116061	0.594909	0.403686
	H57	H	0.884398	0.587039	0.581713
	H58	H	0.117706	0.406985	0.597902
	H59	H	0.878840	0.400055	0.404968
	H60	H	0.118046	0.397589	0.588521
	H61	H	0.880029	0.585991	0.598052
	H62	H	0.114587	0.590966	0.408279
	H63	H	0.882742	0.406991	0.410574
	H64	H	0.411181	0.574228	0.107055
	H65	H	0.590114	0.594734	0.879671
	H66	H	0.590009	0.413143	0.110857
	H67	H	0.408986	0.408005	0.881895
	H68	H	0.594880	0.113168	0.413765
	H69	H	0.601662	0.878821	0.588337
	H70	H	0.412205	0.115245	0.597052
	H71	H	0.400651	0.879070	0.401931
	H72	H	0.912916	0.613855	0.093376
	H73	H	0.097553	0.378159	0.095478
	H74	H	0.083477	0.610591	0.907627
	H75	H	0.894948	0.375798	0.898709
	H76	H	0.093797	0.905020	0.615179
	H77	H	0.083162	0.105959	0.378702
	H78	H	0.913157	0.093309	0.612792
	H79	H	0.910624	0.906534	0.382679
	H80	H	0.618666	0.095118	0.900134
	H81	H	0.379861	0.093663	0.091329
	H82	H	0.620289	0.898817	0.097959
	H83	H	0.381083	0.901969	0.906980
	H84	H	0.614967	0.899991	0.081818
	H85	H	0.381711	0.090035	0.085493
	H86	H	0.615890	0.093289	0.906618
	H87	H	0.382186	0.908609	0.905517
	H88	H	0.900344	0.095907	0.617747
	H89	H	0.106988	0.092461	0.375525
	H90	H	0.089472	0.905337	0.613038
	H91	H	0.905053	0.898982	0.378145
	H92	H	0.101315	0.615761	0.908781
	H93	H	0.085341	0.382382	0.096219
	H94	H	0.904231	0.614163	0.083225
	H95	H	0.916673	0.381648	0.896958
	H96	H	0.405992	0.112691	0.582800
	H97	H	0.588766	0.879046	0.600888
	H98	H	0.599711	0.119678	0.395442
	H99	H	0.413234	0.883094	0.400711
	H100	H	0.583982	0.396914	0.113977
	H101	H	0.595531	0.593516	0.878170
	H102	H	0.419282	0.602056	0.112926
	H103	H	0.407287	0.400554	0.879192
	H104	H	0.116293	0.588737	0.402140
	H105	H	0.878171	0.601166	0.590196
	H106	H	0.114094	0.409919	0.586080
	H107	H	0.880729	0.408826	0.401723
	H108	H	0.900296	0.617867	0.095013
	H109	H	0.091880	0.383364	0.084658
	H110	H	0.092341	0.617498	0.892268
	H111	H	0.905757	0.384235	0.916563
	H112	H	0.091988	0.901526	0.614851
	H113	H	0.084914	0.078983	0.385805
	H114	H	0.904333	0.083778	0.613147
	H115	H	0.900705	0.908885	0.379869
	H116	H	0.616619	0.088191	0.902030
	H117	H	0.381840	0.087166	0.091603
	H118	H	0.613142	0.912901	0.091503
	H119	H	0.379766	0.904316	0.901276
	C120	C	0.376875	0.006798	0.619614
	C121	C	0.620425	0.989602	0.619135
	C122	C	0.620650	0.006998	0.374848
	C123	C	0.377685	0.990482	0.375860
	C124	C	0.620686	0.376037	0.005547
	C125	C	0.620904	0.619961	0.988400
	C126	C	0.378293	0.618818	0.004392
	C127	C	0.377357	0.375794	0.988226
	C128	C	0.006865	0.620275	0.375798
	C129	C	0.989873	0.619634	0.618326
	C130	C	0.007734	0.376035	0.619310
	C131	C	0.989927	0.377152	0.376871
	C132	C	0.877122	0.506759	0.119232
	C133	C	0.120780	0.489624	0.119645
	C134	C	0.120611	0.506062	0.875331
	C135	C	0.877668	0.489082	0.875615
	C136	C	0.120537	0.876414	0.505801
	C137	C	0.120061	0.120048	0.488664
	C138	C	0.877364	0.119904	0.506143
	C139	C	0.877101	0.876597	0.488873
	C140	C	0.508015	0.120113	0.874995
	C141	C	0.490117	0.118220	0.117559
	C142	C	0.507130	0.875061	0.119134
	C143	C	0.490468	0.877213	0.876107
	C144	C	0.380158	0.883108	0.673819
	C145	C	0.618178	0.112899	0.673337
	C146	C	0.617787	0.883540	0.320714
	C147	C	0.379472	0.113360	0.319811
	C148	C	0.675442	0.379930	0.881805
	C149	C	0.675193	0.615568	0.112193
	C150	C	0.322891	0.616658	0.880757
	C151	C	0.322501	0.378160	0.112037
	C152	C	0.882937	0.675028	0.378029
	C153	C	0.114058	0.674287	0.615726
	C154	C	0.883629	0.321512	0.616907
	C155	C	0.113731	0.322483	0.378938
	C156	C	0.883530	0.378622	0.673948
	C157	C	0.114317	0.615935	0.672246
	C158	C	0.882978	0.617721	0.320654
	C159	C	0.113883	0.380255	0.322015
	C160	C	0.379474	0.675422	0.881411
	C161	C	0.618743	0.674232	0.111807
	C162	C	0.618168	0.321871	0.881766
	C163	C	0.379767	0.320267	0.111821
	C164	C	0.674835	0.883191	0.378734
	C165	C	0.675022	0.113059	0.615222
	C166	C	0.322548	0.883163	0.616409
	C167	C	0.323092	0.113782	0.378632
	C168	C	0.879726	0.383385	0.174598
	C169	C	0.118936	0.613035	0.173875
	C170	C	0.117765	0.382540	0.821076
	C171	C	0.880394	0.612592	0.820063
	C172	C	0.175483	0.880226	0.382042
	C173	C	0.174154	0.116012	0.612835
	C174	C	0.823287	0.116383	0.381793
	C175	C	0.822838	0.879456	0.612620
	C176	C	0.383398	0.174187	0.877754
	C177	C	0.614516	0.173669	0.115545
	C178	C	0.383106	0.820014	0.116542
	C179	C	0.614441	0.823107	0.878744
	C180	C	0.383161	0.877711	0.173754
	C181	C	0.614795	0.115609	0.172154
	C182	C	0.383552	0.116797	0.820656
	C183	C	0.614376	0.880564	0.821671
	C184	C	0.879173	0.175700	0.382675
	C185	C	0.117245	0.173967	0.612596
	C186	C	0.118329	0.822060	0.382196
	C187	C	0.879751	0.821407	0.612648
	C188	C	0.174302	0.382155	0.879748
	C189	C	0.176267	0.612962	0.115568
	C190	C	0.822487	0.383116	0.116693
	C191	C	0.823550	0.612821	0.878391
	C192	C	0.398619	0.093268	0.597989
	C193	C	0.598324	0.903353	0.597547
	C194	C	0.598725	0.093053	0.396536
	C195	C	0.400428	0.904591	0.398353
	C196	C	0.598272	0.397399	0.091840
	C197	C	0.598855	0.598913	0.901706
	C198	C	0.400578	0.596233	0.090361
	C199	C	0.399492	0.398386	0.902098
	C200	C	0.093429	0.598063	0.398187
	C201	C	0.903231	0.597918	0.596547
	C202	C	0.094395	0.398310	0.597314
	C203	C	0.903116	0.398954	0.399075
	C204	C	0.899280	0.593081	0.097109
	C205	C	0.098350	0.403500	0.098357
	C206	C	0.098844	0.592364	0.896684
	C207	C	0.899396	0.402803	0.897546
	C208	C	0.098310	0.897691	0.592222
	C209	C	0.098431	0.098735	0.402296
	C210	C	0.899254	0.097638	0.592183
	C211	C	0.898986	0.898497	0.402509
	C212	C	0.594790	0.098635	0.896663
	C213	C	0.403701	0.096464	0.095890
	C214	C	0.593754	0.897271	0.096938
	C215	C	0.403366	0.898717	0.898177
	Zn216	Zn	0.498619	-0.001744	0.747788
	Zn217	Zn	0.498493	-0.001866	0.246267
	Zn218	Zn	0.749353	0.497856	-0.002996
	Zn219	Zn	0.249248	0.497538	-0.003364
	Zn220	Zn	-0.001497	0.748304	0.496903
	Zn221	Zn	-0.001164	0.248774	0.497969
	Zn222	Zn	-0.001078	0.497470	0.746553
	Zn223	Zn	-0.001741	0.498428	0.248323
	Zn224	Zn	0.498939	0.748263	-0.003221
	Zn225	Zn	0.498945	0.247293	-0.003203
	Zn226	Zn	0.748558	-0.001803	0.497144
	Zn227	Zn	0.248724	-0.001322	0.497462
	N228	N	0.413148	0.961036	0.675921
	N229	N	0.584690	0.035201	0.675649
	N230	N	0.584779	0.961417	0.318215
	N231	N	0.412714	0.035580	0.317908
	N232	N	0.677244	0.412596	0.959735
	N233	N	0.676212	0.582296	0.034371
	N234	N	0.321964	0.582130	0.958363
	N235	N	0.321066	0.411973	0.034448
	N236	N	0.961257	0.677065	0.411283
	N237	N	0.035648	0.676610	0.582852
	N238	N	0.961898	0.319644	0.583879
	N239	N	0.035751	0.320718	0.412371
	N240	N	0.961505	0.412157	0.675384
	N241	N	0.036145	0.582699	0.674150
	N242	N	0.960947	0.584243	0.319367
	N243	N	0.035702	0.413705	0.320720
	N244	N	0.413273	0.676638	0.959027
	N245	N	0.585757	0.676985	0.033786
	N246	N	0.584822	0.319378	0.959684
	N247	N	0.413187	0.318744	0.033940
	N248	N	0.676794	0.960979	0.411675
	N249	N	0.676494	0.035329	0.582244
	N250	N	0.320496	0.961089	0.583403
	N251	N	0.322023	0.036277	0.412865
	N252	N	0.912958	0.461268	0.176336
	N253	N	0.085172	0.535556	0.176469
	N254	N	0.085032	0.460615	0.818364
	N255	N	0.913149	0.534664	0.818139
	N256	N	0.176863	0.913299	0.459901
	N257	N	0.176200	0.083371	0.534949
	N258	N	0.821903	0.082321	0.459515
	N259	N	0.820975	0.913001	0.534839
	N260	N	0.461623	0.176214	0.910905
	N261	N	0.536309	0.175376	0.082246
	N262	N	0.461204	0.818243	0.083484
	N263	N	0.536176	0.821177	0.912225
	N264	N	0.461316	0.911285	0.175424
	N265	N	0.536717	0.081886	0.173480
	N266	N	0.461916	0.083931	0.818755
	N267	N	0.536239	0.913395	0.820013
	N268	N	0.912149	0.177789	0.460605
	N269	N	0.084167	0.176432	0.534465
	N270	N	0.085193	0.819451	0.460126
	N271	N	0.912636	0.819578	0.534478
	N272	N	0.176106	0.459808	0.912707
	N273	N	0.177752	0.535139	0.082726
	N274	N	0.821024	0.460715	0.082914
	N275	N	0.822076	0.535170	0.912391
	O276	O	0.433424	-0.437994	1.406887
	H277	H	0.427100	-0.430359	1.406107
	H278	H	0.437163	-0.441135	1.407117
	O279	O	0.437227	0.544515	0.384562
	H280	H	0.439868	0.550710	0.393644
	H281	H	0.445231	0.543722	0.387042
	O282	O	1.415988	1.575167	0.409175
	H283	H	1.416007	1.572863	0.395371
	H284	H	1.402162	1.580373	0.409598
	O285	O	0.395012	0.564706	0.371881
	H286	H	0.393210	0.564637	0.371477
	H287	H	0.395428	0.561336	0.360953
