data_Molecule from HDF5

_cell_length_a		16.209705
_cell_length_b		16.305468
_cell_length_c		16.206260
_cell_angle_alpha	89.988823
_cell_angle_beta	89.932790
_cell_angle_gamma	90.003055
_symmetry_space_group_name_H-M	'P 1'
_symmetry_Int_Tables_number		1

loop_
	_symmetry_equiv_pos_as_xyz
	x,y,z

loop_
	_atom_site_label
	_atom_site_type_symbol
	_atom_site_fract_x
	_atom_site_fract_y
	_atom_site_fract_z
	H0	H	0.398752	0.837897	0.710375
	H1	H	0.594409	0.165370	0.709269
	H2	H	0.594237	0.838108	0.281226
	H3	H	0.398476	0.165689	0.282460
	H4	H	0.709872	0.404675	0.829937
	H5	H	0.709959	0.599150	0.159646
	H6	H	0.284557	0.600139	0.830180
	H7	H	0.282225	0.404974	0.159037
	H8	H	0.832892	0.716877	0.394971
	H9	H	0.160627	0.715449	0.593233
	H10	H	0.831918	0.287240	0.594219
	H11	H	0.160982	0.287340	0.394811
	H12	H	0.831703	0.404262	0.707900
	H13	H	0.161615	0.597651	0.707056
	H14	H	0.832022	0.599591	0.281965
	H15	H	0.161521	0.404880	0.281622
	H16	H	0.398144	0.716826	0.831060
	H17	H	0.596001	0.716836	0.158936
	H18	H	0.597136	0.286634	0.831437
	H19	H	0.396456	0.287949	0.159058
	H20	H	0.710401	0.837396	0.398160
	H21	H	0.710911	0.165096	0.594341
	H22	H	0.281711	0.837739	0.594700
	H23	H	0.282473	0.165052	0.398030
	H24	H	0.898422	0.337874	0.208646
	H25	H	0.094706	0.665543	0.208728
	H26	H	0.095065	0.337409	0.780990
	H27	H	0.899976	0.665627	0.780783
	H28	H	0.210250	0.904583	0.330864
	H29	H	0.208424	0.098423	0.660127
	H30	H	0.783466	0.098726	0.330667
	H31	H	0.784752	0.904744	0.660607
	H32	H	0.333305	0.217619	0.897745
	H33	H	0.661248	0.217571	0.095429
	H34	H	0.332838	0.787010	0.095512
	H35	H	0.660219	0.788345	0.896571
	H36	H	0.331825	0.906191	0.208327
	H37	H	0.661758	0.099922	0.209082
	H38	H	0.331523	0.100344	0.782502
	H39	H	0.661083	0.904911	0.782759
	H40	H	0.897730	0.215640	0.330516
	H41	H	0.094385	0.215749	0.658823
	H42	H	0.095918	0.787957	0.330483
	H43	H	0.897092	0.786343	0.658480
	H44	H	0.212252	0.338887	0.896465
	H45	H	0.210058	0.666269	0.091916
	H46	H	0.781247	0.338837	0.094583
	H47	H	0.783731	0.666064	0.897095
	H48	H	0.415488	0.115541	0.593307
	H49	H	0.588323	0.886528	0.586278
	H50	H	0.582565	0.116125	0.399743
	H51	H	0.404178	0.881964	0.391238
	H52	H	0.596646	0.407629	0.114760
	H53	H	0.583140	0.601378	0.877833
	H54	H	0.414591	0.584874	0.106712
	H55	H	0.412881	0.408769	0.880435
	H56	H	0.112461	0.596593	0.408143
	H57	H	0.875882	0.593725	0.596726
	H58	H	0.115015	0.407013	0.590643
	H59	H	0.877748	0.403299	0.402021
	H60	H	0.114261	0.404309	0.585296
	H61	H	0.879062	0.604124	0.582555
	H62	H	0.112841	0.589196	0.400201
	H63	H	0.881365	0.410512	0.405769
	H64	H	0.407645	0.612213	0.116315
	H65	H	0.597473	0.599427	0.874146
	H66	H	0.588221	0.416917	0.109226
	H67	H	0.401838	0.403079	0.874998
	H68	H	0.592664	0.116509	0.410466
	H69	H	0.595037	0.883640	0.588547
	H70	H	0.399815	0.114895	0.575196
	H71	H	0.412157	0.889069	0.406764
	H72	H	0.907557	0.617040	0.084831
	H73	H	0.089360	0.384529	0.090947
	H74	H	0.092764	0.621626	0.891315
	H75	H	0.899995	0.383264	0.899318
	H76	H	0.085525	0.899999	0.614210
	H77	H	0.099004	0.095826	0.374394
	H78	H	0.900462	0.089358	0.610929
	H79	H	0.901920	0.910116	0.377300
	H80	H	0.612715	0.095178	0.905695
	H81	H	0.379379	0.092215	0.096986
	H82	H	0.614520	0.910221	0.090971
	H83	H	0.376091	0.905061	0.898105
	H84	H	0.614927	0.905533	0.087939
	H85	H	0.377133	0.105315	0.087867
	H86	H	0.614391	0.093171	0.899671
	H87	H	0.379290	0.906649	0.907943
	H88	H	0.910791	0.096763	0.611286
	H89	H	0.086976	0.086667	0.380249
	H90	H	0.095884	0.909013	0.614065
	H91	H	0.905231	0.909064	0.378927
	H92	H	0.083566	0.616500	0.900939
	H93	H	0.087916	0.386920	0.085646
	H94	H	0.897021	0.619826	0.086541
	H95	H	0.906529	0.385750	0.900113
	H96	H	0.393009	0.123197	0.596725
	H97	H	0.589132	0.883862	0.593904
	H98	H	0.596045	0.121172	0.397161
	H99	H	0.394304	0.882776	0.406807
	H100	H	0.583439	0.404520	0.111185
	H101	H	0.589254	0.588404	0.880110
	H102	H	0.386731	0.590800	0.116342
	H103	H	0.401078	0.415979	0.878241
	H104	H	0.115863	0.599542	0.397940
	H105	H	0.883306	0.586900	0.581854
	H106	H	0.112499	0.410104	0.586325
	H107	H	0.878815	0.410642	0.397351
	H108	H	0.904463	0.620153	0.094661
	H109	H	0.093282	0.385536	0.086676
	H110	H	0.097548	0.619311	0.904667
	H111	H	0.902253	0.386151	0.905257
	H112	H	0.083490	0.912990	0.609846
	H113	H	0.083798	0.102864	0.376796
	H114	H	0.899592	0.101380	0.615758
	H115	H	0.902726	0.905962	0.376549
	H116	H	0.615360	0.098956	0.901645
	H117	H	0.383126	0.091862	0.080807
	H118	H	0.613007	0.909491	0.086100
	H119	H	0.380252	0.914800	0.901779
	C120	C	0.374396	0.009708	0.617356
	C121	C	0.618800	0.993085	0.617892
	C122	C	0.618627	0.009920	0.374045
	C123	C	0.374699	0.992938	0.373676
	C124	C	0.618361	0.381068	0.003141
	C125	C	0.618310	0.624095	0.986290
	C126	C	0.375248	0.624131	0.003891
	C127	C	0.375735	0.381350	0.986549
	C128	C	0.005166	0.623350	0.373459
	C129	C	0.988014	0.622754	0.615674
	C130	C	0.004800	0.379565	0.615790
	C131	C	0.988096	0.380062	0.373352
	C132	C	0.874755	0.510509	0.116944
	C133	C	0.118496	0.493696	0.116141
	C134	C	0.118965	0.510619	0.871732
	C135	C	0.875017	0.493404	0.873248
	C136	C	0.117515	0.879750	0.503714
	C137	C	0.117770	0.123295	0.486226
	C138	C	0.875128	0.123351	0.503845
	C139	C	0.874958	0.880031	0.486241
	C140	C	0.505389	0.124137	0.874109
	C141	C	0.488775	0.124260	0.117068
	C142	C	0.505418	0.880561	0.116979
	C143	C	0.487702	0.881096	0.874441
	C144	C	0.377565	0.886651	0.672451
	C145	C	0.615200	0.116335	0.672013
	C146	C	0.615217	0.886576	0.319470
	C147	C	0.377276	0.116400	0.319255
	C148	C	0.673147	0.383614	0.879538
	C149	C	0.672944	0.620857	0.110145
	C150	C	0.321633	0.621062	0.879447
	C151	C	0.320376	0.384353	0.110268
	C152	C	0.881561	0.678565	0.375424
	C153	C	0.111829	0.677310	0.613126
	C154	C	0.881108	0.324831	0.614257
	C155	C	0.111866	0.325159	0.375203
	C156	C	0.881017	0.382852	0.670859
	C157	C	0.112187	0.619003	0.669910
	C158	C	0.881123	0.620046	0.319266
	C159	C	0.112309	0.383762	0.319016
	C160	C	0.377902	0.678998	0.879917
	C161	C	0.615722	0.678509	0.110197
	C162	C	0.617085	0.325175	0.879919
	C163	C	0.377244	0.326459	0.110367
	C164	C	0.672793	0.886487	0.377526
	C165	C	0.673476	0.116059	0.614984
	C166	C	0.319519	0.886748	0.615052
	C167	C	0.319883	0.116146	0.377067
	C168	C	0.877922	0.386936	0.171006
	C169	C	0.115183	0.616894	0.170739
	C170	C	0.115610	0.386589	0.818559
	C171	C	0.878908	0.616894	0.818518
	C172	C	0.172252	0.883591	0.379764
	C173	C	0.171467	0.119673	0.610559
	C174	C	0.820906	0.119703	0.379671
	C175	C	0.821473	0.883562	0.610894
	C176	C	0.381842	0.179520	0.876828
	C177	C	0.612341	0.179347	0.115126
	C178	C	0.381518	0.825685	0.114858
	C179	C	0.611439	0.826287	0.876615
	C180	C	0.381025	0.884437	0.171236
	C181	C	0.612552	0.120777	0.171719
	C182	C	0.381191	0.121450	0.819622
	C183	C	0.611880	0.884248	0.820113
	C184	C	0.877638	0.177754	0.379567
	C185	C	0.114919	0.177808	0.610040
	C186	C	0.115934	0.825494	0.379747
	C187	C	0.877176	0.824701	0.609873
	C188	C	0.174213	0.387493	0.875548
	C189	C	0.172452	0.617221	0.112634
	C190	C	0.819765	0.387390	0.113896
	C191	C	0.820796	0.616924	0.875863
	C192	C	0.396251	0.095701	0.595081
	C193	C	0.597160	0.906867	0.596166
	C194	C	0.596827	0.095689	0.395817
	C195	C	0.396848	0.906779	0.395149
	C196	C	0.595933	0.402996	0.089540
	C197	C	0.596342	0.602768	0.899620
	C198	C	0.396724	0.602580	0.090566
	C199	C	0.398659	0.402885	0.900123
	C200	C	0.091586	0.601733	0.395712
	C201	C	0.901577	0.601144	0.593691
	C202	C	0.091692	0.400632	0.593760
	C203	C	0.901534	0.401710	0.395171
	C204	C	0.896617	0.596848	0.095319
	C205	C	0.096647	0.407698	0.094149
	C206	C	0.097546	0.596804	0.892773
	C207	C	0.896655	0.407298	0.895092
	C208	C	0.095004	0.900962	0.590207
	C209	C	0.096127	0.101759	0.399551
	C210	C	0.897164	0.102138	0.590273
	C211	C	0.896695	0.901969	0.399725
	C212	C	0.591780	0.102274	0.895857
	C213	C	0.402211	0.102767	0.095004
	C214	C	0.591943	0.902136	0.095054
	C215	C	0.401031	0.902622	0.896205
	Zn216	Zn	0.496166	0.001633	0.745950
	Zn217	Zn	0.496713	0.002242	0.245358
	Zn218	Zn	0.746282	0.502247	-0.005284
	Zn219	Zn	0.247324	0.502750	-0.005628
	Zn220	Zn	-0.003495	0.752060	0.494510
	Zn221	Zn	-0.003373	0.251644	0.494519
	Zn222	Zn	-0.003461	0.501182	0.743638
	Zn223	Zn	-0.003343	0.501912	0.245367
	Zn224	Zn	0.496275	0.752098	-0.004936
	Zn225	Zn	0.497410	0.252936	-0.004357
	Zn226	Zn	0.747276	0.001518	0.496048
	Zn227	Zn	0.245451	0.001354	0.495515
	N228	N	0.410924	0.964162	0.674092
	N229	N	0.582025	0.038839	0.673910
	N230	N	0.582317	0.964149	0.317043
	N231	N	0.410840	0.038888	0.317330
	N232	N	0.673926	0.417722	0.957100
	N233	N	0.674372	0.587632	0.032191
	N234	N	0.319710	0.587738	0.957383
	N235	N	0.319528	0.417835	0.032379
	N236	N	0.959686	0.680724	0.408428
	N237	N	0.033629	0.679868	0.580104
	N238	N	0.959095	0.322595	0.580766
	N239	N	0.033624	0.322905	0.408320
	N240	N	0.958877	0.416378	0.671517
	N241	N	0.034258	0.585932	0.671484
	N242	N	0.958822	0.586425	0.317901
	N243	N	0.034458	0.417186	0.317611
	N244	N	0.410324	0.681209	0.958308
	N245	N	0.582650	0.680773	0.031991
	N246	N	0.583400	0.323909	0.957781
	N247	N	0.410973	0.324463	0.032340
	N248	N	0.674940	0.964150	0.410758
	N249	N	0.675604	0.038379	0.581841
	N250	N	0.317545	0.964284	0.581448
	N251	N	0.318186	0.038455	0.410125
	N252	N	0.911474	0.464320	0.172878
	N253	N	0.082508	0.539044	0.173280
	N254	N	0.082282	0.464017	0.815900
	N255	N	0.911778	0.539074	0.816622
	N256	N	0.173636	0.916451	0.457795
	N257	N	0.173305	0.086490	0.532607
	N258	N	0.819293	0.086623	0.457664
	N259	N	0.820295	0.917256	0.533181
	N260	N	0.460073	0.181502	0.909809
	N261	N	0.534346	0.181496	0.081767
	N262	N	0.459783	0.823187	0.081851
	N263	N	0.533457	0.824350	0.909880
	N264	N	0.458783	0.918224	0.172298
	N265	N	0.534716	0.087470	0.173169
	N266	N	0.458860	0.087661	0.817975
	N267	N	0.534089	0.917826	0.818975
	N268	N	0.910758	0.180068	0.457603
	N269	N	0.082186	0.180064	0.531785
	N270	N	0.082320	0.823196	0.457782
	N271	N	0.909940	0.822523	0.531533
	N272	N	0.176464	0.465552	0.907888
	N273	N	0.174498	0.539720	0.079243
	N274	N	0.817829	0.465315	0.080949
	N275	N	0.818307	0.539286	0.909142
	O276	O	0.512051	-0.575953	1.471600
	H277	H	0.503287	-0.582270	1.475476
	H278	H	0.510782	-0.570307	1.468783
	O279	O	0.480880	0.421208	0.475448
	H280	H	0.473930	0.419987	0.482128
	H281	H	0.484933	0.411555	0.471151
	O282	O	1.525196	1.411060	0.469899
	H283	H	1.519780	1.409140	0.468789
	H284	H	1.527659	1.415412	0.466822
	O285	O	0.499826	0.397587	0.475422
	H286	H	0.509140	0.392386	0.476179
	H287	H	0.504505	0.397349	0.474579
