data_Molecule from HDF5

_cell_length_a		16.188504
_cell_length_b		16.229110
_cell_length_c		16.293598
_cell_angle_alpha	90.096607
_cell_angle_beta	89.930960
_cell_angle_gamma	90.004412
_symmetry_space_group_name_H-M	'P 1'
_symmetry_Int_Tables_number		1

loop_
	_symmetry_equiv_pos_as_xyz
	x,y,z

loop_
	_atom_site_label
	_atom_site_type_symbol
	_atom_site_fract_x
	_atom_site_fract_y
	_atom_site_fract_z
	H0	H	0.400738	0.838947	0.712715
	H1	H	0.598849	0.168246	0.713606
	H2	H	0.598606	0.838996	0.284254
	H3	H	0.400898	0.167160	0.285954
	H4	H	0.712511	0.403934	0.834399
	H5	H	0.713021	0.600518	0.162837
	H6	H	0.285990	0.599434	0.834174
	H7	H	0.283447	0.404065	0.162029
	H8	H	0.834793	0.715955	0.401069
	H9	H	0.165461	0.715555	0.594821
	H10	H	0.834797	0.290275	0.595254
	H11	H	0.163748	0.290051	0.399240
	H12	H	0.834607	0.404968	0.710772
	H13	H	0.163839	0.603195	0.713862
	H14	H	0.834840	0.601918	0.284314
	H15	H	0.163203	0.403706	0.283076
	H16	H	0.399274	0.717769	0.835246
	H17	H	0.595492	0.716218	0.162861
	H18	H	0.597922	0.287237	0.835437
	H19	H	0.399825	0.289152	0.163015
	H20	H	0.712974	0.838255	0.400738
	H21	H	0.713045	0.167595	0.595530
	H22	H	0.286411	0.838947	0.596056
	H23	H	0.287902	0.167893	0.402510
	H24	H	0.898345	0.338609	0.213257
	H25	H	0.098434	0.666221	0.213012
	H26	H	0.098001	0.338744	0.782501
	H27	H	0.900601	0.667453	0.785705
	H28	H	0.213975	0.905284	0.334730
	H29	H	0.212403	0.100872	0.662399
	H30	H	0.785261	0.100452	0.335031
	H31	H	0.786807	0.906063	0.663149
	H32	H	0.334122	0.214540	0.902607
	H33	H	0.663898	0.216812	0.097678
	H34	H	0.334366	0.789708	0.097266
	H35	H	0.664078	0.789796	0.901209
	H36	H	0.334927	0.904296	0.213800
	H37	H	0.663641	0.102176	0.213547
	H38	H	0.335386	0.103047	0.784490
	H39	H	0.663709	0.905306	0.784994
	H40	H	0.902572	0.215935	0.334047
	H41	H	0.098538	0.219163	0.661212
	H42	H	0.099379	0.787981	0.335309
	H43	H	0.901671	0.788902	0.662224
	H44	H	0.212463	0.337825	0.899837
	H45	H	0.212338	0.667069	0.095579
	H46	H	0.786601	0.337144	0.095035
	H47	H	0.786088	0.667177	0.902775
	H48	H	0.408883	0.122830	0.601744
	H49	H	0.579101	0.891001	0.590578
	H50	H	0.591274	0.120144	0.404241
	H51	H	0.402285	0.881385	0.395779
	H52	H	0.593697	0.405210	0.117532
	H53	H	0.590265	0.598241	0.881731
	H54	H	0.402544	0.596136	0.116424
	H55	H	0.405818	0.405759	0.881495
	H56	H	0.118574	0.598482	0.401902
	H57	H	0.881702	0.593337	0.599564
	H58	H	0.113067	0.416666	0.583653
	H59	H	0.879783	0.399417	0.409791
	H60	H	0.118448	0.415631	0.599150
	H61	H	0.880526	0.603655	0.589766
	H62	H	0.116558	0.596887	0.407949
	H63	H	0.885706	0.418526	0.410462
	H64	H	0.406813	0.592117	0.113644
	H65	H	0.595141	0.597024	0.881043
	H66	H	0.594544	0.413854	0.114399
	H67	H	0.403997	0.408779	0.881978
	H68	H	0.592149	0.119431	0.408100
	H69	H	0.602864	0.885920	0.582806
	H70	H	0.412545	0.117419	0.586946
	H71	H	0.417511	0.888683	0.406040
	H72	H	0.910848	0.618943	0.096227
	H73	H	0.089334	0.384521	0.094199
	H74	H	0.098365	0.619688	0.913415
	H75	H	0.899731	0.385555	0.909556
	H76	H	0.084743	0.911412	0.612687
	H77	H	0.093827	0.103282	0.379691
	H78	H	0.909883	0.102836	0.615878
	H79	H	0.915326	0.911488	0.384420
	H80	H	0.617028	0.096681	0.908099
	H81	H	0.378570	0.091711	0.107046
	H82	H	0.618824	0.903455	0.092516
	H83	H	0.379969	0.909471	0.900165
	H84	H	0.613818	0.911838	0.086477
	H85	H	0.378445	0.109293	0.090333
	H86	H	0.616722	0.093033	0.905821
	H87	H	0.381258	0.905914	0.909452
	H88	H	0.900036	0.097713	0.617253
	H89	H	0.099786	0.094507	0.380409
	H90	H	0.094861	0.901443	0.617977
	H91	H	0.902860	0.900910	0.378518
	H92	H	0.093763	0.622635	0.897064
	H93	H	0.089039	0.386915	0.088425
	H94	H	0.906410	0.617662	0.086014
	H95	H	0.903204	0.381984	0.896078
	H96	H	0.397295	0.122540	0.590633
	H97	H	0.596019	0.881166	0.606459
	H98	H	0.595001	0.120974	0.404856
	H99	H	0.400031	0.885543	0.415138
	H100	H	0.587063	0.409653	0.113532
	H101	H	0.592552	0.593781	0.883232
	H102	H	0.408013	0.598066	0.114138
	H103	H	0.407693	0.408948	0.882305
	H104	H	0.116251	0.591979	0.403127
	H105	H	0.885639	0.590951	0.586481
	H106	H	0.119886	0.402088	0.589145
	H107	H	0.878217	0.410347	0.393258
	H108	H	0.900606	0.622173	0.094818
	H109	H	0.094656	0.384683	0.090336
	H110	H	0.081600	0.615501	0.907815
	H111	H	0.913657	0.387467	0.904679
	H112	H	0.098396	0.915622	0.614973
	H113	H	0.089546	0.094079	0.382467
	H114	H	0.908779	0.092807	0.612444
	H115	H	0.899976	0.916783	0.382362
	H116	H	0.618320	0.096130	0.903492
	H117	H	0.386681	0.087533	0.084765
	H118	H	0.617454	0.913671	0.097904
	H119	H	0.383589	0.915655	0.906950
	C120	C	0.377850	0.012002	0.620869
	C121	C	0.620744	0.994803	0.620910
	C122	C	0.621446	0.011605	0.377289
	C123	C	0.378385	0.994456	0.377563
	C124	C	0.620525	0.380701	0.007124
	C125	C	0.620729	0.624525	0.990303
	C126	C	0.376965	0.624136	0.006690
	C127	C	0.376923	0.379949	0.990314
	C128	C	0.008123	0.624346	0.376362
	C129	C	0.991182	0.624528	0.620089
	C130	C	0.008279	0.382400	0.619034
	C131	C	0.990411	0.381298	0.376073
	C132	C	0.877381	0.510699	0.120240
	C133	C	0.120162	0.494057	0.119497
	C134	C	0.120059	0.510876	0.876826
	C135	C	0.877399	0.494061	0.876361
	C136	C	0.121394	0.881038	0.506998
	C137	C	0.121674	0.125429	0.489337
	C138	C	0.878203	0.125177	0.507059
	C139	C	0.878019	0.881217	0.490168
	C140	C	0.508195	0.124074	0.877930
	C141	C	0.490443	0.124315	0.121456
	C142	C	0.507635	0.881512	0.120628
	C143	C	0.490663	0.881633	0.877231
	C144	C	0.380206	0.888156	0.675416
	C145	C	0.618599	0.118946	0.675437
	C146	C	0.618876	0.887850	0.322253
	C147	C	0.380934	0.117946	0.323407
	C148	C	0.675071	0.383528	0.883485
	C149	C	0.675215	0.621261	0.113914
	C150	C	0.322949	0.620697	0.883288
	C151	C	0.322085	0.383877	0.113456
	C152	C	0.883986	0.678601	0.380272
	C153	C	0.115907	0.678567	0.616369
	C154	C	0.884180	0.327381	0.616117
	C155	C	0.114643	0.327515	0.378912
	C156	C	0.884218	0.384392	0.673718
	C157	C	0.115147	0.622845	0.675482
	C158	C	0.883999	0.621982	0.322281
	C159	C	0.114326	0.384148	0.321313
	C160	C	0.379324	0.679416	0.883980
	C161	C	0.616793	0.678491	0.114052
	C162	C	0.618104	0.325314	0.884133
	C163	C	0.379671	0.326369	0.113861
	C164	C	0.675445	0.887430	0.380389
	C165	C	0.675351	0.118875	0.616952
	C166	C	0.323280	0.888118	0.617579
	C167	C	0.324440	0.118320	0.381407
	C168	C	0.879423	0.387329	0.174968
	C169	C	0.118503	0.617406	0.174663
	C170	C	0.118189	0.387759	0.820714
	C171	C	0.880064	0.618127	0.822869
	C172	C	0.176356	0.884387	0.383704
	C173	C	0.175222	0.122240	0.613285
	C174	C	0.823117	0.121627	0.383722
	C175	C	0.823963	0.884916	0.613963
	C176	C	0.383765	0.178055	0.881548
	C177	C	0.614623	0.179266	0.118212
	C178	C	0.383579	0.826907	0.117706
	C179	C	0.614720	0.826984	0.880204
	C180	C	0.384015	0.883712	0.175860
	C181	C	0.614617	0.122160	0.175648
	C182	C	0.384290	0.122377	0.823056
	C183	C	0.614614	0.884318	0.822473
	C184	C	0.881439	0.178921	0.383241
	C185	C	0.118814	0.180845	0.612604
	C186	C	0.119203	0.826255	0.383828
	C187	C	0.880972	0.826580	0.613573
	C188	C	0.174848	0.387123	0.879011
	C189	C	0.174970	0.617741	0.116448
	C190	C	0.823208	0.386805	0.116413
	C191	C	0.823262	0.618097	0.881021
	C192	C	0.399865	0.098467	0.599542
	C193	C	0.599059	0.908460	0.599609
	C194	C	0.599410	0.097893	0.399219
	C195	C	0.400374	0.907511	0.399167
	C196	C	0.598349	0.402971	0.093039
	C197	C	0.599124	0.602641	0.904234
	C198	C	0.399186	0.601961	0.092636
	C199	C	0.399262	0.401388	0.904283
	C200	C	0.094761	0.602204	0.397768
	C201	C	0.904951	0.602573	0.598203
	C202	C	0.094919	0.404722	0.596922
	C203	C	0.903647	0.403036	0.397960
	C204	C	0.899341	0.597357	0.098725
	C205	C	0.097606	0.407585	0.097439
	C206	C	0.097734	0.597014	0.899345
	C207	C	0.899192	0.407365	0.897163
	C208	C	0.099194	0.902902	0.592932
	C209	C	0.100563	0.103774	0.403201
	C210	C	0.899915	0.104012	0.593026
	C211	C	0.899640	0.903026	0.404024
	C212	C	0.595034	0.102026	0.899506
	C213	C	0.403747	0.102700	0.100092
	C214	C	0.594259	0.903201	0.098723
	C215	C	0.403785	0.903863	0.899021
	Zn216	Zn	0.499143	0.003763	0.749534
	Zn217	Zn	0.499867	0.002868	0.249299
	Zn218	Zn	0.749225	0.502246	-0.001432
	Zn219	Zn	0.248556	0.502066	-0.001571
	Zn220	Zn	-0.000133	0.752447	0.498248
	Zn221	Zn	-0.000117	0.254031	0.497922
	Zn222	Zn	-0.000914	0.503060	0.748039
	Zn223	Zn	-0.000908	0.502409	0.248556
	Zn224	Zn	0.498621	0.753172	-0.001266
	Zn225	Zn	0.498811	0.251624	-0.000860
	Zn226	Zn	0.749174	0.002918	0.498940
	Zn227	Zn	0.250102	0.003044	0.498817
	N228	N	0.413508	0.966216	0.677570
	N229	N	0.585424	0.040889	0.678087
	N230	N	0.586099	0.966065	0.320255
	N231	N	0.413814	0.039730	0.320982
	N232	N	0.676708	0.417422	0.960979
	N233	N	0.677495	0.588158	0.035995
	N234	N	0.321405	0.586938	0.960745
	N235	N	0.320253	0.416581	0.035598
	N236	N	0.962166	0.680210	0.413337
	N237	N	0.037967	0.680049	0.582746
	N238	N	0.962306	0.326147	0.582781
	N239	N	0.036621	0.325821	0.412463
	N240	N	0.962212	0.417990	0.675444
	N241	N	0.036779	0.590042	0.677875
	N242	N	0.962135	0.589017	0.319776
	N243	N	0.036015	0.416921	0.319659
	N244	N	0.412137	0.681616	0.961741
	N245	N	0.583867	0.680645	0.036298
	N246	N	0.584569	0.323934	0.961659
	N247	N	0.413197	0.323966	0.036305
	N248	N	0.677211	0.965287	0.413966
	N249	N	0.676845	0.040981	0.583629
	N250	N	0.321513	0.966082	0.584579
	N251	N	0.322897	0.040245	0.414497
	N252	N	0.912335	0.465634	0.177481
	N253	N	0.085136	0.539465	0.176700
	N254	N	0.084928	0.465737	0.819220
	N255	N	0.912834	0.539832	0.819811
	N256	N	0.177676	0.917822	0.461290
	N257	N	0.177072	0.088414	0.535809
	N258	N	0.820943	0.088874	0.461557
	N259	N	0.821958	0.917961	0.536233
	N260	N	0.461813	0.179136	0.914991
	N261	N	0.536497	0.180787	0.085350
	N262	N	0.461547	0.825480	0.083885
	N263	N	0.536449	0.825232	0.913380
	N264	N	0.462067	0.916924	0.177587
	N265	N	0.536422	0.088683	0.177838
	N266	N	0.462701	0.089648	0.820632
	N267	N	0.536423	0.917718	0.820599
	N268	N	0.914670	0.181374	0.460895
	N269	N	0.086207	0.182783	0.534636
	N270	N	0.085639	0.824173	0.461420
	N271	N	0.914087	0.824436	0.535762
	N272	N	0.176372	0.464723	0.913125
	N273	N	0.176127	0.539898	0.082837
	N274	N	0.822207	0.464508	0.082768
	N275	N	0.821483	0.540036	0.913668
	O276	O	0.025819	-0.077296	0.931255
	H277	H	0.030674	-0.077035	0.931756
	H278	H	0.021136	-0.081776	0.930835
	O279	O	0.542641	0.514113	0.566731
	H280	H	0.540725	0.515899	0.575015
	H281	H	0.538977	0.512871	0.563623
	O282	O	0.544814	0.522394	0.541126
	H283	H	0.549297	0.522245	0.539216
	H284	H	0.544371	0.519085	0.531767
	O285	O	0.574566	0.500555	0.508944
	H286	H	0.574874	0.490401	0.506748
	H287	H	0.577675	0.501238	0.508197
	O288	O	0.517398	0.508203	0.535275
	H289	H	0.518208	0.512403	0.533651
	H290	H	0.511046	0.513155	0.540270
	O291	O	0.021123	0.943749	0.937181
	H292	H	0.023860	0.942665	0.929140
	H293	H	0.020180	0.944349	0.941772
	O294	O	0.537806	0.517022	0.551775
	H295	H	0.542378	0.515685	0.552276
	H296	H	0.545470	0.522062	0.564854
	O297	O	1.004897	-0.051844	-0.070777
	H298	H	1.006364	-0.059188	-0.073521
	H299	H	1.002264	-0.055124	-0.076712
