data_Molecule from HDF5

_cell_length_a		16.432316
_cell_length_b		16.355255
_cell_length_c		16.284068
_cell_angle_alpha	90.200105
_cell_angle_beta	89.864844
_cell_angle_gamma	89.933620
_symmetry_space_group_name_H-M	'P 1'
_symmetry_Int_Tables_number		1

loop_
	_symmetry_equiv_pos_as_xyz
	x,y,z

loop_
	_atom_site_label
	_atom_site_type_symbol
	_atom_site_fract_x
	_atom_site_fract_y
	_atom_site_fract_z
	H0	H	0.398223	0.830926	0.723738
	H1	H	0.602253	0.152363	0.727489
	H2	H	0.603179	0.832968	0.285476
	H3	H	0.395037	0.153538	0.290003
	H4	H	0.717215	0.388666	0.847595
	H5	H	0.715593	0.596587	0.169394
	H6	H	0.277458	0.595417	0.849296
	H7	H	0.274948	0.383840	0.167445
	H8	H	0.837917	0.712423	0.404888
	H9	H	0.156103	0.712520	0.613765
	H10	H	0.837118	0.272243	0.613264
	H11	H	0.156330	0.269010	0.402235
	H12	H	0.836301	0.389981	0.727981
	H13	H	0.155571	0.596456	0.730239
	H14	H	0.836741	0.592828	0.291540
	H15	H	0.156633	0.385113	0.286101
	H16	H	0.395094	0.709190	0.847472
	H17	H	0.600487	0.711893	0.169039
	H18	H	0.601771	0.273005	0.847120
	H19	H	0.393193	0.272276	0.168854
	H20	H	0.717825	0.831881	0.402127
	H21	H	0.717796	0.150185	0.613338
	H22	H	0.278977	0.832581	0.610145
	H23	H	0.273460	0.150086	0.398312
	H24	H	0.894942	0.331540	0.225907
	H25	H	0.099964	0.651773	0.228516
	H26	H	0.097851	0.331509	0.789757
	H27	H	0.892823	0.652273	0.791199
	H28	H	0.219608	0.883018	0.348549
	H29	H	0.216836	0.095990	0.667604
	H30	H	0.778288	0.093412	0.349009
	H31	H	0.775876	0.884763	0.667988
	H32	H	0.338914	0.212365	0.904026
	H33	H	0.657022	0.212727	0.112460
	H34	H	0.339210	0.771461	0.114259
	H35	H	0.656629	0.769085	0.900308
	H36	H	0.339387	0.888942	0.229194
	H37	H	0.656653	0.097601	0.229183
	H38	H	0.338660	0.094388	0.788957
	H39	H	0.658795	0.890082	0.789987
	H40	H	0.891480	0.212111	0.349738
	H41	H	0.097766	0.208372	0.670024
	H42	H	0.102923	0.768927	0.349177
	H43	H	0.895688	0.775188	0.670659
	H44	H	0.217930	0.332434	0.901127
	H45	H	0.217843	0.651240	0.114910
	H46	H	0.776747	0.333611	0.112353
	H47	H	0.776189	0.650867	0.902562
	H48	H	0.408702	0.106474	0.596759
	H49	H	0.585286	0.876908	0.601613
	H50	H	0.582972	0.102628	0.423642
	H51	H	0.403338	0.879946	0.428483
	H52	H	0.579053	0.397745	0.122521
	H53	H	0.583232	0.584352	0.892945
	H54	H	0.403203	0.582796	0.125630
	H55	H	0.406961	0.399152	0.892367
	H56	H	0.108123	0.575984	0.421033
	H57	H	0.882771	0.582448	0.601524
	H58	H	0.109338	0.403154	0.598982
	H59	H	0.887654	0.404071	0.428507
	H60	H	0.110736	0.401620	0.598394
	H61	H	0.881777	0.585662	0.601654
	H62	H	0.112257	0.581008	0.416220
	H63	H	0.884956	0.408648	0.411439
	H64	H	0.408232	0.575715	0.121429
	H65	H	0.593901	0.581978	0.891302
	H66	H	0.595789	0.397907	0.127044
	H67	H	0.405754	0.405509	0.894328
	H68	H	0.592565	0.106650	0.423298
	H69	H	0.587533	0.878493	0.593805
	H70	H	0.405845	0.106805	0.596628
	H71	H	0.404100	0.874627	0.410914
	H72	H	0.909632	0.606526	0.099636
	H73	H	0.083637	0.379807	0.091610
	H74	H	0.085833	0.606588	0.916664
	H75	H	0.908260	0.376853	0.916874
	H76	H	0.082310	0.892239	0.624631
	H77	H	0.085408	0.081615	0.393224
	H78	H	0.912475	0.079240	0.621870
	H79	H	0.905635	0.898701	0.392435
	H80	H	0.611364	0.086734	0.926062
	H81	H	0.384454	0.086247	0.093422
	H82	H	0.612369	0.895409	0.093065
	H83	H	0.383759	0.903419	0.914748
	H84	H	0.607681	0.908333	0.089944
	H85	H	0.386572	0.077039	0.096708
	H86	H	0.610570	0.074011	0.916510
	H87	H	0.382874	0.897083	0.916335
	H88	H	0.905117	0.087620	0.626202
	H89	H	0.087948	0.079880	0.391912
	H90	H	0.099312	0.905566	0.626832
	H91	H	0.907003	0.906262	0.394649
	H92	H	0.085063	0.603416	0.924003
	H93	H	0.092420	0.376686	0.095788
	H94	H	0.903875	0.607229	0.097667
	H95	H	0.908293	0.378446	0.921696
	H96	H	0.407509	0.107113	0.599091
	H97	H	0.593343	0.874631	0.599566
	H98	H	0.586648	0.106489	0.415229
	H99	H	0.418971	0.881227	0.418702
	H100	H	0.588309	0.412077	0.120271
	H101	H	0.587238	0.574522	0.895679
	H102	H	0.412543	0.584211	0.123535
	H103	H	0.412390	0.402847	0.895479
	H104	H	0.109762	0.583529	0.423813
	H105	H	0.882725	0.584182	0.598588
	H106	H	0.109510	0.402858	0.597135
	H107	H	0.880688	0.391772	0.417188
	H108	H	0.905102	0.609042	0.103419
	H109	H	0.084853	0.376766	0.101960
	H110	H	0.091592	0.607741	0.921407
	H111	H	0.903663	0.377044	0.919477
	H112	H	0.081722	0.912825	0.616640
	H113	H	0.085272	0.078717	0.394208
	H114	H	0.901271	0.075914	0.624615
	H115	H	0.913058	0.901441	0.395404
	H116	H	0.615979	0.087167	0.911104
	H117	H	0.381438	0.083367	0.103459
	H118	H	0.613430	0.905333	0.103161
	H119	H	0.385499	0.901796	0.920387
	C120	C	0.376638	0.000893	0.628544
	C121	C	0.619994	0.982454	0.630027
	C122	C	0.619216	0.000282	0.386915
	C123	C	0.376265	0.983779	0.386231
	C124	C	0.619430	0.370762	0.016952
	C125	C	0.618938	0.612760	0.999543
	C126	C	0.376547	0.612483	0.017642
	C127	C	0.376166	0.370087	0.999708
	C128	C	0.005243	0.612535	0.388197
	C129	C	0.987769	0.614849	0.631803
	C130	C	0.004460	0.371173	0.629840
	C131	C	0.989065	0.368667	0.386307
	C132	C	0.875612	0.501467	0.130539
	C133	C	0.118716	0.483096	0.129403
	C134	C	0.118643	0.500448	0.887748
	C135	C	0.875676	0.483479	0.888138
	C136	C	0.119505	0.870034	0.516864
	C137	C	0.117624	0.111984	0.499147
	C138	C	0.875196	0.112200	0.518104
	C139	C	0.876796	0.870792	0.500311
	C140	C	0.506848	0.113712	0.886772
	C141	C	0.489187	0.114202	0.129979
	C142	C	0.506275	0.870999	0.128509
	C143	C	0.489644	0.869560	0.885544
	C144	C	0.377809	0.879465	0.685509
	C145	C	0.620865	0.103533	0.688423
	C146	C	0.621210	0.880522	0.325860
	C147	C	0.375540	0.104618	0.327845
	C148	C	0.678165	0.369684	0.895857
	C149	C	0.676845	0.614979	0.120971
	C150	C	0.317473	0.613712	0.896858
	C151	C	0.315644	0.366706	0.119735
	C152	C	0.885491	0.672102	0.386506
	C153	C	0.107988	0.673350	0.633005
	C154	C	0.884949	0.312187	0.631192
	C155	C	0.108646	0.308801	0.384072
	C156	C	0.884371	0.370831	0.688513
	C157	C	0.107820	0.615483	0.690859
	C158	C	0.885065	0.612973	0.329632
	C159	C	0.108930	0.366907	0.326384
	C160	C	0.375823	0.670522	0.896302
	C161	C	0.619670	0.672479	0.120794
	C162	C	0.620499	0.312025	0.895824
	C163	C	0.374552	0.310973	0.120477
	C164	C	0.678410	0.880045	0.383742
	C165	C	0.678599	0.102588	0.631568
	C166	C	0.318784	0.880158	0.628896
	C167	C	0.314961	0.103064	0.382038
	C168	C	0.875532	0.380036	0.187402
	C169	C	0.119560	0.603569	0.189187
	C170	C	0.118355	0.379691	0.828441
	C171	C	0.874331	0.604037	0.829718
	C172	C	0.179511	0.865873	0.396630
	C173	C	0.176717	0.113977	0.620065
	C174	C	0.816883	0.113173	0.397118
	C175	C	0.816610	0.867955	0.620545
	C176	C	0.386841	0.172732	0.885430
	C177	C	0.608980	0.173459	0.131492
	C178	C	0.386746	0.811544	0.131134
	C179	C	0.609165	0.809774	0.883337
	C180	C	0.386939	0.869839	0.188838
	C181	C	0.608991	0.115990	0.189620
	C182	C	0.386619	0.114110	0.827975
	C183	C	0.610168	0.869901	0.827754
	C184	C	0.873214	0.171933	0.397688
	C185	C	0.117610	0.169887	0.621182
	C186	C	0.121505	0.808776	0.396963
	C187	C	0.876201	0.813259	0.621955
	C188	C	0.177867	0.380270	0.884095
	C189	C	0.178176	0.603166	0.132600
	C190	C	0.816683	0.381047	0.131114
	C191	C	0.816289	0.603380	0.885543
	C192	C	0.400356	0.084825	0.604464
	C193	C	0.595580	0.898613	0.605467
	C194	C	0.594419	0.083649	0.413050
	C195	C	0.401625	0.900444	0.411958
	C196	C	0.594927	0.395387	0.101375
	C197	C	0.594948	0.587668	0.915486
	C198	C	0.400806	0.588137	0.101581
	C199	C	0.401167	0.395383	0.915935
	C200	C	0.088404	0.587502	0.413259
	C201	C	0.904316	0.590977	0.607551
	C202	C	0.088042	0.395529	0.605098
	C203	C	0.906003	0.394180	0.411780
	C204	C	0.899434	0.585702	0.107132
	C205	C	0.094006	0.399424	0.103730
	C206	C	0.094446	0.584076	0.913352
	C207	C	0.899889	0.399352	0.912318
	C208	C	0.094769	0.896205	0.600893
	C209	C	0.093301	0.087183	0.415102
	C210	C	0.899381	0.087910	0.602357
	C211	C	0.901609	0.895029	0.416112
	C212	C	0.590644	0.089511	0.910999
	C213	C	0.405965	0.089234	0.105287
	C214	C	0.589541	0.895986	0.102757
	C215	C	0.405741	0.893672	0.910164
	Zn216	Zn	0.498502	-0.008031	0.757468
	Zn217	Zn	0.498031	-0.007495	0.258457
	Zn218	Zn	0.747676	0.492682	0.008345
	Zn219	Zn	0.247811	0.491231	0.008626
	Zn220	Zn	-0.002936	0.742688	0.509081
	Zn221	Zn	-0.003035	0.240467	0.509022
	Zn222	Zn	-0.003676	0.492444	0.760044
	Zn223	Zn	-0.002377	0.491249	0.258690
	Zn224	Zn	0.497999	0.740789	0.007649
	Zn225	Zn	0.497765	0.242895	0.008423
	Zn226	Zn	0.747788	-0.009611	0.508676
	Zn227	Zn	0.247167	-0.007738	0.506853
	N228	N	0.413021	0.955656	0.685704
	N229	N	0.585144	0.027813	0.687631
	N230	N	0.585253	0.956414	0.327537
	N231	N	0.412737	0.029396	0.330286
	N232	N	0.677709	0.405471	0.972400
	N233	N	0.676608	0.578834	0.044571
	N234	N	0.317706	0.578379	0.973329
	N235	N	0.316430	0.402625	0.043592
	N236	N	0.961202	0.671987	0.422201
	N237	N	0.032498	0.673066	0.596978
	N238	N	0.960519	0.312712	0.595190
	N239	N	0.033015	0.309521	0.420444
	N240	N	0.959867	0.407086	0.687822
	N241	N	0.032087	0.579963	0.690359
	N242	N	0.960612	0.576670	0.330700
	N243	N	0.033497	0.403310	0.327672
	N244	N	0.411614	0.670117	0.972293
	N245	N	0.584692	0.671600	0.044196
	N246	N	0.584906	0.312560	0.972183
	N247	N	0.411425	0.312697	0.044598
	N248	N	0.677402	0.955461	0.420980
	N249	N	0.678209	0.026325	0.595962
	N250	N	0.317953	0.956621	0.594251
	N251	N	0.315209	0.026916	0.417591
	N252	N	0.911539	0.455886	0.187119
	N253	N	0.083519	0.527779	0.187499
	N254	N	0.082409	0.455542	0.830344
	N255	N	0.910638	0.528386	0.831075
	N256	N	0.178390	0.903308	0.472375
	N257	N	0.177305	0.079009	0.543040
	N258	N	0.817945	0.076913	0.473121
	N259	N	0.816869	0.902784	0.543905
	N260	N	0.462634	0.172625	0.920961
	N261	N	0.533409	0.172622	0.095213
	N262	N	0.462197	0.812273	0.094184
	N263	N	0.533052	0.809321	0.918549
	N264	N	0.462181	0.906037	0.187228
	N265	N	0.533458	0.080100	0.188961
	N266	N	0.462468	0.078498	0.828502
	N267	N	0.534698	0.906226	0.829002
	N268	N	0.908555	0.171621	0.473950
	N269	N	0.081951	0.168919	0.545047
	N270	N	0.084931	0.811304	0.472844
	N271	N	0.912934	0.814711	0.545966
	N272	N	0.178261	0.456395	0.920054
	N273	N	0.177947	0.527153	0.096298
	N274	N	0.816425	0.457563	0.096578
	N275	N	0.816945	0.527364	0.921116
	O276	O	0.626556	0.475850	0.406502
	H277	H	0.632333	0.477279	0.400787
	H278	H	0.624965	0.494157	0.418809
	O279	O	0.475453	0.557956	0.321803
	H280	H	0.465762	0.547299	0.317125
	H281	H	0.478738	0.550814	0.324070
	O282	O	1.190167	0.799709	0.003230
	H283	H	1.204943	0.795831	-0.009409
	H284	H	1.200643	0.796622	-0.006284
	O285	O	0.956040	1.137401	0.075459
	H286	H	0.969358	1.146918	0.082860
	H287	H	0.952085	1.142513	0.069440
	O288	O	0.442819	0.340388	0.673152
	H289	H	0.450190	0.343772	0.669722
	H290	H	0.450420	0.326538	0.677147
	O291	O	0.684454	0.603616	0.690798
	H292	H	0.682209	0.573623	0.692282
	H293	H	0.665464	0.604500	0.706335
	O294	O	0.820275	0.873981	1.201121
	H295	H	0.814403	0.891407	1.204557
	H296	H	0.830467	0.882966	1.214191
	O297	O	0.590915	0.308577	0.305097
	H298	H	0.617069	0.314481	0.300044
	H299	H	0.583607	0.293366	0.293631
	O300	O	0.608112	0.304676	0.552730
	H301	H	0.625425	0.301092	0.525123
	H302	H	0.618305	0.310277	0.540073
	O303	O	0.515975	0.428864	0.629584
	H304	H	0.518094	0.433784	0.611263
	H305	H	0.524774	0.398271	0.637672
	O306	O	0.367907	0.635993	0.379302
	H307	H	0.360295	0.626026	0.397141
	H308	H	0.357584	0.636601	0.368390
	O309	O	1.084746	-0.164734	-0.148685
	H310	H	1.065835	-0.180343	-0.162707
	H311	H	1.077984	-0.172043	-0.153873
	O312	O	0.500349	0.663391	0.337943
	H313	H	0.503646	0.672328	0.346894
	H314	H	0.484158	0.655486	0.331787
	O315	O	0.013550	0.168872	0.823329
	H316	H	0.020616	0.153806	0.826179
	H317	H	0.017071	0.172764	0.840158
	O318	O	-0.027469	0.188251	0.093656
	H319	H	-0.016483	0.188529	0.099591
	H320	H	-0.005109	0.181047	0.097029
	O321	O	0.374955	0.366639	0.543137
	H322	H	0.376804	0.356010	0.558326
	H323	H	0.369044	0.343440	0.538573
	O324	O	0.923699	-0.119581	1.150651
	H325	H	0.922021	-0.129763	1.165711
	H326	H	0.930847	-0.104681	1.147374
	O327	O	0.528365	0.622691	0.457157
	H328	H	0.522242	0.617380	0.447978
	H329	H	0.524601	0.626742	0.469079
	O330	O	0.211515	1.041069	1.006052
	H331	H	0.209804	1.043291	1.005797
	H332	H	0.218794	1.047031	0.983492
	O333	O	-0.298124	0.500410	-0.539116
	H334	H	-0.295295	0.503847	-0.537437
	H335	H	-0.298861	0.506928	-0.534816
	O336	O	1.090420	0.895187	-0.174675
	H337	H	1.076186	0.880275	-0.158940
	H338	H	1.087752	0.876334	-0.179431
	O339	O	-0.111002	0.988505	1.013515
	H340	H	-0.113130	0.977261	1.031505
	H341	H	-0.121370	0.981161	1.029325
	O342	O	0.547461	0.512527	0.674029
	H343	H	0.542857	0.499387	0.661305
	H344	H	0.544487	0.505998	0.679037
	O345	O	0.118750	-0.127006	0.802228
	H346	H	0.113356	-0.156000	0.795110
	H347	H	0.115061	-0.138125	0.794414
	O348	O	0.442885	0.465994	0.492743
	H349	H	0.442951	0.466385	0.483245
	H350	H	0.435748	0.460173	0.480022
	O351	O	1.164626	1.086301	0.113065
	H352	H	1.177189	1.080545	0.094744
	H353	H	1.161655	1.064986	0.116411
	O354	O	0.984437	1.107848	1.143615
	H355	H	0.987648	1.125589	1.162925
	H356	H	1.002890	1.106475	1.142075
	O357	O	0.162971	0.087222	0.101021
	H358	H	0.166010	0.086719	0.092663
	H359	H	0.179008	0.093643	0.099537
	O360	O	0.389789	0.279859	0.531595
	H361	H	0.389350	0.285936	0.529459
	H362	H	0.399020	0.269595	0.527498
	O363	O	1.034355	-0.023550	0.072059
	H364	H	1.034726	-0.016421	0.064092
	H365	H	1.036358	-0.017407	0.076034
	O366	O	-0.167826	0.100197	0.806033
	H367	H	-0.162498	0.071544	0.813218
	H368	H	-0.159141	0.096493	0.792892
	O369	O	1.105160	0.011497	1.202821
	H370	H	1.120787	-0.005661	1.208967
	H371	H	1.090574	-0.004250	1.204994
	O372	O	0.297030	0.543338	0.602170
	H373	H	0.302189	0.513658	0.600180
	H374	H	0.300955	0.545313	0.582325
	O375	O	0.014612	0.032385	0.986131
	H376	H	-0.000216	0.031217	0.993176
	H377	H	0.013822	0.018908	0.978596
	O378	O	0.490307	0.590796	0.572237
	H379	H	0.486598	0.591704	0.575817
	H380	H	0.488499	0.588067	0.592353
	O381	O	-0.207006	1.177543	-0.005852
	H382	H	-0.215432	1.193846	-0.021095
	H383	H	-0.204984	1.180161	-0.029237
	O384	O	0.595811	0.544216	0.415554
	H385	H	0.584750	0.552807	0.417757
	H386	H	0.609519	0.554236	0.423304
	O387	O	0.692170	0.682906	0.544275
	H388	H	0.708940	0.685264	0.557479
	H389	H	0.680794	0.674847	0.562060
	O390	O	0.987519	0.906944	0.038519
	H391	H	0.997841	0.888014	0.037718
	H392	H	0.999746	0.905801	0.037606
	O393	O	0.914367	-0.128189	1.101373
	H394	H	0.922915	-0.122516	1.103936
	H395	H	0.922661	-0.141951	1.114493
	O396	O	0.402748	0.620779	0.437440
	H397	H	0.403773	0.620473	0.440719
	H398	H	0.409720	0.633109	0.433803
	O399	O	-0.027219	1.136242	-0.132599
	H400	H	-0.021337	1.135051	-0.129965
	H401	H	-0.035939	1.108702	-0.144481
	O402	O	1.496662	1.288646	-0.510325
	H403	H	1.497390	1.281736	-0.520322
	H404	H	1.505044	1.285277	-0.520986
	O405	O	0.332829	0.326008	0.662249
	H406	H	0.320475	0.312672	0.642908
	H407	H	0.359650	0.317146	0.679371
	O408	O	0.693320	0.287923	0.388957
	H409	H	0.697640	0.292747	0.354229
	H410	H	0.709248	0.286778	0.381194
	O411	O	0.997011	0.899132	1.031853
	H412	H	0.993180	0.909721	1.042270
	H413	H	0.970816	0.892691	1.038613
	O414	O	0.350118	0.490107	0.691578
	H415	H	0.349800	0.463511	0.698006
	H416	H	0.344077	0.465968	0.700352
	O417	O	0.106609	1.057868	0.958804
	H418	H	0.095606	1.059161	0.953753
	H419	H	0.086947	1.058053	0.940837
	O420	O	-0.206254	0.790329	1.091386
	H421	H	-0.214427	0.796324	1.118725
	H422	H	-0.200882	0.781614	1.111023
	O423	O	0.082320	0.883994	-0.129959
	H424	H	0.080563	0.876053	-0.120143
	H425	H	0.073057	0.868061	-0.141387
	O426	O	0.413121	0.509050	0.500348
	H427	H	0.398775	0.511789	0.508082
	H428	H	0.411772	0.526746	0.507178
	O429	O	0.630222	0.562343	0.636359
	H430	H	0.630197	0.548125	0.640636
	H431	H	0.629398	0.553039	0.638016
	O432	O	0.302383	0.573912	0.313271
	H433	H	0.299299	0.586633	0.321330
	H434	H	0.296407	0.558710	0.317317
	O435	O	-0.194298	0.065574	0.065730
	H436	H	-0.187232	0.074636	0.052872
	H437	H	-0.186886	0.076485	0.046471
	O438	O	-0.076198	0.931156	1.039804
	H439	H	-0.079525	0.931115	1.047783
	H440	H	-0.087609	0.923431	1.031684
	O441	O	0.312173	0.648435	0.566134
	H442	H	0.312755	0.654250	0.556387
	H443	H	0.317141	0.628745	0.566650
