data_Molecule from HDF5

_cell_length_a		16.295866
_cell_length_b		16.040376
_cell_length_c		16.266171
_cell_angle_alpha	89.688752
_cell_angle_beta	89.892849
_cell_angle_gamma	89.966253
_symmetry_space_group_name_H-M	'P 1'
_symmetry_Int_Tables_number		1

loop_
	_symmetry_equiv_pos_as_xyz
	x,y,z

loop_
	_atom_site_label
	_atom_site_type_symbol
	_atom_site_fract_x
	_atom_site_fract_y
	_atom_site_fract_z
	H0	H	0.396127	0.837911	0.716671
	H1	H	0.594538	0.168197	0.711465
	H2	H	0.597783	0.837569	0.285739
	H3	H	0.395898	0.167789	0.284624
	H4	H	0.711189	0.401314	0.838446
	H5	H	0.712965	0.605044	0.162769
	H6	H	0.279267	0.603364	0.836227
	H7	H	0.277242	0.398495	0.162430
	H8	H	0.832405	0.717830	0.400434
	H9	H	0.160007	0.714120	0.594861
	H10	H	0.831552	0.287897	0.597920
	H11	H	0.159998	0.289383	0.403675
	H12	H	0.832513	0.400817	0.715663
	H13	H	0.157907	0.602563	0.716447
	H14	H	0.832294	0.603651	0.283202
	H15	H	0.157570	0.400624	0.283464
	H16	H	0.396640	0.719063	0.836351
	H17	H	0.590940	0.713602	0.165996
	H18	H	0.592347	0.292205	0.835821
	H19	H	0.398235	0.288773	0.164419
	H20	H	0.710412	0.837141	0.400626
	H21	H	0.709462	0.166875	0.599330
	H22	H	0.280154	0.837462	0.602257
	H23	H	0.280462	0.167888	0.399245
	H24	H	0.893005	0.336848	0.216168
	H25	H	0.093748	0.665620	0.211565
	H26	H	0.092450	0.335041	0.788710
	H27	H	0.894763	0.667054	0.783213
	H28	H	0.212535	0.901425	0.338373
	H29	H	0.212193	0.105606	0.662742
	H30	H	0.777328	0.105761	0.337254
	H31	H	0.778833	0.899289	0.663620
	H32	H	0.331754	0.217286	0.902807
	H33	H	0.659786	0.215691	0.095876
	H34	H	0.332267	0.789102	0.100851
	H35	H	0.659111	0.788795	0.903557
	H36	H	0.334221	0.899951	0.218755
	H37	H	0.658105	0.104735	0.217290
	H38	H	0.334019	0.106940	0.782664
	H39	H	0.658791	0.902292	0.784450
	H40	H	0.898457	0.216276	0.335524
	H41	H	0.091497	0.213676	0.664821
	H42	H	0.095393	0.789545	0.336058
	H43	H	0.896771	0.785534	0.662964
	H44	H	0.210994	0.337081	0.898196
	H45	H	0.208539	0.665555	0.098736
	H46	H	0.780547	0.336681	0.100458
	H47	H	0.780508	0.667963	0.899787
	H48	H	0.407909	0.120739	0.594159
	H49	H	0.587381	0.884550	0.590099
	H50	H	0.592126	0.125215	0.399538
	H51	H	0.390779	0.883194	0.415560
	H52	H	0.589445	0.408959	0.118660
	H53	H	0.581379	0.590776	0.886869
	H54	H	0.398190	0.593490	0.117093
	H55	H	0.401767	0.421273	0.885646
	H56	H	0.108145	0.586976	0.409901
	H57	H	0.884625	0.581581	0.586812
	H58	H	0.111235	0.407481	0.585901
	H59	H	0.873808	0.407091	0.394786
	H60	H	0.110913	0.415507	0.599258
	H61	H	0.874746	0.593505	0.606339
	H62	H	0.113311	0.592423	0.395142
	H63	H	0.877699	0.399755	0.414508
	H64	H	0.400904	0.592558	0.116104
	H65	H	0.586260	0.604077	0.881765
	H66	H	0.588573	0.411032	0.117685
	H67	H	0.409368	0.405873	0.883560
	H68	H	0.576543	0.117709	0.406708
	H69	H	0.589040	0.882269	0.596017
	H70	H	0.401629	0.119796	0.586631
	H71	H	0.406138	0.881525	0.396986
	H72	H	0.893305	0.626298	0.097488
	H73	H	0.081409	0.383700	0.089191
	H74	H	0.079956	0.617606	0.908992
	H75	H	0.910975	0.387777	0.912843
	H76	H	0.099148	0.912917	0.619458
	H77	H	0.082818	0.087401	0.387190
	H78	H	0.905962	0.096909	0.616363
	H79	H	0.901002	0.916126	0.384610
	H80	H	0.612873	0.096362	0.904055
	H81	H	0.379583	0.093367	0.091135
	H82	H	0.613855	0.908600	0.096878
	H83	H	0.377345	0.903870	0.907958
	H84	H	0.612279	0.907891	0.092118
	H85	H	0.379353	0.092769	0.096031
	H86	H	0.613074	0.098562	0.904480
	H87	H	0.383070	0.916941	0.915910
	H88	H	0.894916	0.096522	0.619615
	H89	H	0.085357	0.104245	0.381934
	H90	H	0.080110	0.916548	0.612437
	H91	H	0.905360	0.909715	0.383861
	H92	H	0.090788	0.619771	0.911619
	H93	H	0.092141	0.381105	0.088715
	H94	H	0.913370	0.617825	0.096364
	H95	H	0.892781	0.382735	0.914202
	H96	H	0.398269	0.123229	0.594450
	H97	H	0.583335	0.883397	0.595516
	H98	H	0.591932	0.119522	0.417460
	H99	H	0.413549	0.890597	0.418723
	H100	H	0.586769	0.409386	0.117916
	H101	H	0.594932	0.591672	0.883480
	H102	H	0.399971	0.595862	0.116856
	H103	H	0.393470	0.408869	0.880607
	H104	H	0.113634	0.603435	0.408710
	H105	H	0.877040	0.605496	0.584130
	H106	H	0.116305	0.400607	0.600003
	H107	H	0.883334	0.420414	0.409731
	H108	H	0.901205	0.617368	0.079011
	H109	H	0.085538	0.379275	0.098431
	H110	H	0.086393	0.621694	0.901392
	H111	H	0.901647	0.379335	0.897132
	H112	H	0.084941	0.898016	0.619889
	H113	H	0.097798	0.092852	0.380943
	H114	H	0.900039	0.086456	0.614674
	H115	H	0.897754	0.910050	0.381472
	H116	H	0.612787	0.097473	0.906261
	H117	H	0.378421	0.097256	0.094593
	H118	H	0.611982	0.912388	0.094453
	H119	H	0.378615	0.918783	0.900559
	C120	C	0.373088	0.012150	0.622380
	C121	C	0.615546	0.993065	0.621090
	C122	C	0.616816	0.011289	0.379170
	C123	C	0.374415	0.994221	0.379869
	C124	C	0.616942	0.380957	0.009735
	C125	C	0.616571	0.624143	0.992337
	C126	C	0.371270	0.624693	0.008836
	C127	C	0.372798	0.381311	0.991378
	C128	C	0.004079	0.624137	0.376268
	C129	C	0.986909	0.622563	0.621082
	C130	C	0.004415	0.379204	0.622728
	C131	C	0.986249	0.379785	0.377853
	C132	C	0.873541	0.511005	0.121178
	C133	C	0.114895	0.491141	0.120075
	C134	C	0.114949	0.510312	0.878863
	C135	C	0.873014	0.493252	0.878479
	C136	C	0.117157	0.880804	0.509120
	C137	C	0.116626	0.123842	0.491546
	C138	C	0.872279	0.123755	0.508414
	C139	C	0.872994	0.881019	0.491359
	C140	C	0.504694	0.126332	0.877031
	C141	C	0.487028	0.124055	0.121987
	C142	C	0.505057	0.880499	0.123777
	C143	C	0.487311	0.882650	0.879248
	C144	C	0.375488	0.887557	0.678724
	C145	C	0.614083	0.118597	0.674682
	C146	C	0.616752	0.887081	0.323442
	C147	C	0.376074	0.118481	0.323134
	C148	C	0.672726	0.382549	0.886978
	C149	C	0.673388	0.623437	0.114683
	C150	C	0.316584	0.623759	0.885439
	C151	C	0.316287	0.380467	0.113759
	C152	C	0.881118	0.679887	0.379635
	C153	C	0.110592	0.677396	0.617118
	C154	C	0.880688	0.324933	0.619257
	C155	C	0.110239	0.325927	0.381936
	C156	C	0.881007	0.380845	0.677898
	C157	C	0.109554	0.622069	0.677557
	C158	C	0.881278	0.622897	0.321318
	C159	C	0.109110	0.380963	0.321888
	C160	C	0.375345	0.681033	0.885518
	C161	C	0.612437	0.677401	0.116272
	C162	C	0.613610	0.327984	0.885754
	C163	C	0.376512	0.325923	0.115005
	C164	C	0.672846	0.886746	0.380604
	C165	C	0.671425	0.117989	0.619016
	C166	C	0.317686	0.887292	0.621861
	C167	C	0.318355	0.118397	0.379859
	C168	C	0.874055	0.386536	0.177924
	C169	C	0.113376	0.616173	0.174364
	C170	C	0.113262	0.385101	0.824857
	C171	C	0.874747	0.617587	0.821687
	C172	C	0.173732	0.882446	0.386512
	C173	C	0.172918	0.123871	0.614222
	C174	C	0.816481	0.124289	0.385886
	C175	C	0.817259	0.880547	0.614478
	C176	C	0.381197	0.180875	0.880864
	C177	C	0.610448	0.179221	0.118058
	C178	C	0.381658	0.825681	0.121775
	C179	C	0.610067	0.826234	0.882136
	C180	C	0.382511	0.881150	0.180196
	C181	C	0.609682	0.123458	0.178049
	C182	C	0.382418	0.125712	0.821078
	C183	C	0.610087	0.883208	0.823182
	C184	C	0.876623	0.179545	0.385186
	C185	C	0.112934	0.177720	0.615413
	C186	C	0.115289	0.826705	0.385391
	C187	C	0.876078	0.823984	0.614267
	C188	C	0.171590	0.385911	0.879882
	C189	C	0.170547	0.616029	0.118473
	C190	C	0.818292	0.386166	0.120160
	C191	C	0.818036	0.617994	0.879846
	C192	C	0.395781	0.098751	0.598763
	C193	C	0.593085	0.906035	0.599944
	C194	C	0.593723	0.098351	0.401245
	C195	C	0.397042	0.907326	0.403406
	C196	C	0.594688	0.403156	0.095980
	C197	C	0.594191	0.602015	0.906446
	C198	C	0.393347	0.601033	0.094629
	C199	C	0.395079	0.405092	0.905194
	C200	C	0.089668	0.601071	0.398169
	C201	C	0.901232	0.599968	0.599083
	C202	C	0.090404	0.401378	0.601452
	C203	C	0.900461	0.402360	0.399889
	C204	C	0.895990	0.597890	0.097899
	C205	C	0.092874	0.404069	0.098538
	C206	C	0.092270	0.597209	0.900885
	C207	C	0.895175	0.405877	0.901364
	C208	C	0.094602	0.902754	0.594982
	C209	C	0.095032	0.101398	0.405572
	C210	C	0.893783	0.100166	0.594630
	C211	C	0.894979	0.904968	0.405479
	C212	C	0.590653	0.104043	0.898537
	C213	C	0.401518	0.101112	0.100247
	C214	C	0.590409	0.903005	0.101208
	C215	C	0.401695	0.906234	0.901740
	Zn216	Zn	0.496260	0.003865	0.749342
	Zn217	Zn	0.496027	0.002056	0.252008
	Zn218	Zn	0.745369	0.502047	0.000775
	Zn219	Zn	0.242455	0.501148	-0.000200
	Zn220	Zn	-0.003928	0.752650	0.498711
	Zn221	Zn	-0.004242	0.251800	0.500609
	Zn222	Zn	-0.004793	0.500725	0.750594
	Zn223	Zn	-0.005135	0.501235	0.247701
	Zn224	Zn	0.494704	0.753283	0.001544
	Zn225	Zn	0.495537	0.253512	0.000043
	Zn226	Zn	0.742734	0.001992	0.500744
	Zn227	Zn	0.245427	0.002986	0.500726
	N228	N	0.409300	0.966094	0.679395
	N229	N	0.580012	0.040139	0.676178
	N230	N	0.582556	0.965677	0.322300
	N231	N	0.410295	0.040149	0.322995
	N232	N	0.674827	0.415004	0.965231
	N233	N	0.676165	0.591061	0.036517
	N234	N	0.313792	0.589647	0.963258
	N235	N	0.313922	0.414108	0.035637
	N236	N	0.958482	0.680871	0.413015
	N237	N	0.033472	0.678081	0.582851
	N238	N	0.958252	0.323596	0.585904
	N239	N	0.032807	0.324875	0.415965
	N240	N	0.958893	0.413897	0.680335
	N241	N	0.031542	0.589006	0.680463
	N242	N	0.958842	0.589019	0.318965
	N243	N	0.031168	0.413855	0.319265
	N244	N	0.408432	0.682000	0.963420
	N245	N	0.577780	0.678031	0.039212
	N246	N	0.579580	0.326838	0.963120
	N247	N	0.411046	0.326247	0.037852
	N248	N	0.673143	0.965141	0.414265
	N249	N	0.672485	0.039120	0.586563
	N250	N	0.316001	0.965910	0.587694
	N251	N	0.317259	0.040001	0.414545
	N252	N	0.907583	0.465171	0.178704
	N253	N	0.079450	0.537547	0.175605
	N254	N	0.078423	0.463347	0.824198
	N255	N	0.908452	0.538876	0.820850
	N256	N	0.175113	0.915353	0.464496
	N257	N	0.175544	0.091211	0.536332
	N258	N	0.813776	0.090003	0.463672
	N259	N	0.815087	0.915049	0.536890
	N260	N	0.458239	0.181419	0.914879
	N261	N	0.533299	0.179743	0.083972
	N262	N	0.458760	0.824929	0.087572
	N263	N	0.532771	0.825927	0.916172
	N264	N	0.460363	0.914408	0.181921
	N265	N	0.532041	0.089740	0.180595
	N266	N	0.460350	0.092656	0.818522
	N267	N	0.532452	0.917300	0.820965
	N268	N	0.910606	0.179404	0.462568
	N269	N	0.078720	0.178066	0.538009
	N270	N	0.080708	0.825576	0.462672
	N271	N	0.910114	0.824084	0.536728
	N272	N	0.173034	0.464900	0.912525
	N273	N	0.171626	0.537438	0.085289
	N274	N	0.817620	0.464738	0.085599
	N275	N	0.816780	0.539450	0.914072
	O276	O	1.064958	-0.074295	0.922693
	H277	H	1.069795	-0.078972	0.929897
	H278	H	1.067424	-0.083900	0.914916
	O279	O	0.486266	0.513398	0.409841
	H280	H	0.480145	0.512059	0.420243
	H281	H	0.483980	0.514383	0.397482
	O282	O	0.545609	0.515950	0.400137
	H283	H	0.543620	0.522875	0.396481
	H284	H	0.536209	0.506938	0.392916
	O285	O	0.539280	0.595919	0.457943
	H286	H	0.535587	0.587577	0.459125
	H287	H	0.534843	0.587210	0.457811
	O288	O	0.345781	0.534762	0.431937
	H289	H	0.335131	0.546853	0.423553
	H290	H	0.347979	0.528539	0.431230
	O291	O	-0.049860	-0.042771	0.905672
	H292	H	-0.040728	-0.046142	0.909147
	H293	H	-0.046281	-0.049272	0.900247
	O294	O	1.155900	1.048308	0.056388
	H295	H	1.161685	1.047767	0.046670
	H296	H	1.171555	1.057763	0.048648
	O297	O	1.098658	0.891391	-0.004539
	H298	H	1.107050	0.897394	0.008901
	H299	H	1.094751	0.883751	0.004134
	O300	O	0.555904	0.486115	0.532159
	H301	H	0.550201	0.490352	0.511406
	H302	H	0.562597	0.495724	0.539794
	O303	O	0.550528	0.465969	0.343025
	H304	H	0.553455	0.468234	0.348870
	H305	H	0.550738	0.470125	0.329115
	O306	O	0.536394	0.474043	0.378228
	H307	H	0.543909	0.474982	0.372319
	H308	H	0.545103	0.484640	0.382826
	O309	O	0.438059	0.642343	0.577318
	H310	H	0.433694	0.634403	0.573974
	H311	H	0.440421	0.641550	0.551754
	O312	O	0.972397	0.890007	1.006870
	H313	H	0.970253	0.891768	1.000926
	H314	H	0.960700	0.896761	1.008470
	O315	O	1.019221	1.095524	0.027281
	H316	H	1.016632	1.110240	0.027292
	H317	H	1.024609	1.103044	0.016798
	O318	O	0.535688	0.524314	0.616477
	H319	H	0.541035	0.521048	0.630664
	H320	H	0.548839	0.524489	0.602384
	O321	O	0.448022	0.482843	0.470453
	H322	H	0.443829	0.476475	0.473814
	H323	H	0.431983	0.484840	0.470435
	O324	O	-0.012845	0.960561	1.012564
	H325	H	-0.008671	0.958387	1.010612
	H326	H	-0.016308	0.967304	1.010048
	O327	O	-0.036183	1.010004	1.135272
	H328	H	-0.033097	0.994642	1.132852
	H329	H	-0.039418	1.011302	1.145908
	O330	O	-0.061076	0.007585	0.124811
	H331	H	-0.053023	0.002251	0.129125
	H332	H	-0.046182	0.005238	0.134393
	O333	O	0.514256	0.452067	0.569216
	H334	H	0.514082	0.452345	0.569627
	H335	H	0.518342	0.459624	0.572821
	O336	O	0.047899	0.143005	-0.043549
	H337	H	0.050340	0.139859	-0.030387
	H338	H	0.036295	0.134884	-0.054686
	O339	O	-0.068526	0.003081	-0.118546
	H340	H	-0.083382	-0.005174	-0.113347
	H341	H	-0.062352	-0.009205	-0.115965
	O342	O	0.507663	0.396018	0.570260
	H343	H	0.499168	0.394553	0.569748
	H344	H	0.504374	0.390157	0.580519
	O345	O	0.002120	0.911820	0.977434
	H346	H	0.004706	0.907975	0.987148
	H347	H	0.007250	0.912079	0.980581
	O348	O	0.511733	0.614133	0.548473
	H349	H	0.504413	0.624678	0.544065
	H350	H	0.519341	0.623196	0.557569
	O351	O	0.684536	0.521887	0.497184
	H352	H	0.695305	0.521586	0.498096
	H353	H	0.686530	0.531570	0.508205
	O354	O	0.079463	1.040049	0.116307
	H355	H	0.068683	1.042270	0.118438
	H356	H	0.088002	1.051599	0.119969
	O357	O	0.456744	0.444214	0.581881
	H358	H	0.463590	0.456915	0.574733
	H359	H	0.464098	0.446990	0.590111
	O360	O	0.901805	-0.088312	1.020462
	H361	H	0.895405	-0.082877	1.018704
	H362	H	0.904206	-0.086665	1.019601
	O363	O	0.442936	0.524197	0.443350
	H364	H	0.450540	0.517555	0.459227
	H365	H	0.460217	0.509266	0.437021
	O366	O	0.426049	0.505715	0.384196
	H367	H	0.440485	0.497305	0.388773
	H368	H	0.429894	0.494706	0.374046
	O369	O	0.863754	0.015592	-0.073552
	H370	H	0.860927	0.009472	-0.072795
	H371	H	0.865274	0.015488	-0.071295
	O372	O	0.563492	0.527777	0.631906
	H373	H	0.559916	0.524968	0.625601
	H374	H	0.569701	0.523511	0.630006
	O375	O	1.005155	0.051053	0.963950
	H376	H	1.015483	0.066585	0.948323
	H377	H	1.002144	0.058815	0.978018
	O378	O	0.077483	1.064553	0.013150
	H379	H	0.078939	1.041589	0.006143
	H380	H	0.066455	1.057649	0.003760
	O381	O	0.419855	0.461543	0.578527
	H382	H	0.431146	0.450508	0.575332
	H383	H	0.412549	0.464718	0.585860
	O384	O	0.947757	0.908458	0.146279
	H385	H	0.950620	0.915898	0.139709
	H386	H	0.936087	0.896377	0.151869
	O387	O	0.840199	0.128727	0.892824
	H388	H	0.839441	0.138698	0.888896
	H389	H	0.833653	0.135930	0.887948
	O390	O	1.119579	0.956798	-0.058498
	H391	H	1.120536	0.947641	-0.061182
	H392	H	1.121747	0.944315	-0.059001
	O393	O	0.435685	0.437095	0.574443
	H394	H	0.420946	0.432357	0.581227
	H395	H	0.434619	0.435197	0.577186
