data_Molecule from HDF5

_cell_length_a		16.187103
_cell_length_b		16.227052
_cell_length_c		16.285685
_cell_angle_alpha	90.290940
_cell_angle_beta	90.006090
_cell_angle_gamma	90.126003
_symmetry_space_group_name_H-M	'P 1'
_symmetry_Int_Tables_number		1

loop_
	_symmetry_equiv_pos_as_xyz
	x,y,z

loop_
	_atom_site_label
	_atom_site_type_symbol
	_atom_site_fract_x
	_atom_site_fract_y
	_atom_site_fract_z
	H0	H	0.406174	0.843913	0.707136
	H1	H	0.605868	0.171837	0.708909
	H2	H	0.605991	0.844858	0.276381
	H3	H	0.407298	0.171834	0.279963
	H4	H	0.718824	0.409063	0.828528
	H5	H	0.718762	0.606021	0.156802
	H6	H	0.291412	0.605495	0.829017
	H7	H	0.291161	0.410483	0.156456
	H8	H	0.841528	0.721140	0.394248
	H9	H	0.170792	0.722430	0.591703
	H10	H	0.841255	0.294059	0.590048
	H11	H	0.170443	0.294102	0.393150
	H12	H	0.842164	0.408398	0.707024
	H13	H	0.170537	0.607543	0.707451
	H14	H	0.841222	0.605539	0.279839
	H15	H	0.169511	0.407406	0.276176
	H16	H	0.406272	0.721607	0.829485
	H17	H	0.605965	0.724400	0.155978
	H18	H	0.604091	0.292235	0.829231
	H19	H	0.406743	0.294439	0.156638
	H20	H	0.718510	0.842901	0.394333
	H21	H	0.720106	0.171926	0.592124
	H22	H	0.293216	0.843018	0.588837
	H23	H	0.293268	0.172187	0.395776
	H24	H	0.905073	0.344041	0.206243
	H25	H	0.104191	0.671308	0.208175
	H26	H	0.104425	0.344734	0.777453
	H27	H	0.906008	0.671821	0.777285
	H28	H	0.221377	0.909325	0.328615
	H29	H	0.219663	0.106424	0.656318
	H30	H	0.791748	0.104433	0.329474
	H31	H	0.792244	0.911315	0.656832
	H32	H	0.340740	0.220793	0.895944
	H33	H	0.670081	0.222996	0.091066
	H34	H	0.341588	0.793519	0.091625
	H35	H	0.669530	0.794448	0.894639
	H36	H	0.341628	0.909335	0.206667
	H37	H	0.670019	0.108048	0.207510
	H38	H	0.341780	0.106870	0.778812
	H39	H	0.669960	0.909063	0.779078
	H40	H	0.907834	0.220004	0.328231
	H41	H	0.104995	0.223331	0.655871
	H42	H	0.105964	0.792305	0.328499
	H43	H	0.907900	0.794279	0.656681
	H44	H	0.219284	0.343973	0.893271
	H45	H	0.219775	0.672051	0.091941
	H46	H	0.791491	0.343704	0.088706
	H47	H	0.791047	0.672381	0.894892
	H48	H	0.421474	0.122647	0.586971
	H49	H	0.597419	0.889465	0.589746
	H50	H	0.610929	0.127581	0.406391
	H51	H	0.417791	0.890747	0.394424
	H52	H	0.593434	0.420631	0.105884
	H53	H	0.604723	0.606182	0.872416
	H54	H	0.410476	0.607193	0.112105
	H55	H	0.414081	0.417599	0.877260
	H56	H	0.124142	0.608422	0.403583
	H57	H	0.885535	0.606751	0.589126
	H58	H	0.123914	0.408728	0.579890
	H59	H	0.886846	0.408544	0.399614
	H60	H	0.120751	0.423290	0.582073
	H61	H	0.890616	0.600170	0.577969
	H62	H	0.119923	0.591682	0.404727
	H63	H	0.890449	0.416219	0.402576
	H64	H	0.409534	0.595755	0.109066
	H65	H	0.600179	0.592052	0.878300
	H66	H	0.596112	0.407338	0.110897
	H67	H	0.414603	0.409586	0.875618
	H68	H	0.597316	0.127973	0.386314
	H69	H	0.595043	0.892640	0.583904
	H70	H	0.408663	0.125023	0.580703
	H71	H	0.414989	0.892517	0.404042
	H72	H	0.913628	0.627172	0.093086
	H73	H	0.097732	0.390654	0.084238
	H74	H	0.102676	0.626088	0.905455
	H75	H	0.916795	0.393212	0.902594
	H76	H	0.100253	0.924572	0.606052
	H77	H	0.101076	0.101403	0.375088
	H78	H	0.921470	0.112743	0.610679
	H79	H	0.919638	0.911669	0.377884
	H80	H	0.623516	0.098948	0.899571
	H81	H	0.387844	0.098974	0.088026
	H82	H	0.622802	0.915146	0.085695
	H83	H	0.389001	0.914909	0.903501
	H84	H	0.622996	0.916250	0.084644
	H85	H	0.386816	0.102805	0.088781
	H86	H	0.623351	0.101153	0.900562
	H87	H	0.387997	0.919086	0.897064
	H88	H	0.899542	0.101808	0.613610
	H89	H	0.100012	0.099292	0.375692
	H90	H	0.091010	0.910082	0.607667
	H91	H	0.908445	0.907547	0.372865
	H92	H	0.099264	0.627424	0.893916
	H93	H	0.098502	0.390228	0.085552
	H94	H	0.917371	0.622588	0.082597
	H95	H	0.905937	0.389126	0.899918
	H96	H	0.410552	0.127416	0.594091
	H97	H	0.602032	0.890084	0.584573
	H98	H	0.588315	0.120187	0.407498
	H99	H	0.408447	0.888326	0.397843
	H100	H	0.606553	0.417612	0.111314
	H101	H	0.590016	0.603673	0.877165
	H102	H	0.420048	0.601114	0.106842
	H103	H	0.407594	0.413812	0.874076
	H104	H	0.126163	0.598116	0.389957
	H105	H	0.889429	0.593575	0.590821
	H106	H	0.125508	0.415580	0.593061
	H107	H	0.887296	0.415562	0.394531
	H108	H	0.905831	0.626523	0.084251
	H109	H	0.097100	0.390061	0.084849
	H110	H	0.091757	0.622595	0.901459
	H111	H	0.914472	0.390453	0.892062
	H112	H	0.107530	0.910002	0.613026
	H113	H	0.098081	0.101355	0.375122
	H114	H	0.918696	0.089485	0.603952
	H115	H	0.909906	0.919261	0.375954
	H116	H	0.622491	0.099119	0.901994
	H117	H	0.388321	0.101835	0.084776
	H118	H	0.623716	0.916072	0.086138
	H119	H	0.385790	0.910795	0.896959
	C120	C	0.384405	0.016336	0.614961
	C121	C	0.626920	0.999582	0.614889
	C122	C	0.627396	0.016565	0.371177
	C123	C	0.385089	0.999190	0.371134
	C124	C	0.627137	0.385991	0.001128
	C125	C	0.627178	0.629750	0.984309
	C126	C	0.384128	0.629420	0.001089
	C127	C	0.383866	0.386285	0.984348
	C128	C	0.014367	0.627923	0.371493
	C129	C	0.997440	0.629514	0.614745
	C130	C	0.014874	0.386545	0.613580
	C131	C	0.997016	0.385219	0.370034
	C132	C	0.883863	0.516707	0.114041
	C133	C	0.126680	0.498922	0.114120
	C134	C	0.126992	0.516904	0.871307
	C135	C	0.883409	0.499522	0.870169
	C136	C	0.128414	0.885751	0.500585
	C137	C	0.127992	0.129398	0.483920
	C138	C	0.884768	0.129247	0.501193
	C139	C	0.884444	0.885923	0.484300
	C140	C	0.514573	0.128275	0.872388
	C141	C	0.496585	0.129917	0.114838
	C142	C	0.514200	0.887004	0.113843
	C143	C	0.496663	0.886403	0.870989
	C144	C	0.386306	0.892730	0.669325
	C145	C	0.625373	0.122892	0.670553
	C146	C	0.625833	0.893310	0.315008
	C147	C	0.387396	0.122907	0.317271
	C148	C	0.681788	0.388403	0.877605
	C149	C	0.681688	0.627051	0.107765
	C150	C	0.329172	0.626031	0.877839
	C151	C	0.328766	0.389527	0.107544
	C152	C	0.890570	0.682892	0.374253
	C153	C	0.121539	0.684751	0.612094
	C154	C	0.890746	0.331464	0.610891
	C155	C	0.121002	0.331231	0.372848
	C156	C	0.891100	0.388401	0.668868
	C157	C	0.121431	0.627836	0.669935
	C158	C	0.890439	0.625604	0.317093
	C159	C	0.120790	0.387797	0.314900
	C160	C	0.386250	0.683869	0.878103
	C161	C	0.625455	0.685825	0.107272
	C162	C	0.624750	0.330161	0.877952
	C163	C	0.386449	0.332110	0.107573
	C164	C	0.681740	0.892488	0.373965
	C165	C	0.681777	0.123162	0.612213
	C166	C	0.330140	0.892358	0.610714
	C167	C	0.330629	0.123067	0.375126
	C168	C	0.885118	0.393020	0.168682
	C169	C	0.124658	0.622467	0.169803
	C170	C	0.124455	0.393440	0.815718
	C171	C	0.885824	0.623199	0.815532
	C172	C	0.183619	0.888316	0.377436
	C173	C	0.182332	0.126843	0.607404
	C174	C	0.829643	0.125510	0.377970
	C175	C	0.829518	0.889659	0.607717
	C176	C	0.390203	0.183304	0.875033
	C177	C	0.621100	0.185033	0.112009
	C178	C	0.390622	0.831374	0.111722
	C179	C	0.620428	0.831661	0.874037
	C180	C	0.390590	0.888960	0.168877
	C181	C	0.620825	0.128160	0.169784
	C182	C	0.390559	0.126798	0.816935
	C183	C	0.620757	0.888894	0.816734
	C184	C	0.887184	0.183067	0.377430
	C185	C	0.125576	0.185240	0.606997
	C186	C	0.126170	0.830347	0.377443
	C187	C	0.887003	0.831623	0.607682
	C188	C	0.181468	0.393094	0.873175
	C189	C	0.181959	0.622737	0.112208
	C190	C	0.829076	0.392665	0.110082
	C191	C	0.828749	0.623273	0.873757
	C192	C	0.406859	0.102660	0.593711
	C193	C	0.604648	0.913074	0.592564
	C194	C	0.605441	0.103089	0.393537
	C195	C	0.407133	0.912725	0.392441
	C196	C	0.605129	0.408553	0.087201
	C197	C	0.604963	0.607291	0.898218
	C198	C	0.406520	0.607571	0.087114
	C199	C	0.405625	0.407366	0.897895
	C200	C	0.101088	0.605851	0.393098
	C201	C	0.910878	0.606757	0.592659
	C202	C	0.101186	0.409115	0.591520
	C203	C	0.910461	0.407146	0.392242
	C204	C	0.905869	0.603091	0.092913
	C205	C	0.104331	0.412665	0.091395
	C206	C	0.104584	0.603041	0.893641
	C207	C	0.905687	0.413348	0.891721
	C208	C	0.106186	0.908141	0.586686
	C209	C	0.106300	0.107073	0.397697
	C210	C	0.906761	0.107847	0.587112
	C211	C	0.906214	0.906834	0.398004
	C212	C	0.600786	0.106183	0.894319
	C213	C	0.410277	0.107799	0.093463
	C214	C	0.600801	0.909389	0.091969
	C215	C	0.409944	0.908509	0.892875
	Zn216	Zn	0.505645	0.007864	0.743179
	Zn217	Zn	0.505824	0.007991	0.242718
	Zn218	Zn	0.755660	0.507848	-0.007411
	Zn219	Zn	0.255351	0.507767	-0.007174
	Zn220	Zn	0.005994	0.756869	0.492470
	Zn221	Zn	0.006023	0.257898	0.492249
	Zn222	Zn	0.006028	0.508390	0.742559
	Zn223	Zn	0.005227	0.507520	0.242445
	Zn224	Zn	0.505361	0.758699	-0.007270
	Zn225	Zn	0.505638	0.257072	-0.007137
	Zn226	Zn	0.755325	0.007777	0.492794
	Zn227	Zn	0.256828	0.007710	0.492593
	N228	N	0.419578	0.970803	0.671832
	N229	N	0.591810	0.044804	0.672111
	N230	N	0.592662	0.971284	0.313418
	N231	N	0.420508	0.044810	0.314674
	N232	N	0.683322	0.422446	0.955177
	N233	N	0.682973	0.593058	0.030279
	N234	N	0.327712	0.592921	0.955443
	N235	N	0.327124	0.422524	0.029905
	N236	N	0.968718	0.684549	0.407305
	N237	N	0.043497	0.685736	0.578336
	N238	N	0.968588	0.330408	0.577078
	N239	N	0.043176	0.329523	0.406508
	N240	N	0.969170	0.422147	0.670583
	N241	N	0.043320	0.594362	0.671738
	N242	N	0.968513	0.592072	0.315391
	N243	N	0.042490	0.420714	0.312999
	N244	N	0.419770	0.686131	0.955741
	N245	N	0.592179	0.687491	0.029438
	N246	N	0.591589	0.328660	0.955648
	N247	N	0.420028	0.330068	0.029933
	N248	N	0.682798	0.970295	0.407992
	N249	N	0.682988	0.045425	0.578392
	N250	N	0.328859	0.970123	0.577590
	N251	N	0.329351	0.045248	0.408067
	N252	N	0.918670	0.471004	0.170994
	N253	N	0.090992	0.544631	0.171094
	N254	N	0.090977	0.471372	0.814598
	N255	N	0.918928	0.545174	0.813010
	N256	N	0.184972	0.922194	0.455078
	N257	N	0.183910	0.092736	0.529857
	N258	N	0.827777	0.093002	0.455821
	N259	N	0.827933	0.922683	0.529954
	N260	N	0.468198	0.184394	0.908675
	N261	N	0.543032	0.186605	0.079006
	N262	N	0.468664	0.830182	0.078296
	N263	N	0.542204	0.829931	0.907005
	N264	N	0.468520	0.922927	0.170247
	N265	N	0.542743	0.094340	0.171696
	N266	N	0.468650	0.093483	0.814961
	N267	N	0.542564	0.921893	0.814575
	N268	N	0.921032	0.185190	0.454960
	N269	N	0.092857	0.187081	0.529161
	N270	N	0.092544	0.828811	0.455068
	N271	N	0.920338	0.829088	0.529991
	N272	N	0.182947	0.470773	0.907257
	N273	N	0.182917	0.545036	0.077914
	N274	N	0.827881	0.470519	0.077078
	N275	N	0.827272	0.545584	0.907071
	O276	O	-0.460121	-0.524516	1.446636
	H277	H	-0.461043	-0.521065	1.447039
	H278	H	-0.457663	-0.523288	1.444404
	O279	O	0.537957	0.485809	0.498739
	H280	H	0.540452	0.480602	0.500593
	H281	H	0.540771	0.489881	0.493825
	O282	O	0.513493	0.520655	0.496957
	H283	H	0.503052	0.526305	0.502099
	H284	H	0.516362	0.506789	0.496950
	O285	O	0.490954	0.513180	0.462820
	H286	H	0.485104	0.511037	0.463634
	H287	H	0.496514	0.501647	0.458868
	O288	O	0.572705	0.550684	0.534662
	H289	H	0.574578	0.556652	0.540365
	H290	H	0.568766	0.543308	0.537230
	O291	O	-0.433029	0.556804	1.495408
	H292	H	-0.440092	0.561883	1.494243
	H293	H	-0.432188	0.563651	1.494974
	O294	O	0.546228	0.510471	0.464015
	H295	H	0.554607	0.514827	0.464534
	H296	H	0.550804	0.512078	0.466281
	O297	O	1.021213	0.019085	0.005145
	H298	H	1.024616	0.019809	0.005351
	H299	H	1.023403	0.020138	0.004261
