data_Molecule from HDF5

_cell_length_a		16.886406
_cell_length_b		16.529830
_cell_length_c		16.444132
_cell_angle_alpha	90.026953
_cell_angle_beta	90.066782
_cell_angle_gamma	89.838537
_symmetry_space_group_name_H-M	'P 1'
_symmetry_Int_Tables_number		1

loop_
	_symmetry_equiv_pos_as_xyz
	x,y,z

loop_
	_atom_site_label
	_atom_site_type_symbol
	_atom_site_fract_x
	_atom_site_fract_y
	_atom_site_fract_z
	H0	H	0.397137	0.838803	0.708800
	H1	H	0.599458	0.152911	0.707633
	H2	H	0.606393	0.840696	0.268292
	H3	H	0.397883	0.154189	0.272576
	H4	H	0.717055	0.394040	0.833504
	H5	H	0.720805	0.604157	0.146673
	H6	H	0.274987	0.604930	0.836042
	H7	H	0.275418	0.386093	0.145443
	H8	H	0.846672	0.720267	0.386614
	H9	H	0.155431	0.716352	0.595869
	H10	H	0.845634	0.275143	0.596502
	H11	H	0.148992	0.269706	0.380970
	H12	H	0.844325	0.394334	0.710847
	H13	H	0.154386	0.599664	0.713624
	H14	H	0.845067	0.601942	0.270505
	H15	H	0.149410	0.387154	0.264718
	H16	H	0.392531	0.718463	0.835174
	H17	H	0.599578	0.713433	0.149861
	H18	H	0.597703	0.282128	0.831769
	H19	H	0.395437	0.275271	0.147706
	H20	H	0.725411	0.841824	0.381261
	H21	H	0.722274	0.149875	0.599458
	H22	H	0.276637	0.842060	0.598588
	H23	H	0.275790	0.150185	0.380687
	H24	H	0.899000	0.339226	0.206909
	H25	H	0.101181	0.653494	0.210714
	H26	H	0.100184	0.338322	0.773932
	H27	H	0.902787	0.656481	0.778313
	H28	H	0.223392	0.887659	0.335205
	H29	H	0.221412	0.104227	0.646206
	H30	H	0.775582	0.104760	0.336311
	H31	H	0.779100	0.888741	0.646352
	H32	H	0.349075	0.222414	0.882028
	H33	H	0.653127	0.219502	0.097547
	H34	H	0.347780	0.770827	0.102865
	H35	H	0.649977	0.769945	0.883745
	H36	H	0.347643	0.889971	0.217386
	H37	H	0.653738	0.101978	0.214078
	H38	H	0.347681	0.103491	0.766827
	H39	H	0.649942	0.886950	0.765758
	H40	H	0.890554	0.219508	0.335765
	H41	H	0.101442	0.214771	0.648497
	H42	H	0.105130	0.774967	0.334135
	H43	H	0.901286	0.780330	0.650587
	H44	H	0.221148	0.340626	0.883878
	H45	H	0.222462	0.650467	0.101233
	H46	H	0.779140	0.340964	0.095393
	H47	H	0.780953	0.654522	0.888300
	H48	H	0.410873	0.107571	0.575507
	H49	H	0.589007	0.881798	0.581418
	H50	H	0.595870	0.108215	0.409684
	H51	H	0.407945	0.883192	0.403853
	H52	H	0.589369	0.412892	0.103851
	H53	H	0.594772	0.584229	0.875282
	H54	H	0.404876	0.580497	0.104527
	H55	H	0.410027	0.410584	0.878841
	H56	H	0.111199	0.583846	0.393311
	H57	H	0.890199	0.595135	0.575728
	H58	H	0.110366	0.400394	0.577079
	H59	H	0.887926	0.401635	0.407019
	H60	H	0.105131	0.411870	0.577221
	H61	H	0.892052	0.580797	0.582981
	H62	H	0.109944	0.592752	0.406097
	H63	H	0.893261	0.415227	0.406354
	H64	H	0.412651	0.577618	0.099615
	H65	H	0.586959	0.578814	0.880192
	H66	H	0.587853	0.402669	0.106466
	H67	H	0.409531	0.408312	0.878105
	H68	H	0.590217	0.110072	0.397878
	H69	H	0.588438	0.884689	0.574577
	H70	H	0.405946	0.108382	0.576946
	H71	H	0.416159	0.884850	0.403463
	H72	H	0.911733	0.609210	0.079681
	H73	H	0.090476	0.382535	0.081629
	H74	H	0.084669	0.607734	0.900812
	H75	H	0.906106	0.383482	0.900288
	H76	H	0.090652	0.905504	0.605173
	H77	H	0.087330	0.084919	0.377361
	H78	H	0.907917	0.083054	0.604058
	H79	H	0.915661	0.909881	0.379689
	H80	H	0.611479	0.086652	0.897050
	H81	H	0.391087	0.085362	0.079006
	H82	H	0.610418	0.903839	0.081444
	H83	H	0.385251	0.901675	0.896394
	H84	H	0.607025	0.905753	0.074938
	H85	H	0.390939	0.085550	0.081420
	H86	H	0.610671	0.089443	0.901966
	H87	H	0.392441	0.905679	0.912726
	H88	H	0.911743	0.083095	0.603016
	H89	H	0.090251	0.080600	0.377858
	H90	H	0.094657	0.909945	0.604996
	H91	H	0.912111	0.906811	0.377513
	H92	H	0.088239	0.606267	0.909393
	H93	H	0.081427	0.387338	0.076929
	H94	H	0.904457	0.610486	0.074587
	H95	H	0.904696	0.382947	0.901947
	H96	H	0.409656	0.109524	0.580495
	H97	H	0.594833	0.881385	0.576199
	H98	H	0.583732	0.104420	0.407666
	H99	H	0.412210	0.886577	0.411094
	H100	H	0.596579	0.407125	0.108038
	H101	H	0.585428	0.588626	0.877022
	H102	H	0.412211	0.586062	0.104131
	H103	H	0.408072	0.410178	0.877736
	H104	H	0.104876	0.577991	0.406628
	H105	H	0.886375	0.593277	0.591624
	H106	H	0.110659	0.407291	0.587835
	H107	H	0.887212	0.409474	0.394233
	H108	H	0.904899	0.612330	0.083417
	H109	H	0.090717	0.385520	0.071440
	H110	H	0.092679	0.610727	0.903090
	H111	H	0.904159	0.381656	0.900153
	H112	H	0.089213	0.910391	0.602540
	H113	H	0.084937	0.080631	0.379798
	H114	H	0.910027	0.086677	0.604330
	H115	H	0.910683	0.911799	0.378980
	H116	H	0.609138	0.084130	0.901805
	H117	H	0.390355	0.086906	0.080104
	H118	H	0.606666	0.910666	0.080546
	H119	H	0.391880	0.917907	0.899358
	C120	C	0.377481	0.005528	0.611087
	C121	C	0.621438	0.986208	0.611138
	C122	C	0.622206	0.004693	0.370893
	C123	C	0.379926	0.988237	0.371710
	C124	C	0.620531	0.376665	0.000611
	C125	C	0.619731	0.616693	0.981967
	C126	C	0.377267	0.616047	-0.000358
	C127	C	0.377532	0.375446	0.981757
	C128	C	0.007656	0.618290	0.369489
	C129	C	0.992028	0.619625	0.614474
	C130	C	0.007150	0.375124	0.612872
	C131	C	0.989729	0.374298	0.368599
	C132	C	0.877065	0.506552	0.111175
	C133	C	0.119575	0.487990	0.110980
	C134	C	0.119994	0.504794	0.871533
	C135	C	0.876929	0.488069	0.870583
	C136	C	0.123174	0.875178	0.500288
	C137	C	0.119374	0.115827	0.481924
	C138	C	0.877424	0.117166	0.500417
	C139	C	0.881254	0.876689	0.482711
	C140	C	0.508792	0.118722	0.868356
	C141	C	0.492160	0.118318	0.112992
	C142	C	0.507606	0.873940	0.113980
	C143	C	0.490310	0.874437	0.869566
	C144	C	0.377611	0.886683	0.669914
	C145	C	0.620566	0.104805	0.669930
	C146	C	0.624803	0.887505	0.309016
	C147	C	0.378732	0.106474	0.311715
	C148	C	0.677662	0.375393	0.880883
	C149	C	0.679628	0.621021	0.100120
	C150	C	0.315836	0.621550	0.882521
	C151	C	0.316469	0.369863	0.098946
	C152	C	0.892316	0.679489	0.367803
	C153	C	0.108985	0.676780	0.614765
	C154	C	0.891603	0.315670	0.614591
	C155	C	0.103570	0.311119	0.363861
	C156	C	0.890999	0.374952	0.671619
	C157	C	0.108404	0.618965	0.673398
	C158	C	0.891476	0.620690	0.310200
	C159	C	0.103769	0.369521	0.306087
	C160	C	0.374322	0.677878	0.882256
	C161	C	0.619569	0.675489	0.101370
	C162	C	0.618470	0.319940	0.880014
	C163	C	0.375929	0.314518	0.099839
	C164	C	0.683954	0.888048	0.364900
	C165	C	0.681360	0.103454	0.616001
	C166	C	0.317313	0.888360	0.615523
	C167	C	0.318083	0.104684	0.365454
	C168	C	0.878762	0.386908	0.168299
	C169	C	0.120709	0.605869	0.171347
	C170	C	0.119945	0.385957	0.812630
	C171	C	0.880945	0.608499	0.815356
	C172	C	0.183028	0.870977	0.382117
	C173	C	0.180095	0.120486	0.599580
	C174	C	0.816353	0.121352	0.382974
	C175	C	0.820778	0.872451	0.600387
	C176	C	0.394254	0.180684	0.864913
	C177	C	0.607290	0.179029	0.115688
	C178	C	0.393495	0.812403	0.119360
	C179	C	0.604496	0.811604	0.865883
	C180	C	0.393583	0.871421	0.176854
	C181	C	0.607701	0.120349	0.173373
	C182	C	0.393581	0.121660	0.807564
	C183	C	0.604633	0.869661	0.807363
	C184	C	0.873733	0.178500	0.382771
	C185	C	0.120726	0.175785	0.600729
	C186	C	0.124542	0.814654	0.381752
	C187	C	0.881111	0.818236	0.602186
	C188	C	0.180030	0.387170	0.867353
	C189	C	0.180953	0.604326	0.116840
	C190	C	0.819144	0.387911	0.113131
	C191	C	0.820384	0.607292	0.869753
	C192	C	0.401772	0.087209	0.585021
	C193	C	0.597650	0.904031	0.584997
	C194	C	0.597026	0.086280	0.397700
	C195	C	0.404923	0.906299	0.398483
	C196	C	0.597914	0.400705	0.084324
	C197	C	0.595944	0.591119	0.898998
	C198	C	0.402670	0.589076	0.081239
	C199	C	0.402179	0.402054	0.899649
	C200	C	0.087832	0.592259	0.394826
	C201	C	0.910862	0.596418	0.590343
	C202	C	0.087629	0.399578	0.588039
	C203	C	0.910150	0.401142	0.395104
	C204	C	0.900170	0.589129	0.086487
	C205	C	0.094672	0.406239	0.084378
	C206	C	0.095638	0.586888	0.897186
	C207	C	0.898652	0.404458	0.894035
	C208	C	0.098513	0.901070	0.582753
	C209	C	0.094567	0.089657	0.399833
	C210	C	0.902822	0.091500	0.582420
	C211	C	0.905844	0.902265	0.400177
	C212	C	0.589548	0.093582	0.893278
	C213	C	0.411725	0.093009	0.087465
	C214	C	0.587353	0.899516	0.086670
	C215	C	0.410519	0.900918	0.895649
	Zn216	Zn	0.499036	-0.004176	0.738856
	Zn217	Zn	0.500265	-0.002852	0.243522
	Zn218	Zn	0.748440	0.497310	-0.009217
	Zn219	Zn	0.249097	0.495730	-0.008555
	Zn220	Zn	0.001361	0.748347	0.491585
	Zn221	Zn	-0.001467	0.244470	0.490728
	Zn222	Zn	-0.000763	0.496637	0.743297
	Zn223	Zn	-0.001408	0.496879	0.239186
	Zn224	Zn	0.497809	0.743750	-0.008604
	Zn225	Zn	0.500162	0.248462	-0.009071
	Zn226	Zn	0.750663	-0.004515	0.491263
	Zn227	Zn	0.249833	-0.003203	0.489850
	N228	N	0.414471	0.960557	0.667336
	N229	N	0.584227	0.030756	0.667415
	N230	N	0.587224	0.961202	0.312345
	N231	N	0.416542	0.032986	0.315558
	N232	N	0.679655	0.409518	0.957004
	N233	N	0.680034	0.585479	0.024579
	N234	N	0.317293	0.583966	0.956785
	N235	N	0.317050	0.406840	0.024247
	N236	N	0.965633	0.678343	0.403773
	N237	N	0.035539	0.677275	0.578848
	N238	N	0.964850	0.315521	0.578724
	N239	N	0.031449	0.313801	0.402010
	N240	N	0.963856	0.411334	0.670782
	N241	N	0.034726	0.584107	0.673406
	N242	N	0.964355	0.583615	0.310852
	N243	N	0.031787	0.408119	0.308770
	N244	N	0.411638	0.674796	0.956280
	N245	N	0.583172	0.673271	0.026582
	N246	N	0.583835	0.320486	0.955540
	N247	N	0.413217	0.317701	0.025832
	N248	N	0.682656	0.962158	0.402444
	N249	N	0.682432	0.028215	0.580582
	N250	N	0.316779	0.963431	0.579911
	N251	N	0.318601	0.029994	0.402153
	N252	N	0.913930	0.461764	0.167439
	N253	N	0.083321	0.532294	0.167898
	N254	N	0.083259	0.460126	0.814981
	N255	N	0.915018	0.533065	0.815182
	N256	N	0.182386	0.907740	0.457070
	N257	N	0.179583	0.084000	0.524551
	N258	N	0.818411	0.083779	0.457276
	N259	N	0.820606	0.908214	0.524996
	N260	N	0.466926	0.178960	0.902132
	N261	N	0.534380	0.177914	0.078613
	N262	N	0.465351	0.813871	0.080732
	N263	N	0.532365	0.814386	0.903911
	N264	N	0.465886	0.908916	0.173785
	N265	N	0.535167	0.083244	0.171742
	N266	N	0.465894	0.083742	0.809460
	N267	N	0.532558	0.908068	0.809546
	N268	N	0.911164	0.176090	0.456844
	N269	N	0.083579	0.173279	0.526501
	N270	N	0.088044	0.817039	0.456195
	N271	N	0.917990	0.820614	0.527862
	N272	N	0.180349	0.462189	0.903057
	N273	N	0.180390	0.529881	0.079873
	N274	N	0.817558	0.463415	0.078630
	N275	N	0.817566	0.531221	0.902868
	O276	O	-0.060911	0.919348	0.034035
	H277	H	-0.062247	0.924815	0.033900
	H278	H	-0.055807	0.918606	0.039067
	O279	O	0.443296	0.451273	0.510511
	H280	H	0.450407	0.457568	0.522662
	H281	H	0.431177	0.446930	0.510784
	O282	O	0.759576	-0.062745	0.929372
	H283	H	0.758215	-0.043795	0.923391
	H284	H	0.760734	-0.043693	0.936348
	O285	O	0.711636	0.458030	0.581401
	H286	H	0.715549	0.474677	0.593827
	H287	H	0.717476	0.472500	0.583154
	O288	O	0.439771	0.286933	0.684578
	H289	H	0.459840	0.293382	0.682962
	H290	H	0.449832	0.283161	0.694045
	O291	O	0.270057	0.275154	0.514368
	H292	H	0.259784	0.259445	0.533665
	H293	H	0.260372	0.268641	0.537655
	O294	O	1.021139	0.042010	0.945633
	H295	H	1.021652	0.038631	0.973340
	H296	H	1.023992	0.052865	0.965361
	O297	O	0.472005	0.715320	0.275755
	H298	H	0.481537	0.723728	0.287164
	H299	H	0.471827	0.735497	0.265015
	O300	O	-0.176445	-0.186803	1.183204
	H301	H	-0.180014	-0.163949	1.184834
	H302	H	-0.184675	-0.191099	1.159047
	O303	O	0.697284	0.298350	0.690682
	H304	H	0.674793	0.294498	0.684212
	H305	H	0.700867	0.328463	0.671835
	O306	O	0.713981	0.302240	0.494825
	H307	H	0.716152	0.298504	0.497857
	H308	H	0.720874	0.314099	0.480951
	O309	O	0.500748	0.713720	0.581032
	H310	H	0.485547	0.720313	0.584236
	H311	H	0.499486	0.698546	0.589277
	O312	O	0.719092	0.713894	0.520231
	H313	H	0.738504	0.714514	0.511350
	H314	H	0.703414	0.710987	0.520814
	O315	O	0.998822	0.955406	1.042234
	H316	H	0.988018	0.964729	1.051028
	H317	H	1.021808	0.954067	1.055324
	O318	O	0.559799	0.720896	0.414731
	H319	H	0.567849	0.713436	0.411662
	H320	H	0.565957	0.727441	0.442080
	O321	O	0.315600	0.682490	0.676390
	H322	H	0.332086	0.680246	0.680022
	H323	H	0.299204	0.697149	0.678440
	O324	O	0.934761	0.917675	-0.023685
	H325	H	0.943860	0.915609	-0.033090
	H326	H	0.918985	0.916075	-0.017409
	O327	O	-0.025758	0.176810	0.818343
	H328	H	-0.024850	0.203323	0.784709
	H329	H	-0.057016	0.160440	0.829676
	O330	O	0.441446	0.413514	0.274473
	H331	H	0.431882	0.401878	0.282853
	H332	H	0.422054	0.432595	0.275737
	O333	O	0.726884	0.468547	0.285704
	H334	H	0.752420	0.471310	0.252894
	H335	H	0.684245	0.489933	0.285084
	O336	O	0.460406	0.494802	0.682817
	H337	H	0.475720	0.514166	0.681716
	H338	H	0.453108	0.483935	0.682374
	O339	O	1.055825	-0.221893	0.895186
	H340	H	1.059352	-0.232222	0.898206
	H341	H	1.056190	-0.204937	0.901030
	O342	O	-0.226439	-0.216618	0.026312
	H343	H	-0.252049	-0.221851	0.012275
	H344	H	-0.221909	-0.207523	0.021368
	O345	O	0.076153	1.023858	0.770866
	H346	H	0.070398	1.016291	0.796178
	H347	H	0.044387	1.030659	0.764627
	O348	O	0.208467	0.197546	0.199640
	H349	H	0.184389	0.200012	0.187036
	H350	H	0.223704	0.205979	0.202536
	O351	O	0.622386	0.528527	0.379875
	H352	H	0.616348	0.530122	0.380744
	H353	H	0.615820	0.534780	0.384176
	O354	O	0.177162	0.173156	1.011094
	H355	H	0.179583	0.177017	1.014471
	H356	H	0.193287	0.184022	1.013819
	O357	O	0.723661	0.560767	0.447059
	H358	H	0.719126	0.552679	0.449254
	H359	H	0.726491	0.548006	0.432892
	O360	O	0.282298	0.291080	0.695892
	H361	H	0.323598	0.292211	0.694261
	H362	H	0.256940	0.256328	0.731514
	O363	O	-0.028380	-0.207926	0.201649
	H364	H	-0.051657	-0.222356	0.208600
	H365	H	-0.045060	-0.219193	0.204482
	O366	O	0.504236	0.665321	0.710873
	H367	H	0.522414	0.676626	0.721031
	H368	H	0.514336	0.663364	0.712872
	O369	O	0.721123	0.283223	0.271304
	H370	H	0.720595	0.322729	0.280537
	H371	H	0.684046	0.289188	0.284875
	O372	O	0.764645	1.054095	0.050736
	H373	H	0.764937	1.056083	0.079034
	H374	H	0.770380	1.073875	0.047724
	O375	O	0.936818	0.055545	0.221078
	H376	H	0.934742	0.066817	0.220890
	H377	H	0.943708	0.041255	0.222756
	O378	O	0.615511	0.292641	0.460543
	H379	H	0.613216	0.313250	0.449008
	H380	H	0.631754	0.282454	0.466356
	O381	O	0.172800	0.788996	0.776251
	H382	H	0.173974	0.791493	0.803885
	H383	H	0.167735	0.807058	0.764967
	O384	O	0.934625	0.083439	0.787480
	H385	H	0.914690	0.098482	0.799231
	H386	H	0.923058	0.088748	0.793481
	O387	O	1.072483	1.092417	0.103955
	H388	H	1.098211	1.092544	0.105601
	H389	H	1.080956	1.068128	0.095233
	O390	O	0.432172	0.549957	0.359789
	H391	H	0.419287	0.555187	0.367207
	H392	H	0.417140	0.549245	0.358592
	O393	O	0.272010	0.465490	0.709047
	H394	H	0.257869	0.452530	0.732962
	H395	H	0.272526	0.440804	0.715196
	O396	O	0.225469	0.967443	0.778580
	H397	H	0.192947	0.978877	0.768040
	H398	H	0.242524	0.975117	0.753423
	O399	O	0.067430	-0.138667	1.148464
	H400	H	0.069839	-0.151525	1.157105
	H401	H	0.062739	-0.143033	1.158440
	O402	O	0.543163	0.314216	0.570723
	H403	H	0.539080	0.310451	0.543481
	H404	H	0.534935	0.321536	0.584233
	O405	O	0.843246	0.218030	0.957072
	H406	H	0.853988	0.224345	0.978170
	H407	H	0.830489	0.237943	0.959645
	O408	O	0.239152	-0.060021	0.050557
	H409	H	0.236906	-0.057962	0.057691
	H410	H	0.242639	-0.065064	0.052975
	O411	O	0.901697	0.880106	0.787474
	H412	H	0.922873	0.881964	0.792572
	H413	H	0.893342	0.895865	0.790996
	O414	O	0.528813	0.287708	0.291628
	H415	H	0.530775	0.280417	0.288016
	H416	H	0.515155	0.292903	0.296666
	O417	O	0.428789	0.287399	0.451411
	H418	H	0.424156	0.292816	0.448008
	H419	H	0.410416	0.281786	0.451702
	O420	O	0.415698	0.656256	0.489400
	H421	H	0.406205	0.644275	0.491502
	H422	H	0.404345	0.655421	0.500567
	O423	O	-0.099346	0.223015	1.020294
	H424	H	-0.082577	0.234420	1.025807
	H425	H	-0.109921	0.206459	1.043270
	O426	O	0.272795	0.517989	0.269237
	H427	H	0.258266	0.528543	0.271866
	H428	H	0.261284	0.527575	0.251298
	O429	O	0.769589	1.017781	0.767690
	H430	H	0.787301	1.047841	0.780871
	H431	H	0.735062	1.023641	0.731404
	O432	O	0.576127	0.526990	0.548151
	H433	H	0.566024	0.517979	0.548060
	H434	H	0.576045	0.514046	0.548129
	O435	O	0.177891	0.819161	0.179083
	H436	H	0.183854	0.803610	0.188682
	H437	H	0.177128	0.836208	0.157263
	O438	O	-0.210488	-0.037046	0.205252
	H439	H	-0.208675	-0.034500	0.205910
	H440	H	-0.219314	-0.037241	0.221694
	O441	O	0.022902	0.205090	0.211151
	H442	H	0.027703	0.231493	0.236790
	H443	H	0.030434	0.183776	0.199573
	O444	O	0.568720	0.537488	0.273348
	H445	H	0.557378	0.547988	0.286500
	H446	H	0.542948	0.544437	0.273046
	O447	O	0.238952	1.085941	0.949104
	H448	H	0.233258	1.078023	0.947239
	H449	H	0.246225	1.091836	0.946037
	O450	O	0.229467	0.774845	0.973686
	H451	H	0.241357	0.761489	0.964486
	H452	H	0.231304	0.767900	0.970747
	O453	O	0.529940	0.471845	0.704184
	H454	H	0.538943	0.484506	0.710268
	H455	H	0.523656	0.493449	0.706976
	O456	O	0.200495	0.186141	0.802524
	H457	H	0.173517	0.170239	0.818676
	H458	H	0.191141	0.166001	0.825006
	O459	O	0.712963	0.707376	0.280132
	H460	H	0.713182	0.700211	0.280458
	H461	H	0.716540	0.704567	0.280974
	O462	O	0.774270	0.777390	0.768333
	H463	H	0.789989	0.798097	0.760652
	H464	H	0.794382	0.800074	0.796515
	O465	O	0.814628	0.179954	0.168929
	H466	H	0.788943	0.209917	0.197725
	H467	H	0.829561	0.167152	0.173557
	O468	O	0.275017	0.712728	0.458501
	H469	H	0.273379	0.708607	0.466676
	H470	H	0.257811	0.722340	0.461635
	O471	O	0.268557	0.523308	0.537880
	H472	H	0.281744	0.514764	0.566560
	H473	H	0.258678	0.521059	0.544027
	O474	O	0.286529	0.704509	0.280037
	H475	H	0.305883	0.699178	0.299255
	H476	H	0.281816	0.710766	0.286370
	O477	O	0.302801	0.310250	1.305818
	H478	H	0.314722	0.311522	1.321183
	H479	H	0.292180	0.325857	1.315025
	O480	O	0.265524	0.471231	0.439441
	H481	H	0.261362	0.463445	0.445405
	H482	H	0.268330	0.474334	0.458393
	O483	O	0.730272	0.531517	0.715544
	H484	H	0.739181	0.559555	0.727454
	H485	H	0.742376	0.556278	0.734548
	O486	O	1.056197	0.164634	0.946782
	H487	H	1.059276	0.135162	0.940299
	H488	H	1.024434	0.186827	0.928998
	O489	O	1.035290	0.809702	-0.178194
	H490	H	1.037798	0.830785	-0.185209
	H491	H	1.045741	0.795597	-0.184175
	O492	O	0.221658	0.024002	0.209073
	H493	H	0.234832	0.028872	0.229957
	H494	H	0.221618	0.035617	0.213290
	O495	O	0.079820	0.940343	0.986057
	H496	H	0.076304	0.943260	1.001602
	H497	H	0.094241	0.933419	0.994245
	O498	O	0.794017	1.194754	0.785342
	H499	H	0.771762	1.201504	0.773767
	H500	H	0.787626	1.201068	0.817981
	O501	O	0.673097	0.667061	0.655380
	H502	H	0.696140	0.697243	0.675624
	H503	H	0.664846	0.669599	0.639892
