data_Molecule from HDF5

_cell_length_a		16.203978
_cell_length_b		16.109000
_cell_length_c		16.312820
_cell_angle_alpha	90.270834
_cell_angle_beta	89.788278
_cell_angle_gamma	89.697913
_symmetry_space_group_name_H-M	'P 1'
_symmetry_Int_Tables_number		1

loop_
	_symmetry_equiv_pos_as_xyz
	x,y,z

loop_
	_atom_site_label
	_atom_site_type_symbol
	_atom_site_fract_x
	_atom_site_fract_y
	_atom_site_fract_z
	H0	H	0.401118	0.835767	0.714076
	H1	H	0.596801	0.166776	0.712454
	H2	H	0.600955	0.837426	0.282472
	H3	H	0.398239	0.166427	0.287070
	H4	H	0.717196	0.400678	0.835907
	H5	H	0.714904	0.603769	0.161836
	H6	H	0.285713	0.602350	0.835051
	H7	H	0.286655	0.406760	0.162579
	H8	H	0.834826	0.714059	0.403550
	H9	H	0.165778	0.712491	0.594405
	H10	H	0.833518	0.291984	0.595941
	H11	H	0.164594	0.286158	0.400980
	H12	H	0.836789	0.402791	0.715286
	H13	H	0.164523	0.601507	0.713533
	H14	H	0.836261	0.602468	0.284537
	H15	H	0.164605	0.398576	0.282812
	H16	H	0.402664	0.716546	0.835115
	H17	H	0.596660	0.717111	0.163158
	H18	H	0.599257	0.286346	0.835906
	H19	H	0.402526	0.291570	0.163700
	H20	H	0.712714	0.835890	0.400448
	H21	H	0.710785	0.166944	0.597998
	H22	H	0.287136	0.834126	0.597209
	H23	H	0.285547	0.166267	0.403989
	H24	H	0.901494	0.337046	0.211376
	H25	H	0.098552	0.666381	0.213741
	H26	H	0.101873	0.337016	0.783357
	H27	H	0.901646	0.667486	0.785639
	H28	H	0.216442	0.899053	0.335885
	H29	H	0.212579	0.100743	0.662896
	H30	H	0.784027	0.099965	0.335310
	H31	H	0.785314	0.903262	0.663428
	H32	H	0.334500	0.214888	0.903721
	H33	H	0.664921	0.213728	0.095370
	H34	H	0.334873	0.792080	0.096601
	H35	H	0.664388	0.787989	0.901202
	H36	H	0.336100	0.903180	0.214243
	H37	H	0.663363	0.102520	0.215523
	H38	H	0.335759	0.102763	0.785607
	H39	H	0.664173	0.900175	0.783681
	H40	H	0.900085	0.215825	0.335256
	H41	H	0.095015	0.215226	0.663252
	H42	H	0.098052	0.786297	0.334840
	H43	H	0.902867	0.788483	0.663375
	H44	H	0.216057	0.337272	0.898902
	H45	H	0.209220	0.668746	0.095176
	H46	H	0.786108	0.337727	0.097196
	H47	H	0.786837	0.668493	0.901568
	H48	H	0.417488	0.113693	0.588881
	H49	H	0.587835	0.885062	0.588281
	H50	H	0.585415	0.117664	0.407608
	H51	H	0.397915	0.879434	0.403409
	H52	H	0.590146	0.414673	0.113340
	H53	H	0.592059	0.593568	0.883627
	H54	H	0.404359	0.589642	0.112874
	H55	H	0.409726	0.405436	0.881499
	H56	H	0.116662	0.594333	0.410423
	H57	H	0.886487	0.591361	0.584814
	H58	H	0.114805	0.417844	0.592998
	H59	H	0.880706	0.407583	0.398068
	H60	H	0.121498	0.402198	0.597627
	H61	H	0.883043	0.588590	0.601606
	H62	H	0.116940	0.586684	0.402007
	H63	H	0.882978	0.405050	0.409676
	H64	H	0.410715	0.602684	0.115690
	H65	H	0.592352	0.596551	0.881680
	H66	H	0.590791	0.404067	0.117046
	H67	H	0.402549	0.408933	0.881213
	H68	H	0.594034	0.118664	0.412897
	H69	H	0.599055	0.881808	0.589275
	H70	H	0.395240	0.119360	0.583862
	H71	H	0.417037	0.882665	0.398284
	H72	H	0.902372	0.622628	0.092909
	H73	H	0.085984	0.384026	0.093853
	H74	H	0.096738	0.623560	0.899317
	H75	H	0.912118	0.385725	0.905940
	H76	H	0.090440	0.915962	0.612797
	H77	H	0.095303	0.087466	0.383653
	H78	H	0.914235	0.098559	0.612668
	H79	H	0.902991	0.905655	0.380518
	H80	H	0.617191	0.091267	0.903716
	H81	H	0.382524	0.091260	0.098035
	H82	H	0.616734	0.907430	0.084964
	H83	H	0.379624	0.906036	0.899917
	H84	H	0.615944	0.918123	0.093820
	H85	H	0.379666	0.102785	0.098226
	H86	H	0.617857	0.094904	0.904249
	H87	H	0.384173	0.908132	0.912575
	H88	H	0.897888	0.103632	0.619216
	H89	H	0.087570	0.093092	0.384635
	H90	H	0.087445	0.899781	0.616162
	H91	H	0.905057	0.911010	0.382899
	H92	H	0.083397	0.618292	0.904096
	H93	H	0.094636	0.385165	0.083238
	H94	H	0.910318	0.621265	0.097302
	H95	H	0.906275	0.384424	0.908218
	H96	H	0.403734	0.122725	0.605688
	H97	H	0.591641	0.880919	0.598318
	H98	H	0.593975	0.122137	0.403166
	H99	H	0.410199	0.887027	0.417215
	H100	H	0.600694	0.410450	0.117164
	H101	H	0.595888	0.593683	0.882133
	H102	H	0.395754	0.601026	0.119447
	H103	H	0.409273	0.412676	0.884193
	H104	H	0.120697	0.597754	0.400206
	H105	H	0.879902	0.604170	0.594098
	H106	H	0.115516	0.404508	0.581757
	H107	H	0.885469	0.416986	0.405814
	H108	H	0.908634	0.618279	0.087928
	H109	H	0.099404	0.380683	0.095874
	H110	H	0.095546	0.618338	0.913740
	H111	H	0.907861	0.382660	0.902625
	H112	H	0.102735	0.905990	0.618622
	H113	H	0.095841	0.096978	0.380422
	H114	H	0.900300	0.085608	0.614181
	H115	H	0.908914	0.906150	0.382945
	H116	H	0.616363	0.092749	0.907681
	H117	H	0.383297	0.097427	0.088073
	H118	H	0.619938	0.905826	0.097625
	H119	H	0.383585	0.917876	0.903433
	C120	C	0.377209	0.009248	0.621694
	C121	C	0.620653	0.992208	0.620578
	C122	C	0.620532	0.010201	0.378421
	C123	C	0.378898	0.992430	0.378865
	C124	C	0.622509	0.380141	0.007516
	C125	C	0.621349	0.624596	0.990587
	C126	C	0.376362	0.626220	0.007498
	C127	C	0.378625	0.381374	0.990794
	C128	C	0.008842	0.622158	0.377143
	C129	C	0.991919	0.623170	0.620934
	C130	C	0.008465	0.380149	0.620274
	C131	C	0.991831	0.379696	0.376338
	C132	C	0.878666	0.511557	0.120812
	C133	C	0.120873	0.493134	0.119298
	C134	C	0.121856	0.510863	0.876836
	C135	C	0.879792	0.493826	0.877724
	C136	C	0.121843	0.878531	0.507457
	C137	C	0.120627	0.122119	0.491068
	C138	C	0.876283	0.123738	0.507142
	C139	C	0.877814	0.879571	0.490660
	C140	C	0.508507	0.122897	0.877737
	C141	C	0.490737	0.125219	0.122756
	C142	C	0.508432	0.882431	0.120174
	C143	C	0.491178	0.880744	0.877067
	C144	C	0.380358	0.884984	0.676441
	C145	C	0.617213	0.117268	0.675165
	C146	C	0.620048	0.886275	0.321524
	C147	C	0.379695	0.117105	0.324977
	C148	C	0.678297	0.381569	0.884516
	C149	C	0.676522	0.623313	0.113482
	C150	C	0.323156	0.622653	0.884124
	C151	C	0.323688	0.385119	0.113745
	C152	C	0.884288	0.676812	0.381689
	C153	C	0.116180	0.676515	0.616325
	C154	C	0.883670	0.327626	0.617201
	C155	C	0.115432	0.323592	0.379615
	C156	C	0.885106	0.382594	0.676556
	C157	C	0.115637	0.621058	0.675319
	C158	C	0.885194	0.621426	0.322522
	C159	C	0.115454	0.379775	0.321012
	C160	C	0.381517	0.679648	0.884043
	C161	C	0.617587	0.679564	0.114100
	C162	C	0.620111	0.324207	0.884629
	C163	C	0.381846	0.328426	0.114383
	C164	C	0.675691	0.885493	0.380061
	C165	C	0.674287	0.117151	0.618427
	C166	C	0.323694	0.884141	0.618247
	C167	C	0.323072	0.116892	0.382811
	C168	C	0.880770	0.386843	0.174836
	C169	C	0.118083	0.617613	0.174930
	C170	C	0.121187	0.386289	0.821444
	C171	C	0.881303	0.618329	0.822978
	C172	C	0.177598	0.879851	0.384377
	C173	C	0.175272	0.120899	0.613956
	C174	C	0.821597	0.120721	0.384192
	C175	C	0.823251	0.882689	0.614272
	C176	C	0.384122	0.177738	0.882233
	C177	C	0.615105	0.178172	0.117935
	C178	C	0.384247	0.828733	0.117416
	C179	C	0.615305	0.825073	0.879984
	C180	C	0.384915	0.883813	0.176129
	C181	C	0.614179	0.123039	0.177699
	C182	C	0.384808	0.121934	0.823154
	C183	C	0.615073	0.880797	0.821649
	C184	C	0.879605	0.177940	0.383873
	C185	C	0.116692	0.177893	0.614060
	C186	C	0.118800	0.823829	0.383875
	C187	C	0.881877	0.825797	0.614409
	C188	C	0.178035	0.386413	0.878662
	C189	C	0.173402	0.618690	0.116201
	C190	C	0.823882	0.387026	0.117515
	C191	C	0.824469	0.618861	0.880907
	C192	C	0.399009	0.096218	0.599589
	C193	C	0.599054	0.905109	0.598645
	C194	C	0.597793	0.096980	0.401094
	C195	C	0.401810	0.905535	0.399900
	C196	C	0.600378	0.402867	0.093531
	C197	C	0.599713	0.601584	0.904661
	C198	C	0.397431	0.604354	0.093825
	C199	C	0.400679	0.402713	0.904614
	C200	C	0.095635	0.599610	0.398110
	C201	C	0.905405	0.601325	0.599781
	C202	C	0.094824	0.401889	0.597562
	C203	C	0.905206	0.403103	0.398169
	C204	C	0.900731	0.598252	0.099272
	C205	C	0.099683	0.405950	0.097363
	C206	C	0.098619	0.597546	0.899052
	C207	C	0.902171	0.407018	0.899196
	C208	C	0.099957	0.900711	0.593519
	C209	C	0.099222	0.099379	0.405121
	C210	C	0.897752	0.102296	0.593109
	C211	C	0.899362	0.901082	0.404554
	C212	C	0.594984	0.099854	0.898961
	C213	C	0.404019	0.103530	0.101392
	C214	C	0.594969	0.904031	0.098468
	C215	C	0.404911	0.903780	0.898976
	Zn216	Zn	0.500187	0.001304	0.748724
	Zn217	Zn	0.499747	0.002018	0.250099
	Zn218	Zn	0.751089	0.503027	-0.001031
	Zn219	Zn	0.248906	0.502561	-0.001537
	Zn220	Zn	0.000247	0.750322	0.498694
	Zn221	Zn	-0.001083	0.251944	0.498509
	Zn222	Zn	0.000793	0.501492	0.748841
	Zn223	Zn	0.000483	0.501423	0.247926
	Zn224	Zn	0.499757	0.753897	-0.000432
	Zn225	Zn	0.499748	0.251727	-0.000509
	Zn226	Zn	0.748068	0.001327	0.499455
	Zn227	Zn	0.249928	0.000064	0.499394
	N228	N	0.412862	0.963685	0.678538
	N229	N	0.584394	0.038523	0.676450
	N230	N	0.586371	0.964763	0.320417
	N231	N	0.413710	0.038602	0.322432
	N232	N	0.680121	0.415698	0.962056
	N233	N	0.678776	0.589653	0.035887
	N234	N	0.319805	0.590343	0.961998
	N235	N	0.321708	0.417474	0.035869
	N236	N	0.962227	0.677421	0.415004
	N237	N	0.038221	0.677979	0.583355
	N238	N	0.961354	0.325897	0.582931
	N239	N	0.037468	0.323449	0.413353
	N240	N	0.963655	0.414418	0.678635
	N241	N	0.037284	0.588455	0.678247
	N242	N	0.963639	0.588079	0.319644
	N243	N	0.037458	0.414202	0.319104
	N244	N	0.413733	0.682194	0.961860
	N245	N	0.583992	0.680418	0.036667
	N246	N	0.586052	0.323446	0.961943
	N247	N	0.415275	0.326081	0.036730
	N248	N	0.675979	0.963561	0.414842
	N249	N	0.676347	0.038632	0.584947
	N250	N	0.321415	0.962573	0.585001
	N251	N	0.322585	0.038436	0.415554
	N252	N	0.914211	0.465152	0.177007
	N253	N	0.086250	0.538641	0.176983
	N254	N	0.087045	0.464757	0.820106
	N255	N	0.915038	0.539713	0.820968
	N256	N	0.179556	0.913104	0.462323
	N257	N	0.177603	0.086772	0.536585
	N258	N	0.819425	0.087765	0.461877
	N259	N	0.820724	0.915384	0.536505
	N260	N	0.462106	0.178363	0.915515
	N261	N	0.537357	0.179469	0.084435
	N262	N	0.462151	0.827554	0.083351
	N263	N	0.537349	0.824739	0.913893
	N264	N	0.463036	0.916785	0.177707
	N265	N	0.535665	0.090776	0.180733
	N266	N	0.463027	0.088275	0.820439
	N267	N	0.537006	0.914776	0.819905
	N268	N	0.912738	0.180141	0.461343
	N269	N	0.083123	0.178467	0.536633
	N270	N	0.085008	0.822578	0.461374
	N271	N	0.915024	0.823497	0.536539
	N272	N	0.178777	0.464944	0.912269
	N273	N	0.175064	0.540329	0.082108
	N274	N	0.822236	0.465626	0.084832
	N275	N	0.823285	0.540494	0.913998
	O276	O	1.050541	1.048676	-0.033945
	H277	H	1.047269	1.040003	-0.036337
	H278	H	1.056300	1.041832	-0.043177
	O279	O	0.076859	-0.035084	-0.054632
	H280	H	0.081676	-0.030297	-0.071422
	H281	H	0.076693	-0.044412	-0.062433
	O282	O	0.027132	-0.022996	0.928999
	H283	H	0.032559	-0.016339	0.938019
	H284	H	0.030894	-0.020136	0.931123
	O285	O	0.539605	0.516750	0.525029
	H286	H	0.534054	0.516217	0.530128
	H287	H	0.540885	0.517464	0.521906
	O288	O	0.490745	0.447741	0.516335
	H289	H	0.491705	0.451330	0.509501
	H290	H	0.496002	0.447648	0.515653
	O291	O	0.592159	0.426131	0.497472
	H292	H	0.593598	0.436402	0.491683
	H293	H	0.602076	0.414076	0.501738
	O294	O	-0.498177	-0.494251	0.482258
	H295	H	-0.500345	-0.504346	0.472104
	H296	H	-0.509636	-0.496271	0.488743
	O297	O	0.517781	0.453053	0.447454
	H298	H	0.521366	0.429547	0.439877
	H299	H	0.514570	0.451144	0.452548
	O300	O	0.037730	0.950795	0.984216
	H301	H	0.031137	0.954083	0.982042
	H302	H	0.040930	0.943455	0.975428
	O303	O	0.584648	0.458157	0.504023
	H304	H	0.586905	0.457761	0.510772
	H305	H	0.583656	0.454241	0.496579
	O306	O	-0.009138	-0.038768	0.904241
	H307	H	-0.018026	-0.042093	0.894862
	H308	H	-0.006497	-0.039429	0.906980
	O309	O	1.008016	1.046794	0.925359
	H310	H	1.007281	1.041772	0.926615
	H311	H	1.011600	1.051854	0.924803
	O312	O	0.597666	0.544833	0.477509
	H313	H	0.591819	0.558614	0.480149
	H314	H	0.587955	0.543005	0.467305
	O315	O	0.623850	0.524359	0.543413
	H316	H	0.633404	0.532962	0.549503
	H317	H	0.637361	0.534167	0.547384
	O318	O	-0.014711	1.003333	-0.020402
	H319	H	-0.015776	1.016128	-0.018391
	H320	H	-0.023113	1.001244	-0.020793
	O321	O	1.069259	1.033310	-0.036408
	H322	H	1.072735	1.033318	-0.028427
	H323	H	1.078145	1.032976	-0.043104
