data_Molecule from HDF5

_cell_length_a		15.946834
_cell_length_b		16.490312
_cell_length_c		16.096888
_cell_angle_alpha	90.254569
_cell_angle_beta	89.311467
_cell_angle_gamma	89.769420
_symmetry_space_group_name_H-M	'P 1'
_symmetry_Int_Tables_number		1

loop_
	_symmetry_equiv_pos_as_xyz
	x,y,z

loop_
	_atom_site_label
	_atom_site_type_symbol
	_atom_site_fract_x
	_atom_site_fract_y
	_atom_site_fract_z
	H0	H	0.399623	0.838634	0.716956
	H1	H	0.597002	0.162840	0.713316
	H2	H	0.605501	0.839378	0.278427
	H3	H	0.404051	0.164500	0.287345
	H4	H	0.710879	0.405573	0.832755
	H5	H	0.706074	0.595353	0.166427
	H6	H	0.292168	0.595150	0.831939
	H7	H	0.287971	0.409601	0.166250
	H8	H	0.836035	0.716120	0.398759
	H9	H	0.165716	0.715087	0.602077
	H10	H	0.835135	0.284027	0.604239
	H11	H	0.165307	0.281081	0.391975
	H12	H	0.834065	0.404325	0.712766
	H13	H	0.169415	0.593571	0.706486
	H14	H	0.831219	0.595423	0.293912
	H15	H	0.165492	0.400925	0.281637
	H16	H	0.398468	0.716986	0.835273
	H17	H	0.603015	0.720894	0.161435
	H18	H	0.605128	0.281514	0.836115
	H19	H	0.392894	0.285125	0.163810
	H20	H	0.716414	0.837213	0.399718
	H21	H	0.714428	0.163093	0.595168
	H22	H	0.286673	0.836159	0.597216
	H23	H	0.283232	0.161506	0.401298
	H24	H	0.896578	0.338294	0.216676
	H25	H	0.096138	0.662090	0.217330
	H26	H	0.102842	0.338397	0.781544
	H27	H	0.902392	0.662628	0.784447
	H28	H	0.215765	0.900687	0.332460
	H29	H	0.205578	0.091068	0.666803
	H30	H	0.794041	0.092711	0.331279
	H31	H	0.786927	0.904857	0.664862
	H32	H	0.334153	0.216955	0.900224
	H33	H	0.665110	0.217145	0.100385
	H34	H	0.334516	0.787280	0.103283
	H35	H	0.664700	0.783305	0.891769
	H36	H	0.333669	0.906347	0.213935
	H37	H	0.669686	0.095982	0.204576
	H38	H	0.331884	0.097598	0.791220
	H39	H	0.666540	0.906013	0.784899
	H40	H	0.896071	0.217544	0.336530
	H41	H	0.103466	0.217721	0.661483
	H42	H	0.108536	0.777822	0.335020
	H43	H	0.896281	0.782810	0.663288
	H44	H	0.216140	0.338300	0.900798
	H45	H	0.212127	0.664124	0.096954
	H46	H	0.783990	0.337631	0.096050
	H47	H	0.786371	0.663925	0.903724
	H48	H	0.413722	0.113243	0.596327
	H49	H	0.599574	0.883799	0.590521
	H50	H	0.597438	0.119132	0.391379
	H51	H	0.403619	0.882748	0.401528
	H52	H	0.580261	0.406806	0.115187
	H53	H	0.585163	0.609399	0.878003
	H54	H	0.408417	0.601282	0.118644
	H55	H	0.412621	0.402945	0.881438
	H56	H	0.116135	0.578375	0.407633
	H57	H	0.880212	0.593979	0.596526
	H58	H	0.120032	0.396531	0.578994
	H59	H	0.882941	0.419973	0.406336
	H60	H	0.117541	0.413658	0.585990
	H61	H	0.881111	0.596307	0.589157
	H62	H	0.124241	0.593751	0.398292
	H63	H	0.874550	0.395289	0.400881
	H64	H	0.401892	0.596726	0.119460
	H65	H	0.608171	0.590816	0.876353
	H66	H	0.591563	0.398774	0.121737
	H67	H	0.408630	0.405696	0.880540
	H68	H	0.589314	0.112852	0.406920
	H69	H	0.592807	0.883510	0.597574
	H70	H	0.399388	0.114010	0.585192
	H71	H	0.419124	0.887257	0.399724
	H72	H	0.901629	0.617889	0.101125
	H73	H	0.092906	0.385682	0.092760
	H74	H	0.097288	0.614279	0.911239
	H75	H	0.906427	0.384682	0.906419
	H76	H	0.087289	0.909664	0.613685
	H77	H	0.089622	0.104639	0.377067
	H78	H	0.909863	0.087416	0.615012
	H79	H	0.915632	0.899231	0.380386
	H80	H	0.619133	0.089176	0.902907
	H81	H	0.380173	0.095180	0.092440
	H82	H	0.620215	0.901389	0.083152
	H83	H	0.376319	0.900805	0.904727
	H84	H	0.617332	0.913065	0.082955
	H85	H	0.381546	0.095106	0.093355
	H86	H	0.620621	0.098016	0.905671
	H87	H	0.381816	0.906118	0.916895
	H88	H	0.912948	0.098862	0.617762
	H89	H	0.104235	0.084706	0.377791
	H90	H	0.085169	0.896312	0.617659
	H91	H	0.908242	0.901372	0.378813
	H92	H	0.100214	0.619774	0.896637
	H93	H	0.090524	0.386579	0.090212
	H94	H	0.907037	0.614103	0.095955
	H95	H	0.905268	0.384142	0.902400
	H96	H	0.398161	0.118551	0.602510
	H97	H	0.590553	0.886226	0.589690
	H98	H	0.606212	0.117454	0.407152
	H99	H	0.411745	0.887669	0.413247
	H100	H	0.593140	0.412997	0.117923
	H101	H	0.581100	0.582691	0.887485
	H102	H	0.408441	0.594144	0.115701
	H103	H	0.412591	0.407486	0.881220
	H104	H	0.118951	0.595158	0.416749
	H105	H	0.882628	0.589018	0.590648
	H106	H	0.124532	0.401202	0.597201
	H107	H	0.884191	0.401112	0.425754
	H108	H	0.900140	0.616522	0.093739
	H109	H	0.093540	0.385853	0.089052
	H110	H	0.086801	0.614281	0.899748
	H111	H	0.908997	0.385305	0.903766
	H112	H	0.098743	0.902696	0.619046
	H113	H	0.079647	0.083692	0.385985
	H114	H	0.900942	0.094324	0.620322
	H115	H	0.913530	0.906125	0.382882
	H116	H	0.617344	0.092733	0.912423
	H117	H	0.379733	0.094694	0.094179
	H118	H	0.621513	0.908729	0.092950
	H119	H	0.381530	0.913574	0.905721
	C120	C	0.375980	0.007922	0.622656
	C121	C	0.622191	0.992041	0.620544
	C122	C	0.626151	0.009108	0.373567
	C123	C	0.380785	0.992709	0.376970
	C124	C	0.620123	0.378037	0.009012
	C125	C	0.620022	0.622795	0.990023
	C126	C	0.378158	0.623836	0.008366
	C127	C	0.379385	0.378736	0.990474
	C128	C	0.009361	0.618648	0.379920
	C129	C	0.991746	0.620625	0.620158
	C130	C	0.010309	0.377201	0.619015
	C131	C	0.990359	0.376580	0.378161
	C132	C	0.874569	0.508531	0.123909
	C133	C	0.120412	0.492965	0.120611
	C134	C	0.124290	0.509075	0.874752
	C135	C	0.878351	0.492223	0.876584
	C136	C	0.122317	0.874663	0.507329
	C137	C	0.119933	0.118944	0.489855
	C138	C	0.879335	0.120987	0.508134
	C139	C	0.880636	0.875810	0.489904
	C140	C	0.508807	0.121975	0.879015
	C141	C	0.491144	0.122782	0.120797
	C142	C	0.509811	0.880203	0.118681
	C143	C	0.490212	0.878996	0.877792
	C144	C	0.379109	0.886603	0.678353
	C145	C	0.617973	0.114435	0.675177
	C146	C	0.624739	0.887379	0.317388
	C147	C	0.383005	0.115209	0.323836
	C148	C	0.675504	0.382799	0.883437
	C149	C	0.671710	0.617877	0.115796
	C150	C	0.326703	0.617832	0.882556
	C151	C	0.323849	0.385682	0.115923
	C152	C	0.884971	0.676805	0.380442
	C153	C	0.116703	0.676004	0.619548
	C154	C	0.884844	0.322351	0.621544
	C155	C	0.115483	0.319941	0.374490
	C156	C	0.884150	0.382452	0.675464
	C157	C	0.118489	0.615859	0.671854
	C158	C	0.882479	0.616796	0.328284
	C159	C	0.115686	0.379630	0.319729
	C160	C	0.379758	0.678441	0.884136
	C161	C	0.620269	0.680261	0.113320
	C162	C	0.622556	0.321232	0.884917
	C163	C	0.376083	0.323816	0.114644
	C164	C	0.679873	0.886166	0.377809
	C165	C	0.676034	0.114583	0.616194
	C166	C	0.322971	0.885365	0.618764
	C167	C	0.322780	0.113837	0.380841
	C168	C	0.876492	0.386835	0.178801
	C169	C	0.117129	0.614188	0.177918
	C170	C	0.122626	0.386950	0.819767
	C171	C	0.881581	0.614366	0.822387
	C172	C	0.178941	0.878706	0.382531
	C173	C	0.171985	0.114241	0.615808
	C174	C	0.828064	0.115384	0.381921
	C175	C	0.824035	0.881753	0.614916
	C176	C	0.383497	0.178138	0.880909
	C177	C	0.616103	0.178594	0.118879
	C178	C	0.384295	0.825553	0.121086
	C179	C	0.615303	0.822845	0.875034
	C180	C	0.383900	0.884758	0.176144
	C181	C	0.618370	0.118240	0.170817
	C182	C	0.382581	0.118957	0.826538
	C183	C	0.616521	0.883509	0.821859
	C184	C	0.878864	0.177706	0.384708
	C185	C	0.120459	0.176653	0.613425
	C186	C	0.125303	0.817807	0.383718
	C187	C	0.878610	0.821441	0.614142
	C188	C	0.179473	0.386977	0.878718
	C189	C	0.174799	0.615226	0.118168
	C190	C	0.820518	0.386361	0.118511
	C191	C	0.823635	0.614927	0.881632
	C192	C	0.397414	0.093212	0.601116
	C193	C	0.600709	0.906740	0.598947
	C194	C	0.604114	0.094320	0.395465
	C195	C	0.404560	0.907717	0.398578
	C196	C	0.595339	0.399834	0.095767
	C197	C	0.597806	0.601048	0.903103
	C198	C	0.399713	0.603559	0.095585
	C199	C	0.404127	0.399140	0.903641
	C200	C	0.097072	0.595726	0.401282
	C201	C	0.903994	0.599478	0.598442
	C202	C	0.097944	0.397770	0.594574
	C203	C	0.903182	0.398927	0.403609
	C204	C	0.896453	0.593847	0.103071
	C205	C	0.098671	0.407893	0.097528
	C206	C	0.101527	0.594294	0.896216
	C207	C	0.900289	0.406873	0.897897
	C208	C	0.097583	0.896387	0.594370
	C209	C	0.097730	0.097307	0.402880
	C210	C	0.901420	0.099771	0.595090
	C211	C	0.905013	0.896204	0.403043
	C212	C	0.596445	0.099861	0.900489
	C213	C	0.403156	0.101385	0.099737
	C214	C	0.597203	0.901495	0.093687
	C215	C	0.402609	0.900465	0.902149
	Zn216	Zn	0.498991	0.000823	0.751569
	Zn217	Zn	0.502606	0.001690	0.245553
	Zn218	Zn	0.746656	0.500612	0.000099
	Zn219	Zn	0.252549	0.501242	-0.001434
	Zn220	Zn	0.001252	0.746367	0.498933
	Zn221	Zn	0.000034	0.248261	0.498952
	Zn222	Zn	0.001875	0.499835	0.745391
	Zn223	Zn	-0.002166	0.499938	0.252567
	Zn224	Zn	0.499598	0.751537	-0.001458
	Zn225	Zn	0.499337	0.249540	0.000379
	Zn226	Zn	0.753570	-0.000584	0.497827
	Zn227	Zn	0.248007	-0.001381	0.499040
	N228	N	0.411139	0.964113	0.681166
	N229	N	0.585143	0.037346	0.677897
	N230	N	0.592207	0.964792	0.314520
	N231	N	0.418219	0.038748	0.321272
	N232	N	0.674080	0.417499	0.961552
	N233	N	0.671811	0.582852	0.037925
	N234	N	0.325555	0.584514	0.960787
	N235	N	0.325691	0.419197	0.037791
	N236	N	0.964915	0.678078	0.411805
	N237	N	0.036893	0.679093	0.588046
	N238	N	0.964207	0.319189	0.587038
	N239	N	0.036514	0.317889	0.410148
	N240	N	0.963080	0.415897	0.674253
	N241	N	0.039794	0.582008	0.672359
	N242	N	0.960703	0.581140	0.327871
	N243	N	0.036884	0.414062	0.321792
	N244	N	0.410819	0.682585	0.963555
	N245	N	0.588860	0.683442	0.034126
	N246	N	0.589157	0.317955	0.964088
	N247	N	0.410146	0.319670	0.035668
	N248	N	0.681379	0.962859	0.411852
	N249	N	0.678855	0.037466	0.583051
	N250	N	0.320923	0.961710	0.584795
	N251	N	0.321418	0.036616	0.413155
	N252	N	0.909310	0.463926	0.182403
	N253	N	0.084112	0.537122	0.179559
	N254	N	0.089358	0.464046	0.816723
	N255	N	0.914690	0.536998	0.818777
	N256	N	0.177156	0.913307	0.460513
	N257	N	0.171697	0.078813	0.537950
	N258	N	0.828010	0.080839	0.459702
	N259	N	0.825139	0.914850	0.536693
	N260	N	0.463136	0.180161	0.912798
	N261	N	0.535769	0.181627	0.088429
	N262	N	0.463516	0.822514	0.086058
	N263	N	0.535556	0.819945	0.909061
	N264	N	0.463075	0.917921	0.174866
	N265	N	0.539675	0.084156	0.171923
	N266	N	0.461373	0.084591	0.825249
	N267	N	0.537845	0.917794	0.823503
	N268	N	0.909848	0.181419	0.464095
	N269	N	0.089159	0.179801	0.534184
	N270	N	0.090876	0.815165	0.462600
	N271	N	0.912928	0.817425	0.535229
	N272	N	0.180553	0.463883	0.912208
	N273	N	0.176721	0.538833	0.083249
	N274	N	0.819169	0.463001	0.085324
	N275	N	0.821116	0.537992	0.914352
	O276	O	0.610405	0.473902	0.593980
	H277	H	0.613752	0.477105	0.591421
	H278	H	0.618645	0.475531	0.600781
	O279	O	0.445843	0.475232	0.532494
	H280	H	0.444520	0.477050	0.540633
	H281	H	0.463289	0.469263	0.527315
	O282	O	0.979361	0.993758	-0.006591
	H283	H	0.979357	0.987585	-0.001675
	H284	H	0.986077	0.989264	-0.003991
	O285	O	0.954975	0.052030	1.046116
	H286	H	0.960726	0.058512	1.046333
	H287	H	0.955369	0.046746	1.045685
	O288	O	0.483897	0.520985	0.481398
	H289	H	0.483482	0.515711	0.479495
	H290	H	0.488205	0.531011	0.480979
	O291	O	0.546687	0.411433	0.545637
	H292	H	0.551160	0.402202	0.548560
	H293	H	0.538638	0.409436	0.553583
	O294	O	0.503771	0.448588	0.554764
	H295	H	0.495209	0.440939	0.556228
	H296	H	0.497219	0.452489	0.545660
	O297	O	-0.009835	0.172210	0.923324
	H298	H	-0.023104	0.170339	0.908640
	H299	H	-0.021831	0.176536	0.922150
	O300	O	0.512690	0.538131	0.494165
	H301	H	0.508282	0.534675	0.484820
	H302	H	0.505070	0.529968	0.488019
	O303	O	0.996992	1.010394	-0.076144
	H304	H	0.992537	1.020791	-0.074731
	H305	H	0.990815	1.020199	-0.076127
	O306	O	-0.626048	1.620454	0.423484
	H307	H	-0.626049	1.625288	0.417393
	H308	H	-0.621930	1.619681	0.413307
	O309	O	0.491011	0.547873	0.343533
	H310	H	0.485020	0.541622	0.334938
	H311	H	0.512446	0.535973	0.354380
	O312	O	-0.166081	0.007235	-0.066577
	H313	H	-0.180340	0.019753	-0.062753
	H314	H	-0.176737	-0.012190	-0.061526
	O315	O	0.950630	-0.011897	0.112194
	H316	H	0.958480	-0.001308	0.113757
	H317	H	0.965231	-0.015758	0.111374
	O318	O	1.029835	1.010276	1.041855
	H319	H	1.034759	1.010843	1.044042
	H320	H	1.039306	1.022782	1.045310
	O321	O	0.113120	0.012157	1.141488
	H322	H	0.116751	0.017413	1.147986
	H323	H	0.114545	0.018796	1.130357
	O324	O	0.470861	0.429739	0.447917
	H325	H	0.461357	0.427445	0.444807
	H326	H	0.474473	0.431121	0.446526
	O327	O	0.040563	0.026756	-0.054431
	H328	H	0.053982	0.030118	-0.055463
	H329	H	0.034338	0.019053	-0.061720
	O330	O	0.419058	0.590657	0.430756
	H331	H	0.421573	0.591644	0.426752
	H332	H	0.416294	0.594684	0.429619
	O333	O	-0.060945	1.028715	0.996786
	H334	H	-0.057588	1.018292	1.003185
	H335	H	-0.051374	1.018478	0.990001
	O336	O	0.086835	0.047362	0.102589
	H337	H	0.090822	0.041820	0.095430
	H338	H	0.091511	0.058123	0.115063
	O339	O	0.514395	0.615346	0.513039
	H340	H	0.513031	0.620308	0.505495
	H341	H	0.529727	0.620584	0.510430
	O342	O	1.066737	0.869249	0.863739
	H343	H	1.060331	0.872544	0.867163
	H344	H	1.079104	0.868971	0.852109
	O345	O	0.951117	0.886117	-0.031367
	H346	H	0.950375	0.881660	-0.035485
	H347	H	0.947289	0.882585	-0.029883
	O348	O	0.616241	0.488803	0.480242
	H349	H	0.623426	0.495037	0.489092
	H350	H	0.613881	0.495387	0.483430
	O351	O	0.583509	0.515101	0.541502
	H352	H	0.580400	0.504742	0.533083
	H353	H	0.578723	0.531782	0.547096
	O354	O	0.444164	0.475706	0.496255
	H355	H	0.446558	0.467534	0.498093
	H356	H	0.446560	0.486929	0.495392
	O357	O	1.128613	-0.144221	0.957194
	H358	H	1.118574	-0.135811	0.961317
	H359	H	1.132215	-0.153472	0.954506
	O360	O	0.547820	0.560920	0.493237
	H361	H	0.537994	0.576083	0.501908
	H362	H	0.550323	0.568599	0.487750
	O363	O	1.023609	0.089202	1.118270
	H364	H	1.036542	0.093358	1.109855
	H365	H	1.017104	0.082059	1.119348
	O366	O	0.950732	0.910998	1.051832
	H367	H	0.951539	0.914981	1.045810
	H368	H	0.951570	0.910233	1.052301
	O369	O	1.010015	-0.044765	1.034483
	H370	H	1.006026	-0.053223	1.027386
	H371	H	0.997677	-0.055436	1.039224
	O372	O	-0.041806	-0.015030	-0.032432
	H373	H	-0.050179	-0.004925	-0.029873
	H374	H	-0.029865	-0.017671	-0.028877
	O375	O	0.997709	0.132078	-0.042529
	H376	H	0.990181	0.128706	-0.039985
	H377	H	0.997900	0.131823	-0.044440
	O378	O	0.564402	0.498692	0.531173
	H379	H	0.558196	0.501319	0.531290
	H380	H	0.574181	0.503392	0.540393
	O381	O	0.443604	0.398086	0.587477
	H382	H	0.435040	0.391263	0.594139
	H383	H	0.439583	0.390326	0.591254
