data_Molecule from HDF5

_cell_length_a		16.585138
_cell_length_b		16.585512
_cell_length_c		16.532767
_cell_angle_alpha	90.021633
_cell_angle_beta	90.052158
_cell_angle_gamma	90.005926
_symmetry_space_group_name_H-M	'P 1'
_symmetry_Int_Tables_number		1

loop_
	_symmetry_equiv_pos_as_xyz
	x,y,z

loop_
	_atom_site_label
	_atom_site_type_symbol
	_atom_site_fract_x
	_atom_site_fract_y
	_atom_site_fract_z
	H0	H	0.380994	0.842186	0.703586
	H1	H	0.595195	0.153662	0.703691
	H2	H	0.593108	0.841830	0.259048
	H3	H	0.381892	0.153602	0.257091
	H4	H	0.712629	0.390002	0.825226
	H5	H	0.708192	0.602692	0.136690
	H6	H	0.262816	0.608343	0.824069
	H7	H	0.265868	0.393188	0.135931
	H8	H	0.831135	0.718182	0.377762
	H9	H	0.145821	0.721879	0.587592
	H10	H	0.833168	0.279481	0.582221
	H11	H	0.145535	0.279199	0.373541
	H12	H	0.833066	0.396076	0.698782
	H13	H	0.145383	0.605991	0.703182
	H14	H	0.832120	0.603195	0.259444
	H15	H	0.145810	0.397170	0.258693
	H16	H	0.379553	0.723138	0.823925
	H17	H	0.591677	0.719202	0.136079
	H18	H	0.594641	0.275877	0.823573
	H19	H	0.381315	0.275986	0.135896
	H20	H	0.709524	0.841665	0.375551
	H21	H	0.710859	0.154611	0.586915
	H22	H	0.264020	0.843211	0.588774
	H23	H	0.263595	0.152188	0.371485
	H24	H	0.883512	0.344337	0.202114
	H25	H	0.091932	0.656449	0.198814
	H26	H	0.096440	0.343512	0.755994
	H27	H	0.881182	0.655377	0.756819
	H28	H	0.210325	0.893725	0.323903
	H29	H	0.212154	0.105950	0.636060
	H30	H	0.769498	0.102698	0.321981
	H31	H	0.767948	0.894314	0.636709
	H32	H	0.332096	0.220503	0.874009
	H33	H	0.643787	0.220506	0.084993
	H34	H	0.334499	0.773671	0.089012
	H35	H	0.644145	0.777130	0.874496
	H36	H	0.334566	0.892043	0.204416
	H37	H	0.644743	0.104191	0.200632
	H38	H	0.331670	0.103353	0.757707
	H39	H	0.644190	0.893077	0.758463
	H40	H	0.886974	0.218285	0.321455
	H41	H	0.097558	0.223610	0.635079
	H42	H	0.093894	0.777948	0.323673
	H43	H	0.882916	0.776881	0.636217
	H44	H	0.213901	0.344875	0.870611
	H45	H	0.211377	0.654706	0.086205
	H46	H	0.767559	0.342659	0.085346
	H47	H	0.764281	0.653578	0.872610
	H48	H	0.400634	0.110931	0.571321
	H49	H	0.573846	0.887800	0.569427
	H50	H	0.582641	0.112180	0.390967
	H51	H	0.402612	0.890145	0.399691
	H52	H	0.582700	0.405039	0.096046
	H53	H	0.578502	0.587387	0.866832
	H54	H	0.400176	0.582525	0.088479
	H55	H	0.399082	0.413042	0.868628
	H56	H	0.100336	0.591067	0.393696
	H57	H	0.874429	0.587963	0.578022
	H58	H	0.097783	0.413818	0.559412
	H59	H	0.877411	0.407131	0.395008
	H60	H	0.101283	0.416764	0.572954
	H61	H	0.876739	0.597562	0.561850
	H62	H	0.100322	0.585766	0.387858
	H63	H	0.878506	0.414267	0.390378
	H64	H	0.404254	0.587762	0.089543
	H65	H	0.575891	0.584615	0.867905
	H66	H	0.578517	0.416587	0.089839
	H67	H	0.402827	0.411251	0.869431
	H68	H	0.578671	0.111245	0.386965
	H69	H	0.580868	0.887750	0.564345
	H70	H	0.406370	0.106303	0.566834
	H71	H	0.394747	0.884643	0.391786
	H72	H	0.896393	0.613298	0.071094
	H73	H	0.078584	0.388565	0.063969
	H74	H	0.072044	0.609031	0.891127
	H75	H	0.899820	0.387886	0.891880
	H76	H	0.084960	0.913583	0.593642
	H77	H	0.078960	0.087027	0.368504
	H78	H	0.900290	0.086088	0.590596
	H79	H	0.897508	0.911965	0.367494
	H80	H	0.599341	0.085954	0.890474
	H81	H	0.379178	0.079690	0.065524
	H82	H	0.596571	0.911049	0.060944
	H83	H	0.378813	0.911510	0.897303
	H84	H	0.600073	0.915258	0.072992
	H85	H	0.373013	0.088016	0.076318
	H86	H	0.600386	0.088306	0.890933
	H87	H	0.376811	0.913696	0.888769
	H88	H	0.902244	0.092416	0.592851
	H89	H	0.075832	0.085593	0.369455
	H90	H	0.071228	0.917748	0.587731
	H91	H	0.901908	0.908320	0.368100
	H92	H	0.074766	0.607387	0.897013
	H93	H	0.082395	0.385008	0.071929
	H94	H	0.901009	0.610251	0.068422
	H95	H	0.899412	0.387197	0.889178
	H96	H	0.398473	0.107522	0.563902
	H97	H	0.581258	0.884341	0.572342
	H98	H	0.577325	0.109590	0.391794
	H99	H	0.406110	0.887340	0.388194
	H100	H	0.569900	0.405658	0.090379
	H101	H	0.574898	0.588417	0.867924
	H102	H	0.398084	0.588353	0.091414
	H103	H	0.400180	0.409080	0.868438
	H104	H	0.103358	0.593183	0.387327
	H105	H	0.883462	0.579752	0.563076
	H106	H	0.104071	0.404045	0.567687
	H107	H	0.875017	0.407465	0.386938
	H108	H	0.895792	0.611016	0.065696
	H109	H	0.073522	0.387400	0.071458
	H110	H	0.078012	0.611111	0.892410
	H111	H	0.901696	0.388703	0.890367
	H112	H	0.073280	0.903746	0.594266
	H113	H	0.075633	0.089269	0.368275
	H114	H	0.896108	0.090349	0.593449
	H115	H	0.896972	0.906304	0.366044
	H116	H	0.598609	0.087479	0.892690
	H117	H	0.376605	0.094016	0.062633
	H118	H	0.602726	0.903252	0.069320
	H119	H	0.374710	0.905732	0.891909
	C120	C	0.367625	0.006169	0.601340
	C121	C	0.610659	0.990182	0.601493
	C122	C	0.610522	0.007107	0.358518
	C123	C	0.367695	0.989908	0.359204
	C124	C	0.609740	0.376543	-0.011402
	C125	C	0.608670	0.619008	0.971224
	C126	C	0.366451	0.620454	-0.012639
	C127	C	0.367323	0.378182	0.971656
	C128	C	-0.002462	0.620974	0.358488
	C129	C	0.981225	0.621311	0.601470
	C130	C	-0.002068	0.379171	0.599265
	C131	C	0.980643	0.378779	0.358358
	C132	C	0.866316	0.508050	0.100953
	C133	C	0.110184	0.490587	0.101006
	C134	C	0.109510	0.507235	0.858764
	C135	C	0.866755	0.490740	0.857756
	C136	C	0.109572	0.878255	0.488657
	C137	C	0.110420	0.120582	0.471394
	C138	C	0.868373	0.120465	0.487801
	C139	C	0.867243	0.877517	0.471342
	C140	C	0.496398	0.120002	0.858371
	C141	C	0.479408	0.119848	0.100741
	C142	C	0.497154	0.876889	0.101506
	C143	C	0.479750	0.877563	0.859435
	C144	C	0.363424	0.889201	0.663058
	C145	C	0.613163	0.106995	0.662964
	C146	C	0.611695	0.888849	0.299066
	C147	C	0.363865	0.106723	0.297595
	C148	C	0.671215	0.373093	0.871461
	C149	C	0.668196	0.620827	0.089580
	C150	C	0.303999	0.625014	0.870676
	C151	C	0.306230	0.375016	0.089003
	C152	C	0.878543	0.679125	0.358242
	C153	C	0.098622	0.681783	0.604862
	C154	C	0.880055	0.319563	0.601088
	C155	C	0.098742	0.319426	0.355587
	C156	C	0.880100	0.377266	0.659051
	C157	C	0.098441	0.624007	0.662597
	C158	C	0.878893	0.621885	0.299794
	C159	C	0.098619	0.377958	0.298508
	C160	C	0.362318	0.682248	0.870572
	C161	C	0.610501	0.678848	0.089277
	C162	C	0.612686	0.316150	0.870943
	C163	C	0.363715	0.316812	0.089093
	C164	C	0.669700	0.888896	0.356948
	C165	C	0.670806	0.107576	0.604867
	C166	C	0.305264	0.889633	0.605673
	C167	C	0.305225	0.106230	0.354668
	C168	C	0.864672	0.390756	0.161798
	C169	C	0.111391	0.608904	0.160181
	C170	C	0.114168	0.390748	0.796181
	C171	C	0.863369	0.608011	0.797094
	C172	C	0.169790	0.875815	0.370894
	C173	C	0.171775	0.124293	0.588886
	C174	C	0.809462	0.121274	0.369188
	C175	C	0.807650	0.875893	0.589556
	C176	C	0.379042	0.180568	0.855403
	C177	C	0.596799	0.180374	0.103474
	C178	C	0.380848	0.815097	0.106163
	C179	C	0.597378	0.817276	0.856532
	C180	C	0.380699	0.873676	0.163453
	C181	C	0.597337	0.122491	0.161025
	C182	C	0.378791	0.122194	0.797842
	C183	C	0.597153	0.874661	0.798698
	C184	C	0.868068	0.178495	0.368736
	C185	C	0.114436	0.182511	0.588617
	C186	C	0.112136	0.817974	0.370917
	C187	C	0.864941	0.817525	0.589375
	C188	C	0.172561	0.391140	0.853479
	C189	C	0.170675	0.608021	0.103950
	C190	C	0.807144	0.390027	0.103593
	C191	C	0.804848	0.607122	0.854363
	C192	C	0.394383	0.086931	0.574866
	C193	C	0.585771	0.907921	0.575814
	C194	C	0.586281	0.089359	0.382917
	C195	C	0.393676	0.908565	0.385470
	C196	C	0.584333	0.401934	0.070683
	C197	C	0.583659	0.594039	0.889021
	C198	C	0.393113	0.593722	0.068759
	C199	C	0.393478	0.403796	0.890083
	C200	C	0.080035	0.596842	0.382655
	C201	C	0.899612	0.595867	0.575296
	C202	C	0.079724	0.404252	0.573985
	C203	C	0.898480	0.402808	0.383516
	C204	C	0.890905	0.590178	0.075496
	C205	C	0.085187	0.408401	0.076201
	C206	C	0.082560	0.588096	0.885818
	C207	C	0.892838	0.409063	0.883129
	C208	C	0.083814	0.904122	0.570602
	C209	C	0.084245	0.094572	0.389963
	C210	C	0.892696	0.096500	0.570867
	C211	C	0.891767	0.901781	0.388740
	C212	C	0.578164	0.094529	0.883971
	C213	C	0.397624	0.094405	0.075401
	C214	C	0.578637	0.902570	0.075162
	C215	C	0.398090	0.903106	0.885168
	Zn216	Zn	0.488113	-0.002286	0.730112
	Zn217	Zn	0.488894	-0.001132	0.229986
	Zn218	Zn	0.737962	0.498783	-0.020052
	Zn219	Zn	0.238224	0.499350	-0.020539
	Zn220	Zn	-0.010703	0.749524	0.480047
	Zn221	Zn	-0.010128	0.249303	0.479022
	Zn222	Zn	-0.010554	0.499427	0.729606
	Zn223	Zn	-0.011545	0.499852	0.229219
	Zn224	Zn	0.487906	0.748368	-0.020547
	Zn225	Zn	0.487854	0.248598	-0.020166
	Zn226	Zn	0.739343	-0.000619	0.479800
	Zn227	Zn	0.238679	-0.001270	0.480432
	N228	N	0.401913	0.962592	0.660292
	N229	N	0.576291	0.032936	0.660954
	N230	N	0.575712	0.963452	0.299824
	N231	N	0.402075	0.033489	0.300406
	N232	N	0.669532	0.410172	0.945788
	N233	N	0.667216	0.584387	0.015091
	N234	N	0.306754	0.587102	0.944350
	N235	N	0.308341	0.412528	0.015060
	N236	N	0.953426	0.678991	0.393884
	N237	N	0.024457	0.680413	0.567707
	N238	N	0.954380	0.320351	0.564763
	N239	N	0.024419	0.319585	0.391972
	N240	N	0.954368	0.413685	0.657979
	N241	N	0.024244	0.587375	0.661007
	N242	N	0.953957	0.587094	0.299432
	N243	N	0.024147	0.414158	0.300182
	N244	N	0.400433	0.679541	0.944253
	N245	N	0.574164	0.677829	0.014665
	N246	N	0.575016	0.318397	0.944793
	N247	N	0.401058	0.318563	0.015114
	N248	N	0.669362	0.963471	0.392976
	N249	N	0.669315	0.033716	0.567236
	N250	N	0.307692	0.963255	0.567952
	N251	N	0.307693	0.032562	0.392491
	N252	N	0.900663	0.465264	0.160447
	N253	N	0.074384	0.534822	0.158450
	N254	N	0.075829	0.464160	0.799253
	N255	N	0.901253	0.534322	0.798883
	N256	N	0.168321	0.912603	0.445251
	N257	N	0.169434	0.086505	0.515112
	N258	N	0.809502	0.086149	0.444398
	N259	N	0.809057	0.912496	0.515154
	N260	N	0.453355	0.179513	0.891975
	N261	N	0.522461	0.179113	0.066986
	N262	N	0.454339	0.817229	0.068229
	N263	N	0.523181	0.818761	0.893493
	N264	N	0.454126	0.911582	0.160577
	N265	N	0.523208	0.085525	0.159543
	N266	N	0.452938	0.085584	0.799232
	N267	N	0.522904	0.911121	0.800113
	N268	N	0.903853	0.178264	0.443777
	N269	N	0.077195	0.180585	0.514380
	N270	N	0.075494	0.819460	0.445358
	N271	N	0.901221	0.818197	0.514717
	N272	N	0.169869	0.464632	0.891493
	N273	N	0.170262	0.533257	0.068246
	N274	N	0.808172	0.464086	0.066592
	N275	N	0.806686	0.533074	0.891199
	O276	O	-0.220220	0.788153	0.062862
	H277	H	-0.219389	0.785641	0.074402
	H278	H	-0.225025	0.772726	0.073367
	O279	O	0.482598	0.616575	0.266435
	H280	H	0.485085	0.635466	0.271325
	H281	H	0.496760	0.621430	0.264968
	O282	O	0.846418	-0.189871	0.827031
	H283	H	0.853374	-0.174067	0.838350
	H284	H	0.856704	-0.179682	0.840441
	O285	O	0.679501	0.655475	0.309070
	H286	H	0.663296	0.634102	0.316952
	H287	H	0.665607	0.655707	0.338480
	O288	O	0.508480	0.286107	0.290427
	H289	H	0.512850	0.271354	0.276597
	H290	H	0.488433	0.296148	0.304923
	O291	O	0.272603	0.480979	0.695946
	H292	H	0.258860	0.463932	0.712013
	H293	H	0.272199	0.455304	0.692969
	O294	O	1.171991	-0.186036	1.164301
	H295	H	1.172628	-0.182888	1.160072
	H296	H	1.179494	-0.181059	1.151045
	O297	O	0.699687	0.430512	0.545025
	H298	H	0.714168	0.405852	0.547274
	H299	H	0.692173	0.451037	0.557541
	O300	O	-0.223675	0.216696	0.763343
	H301	H	-0.208732	0.220343	0.795818
	H302	H	-0.234021	0.214506	0.762449
	O303	O	0.169503	0.178392	0.797238
	H304	H	0.167571	0.170131	0.808926
	H305	H	0.147493	0.172154	0.813791
	O306	O	0.949842	-0.072841	0.759488
	H307	H	0.922204	-0.073899	0.757794
	H308	H	0.963771	-0.047876	0.770809
	O309	O	0.454433	0.278294	0.701215
	H310	H	0.475480	0.284034	0.716790
	H311	H	0.462641	0.260527	0.708622
	O312	O	0.317811	0.479809	0.462106
	H313	H	0.327082	0.480569	0.459662
	H314	H	0.311559	0.476015	0.452712
	O315	O	0.458043	1.262853	0.437439
	H316	H	0.433209	1.264630	0.442206
	H317	H	0.465895	1.253802	0.438982
	O318	O	0.682307	0.493838	0.273138
	H319	H	0.687067	0.473942	0.271263
	H320	H	0.689397	0.503751	0.264770
	O321	O	0.309252	0.592783	0.601808
	H322	H	0.311883	0.577231	0.600977
	H323	H	0.298910	0.583790	0.611251
	O324	O	0.916498	1.118506	-0.104569
	H325	H	0.910103	1.121869	-0.109794
	H326	H	0.910606	1.116878	-0.103574
	O327	O	-0.231519	0.082539	1.066286
	H328	H	-0.231761	0.084323	1.079905
	H329	H	-0.225499	0.081875	1.088421
	O330	O	0.277419	0.295693	0.500239
	H331	H	0.279085	0.307263	0.513565
	H332	H	0.257978	0.279009	0.522078
	O333	O	0.027464	-0.028152	0.993192
	H334	H	0.039544	-0.023678	1.002007
	H335	H	0.017025	-0.020190	1.002600
	O336	O	0.555062	0.296825	0.509596
	H337	H	0.541078	0.295452	0.512064
	H338	H	0.568698	0.300289	0.501160
	O339	O	0.957428	0.215934	0.761106
	H340	H	0.956792	0.230570	0.748366
	H341	H	0.949367	0.210407	0.760911
	O342	O	-0.126164	-0.130185	0.040232
	H343	H	-0.128525	-0.132219	0.035534
	H344	H	-0.123742	-0.120557	0.039575
	O345	O	-0.227574	0.965062	1.196802
	H346	H	-0.235014	0.937868	1.195271
	H347	H	-0.245808	0.944990	1.217367
	O348	O	0.439316	0.467607	0.257021
	H349	H	0.432958	0.489742	0.264637
	H350	H	0.447069	0.468869	0.252307
	O351	O	0.946887	0.778735	0.198099
	H352	H	0.966120	0.776772	0.201954
	H353	H	0.963490	0.772251	0.205918
	O354	O	0.020088	0.220286	1.193360
	H355	H	0.028344	0.235715	1.219084
	H356	H	0.046975	0.216645	1.194742
	O357	O	1.226013	0.965303	0.011046
	H358	H	1.234163	0.964300	-0.000807
	H359	H	1.227220	0.963893	0.003910
	O360	O	0.329273	0.432938	0.476473
	H361	H	0.323055	0.441579	0.483096
	H362	H	0.325703	0.435689	0.465151
	O363	O	-0.219736	-0.041828	-0.101548
	H364	H	-0.211194	-0.038956	-0.081899
	H365	H	-0.231981	-0.040315	-0.081279
	O366	O	0.509061	0.459056	0.391588
	H367	H	0.514078	0.458701	0.398464
	H368	H	0.492630	0.454226	0.391050
	O369	O	1.033887	0.060710	-0.244628
	H370	H	1.030907	0.064782	-0.247938
	H371	H	1.023774	0.062316	-0.234325
	O372	O	1.015780	0.789669	0.015368
	H373	H	1.017205	0.799226	0.030671
	H374	H	1.026198	0.790604	0.013995
	O375	O	1.088404	0.224456	-0.058022
	H376	H	1.064274	0.223169	-0.052120
	H377	H	1.105976	0.235313	-0.053321
	O378	O	-0.018402	0.777581	0.888789
	H379	H	-0.033469	0.777366	0.887721
	H380	H	-0.003414	0.788952	0.904542
	O381	O	0.292666	0.698798	1.278425
	H382	H	0.308544	0.700906	1.297786
	H383	H	0.288477	0.695988	1.281259
	O384	O	0.934456	0.230637	1.037807
	H385	H	0.942748	0.224817	1.050555
	H386	H	0.930684	0.232588	1.050388
	O387	O	1.021174	0.988540	0.143115
	H388	H	1.018636	0.989526	0.144524
	H389	H	1.023452	0.993884	0.141174
	O390	O	0.697339	0.527402	0.694330
	H391	H	0.714102	0.549027	0.707032
	H392	H	0.694063	0.541531	0.705830
	O393	O	0.418447	0.597143	0.593949
	H394	H	0.422188	0.593709	0.586191
	H395	H	0.416751	0.590935	0.596531
	O396	O	0.511405	1.493448	1.579723
	H397	H	0.494656	1.490336	1.579149
	H398	H	0.506489	1.516388	1.575952
	O399	O	0.171700	0.032846	1.148310
	H400	H	0.173261	0.028787	1.157238
	H401	H	0.175432	0.025030	1.141401
	O402	O	0.711548	0.279267	0.426754
	H403	H	0.710931	0.284086	0.420218
	H404	H	0.723089	0.258990	0.434449
	O405	O	1.021057	-0.224175	0.764656
	H406	H	1.016130	-0.249577	0.734732
	H407	H	0.996806	-0.203198	0.766695
	O408	O	-0.002228	0.018846	0.014893
	H409	H	-0.001708	0.024826	0.017277
	H410	H	-0.006158	0.015096	0.019341
	O411	O	0.548108	0.457296	0.703406
	H412	H	0.550093	0.467697	0.706262
	H413	H	0.536936	0.481101	0.712589
	O414	O	0.698522	0.284326	1.264979
	H415	H	0.648154	0.285823	1.262855
	H416	H	0.707847	0.298259	1.293828
	O417	O	0.698239	0.709581	0.687665
	H418	H	0.685476	0.716156	0.689861
	H419	H	0.705980	0.733082	0.697275
	O420	O	0.528468	0.714406	0.459027
	H421	H	0.526879	0.703736	0.466291
	H422	H	0.547181	0.714672	0.478614
	O423	O	0.191624	0.207485	1.187104
	H424	H	0.195198	0.167437	1.182481
	H425	H	0.216272	0.232043	1.201279
	O426	O	0.513511	0.714960	0.699259
	H427	H	0.507795	0.734052	0.703467
	H428	H	0.506738	0.723726	0.696072
	O429	O	0.718423	0.762174	1.240102
	H430	H	0.741123	0.755747	1.256270
	H431	H	0.714640	0.736504	1.268485
	O432	O	0.305655	0.323167	0.305185
	H433	H	0.319716	0.326412	0.323082
	H434	H	0.308378	0.352892	0.322502
	O435	O	0.167439	1.177729	0.019220
	H436	H	0.161737	1.173015	0.046058
	H437	H	0.179032	1.193314	0.028372
	O438	O	0.207702	-0.217019	-0.037046
	H439	H	0.211400	-0.215102	-0.066465
	H440	H	0.213087	-0.239771	-0.050728
	O441	O	0.432746	0.668554	0.436815
	H442	H	0.435200	0.662912	0.446693
	H443	H	0.410823	0.667295	0.433356
	O444	O	0.549455	0.559371	0.540630
	H445	H	0.542928	0.553067	0.537048
	H446	H	0.562281	0.562369	0.563137
	O447	O	-0.203603	1.004330	0.767881
	H448	H	-0.217264	1.021271	0.762981
	H449	H	-0.217018	1.007955	0.774456
	O450	O	0.276004	0.713880	1.448955
	H451	H	0.277034	0.715007	1.455061
	H452	H	0.252985	0.716416	1.459136
	O453	O	0.712483	0.549419	0.446258
	H454	H	0.711111	0.543254	0.448286
	H455	H	0.715704	0.529616	0.445814
	O456	O	-0.224975	0.206649	0.942439
	H457	H	-0.222418	0.204943	0.945180
	H458	H	-0.230485	0.209966	0.955059
	O459	O	1.035604	0.981970	0.065065
	H460	H	1.034527	0.984050	0.074403
	H461	H	1.047664	0.980286	0.068890
	O462	O	0.270943	0.531967	0.265724
	H463	H	0.273261	0.551586	0.265942
	H464	H	0.259831	0.528920	0.239943
	O465	O	0.492666	-0.458375	-0.630304
	H466	H	0.506163	-0.461533	-0.634195
	H467	H	0.501289	-0.454928	-0.623084
	O468	O	0.669047	0.314673	0.663710
	H469	H	0.687828	0.316979	0.675068
	H470	H	0.645730	0.337385	0.657984
	O471	O	0.297319	0.310799	0.666366
	H472	H	0.302281	0.292777	0.676309
	H473	H	0.331901	0.318257	0.665875
	O474	O	0.200305	0.791332	0.775019
	H475	H	0.193145	0.816630	0.772930
	H476	H	0.163278	0.785510	0.781440
	O477	O	0.811016	0.138829	1.110386
	H478	H	0.820825	0.139954	1.102964
	H479	H	0.799453	0.154551	1.126768
	O480	O	0.697893	0.707348	0.505672
	H481	H	0.703859	0.686257	0.516234
	H482	H	0.718941	0.719699	0.515603
	O483	O	0.931772	1.038959	1.197865
	H484	H	0.927000	1.047198	1.199454
	H485	H	0.908623	1.026609	1.207187
	O486	O	1.196905	-0.027062	0.772140
	H487	H	1.187184	-0.022661	0.777034
	H488	H	1.203313	-0.026372	0.756462
	O489	O	1.217237	1.023216	-0.049595
	H490	H	1.212513	1.021514	-0.065200
	H491	H	1.221848	1.035665	-0.048879
