data_Molecule from HDF5

_cell_length_a		16.459033
_cell_length_b		16.038661
_cell_length_c		16.138002
_cell_angle_alpha	89.321873
_cell_angle_beta	89.152536
_cell_angle_gamma	90.507307
_symmetry_space_group_name_H-M	'P 1'
_symmetry_Int_Tables_number		1

loop_
	_symmetry_equiv_pos_as_xyz
	x,y,z

loop_
	_atom_site_label
	_atom_site_type_symbol
	_atom_site_fract_x
	_atom_site_fract_y
	_atom_site_fract_z
	H0	H	0.388926	0.842884	0.706458
	H1	H	0.588918	0.174233	0.698389
	H2	H	0.589060	0.841898	0.276509
	H3	H	0.398104	0.173117	0.275534
	H4	H	0.714023	0.404743	0.828249
	H5	H	0.706563	0.608929	0.153338
	H6	H	0.277030	0.612646	0.827465
	H7	H	0.269923	0.399587	0.153536
	H8	H	0.828482	0.724511	0.390510
	H9	H	0.153175	0.726455	0.582219
	H10	H	0.830487	0.288734	0.593378
	H11	H	0.153983	0.297065	0.387110
	H12	H	0.831136	0.404040	0.711754
	H13	H	0.153927	0.611656	0.701822
	H14	H	0.828664	0.608120	0.274606
	H15	H	0.151455	0.410965	0.270492
	H16	H	0.399595	0.719639	0.824250
	H17	H	0.585986	0.718440	0.154619
	H18	H	0.589833	0.298256	0.823829
	H19	H	0.391672	0.291263	0.155301
	H20	H	0.707548	0.843820	0.385252
	H21	H	0.709872	0.171027	0.589175
	H22	H	0.270391	0.844882	0.595032
	H23	H	0.279512	0.172024	0.383646
	H24	H	0.889467	0.342338	0.207691
	H25	H	0.086834	0.675350	0.196996
	H26	H	0.092895	0.342557	0.774994
	H27	H	0.898270	0.673530	0.776697
	H28	H	0.212001	0.906488	0.325827
	H29	H	0.209236	0.111427	0.651260
	H30	H	0.776669	0.114980	0.325631
	H31	H	0.768084	0.898702	0.648948
	H32	H	0.329275	0.224792	0.889631
	H33	H	0.652619	0.224379	0.085935
	H34	H	0.329389	0.789349	0.090076
	H35	H	0.652992	0.795631	0.887865
	H36	H	0.329939	0.903989	0.208763
	H37	H	0.653587	0.107333	0.200038
	H38	H	0.329438	0.109502	0.772401
	H39	H	0.650878	0.907163	0.769092
	H40	H	0.900200	0.222133	0.322877
	H41	H	0.089377	0.220488	0.653790
	H42	H	0.087530	0.801040	0.322142
	H43	H	0.890432	0.793847	0.652860
	H44	H	0.208097	0.342929	0.889249
	H45	H	0.208588	0.672125	0.089968
	H46	H	0.770301	0.344342	0.098694
	H47	H	0.779090	0.671748	0.886411
	H48	H	0.398299	0.128390	0.584744
	H49	H	0.579548	0.889809	0.580069
	H50	H	0.582227	0.123503	0.400942
	H51	H	0.397875	0.886737	0.395582
	H52	H	0.581803	0.413658	0.107097
	H53	H	0.594849	0.603356	0.869008
	H54	H	0.396764	0.585502	0.105611
	H55	H	0.402328	0.419769	0.874812
	H56	H	0.103099	0.597298	0.395098
	H57	H	0.875591	0.601679	0.586686
	H58	H	0.108566	0.416461	0.586819
	H59	H	0.878426	0.416318	0.405906
	H60	H	0.107643	0.411683	0.578974
	H61	H	0.877481	0.599606	0.580297
	H62	H	0.108594	0.605881	0.384462
	H63	H	0.875192	0.418322	0.395104
	H64	H	0.405512	0.600486	0.106981
	H65	H	0.588892	0.593282	0.873939
	H66	H	0.583633	0.417986	0.107023
	H67	H	0.399527	0.415907	0.871474
	H68	H	0.594908	0.128063	0.396233
	H69	H	0.579008	0.889818	0.577355
	H70	H	0.405593	0.124666	0.576467
	H71	H	0.403536	0.891176	0.403840
	H72	H	0.900363	0.622529	0.071214
	H73	H	0.077857	0.395249	0.068662
	H74	H	0.080864	0.627241	0.887131
	H75	H	0.901049	0.389736	0.902901
	H76	H	0.084925	0.914756	0.607102
	H77	H	0.093260	0.099628	0.370283
	H78	H	0.895499	0.083715	0.603540
	H79	H	0.894486	0.918615	0.368016
	H80	H	0.603157	0.097446	0.898868
	H81	H	0.374950	0.102902	0.079947
	H82	H	0.604448	0.916733	0.078074
	H83	H	0.376383	0.919032	0.897524
	H84	H	0.608074	0.916868	0.086946
	H85	H	0.377935	0.092298	0.080360
	H86	H	0.606860	0.099398	0.886703
	H87	H	0.372290	0.909405	0.895756
	H88	H	0.909036	0.099479	0.604410
	H89	H	0.084660	0.097306	0.373937
	H90	H	0.083048	0.922594	0.604899
	H91	H	0.899821	0.922253	0.370442
	H92	H	0.083575	0.621738	0.906088
	H93	H	0.091971	0.385650	0.083813
	H94	H	0.887730	0.629857	0.082701
	H95	H	0.901589	0.390208	0.903829
	H96	H	0.394630	0.127155	0.574101
	H97	H	0.581862	0.890207	0.578814
	H98	H	0.583834	0.128403	0.387958
	H99	H	0.393929	0.888538	0.405383
	H100	H	0.579295	0.416988	0.106503
	H101	H	0.582896	0.603786	0.872235
	H102	H	0.388999	0.599566	0.111040
	H103	H	0.396939	0.421178	0.874162
	H104	H	0.107397	0.611185	0.397188
	H105	H	0.877046	0.595290	0.585119
	H106	H	0.105539	0.420659	0.579032
	H107	H	0.873125	0.407941	0.399791
	H108	H	0.905616	0.627191	0.088877
	H109	H	0.071229	0.390269	0.089713
	H110	H	0.097589	0.629789	0.896401
	H111	H	0.900774	0.389328	0.904490
	H112	H	0.077053	0.916188	0.604913
	H113	H	0.086162	0.105910	0.369911
	H114	H	0.889624	0.102475	0.610051
	H115	H	0.900548	0.916027	0.368892
	H116	H	0.606681	0.107535	0.895726
	H117	H	0.374674	0.097181	0.089210
	H118	H	0.608446	0.908929	0.081758
	H119	H	0.376272	0.912541	0.904622
	C120	C	0.368741	0.017427	0.610564
	C121	C	0.611037	0.998788	0.608085
	C122	C	0.614907	0.017191	0.365748
	C123	C	0.371477	0.998304	0.369292
	C124	C	0.612722	0.386870	-0.001495
	C125	C	0.614975	0.628974	0.980514
	C126	C	0.370691	0.626873	-0.000959
	C127	C	0.368764	0.385797	0.981635
	C128	C	-0.000834	0.632703	0.364963
	C129	C	0.983429	0.630200	0.610523
	C130	C	0.000585	0.384524	0.613267
	C131	C	0.982470	0.386818	0.368500
	C132	C	0.868066	0.517171	0.112434
	C133	C	0.110656	0.499306	0.109799
	C134	C	0.115855	0.517071	0.867328
	C135	C	0.873064	0.498791	0.871752
	C136	C	0.111889	0.888840	0.497046
	C137	C	0.115546	0.130333	0.479595
	C138	C	0.871062	0.127988	0.497360
	C139	C	0.868339	0.887145	0.478014
	C140	C	0.498970	0.131068	0.865624
	C141	C	0.482733	0.127921	0.110310
	C142	C	0.500347	0.883359	0.112985
	C143	C	0.481808	0.885770	0.867805
	C144	C	0.369280	0.892634	0.668016
	C145	C	0.609568	0.123894	0.662179
	C146	C	0.610591	0.892053	0.312529
	C147	C	0.376438	0.123202	0.312642
	C148	C	0.672631	0.386563	0.876086
	C149	C	0.668575	0.627769	0.104347
	C150	C	0.315730	0.629949	0.875965
	C151	C	0.310143	0.382742	0.104906
	C152	C	0.876855	0.686744	0.369282
	C153	C	0.104998	0.687832	0.604683
	C154	C	0.879087	0.327049	0.613290
	C155	C	0.105064	0.333853	0.368261
	C156	C	0.879314	0.384389	0.672099
	C157	C	0.105439	0.630406	0.663971
	C158	C	0.877072	0.628998	0.311686
	C159	C	0.103831	0.390455	0.310216
	C160	C	0.376727	0.683096	0.874173
	C161	C	0.608694	0.682452	0.104964
	C162	C	0.610857	0.333783	0.873828
	C163	C	0.370293	0.328375	0.105770
	C164	C	0.669656	0.893038	0.366848
	C165	C	0.669846	0.122413	0.607975
	C166	C	0.310320	0.893691	0.612839
	C167	C	0.317410	0.122661	0.366499
	C168	C	0.869359	0.392245	0.169908
	C169	C	0.108231	0.624764	0.162117
	C170	C	0.113318	0.392227	0.812274
	C171	C	0.876870	0.623899	0.814609
	C172	C	0.171038	0.888830	0.374193
	C173	C	0.170676	0.129993	0.602575
	C174	C	0.816139	0.131140	0.374148
	C175	C	0.808629	0.882439	0.600636
	C176	C	0.377622	0.186809	0.868866
	C177	C	0.604466	0.185426	0.106331
	C178	C	0.378167	0.826847	0.111318
	C179	C	0.604180	0.832412	0.868147
	C180	C	0.378473	0.883735	0.170418
	C181	C	0.604735	0.127228	0.163377
	C182	C	0.377697	0.129358	0.810459
	C183	C	0.602948	0.887896	0.808761
	C184	C	0.877240	0.184858	0.372744
	C185	C	0.110965	0.184402	0.603909
	C186	C	0.109031	0.836560	0.371958
	C187	C	0.869405	0.830061	0.602437
	C188	C	0.170509	0.392499	0.869240
	C189	C	0.168807	0.623080	0.108740
	C190	C	0.810257	0.393065	0.115576
	C191	C	0.817559	0.622720	0.869156
	C192	C	0.392413	0.103988	0.585681
	C193	C	0.587097	0.912373	0.585365
	C194	C	0.593515	0.104283	0.388162
	C195	C	0.392318	0.911361	0.394340
	C196	C	0.588707	0.409580	0.084566
	C197	C	0.594857	0.606733	0.893952
	C198	C	0.391182	0.602356	0.085428
	C199	C	0.392789	0.411468	0.895699
	C200	C	0.084149	0.611326	0.386031
	C201	C	0.898650	0.606002	0.590018
	C202	C	0.085189	0.409112	0.588657
	C203	C	0.897614	0.408036	0.392980
	C204	C	0.890992	0.604040	0.088037
	C205	C	0.087157	0.412682	0.087367
	C206	C	0.093974	0.603742	0.889710
	C207	C	0.894794	0.412326	0.896486
	C208	C	0.088565	0.911243	0.583241
	C209	C	0.094465	0.107606	0.393654
	C210	C	0.891775	0.102799	0.583574
	C211	C	0.891683	0.911700	0.391544
	C212	C	0.583584	0.108317	0.887266
	C213	C	0.397945	0.104318	0.089423
	C214	C	0.584961	0.907275	0.089363
	C215	C	0.397188	0.907317	0.891999
	Zn216	Zn	0.490321	0.007871	0.737238
	Zn217	Zn	0.491632	0.006995	0.241394
	Zn218	Zn	0.743108	0.507405	-0.009474
	Zn219	Zn	0.241209	0.507384	-0.009532
	Zn220	Zn	-0.009761	0.761400	0.487434
	Zn221	Zn	-0.007222	0.256870	0.489253
	Zn222	Zn	-0.006985	0.507919	0.741685
	Zn223	Zn	-0.010256	0.508573	0.238546
	Zn224	Zn	0.491381	0.755353	-0.010898
	Zn225	Zn	0.490941	0.259024	-0.010840
	Zn226	Zn	0.741130	0.007115	0.487792
	Zn227	Zn	0.242540	0.008881	0.488578
	N228	N	0.404689	0.970699	0.666965
	N229	N	0.573749	0.046046	0.662530
	N230	N	0.577209	0.970365	0.311854
	N231	N	0.409272	0.044597	0.314286
	N232	N	0.674026	0.418693	0.954700
	N233	N	0.672932	0.595525	0.025831
	N234	N	0.311887	0.595782	0.954443
	N235	N	0.308825	0.417480	0.026500
	N236	N	0.953561	0.689147	0.401840
	N237	N	0.028100	0.687808	0.572158
	N238	N	0.955534	0.327086	0.577525
	N239	N	0.028642	0.331320	0.403812
	N240	N	0.956041	0.419203	0.672453
	N241	N	0.028880	0.595135	0.667612
	N242	N	0.953958	0.596155	0.308955
	N243	N	0.026664	0.422442	0.310002
	N244	N	0.410355	0.681275	0.951794
	N245	N	0.576443	0.683770	0.026813
	N246	N	0.574428	0.333629	0.951104
	N247	N	0.406182	0.330248	0.028189
	N248	N	0.672592	0.972124	0.399208
	N249	N	0.670732	0.043658	0.574991
	N250	N	0.309735	0.972248	0.577976
	N251	N	0.314230	0.043966	0.401283
	N252	N	0.904600	0.470444	0.168236
	N253	N	0.072714	0.546801	0.162908
	N254	N	0.080140	0.470739	0.810647
	N255	N	0.910707	0.545789	0.815913
	N256	N	0.172970	0.920692	0.452971
	N257	N	0.173529	0.097012	0.524311
	N258	N	0.812081	0.096441	0.452612
	N259	N	0.807878	0.917161	0.522418
	N260	N	0.454062	0.188055	0.902214
	N261	N	0.527568	0.186149	0.073974
	N262	N	0.454813	0.826447	0.076276
	N263	N	0.527982	0.830740	0.904292
	N264	N	0.455349	0.918007	0.171799
	N265	N	0.528237	0.092104	0.166048
	N266	N	0.454253	0.095501	0.808228
	N267	N	0.525861	0.920172	0.808075
	N268	N	0.910678	0.183154	0.450372
	N269	N	0.077356	0.184951	0.526424
	N270	N	0.072785	0.836439	0.449313
	N271	N	0.905963	0.832817	0.525106
	N272	N	0.172428	0.471106	0.902448
	N273	N	0.170452	0.543960	0.076826
	N274	N	0.809238	0.471736	0.080448
	N275	N	0.814938	0.543786	0.903895
	O276	O	0.965006	-0.030401	1.059619
	H277	H	0.967853	-0.039498	1.065561
	H278	H	0.968339	-0.037068	1.052732
	O279	O	1.024185	1.052512	0.004821
	H280	H	1.016869	1.055319	-0.003310
	H281	H	1.025315	1.048323	0.005045
	O282	O	0.484935	0.557179	0.454765
	H283	H	0.490628	0.557332	0.451680
	H284	H	0.483368	0.560656	0.445886
	O285	O	0.468232	0.404792	0.521410
	H286	H	0.472841	0.407362	0.516789
	H287	H	0.476354	0.395735	0.517651
	O288	O	0.510933	0.471514	0.446963
	H289	H	0.511416	0.471244	0.442678
	H290	H	0.526561	0.479559	0.460514
	O291	O	0.467404	-0.445669	1.443081
	H292	H	0.455308	-0.442903	1.441890
	H293	H	0.469426	-0.439141	1.441062
	O294	O	1.036681	1.002304	0.013173
	H295	H	1.039582	1.003029	0.004722
	H296	H	1.036759	0.992484	0.016308
	O297	O	0.898257	1.007404	-0.119682
	H298	H	0.906511	1.005901	-0.120226
	H299	H	0.892365	1.020317	-0.124459
	O300	O	0.517947	0.473808	0.364173
	H301	H	0.511208	0.470049	0.367420
	H302	H	0.510867	0.481210	0.365600
	O303	O	0.435390	0.582040	0.570926
	H304	H	0.436054	0.566461	0.583261
	H305	H	0.438123	0.590998	0.569142
	O306	O	0.484041	0.647250	0.471036
	H307	H	0.484571	0.639968	0.471269
	H308	H	0.480169	0.643850	0.473013
	O309	O	0.653774	0.494058	0.613717
	H310	H	0.660514	0.509758	0.627695
	H311	H	0.657202	0.495219	0.593484
	O312	O	0.947877	0.888494	1.018127
	H313	H	0.948731	0.886174	1.018255
	H314	H	0.949779	0.905021	1.004004
	O315	O	1.086841	1.075686	0.110693
	H316	H	1.074657	1.091692	0.116339
	H317	H	1.102847	1.085143	0.111578
	O318	O	0.008075	-0.007910	0.917904
	H319	H	0.010075	-0.011913	0.932231
	H320	H	0.005588	-0.001124	0.911958
	O321	O	0.563385	0.626370	0.551944
	H322	H	0.551055	0.621334	0.556930
	H323	H	0.559952	0.634408	0.553928
	O324	O	-0.066522	1.064213	0.917707
	H325	H	-0.066896	1.060511	0.900811
	H326	H	-0.065738	1.055120	0.914040
	O327	O	-0.110515	1.094855	0.918005
	H328	H	-0.113283	1.076578	0.924346
	H329	H	-0.108591	1.088344	0.900630
	O330	O	0.066965	0.094830	-0.018184
	H331	H	0.068955	0.095672	0.006869
	H332	H	0.067409	0.110284	-0.019975
	O333	O	0.584624	0.492720	0.562273
	H334	H	0.583325	0.508082	0.568363
	H335	H	0.577440	0.493299	0.575657
	O336	O	-0.096184	0.050115	-0.075836
	H337	H	-0.106004	0.062575	-0.081414
	H338	H	-0.096719	0.043466	-0.082077
	O339	O	0.050137	0.077286	0.024285
	H340	H	0.051331	0.070221	0.018516
	H341	H	0.043818	0.078747	0.036781
	O342	O	0.413761	0.468371	0.428206
	H343	H	0.416951	0.462156	0.428124
	H344	H	0.410261	0.460710	0.430152
	O345	O	0.069351	0.979898	0.879793
	H346	H	0.069000	0.984269	0.878459
	H347	H	0.066689	0.977513	0.887891
	O348	O	-0.043714	0.053337	1.007952
	H349	H	-0.047992	0.053642	1.008551
	H350	H	-0.051215	0.032852	1.003881
	O351	O	0.531825	0.542332	0.576770
	H352	H	0.524555	0.552091	0.557950
	H353	H	0.534373	0.544672	0.583968
	O354	O	0.058762	0.877860	-0.072639
	H355	H	0.051540	0.868203	-0.066578
	H356	H	0.055810	0.883006	-0.071997
	O357	O	0.593494	0.447931	0.556662
	H358	H	0.592700	0.443954	0.550147
	H359	H	0.600129	0.444913	0.561053
	O360	O	1.372303	-0.595720	1.610805
	H361	H	1.376377	-0.588416	1.625152
	H362	H	1.374929	-0.593938	1.608238
	O363	O	0.396372	0.497738	0.537836
	H364	H	0.384595	0.489429	0.542448
	H365	H	0.387753	0.495963	0.526046
	O366	O	0.383051	0.517282	0.455496
	H367	H	0.381995	0.516705	0.454590
	H368	H	0.380903	0.516629	0.462706
	O369	O	0.873057	0.011105	-0.036860
	H370	H	0.877751	0.017771	-0.024153
	H371	H	0.866842	0.004888	-0.022813
	O372	O	0.458254	0.528126	0.342309
	H373	H	0.456942	0.545564	0.342032
	H374	H	0.455732	0.524386	0.341649
	O375	O	1.035573	0.030332	0.995762
	H376	H	1.036163	0.034406	1.008297
	H377	H	1.023129	0.037750	1.001888
	O378	O	-0.010025	0.918449	-0.012504
	H379	H	-0.002280	0.920925	-0.011874
	H380	H	-0.017301	0.924991	-0.021282
	O381	O	0.452710	0.372977	0.481584
	H382	H	0.455204	0.355253	0.485738
	H383	H	0.449584	0.359306	0.491870
	O384	O	0.910582	0.910378	0.024318
	H385	H	0.913134	0.913863	0.025016
	H386	H	0.922048	0.907528	0.024790
	O387	O	1.475111	0.478890	1.505603
	H388	H	1.468044	0.465107	1.497731
	H389	H	1.469454	0.485746	1.511203
	O390	O	0.956241	0.988202	0.107802
	H391	H	0.957242	0.986900	0.121280
	H392	H	0.951101	0.986028	0.089023
	O393	O	0.540980	0.494125	0.523676
	H394	H	0.547788	0.492528	0.516098
	H395	H	0.543531	0.498617	0.514378
