data_Molecule from HDF5

_cell_length_a		16.300469
_cell_length_b		16.155825
_cell_length_c		16.235185
_cell_angle_alpha	90.062836
_cell_angle_beta	90.193210
_cell_angle_gamma	89.986291
_symmetry_space_group_name_H-M	'P 1'
_symmetry_Int_Tables_number		1

loop_
	_symmetry_equiv_pos_as_xyz
	x,y,z

loop_
	_atom_site_label
	_atom_site_type_symbol
	_atom_site_fract_x
	_atom_site_fract_y
	_atom_site_fract_z
	H0	H	0.402649	0.838501	0.717950
	H1	H	0.599202	0.168059	0.718828
	H2	H	0.595869	0.837142	0.294251
	H3	H	0.401486	0.166989	0.291069
	H4	H	0.715576	0.402978	0.842979
	H5	H	0.717433	0.604390	0.169174
	H6	H	0.285700	0.601354	0.842602
	H7	H	0.287028	0.403824	0.169592
	H8	H	0.836807	0.715440	0.408248
	H9	H	0.165179	0.716192	0.603448
	H10	H	0.836094	0.290572	0.601422
	H11	H	0.164424	0.288493	0.408386
	H12	H	0.837620	0.404225	0.720500
	H13	H	0.164566	0.600534	0.720715
	H14	H	0.837929	0.602538	0.289331
	H15	H	0.164967	0.404811	0.293294
	H16	H	0.403071	0.714687	0.841122
	H17	H	0.597628	0.714987	0.170042
	H18	H	0.598201	0.289134	0.841723
	H19	H	0.405042	0.290701	0.170597
	H20	H	0.714787	0.838560	0.405460
	H21	H	0.715946	0.167111	0.605893
	H22	H	0.287161	0.838840	0.602553
	H23	H	0.286248	0.167495	0.405003
	H24	H	0.904028	0.337536	0.218252
	H25	H	0.098632	0.667725	0.219201
	H26	H	0.098369	0.337896	0.793373
	H27	H	0.903785	0.668017	0.793514
	H28	H	0.212750	0.904300	0.340570
	H29	H	0.215614	0.103179	0.667556
	H30	H	0.784559	0.103347	0.341500
	H31	H	0.787211	0.904824	0.669926
	H32	H	0.336678	0.216598	0.907036
	H33	H	0.664790	0.214798	0.103732
	H34	H	0.336291	0.788549	0.101492
	H35	H	0.664336	0.788135	0.908079
	H36	H	0.335930	0.903398	0.219011
	H37	H	0.662613	0.101412	0.222380
	H38	H	0.337523	0.101840	0.790013
	H39	H	0.664391	0.904451	0.791259
	H40	H	0.901766	0.216427	0.340648
	H41	H	0.096367	0.214249	0.669973
	H42	H	0.095382	0.789903	0.340520
	H43	H	0.902850	0.789795	0.670067
	H44	H	0.213275	0.337998	0.908947
	H45	H	0.214379	0.667466	0.105916
	H46	H	0.787243	0.338252	0.104666
	H47	H	0.787218	0.667008	0.907702
	H48	H	0.410288	0.119879	0.596297
	H49	H	0.595386	0.881921	0.606944
	H50	H	0.588118	0.121589	0.405869
	H51	H	0.406190	0.889700	0.427188
	H52	H	0.603603	0.407838	0.127164
	H53	H	0.588739	0.594741	0.889721
	H54	H	0.414642	0.595388	0.121716
	H55	H	0.408723	0.418239	0.891303
	H56	H	0.122437	0.599505	0.398406
	H57	H	0.877892	0.603598	0.613324
	H58	H	0.117992	0.405930	0.598629
	H59	H	0.884476	0.411955	0.412882
	H60	H	0.116857	0.411540	0.598079
	H61	H	0.886026	0.604789	0.584295
	H62	H	0.118917	0.607946	0.420747
	H63	H	0.883793	0.410652	0.409615
	H64	H	0.404611	0.603000	0.126255
	H65	H	0.596065	0.599144	0.886020
	H66	H	0.593139	0.418838	0.120073
	H67	H	0.412178	0.403263	0.888524
	H68	H	0.588745	0.117223	0.420522
	H69	H	0.584504	0.888108	0.595393
	H70	H	0.404431	0.121905	0.595160
	H71	H	0.391881	0.878329	0.405649
	H72	H	0.903087	0.622316	0.099671
	H73	H	0.092620	0.384236	0.103014
	H74	H	0.105018	0.623126	0.916867
	H75	H	0.908887	0.389531	0.927056
	H76	H	0.089722	0.913784	0.619935
	H77	H	0.098770	0.090921	0.386485
	H78	H	0.902174	0.104379	0.626702
	H79	H	0.892759	0.915398	0.385756
	H80	H	0.616607	0.093476	0.912166
	H81	H	0.386270	0.099926	0.083919
	H82	H	0.614828	0.911005	0.093457
	H83	H	0.384769	0.910271	0.913346
	H84	H	0.616595	0.915441	0.104450
	H85	H	0.385335	0.082341	0.104669
	H86	H	0.618812	0.097811	0.909712
	H87	H	0.383845	0.911033	0.908735
	H88	H	0.902255	0.087541	0.621431
	H89	H	0.085941	0.094528	0.389778
	H90	H	0.094309	0.904041	0.623919
	H91	H	0.917017	0.918391	0.393430
	H92	H	0.091531	0.623794	0.902040
	H93	H	0.093149	0.386149	0.095568
	H94	H	0.913489	0.620274	0.101694
	H95	H	0.895076	0.378815	0.907374
	H96	H	0.406840	0.122810	0.601253
	H97	H	0.600313	0.885475	0.591309
	H98	H	0.600953	0.122992	0.414081
	H99	H	0.418798	0.885531	0.402686
	H100	H	0.587984	0.403270	0.123257
	H101	H	0.596802	0.589708	0.888716
	H102	H	0.402114	0.589288	0.123202
	H103	H	0.398166	0.408813	0.885589
	H104	H	0.114125	0.584470	0.415580
	H105	H	0.888642	0.578914	0.600114
	H106	H	0.118349	0.409714	0.603324
	H107	H	0.884751	0.408751	0.412531
	H108	H	0.910107	0.618356	0.091739
	H109	H	0.098714	0.383526	0.099151
	H110	H	0.085884	0.616683	0.920442
	H111	H	0.919620	0.385848	0.903029
	H112	H	0.100285	0.913184	0.623100
	H113	H	0.094814	0.103558	0.383958
	H114	H	0.916339	0.096713	0.619700
	H115	H	0.908108	0.896096	0.385348
	H116	H	0.617354	0.098063	0.914699
	H117	H	0.376882	0.107716	0.107901
	H118	H	0.619411	0.904050	0.102256
	H119	H	0.383154	0.906408	0.910246
	C120	C	0.379029	0.012152	0.625729
	C121	C	0.622047	0.994032	0.626890
	C122	C	0.621164	0.011603	0.384647
	C123	C	0.377531	0.993460	0.382924
	C124	C	0.622894	0.380859	0.014930
	C125	C	0.622560	0.623900	0.997035
	C126	C	0.379077	0.624011	0.014763
	C127	C	0.378814	0.381427	0.997069
	C128	C	0.009548	0.624485	0.383808
	C129	C	0.992683	0.624313	0.627257
	C130	C	0.009141	0.380883	0.627673
	C131	C	0.992295	0.381186	0.383842
	C132	C	0.880326	0.511325	0.126799
	C133	C	0.122837	0.493855	0.127652
	C134	C	0.122388	0.512057	0.884728
	C135	C	0.879240	0.493576	0.884144
	C136	C	0.121830	0.881878	0.513546
	C137	C	0.121488	0.124690	0.495594
	C138	C	0.878369	0.124581	0.513654
	C139	C	0.878310	0.881185	0.497190
	C140	C	0.509078	0.124648	0.883871
	C141	C	0.491116	0.124681	0.127779
	C142	C	0.508390	0.881356	0.127107
	C143	C	0.491920	0.880661	0.882597
	C144	C	0.382044	0.887943	0.680584
	C145	C	0.619694	0.118552	0.681559
	C146	C	0.617522	0.886942	0.330677
	C147	C	0.380975	0.117921	0.328570
	C148	C	0.677781	0.382877	0.891655
	C149	C	0.678809	0.623308	0.120314
	C150	C	0.323556	0.621959	0.891302
	C151	C	0.324936	0.383872	0.120815
	C152	C	0.885987	0.678713	0.386832
	C153	C	0.115969	0.679140	0.624439
	C154	C	0.885520	0.327282	0.623356
	C155	C	0.115645	0.326525	0.387633
	C156	C	0.886354	0.383630	0.682582
	C157	C	0.115944	0.621716	0.682520
	C158	C	0.886630	0.622227	0.327997
	C159	C	0.115946	0.383959	0.330211
	C160	C	0.382099	0.678017	0.890514
	C161	C	0.619176	0.678389	0.120818
	C162	C	0.619132	0.326555	0.891006
	C163	C	0.383290	0.327392	0.121083
	C164	C	0.676637	0.887527	0.386028
	C165	C	0.677350	0.118180	0.625043
	C166	C	0.324249	0.888259	0.623458
	C167	C	0.323559	0.118058	0.385050
	C168	C	0.883357	0.387021	0.181317
	C169	C	0.119477	0.618313	0.182005
	C170	C	0.119342	0.387410	0.830509
	C171	C	0.882403	0.618283	0.830166
	C172	C	0.175399	0.884410	0.389675
	C173	C	0.177284	0.123079	0.619049
	C174	C	0.822768	0.122840	0.390314
	C175	C	0.824493	0.884368	0.620829
	C176	C	0.385758	0.179241	0.886412
	C177	C	0.615282	0.178049	0.124694
	C178	C	0.384989	0.826457	0.122463
	C179	C	0.615525	0.825999	0.886640
	C180	C	0.384763	0.883458	0.180960
	C181	C	0.614313	0.121688	0.183690
	C182	C	0.386150	0.122316	0.828097
	C183	C	0.615334	0.883321	0.828371
	C184	C	0.881022	0.179366	0.389935
	C185	C	0.118067	0.178184	0.620281
	C186	C	0.117003	0.827681	0.389544
	C187	C	0.881973	0.826942	0.620954
	C188	C	0.176487	0.387553	0.887712
	C189	C	0.176829	0.618257	0.125351
	C190	C	0.825243	0.387349	0.124899
	C191	C	0.824509	0.617902	0.886888
	C192	C	0.400819	0.098870	0.604199
	C193	C	0.599919	0.907604	0.604493
	C194	C	0.599225	0.098148	0.407005
	C195	C	0.399138	0.906841	0.405189
	C196	C	0.601373	0.403323	0.101276
	C197	C	0.600269	0.601206	0.910592
	C198	C	0.400721	0.602370	0.101341
	C199	C	0.399992	0.403670	0.910798
	C200	C	0.096166	0.603381	0.405220
	C201	C	0.906466	0.602342	0.605592
	C202	C	0.095532	0.402612	0.606322
	C203	C	0.906404	0.403719	0.405309
	C204	C	0.902317	0.597919	0.104370
	C205	C	0.101280	0.406896	0.105783
	C206	C	0.100606	0.598692	0.906626
	C207	C	0.901258	0.407024	0.906138
	C208	C	0.100882	0.903985	0.600049
	C209	C	0.099735	0.102657	0.409186
	C210	C	0.900486	0.102577	0.600123
	C211	C	0.899555	0.903400	0.410498
	C212	C	0.595316	0.102835	0.905781
	C213	C	0.405181	0.102910	0.105495
	C214	C	0.594439	0.903701	0.106229
	C215	C	0.406025	0.902910	0.904210
	Zn216	Zn	0.501080	0.003589	0.754301
	Zn217	Zn	0.499769	0.002353	0.256582
	Zn218	Zn	0.751302	0.503021	0.006026
	Zn219	Zn	0.250361	0.503178	0.006506
	Zn220	Zn	0.000326	0.753230	0.505810
	Zn221	Zn	0.000039	0.252446	0.504924
	Zn222	Zn	0.001321	0.503208	0.756931
	Zn223	Zn	0.001496	0.502407	0.254922
	Zn224	Zn	0.500812	0.751999	0.005290
	Zn225	Zn	0.500363	0.253017	0.005943
	Zn226	Zn	0.749509	0.003050	0.505207
	Zn227	Zn	0.249912	0.003681	0.504232
	N228	N	0.415490	0.966031	0.682139
	N229	N	0.585917	0.040443	0.682782
	N230	N	0.583845	0.964966	0.329665
	N231	N	0.414014	0.039588	0.327218
	N232	N	0.680017	0.416212	0.969740
	N233	N	0.681118	0.590294	0.042161
	N234	N	0.321489	0.589297	0.969545
	N235	N	0.321982	0.416742	0.042726
	N236	N	0.963408	0.680302	0.420601
	N237	N	0.038249	0.680733	0.590753
	N238	N	0.963070	0.325396	0.589968
	N239	N	0.037798	0.324923	0.420299
	N240	N	0.964219	0.416432	0.685248
	N241	N	0.038307	0.588697	0.684578
	N242	N	0.964508	0.589178	0.326125
	N243	N	0.038240	0.417327	0.327713
	N244	N	0.415920	0.679440	0.968244
	N245	N	0.585034	0.678767	0.043179
	N246	N	0.585987	0.325094	0.968729
	N247	N	0.416190	0.326050	0.043190
	N248	N	0.678716	0.966013	0.419177
	N249	N	0.678886	0.039957	0.591575
	N250	N	0.322213	0.966403	0.589967
	N251	N	0.321328	0.039809	0.418333
	N252	N	0.917048	0.465113	0.182365
	N253	N	0.086547	0.540020	0.183392
	N254	N	0.086641	0.465757	0.828750
	N255	N	0.915851	0.540084	0.828461
	N256	N	0.178384	0.917434	0.467813
	N257	N	0.179351	0.090387	0.540734
	N258	N	0.820895	0.089438	0.468268
	N259	N	0.822223	0.917456	0.542885
	N260	N	0.463306	0.180789	0.920188
	N261	N	0.537656	0.180300	0.091003
	N262	N	0.462792	0.824884	0.089907
	N263	N	0.537910	0.824035	0.919451
	N264	N	0.462306	0.917043	0.183745
	N265	N	0.536327	0.089359	0.185999
	N266	N	0.463860	0.089052	0.826398
	N267	N	0.537535	0.916706	0.825873
	N268	N	0.914623	0.180610	0.467656
	N269	N	0.083965	0.179271	0.542666
	N270	N	0.084413	0.825993	0.467484
	N271	N	0.914758	0.825001	0.542879
	N272	N	0.178691	0.466033	0.920961
	N273	N	0.179025	0.539704	0.092069
	N274	N	0.823318	0.465612	0.091659
	N275	N	0.822329	0.539436	0.919558
	O276	O	0.503180	0.495651	0.588789
	H277	H	0.502040	0.493560	0.589793
	H278	H	0.494626	0.493830	0.587937
	O279	O	-0.028339	-0.011232	0.000242
	H280	H	-0.037555	-0.010338	-0.004955
	H281	H	-0.032229	-0.013204	-0.006102
	O282	O	0.524417	0.525209	0.478799
	H283	H	0.521486	0.521289	0.472777
	H284	H	0.524998	0.527069	0.480023
	O285	O	0.507259	0.487144	0.458672
	H286	H	0.502829	0.490365	0.466027
	H287	H	0.511474	0.494122	0.458181
	O288	O	0.950862	-0.036986	-0.043333
	H289	H	0.956656	-0.047294	-0.049080
	H290	H	0.955181	-0.037394	-0.048055
	O291	O	-0.406250	0.488144	-0.439736
	H292	H	-0.404374	0.481758	-0.435494
	H293	H	-0.399560	0.484080	-0.441339
	O294	O	0.561601	0.530104	0.555266
	H295	H	0.569226	0.544685	0.553040
	H296	H	0.562428	0.529071	0.565379
	O297	O	0.604115	1.496478	-0.467637
	H298	H	0.604947	1.491112	-0.468940
	H299	H	0.598296	1.501450	-0.469065
	O300	O	1.006538	-0.033078	1.007771
	H301	H	1.009279	-0.034830	1.013409
	H302	H	1.006085	-0.024685	1.011618
	O303	O	0.505882	0.541187	0.491484
	H304	H	0.510910	0.542099	0.493318
	H305	H	0.503090	0.548079	0.489597
	O306	O	-0.015634	0.992585	0.961863
	H307	H	-0.017625	0.992154	0.959937
	H308	H	-0.016417	0.995961	0.969728
	O309	O	0.565898	0.460061	0.527917
	H310	H	0.572534	0.459998	0.522859
	H311	H	0.570002	0.446286	0.525301
