data_Molecule from HDF5

_cell_length_a		16.426941
_cell_length_b		16.261663
_cell_length_c		16.039519
_cell_angle_alpha	90.320167
_cell_angle_beta	89.900236
_cell_angle_gamma	89.727808
_symmetry_space_group_name_H-M	'P 1'
_symmetry_Int_Tables_number		1

loop_
	_symmetry_equiv_pos_as_xyz
	x,y,z

loop_
	_atom_site_label
	_atom_site_type_symbol
	_atom_site_fract_x
	_atom_site_fract_y
	_atom_site_fract_z
	H0	H	0.408043	0.834185	0.712653
	H1	H	0.600649	0.161960	0.711883
	H2	H	0.608187	0.835361	0.280268
	H3	H	0.408495	0.161248	0.288611
	H4	H	0.722184	0.394348	0.834167
	H5	H	0.723704	0.601475	0.161809
	H6	H	0.285989	0.602896	0.835865
	H7	H	0.287671	0.394778	0.161326
	H8	H	0.843962	0.716779	0.394344
	H9	H	0.164298	0.716088	0.604294
	H10	H	0.842747	0.278556	0.599104
	H11	H	0.165172	0.273654	0.392974
	H12	H	0.841770	0.397991	0.713714
	H13	H	0.166119	0.595680	0.715597
	H14	H	0.841263	0.593691	0.284361
	H15	H	0.166004	0.393783	0.279922
	H16	H	0.406295	0.712262	0.832579
	H17	H	0.605974	0.713655	0.162725
	H18	H	0.606466	0.281664	0.834177
	H19	H	0.407236	0.285772	0.163947
	H20	H	0.722904	0.835425	0.393864
	H21	H	0.724759	0.157484	0.604340
	H22	H	0.287682	0.836511	0.605349
	H23	H	0.283748	0.156312	0.394007
	H24	H	0.907213	0.332032	0.209887
	H25	H	0.100648	0.659414	0.214391
	H26	H	0.104593	0.333289	0.783359
	H27	H	0.907248	0.660417	0.786339
	H28	H	0.224406	0.889065	0.336246
	H29	H	0.219224	0.097914	0.663308
	H30	H	0.787037	0.098010	0.334436
	H31	H	0.787387	0.892741	0.661515
	H32	H	0.344086	0.216403	0.898266
	H33	H	0.667445	0.217578	0.101320
	H34	H	0.345926	0.779886	0.102347
	H35	H	0.666442	0.777746	0.893346
	H36	H	0.344446	0.901158	0.214674
	H37	H	0.667771	0.098635	0.216870
	H38	H	0.342417	0.096828	0.785352
	H39	H	0.667713	0.899582	0.782552
	H40	H	0.905390	0.208070	0.332616
	H41	H	0.103270	0.210200	0.662745
	H42	H	0.104955	0.779127	0.334726
	H43	H	0.905366	0.782814	0.664000
	H44	H	0.226558	0.336970	0.892678
	H45	H	0.221916	0.658310	0.104998
	H46	H	0.787331	0.335729	0.100955
	H47	H	0.786592	0.656744	0.892092
	H48	H	0.414765	0.114115	0.593146
	H49	H	0.608698	0.879873	0.582381
	H50	H	0.594894	0.108924	0.421299
	H51	H	0.417053	0.881916	0.410025
	H52	H	0.606484	0.410182	0.118393
	H53	H	0.605419	0.590936	0.876283
	H54	H	0.416433	0.586904	0.113450
	H55	H	0.413939	0.396114	0.876193
	H56	H	0.117065	0.588159	0.413214
	H57	H	0.890285	0.589110	0.589468
	H58	H	0.122447	0.393978	0.591695
	H59	H	0.885648	0.391887	0.401708
	H60	H	0.116496	0.403307	0.581388
	H61	H	0.889878	0.588620	0.591561
	H62	H	0.117341	0.581705	0.405986
	H63	H	0.892952	0.402222	0.416883
	H64	H	0.414529	0.593191	0.117276
	H65	H	0.598627	0.578116	0.883887
	H66	H	0.593393	0.416242	0.112932
	H67	H	0.405656	0.417901	0.880988
	H68	H	0.608218	0.116821	0.409105
	H69	H	0.598420	0.876725	0.601598
	H70	H	0.410036	0.112255	0.584763
	H71	H	0.410833	0.879846	0.409864
	H72	H	0.904091	0.613468	0.082327
	H73	H	0.097475	0.377546	0.095623
	H74	H	0.090834	0.609382	0.917500
	H75	H	0.916613	0.377831	0.899078
	H76	H	0.091538	0.911373	0.613310
	H77	H	0.095207	0.080826	0.381764
	H78	H	0.910073	0.090552	0.618562
	H79	H	0.913795	0.913385	0.382811
	H80	H	0.619995	0.096019	0.914307
	H81	H	0.391702	0.093448	0.089217
	H82	H	0.620398	0.903602	0.084093
	H83	H	0.388533	0.901437	0.904453
	H84	H	0.619001	0.910984	0.087700
	H85	H	0.392383	0.091190	0.091760
	H86	H	0.617807	0.081803	0.907513
	H87	H	0.391046	0.903774	0.910110
	H88	H	0.910721	0.080518	0.614321
	H89	H	0.095544	0.085042	0.380668
	H90	H	0.094413	0.897882	0.619125
	H91	H	0.921630	0.902546	0.382994
	H92	H	0.107971	0.617054	0.909851
	H93	H	0.090399	0.383859	0.081802
	H94	H	0.909145	0.617727	0.100544
	H95	H	0.917163	0.382984	0.914004
	H96	H	0.405601	0.116098	0.591482
	H97	H	0.588151	0.885500	0.584414
	H98	H	0.589943	0.113577	0.401426
	H99	H	0.414765	0.879664	0.404667
	H100	H	0.594098	0.401181	0.117799
	H101	H	0.589842	0.592095	0.881611
	H102	H	0.410368	0.587987	0.116951
	H103	H	0.427751	0.412830	0.886529
	H104	H	0.120447	0.590721	0.404634
	H105	H	0.889186	0.590116	0.590549
	H106	H	0.119075	0.407710	0.595219
	H107	H	0.890628	0.410522	0.399606
	H108	H	0.922292	0.609210	0.087532
	H109	H	0.107082	0.379352	0.081183
	H110	H	0.092033	0.614826	0.897846
	H111	H	0.904640	0.377541	0.907814
	H112	H	0.104432	0.907987	0.619825
	H113	H	0.099055	0.082563	0.380021
	H114	H	0.918953	0.086422	0.614554
	H115	H	0.908893	0.901604	0.377739
	H116	H	0.623888	0.094225	0.898108
	H117	H	0.390557	0.094019	0.092448
	H118	H	0.622952	0.904276	0.092152
	H119	H	0.390780	0.907057	0.905028
	C120	C	0.382836	0.006415	0.620426
	C121	C	0.627140	0.988350	0.620041
	C122	C	0.627433	0.005998	0.378728
	C123	C	0.384139	0.987858	0.378172
	C124	C	0.627601	0.377422	0.007709
	C125	C	0.628053	0.618443	0.988868
	C126	C	0.384087	0.619343	0.007160
	C127	C	0.385699	0.378594	0.989701
	C128	C	0.011836	0.617326	0.377728
	C129	C	0.996041	0.618908	0.621448
	C130	C	0.012624	0.372982	0.620006
	C131	C	0.996279	0.371597	0.375107
	C132	C	0.882615	0.505652	0.119658
	C133	C	0.126439	0.487643	0.118733
	C134	C	0.127384	0.506240	0.876917
	C135	C	0.883723	0.487232	0.876890
	C136	C	0.126938	0.874170	0.508579
	C137	C	0.125591	0.114407	0.489406
	C138	C	0.883190	0.116020	0.506918
	C139	C	0.884567	0.875378	0.489729
	C140	C	0.513778	0.120468	0.876964
	C141	C	0.497912	0.122492	0.122023
	C142	C	0.514579	0.876663	0.119221
	C143	C	0.497116	0.875167	0.875893
	C144	C	0.386717	0.883473	0.676295
	C145	C	0.623176	0.112157	0.675594
	C146	C	0.626969	0.883833	0.319500
	C147	C	0.386567	0.111391	0.324159
	C148	C	0.684028	0.375780	0.883750
	C149	C	0.685231	0.619742	0.112437
	C150	C	0.325876	0.620539	0.884213
	C151	C	0.327259	0.377064	0.112739
	C152	C	0.891503	0.676228	0.376956
	C153	C	0.116520	0.676227	0.622210
	C154	C	0.891163	0.317010	0.619039
	C155	C	0.117071	0.313267	0.373851
	C156	C	0.890699	0.376633	0.676169
	C157	C	0.117672	0.616259	0.677701
	C158	C	0.890055	0.614892	0.321941
	C159	C	0.117492	0.372833	0.317528
	C160	C	0.385779	0.674940	0.882584
	C161	C	0.626661	0.675612	0.113194
	C162	C	0.626583	0.319819	0.883531
	C163	C	0.386676	0.322834	0.114057
	C164	C	0.684523	0.883938	0.375699
	C165	C	0.684904	0.109797	0.622116
	C166	C	0.326704	0.884431	0.622607
	C167	C	0.324483	0.108840	0.376800
	C168	C	0.886068	0.381898	0.173830
	C169	C	0.122576	0.610386	0.176659
	C170	C	0.125799	0.382934	0.820431
	C171	C	0.886219	0.610705	0.822215
	C172	C	0.184951	0.871781	0.385184
	C173	C	0.180892	0.115921	0.613866
	C174	C	0.825975	0.116227	0.383385
	C175	C	0.826789	0.874562	0.612919
	C176	C	0.392175	0.177531	0.878375
	C177	C	0.619093	0.179065	0.121247
	C178	C	0.393613	0.819681	0.120211
	C179	C	0.618381	0.817462	0.875001
	C180	C	0.393037	0.879832	0.176434
	C181	C	0.619485	0.119642	0.178311
	C182	C	0.391295	0.117815	0.822537
	C183	C	0.618971	0.878300	0.819816
	C184	C	0.884739	0.171366	0.382532
	C185	C	0.123612	0.172275	0.613523
	C186	C	0.125784	0.816701	0.384443
	C187	C	0.885339	0.819839	0.614054
	C188	C	0.186302	0.384661	0.875001
	C189	C	0.182884	0.609715	0.122242
	C190	C	0.826302	0.383694	0.119497
	C191	C	0.826071	0.608890	0.875132
	C192	C	0.404061	0.091895	0.596641
	C193	C	0.604918	0.902945	0.596346
	C194	C	0.604403	0.090984	0.403457
	C195	C	0.407576	0.902784	0.401261
	C196	C	0.604689	0.402022	0.093983
	C197	C	0.604902	0.594293	0.902884
	C198	C	0.407180	0.596084	0.093273
	C199	C	0.408943	0.402141	0.903635
	C200	C	0.096538	0.593846	0.401165
	C201	C	0.911492	0.595977	0.597439
	C202	C	0.097376	0.394974	0.596429
	C203	C	0.911690	0.394798	0.399018
	C204	C	0.905371	0.591235	0.096848
	C205	C	0.104558	0.402504	0.093604
	C206	C	0.103918	0.591539	0.901289
	C207	C	0.906239	0.401611	0.900139
	C208	C	0.103783	0.898669	0.594905
	C209	C	0.103210	0.089961	0.403180
	C210	C	0.906541	0.092834	0.593532
	C211	C	0.907980	0.899025	0.403431
	C212	C	0.598555	0.097617	0.899692
	C213	C	0.413407	0.099557	0.098270
	C214	C	0.599008	0.899421	0.095016
	C215	C	0.412225	0.897405	0.899550
	Zn216	Zn	0.504216	-0.001543	0.747504
	Zn217	Zn	0.506644	-0.002050	0.250198
	Zn218	Zn	0.755755	0.496740	-0.002660
	Zn219	Zn	0.256235	0.497999	-0.001184
	Zn220	Zn	0.004359	0.747934	0.499516
	Zn221	Zn	0.005060	0.242324	0.497347
	Zn222	Zn	0.003852	0.496778	0.749611
	Zn223	Zn	0.004300	0.495726	0.247064
	Zn224	Zn	0.506176	0.745915	-0.002177
	Zn225	Zn	0.505997	0.250831	-0.001482
	Zn226	Zn	0.756157	-0.004501	0.498330
	Zn227	Zn	0.254834	-0.004368	0.499455
	N228	N	0.420746	0.960361	0.675022
	N229	N	0.588015	0.035625	0.674659
	N230	N	0.592032	0.960808	0.320933
	N231	N	0.422959	0.035148	0.324643
	N232	N	0.684748	0.410951	0.961948
	N233	N	0.686437	0.584970	0.033983
	N234	N	0.324625	0.586710	0.962643
	N235	N	0.326627	0.411173	0.034429
	N236	N	0.968496	0.677759	0.410787
	N237	N	0.039961	0.677732	0.587788
	N238	N	0.968020	0.314594	0.584779
	N239	N	0.040679	0.312329	0.408938
	N240	N	0.967237	0.410719	0.676927
	N241	N	0.041589	0.581387	0.677318
	N242	N	0.965852	0.578751	0.322414
	N243	N	0.041285	0.408324	0.318002
	N244	N	0.421154	0.674551	0.960174
	N245	N	0.591892	0.675130	0.035553
	N246	N	0.592215	0.320477	0.961556
	N247	N	0.422682	0.323689	0.036726
	N248	N	0.684746	0.960680	0.411938
	N249	N	0.687646	0.031868	0.588515
	N250	N	0.323914	0.961862	0.588559
	N251	N	0.322855	0.030927	0.409725
	N252	N	0.920443	0.458908	0.174158
	N253	N	0.088176	0.533411	0.174707
	N254	N	0.090048	0.459508	0.821331
	N255	N	0.921312	0.533892	0.823000
	N256	N	0.185842	0.906725	0.463542
	N257	N	0.182034	0.080498	0.535745
	N258	N	0.824894	0.082676	0.462038
	N259	N	0.826382	0.908716	0.534625
	N260	N	0.469275	0.179399	0.911677
	N261	N	0.542395	0.180813	0.086912
	N262	N	0.470264	0.817522	0.085605
	N263	N	0.541458	0.815380	0.909256
	N264	N	0.469214	0.914706	0.175849
	N265	N	0.543012	0.085502	0.179204
	N266	N	0.467756	0.082933	0.821673
	N267	N	0.542566	0.913021	0.820003
	N268	N	0.919717	0.171229	0.460315
	N269	N	0.089915	0.171611	0.535234
	N270	N	0.090647	0.817839	0.462235
	N271	N	0.920474	0.820135	0.536467
	N272	N	0.187480	0.462407	0.909362
	N273	N	0.185600	0.532327	0.087363
	N274	N	0.824001	0.461612	0.086617
	N275	N	0.824307	0.531036	0.908406
	O276	O	0.123345	0.014914	0.069009
	H277	H	0.124377	0.018202	0.054170
	H278	H	0.115236	0.021100	0.062494
	O279	O	0.341773	0.587478	0.478441
	H280	H	0.330404	0.596040	0.460781
	H281	H	0.343391	0.594345	0.472357
	O282	O	0.944213	0.158698	-0.014362
	H283	H	0.957596	0.150362	-0.029247
	H284	H	0.935079	0.169538	-0.014467
	O285	O	-0.112955	0.945935	-0.023986
	H286	H	-0.114067	0.935783	-0.028847
	H287	H	-0.104579	0.942918	-0.000602
	O288	O	0.482565	0.575053	0.475305
	H289	H	0.482120	0.588890	0.477565
	H290	H	0.490922	0.575070	0.474681
	O291	O	0.450245	0.370820	0.648913
	H292	H	0.440816	0.375048	0.649064
	H293	H	0.464675	0.369857	0.655640
	O294	O	0.916750	1.047041	1.002069
	H295	H	0.913175	1.060148	0.998922
	H296	H	0.920128	1.043612	1.001401
	O297	O	-0.003463	-0.075811	-0.013612
	H298	H	-0.007548	-0.084483	-0.020871
	H299	H	0.010247	-0.065860	-0.009081
	O300	O	0.396040	0.568377	0.494639
	H301	H	0.411486	0.581973	0.486385
	H302	H	0.396078	0.580244	0.482832
	O303	O	0.054841	1.027113	1.037324
	H304	H	0.063684	1.026524	1.031267
	H305	H	0.054828	1.037788	1.053289
	O306	O	0.442900	0.479571	0.445591
	H307	H	0.450090	0.483518	0.452785
	H308	H	0.430416	0.473415	0.440294
	O309	O	1.135619	0.023825	-0.044664
	H310	H	1.132732	0.016275	-0.050337
	H311	H	1.135137	0.032594	-0.054999
	O312	O	-0.008859	0.056463	0.878427
	H313	H	-0.021453	0.057948	0.883109
	H314	H	-0.019679	0.044637	0.883251
	O315	O	0.314934	0.491530	0.653072
	H316	H	0.306044	0.485525	0.653141
	H317	H	0.313479	0.504226	0.651454
	O318	O	0.662557	0.319166	0.378568
	H319	H	0.661531	0.318924	0.381136
	H320	H	0.677650	0.321226	0.372285
	O321	O	0.575751	0.527558	0.607492
	H322	H	0.587130	0.524633	0.614487
	H323	H	0.574704	0.534038	0.620494
	O324	O	0.553291	0.494611	0.467398
	H325	H	0.551307	0.504429	0.466866
	H326	H	0.543383	0.490622	0.466116
	O327	O	0.075423	0.882550	1.023874
	H328	H	0.081022	0.879477	1.028362
	H329	H	0.078380	0.882726	1.023134
	O330	O	0.379078	0.568948	0.553408
	H331	H	0.372526	0.567127	0.536689
	H332	H	0.382323	0.570265	0.558604
	O333	O	0.031044	1.081819	0.993203
	H334	H	0.022825	1.097080	0.989256
	H335	H	0.017852	1.077019	0.993224
	O336	O	0.994196	0.999439	0.870333
	H337	H	0.985897	0.993060	0.860252
	H338	H	0.991518	1.001162	0.869700
	O339	O	0.432601	0.372543	0.371134
	H340	H	0.416139	0.375907	0.377612
	H341	H	0.435156	0.382628	0.374617
	O342	O	0.915591	-0.093059	0.088414
	H343	H	0.911906	-0.083385	0.095424
	H344	H	0.910266	-0.088980	0.082925
	O345	O	0.572946	0.431663	0.349576
	H346	H	0.576330	0.429967	0.366532
	H347	H	0.582929	0.432480	0.335513
	O348	O	0.912769	1.076522	0.919983
	H349	H	0.912189	1.069364	0.920837
	H350	H	0.919092	1.072556	0.915243
	O351	O	0.928827	0.893423	-0.043747
	H352	H	0.924120	0.890500	-0.023746
	H353	H	0.926184	0.895034	-0.036718
	O354	O	0.413551	0.447071	0.616374
	H355	H	0.397494	0.455225	0.619500
	H356	H	0.407336	0.454225	0.629606
	O357	O	0.616584	0.644660	0.537266
	H358	H	0.624393	0.643213	0.542957
	H359	H	0.607498	0.649712	0.542684
	O360	O	-0.015602	-0.038054	0.038228
	H361	H	-0.005736	-0.037340	0.028078
	H362	H	-0.021935	-0.043263	0.034810
	O363	O	0.454118	0.656862	0.475692
	H364	H	0.453115	0.654376	0.485962
	H365	H	0.452553	0.658678	0.460718
	O366	O	-0.038154	-0.000585	0.967716
	H367	H	-0.025460	0.006829	0.973002
	H368	H	-0.052669	0.000169	0.961516
	O369	O	0.655242	0.462584	0.482909
	H370	H	0.655680	0.458721	0.474491
	H371	H	0.659756	0.465377	0.485884
	O372	O	0.552813	0.576026	0.598891
	H373	H	0.546510	0.565068	0.592243
	H374	H	0.546959	0.574210	0.605218
	O375	O	0.583027	0.573526	0.403420
	H376	H	0.592240	0.562486	0.409281
	H377	H	0.579277	0.560721	0.393388
	O378	O	0.577100	0.536744	0.523823
	H379	H	0.567334	0.524627	0.531572
	H380	H	0.589174	0.535577	0.503917
	O381	O	0.434979	0.370672	0.499712
	H382	H	0.436514	0.368031	0.499812
	H383	H	0.439653	0.365809	0.506025
	O384	O	0.115243	1.036315	0.119069
	H385	H	0.123935	1.049365	0.116045
	H386	H	0.123416	1.045989	0.129697
	O387	O	1.050532	0.044631	1.087332
	H388	H	1.052538	0.041856	1.090413
	H389	H	1.056551	0.042209	1.082207
	O390	O	-0.062600	0.965451	0.021502
	H391	H	-0.080526	0.973353	0.026770
	H392	H	-0.047482	0.974567	0.008590
	O393	O	1.063560	1.114632	0.049744
	H394	H	1.070990	1.116367	0.053327
	H395	H	1.058656	1.117105	0.049646
	O396	O	0.536086	0.508183	0.399372
	H397	H	0.536612	0.505634	0.414524
	H398	H	0.539238	0.506603	0.396086
	O399	O	0.020230	0.827267	0.949109
	H400	H	0.009670	0.822956	0.956214
	H401	H	0.022217	0.830572	0.951347
	O402	O	0.507519	1.494056	0.455761
	H403	H	0.494983	1.504336	0.468942
	H404	H	0.488252	1.491092	0.461525
	O405	O	0.479048	0.495018	0.425653
	H406	H	0.472162	0.489108	0.413833
	H407	H	0.493893	0.496916	0.412394
