data_Molecule from HDF5

_cell_length_a		16.526589
_cell_length_b		16.354138
_cell_length_c		16.535967
_cell_angle_alpha	90.106078
_cell_angle_beta	89.983784
_cell_angle_gamma	90.151201
_symmetry_space_group_name_H-M	'P 1'
_symmetry_Int_Tables_number		1

loop_
	_symmetry_equiv_pos_as_xyz
	x,y,z

loop_
	_atom_site_label
	_atom_site_type_symbol
	_atom_site_fract_x
	_atom_site_fract_y
	_atom_site_fract_z
	H0	H	0.407690	0.842919	0.726039
	H1	H	0.622021	0.159868	0.725016
	H2	H	0.624661	0.843013	0.279535
	H3	H	0.411628	0.157746	0.282954
	H4	H	0.741599	0.392083	0.848062
	H5	H	0.739297	0.609247	0.160963
	H6	H	0.292484	0.609125	0.846288
	H7	H	0.292704	0.395244	0.158771
	H8	H	0.857957	0.722695	0.399358
	H9	H	0.172095	0.726603	0.610687
	H10	H	0.858122	0.280685	0.608211
	H11	H	0.173213	0.282996	0.400316
	H12	H	0.859969	0.393847	0.727176
	H13	H	0.172038	0.612309	0.728357
	H14	H	0.859850	0.611435	0.278707
	H15	H	0.172168	0.396932	0.282162
	H16	H	0.409898	0.724070	0.845835
	H17	H	0.621898	0.724184	0.160829
	H18	H	0.621599	0.279006	0.845831
	H19	H	0.412294	0.281335	0.159737
	H20	H	0.739884	0.842641	0.395396
	H21	H	0.737195	0.159706	0.608728
	H22	H	0.290463	0.843821	0.611679
	H23	H	0.296709	0.158900	0.398897
	H24	H	0.912267	0.343457	0.223685
	H25	H	0.124884	0.661275	0.228175
	H26	H	0.121752	0.345895	0.781338
	H27	H	0.907487	0.659470	0.780273
	H28	H	0.241857	0.891098	0.348052
	H29	H	0.237261	0.108049	0.659021
	H30	H	0.792953	0.106846	0.346116
	H31	H	0.792331	0.894744	0.659929
	H32	H	0.358491	0.219184	0.901028
	H33	H	0.672942	0.224691	0.110038
	H34	H	0.360368	0.775824	0.111936
	H35	H	0.674806	0.781227	0.899348
	H36	H	0.360744	0.889776	0.229502
	H37	H	0.672942	0.107732	0.226770
	H38	H	0.360805	0.107736	0.780871
	H39	H	0.672631	0.893809	0.780176
	H40	H	0.912231	0.220151	0.344066
	H41	H	0.117801	0.222880	0.659454
	H42	H	0.122651	0.778222	0.346835
	H43	H	0.911729	0.781588	0.660960
	H44	H	0.234069	0.343471	0.901193
	H45	H	0.240597	0.661649	0.112313
	H46	H	0.794470	0.343903	0.111367
	H47	H	0.791582	0.658741	0.895736
	H48	H	0.435611	0.112859	0.596110
	H49	H	0.605357	0.887185	0.590838
	H50	H	0.597822	0.112763	0.411350
	H51	H	0.427253	0.884619	0.414903
	H52	H	0.602387	0.412623	0.114729
	H53	H	0.606475	0.591456	0.890924
	H54	H	0.429163	0.585882	0.112920
	H55	H	0.425295	0.412230	0.890036
	H56	H	0.128162	0.588316	0.411961
	H57	H	0.904846	0.591832	0.589301
	H58	H	0.127527	0.415333	0.590539
	H59	H	0.903371	0.417946	0.411954
	H60	H	0.127325	0.415364	0.594463
	H61	H	0.905401	0.585985	0.592889
	H62	H	0.128626	0.593347	0.416813
	H63	H	0.899758	0.409974	0.408215
	H64	H	0.429916	0.589978	0.114791
	H65	H	0.606606	0.586535	0.892069
	H66	H	0.607781	0.412252	0.117020
	H67	H	0.426715	0.411821	0.889856
	H68	H	0.605292	0.111160	0.423591
	H69	H	0.602929	0.887961	0.593540
	H70	H	0.427120	0.110710	0.584126
	H71	H	0.432696	0.888485	0.417288
	H72	H	0.930047	0.615855	0.092746
	H73	H	0.106714	0.390382	0.092143
	H74	H	0.098445	0.615870	0.912797
	H75	H	0.926304	0.387874	0.913299
	H76	H	0.099083	0.913661	0.613705
	H77	H	0.110071	0.090858	0.388110
	H78	H	0.927060	0.100453	0.618850
	H79	H	0.924987	0.915396	0.391199
	H80	H	0.630032	0.091923	0.914346
	H81	H	0.403990	0.090169	0.091765
	H82	H	0.625274	0.912051	0.082681
	H83	H	0.404871	0.911025	0.918249
	H84	H	0.625139	0.923749	0.096255
	H85	H	0.405395	0.087173	0.095368
	H86	H	0.628450	0.087845	0.916793
	H87	H	0.406205	0.917010	0.914603
	H88	H	0.916736	0.086431	0.616949
	H89	H	0.105740	0.088758	0.390780
	H90	H	0.107255	0.913585	0.616574
	H91	H	0.929121	0.916441	0.392764
	H92	H	0.104485	0.614657	0.921792
	H93	H	0.103589	0.390564	0.094811
	H94	H	0.928509	0.614397	0.089036
	H95	H	0.932840	0.390041	0.914586
	H96	H	0.421538	0.117494	0.596546
	H97	H	0.602274	0.888437	0.589798
	H98	H	0.611494	0.117127	0.411645
	H99	H	0.426791	0.888271	0.420733
	H100	H	0.606223	0.417110	0.113497
	H101	H	0.602253	0.589465	0.893700
	H102	H	0.426100	0.588205	0.114448
	H103	H	0.425331	0.411004	0.889267
	H104	H	0.125073	0.587174	0.418037
	H105	H	0.902573	0.591465	0.595679
	H106	H	0.128425	0.412852	0.592253
	H107	H	0.902609	0.410561	0.417067
	H108	H	0.926223	0.616724	0.091149
	H109	H	0.102700	0.391717	0.091021
	H110	H	0.108764	0.619266	0.913457
	H111	H	0.927790	0.390107	0.919697
	H112	H	0.104213	0.920893	0.612352
	H113	H	0.105926	0.093847	0.388890
	H114	H	0.932577	0.085705	0.611310
	H115	H	0.927751	0.912147	0.391601
	H116	H	0.629846	0.087218	0.912126
	H117	H	0.402264	0.091130	0.096146
	H118	H	0.632599	0.906575	0.098715
	H119	H	0.402453	0.911721	0.911983
	C120	C	0.394312	0.009358	0.625235
	C121	C	0.636065	0.992981	0.623853
	C122	C	0.637949	0.009305	0.382006
	C123	C	0.396407	0.991620	0.384036
	C124	C	0.638449	0.379614	0.012075
	C125	C	0.638160	0.622700	0.995843
	C126	C	0.395086	0.622566	0.011010
	C127	C	0.393885	0.379805	0.993753
	C128	C	0.024046	0.623568	0.382126
	C129	C	1.007196	0.624079	0.626167
	C130	C	0.024110	0.380973	0.624840
	C131	C	1.006510	0.381182	0.381573
	C132	C	0.895725	0.510725	0.124266
	C133	C	0.137958	0.495235	0.125643
	C134	C	0.136079	0.511622	0.883581
	C135	C	0.895095	0.493266	0.882561
	C136	C	0.137001	0.880920	0.511345
	C137	C	0.137751	0.123301	0.493658
	C138	C	0.893502	0.123099	0.511594
	C139	C	0.894463	0.881182	0.495293
	C140	C	0.525293	0.121511	0.882545
	C141	C	0.507784	0.122678	0.126520
	C142	C	0.524580	0.879222	0.125913
	C143	C	0.508009	0.879870	0.882049
	C144	C	0.390224	0.890448	0.685895
	C145	C	0.639082	0.112347	0.684261
	C146	C	0.641834	0.890317	0.320436
	C147	C	0.393680	0.110391	0.323019
	C148	C	0.700320	0.375234	0.894458
	C149	C	0.698758	0.626638	0.113764
	C150	C	0.333472	0.626812	0.893211
	C151	C	0.333618	0.377399	0.111817
	C152	C	0.905425	0.683645	0.380157
	C153	C	0.125059	0.686170	0.629023
	C154	C	0.905742	0.320315	0.626901
	C155	C	0.125558	0.322094	0.380742
	C156	C	0.906779	0.376715	0.686335
	C157	C	0.124792	0.629472	0.687816
	C158	C	0.906442	0.628301	0.320106
	C159	C	0.125279	0.379038	0.322305
	C160	C	0.392147	0.683954	0.893019
	C161	C	0.640144	0.683840	0.113890
	C162	C	0.640753	0.318747	0.893501
	C163	C	0.393143	0.320888	0.112600
	C164	C	0.699164	0.890146	0.378214
	C165	C	0.696706	0.112302	0.626572
	C166	C	0.331593	0.891117	0.629125
	C167	C	0.336446	0.110981	0.380776
	C168	C	0.893579	0.391514	0.184440
	C169	C	0.141858	0.614119	0.187072
	C170	C	0.138838	0.392553	0.822865
	C171	C	0.890425	0.611998	0.820997
	C172	C	0.199802	0.875165	0.394410
	C173	C	0.196803	0.126101	0.612278
	C174	C	0.833729	0.124810	0.392998
	C175	C	0.833134	0.877409	0.612997
	C176	C	0.406346	0.180553	0.881686
	C177	C	0.625876	0.183924	0.128448
	C178	C	0.407371	0.816525	0.129580
	C179	C	0.626772	0.819994	0.880168
	C180	C	0.407617	0.873340	0.188394
	C181	C	0.625869	0.125928	0.186545
	C182	C	0.407254	0.124862	0.822138
	C183	C	0.625868	0.876198	0.820965
	C184	C	0.892933	0.181587	0.392253
	C185	C	0.137909	0.183227	0.612250
	C186	C	0.140526	0.818600	0.393733
	C187	C	0.892547	0.821149	0.613616
	C188	C	0.194865	0.391666	0.881991
	C189	C	0.200006	0.613932	0.129640
	C190	C	0.835161	0.391532	0.127996
	C191	C	0.832579	0.611667	0.878594
	C192	C	0.420570	0.091956	0.599623
	C193	C	0.610809	0.909678	0.598516
	C194	C	0.612138	0.092004	0.408040
	C195	C	0.421634	0.908602	0.410195
	C196	C	0.612870	0.406300	0.093688
	C197	C	0.612644	0.596569	0.913639
	C198	C	0.420811	0.595791	0.092564
	C199	C	0.418550	0.404546	0.911196
	C200	C	0.105866	0.597203	0.407963
	C201	C	0.925683	0.597210	0.600139
	C202	C	0.106247	0.407200	0.599735
	C203	C	0.923663	0.405611	0.405560
	C204	C	0.921136	0.594081	0.098393
	C205	C	0.111925	0.412534	0.099848
	C206	C	0.110935	0.595125	0.908928
	C207	C	0.921378	0.410791	0.908435
	C208	C	0.111077	0.908217	0.592824
	C209	C	0.114068	0.098216	0.410817
	C210	C	0.918188	0.098134	0.594115
	C211	C	0.920144	0.907017	0.413226
	C212	C	0.608025	0.096061	0.907450
	C213	C	0.425452	0.096831	0.101569
	C214	C	0.606322	0.906406	0.100009
	C215	C	0.426048	0.905792	0.907575
	Zn216	Zn	0.516196	0.000769	0.753062
	Zn217	Zn	0.516360	-0.000064	0.255310
	Zn218	Zn	0.767297	0.501443	0.004275
	Zn219	Zn	0.265284	0.502904	0.003314
	Zn220	Zn	0.015829	0.752009	0.503169
	Zn221	Zn	0.015267	0.252092	0.502807
	Zn222	Zn	0.016344	0.502472	0.754144
	Zn223	Zn	0.015884	0.503220	0.253760
	Zn224	Zn	0.516643	0.751314	0.003037
	Zn225	Zn	0.516543	0.250733	0.003032
	Zn226	Zn	0.764937	0.001044	0.503282
	Zn227	Zn	0.266849	0.001704	0.503436
	N228	N	0.428381	0.965052	0.683729
	N229	N	0.602274	0.036914	0.682718
	N230	N	0.604635	0.965293	0.322619
	N231	N	0.430011	0.035016	0.324871
	N232	N	0.699032	0.412272	0.969053
	N233	N	0.697692	0.589383	0.039264
	N234	N	0.334858	0.589775	0.967736
	N235	N	0.333922	0.413371	0.036978
	N236	N	0.979347	0.680768	0.417936
	N237	N	0.050843	0.683383	0.591541
	N238	N	0.979772	0.322785	0.589242
	N239	N	0.050645	0.323097	0.416560
	N240	N	0.981315	0.413712	0.685124
	N241	N	0.050551	0.591609	0.686111
	N242	N	0.981413	0.591996	0.321054
	N243	N	0.050255	0.415131	0.322572
	N244	N	0.429528	0.681642	0.967285
	N245	N	0.603356	0.681650	0.039457
	N246	N	0.602917	0.321353	0.967529
	N247	N	0.429828	0.322075	0.038092
	N248	N	0.696931	0.965212	0.415835
	N249	N	0.694845	0.037070	0.589505
	N250	N	0.333944	0.966110	0.592023
	N251	N	0.337599	0.035736	0.417643
	N252	N	0.930647	0.466753	0.182230
	N253	N	0.103841	0.539372	0.184746
	N254	N	0.103042	0.468401	0.823812
	N255	N	0.928441	0.537413	0.823257
	N256	N	0.197963	0.913144	0.468564
	N257	N	0.197072	0.089737	0.537343
	N258	N	0.833657	0.089495	0.468324
	N259	N	0.834108	0.913749	0.538200
	N260	N	0.480784	0.178419	0.918581
	N261	N	0.551231	0.182265	0.091918
	N262	N	0.481082	0.820027	0.091328
	N263	N	0.552457	0.821969	0.917318
	N264	N	0.481776	0.911383	0.186272
	N265	N	0.551514	0.088577	0.185421
	N266	N	0.482352	0.088906	0.822639
	N267	N	0.550846	0.912284	0.821585
	N268	N	0.929251	0.180847	0.467035
	N269	N	0.102173	0.181583	0.537489
	N270	N	0.102290	0.822107	0.467402
	N271	N	0.929765	0.823122	0.539407
	N272	N	0.193314	0.466817	0.918793
	N273	N	0.197710	0.538954	0.092093
	N274	N	0.836294	0.467039	0.091514
	N275	N	0.835235	0.536795	0.916104
	O276	O	0.734856	0.582066	0.501504
	H277	H	0.729897	0.584079	0.526108
	H278	H	0.747428	0.582980	0.513265
	O279	O	0.486743	0.297482	0.599628
	H280	H	0.491728	0.286907	0.609111
	H281	H	0.486034	0.295722	0.591309
	O282	O	1.414186	1.509275	0.518577
	H283	H	1.413707	1.505124	0.512918
	H284	H	1.418999	1.502860	0.525781
	O285	O	0.740780	-0.271177	-0.272517
	H286	H	0.734921	-0.260636	-0.269151
	H287	H	0.751628	-0.280326	-0.281194
	O288	O	0.046667	-0.206329	0.023388
	H289	H	0.055093	-0.198721	0.032648
	H290	H	0.046007	-0.212471	0.048920
	O291	O	0.846605	0.957430	0.042078
	H292	H	0.845077	0.968930	0.030560
	H293	H	0.841794	0.959545	0.051761
	O294	O	-0.160395	0.820029	0.192457
	H295	H	-0.163515	0.824277	0.161586
	H296	H	-0.173514	0.858069	0.187125
	O297	O	0.316080	0.501489	0.485769
	H298	H	0.310090	0.512465	0.482065
	H299	H	0.316652	0.476906	0.466844
	O300	O	0.488095	0.328426	0.455568
	H301	H	0.478299	0.334597	0.455647
	H302	H	0.474225	0.328756	0.456330
	O303	O	0.352680	0.257469	0.731438
	H304	H	0.334922	0.235819	0.756667
	H305	H	0.353121	0.246474	0.731439
	O306	O	-0.054598	1.003678	0.952809
	H307	H	-0.071466	1.002744	0.957892
	H308	H	-0.048456	0.991337	0.960374
	O309	O	0.220390	0.202186	0.203299
	H310	H	0.232464	0.181409	0.204269
	H311	H	0.210247	0.218432	0.211913
	O312	O	-0.001489	0.789114	0.219937
	H313	H	-0.005916	0.764338	0.252396
	H314	H	-0.041951	0.799830	0.212074
	O315	O	0.229771	0.210657	1.027376
	H316	H	0.234747	0.212960	1.040842
	H317	H	0.247061	0.217015	1.027598
	O318	O	0.378894	1.304796	-0.693933
	H319	H	0.386013	1.313009	-0.695363
	H320	H	0.400582	1.315619	-0.685463
	O321	O	0.628509	0.430858	0.597122
	H322	H	0.630297	0.422505	0.609593
	H323	H	0.621232	0.414160	0.590486
	O324	O	0.341417	0.550809	0.326990
	H325	H	0.336232	0.560175	0.313892
	H326	H	0.347567	0.572539	0.314617
	O327	O	0.203166	0.822113	1.815930
	H328	H	0.218389	0.803861	1.852115
	H329	H	0.179549	0.825205	1.816731
	O330	O	0.721836	-0.295222	-0.427698
	H331	H	0.709650	-0.308761	-0.440082
	H332	H	0.741956	-0.280533	-0.408976
	O333	O	1.199670	1.045821	1.051156
	H334	H	1.184126	1.047871	1.034696
	H335	H	1.205889	1.068722	1.058765
	O336	O	1.048426	-0.178580	0.842908
	H337	H	1.054105	-0.178366	0.845159
	H338	H	1.052336	-0.191429	0.824599
	O339	O	0.990472	0.210324	0.978500
	H340	H	1.012564	0.212330	0.991553
	H341	H	0.999193	0.195985	0.976683
	O342	O	0.724913	0.471345	0.295541
	H343	H	0.739390	0.485378	0.277923
	H344	H	0.723541	0.497653	0.313293
	O345	O	-0.002286	0.211914	-0.205770
	H346	H	-0.024044	0.220469	-0.210407
	H347	H	-0.010877	0.208309	-0.213721
	O348	O	1.538550	0.509175	1.383050
	H349	H	1.560619	0.489509	1.387442
	H350	H	1.536787	0.500617	1.380887
	O351	O	0.491287	0.711376	-0.703981
	H352	H	0.505447	0.698237	-0.695513
	H353	H	0.490440	0.734462	-0.729738
	O354	O	0.189820	1.081442	1.165975
	H355	H	0.214799	1.084386	1.175792
	H356	H	0.183439	1.069420	1.171404
	O357	O	1.104960	1.058785	0.828260
	H358	H	1.096478	1.055221	0.827788
	H359	H	1.103467	1.031304	0.822836
	O360	O	0.588255	0.646782	0.420954
	H361	H	0.587957	0.654054	0.412860
	H362	H	0.580816	0.654369	0.444219
	O363	O	0.473581	0.712986	0.541658
	H364	H	0.484089	0.715061	0.541404
	H365	H	0.462392	0.706664	0.549961
	O366	O	1.048288	-0.062006	0.897245
	H367	H	1.047027	-0.058329	0.898795
	H368	H	1.046262	-0.079778	0.901359
	O369	O	0.582316	0.550071	0.407285
	H370	H	0.585057	0.549927	0.417772
	H371	H	0.576020	0.539054	0.401619
	O372	O	0.670432	0.344092	0.378019
	H373	H	0.663772	0.339052	0.395384
	H374	H	0.678134	0.381431	0.372884
	O375	O	-0.166212	1.156677	0.818169
	H376	H	-0.152417	1.157736	0.826231
	H377	H	-0.180012	1.137421	0.835569
	O378	O	0.574115	0.365781	0.636997
	H379	H	0.573721	0.378102	0.640886
	H380	H	0.579239	0.367369	0.638492
	O381	O	0.959280	0.003312	-0.203272
	H382	H	0.947711	-0.005491	-0.209616
	H383	H	0.963533	-0.008862	-0.197047
	O384	O	-0.193933	0.099591	1.110518
	H385	H	-0.189777	0.098608	1.100657
	H386	H	-0.201593	0.125943	1.117950
	O387	O	-0.159723	1.160408	0.987843
	H388	H	-0.173210	1.176730	0.972074
	H389	H	-0.135612	1.165862	0.990860
	O390	O	0.038406	0.016893	1.037000
	H391	H	0.041189	0.013639	1.045784
	H392	H	0.048412	0.012260	1.045560
	O393	O	1.111888	0.910199	0.200996
	H394	H	1.108583	0.892653	0.207859
	H395	H	1.108716	0.914556	0.199127
	O396	O	0.204316	0.248209	0.808834
	H397	H	0.196602	0.258784	0.813797
	H398	H	0.195912	0.239025	0.823310
	O399	O	-0.191441	1.035213	0.157732
	H400	H	-0.205954	1.065288	0.146944
	H401	H	-0.177178	1.042705	0.179270
	O402	O	-0.065910	-0.152607	0.932636
	H403	H	-0.048291	-0.159820	0.948043
	H404	H	-0.050654	-0.140075	0.916490
	O405	O	-0.198684	-0.213726	0.035382
	H406	H	-0.177757	-0.218652	0.020495
	H407	H	-0.227059	-0.232044	0.026510
	O408	O	0.306684	0.476549	0.714749
	H409	H	0.305392	0.444260	0.711366
	H410	H	0.285477	0.488222	0.719494
	O411	O	0.581852	0.295881	0.292019
	H412	H	0.595684	0.286428	0.272936
	H413	H	0.593237	0.297678	0.316965
	O414	O	0.498801	0.541317	0.589614
	H415	H	0.490852	0.548404	0.603921
	H416	H	0.503154	0.542560	0.585876
	O417	O	0.455116	0.495285	0.503629
	H418	H	0.436194	0.503347	0.489426
	H419	H	0.447398	0.491302	0.512590
	O420	O	0.486726	0.528841	0.721092
	H421	H	0.479850	0.535665	0.712853
	H422	H	0.470858	0.524958	0.716578
	O423	O	-0.673702	0.654892	0.321150
	H424	H	-0.645464	0.655892	0.311382
	H425	H	-0.678863	0.655610	0.358826
	O426	O	1.032900	1.207044	1.200802
	H427	H	1.032281	1.214739	1.212955
	H428	H	1.040597	1.210075	1.205095
	O429	O	0.302953	0.294620	0.520643
	H430	H	0.291113	0.275692	0.539206
	H431	H	0.303884	0.296033	0.542197
	O432	O	0.834818	-0.032914	0.811935
	H433	H	0.826826	-0.040933	0.805235
	H434	H	0.848965	-0.012988	0.817843
	O435	O	0.041904	0.045149	0.217384
	H436	H	0.058269	0.047239	0.228760
	H437	H	0.038981	0.052375	0.212423
	O438	O	1.233113	-0.215621	-0.024825
	H439	H	1.262774	-0.239258	-0.017589
	H440	H	1.226588	-0.204980	0.002563
	O441	O	0.728154	0.301795	0.495578
	H442	H	0.715347	0.313480	0.497392
	H443	H	0.750947	0.270540	0.492742
	O444	O	0.226090	0.987396	0.795924
	H445	H	0.228897	0.970965	0.779094
	H446	H	0.229012	0.969150	0.794086
	O447	O	0.534869	0.715689	0.718711
	H448	H	0.548282	0.726569	0.735620
	H449	H	0.548573	0.713033	0.728588
	O450	O	0.415479	0.479703	0.362050
	H451	H	0.406368	0.475745	0.333937
	H452	H	0.410727	0.460840	0.367291
	O453	O	0.591040	0.423071	0.705518
	H454	H	0.588932	0.437897	0.709370
	H455	H	0.576096	0.424109	0.698278
	O456	O	0.720182	-0.465078	-0.402482
	H457	H	0.727048	-0.464748	-0.372907
	H458	H	0.713464	-0.440378	-0.407449
	O459	O	0.311848	0.709214	0.461828
	H460	H	0.332253	0.697642	0.480132
	H461	H	0.293048	0.732623	0.460623
	O462	O	0.204817	0.902154	0.076369
	H463	H	0.192529	0.911898	0.070615
	H464	H	0.207409	0.914880	0.087054
	O465	O	0.945480	0.141612	0.069919
	H466	H	0.935472	0.149721	0.069853
	H467	H	0.964268	0.147282	0.069077
