data_Molecule from HDF5

_cell_length_a		16.190260
_cell_length_b		16.205964
_cell_length_c		16.274454
_cell_angle_alpha	89.888239
_cell_angle_beta	89.928850
_cell_angle_gamma	90.224076
_symmetry_space_group_name_H-M	'P 1'
_symmetry_Int_Tables_number		1

loop_
	_symmetry_equiv_pos_as_xyz
	x,y,z

loop_
	_atom_site_label
	_atom_site_type_symbol
	_atom_site_fract_x
	_atom_site_fract_y
	_atom_site_fract_z
	H0	H	0.402749	0.835855	0.719681
	H1	H	0.601280	0.164796	0.720384
	H2	H	0.600214	0.836103	0.292430
	H3	H	0.404134	0.164904	0.290695
	H4	H	0.716302	0.403423	0.840907
	H5	H	0.716989	0.597986	0.169688
	H6	H	0.291941	0.596259	0.840154
	H7	H	0.286639	0.399351	0.168679
	H8	H	0.837070	0.713702	0.405960
	H9	H	0.166183	0.716195	0.601795
	H10	H	0.837328	0.287217	0.602146
	H11	H	0.167121	0.289305	0.407529
	H12	H	0.838074	0.401344	0.719190
	H13	H	0.166983	0.601325	0.718395
	H14	H	0.838019	0.599823	0.291147
	H15	H	0.166467	0.402753	0.290748
	H16	H	0.405073	0.714328	0.841586
	H17	H	0.601921	0.713902	0.169988
	H18	H	0.600293	0.286263	0.840989
	H19	H	0.403043	0.284710	0.169087
	H20	H	0.713725	0.835635	0.409363
	H21	H	0.714743	0.166439	0.601603
	H22	H	0.287187	0.836304	0.603624
	H23	H	0.290628	0.166219	0.408442
	H24	H	0.902471	0.336383	0.220150
	H25	H	0.102415	0.665676	0.218325
	H26	H	0.101594	0.336337	0.789825
	H27	H	0.904749	0.664760	0.790251
	H28	H	0.216835	0.904558	0.341936
	H29	H	0.214145	0.098880	0.670130
	H30	H	0.788975	0.097982	0.340666
	H31	H	0.788253	0.902767	0.669354
	H32	H	0.337354	0.212474	0.906755
	H33	H	0.666538	0.213406	0.102796
	H34	H	0.337415	0.785607	0.103507
	H35	H	0.668565	0.789605	0.909856
	H36	H	0.337864	0.900157	0.221232
	H37	H	0.667041	0.098399	0.218216
	H38	H	0.337271	0.097090	0.792742
	H39	H	0.666708	0.901560	0.791163
	H40	H	0.905789	0.213996	0.340418
	H41	H	0.099301	0.214984	0.669049
	H42	H	0.098902	0.790029	0.340235
	H43	H	0.901284	0.784195	0.667789
	H44	H	0.214930	0.335079	0.907452
	H45	H	0.216920	0.665466	0.101231
	H46	H	0.789097	0.335542	0.102402
	H47	H	0.790891	0.665616	0.907706
	H48	H	0.410987	0.118061	0.602842
	H49	H	0.583035	0.884040	0.609501
	H50	H	0.586754	0.117188	0.408654
	H51	H	0.413465	0.886413	0.419691
	H52	H	0.599447	0.412408	0.121352
	H53	H	0.586603	0.593014	0.892600
	H54	H	0.403295	0.597678	0.125445
	H55	H	0.414316	0.398040	0.887357
	H56	H	0.118380	0.595689	0.417616
	H57	H	0.884193	0.591342	0.601346
	H58	H	0.117004	0.406155	0.584907
	H59	H	0.881719	0.404461	0.405266
	H60	H	0.118348	0.420666	0.602893
	H61	H	0.884354	0.595914	0.596516
	H62	H	0.119556	0.589362	0.407288
	H63	H	0.884610	0.402291	0.416723
	H64	H	0.407897	0.583627	0.120603
	H65	H	0.600334	0.605189	0.884846
	H66	H	0.588289	0.405816	0.120546
	H67	H	0.399118	0.404998	0.885380
	H68	H	0.598530	0.116033	0.420502
	H69	H	0.593205	0.887166	0.585766
	H70	H	0.409705	0.117779	0.597458
	H71	H	0.402743	0.881933	0.415158
	H72	H	0.916803	0.616957	0.102064
	H73	H	0.103667	0.381024	0.098160
	H74	H	0.105187	0.617041	0.921303
	H75	H	0.911352	0.383781	0.911861
	H76	H	0.103207	0.904786	0.626160
	H77	H	0.092101	0.097043	0.388583
	H78	H	0.913537	0.103068	0.623119
	H79	H	0.895485	0.914219	0.386268
	H80	H	0.617730	0.090808	0.915365
	H81	H	0.386959	0.087985	0.095057
	H82	H	0.623962	0.898987	0.105266
	H83	H	0.383496	0.911084	0.904990
	H84	H	0.617029	0.906449	0.090751
	H85	H	0.383879	0.089304	0.103922
	H86	H	0.621001	0.091758	0.908193
	H87	H	0.382221	0.896351	0.911422
	H88	H	0.898035	0.095208	0.625559
	H89	H	0.099713	0.097764	0.386209
	H90	H	0.092758	0.917480	0.618973
	H91	H	0.918945	0.914803	0.393544
	H92	H	0.102015	0.622297	0.899262
	H93	H	0.089296	0.382742	0.107003
	H94	H	0.907608	0.616396	0.091318
	H95	H	0.907637	0.382773	0.912914
	H96	H	0.405691	0.120194	0.601401
	H97	H	0.607807	0.877869	0.605299
	H98	H	0.601855	0.122546	0.405122
	H99	H	0.411826	0.883221	0.406922
	H100	H	0.598957	0.400194	0.124590
	H101	H	0.604031	0.586164	0.888320
	H102	H	0.418147	0.595739	0.121402
	H103	H	0.412690	0.413938	0.892043
	H104	H	0.122735	0.601757	0.407688
	H105	H	0.886230	0.589085	0.595742
	H106	H	0.125124	0.397894	0.605131
	H107	H	0.885844	0.413181	0.411716
	H108	H	0.903804	0.621103	0.103276
	H109	H	0.089458	0.387865	0.091303
	H110	H	0.084091	0.614360	0.912151
	H111	H	0.908263	0.381962	0.908980
	H112	H	0.085833	0.900857	0.621879
	H113	H	0.097295	0.090649	0.388941
	H114	H	0.912418	0.086495	0.618890
	H115	H	0.909429	0.894374	0.383584
	H116	H	0.621182	0.097917	0.912872
	H117	H	0.383517	0.096779	0.097423
	H118	H	0.618295	0.916119	0.104994
	H119	H	0.388047	0.907981	0.920845
	C120	C	0.380018	0.009699	0.628361
	C121	C	0.623474	0.992174	0.627940
	C122	C	0.623368	0.009431	0.383662
	C123	C	0.381037	0.992471	0.384607
	C124	C	0.623816	0.378357	0.013402
	C125	C	0.625168	0.622434	0.997083
	C126	C	0.381584	0.620839	0.013694
	C127	C	0.379997	0.377048	0.996830
	C128	C	0.010918	0.623054	0.382864
	C129	C	0.993631	0.621956	0.626012
	C130	C	0.011121	0.379172	0.626136
	C131	C	0.993427	0.379677	0.383455
	C132	C	0.881047	0.509167	0.126762
	C133	C	0.123912	0.492422	0.126698
	C134	C	0.124667	0.508935	0.882701
	C135	C	0.881501	0.491890	0.883477
	C136	C	0.122738	0.880067	0.513727
	C137	C	0.124133	0.123471	0.496654
	C138	C	0.880552	0.122656	0.513573
	C139	C	0.879374	0.878835	0.496149
	C140	C	0.510499	0.121141	0.884056
	C141	C	0.493669	0.120491	0.126569
	C142	C	0.510979	0.877946	0.128667
	C143	C	0.493895	0.878054	0.884342
	C144	C	0.382246	0.885262	0.682283
	C145	C	0.621267	0.115959	0.682426
	C146	C	0.620556	0.885374	0.329560
	C147	C	0.383652	0.116080	0.328873
	C148	C	0.678123	0.382437	0.889724
	C149	C	0.679310	0.618832	0.120840
	C150	C	0.328506	0.617566	0.889568
	C151	C	0.324707	0.379418	0.120032
	C152	C	0.886649	0.676834	0.385714
	C153	C	0.117467	0.677845	0.622299
	C154	C	0.886717	0.324566	0.623113
	C155	C	0.117747	0.325760	0.386438
	C156	C	0.887169	0.381126	0.681337
	C157	C	0.117579	0.621083	0.680579
	C158	C	0.887088	0.619971	0.328569
	C159	C	0.117594	0.382760	0.328956
	C160	C	0.385007	0.676129	0.890299
	C161	C	0.622189	0.676570	0.120799
	C162	C	0.621011	0.324010	0.889920
	C163	C	0.382639	0.322530	0.120224
	C164	C	0.676639	0.884913	0.388083
	C165	C	0.677676	0.116686	0.623563
	C166	C	0.324920	0.885526	0.624746
	C167	C	0.327398	0.116833	0.387601
	C168	C	0.882732	0.385278	0.182191
	C169	C	0.122652	0.616361	0.181264
	C170	C	0.121626	0.385173	0.827861
	C171	C	0.884449	0.615742	0.828302
	C172	C	0.178705	0.883794	0.390609
	C173	C	0.177306	0.120195	0.620800
	C174	C	0.826132	0.119248	0.389859
	C175	C	0.825191	0.881637	0.620008
	C176	C	0.386611	0.175069	0.886842
	C177	C	0.617367	0.176158	0.124067
	C178	C	0.386654	0.823099	0.124791
	C179	C	0.618923	0.826004	0.888523
	C180	C	0.386915	0.879728	0.183392
	C181	C	0.617771	0.118447	0.180816
	C182	C	0.386520	0.117849	0.829846
	C183	C	0.617721	0.881492	0.829419
	C184	C	0.884275	0.176535	0.389446
	C185	C	0.120424	0.177825	0.620117
	C186	C	0.120207	0.826645	0.389810
	C187	C	0.881502	0.822846	0.619134
	C188	C	0.177808	0.384529	0.886350
	C189	C	0.179474	0.616252	0.122776
	C190	C	0.826544	0.384626	0.123523
	C191	C	0.827760	0.616205	0.886692
	C192	C	0.402300	0.096291	0.606994
	C193	C	0.601474	0.905416	0.606562
	C194	C	0.601940	0.096278	0.405180
	C195	C	0.402812	0.906159	0.407240
	C196	C	0.601979	0.399874	0.099867
	C197	C	0.603439	0.600951	0.910920
	C198	C	0.403200	0.598722	0.100009
	C199	C	0.402086	0.399182	0.910552
	C200	C	0.097805	0.601815	0.404497
	C201	C	0.907174	0.599041	0.604225
	C202	C	0.097802	0.401660	0.604150
	C203	C	0.906662	0.400515	0.404959
	C204	C	0.902877	0.595581	0.105182
	C205	C	0.100949	0.406233	0.105113
	C206	C	0.103313	0.595317	0.904541
	C207	C	0.902713	0.405201	0.905057
	C208	C	0.100366	0.901254	0.600006
	C209	C	0.102662	0.101651	0.410269
	C210	C	0.901940	0.101439	0.600015
	C211	C	0.901513	0.901118	0.410077
	C212	C	0.597514	0.099708	0.905706
	C213	C	0.407201	0.097963	0.105083
	C214	C	0.597360	0.900418	0.106820
	C215	C	0.406921	0.898913	0.905997
	Zn216	Zn	0.501932	-0.000162	0.756381
	Zn217	Zn	0.502083	0.000372	0.256140
	Zn218	Zn	0.752920	0.500311	0.005107
	Zn219	Zn	0.252500	0.499834	0.004579
	Zn220	Zn	0.001089	0.750368	0.504019
	Zn221	Zn	0.002214	0.251443	0.504759
	Zn222	Zn	0.002860	0.500294	0.754641
	Zn223	Zn	0.002261	0.501294	0.255602
	Zn224	Zn	0.503190	0.750154	0.006173
	Zn225	Zn	0.501859	0.249197	0.005356
	Zn226	Zn	0.751409	0.000969	0.505439
	Zn227	Zn	0.251993	0.001772	0.506573
	N228	N	0.415729	0.963320	0.684726
	N229	N	0.588089	0.037626	0.684938
	N230	N	0.588124	0.963790	0.326998
	N231	N	0.416325	0.037877	0.327055
	N232	N	0.680035	0.415360	0.967517
	N233	N	0.681335	0.585916	0.042864
	N234	N	0.326511	0.583803	0.967262
	N235	N	0.322934	0.412784	0.042174
	N236	N	0.964735	0.678781	0.418842
	N237	N	0.039352	0.678451	0.588962
	N238	N	0.964723	0.323476	0.589571
	N239	N	0.039611	0.323871	0.419697
	N240	N	0.965514	0.414491	0.683171
	N241	N	0.039661	0.586880	0.682858
	N242	N	0.965409	0.587461	0.326535
	N243	N	0.039363	0.415583	0.326911
	N244	N	0.417578	0.678095	0.968457
	N245	N	0.589295	0.678894	0.042931
	N246	N	0.588061	0.321299	0.967984
	N247	N	0.416206	0.321102	0.042622
	N248	N	0.678951	0.963172	0.420721
	N249	N	0.679169	0.038578	0.590387
	N250	N	0.323231	0.964035	0.592076
	N251	N	0.325718	0.039075	0.421740
	N252	N	0.916048	0.463592	0.184315
	N253	N	0.088428	0.538508	0.183453
	N254	N	0.089377	0.463582	0.825357
	N255	N	0.917147	0.537548	0.826295
	N256	N	0.180479	0.916113	0.468786
	N257	N	0.179712	0.086986	0.543102
	N258	N	0.823912	0.086252	0.467873
	N259	N	0.823729	0.915704	0.542539
	N260	N	0.464899	0.177378	0.919596
	N261	N	0.539449	0.177171	0.090569
	N262	N	0.464882	0.821710	0.091549
	N263	N	0.540873	0.823695	0.921885
	N264	N	0.465077	0.913107	0.185757
	N265	N	0.539741	0.084563	0.182721
	N266	N	0.464791	0.084833	0.828230
	N267	N	0.538988	0.913325	0.826840
	N268	N	0.917206	0.178846	0.467356
	N269	N	0.087904	0.179736	0.542027
	N270	N	0.086282	0.824129	0.467295
	N271	N	0.914401	0.821041	0.541207
	N272	N	0.179808	0.462469	0.919858
	N273	N	0.180379	0.538305	0.089520
	N274	N	0.825153	0.462477	0.089984
	N275	N	0.825687	0.538121	0.920208
	O276	O	0.538005	0.510606	0.523529
	H277	H	0.543408	0.517337	0.522983
	H278	H	0.538634	0.509300	0.529825
	O279	O	-0.036316	0.008105	0.013583
	H280	H	-0.023963	0.017299	0.019744
	H281	H	-0.032453	0.010580	0.011912
	O282	O	0.497264	0.505739	0.493140
	H283	H	0.495056	0.503759	0.484868
	H284	H	0.497573	0.499078	0.493011
	O285	O	0.514196	0.528242	0.488136
	H286	H	0.517232	0.522411	0.494208
	H287	H	0.508665	0.526629	0.486158
	O288	O	0.939604	-0.043627	0.035317
	H289	H	0.937137	-0.046544	0.025642
	H290	H	0.934049	-0.044923	0.036498
	O291	O	-0.470051	0.526776	-0.541719
	H292	H	-0.465499	0.529641	-0.549315
	H293	H	-0.463484	0.530208	-0.540722
	O294	O	0.514490	0.539182	0.507305
	H295	H	0.514918	0.525862	0.511587
	H296	H	0.513497	0.545281	0.509230
	O297	O	0.504336	1.577361	-0.490262
	H298	H	0.511949	1.576696	-0.492634
	H299	H	0.506257	1.586047	-0.486139
	O300	O	0.997130	-0.018572	1.020217
	H301	H	1.002157	-0.010705	1.022536
	H302	H	0.995803	-0.020140	1.022646
	O303	O	0.531990	0.611276	0.533669
	H304	H	0.526822	0.607053	0.543819
	H305	H	0.531507	0.623340	0.525865
	O306	O	-0.016529	0.987996	1.051992
	H307	H	-0.017680	0.976250	1.058211
	H308	H	-0.032614	0.986806	1.050838
	O309	O	0.505628	0.565552	0.514068
	H310	H	0.501422	0.567963	0.515781
	H311	H	0.499729	0.565438	0.510317
