data_Molecule from HDF5

_cell_length_a		16.068673
_cell_length_b		16.023962
_cell_length_c		16.485764
_cell_angle_alpha	89.599233
_cell_angle_beta	90.155173
_cell_angle_gamma	90.417636
_symmetry_space_group_name_H-M	'P 1'
_symmetry_Int_Tables_number		1

loop_
	_symmetry_equiv_pos_as_xyz
	x,y,z

loop_
	_atom_site_label
	_atom_site_type_symbol
	_atom_site_fract_x
	_atom_site_fract_y
	_atom_site_fract_z
	H0	H	0.396678	0.841290	0.723622
	H1	H	0.609025	0.167619	0.723899
	H2	H	0.605091	0.840261	0.291269
	H3	H	0.399972	0.168438	0.285807
	H4	H	0.723435	0.408986	0.843757
	H5	H	0.724943	0.602384	0.169004
	H6	H	0.291714	0.605994	0.845620
	H7	H	0.293248	0.402780	0.169011
	H8	H	0.838181	0.714693	0.409868
	H9	H	0.171545	0.721653	0.601430
	H10	H	0.840314	0.294507	0.603909
	H11	H	0.172973	0.298014	0.414480
	H12	H	0.844160	0.401531	0.725183
	H13	H	0.170659	0.613164	0.723634
	H14	H	0.843385	0.608631	0.286713
	H15	H	0.170959	0.403149	0.292031
	H16	H	0.413092	0.719177	0.843677
	H17	H	0.609772	0.720568	0.168729
	H18	H	0.606532	0.291458	0.843283
	H19	H	0.408252	0.286539	0.167419
	H20	H	0.714227	0.837960	0.411724
	H21	H	0.716854	0.171686	0.602552
	H22	H	0.292238	0.839796	0.601225
	H23	H	0.297733	0.173239	0.409836
	H24	H	0.905318	0.341655	0.223777
	H25	H	0.115233	0.670249	0.223646
	H26	H	0.114212	0.343402	0.788531
	H27	H	0.906261	0.669967	0.790236
	H28	H	0.220689	0.907550	0.343939
	H29	H	0.224192	0.106444	0.667067
	H30	H	0.789643	0.106638	0.343780
	H31	H	0.788720	0.904357	0.668606
	H32	H	0.340282	0.219245	0.906188
	H33	H	0.673547	0.215540	0.100906
	H34	H	0.342731	0.787672	0.104254
	H35	H	0.675240	0.801491	0.914506
	H36	H	0.341577	0.898291	0.221806
	H37	H	0.668032	0.110273	0.226298
	H38	H	0.340695	0.106973	0.787947
	H39	H	0.667258	0.899450	0.786741
	H40	H	0.908871	0.222952	0.344218
	H41	H	0.103706	0.219084	0.669074
	H42	H	0.100511	0.794006	0.343851
	H43	H	0.900804	0.785071	0.666558
	H44	H	0.217537	0.338983	0.913639
	H45	H	0.223140	0.671739	0.103033
	H46	H	0.796519	0.338991	0.104396
	H47	H	0.799685	0.671952	0.910680
	H48	H	0.417975	0.122593	0.595440
	H49	H	0.592875	0.883008	0.609801
	H50	H	0.600897	0.125336	0.412952
	H51	H	0.404482	0.881495	0.405065
	H52	H	0.604438	0.412523	0.121545
	H53	H	0.595894	0.605628	0.892762
	H54	H	0.419151	0.609153	0.124552
	H55	H	0.419902	0.416180	0.894173
	H56	H	0.127495	0.598960	0.404819
	H57	H	0.890294	0.587924	0.600520
	H58	H	0.126232	0.412860	0.597754
	H59	H	0.884268	0.420113	0.398238
	H60	H	0.125037	0.419744	0.601624
	H61	H	0.887359	0.596336	0.604507
	H62	H	0.125844	0.607762	0.417702
	H63	H	0.885216	0.401777	0.417258
	H64	H	0.404956	0.590715	0.123933
	H65	H	0.611856	0.610208	0.886117
	H66	H	0.598608	0.412461	0.120360
	H67	H	0.413390	0.407147	0.889067
	H68	H	0.593008	0.124076	0.406820
	H69	H	0.585363	0.889934	0.594027
	H70	H	0.412863	0.125903	0.600025
	H71	H	0.424243	0.889065	0.410538
	H72	H	0.922711	0.624105	0.098669
	H73	H	0.108412	0.384700	0.101623
	H74	H	0.098449	0.624504	0.913014
	H75	H	0.911192	0.385924	0.921197
	H76	H	0.096971	0.914123	0.620710
	H77	H	0.107989	0.112809	0.385656
	H78	H	0.921907	0.099463	0.617651
	H79	H	0.914033	0.919410	0.393321
	H80	H	0.624485	0.098983	0.910608
	H81	H	0.386516	0.101995	0.093032
	H82	H	0.624965	0.914941	0.096471
	H83	H	0.385886	0.909056	0.912770
	H84	H	0.624629	0.920649	0.105798
	H85	H	0.392400	0.085897	0.093132
	H86	H	0.622579	0.094661	0.916531
	H87	H	0.387381	0.912681	0.915883
	H88	H	0.905653	0.108758	0.625709
	H89	H	0.104802	0.092809	0.391820
	H90	H	0.098281	0.914998	0.620883
	H91	H	0.910951	0.904594	0.390066
	H92	H	0.099572	0.624641	0.915042
	H93	H	0.094465	0.385024	0.111995
	H94	H	0.918932	0.623676	0.096587
	H95	H	0.914686	0.382873	0.905707
	H96	H	0.419093	0.124257	0.602373
	H97	H	0.603795	0.884436	0.594736
	H98	H	0.592675	0.122154	0.416566
	H99	H	0.409332	0.888077	0.423738
	H100	H	0.602813	0.407557	0.121511
	H101	H	0.608911	0.593397	0.892253
	H102	H	0.427392	0.588253	0.117079
	H103	H	0.407697	0.417021	0.890694
	H104	H	0.121940	0.593020	0.417849
	H105	H	0.888639	0.595600	0.595365
	H106	H	0.127415	0.413413	0.605252
	H107	H	0.893483	0.427191	0.421060
	H108	H	0.919160	0.625894	0.100472
	H109	H	0.093606	0.390563	0.096048
	H110	H	0.100203	0.625388	0.912683
	H111	H	0.926534	0.389714	0.915062
	H112	H	0.097498	0.915404	0.620223
	H113	H	0.089116	0.106207	0.392853
	H114	H	0.903881	0.089331	0.621528
	H115	H	0.899840	0.915150	0.388165
	H116	H	0.621906	0.091821	0.910093
	H117	H	0.385035	0.092202	0.106114
	H118	H	0.627728	0.910307	0.105729
	H119	H	0.386535	0.913750	0.911621
	C120	C	0.384301	0.014853	0.627791
	C121	C	0.624980	0.995367	0.627923
	C122	C	0.624752	0.013940	0.384586
	C123	C	0.383733	0.996010	0.383853
	C124	C	0.630830	0.383142	0.013930
	C125	C	0.633460	0.629601	0.997922
	C126	C	0.387798	0.626341	0.014951
	C127	C	0.384929	0.382222	0.998072
	C128	C	0.015579	0.628042	0.384227
	C129	C	0.997353	0.626508	0.628222
	C130	C	0.016495	0.385046	0.629656
	C131	C	0.997509	0.386915	0.386082
	C132	C	0.889403	0.514797	0.127646
	C133	C	0.130189	0.496499	0.130357
	C134	C	0.128915	0.515418	0.886097
	C135	C	0.888468	0.496159	0.885643
	C136	C	0.126123	0.885951	0.513777
	C137	C	0.129423	0.130855	0.497497
	C138	C	0.882026	0.128938	0.514719
	C139	C	0.880292	0.882984	0.497551
	C140	C	0.514231	0.125872	0.882990
	C141	C	0.497203	0.124448	0.126640
	C142	C	0.516074	0.883335	0.129340
	C143	C	0.496334	0.884140	0.885764
	C144	C	0.380678	0.890502	0.684231
	C145	C	0.626485	0.119128	0.684415
	C146	C	0.623888	0.889418	0.329836
	C147	C	0.382662	0.119836	0.325823
	C148	C	0.685828	0.387375	0.892174
	C149	C	0.687753	0.624384	0.120253
	C150	C	0.331007	0.625606	0.893459
	C151	C	0.330358	0.382843	0.119997
	C152	C	0.889337	0.680224	0.387622
	C153	C	0.121777	0.684833	0.624087
	C154	C	0.890918	0.330405	0.625780
	C155	C	0.122927	0.333703	0.391975
	C156	C	0.892732	0.383953	0.685926
	C157	C	0.121567	0.630359	0.684520
	C158	C	0.891875	0.627372	0.326392
	C159	C	0.122012	0.386231	0.331308
	C160	C	0.391326	0.681895	0.892635
	C161	C	0.630245	0.682964	0.120101
	C162	C	0.627429	0.328995	0.891982
	C163	C	0.387763	0.325139	0.119468
	C164	C	0.678401	0.888462	0.389610
	C165	C	0.680390	0.121054	0.624403
	C166	C	0.328397	0.889588	0.623536
	C167	C	0.331366	0.122168	0.387147
	C168	C	0.887477	0.390671	0.184988
	C169	C	0.132455	0.620827	0.185203
	C170	C	0.130504	0.391469	0.829262
	C171	C	0.888194	0.620667	0.829115
	C172	C	0.181977	0.887903	0.392217
	C173	C	0.185494	0.126678	0.619029
	C174	C	0.827297	0.127209	0.392644
	C175	C	0.825741	0.884263	0.619666
	C176	C	0.389812	0.181886	0.885247
	C177	C	0.622790	0.179497	0.123128
	C178	C	0.391887	0.825692	0.125267
	C179	C	0.623759	0.834550	0.891413
	C180	C	0.391377	0.880607	0.183683
	C181	C	0.620149	0.127002	0.185273
	C182	C	0.390068	0.125825	0.826698
	C183	C	0.619811	0.883656	0.828082
	C184	C	0.886608	0.184804	0.392500
	C185	C	0.125662	0.183119	0.619936
	C186	C	0.122046	0.831463	0.391947
	C187	C	0.881900	0.824890	0.618650
	C188	C	0.182257	0.389411	0.891164
	C189	C	0.186587	0.621578	0.125456
	C190	C	0.833384	0.389313	0.125474
	C191	C	0.835305	0.621915	0.889195
	C192	C	0.409421	0.101682	0.605895
	C193	C	0.601128	0.908312	0.606165
	C194	C	0.602044	0.101410	0.405675
	C195	C	0.406074	0.908822	0.406379
	C196	C	0.608705	0.404483	0.099139
	C197	C	0.612023	0.609118	0.912490
	C198	C	0.410435	0.602972	0.099827
	C199	C	0.407184	0.406300	0.913293
	C200	C	0.102521	0.606371	0.406689
	C201	C	0.911121	0.600783	0.606502
	C202	C	0.103744	0.408540	0.608105
	C203	C	0.910241	0.409618	0.406377
	C204	C	0.913299	0.602016	0.105025
	C205	C	0.106129	0.409205	0.109470
	C206	C	0.106177	0.602053	0.907349
	C207	C	0.910834	0.408840	0.907554
	C208	C	0.104086	0.908181	0.598745
	C209	C	0.107168	0.110106	0.412234
	C210	C	0.903961	0.105812	0.599675
	C211	C	0.902076	0.906106	0.412490
	C212	C	0.600401	0.102333	0.905727
	C213	C	0.410459	0.100575	0.103980
	C214	C	0.603376	0.908183	0.108725
	C215	C	0.409550	0.905288	0.907207
	Zn216	Zn	0.504195	0.003078	0.756237
	Zn217	Zn	0.503815	0.004532	0.256293
	Zn218	Zn	0.761748	0.505624	0.006508
	Zn219	Zn	0.256081	0.504825	0.007452
	Zn220	Zn	0.004090	0.754709	0.506184
	Zn221	Zn	0.005838	0.259523	0.506630
	Zn222	Zn	0.008481	0.505777	0.757782
	Zn223	Zn	0.008215	0.506857	0.256753
	Zn224	Zn	0.509091	0.757928	0.006396
	Zn225	Zn	0.506751	0.252982	0.005357
	Zn226	Zn	0.751606	0.005143	0.506534
	Zn227	Zn	0.258396	0.006842	0.505339
	N228	N	0.414796	0.969459	0.686979
	N229	N	0.592858	0.039850	0.686869
	N230	N	0.591109	0.968599	0.326892
	N231	N	0.414549	0.040249	0.323579
	N232	N	0.687983	0.420189	0.969128
	N233	N	0.689924	0.591855	0.043326
	N234	N	0.328678	0.591807	0.970523
	N235	N	0.328364	0.417670	0.043417
	N236	N	0.967057	0.680887	0.422823
	N237	N	0.043569	0.682677	0.589908
	N238	N	0.968939	0.330736	0.591824
	N239	N	0.044539	0.334161	0.425521
	N240	N	0.972133	0.417047	0.688651
	N241	N	0.043407	0.594932	0.687344
	N242	N	0.971428	0.595889	0.323949
	N243	N	0.042893	0.418527	0.327205
	N244	N	0.425890	0.682390	0.969162
	N245	N	0.597419	0.686673	0.042956
	N246	N	0.594124	0.325982	0.968867
	N247	N	0.420969	0.324510	0.042595
	N248	N	0.678963	0.967033	0.423060
	N249	N	0.679371	0.043093	0.589961
	N250	N	0.330622	0.967830	0.589025
	N251	N	0.332034	0.044376	0.422695
	N252	N	0.921317	0.469807	0.186488
	N253	N	0.098445	0.541724	0.188758
	N254	N	0.097874	0.470570	0.825963
	N255	N	0.920620	0.541443	0.826760
	N256	N	0.184509	0.921005	0.468951
	N257	N	0.188174	0.095098	0.541691
	N258	N	0.824148	0.093336	0.469654
	N259	N	0.824592	0.919922	0.543299
	N260	N	0.467928	0.182199	0.919483
	N261	N	0.545293	0.177770	0.087112
	N262	N	0.470524	0.827071	0.092337
	N263	N	0.546217	0.834626	0.926628
	N264	N	0.469766	0.915784	0.186460
	N265	N	0.541034	0.093458	0.187557
	N266	N	0.468515	0.091683	0.824989
	N267	N	0.539700	0.913666	0.824101
	N268	N	0.919877	0.186165	0.469413
	N269	N	0.091563	0.185801	0.543539
	N270	N	0.088039	0.829997	0.468542
	N271	N	0.915075	0.823954	0.541824
	N272	N	0.181392	0.467339	0.925860
	N273	N	0.185234	0.543142	0.092055
	N274	N	0.834316	0.467602	0.090372
	N275	N	0.835048	0.543478	0.923517
	O276	O	0.503178	0.447990	0.458872
	H277	H	0.503894	0.455940	0.462546
	H278	H	0.499387	0.450415	0.451073
	O279	O	0.517491	0.564038	0.503049
	H280	H	0.523899	0.557694	0.508386
	H281	H	0.516727	0.551330	0.508320
	O282	O	0.955587	1.106378	-0.123355
	H283	H	0.933509	1.113823	-0.124884
	H284	H	0.949586	1.115635	-0.121270
	O285	O	1.048027	-0.069907	1.131104
	H286	H	1.048385	-0.071236	1.110404
	H287	H	1.035928	-0.080411	1.140180
	O288	O	0.149469	0.031044	0.146094
	H289	H	0.145055	0.029063	0.149603
	H290	H	0.153464	0.033784	0.152190
	O291	O	0.523046	0.469156	0.460090
	H292	H	0.523029	0.469973	0.469834
	H293	H	0.526077	0.470175	0.461181
	O294	O	0.467051	0.402476	0.500118
	H295	H	0.472745	0.394383	0.505473
	H296	H	0.466589	0.390216	0.503117
	O297	O	0.092858	-0.011001	0.893038
	H298	H	0.095707	-0.004572	0.896764
	H299	H	0.080571	-0.000562	0.890715
	O300	O	0.426627	0.584506	0.463965
	H301	H	0.425164	0.579300	0.472955
	H302	H	0.427613	0.592278	0.459586
	O303	O	1.047615	1.044826	0.094184
	H304	H	1.058765	1.029438	0.104054
	H305	H	1.056760	1.054284	0.088499
	O306	O	-0.469934	1.499782	0.572295
	H307	H	-0.464583	1.491915	0.583900
	H308	H	-0.467729	1.493884	0.566347
	O309	O	0.575841	0.436880	0.493089
	H310	H	0.589095	0.449208	0.503884
	H311	H	0.572844	0.420966	0.480745
	O312	O	-0.119034	-0.034859	-0.065013
	H313	H	-0.125777	-0.022025	-0.057689
	H314	H	-0.121032	-0.031733	-0.059245
	O315	O	0.904343	0.128293	-0.125152
	H316	H	0.903383	0.137144	-0.124324
	H317	H	0.891383	0.121486	-0.127913
	O318	O	0.986516	1.047764	0.887839
	H319	H	0.984093	1.041023	0.896801
	H320	H	0.984340	1.052547	0.883844
	O321	O	0.062300	-0.083915	0.858482
	H322	H	0.082595	-0.078809	0.850113
	H323	H	0.067340	-0.087482	0.855290
	O324	O	0.474313	0.461476	0.518054
	H325	H	0.471305	0.464030	0.504823
	H326	H	0.469159	0.457927	0.517211
	O327	O	-0.083338	0.016612	0.124139
	H328	H	-0.089545	0.012205	0.125239
	H329	H	-0.074892	0.021901	0.125956
	O330	O	0.612163	0.575742	0.512432
	H331	H	0.612075	0.576121	0.524852
	H332	H	0.615866	0.586686	0.503334
	O333	O	-0.594518	0.508694	0.406959
	H334	H	-0.605722	0.508159	0.397344
	H335	H	-0.601058	0.518064	0.402120
	O336	O	-0.033545	-0.000942	-0.065061
	H337	H	-0.032386	-0.001889	-0.068480
	H338	H	-0.025857	0.001771	-0.069144
	O339	O	0.484028	0.482015	0.518816
	H340	H	0.476763	0.484084	0.504274
	H341	H	0.482907	0.493899	0.511490
	O342	O	1.078322	0.928749	0.990127
	H343	H	1.074596	0.917047	0.992378
	H344	H	1.075240	0.921928	0.990688
	O345	O	0.902979	0.999650	0.020530
	H346	H	0.908278	1.002917	0.009158
	H347	H	0.908954	1.002752	0.030723
	O348	O	0.565927	0.565823	0.546548
	H349	H	0.567385	0.578029	0.543927
	H350	H	0.569331	0.561366	0.550789
	O351	O	0.574856	0.598601	0.566077
	H352	H	0.577604	0.599583	0.554977
	H353	H	0.572978	0.601673	0.575202
	O354	O	0.478748	0.391491	0.622011
	H355	H	0.479819	0.388237	0.613595
	H356	H	0.475877	0.381757	0.625024
	O357	O	0.983973	-0.013058	1.068610
	H358	H	0.978993	-0.012978	1.066409
	H359	H	0.969813	-0.024664	1.065237
	O360	O	0.406485	0.581293	0.416253
	H361	H	0.413594	0.579522	0.434442
	H362	H	0.400931	0.578914	0.422519
	O363	O	1.045449	0.072150	0.932142
	H364	H	1.061425	0.067737	0.934259
	H365	H	1.048811	0.085036	0.944205
	O366	O	1.010703	0.969917	1.099542
	H367	H	0.998922	0.965162	1.104904
	H368	H	1.012908	0.961073	1.095636
	O369	O	0.961174	-0.047651	0.975484
	H370	H	0.972958	-0.043365	0.970680
	H371	H	0.955567	-0.050404	0.964783
	O372	O	0.064532	0.068316	-0.003355
	H373	H	0.065667	0.064732	-0.015061
	H374	H	0.055744	0.074386	0.003632
	O375	O	1.024076	0.033489	-0.001367
	H376	H	1.026925	0.040191	-0.001408
	H377	H	1.031968	0.023555	0.000416
	O378	O	0.525358	0.485758	0.548963
	H379	H	0.518311	0.484255	0.551855
	H380	H	0.524204	0.477400	0.551665
	O381	O	0.444599	0.521957	0.488854
	H382	H	0.445892	0.533850	0.487047
	H383	H	0.447520	0.523704	0.494300
