data_Molecule from HDF5

_cell_length_a		16.139260
_cell_length_b		16.158552
_cell_length_c		16.290355
_cell_angle_alpha	90.231159
_cell_angle_beta	89.918033
_cell_angle_gamma	90.863403
_symmetry_space_group_name_H-M	'P 1'
_symmetry_Int_Tables_number		1

loop_
	_symmetry_equiv_pos_as_xyz
	x,y,z

loop_
	_atom_site_label
	_atom_site_type_symbol
	_atom_site_fract_x
	_atom_site_fract_y
	_atom_site_fract_z
	H0	H	0.398550	0.845767	0.718921
	H1	H	0.602328	0.175438	0.717060
	H2	H	0.600237	0.846981	0.286930
	H3	H	0.402301	0.173763	0.289482
	H4	H	0.715397	0.413609	0.839179
	H5	H	0.720307	0.614054	0.166644
	H6	H	0.290243	0.606825	0.839361
	H7	H	0.287804	0.410981	0.166856
	H8	H	0.836214	0.717293	0.406319
	H9	H	0.167515	0.727947	0.600881
	H10	H	0.837841	0.294219	0.600990
	H11	H	0.168523	0.299715	0.405136
	H12	H	0.839402	0.406361	0.720422
	H13	H	0.169156	0.612698	0.717536
	H14	H	0.839219	0.607254	0.287599
	H15	H	0.166427	0.409314	0.286100
	H16	H	0.406664	0.723315	0.839073
	H17	H	0.603960	0.728863	0.167182
	H18	H	0.601163	0.295639	0.839966
	H19	H	0.400205	0.294490	0.166081
	H20	H	0.709745	0.843532	0.406392
	H21	H	0.718305	0.174431	0.603141
	H22	H	0.285848	0.844041	0.599928
	H23	H	0.291196	0.174107	0.405551
	H24	H	0.897525	0.345794	0.217612
	H25	H	0.106054	0.673495	0.219057
	H26	H	0.104796	0.346607	0.786102
	H27	H	0.906884	0.673644	0.788895
	H28	H	0.214876	0.910572	0.338811
	H29	H	0.217932	0.110809	0.666183
	H30	H	0.789589	0.105557	0.339588
	H31	H	0.785731	0.908617	0.667121
	H32	H	0.336976	0.219881	0.906504
	H33	H	0.666823	0.228132	0.103313
	H34	H	0.338631	0.793628	0.101706
	H35	H	0.668717	0.801253	0.904648
	H36	H	0.337880	0.906510	0.219437
	H37	H	0.665556	0.115370	0.221522
	H38	H	0.338813	0.110378	0.787445
	H39	H	0.666224	0.911288	0.786381
	H40	H	0.902995	0.222741	0.340088
	H41	H	0.103773	0.228076	0.665624
	H42	H	0.098076	0.796003	0.339130
	H43	H	0.899665	0.792226	0.666547
	H44	H	0.212838	0.344105	0.905419
	H45	H	0.220681	0.673450	0.103976
	H46	H	0.782830	0.347349	0.103008
	H47	H	0.793921	0.675923	0.905071
	H48	H	0.415212	0.128974	0.605348
	H49	H	0.590336	0.891823	0.599475
	H50	H	0.591809	0.126730	0.411703
	H51	H	0.393375	0.887917	0.413957
	H52	H	0.596876	0.418895	0.121395
	H53	H	0.598964	0.612507	0.884252
	H54	H	0.417962	0.603383	0.117779
	H55	H	0.401400	0.416680	0.884720
	H56	H	0.120285	0.600367	0.408612
	H57	H	0.886500	0.600284	0.591214
	H58	H	0.126937	0.415326	0.608540
	H59	H	0.885502	0.418348	0.407358
	H60	H	0.120380	0.410743	0.584910
	H61	H	0.888204	0.591238	0.599799
	H62	H	0.121825	0.606110	0.409410
	H63	H	0.882711	0.411945	0.407733
	H64	H	0.409181	0.608728	0.121903
	H65	H	0.603380	0.602027	0.886013
	H66	H	0.592907	0.424998	0.118529
	H67	H	0.413898	0.418966	0.888851
	H68	H	0.598127	0.126421	0.417986
	H69	H	0.590823	0.893195	0.593821
	H70	H	0.415651	0.123915	0.590240
	H71	H	0.412987	0.887942	0.396456
	H72	H	0.910790	0.628901	0.099963
	H73	H	0.089444	0.392783	0.092866
	H74	H	0.095335	0.627127	0.910214
	H75	H	0.913513	0.393613	0.908669
	H76	H	0.096712	0.931992	0.616661
	H77	H	0.100161	0.105426	0.384410
	H78	H	0.903749	0.100750	0.622053
	H79	H	0.906823	0.919592	0.388046
	H80	H	0.621149	0.109428	0.914896
	H81	H	0.384835	0.098903	0.099112
	H82	H	0.624330	0.911822	0.098095
	H83	H	0.384812	0.915080	0.912259
	H84	H	0.616902	0.925962	0.086869
	H85	H	0.383489	0.103253	0.098780
	H86	H	0.617449	0.097780	0.913803
	H87	H	0.384969	0.917633	0.910700
	H88	H	0.913595	0.095354	0.617534
	H89	H	0.096257	0.099931	0.386909
	H90	H	0.079169	0.915911	0.616075
	H91	H	0.911290	0.908108	0.386642
	H92	H	0.099902	0.627218	0.913346
	H93	H	0.099333	0.390489	0.093937
	H94	H	0.918642	0.626722	0.099274
	H95	H	0.910253	0.394809	0.917785
	H96	H	0.402565	0.129716	0.595787
	H97	H	0.595204	0.891370	0.596880
	H98	H	0.601037	0.130047	0.408998
	H99	H	0.418310	0.898347	0.420947
	H100	H	0.589858	0.418135	0.118787
	H101	H	0.592983	0.604088	0.889129
	H102	H	0.408091	0.597199	0.119344
	H103	H	0.409524	0.408066	0.884388
	H104	H	0.120205	0.603847	0.414066
	H105	H	0.883132	0.603311	0.603411
	H106	H	0.116481	0.433061	0.594240
	H107	H	0.885747	0.414849	0.413794
	H108	H	0.914044	0.626155	0.091955
	H109	H	0.093938	0.390849	0.102586
	H110	H	0.099435	0.628624	0.908859
	H111	H	0.904831	0.390542	0.910369
	H112	H	0.101295	0.909514	0.624345
	H113	H	0.093307	0.105882	0.385420
	H114	H	0.914138	0.107499	0.620680
	H115	H	0.898330	0.910203	0.383298
	H116	H	0.621774	0.104897	0.904385
	H117	H	0.384538	0.100889	0.094946
	H118	H	0.620324	0.929211	0.106221
	H119	H	0.383879	0.915741	0.909562
	C120	C	0.380360	0.018357	0.625050
	C121	C	0.623009	1.000798	0.625951
	C122	C	0.623593	0.018826	0.382946
	C123	C	0.380559	1.000465	0.382207
	C124	C	0.622950	0.390918	0.011543
	C125	C	0.627204	0.635438	0.994640
	C126	C	0.383157	0.630779	0.011499
	C127	C	0.379398	0.386750	0.994275
	C128	C	0.011694	0.630394	0.381945
	C129	C	0.994512	0.630552	0.626266
	C130	C	0.012405	0.388132	0.625168
	C131	C	0.993837	0.387430	0.380824
	C132	C	0.881859	0.519196	0.125306
	C133	C	0.124554	0.500449	0.125185
	C134	C	0.125605	0.518622	0.881964
	C135	C	0.882317	0.501512	0.882600
	C136	C	0.121499	0.889356	0.511431
	C137	C	0.125215	0.132809	0.493880
	C138	C	0.881862	0.129448	0.512052
	C139	C	0.876983	0.884153	0.494604
	C140	C	0.511328	0.131768	0.882374
	C141	C	0.493031	0.132493	0.126880
	C142	C	0.511549	0.890334	0.125561
	C143	C	0.493684	0.888840	0.881744
	C144	C	0.379872	0.894563	0.680302
	C145	C	0.622237	0.125670	0.680192
	C146	C	0.619928	0.895442	0.325959
	C147	C	0.383007	0.124761	0.327628
	C148	C	0.677990	0.392979	0.888212
	C149	C	0.682630	0.634037	0.117798
	C150	C	0.328058	0.627646	0.888336
	C151	C	0.324920	0.390279	0.117680
	C152	C	0.886151	0.681470	0.385481
	C153	C	0.118472	0.689102	0.622461
	C154	C	0.887464	0.332206	0.622070
	C155	C	0.118663	0.335126	0.384107
	C156	C	0.888691	0.387566	0.681814
	C157	C	0.119227	0.631565	0.680327
	C158	C	0.887826	0.626641	0.326255
	C159	C	0.117655	0.389981	0.324894
	C160	C	0.385689	0.685832	0.888097
	C161	C	0.624628	0.691046	0.117967
	C162	C	0.621166	0.334452	0.888667
	C163	C	0.381043	0.332500	0.117461
	C164	C	0.674785	0.893729	0.385327
	C165	C	0.679962	0.125199	0.623428
	C166	C	0.323283	0.893936	0.621595
	C167	C	0.327359	0.124558	0.384922
	C168	C	0.879420	0.395325	0.180052
	C169	C	0.125293	0.623994	0.181331
	C170	C	0.123796	0.395335	0.824916
	C171	C	0.886273	0.624745	0.826784
	C172	C	0.177354	0.890311	0.388082
	C173	C	0.180429	0.131294	0.617205
	C174	C	0.826905	0.126332	0.388798
	C175	C	0.822847	0.887651	0.617964
	C176	C	0.386762	0.184277	0.885533
	C177	C	0.617024	0.190510	0.124509
	C178	C	0.387574	0.832268	0.122150
	C179	C	0.618743	0.836836	0.884024
	C180	C	0.387284	0.888826	0.180632
	C181	C	0.616714	0.133831	0.182829
	C182	C	0.387565	0.129340	0.826343
	C183	C	0.617465	0.891592	0.825076
	C184	C	0.883525	0.184643	0.389024
	C185	C	0.123539	0.189565	0.616798
	C186	C	0.119197	0.833362	0.388104
	C187	C	0.879474	0.829495	0.617568
	C188	C	0.177906	0.394177	0.884269
	C189	C	0.182391	0.624052	0.123896
	C190	C	0.822225	0.396073	0.122941
	C191	C	0.830084	0.626052	0.884747
	C192	C	0.404209	0.104917	0.603539
	C193	C	0.599120	0.914517	0.603514
	C194	C	0.603041	0.105453	0.406016
	C195	C	0.401921	0.913881	0.403812
	C196	C	0.600072	0.413998	0.097232
	C197	C	0.605027	0.612926	0.908848
	C198	C	0.405143	0.609460	0.097423
	C199	C	0.401777	0.408208	0.908151
	C200	C	0.098478	0.609686	0.404055
	C201	C	0.908073	0.605697	0.604516
	C202	C	0.098788	0.412456	0.602474
	C203	C	0.907058	0.408540	0.403175
	C204	C	0.907041	0.605162	0.103389
	C205	C	0.101171	0.413746	0.103038
	C206	C	0.104639	0.605361	0.904348
	C207	C	0.903249	0.415246	0.905489
	C208	C	0.098969	0.912378	0.596890
	C209	C	0.103240	0.110290	0.407914
	C210	C	0.904087	0.107632	0.597853
	C211	C	0.898985	0.906010	0.408362
	C212	C	0.597865	0.110333	0.904553
	C213	C	0.406652	0.108085	0.104315
	C214	C	0.598065	0.915060	0.103665
	C215	C	0.407008	0.910015	0.904119
	Zn216	Zn	0.502374	0.010401	0.754374
	Zn217	Zn	0.501436	0.011074	0.255052
	Zn218	Zn	0.753684	0.511910	0.003047
	Zn219	Zn	0.252743	0.508698	0.003277
	Zn220	Zn	0.001195	0.758629	0.502797
	Zn221	Zn	0.002743	0.260000	0.502287
	Zn222	Zn	0.004427	0.509043	0.754828
	Zn223	Zn	0.003150	0.508893	0.253607
	Zn224	Zn	0.503951	0.762291	0.003194
	Zn225	Zn	0.501871	0.259906	0.003529
	Zn226	Zn	0.751230	0.008804	0.504451
	Zn227	Zn	0.252525	0.009735	0.502630
	N228	N	0.414379	0.973031	0.682900
	N229	N	0.587650	0.047463	0.681666
	N230	N	0.589261	0.974478	0.324090
	N231	N	0.415321	0.046560	0.325741
	N232	N	0.679174	0.427564	0.965646
	N233	N	0.684444	0.600092	0.040163
	N234	N	0.326144	0.594330	0.965893
	N235	N	0.323610	0.423118	0.039903
	N236	N	0.964031	0.683805	0.419688
	N237	N	0.039963	0.688674	0.589531
	N238	N	0.965357	0.332219	0.587745
	N239	N	0.040485	0.333286	0.418085
	N240	N	0.967505	0.421591	0.683909
	N241	N	0.041126	0.596014	0.682840
	N242	N	0.966852	0.595640	0.323979
	N243	N	0.039010	0.421592	0.322749
	N244	N	0.419437	0.687780	0.965590
	N245	N	0.591251	0.692277	0.040343
	N246	N	0.587518	0.333092	0.966280
	N247	N	0.414231	0.330120	0.039676
	N248	N	0.677294	0.971449	0.420275
	N249	N	0.680836	0.046564	0.590529
	N250	N	0.323383	0.971942	0.588197
	N251	N	0.325444	0.046390	0.418100
	N252	N	0.915736	0.472779	0.181815
	N253	N	0.089821	0.545997	0.182138
	N254	N	0.092082	0.473787	0.823419
	N255	N	0.917805	0.546330	0.825326
	N256	N	0.178855	0.924503	0.465724
	N257	N	0.181823	0.096852	0.539848
	N258	N	0.825662	0.092487	0.466355
	N259	N	0.820805	0.920622	0.540349
	N260	N	0.464719	0.185807	0.919678
	N261	N	0.539017	0.189790	0.090217
	N262	N	0.465850	0.833236	0.088452
	N263	N	0.540788	0.834884	0.918402
	N264	N	0.465286	0.924241	0.182869
	N265	N	0.538620	0.098730	0.184493
	N266	N	0.466113	0.097439	0.824144
	N267	N	0.538622	0.923122	0.823445
	N268	N	0.916815	0.186902	0.466588
	N269	N	0.090133	0.190707	0.539102
	N270	N	0.085181	0.832717	0.465546
	N271	N	0.912182	0.827068	0.539635
	N272	N	0.179284	0.471948	0.919246
	N273	N	0.182018	0.546263	0.089507
	N274	N	0.823374	0.474187	0.089571
	N275	N	0.827411	0.548265	0.918781
	O276	O	0.432823	0.434557	0.567164
	H277	H	0.419422	0.430016	0.572835
	H278	H	0.442580	0.447933	0.565420
	O279	O	0.553576	0.540216	0.456466
	H280	H	0.559804	0.536121	0.451419
	H281	H	0.556678	0.550653	0.457630
	O282	O	1.174169	1.049425	-0.028515
	H283	H	1.187166	1.062197	-0.033114
	H284	H	1.170037	1.031282	-0.024019
	O285	O	1.164320	0.086877	1.038538
	H286	H	1.150883	0.078020	1.025873
	H287	H	1.179905	0.067269	1.031239
	O288	O	0.119571	-0.075719	-0.146642
	H289	H	0.121475	-0.064157	-0.155808
	H290	H	0.116077	-0.087622	-0.143076
	O291	O	0.599054	0.578478	0.628842
	H292	H	0.593856	0.573521	0.613103
	H293	H	0.612174	0.585057	0.637862
	O294	O	0.482822	0.388973	0.467482
	H295	H	0.480475	0.382862	0.456495
	H296	H	0.484890	0.385445	0.476415
	O297	O	0.036662	0.160927	0.911055
	H298	H	0.023245	0.159874	0.910340
	H299	H	0.023923	0.167610	0.923383
	O300	O	0.535672	0.547943	0.555328
	H301	H	0.531789	0.555616	0.545174
	H302	H	0.542970	0.556234	0.560734
	O303	O	0.910627	0.986086	-0.025006
	H304	H	0.909342	0.988228	-0.031549
	H305	H	0.902820	0.980862	-0.036619
	O306	O	-0.473563	1.495164	0.410420
	H307	H	-0.463586	1.488513	0.418345
	H308	H	-0.488103	1.499667	0.414726
	O309	O	0.549929	0.445307	0.460035
	H310	H	0.551932	0.444815	0.464834
	H311	H	0.555804	0.454802	0.466159
	O312	O	0.031134	-0.102294	-0.100734
	H313	H	0.040598	-0.099779	-0.111473
	H314	H	0.042515	-0.111671	-0.109851
	O315	O	0.946064	-0.116670	0.009415
	H316	H	0.946122	-0.126676	0.011369
	H317	H	0.946903	-0.115936	0.014637
	O318	O	0.986973	0.918706	1.062755
	H319	H	1.005719	0.926167	1.063695
	H320	H	0.982619	0.934101	1.063488
	O321	O	-0.096680	0.005835	1.006226
	H322	H	-0.097346	0.005646	1.021981
	H323	H	-0.112379	0.006310	1.011775
	O324	O	0.500267	0.556091	0.526803
	H325	H	0.501901	0.546042	0.534455
	H326	H	0.514510	0.556851	0.522583
	O327	O	0.004857	0.064777	-0.028913
	H328	H	0.016740	0.070115	-0.038794
	H329	H	0.004525	0.073318	-0.041353
	O330	O	0.411509	0.485052	0.516117
	H331	H	0.403879	0.486062	0.515566
	H332	H	0.408759	0.478665	0.512606
	O333	O	-0.477745	0.529976	0.541737
	H334	H	-0.469566	0.531205	0.545598
	H335	H	-0.476213	0.540383	0.555770
	O336	O	-0.093838	0.072861	-0.027488
	H337	H	-0.087761	0.085775	-0.028438
	H338	H	-0.093185	0.065899	-0.027410
	O339	O	1.035243	-0.053483	0.873080
	H340	H	1.033804	-0.045123	0.874762
	H341	H	1.020470	-0.044481	0.874639
	O342	O	1.093406	0.958882	1.102474
	H343	H	1.107333	0.955259	1.110403
	H344	H	1.081582	0.959015	1.091425
	O345	O	0.886820	1.128147	-0.065861
	H346	H	0.861039	1.131121	-0.060903
	H347	H	0.885891	1.130439	-0.060833
	O348	O	0.519044	0.552684	0.470709
	H349	H	0.525803	0.550130	0.469831
	H350	H	0.502551	0.546251	0.483698
	O351	O	0.546449	0.611781	0.536739
	H352	H	0.553050	0.617069	0.528271
	H353	H	0.552038	0.617039	0.545295
	O354	O	0.498114	0.451260	0.543294
	H355	H	0.482405	0.452415	0.551511
	H356	H	0.498888	0.439805	0.537694
	O357	O	0.965874	0.078463	1.125003
	H358	H	0.981298	0.085083	1.132575
	H359	H	0.969075	0.063165	1.132430
	O360	O	0.558026	0.424044	0.403882
	H361	H	0.557906	0.442704	0.409281
	H362	H	0.556487	0.421077	0.399333
	O363	O	0.986999	-0.001172	1.025558
	H364	H	0.979598	0.000682	1.027169
	H365	H	0.996097	-0.005569	1.027052
	O366	O	0.720068	0.799061	0.860631
	H367	H	0.730951	0.801727	0.878579
	H368	H	0.704104	0.794603	0.868808
	O369	O	0.902826	-0.011852	1.030806
	H370	H	0.904075	-0.016453	1.033780
	H371	H	0.907713	-0.004372	1.052916
	O372	O	0.100058	0.005246	0.128746
	H373	H	0.097590	-0.006515	0.122150
	H374	H	0.102177	0.013742	0.131159
	O375	O	1.075303	0.079922	-0.006278
	H376	H	1.069781	0.076264	-0.008167
	H377	H	1.078437	0.085968	-0.005711
	O378	O	0.446013	0.548413	0.497773
	H379	H	0.456158	0.541312	0.483525
	H380	H	0.444492	0.543454	0.504972
	O381	O	0.580195	0.488569	0.550064
	H382	H	0.581361	0.485487	0.553172
	H383	H	0.571998	0.487376	0.543682
