data_Molecule from HDF5

_cell_length_a		16.129199
_cell_length_b		16.333763
_cell_length_c		16.141595
_cell_angle_alpha	90.060414
_cell_angle_beta	89.675325
_cell_angle_gamma	89.244855
_symmetry_space_group_name_H-M	'P 1'
_symmetry_Int_Tables_number		1

loop_
	_symmetry_equiv_pos_as_xyz
	x,y,z

loop_
	_atom_site_label
	_atom_site_type_symbol
	_atom_site_fract_x
	_atom_site_fract_y
	_atom_site_fract_z
	H0	H	0.392684	0.844386	0.708364
	H1	H	0.588713	0.169583	0.706776
	H2	H	0.594844	0.843946	0.274546
	H3	H	0.388704	0.169667	0.276823
	H4	H	0.705076	0.404937	0.826443
	H5	H	0.699439	0.604860	0.155152
	H6	H	0.274745	0.607532	0.825222
	H7	H	0.274924	0.413519	0.156496
	H8	H	0.829027	0.727555	0.388245
	H9	H	0.156028	0.717459	0.590418
	H10	H	0.827988	0.292483	0.592723
	H11	H	0.155982	0.289183	0.388035
	H12	H	0.826342	0.407486	0.704358
	H13	H	0.154225	0.601904	0.704710
	H14	H	0.823778	0.606702	0.281338
	H15	H	0.154446	0.405396	0.272406
	H16	H	0.385289	0.725764	0.827058
	H17	H	0.586964	0.721729	0.153814
	H18	H	0.592061	0.288723	0.827816
	H19	H	0.383641	0.290851	0.154517
	H20	H	0.710600	0.843972	0.390258
	H21	H	0.703896	0.169842	0.591706
	H22	H	0.278533	0.842823	0.591284
	H23	H	0.272381	0.168299	0.391447
	H24	H	0.888555	0.345228	0.207896
	H25	H	0.085004	0.670438	0.205530
	H26	H	0.092248	0.343458	0.775082
	H27	H	0.886474	0.668512	0.774267
	H28	H	0.208797	0.904640	0.325986
	H29	H	0.200400	0.099797	0.656715
	H30	H	0.777131	0.106194	0.326394
	H31	H	0.778822	0.908996	0.655974
	H32	H	0.325489	0.224477	0.890048
	H33	H	0.652966	0.221272	0.091483
	H34	H	0.323663	0.796957	0.091936
	H35	H	0.651236	0.785751	0.886649
	H36	H	0.325730	0.911255	0.207600
	H37	H	0.655616	0.102969	0.202355
	H38	H	0.325435	0.106611	0.778659
	H39	H	0.654928	0.904929	0.776954
	H40	H	0.889525	0.224354	0.327943
	H41	H	0.094549	0.222317	0.654155
	H42	H	0.096290	0.788150	0.326616
	H43	H	0.890383	0.790025	0.653737
	H44	H	0.209793	0.345557	0.889383
	H45	H	0.198795	0.671309	0.089982
	H46	H	0.774318	0.344113	0.090734
	H47	H	0.769169	0.669186	0.889754
	H48	H	0.399359	0.123069	0.590612
	H49	H	0.594204	0.884201	0.596436
	H50	H	0.597781	0.127998	0.394220
	H51	H	0.402871	0.888345	0.393306
	H52	H	0.579353	0.413493	0.108020
	H53	H	0.572013	0.587296	0.877473
	H54	H	0.389728	0.603485	0.109516
	H55	H	0.397678	0.408695	0.870800
	H56	H	0.109465	0.593062	0.392038
	H57	H	0.874723	0.595373	0.581918
	H58	H	0.109526	0.413401	0.584194
	H59	H	0.874451	0.413204	0.405048
	H60	H	0.110412	0.409142	0.581872
	H61	H	0.871496	0.603399	0.585274
	H62	H	0.110875	0.601418	0.397092
	H63	H	0.874877	0.418813	0.399845
	H64	H	0.394822	0.600488	0.107975
	H65	H	0.571382	0.608049	0.871326
	H66	H	0.579311	0.413663	0.108594
	H67	H	0.393771	0.421938	0.873878
	H68	H	0.572706	0.123329	0.386265
	H69	H	0.571308	0.893983	0.584862
	H70	H	0.397017	0.120004	0.577778
	H71	H	0.406455	0.893000	0.402385
	H72	H	0.891808	0.623859	0.085228
	H73	H	0.080841	0.391019	0.082865
	H74	H	0.088403	0.629063	0.886744
	H75	H	0.899931	0.390348	0.896845
	H76	H	0.088540	0.912862	0.609681
	H77	H	0.082275	0.090021	0.375383
	H78	H	0.899632	0.096724	0.607878
	H79	H	0.912431	0.918087	0.375841
	H80	H	0.610296	0.099150	0.892401
	H81	H	0.368398	0.106220	0.090301
	H82	H	0.604435	0.917199	0.076182
	H83	H	0.363150	0.900922	0.889625
	H84	H	0.609374	0.913718	0.088143
	H85	H	0.373907	0.104257	0.075069
	H86	H	0.608683	0.104491	0.904457
	H87	H	0.377589	0.915599	0.920009
	H88	H	0.901585	0.103783	0.609318
	H89	H	0.075523	0.102940	0.373325
	H90	H	0.079048	0.912676	0.606314
	H91	H	0.900390	0.906341	0.369897
	H92	H	0.064334	0.619817	0.891972
	H93	H	0.081117	0.391763	0.080057
	H94	H	0.893824	0.623277	0.084521
	H95	H	0.896888	0.391461	0.900492
	H96	H	0.387731	0.125038	0.586426
	H97	H	0.594927	0.891682	0.571601
	H98	H	0.580043	0.118202	0.412385
	H99	H	0.395913	0.890500	0.402159
	H100	H	0.579383	0.413820	0.108461
	H101	H	0.589561	0.597048	0.869603
	H102	H	0.394976	0.606608	0.109553
	H103	H	0.407011	0.416668	0.876702
	H104	H	0.105928	0.594094	0.401602
	H105	H	0.873683	0.603303	0.575517
	H106	H	0.109003	0.412744	0.579470
	H107	H	0.871068	0.411725	0.397801
	H108	H	0.890970	0.623152	0.083699
	H109	H	0.083426	0.391394	0.081485
	H110	H	0.083497	0.620598	0.911216
	H111	H	0.895124	0.389528	0.897145
	H112	H	0.084496	0.904733	0.609507
	H113	H	0.089419	0.101020	0.369965
	H114	H	0.894061	0.101762	0.610104
	H115	H	0.896000	0.923002	0.373756
	H116	H	0.604465	0.091401	0.901839
	H117	H	0.373604	0.091678	0.086192
	H118	H	0.608478	0.904279	0.077712
	H119	H	0.374447	0.935216	0.889654
	C120	C	0.367815	0.014940	0.614033
	C121	C	0.613389	0.998170	0.613553
	C122	C	0.614298	0.015348	0.368500
	C123	C	0.370442	0.997696	0.369859
	C124	C	0.610251	0.384038	-0.000106
	C125	C	0.607123	0.626647	0.981379
	C126	C	0.364648	0.631510	-0.000283
	C127	C	0.368258	0.386887	0.982406
	C128	C	-0.000247	0.627606	0.368450
	C129	C	0.981619	0.627824	0.611117
	C130	C	0.000541	0.384205	0.611656
	C131	C	0.981955	0.384131	0.369014
	C132	C	0.864719	0.515880	0.113899
	C133	C	0.109196	0.499327	0.111236
	C134	C	0.110845	0.515796	0.867609
	C135	C	0.866323	0.497526	0.868318
	C136	C	0.114534	0.881873	0.499757
	C137	C	0.111471	0.126225	0.481961
	C138	C	0.869556	0.129325	0.500341
	C139	C	0.872450	0.886173	0.481679
	C140	C	0.498861	0.128334	0.870121
	C141	C	0.480465	0.128536	0.112628
	C142	C	0.498576	0.885088	0.111965
	C143	C	0.480194	0.885505	0.869232
	C144	C	0.372037	0.892718	0.669737
	C145	C	0.609160	0.120675	0.668970
	C146	C	0.614288	0.892761	0.312321
	C147	C	0.369706	0.120491	0.314455
	C148	C	0.667024	0.385111	0.875863
	C149	C	0.662266	0.624753	0.105458
	C150	C	0.310728	0.628447	0.875108
	C151	C	0.311972	0.391481	0.106782
	C152	C	0.877065	0.687089	0.369525
	C153	C	0.106160	0.680733	0.610036
	C154	C	0.876998	0.329775	0.611875
	C155	C	0.106207	0.327178	0.368427
	C156	C	0.876140	0.387342	0.667397
	C157	C	0.105196	0.623222	0.666977
	C158	C	0.874638	0.627180	0.315964
	C159	C	0.105430	0.385032	0.311126
	C160	C	0.365806	0.687113	0.875951
	C161	C	0.606133	0.683175	0.105005
	C162	C	0.610716	0.327323	0.876492
	C163	C	0.366127	0.330260	0.105608
	C164	C	0.671881	0.892759	0.370051
	C165	C	0.666722	0.120923	0.611638
	C166	C	0.315105	0.891898	0.611798
	C167	C	0.311736	0.119905	0.371577
	C168	C	0.867856	0.393623	0.169697
	C169	C	0.105132	0.621778	0.167508
	C170	C	0.111313	0.392607	0.812928
	C171	C	0.866702	0.620082	0.812075
	C172	C	0.170967	0.884458	0.375410
	C173	C	0.164925	0.121910	0.606599
	C174	C	0.814568	0.126810	0.376009
	C175	C	0.816396	0.888353	0.606082
	C176	C	0.374704	0.185566	0.870894
	C177	C	0.604104	0.183603	0.111292
	C178	C	0.373584	0.833219	0.111649
	C179	C	0.602814	0.825540	0.868310
	C180	C	0.374705	0.890135	0.168992
	C181	C	0.605493	0.124695	0.166289
	C182	C	0.374770	0.126911	0.815389
	C183	C	0.604755	0.885128	0.813836
	C184	C	0.870409	0.185743	0.376804
	C185	C	0.111933	0.182617	0.605431
	C186	C	0.115214	0.826409	0.375751
	C187	C	0.872116	0.829216	0.604958
	C188	C	0.169936	0.393635	0.869606
	C189	C	0.162210	0.622300	0.109964
	C190	C	0.811202	0.393038	0.111135
	C191	C	0.808400	0.620194	0.869657
	C192	C	0.388578	0.100587	0.591533
	C193	C	0.592940	0.912153	0.591026
	C194	C	0.590591	0.101078	0.391048
	C195	C	0.394770	0.912513	0.392643
	C196	C	0.586389	0.407013	0.086073
	C197	C	0.584294	0.604167	0.895113
	C198	C	0.386702	0.609859	0.086337
	C199	C	0.392476	0.409164	0.896155
	C200	C	0.086250	0.603411	0.390368
	C201	C	0.895525	0.607037	0.587631
	C202	C	0.087244	0.405394	0.588548
	C203	C	0.895864	0.407674	0.393556
	C204	C	0.885853	0.601318	0.091186
	C205	C	0.088229	0.413638	0.088052
	C206	C	0.086062	0.601020	0.890018
	C207	C	0.890302	0.412465	0.891404
	C208	C	0.091055	0.903766	0.586225
	C209	C	0.088978	0.104328	0.395360
	C210	C	0.891809	0.107177	0.586728
	C211	C	0.896158	0.908918	0.395352
	C212	C	0.585238	0.105239	0.892880
	C213	C	0.394303	0.106848	0.090434
	C214	C	0.584998	0.905513	0.087726
	C215	C	0.394024	0.910198	0.892874
	Zn216	Zn	0.490829	0.007251	0.742125
	Zn217	Zn	0.491507	0.006902	0.240249
	Zn218	Zn	0.736415	0.506269	-0.009563
	Zn219	Zn	0.239294	0.508868	-0.009536
	Zn220	Zn	-0.007233	0.755834	0.489422
	Zn221	Zn	-0.007927	0.256518	0.491439
	Zn222	Zn	-0.010693	0.505558	0.738715
	Zn223	Zn	-0.011210	0.506827	0.241254
	Zn224	Zn	0.487401	0.757498	-0.010176
	Zn225	Zn	0.488645	0.256338	-0.008424
	Zn226	Zn	0.742471	0.006427	0.491584
	Zn227	Zn	0.240268	0.005054	0.491017
	N228	N	0.404324	0.970123	0.671118
	N229	N	0.577159	0.043136	0.670399
	N230	N	0.579167	0.970011	0.311247
	N231	N	0.405880	0.043606	0.313619
	N232	N	0.666935	0.419712	0.953465
	N233	N	0.662942	0.590322	0.027637
	N234	N	0.309865	0.594513	0.953131
	N235	N	0.313106	0.425921	0.028956
	N236	N	0.956024	0.687578	0.401320
	N237	N	0.028092	0.683927	0.576086
	N238	N	0.955309	0.327728	0.577896
	N239	N	0.028314	0.326278	0.403572
	N240	N	0.954083	0.420645	0.667325
	N241	N	0.026911	0.590954	0.667775
	N242	N	0.951997	0.590727	0.315272
	N243	N	0.027238	0.419595	0.311188
	N244	N	0.398553	0.689371	0.954353
	N245	N	0.572402	0.684495	0.026895
	N246	N	0.575996	0.326566	0.954667
	N247	N	0.400358	0.327521	0.027273
	N248	N	0.672145	0.969961	0.404267
	N249	N	0.669439	0.043472	0.577696
	N250	N	0.312429	0.968918	0.577606
	N251	N	0.311910	0.042589	0.405351
	N252	N	0.900292	0.471007	0.171627
	N253	N	0.072837	0.544043	0.168367
	N254	N	0.075293	0.469453	0.811455
	N255	N	0.901894	0.542815	0.810889
	N256	N	0.170983	0.918094	0.453681
	N257	N	0.164793	0.087208	0.528886
	N258	N	0.813785	0.092380	0.453797
	N259	N	0.816509	0.923178	0.528457
	N260	N	0.452885	0.186528	0.904211
	N261	N	0.525342	0.186351	0.078758
	N262	N	0.451620	0.829888	0.076667
	N263	N	0.524435	0.826026	0.902419
	N264	N	0.453376	0.921493	0.169451
	N265	N	0.527671	0.091278	0.167540
	N266	N	0.452786	0.091963	0.814735
	N267	N	0.527510	0.921749	0.814272
	N268	N	0.903868	0.187457	0.455093
	N269	N	0.079247	0.185382	0.526773
	N270	N	0.080829	0.824561	0.453876
	N271	N	0.906220	0.827779	0.526538
	N272	N	0.169844	0.471236	0.902932
	N273	N	0.164861	0.545247	0.075678
	N274	N	0.808954	0.470190	0.077218
	N275	N	0.807979	0.543120	0.903717
	O276	O	0.900130	-0.064062	1.019639
	H277	H	0.903853	-0.059787	1.028604
	H278	H	0.897347	-0.076813	1.019848
	O279	O	1.025339	1.019182	0.119171
	H280	H	1.039103	1.012793	0.128657
	H281	H	1.024901	1.013800	0.120337
	O282	O	0.488366	0.650011	0.584685
	H283	H	0.476739	0.653683	0.581005
	H284	H	0.500197	0.648466	0.577506
	O285	O	0.438928	0.476726	0.482576
	H286	H	0.434204	0.481943	0.478043
	H287	H	0.427778	0.487727	0.492332
	O288	O	0.609162	0.425713	0.497035
	H289	H	0.614723	0.422467	0.514542
	H290	H	0.609681	0.404476	0.495959
	O291	O	0.487350	-0.515821	1.551204
	H292	H	0.488199	-0.507237	1.546268
	H293	H	0.489692	-0.522962	1.550096
	O294	O	1.051338	0.962830	0.017119
	H295	H	1.049858	0.973238	0.014072
	H296	H	1.056015	0.953086	0.012292
	O297	O	0.926968	1.094594	-0.085972
	H298	H	0.924662	1.093363	-0.079532
	H299	H	0.923065	1.088428	-0.092330
	O300	O	0.385983	0.598827	0.478063
	H301	H	0.401078	0.591227	0.478578
	H302	H	0.385779	0.605334	0.464531
	O303	O	0.480947	0.488700	0.536642
	H304	H	0.473108	0.489549	0.525149
	H305	H	0.467768	0.494834	0.549766
	O306	O	0.492725	0.557782	0.415898
	H307	H	0.495781	0.533961	0.420808
	H308	H	0.481473	0.554010	0.401974
	O309	O	0.372970	0.465910	0.508697
	H310	H	0.368059	0.464150	0.501818
	H311	H	0.377326	0.455143	0.507827
	O312	O	0.956903	0.998772	0.945360
	H313	H	0.971066	0.999878	0.945181
	H314	H	0.968386	1.000381	0.946299
	O315	O	1.117363	0.941917	-0.088764
	H316	H	1.100432	0.937198	-0.084731
	H317	H	1.120493	0.949354	-0.081014
	O318	O	0.018935	0.046246	1.008039
	H319	H	0.022871	0.049141	1.005629
	H320	H	0.007630	0.038440	1.003996
	O321	O	0.418514	0.644351	0.385016
	H322	H	0.405478	0.636360	0.379672
	H323	H	0.424640	0.635747	0.381504
	O324	O	-0.082729	1.098833	1.058108
	H325	H	-0.079611	1.103174	1.059287
	H326	H	-0.084812	1.092342	1.049139
	O327	O	-0.133238	1.025679	0.904614
	H328	H	-0.137342	1.026183	0.908401
	H329	H	-0.141410	1.012254	0.901757
	O330	O	0.071427	0.054074	0.049093
	H331	H	0.075191	0.049734	0.048758
	H332	H	0.082407	0.062315	0.060894
	O333	O	0.525510	0.574079	0.521002
	H334	H	0.527353	0.578935	0.515804
	H335	H	0.520186	0.579946	0.526937
	O336	O	-0.066699	-0.009117	0.037436
	H337	H	-0.068835	-0.009781	0.039764
	H338	H	-0.059288	-0.012501	0.035069
	O339	O	-0.008812	-0.035427	0.057051
	H340	H	-0.000401	-0.044248	0.053974
	H341	H	-0.013439	-0.035728	0.052234
	O342	O	0.522966	0.364383	0.399471
	H343	H	0.535460	0.364287	0.398198
	H344	H	0.526498	0.376373	0.399020
	O345	O	-0.137573	1.042486	1.045567
	H346	H	-0.136540	1.042628	1.040597
	H347	H	-0.128396	1.041612	1.053592
	O348	O	-0.036348	-0.026706	1.050197
	H349	H	-0.036118	-0.022789	1.048982
	H350	H	-0.041438	-0.034068	1.053589
	O351	O	0.370329	0.582518	0.410798
	H352	H	0.376906	0.593504	0.413355
	H353	H	0.362252	0.579297	0.397837
	O354	O	0.140390	0.868441	-0.082299
	H355	H	0.136905	0.879737	-0.094867
	H356	H	0.155086	0.865059	-0.081547
	O357	O	0.580035	0.394658	0.367406
	H358	H	0.584298	0.386687	0.374993
	H359	H	0.582686	0.392450	0.361552
	O360	O	1.542509	-0.440553	1.598143
	H361	H	1.538327	-0.443926	1.593381
	H362	H	1.560246	-0.451685	1.601818
	O363	O	0.502783	0.525896	0.509967
	H364	H	0.513436	0.527559	0.508020
	H365	H	0.496872	0.534704	0.506908
	O366	O	0.527606	0.456984	0.489873
	H367	H	0.532714	0.447982	0.494126
	H368	H	0.529734	0.461174	0.469575
	O369	O	0.976128	-0.035552	-0.074198
	H370	H	0.969177	-0.025072	-0.081205
	H371	H	0.973083	-0.039568	-0.073857
	O372	O	0.678384	0.471333	0.350090
	H373	H	0.685310	0.454791	0.342357
	H374	H	0.685586	0.473770	0.348474
	O375	O	1.032704	0.118580	1.010094
	H376	H	1.029460	0.124326	1.010397
	H377	H	1.027590	0.122991	1.003355
	O378	O	0.048685	0.982964	-0.134929
	H379	H	0.062044	0.982263	-0.141976
	H380	H	0.043295	0.973270	-0.134317
	O381	O	0.406209	0.497653	0.484082
	H382	H	0.420073	0.500353	0.504974
	H383	H	0.401009	0.498656	0.482065
	O384	O	0.911577	1.170447	-0.111954
	H385	H	0.909933	1.161073	-0.118921
	H386	H	0.911089	1.180425	-0.120496
	O387	O	1.525270	0.472533	1.616876
	H388	H	1.512323	0.481715	1.622802
	H389	H	1.541085	0.478940	1.615991
	O390	O	1.012947	0.980028	0.037352
	H391	H	1.017819	0.971816	0.030885
	H392	H	1.006132	0.976436	0.028668
	O393	O	0.604400	0.471964	0.489321
	H394	H	0.606137	0.471179	0.492401
	H395	H	0.612688	0.468910	0.471083
