data_Molecule from HDF5

_cell_length_a		16.501081
_cell_length_b		16.542446
_cell_length_c		16.515979
_cell_angle_alpha	89.972075
_cell_angle_beta	90.024153
_cell_angle_gamma	89.917248
_symmetry_space_group_name_H-M	'P 1'
_symmetry_Int_Tables_number		1

loop_
	_symmetry_equiv_pos_as_xyz
	x,y,z

loop_
	_atom_site_label
	_atom_site_type_symbol
	_atom_site_fract_x
	_atom_site_fract_y
	_atom_site_fract_z
	H0	H	0.379926	0.855355	0.715687
	H1	H	0.582149	0.170813	0.712690
	H2	H	0.587784	0.854965	0.272602
	H3	H	0.379373	0.170704	0.277826
	H4	H	0.702979	0.407388	0.840884
	H5	H	0.705611	0.620814	0.154143
	H6	H	0.260979	0.616218	0.839377
	H7	H	0.261754	0.409527	0.154552
	H8	H	0.822007	0.733018	0.390527
	H9	H	0.138013	0.730220	0.597912
	H10	H	0.824150	0.291021	0.600484
	H11	H	0.138105	0.290263	0.390527
	H12	H	0.822921	0.408541	0.716002
	H13	H	0.138370	0.612920	0.714408
	H14	H	0.823894	0.619998	0.271981
	H15	H	0.138569	0.408919	0.275027
	H16	H	0.378095	0.733454	0.839055
	H17	H	0.589754	0.736805	0.154018
	H18	H	0.588142	0.289808	0.841845
	H19	H	0.375133	0.290986	0.153531
	H20	H	0.704113	0.854480	0.388839
	H21	H	0.698722	0.170287	0.596337
	H22	H	0.264014	0.853993	0.597204
	H23	H	0.259702	0.169251	0.391853
	H24	H	0.875277	0.357908	0.219596
	H25	H	0.085238	0.670027	0.216210
	H26	H	0.087639	0.353678	0.774560
	H27	H	0.877033	0.669022	0.775284
	H28	H	0.200640	0.907403	0.338763
	H29	H	0.202792	0.116613	0.653632
	H30	H	0.760643	0.116115	0.339099
	H31	H	0.762430	0.910545	0.654666
	H32	H	0.323587	0.234197	0.890950
	H33	H	0.638688	0.231563	0.100078
	H34	H	0.324321	0.793671	0.098682
	H35	H	0.638991	0.791472	0.890270
	H36	H	0.323754	0.910537	0.213594
	H37	H	0.638370	0.116477	0.217043
	H38	H	0.323289	0.118223	0.774680
	H39	H	0.639022	0.910553	0.775867
	H40	H	0.876721	0.233154	0.338745
	H41	H	0.088755	0.234877	0.652820
	H42	H	0.083361	0.791310	0.339574
	H43	H	0.878242	0.794108	0.654860
	H44	H	0.204495	0.355009	0.890152
	H45	H	0.200815	0.669978	0.099894
	H46	H	0.759272	0.356782	0.103728
	H47	H	0.758755	0.668019	0.889966
	H48	H	0.393482	0.127447	0.589380
	H49	H	0.574243	0.898961	0.584264
	H50	H	0.570327	0.121550	0.411695
	H51	H	0.389115	0.895690	0.395782
	H52	H	0.571491	0.427714	0.109059
	H53	H	0.569089	0.603573	0.885716
	H54	H	0.393547	0.597556	0.107579
	H55	H	0.386479	0.418350	0.880175
	H56	H	0.092469	0.609408	0.413385
	H57	H	0.865904	0.600510	0.588345
	H58	H	0.095248	0.427228	0.593832
	H59	H	0.868576	0.420760	0.408316
	H60	H	0.096453	0.413195	0.584704
	H61	H	0.863981	0.606212	0.589145
	H62	H	0.088719	0.593872	0.410944
	H63	H	0.870292	0.425974	0.410820
	H64	H	0.396060	0.607044	0.109712
	H65	H	0.572176	0.600543	0.885231
	H66	H	0.565444	0.424837	0.108560
	H67	H	0.391818	0.432944	0.887360
	H68	H	0.573453	0.124800	0.404657
	H69	H	0.572528	0.897245	0.589398
	H70	H	0.393596	0.123206	0.581463
	H71	H	0.400071	0.902831	0.407550
	H72	H	0.890366	0.626077	0.082566
	H73	H	0.067645	0.401319	0.083097
	H74	H	0.073401	0.625498	0.903313
	H75	H	0.891585	0.398628	0.907116
	H76	H	0.068355	0.921049	0.609328
	H77	H	0.069578	0.108711	0.381806
	H78	H	0.888330	0.097190	0.608527
	H79	H	0.893695	0.918735	0.382093
	H80	H	0.591948	0.101076	0.909439
	H81	H	0.367815	0.097415	0.091046
	H82	H	0.593738	0.925909	0.084587
	H83	H	0.368083	0.917512	0.908865
	H84	H	0.596868	0.923325	0.088295
	H85	H	0.365091	0.108678	0.087063
	H86	H	0.593720	0.100699	0.902761
	H87	H	0.371748	0.927900	0.911283
	H88	H	0.897050	0.102194	0.607148
	H89	H	0.076276	0.095419	0.383827
	H90	H	0.073617	0.917242	0.611932
	H91	H	0.888525	0.923572	0.382655
	H92	H	0.069423	0.623223	0.904107
	H93	H	0.074361	0.399140	0.083803
	H94	H	0.895936	0.625572	0.086218
	H95	H	0.893419	0.399399	0.906430
	H96	H	0.386048	0.126500	0.583873
	H97	H	0.568887	0.899711	0.585650
	H98	H	0.565954	0.122108	0.404543
	H99	H	0.383698	0.898665	0.412619
	H100	H	0.571229	0.421037	0.111218
	H101	H	0.568221	0.599351	0.887102
	H102	H	0.386569	0.603938	0.111109
	H103	H	0.402574	0.419625	0.886020
	H104	H	0.095775	0.602870	0.398707
	H105	H	0.865824	0.603989	0.583908
	H106	H	0.089655	0.426771	0.577839
	H107	H	0.868779	0.425894	0.405874
	H108	H	0.895429	0.623116	0.080045
	H109	H	0.069979	0.398914	0.089618
	H110	H	0.072408	0.624429	0.907607
	H111	H	0.892017	0.400788	0.908378
	H112	H	0.074721	0.923314	0.609932
	H113	H	0.062290	0.097541	0.387998
	H114	H	0.888990	0.106985	0.611020
	H115	H	0.894557	0.924352	0.385068
	H116	H	0.595317	0.106800	0.906061
	H117	H	0.369839	0.100566	0.079564
	H118	H	0.596089	0.921056	0.083162
	H119	H	0.367856	0.925554	0.901162
	C120	C	0.360204	0.021328	0.616556
	C121	C	0.602257	1.003286	0.616727
	C122	C	0.602819	0.019364	0.374420
	C123	C	0.359344	1.003518	0.373990
	C124	C	0.602252	0.391701	0.006143
	C125	C	0.603587	0.634582	0.989161
	C126	C	0.360699	0.633985	0.005208
	C127	C	0.360487	0.391245	0.988214
	C128	C	-0.011915	0.633804	0.375296
	C129	C	0.970750	0.633269	0.617564
	C130	C	-0.010519	0.391101	0.617079
	C131	C	0.973129	0.392301	0.376072
	C132	C	0.860573	0.521872	0.116848
	C133	C	0.102385	0.503796	0.117246
	C134	C	0.103717	0.519829	0.873665
	C135	C	0.859601	0.503146	0.874677
	C136	C	0.103087	0.889179	0.505737
	C137	C	0.102060	0.132757	0.488139
	C138	C	0.859757	0.133669	0.504730
	C139	C	0.860210	0.891319	0.487786
	C140	C	0.489544	0.134967	0.874051
	C141	C	0.472049	0.133691	0.117489
	C142	C	0.491036	0.891706	0.116815
	C143	C	0.473514	0.891717	0.874780
	C144	C	0.360605	0.902220	0.675460
	C145	C	0.601871	0.123146	0.673795
	C146	C	0.605567	0.901675	0.313665
	C147	C	0.359383	0.122928	0.316308
	C148	C	0.662951	0.388946	0.888223
	C149	C	0.665095	0.638432	0.107045
	C150	C	0.301096	0.635259	0.886424
	C151	C	0.300912	0.390112	0.106807
	C152	C	0.869575	0.693501	0.372505
	C153	C	0.090639	0.690856	0.617637
	C154	C	0.870830	0.331307	0.618819
	C155	C	0.091234	0.330961	0.372467
	C156	C	0.870421	0.389639	0.676149
	C157	C	0.090817	0.632894	0.675283
	C158	C	0.870399	0.636928	0.313706
	C159	C	0.091498	0.390007	0.315413
	C160	C	0.359113	0.693449	0.886357
	C161	C	0.607053	0.696004	0.107026
	C162	C	0.605780	0.330526	0.888608
	C163	C	0.357510	0.331242	0.106527
	C164	C	0.663586	0.901609	0.371526
	C165	C	0.659643	0.122847	0.615810
	C166	C	0.303193	0.901399	0.616922
	C167	C	0.300148	0.122157	0.373179
	C168	C	0.857237	0.404560	0.178968
	C169	C	0.103860	0.622459	0.176504
	C170	C	0.105975	0.401604	0.813983
	C171	C	0.857879	0.621654	0.814738
	C172	C	0.161449	0.888057	0.386525
	C173	C	0.162695	0.134850	0.606432
	C174	C	0.800411	0.135034	0.386199
	C175	C	0.801494	0.891132	0.607098
	C176	C	0.370774	0.194421	0.872558
	C177	C	0.591238	0.192312	0.119016
	C178	C	0.371825	0.832873	0.117716
	C179	C	0.591919	0.831981	0.872251
	C180	C	0.371485	0.890911	0.174879
	C181	C	0.591188	0.134985	0.176815
	C182	C	0.370569	0.136826	0.814688
	C183	C	0.591797	0.890741	0.815173
	C184	C	0.858211	0.193060	0.385872
	C185	C	0.105993	0.193919	0.605922
	C186	C	0.103196	0.830444	0.386811
	C187	C	0.858587	0.833005	0.607269
	C188	C	0.164176	0.402059	0.871697
	C189	C	0.161310	0.622482	0.118281
	C190	C	0.799675	0.403929	0.121078
	C191	C	0.799359	0.621262	0.872016
	C192	C	0.383937	0.104142	0.592008
	C193	C	0.578632	0.920158	0.593369
	C194	C	0.577371	0.101407	0.399754
	C195	C	0.383855	0.920641	0.398183
	C196	C	0.576629	0.417403	0.088347
	C197	C	0.577336	0.608514	0.907363
	C198	C	0.385206	0.609759	0.087996
	C199	C	0.386255	0.416455	0.905952
	C200	C	0.070856	0.608992	0.400531
	C201	C	0.887169	0.610274	0.593941
	C202	C	0.072310	0.415449	0.592523
	C203	C	0.890611	0.417227	0.401199
	C204	C	0.886485	0.603688	0.090436
	C205	C	0.077582	0.421202	0.092758
	C206	C	0.078806	0.602841	0.897991
	C207	C	0.885110	0.421082	0.899861
	C208	C	0.079020	0.913429	0.588711
	C209	C	0.076600	0.107840	0.406049
	C210	C	0.884405	0.109192	0.587305
	C211	C	0.885180	0.915355	0.405060
	C212	C	0.572254	0.110187	0.898888
	C213	C	0.389326	0.109312	0.093025
	C214	C	0.573930	0.916238	0.092390
	C215	C	0.390723	0.916505	0.899971
	Zn216	Zn	0.481029	0.013456	0.746070
	Zn217	Zn	0.481814	0.012196	0.245557
	Zn218	Zn	0.731606	0.512749	-0.002514
	Zn219	Zn	0.231452	0.512120	-0.003511
	Zn220	Zn	-0.020571	0.761594	0.496465
	Zn221	Zn	-0.018721	0.262136	0.496317
	Zn222	Zn	-0.018992	0.511137	0.745749
	Zn223	Zn	-0.019234	0.513330	0.246211
	Zn224	Zn	0.482631	0.763391	-0.003604
	Zn225	Zn	0.480793	0.262368	-0.002946
	Zn226	Zn	0.731615	0.011607	0.495601
	Zn227	Zn	0.230820	0.011612	0.496031
	N228	N	0.394865	0.977870	0.675691
	N229	N	0.567109	0.047861	0.674650
	N230	N	0.568444	0.975873	0.315332
	N231	N	0.395329	0.047845	0.316564
	N232	N	0.660960	0.426321	0.962403
	N233	N	0.662883	0.600700	0.032913
	N234	N	0.301590	0.599256	0.961388
	N235	N	0.302538	0.426665	0.032035
	N236	N	0.943891	0.691638	0.410013
	N237	N	0.014891	0.691502	0.582869
	N238	N	0.945985	0.331861	0.583028
	N239	N	0.016728	0.332383	0.409360
	N240	N	0.945256	0.425587	0.675324
	N241	N	0.015384	0.598012	0.675486
	N242	N	0.945243	0.600517	0.315245
	N243	N	0.017160	0.427411	0.317363
	N244	N	0.395142	0.693006	0.961274
	N245	N	0.569598	0.693892	0.032701
	N246	N	0.568645	0.332195	0.962964
	N247	N	0.393757	0.331822	0.031717
	N248	N	0.661946	0.975877	0.408549
	N249	N	0.660215	0.047323	0.581299
	N250	N	0.302755	0.976436	0.581282
	N251	N	0.299661	0.046686	0.407905
	N252	N	0.894134	0.478996	0.176576
	N253	N	0.067949	0.547670	0.176133
	N254	N	0.069220	0.476196	0.814967
	N255	N	0.894664	0.547117	0.816205
	N256	N	0.161831	0.923554	0.461598
	N257	N	0.160253	0.097289	0.532294
	N258	N	0.801102	0.098986	0.461053
	N259	N	0.802225	0.926461	0.531724
	N260	N	0.445905	0.193675	0.908491
	N261	N	0.516231	0.191783	0.082811
	N262	N	0.447304	0.832880	0.082784
	N263	N	0.517037	0.832443	0.908553
	N264	N	0.446732	0.926290	0.174746
	N265	N	0.516073	0.099458	0.176173
	N266	N	0.445619	0.100877	0.815067
	N267	N	0.516904	0.926928	0.816444
	N268	N	0.894045	0.192624	0.460849
	N269	N	0.068936	0.192831	0.531487
	N270	N	0.067738	0.830939	0.462111
	N271	N	0.894379	0.832960	0.532188
	N272	N	0.163037	0.476753	0.907943
	N273	N	0.160696	0.547551	0.082413
	N274	N	0.801574	0.477855	0.083352
	N275	N	0.800218	0.546606	0.908443
	O276	O	0.897614	1.041946	0.136707
	H277	H	0.880657	1.045231	0.150254
	H278	H	0.888217	1.048642	0.145731
	O279	O	0.174039	-0.179377	1.189982
	H280	H	0.152059	-0.157825	1.174720
	H281	H	0.153430	-0.163909	1.168763
	O282	O	0.371191	0.403298	0.299053
	H283	H	0.379933	0.424802	0.311855
	H284	H	0.361870	0.425918	0.310811
	O285	O	0.236582	0.246117	0.751067
	H286	H	0.239561	0.258681	0.746984
	H287	H	0.258739	0.247466	0.753507
	O288	O	0.769881	-0.000846	1.205320
	H289	H	0.746287	-0.015723	1.215367
	H290	H	0.774817	-0.037826	1.198245
	O291	O	0.507300	0.369673	0.542025
	H292	H	0.519450	0.398483	0.556835
	H293	H	0.495586	0.346597	0.541982
	O294	O	-0.003650	0.060485	-0.184453
	H295	H	-0.012423	0.060066	-0.192869
	H296	H	-0.017043	0.072222	-0.181107
	O297	O	1.180372	0.219288	0.195282
	H298	H	1.190294	0.187707	0.183421
	H299	H	1.209240	0.242655	0.203295
	O300	O	-0.150763	0.028826	-0.097436
	H301	H	-0.144030	0.056296	-0.113548
	H302	H	-0.158367	0.035203	-0.096650
	O303	O	-0.136312	-0.009142	0.018926
	H304	H	-0.135744	-0.003410	0.021870
	H305	H	-0.151144	0.004242	0.004536
	O306	O	0.951245	-0.019574	-0.169944
	H307	H	0.967061	-0.022712	-0.165168
	H308	H	0.935632	-0.022023	-0.169224
	O309	O	0.265233	0.544338	0.279667
	H310	H	0.242796	0.560719	0.258269
	H311	H	0.266390	0.578372	0.273594
	O312	O	0.009857	0.232331	0.209745
	H313	H	0.014839	0.253520	0.239939
	H314	H	0.054669	0.229597	0.202821
	O315	O	0.423563	0.560551	0.713965
	H316	H	0.429198	0.576935	0.719898
	H317	H	0.444216	0.547633	0.706969
	O318	O	1.200086	0.792658	-0.034878
	H319	H	1.212272	0.781158	-0.060868
	H320	H	1.214564	0.785430	-0.060717
	O321	O	-0.211983	0.850218	0.827136
	H322	H	-0.202830	0.856745	0.853192
	H323	H	-0.188305	0.870278	0.831608
	O324	O	0.782859	0.177050	1.157500
	H325	H	0.799722	0.156830	1.157421
	H326	H	0.798203	0.174205	1.138985
	O327	O	0.678535	0.509609	0.457203
	H328	H	0.676268	0.502571	0.443449
	H329	H	0.679652	0.503664	0.444069
	O330	O	0.276753	0.715399	0.291556
	H331	H	0.243574	0.750110	0.261552
	H332	H	0.300185	0.723082	0.315396
	O333	O	0.507518	0.305379	0.283918
	H334	H	0.495998	0.285336	0.273900
	H335	H	0.485196	0.328859	0.284341
	O336	O	0.762033	0.046893	0.776297
	H337	H	0.763119	0.065368	0.770675
	H338	H	0.750642	0.045657	0.760664
	O339	O	0.462014	0.300240	0.708621
	H340	H	0.454464	0.297630	0.713855
	H341	H	0.458956	0.296687	0.720846
	O342	O	-0.045780	0.900033	-0.012981
	H343	H	-0.043624	0.903818	-0.033308
	H344	H	-0.034287	0.904491	-0.028116
	O345	O	0.289114	0.424919	0.696242
	H346	H	0.292762	0.442550	0.698779
	H347	H	0.277856	0.436459	0.682589
	O348	O	0.799501	0.838561	0.174484
	H349	H	0.805829	0.839702	0.134536
	H350	H	0.842007	0.822003	0.191400
	O351	O	-0.075333	-0.156329	0.933754
	H352	H	-0.066605	-0.157894	0.926153
	H353	H	-0.075995	-0.150807	0.942125
	O354	O	0.950640	0.233871	0.775192
	H355	H	0.912715	0.234727	0.778736
	H356	H	0.934800	0.259244	0.750717
	O357	O	0.690253	0.539191	0.714110
	H358	H	0.703371	0.558498	0.722195
	H359	H	0.700479	0.571696	0.721312
	O360	O	0.599108	0.466990	0.467110
	H361	H	0.604047	0.461296	0.467530
	H362	H	0.604572	0.466474	0.466471
	O363	O	0.613856	0.625901	0.580981
	H364	H	0.610111	0.622685	0.566674
	H365	H	0.619424	0.638750	0.565407
	O366	O	1.145923	-0.090539	1.057763
	H367	H	1.153311	-0.089028	1.040838
	H368	H	1.147297	-0.089677	1.045063
	O369	O	0.187593	-0.199246	0.787824
	H370	H	0.179633	-0.178536	0.777192
	H371	H	0.215406	-0.215823	0.757454
	O372	O	0.106476	0.901014	1.002949
	H373	H	0.106553	0.915343	0.988580
	H374	H	0.109897	0.904597	0.991496
	O375	O	1.061317	0.131992	-0.035050
	H376	H	1.058442	0.115023	-0.041133
	H377	H	1.060363	0.155035	-0.034302
	O378	O	1.179826	-0.023192	0.827655
	H379	H	1.190963	-0.014151	0.811237
	H380	H	1.181128	-0.028081	0.826843
	O381	O	-0.229576	1.220417	-0.038152
	H382	H	-0.222207	1.231859	-0.027389
	H383	H	-0.230113	1.231127	-0.030907
	O384	O	0.267011	0.535303	-0.384230
	H385	H	0.250468	0.535926	-0.382740
	H386	H	0.274513	0.529098	-0.391886
	O387	O	-0.230640	0.797936	1.018659
	H388	H	-0.234895	0.794130	1.016317
	H389	H	-0.242592	0.791840	1.026846
	O390	O	0.045473	1.033294	1.043421
	H391	H	0.042641	1.042329	1.039472
	H392	H	0.043879	1.044831	1.041082
	O393	O	0.774847	0.217719	-0.213160
	H394	H	0.747490	0.220626	-0.233874
	H395	H	0.758780	0.229827	-0.182557
	O396	O	0.291623	0.702521	0.682108
	H397	H	0.315206	0.688120	0.663175
	H398	H	0.309289	0.681280	0.665231
	O399	O	0.506170	0.431830	0.468569
	H400	H	0.519418	0.437103	0.457774
	H401	H	0.502235	0.429201	0.476992
	O402	O	1.658176	0.321801	0.675681
	H403	H	1.649320	0.344168	0.657783
	H404	H	1.641164	0.332163	0.655906
	O405	O	0.496242	0.717447	0.700990
	H406	H	0.498328	0.720901	0.703567
	H407	H	0.522535	0.728041	0.699898
	O408	O	1.043053	1.233856	0.935653
	H409	H	1.046908	1.232613	0.923367
	H410	H	1.045709	1.233576	0.919322
	O411	O	0.256439	0.464160	0.432289
	H412	H	0.246523	0.464454	0.407118
	H413	H	0.262524	0.459505	0.423947
	O414	O	-0.044807	-0.193861	0.203825
	H415	H	-0.021441	-0.197047	0.175452
	H416	H	-0.036008	-0.205133	0.215675
	O417	O	0.483348	0.531420	0.284416
	H418	H	0.495628	0.534225	0.284721
	H419	H	0.486506	0.524661	0.290605
	O420	O	1.106874	0.011466	0.930530
	H421	H	1.101646	0.024035	0.935510
	H422	H	1.106558	0.012791	0.916862
	O423	O	1.444704	0.733823	0.273135
	H424	H	1.447659	0.738651	0.259063
	H425	H	1.435706	0.741067	0.256752
	O426	O	0.423293	0.729266	0.541250
	H427	H	0.442033	0.724352	0.532296
	H428	H	0.411157	0.727285	0.540834
	O429	O	0.286716	0.418579	0.452676
	H430	H	0.291739	0.419399	0.467902
	H431	H	0.308211	0.420760	0.442485
	O432	O	1.654993	0.294117	0.486952
	H433	H	1.659972	0.294830	0.475497
	H434	H	1.672420	0.276056	0.479428
	O435	O	0.619545	0.535228	0.283676
	H436	H	0.635045	0.518119	0.282751
	H437	H	0.620155	0.536560	0.274643
	O438	O	0.372366	0.308377	0.466426
	H439	H	0.367504	0.302635	0.460076
	H440	H	0.378299	0.314643	0.476561
	O441	O	0.449413	0.398531	0.514213
	H442	H	0.438374	0.405265	0.520824
	H443	H	0.456524	0.418865	0.526055
	O444	O	0.691741	0.552467	0.333705
	H445	H	0.691602	0.525907	0.337560
	H446	H	0.689025	0.533772	0.312666
	O447	O	0.929209	0.220996	1.045993
	H448	H	0.949493	0.217363	1.029045
	H449	H	0.948986	0.224680	1.070565
	O450	O	1.613867	0.720143	0.468201
	H451	H	1.615299	0.727766	0.451229
	H452	H	1.605763	0.698259	0.458189
	O453	O	0.190268	0.219136	0.016645
	H454	H	0.194438	0.231826	0.010407
	H455	H	0.194642	0.208905	0.018369
	O456	O	0.197993	1.051595	1.215263
	H457	H	0.197051	1.051464	1.217389
	H458	H	0.213848	1.042301	1.235344
	O459	O	0.268223	0.724954	0.462026
	H460	H	0.260930	0.725756	0.463145
	H461	H	0.259337	0.734304	0.456923
	O462	O	0.671662	0.706263	0.695178
	H463	H	0.681803	0.734983	0.715966
	H464	H	0.681003	0.711709	0.653323
	O465	O	0.690163	0.306614	0.289288
	H466	H	0.653713	0.295880	0.296829
	H467	H	0.707558	0.276060	0.259258
	O468	O	0.484000	0.642095	0.466356
	H469	H	0.494156	0.638833	0.477733
	H470	H	0.489200	0.646925	0.460267
	O471	O	1.020388	0.802118	-0.221220
	H472	H	1.022734	0.784660	-0.247741
	H473	H	1.041019	0.811552	-0.217567
	O474	O	2.028741	0.968557	1.206196
	H475	H	2.023414	0.985199	1.203462
	H476	H	2.020520	0.978408	1.201556
	O477	O	0.564314	0.461941	0.689513
	H478	H	0.587578	0.469355	0.699276
	H479	H	0.558975	0.464379	0.689761
