data_Molecule from HDF5

_cell_length_a		16.173777
_cell_length_b		16.228640
_cell_length_c		16.045317
_cell_angle_alpha	89.850607
_cell_angle_beta	89.590339
_cell_angle_gamma	90.968094
_symmetry_space_group_name_H-M	'P 1'
_symmetry_Int_Tables_number		1

loop_
	_symmetry_equiv_pos_as_xyz
	x,y,z

loop_
	_atom_site_label
	_atom_site_type_symbol
	_atom_site_fract_x
	_atom_site_fract_y
	_atom_site_fract_z
	H0	H	0.407581	0.844368	0.709649
	H1	H	0.610086	0.174517	0.708811
	H2	H	0.604695	0.843104	0.282370
	H3	H	0.417454	0.173855	0.283782
	H4	H	0.724337	0.414181	0.830358
	H5	H	0.723724	0.608214	0.164500
	H6	H	0.301763	0.607137	0.830210
	H7	H	0.294113	0.407901	0.161735
	H8	H	0.843359	0.721219	0.398599
	H9	H	0.173601	0.729791	0.595266
	H10	H	0.846267	0.289872	0.599577
	H11	H	0.176474	0.299377	0.396472
	H12	H	0.844632	0.410353	0.710759
	H13	H	0.176193	0.610606	0.706441
	H14	H	0.843437	0.602946	0.285059
	H15	H	0.176507	0.416832	0.282318
	H16	H	0.418784	0.718835	0.829706
	H17	H	0.611517	0.725292	0.162899
	H18	H	0.608603	0.298896	0.829959
	H19	H	0.406796	0.293705	0.162233
	H20	H	0.720809	0.842623	0.398633
	H21	H	0.728381	0.173157	0.594762
	H22	H	0.290885	0.845885	0.597621
	H23	H	0.300870	0.174581	0.397078
	H24	H	0.909424	0.345160	0.210919
	H25	H	0.109170	0.675401	0.207335
	H26	H	0.105631	0.344769	0.782863
	H27	H	0.917761	0.675481	0.784535
	H28	H	0.221926	0.915660	0.329529
	H29	H	0.224308	0.109159	0.663391
	H30	H	0.802159	0.106012	0.329703
	H31	H	0.793022	0.908500	0.662281
	H32	H	0.344375	0.222903	0.896107
	H33	H	0.673595	0.227511	0.093900
	H34	H	0.346896	0.788943	0.097804
	H35	H	0.676825	0.799748	0.895516
	H36	H	0.344023	0.909003	0.208978
	H37	H	0.675147	0.109382	0.206300
	H38	H	0.342721	0.102137	0.785497
	H39	H	0.674978	0.915536	0.780494
	H40	H	0.915720	0.221219	0.330676
	H41	H	0.111272	0.225670	0.663414
	H42	H	0.106691	0.799603	0.329564
	H43	H	0.906185	0.794430	0.662806
	H44	H	0.222078	0.344126	0.897870
	H45	H	0.228692	0.673480	0.095243
	H46	H	0.791403	0.346276	0.099829
	H47	H	0.802826	0.675797	0.899803
	H48	H	0.416912	0.128633	0.591584
	H49	H	0.610627	0.888573	0.589885
	H50	H	0.615533	0.127001	0.403228
	H51	H	0.423802	0.889576	0.390026
	H52	H	0.599505	0.417275	0.116174
	H53	H	0.609097	0.609994	0.875119
	H54	H	0.416812	0.595705	0.115372
	H55	H	0.419127	0.412390	0.875836
	H56	H	0.129557	0.611548	0.396978
	H57	H	0.891048	0.601578	0.591363
	H58	H	0.128102	0.422188	0.589013
	H59	H	0.895084	0.423713	0.404023
	H60	H	0.130814	0.415707	0.592820
	H61	H	0.891226	0.601663	0.592301
	H62	H	0.128057	0.611091	0.406346
	H63	H	0.886525	0.406471	0.394178
	H64	H	0.423846	0.600815	0.115228
	H65	H	0.613678	0.603840	0.876168
	H66	H	0.600843	0.415963	0.116974
	H67	H	0.414319	0.413943	0.874907
	H68	H	0.606643	0.129028	0.394474
	H69	H	0.597991	0.889320	0.598059
	H70	H	0.417947	0.128280	0.592021
	H71	H	0.418640	0.897087	0.418454
	H72	H	0.925951	0.627077	0.094230
	H73	H	0.112545	0.388421	0.090247
	H74	H	0.103177	0.624186	0.906843
	H75	H	0.904467	0.389584	0.908471
	H76	H	0.107604	0.917777	0.618670
	H77	H	0.107685	0.108873	0.376394
	H78	H	0.917008	0.093329	0.614670
	H79	H	0.914701	0.924649	0.378719
	H80	H	0.628151	0.111708	0.905581
	H81	H	0.390908	0.100727	0.093460
	H82	H	0.627949	0.920531	0.087798
	H83	H	0.390169	0.911393	0.901302
	H84	H	0.631014	0.917264	0.093748
	H85	H	0.390271	0.102812	0.090278
	H86	H	0.624692	0.099916	0.906852
	H87	H	0.390909	0.906447	0.905571
	H88	H	0.924097	0.104722	0.616249
	H89	H	0.109185	0.103194	0.377121
	H90	H	0.096513	0.924403	0.612957
	H91	H	0.925279	0.909137	0.376842
	H92	H	0.117981	0.629741	0.904669
	H93	H	0.096942	0.389415	0.099208
	H94	H	0.916102	0.627391	0.083899
	H95	H	0.915908	0.389423	0.893758
	H96	H	0.418870	0.128220	0.590722
	H97	H	0.597159	0.893745	0.583153
	H98	H	0.603927	0.123296	0.404990
	H99	H	0.396245	0.885026	0.401657
	H100	H	0.601558	0.418295	0.116313
	H101	H	0.606563	0.604475	0.877857
	H102	H	0.415486	0.604377	0.119235
	H103	H	0.417696	0.417313	0.877006
	H104	H	0.126852	0.603262	0.401357
	H105	H	0.890771	0.602356	0.592043
	H106	H	0.128375	0.416174	0.585222
	H107	H	0.893185	0.404590	0.413985
	H108	H	0.912655	0.632216	0.097178
	H109	H	0.098256	0.394787	0.081614
	H110	H	0.108124	0.629661	0.893236
	H111	H	0.921921	0.395469	0.909277
	H112	H	0.096976	0.912268	0.616632
	H113	H	0.103501	0.104938	0.378086
	H114	H	0.911501	0.103781	0.619434
	H115	H	0.906860	0.908576	0.372056
	H116	H	0.628305	0.104889	0.895532
	H117	H	0.390799	0.099338	0.089276
	H118	H	0.630120	0.913252	0.086461
	H119	H	0.392412	0.913393	0.906815
	C120	C	0.387609	0.018792	0.619029
	C121	C	0.631713	0.999960	0.618248
	C122	C	0.633884	0.017008	0.373104
	C123	C	0.388257	1.000099	0.375034
	C124	C	0.629996	0.389850	0.005890
	C125	C	0.635786	0.633409	0.987606
	C126	C	0.392125	0.628368	0.005808
	C127	C	0.387259	0.386030	0.986459
	C128	C	0.018205	0.633001	0.374437
	C129	C	1.000904	0.632274	0.618825
	C130	C	0.019631	0.387748	0.618802
	C131	C	1.001661	0.387178	0.375211
	C132	C	0.888292	0.519233	0.119892
	C133	C	0.132232	0.500362	0.118137
	C134	C	0.134855	0.518710	0.873514
	C135	C	0.889720	0.501366	0.875838
	C136	C	0.129037	0.890539	0.505506
	C137	C	0.134200	0.133744	0.487743
	C138	C	0.890838	0.128990	0.506183
	C139	C	0.886719	0.886341	0.486904
	C140	C	0.517716	0.131433	0.874272
	C141	C	0.499944	0.131401	0.118396
	C142	C	0.519649	0.887073	0.118048
	C143	C	0.500946	0.886006	0.874497
	C144	C	0.387786	0.893960	0.672855
	C145	C	0.629810	0.124882	0.671567
	C146	C	0.627210	0.892458	0.319485
	C147	C	0.395040	0.124510	0.320614
	C148	C	0.686083	0.393623	0.880221
	C149	C	0.687904	0.629869	0.113975
	C150	C	0.339154	0.626558	0.879914
	C151	C	0.331550	0.387853	0.111976
	C152	C	0.892992	0.684388	0.377902
	C153	C	0.124733	0.690386	0.615480
	C154	C	0.895074	0.329829	0.618355
	C155	C	0.126837	0.335971	0.376944
	C156	C	0.894324	0.389598	0.673744
	C157	C	0.126074	0.630963	0.670760
	C158	C	0.892991	0.625351	0.321805
	C159	C	0.126787	0.394410	0.320044
	C160	C	0.397107	0.682294	0.879665
	C161	C	0.631918	0.687639	0.113254
	C162	C	0.628797	0.336022	0.879990
	C163	C	0.387768	0.330979	0.112164
	C164	C	0.684851	0.892284	0.377489
	C165	C	0.688930	0.124112	0.615277
	C166	C	0.329957	0.894801	0.616777
	C167	C	0.337183	0.124942	0.377137
	C168	C	0.889297	0.394571	0.174003
	C169	C	0.130515	0.625343	0.171201
	C170	C	0.128093	0.394049	0.819740
	C171	C	0.896165	0.625884	0.821656
	C172	C	0.184068	0.894253	0.379388
	C173	C	0.187875	0.130465	0.613340
	C174	C	0.838181	0.126416	0.380015
	C175	C	0.831088	0.888477	0.612663
	C176	C	0.393381	0.184847	0.876748
	C177	C	0.624489	0.188534	0.114345
	C178	C	0.395621	0.828819	0.117152
	C179	C	0.626708	0.835522	0.875548
	C180	C	0.394426	0.888353	0.172464
	C181	C	0.625341	0.129775	0.170342
	C182	C	0.392625	0.124837	0.821648
	C183	C	0.625803	0.893195	0.818482
	C184	C	0.894756	0.183594	0.380345
	C185	C	0.131259	0.187955	0.613379
	C186	C	0.126797	0.836655	0.379439
	C187	C	0.887158	0.831778	0.612811
	C188	C	0.185957	0.393795	0.876950
	C189	C	0.190054	0.624208	0.115513
	C190	C	0.830402	0.395442	0.119061
	C191	C	0.838842	0.626084	0.878990
	C192	C	0.410990	0.105858	0.597668
	C193	C	0.608653	0.913048	0.596817
	C194	C	0.614535	0.103916	0.394387
	C195	C	0.407255	0.912954	0.396899
	C196	C	0.607294	0.411091	0.093686
	C197	C	0.615776	0.612289	0.899400
	C198	C	0.412646	0.606653	0.093978
	C199	C	0.410349	0.408042	0.898553
	C200	C	0.105690	0.614140	0.395292
	C201	C	0.913452	0.608678	0.598043
	C202	C	0.106632	0.411117	0.595767
	C203	C	0.914212	0.406016	0.397421
	C204	C	0.911378	0.606354	0.098174
	C205	C	0.109365	0.413309	0.096737
	C206	C	0.115636	0.605438	0.895033
	C207	C	0.908576	0.414114	0.897484
	C208	C	0.107223	0.911806	0.593149
	C209	C	0.113062	0.112152	0.399851
	C210	C	0.911353	0.107042	0.594011
	C211	C	0.908908	0.907786	0.398767
	C212	C	0.604561	0.111622	0.896252
	C213	C	0.413038	0.107859	0.097347
	C214	C	0.607108	0.910266	0.095715
	C215	C	0.413779	0.904792	0.897656
	Zn216	Zn	0.508971	0.008712	0.746460
	Zn217	Zn	0.510094	0.008635	0.245987
	Zn218	Zn	0.760650	0.509966	-0.002075
	Zn219	Zn	0.262206	0.508419	-0.003963
	Zn220	Zn	0.008048	0.760897	0.496765
	Zn221	Zn	0.011167	0.258635	0.497418
	Zn222	Zn	0.010793	0.510186	0.746485
	Zn223	Zn	0.010078	0.510019	0.246720
	Zn224	Zn	0.512270	0.758195	-0.003407
	Zn225	Zn	0.508632	0.260709	-0.003696
	Zn226	Zn	0.762111	0.008314	0.496650
	Zn227	Zn	0.259954	0.010814	0.497350
	N228	N	0.422879	0.971949	0.674430
	N229	N	0.595154	0.046487	0.673899
	N230	N	0.596329	0.971053	0.316558
	N231	N	0.425977	0.045778	0.318983
	N232	N	0.687096	0.426282	0.959645
	N233	N	0.690681	0.596879	0.034805
	N234	N	0.335826	0.593657	0.959410
	N235	N	0.330909	0.421244	0.032878
	N236	N	0.971682	0.689228	0.409905
	N237	N	0.045652	0.691065	0.583863
	N238	N	0.973967	0.328542	0.584972
	N239	N	0.048049	0.331353	0.410600
	N240	N	0.972648	0.425037	0.674036
	N241	N	0.047945	0.595546	0.673086
	N242	N	0.971905	0.594132	0.319414
	N243	N	0.048092	0.425449	0.318826
	N244	N	0.429063	0.683802	0.959101
	N245	N	0.600427	0.690224	0.033537
	N246	N	0.594720	0.333710	0.958976
	N247	N	0.421701	0.329646	0.032821
	N248	N	0.689410	0.970826	0.409956
	N249	N	0.690313	0.045547	0.582938
	N250	N	0.329611	0.973556	0.584167
	N251	N	0.332795	0.046584	0.410311
	N252	N	0.924716	0.472607	0.174580
	N253	N	0.095437	0.547357	0.173037
	N254	N	0.097001	0.472526	0.817293
	N255	N	0.927032	0.547186	0.819558
	N256	N	0.185662	0.927199	0.458550
	N257	N	0.189816	0.097403	0.534111
	N258	N	0.835686	0.093022	0.459278
	N259	N	0.830445	0.921571	0.533416
	N260	N	0.472234	0.189073	0.909030
	N261	N	0.545383	0.189719	0.082832
	N262	N	0.474601	0.827871	0.084171
	N263	N	0.548183	0.830752	0.909682
	N264	N	0.472745	0.924010	0.173088
	N265	N	0.547000	0.094845	0.173078
	N266	N	0.470738	0.092096	0.820006
	N267	N	0.546834	0.923838	0.817677
	N268	N	0.926793	0.185406	0.459848
	N269	N	0.098652	0.190094	0.534179
	N270	N	0.093035	0.834450	0.458722
	N271	N	0.921199	0.830377	0.533674
	N272	N	0.190234	0.472213	0.909817
	N273	N	0.191290	0.545417	0.083145
	N274	N	0.829708	0.474061	0.085969
	N275	N	0.834298	0.547428	0.911830
	O276	O	0.009664	0.081172	0.031788
	H277	H	0.008361	0.073732	0.033311
	H278	H	0.018490	0.096354	0.031374
	O279	O	0.554437	0.403418	0.539365
	H280	H	0.552889	0.403453	0.531052
	H281	H	0.555392	0.410045	0.544526
	O282	O	0.434619	0.532280	0.539853
	H283	H	0.429971	0.532162	0.544424
	H284	H	0.440082	0.524036	0.543575
	O285	O	0.993523	0.085519	0.880117
	H286	H	0.998839	0.097901	0.895355
	H287	H	0.997943	0.091395	0.879479
	O288	O	1.040663	-0.078504	-0.042990
	H289	H	1.036981	-0.077455	-0.051049
	H290	H	1.045816	-0.082773	-0.045227
	O291	O	0.568607	0.404962	0.555412
	H292	H	0.564907	0.391626	0.555797
	H293	H	0.574310	0.405867	0.555865
	O294	O	0.911779	0.060954	0.895849
	H295	H	0.907602	0.064244	0.878575
	H296	H	0.918808	0.064698	0.886883
	O297	O	0.009104	-0.023009	-0.087951
	H298	H	0.004861	-0.009393	-0.094653
	H299	H	0.003334	-0.033207	-0.071556
	O300	O	1.038141	0.032854	-0.030999
	H301	H	1.044203	0.033831	-0.024030
	H302	H	1.035503	0.030306	-0.043635
	O303	O	0.044248	0.000265	0.051101
	H304	H	0.041079	0.003524	0.056715
	H305	H	0.042488	-0.005512	0.045394
	O306	O	0.996290	-0.085763	0.053113
	H307	H	0.998649	-0.092171	0.059091
	H308	H	1.002638	-0.074518	0.045908
	O309	O	0.027408	0.043295	1.111934
	H310	H	0.022780	0.049175	1.114652
	H311	H	0.033515	0.050566	1.122231
	O312	O	0.853754	0.993587	1.007661
	H313	H	0.839012	0.988555	1.007552
	H314	H	0.847876	0.985748	1.013279
	O315	O	0.484494	0.576032	0.460489
	H316	H	0.478940	0.579380	0.461325
	H317	H	0.485602	0.574789	0.464133
	O318	O	0.499911	0.452001	0.455277
	H319	H	0.493222	0.454665	0.454819
	H320	H	0.503145	0.449738	0.450040
	O321	O	0.069175	0.990250	0.924244
	H322	H	0.073771	0.990009	0.920184
	H323	H	0.062269	0.992039	0.930205
	O324	O	0.530489	0.546690	0.542363
	H325	H	0.530199	0.535303	0.539074
	H326	H	0.535393	0.530516	0.538708
	O327	O	0.493831	0.488743	0.516202
	H328	H	0.491883	0.490969	0.510126
	H329	H	0.509511	0.492359	0.508994
	O330	O	0.524987	0.604886	0.609792
	H331	H	0.523978	0.613686	0.616253
	H332	H	0.533048	0.606315	0.606579
	O333	O	0.532820	0.564875	0.463629
	H334	H	0.531640	0.566926	0.469134
	H335	H	0.531007	0.571068	0.455564
	O336	O	0.510949	0.476988	0.383260
	H337	H	0.511456	0.483209	0.392228
	H338	H	0.507854	0.483163	0.376294
	O339	O	1.061557	1.076041	0.023736
	H340	H	1.055708	1.074588	0.020597
	H341	H	1.066747	1.085732	0.038723
	O342	O	0.431557	0.420846	0.454444
	H343	H	0.427643	0.414418	0.452431
	H344	H	0.432828	0.420299	0.448606
	O345	O	0.519858	0.489715	0.488519
	H346	H	0.511343	0.486742	0.492340
	H347	H	0.512133	0.490229	0.503518
	O348	O	-0.065316	0.063324	0.068676
	H349	H	-0.071709	0.060581	0.066440
	H350	H	-0.071641	0.044473	0.071716
	O351	O	-0.469776	1.565077	1.557093
	H352	H	-0.473471	1.571622	1.569491
	H353	H	-0.474574	1.571445	1.564776
	O354	O	0.239026	0.192267	0.921507
	H355	H	0.235375	0.198982	0.929122
	H356	H	0.237791	0.190375	0.926108
	O357	O	-0.069486	0.918496	1.093904
	H358	H	-0.067160	0.908345	1.101943
	H359	H	-0.070256	0.910406	1.087362
