data_Molecule from HDF5

_cell_length_a		16.434019
_cell_length_b		16.303390
_cell_length_c		16.238069
_cell_angle_alpha	89.813034
_cell_angle_beta	90.089149
_cell_angle_gamma	90.444553
_symmetry_space_group_name_H-M	'P 1'
_symmetry_Int_Tables_number		1

loop_
	_symmetry_equiv_pos_as_xyz
	x,y,z

loop_
	_atom_site_label
	_atom_site_type_symbol
	_atom_site_fract_x
	_atom_site_fract_y
	_atom_site_fract_z
	H0	H	0.388773	0.849681	0.706887
	H1	H	0.596615	0.171062	0.709344
	H2	H	0.592336	0.850251	0.269925
	H3	H	0.389847	0.172898	0.270738
	H4	H	0.710157	0.407076	0.829077
	H5	H	0.713081	0.617750	0.149510
	H6	H	0.269253	0.614010	0.829604
	H7	H	0.268402	0.402278	0.150111
	H8	H	0.831623	0.731224	0.383619
	H9	H	0.147866	0.733857	0.599099
	H10	H	0.833099	0.284584	0.599645
	H11	H	0.150454	0.292989	0.389515
	H12	H	0.829156	0.404844	0.709131
	H13	H	0.148152	0.613798	0.712115
	H14	H	0.831449	0.613129	0.269703
	H15	H	0.149227	0.405366	0.271283
	H16	H	0.389309	0.726161	0.827399
	H17	H	0.592515	0.728033	0.151818
	H18	H	0.590739	0.294241	0.826906
	H19	H	0.386018	0.289105	0.149727
	H20	H	0.710886	0.851626	0.383219
	H21	H	0.713182	0.169672	0.596208
	H22	H	0.269056	0.851837	0.595372
	H23	H	0.270439	0.171477	0.382183
	H24	H	0.884853	0.348870	0.210692
	H25	H	0.097459	0.668970	0.212609
	H26	H	0.087193	0.347164	0.775263
	H27	H	0.884325	0.668383	0.767737
	H28	H	0.210106	0.907560	0.330173
	H29	H	0.214103	0.117534	0.651502
	H30	H	0.768907	0.119751	0.331294
	H31	H	0.767989	0.903066	0.650412
	H32	H	0.329840	0.228218	0.883215
	H33	H	0.649010	0.231953	0.091841
	H34	H	0.331119	0.786329	0.095872
	H35	H	0.649968	0.790058	0.884817
	H36	H	0.330203	0.904186	0.211245
	H37	H	0.648324	0.117764	0.210370
	H38	H	0.330406	0.111516	0.769049
	H39	H	0.650561	0.908309	0.771248
	H40	H	0.890410	0.229484	0.329665
	H41	H	0.094423	0.228649	0.654639
	H42	H	0.096934	0.789806	0.331510
	H43	H	0.885216	0.789266	0.651513
	H44	H	0.206840	0.348675	0.885269
	H45	H	0.212949	0.668079	0.097020
	H46	H	0.766373	0.351415	0.097706
	H47	H	0.768493	0.669148	0.880647
	H48	H	0.398838	0.126108	0.575035
	H49	H	0.579541	0.895176	0.582637
	H50	H	0.586673	0.128066	0.398994
	H51	H	0.402017	0.896669	0.397639
	H52	H	0.579403	0.420739	0.105435
	H53	H	0.586119	0.600179	0.872709
	H54	H	0.402086	0.598985	0.105343
	H55	H	0.405331	0.410936	0.872858
	H56	H	0.103525	0.603356	0.406321
	H57	H	0.876907	0.592929	0.583967
	H58	H	0.102494	0.420428	0.577682
	H59	H	0.876673	0.421997	0.399925
	H60	H	0.104269	0.425629	0.588173
	H61	H	0.873323	0.604556	0.581565
	H62	H	0.101711	0.596178	0.405847
	H63	H	0.874809	0.415276	0.400519
	H64	H	0.398338	0.598734	0.106106
	H65	H	0.577826	0.593851	0.877987
	H66	H	0.577692	0.425227	0.102977
	H67	H	0.384027	0.417806	0.869065
	H68	H	0.574407	0.124541	0.397495
	H69	H	0.576409	0.896883	0.578588
	H70	H	0.401288	0.128332	0.583920
	H71	H	0.400206	0.898729	0.405947
	H72	H	0.906038	0.623297	0.080253
	H73	H	0.074663	0.396797	0.078879
	H74	H	0.076868	0.624450	0.897744
	H75	H	0.899336	0.394349	0.898767
	H76	H	0.074298	0.917014	0.605405
	H77	H	0.087805	0.100213	0.375606
	H78	H	0.896608	0.101268	0.609450
	H79	H	0.904523	0.919637	0.376271
	H80	H	0.604127	0.106877	0.904866
	H81	H	0.377304	0.096481	0.075823
	H82	H	0.602496	0.917915	0.074484
	H83	H	0.376954	0.914201	0.905309
	H84	H	0.600074	0.927014	0.077643
	H85	H	0.374741	0.098118	0.082819
	H86	H	0.602065	0.096711	0.899921
	H87	H	0.378473	0.924967	0.898002
	H88	H	0.899734	0.089544	0.603725
	H89	H	0.076832	0.097186	0.379715
	H90	H	0.087512	0.922071	0.608886
	H91	H	0.897042	0.920792	0.374654
	H92	H	0.075744	0.620792	0.907273
	H93	H	0.081451	0.393297	0.078840
	H94	H	0.900684	0.622909	0.075047
	H95	H	0.899240	0.397132	0.906732
	H96	H	0.407002	0.124457	0.577412
	H97	H	0.581550	0.895998	0.577329
	H98	H	0.580114	0.122196	0.408959
	H99	H	0.394326	0.895471	0.400620
	H100	H	0.574520	0.420983	0.103067
	H101	H	0.575023	0.604767	0.873513
	H102	H	0.400447	0.595780	0.104588
	H103	H	0.398912	0.432352	0.878690
	H104	H	0.104745	0.599934	0.399929
	H105	H	0.879085	0.598113	0.572714
	H106	H	0.107027	0.413906	0.586665
	H107	H	0.877447	0.419115	0.406071
	H108	H	0.899829	0.625311	0.081512
	H109	H	0.077741	0.393541	0.085097
	H110	H	0.084752	0.624623	0.904174
	H111	H	0.892532	0.393546	0.903396
	H112	H	0.077384	0.930524	0.602952
	H113	H	0.078543	0.108244	0.375332
	H114	H	0.908590	0.099878	0.604418
	H115	H	0.901387	0.926500	0.377144
	H116	H	0.605859	0.105012	0.894051
	H117	H	0.375291	0.103517	0.077421
	H118	H	0.605105	0.920910	0.084216
	H119	H	0.372942	0.914561	0.892275
	C120	C	0.370180	0.019870	0.610571
	C121	C	0.611658	1.001817	0.611396
	C122	C	0.611532	0.019377	0.368865
	C123	C	0.368391	1.003097	0.368685
	C124	C	0.609035	0.391128	-0.002499
	C125	C	0.612011	0.631973	0.980907
	C126	C	0.368995	0.629535	-0.001502
	C127	C	0.365633	0.387823	0.980124
	C128	C	-0.001445	0.631666	0.370114
	C129	C	0.980989	0.631273	0.613126
	C130	C	-0.001002	0.387563	0.614438
	C131	C	0.981882	0.388436	0.371175
	C132	C	0.868787	0.518503	0.111846
	C133	C	0.111472	0.500247	0.112968
	C134	C	0.109190	0.517312	0.870498
	C135	C	0.866736	0.500725	0.869114
	C136	C	0.111546	0.890938	0.499498
	C137	C	0.113189	0.133353	0.483208
	C138	C	0.869991	0.130964	0.499960
	C139	C	0.868654	0.889371	0.482008
	C140	C	0.498397	0.132540	0.867169
	C141	C	0.480892	0.132613	0.110658
	C142	C	0.497848	0.888589	0.111707
	C143	C	0.482162	0.887967	0.868199
	C144	C	0.369478	0.898225	0.668318
	C145	C	0.614254	0.122773	0.670232
	C146	C	0.611946	0.898576	0.309000
	C147	C	0.369335	0.124229	0.309186
	C148	C	0.669470	0.389335	0.876989
	C149	C	0.672551	0.635477	0.101576
	C150	C	0.309533	0.631736	0.877504
	C151	C	0.307704	0.384596	0.101843
	C152	C	0.879622	0.691511	0.366136
	C153	C	0.100469	0.692553	0.616445
	C154	C	0.879777	0.325933	0.616830
	C155	C	0.102569	0.331408	0.370793
	C156	C	0.877839	0.385797	0.671379
	C157	C	0.100363	0.633198	0.673165
	C158	C	0.879381	0.632738	0.309087
	C159	C	0.101730	0.387273	0.311588
	C160	C	0.369178	0.687714	0.876383
	C161	C	0.612749	0.690325	0.102703
	C162	C	0.609923	0.333325	0.875477
	C163	C	0.366142	0.328293	0.101646
	C164	C	0.670653	0.899135	0.365547
	C165	C	0.672255	0.122100	0.613537
	C166	C	0.309735	0.899555	0.613015
	C167	C	0.310096	0.123608	0.365141
	C168	C	0.866199	0.397535	0.171513
	C169	C	0.115102	0.620700	0.172588
	C170	C	0.107889	0.395900	0.812715
	C171	C	0.865781	0.620727	0.807875
	C172	C	0.170805	0.889069	0.378778
	C173	C	0.173343	0.135327	0.604011
	C174	C	0.809778	0.135835	0.379053
	C175	C	0.808318	0.885678	0.602602
	C176	C	0.377877	0.189402	0.864880
	C177	C	0.600754	0.192967	0.111692
	C178	C	0.378422	0.827149	0.113909
	C179	C	0.602117	0.829604	0.866838
	C180	C	0.378102	0.885787	0.171492
	C181	C	0.600845	0.135600	0.170199
	C182	C	0.378286	0.131151	0.807928
	C183	C	0.602495	0.888403	0.810064
	C184	C	0.870146	0.190863	0.378519
	C185	C	0.113901	0.190707	0.605347
	C186	C	0.114406	0.830145	0.379312
	C187	C	0.866697	0.829042	0.603051
	C188	C	0.167325	0.396682	0.867887
	C189	C	0.172984	0.619976	0.115149
	C190	C	0.807101	0.398918	0.115170
	C191	C	0.807968	0.621163	0.864257
	C192	C	0.395205	0.104343	0.585828
	C193	C	0.586519	0.917915	0.586514
	C194	C	0.587530	0.103030	0.394318
	C195	C	0.392096	0.918917	0.393974
	C196	C	0.584232	0.415313	0.081854
	C197	C	0.587122	0.606772	0.896767
	C198	C	0.393266	0.604888	0.083219
	C199	C	0.389335	0.412979	0.895598
	C200	C	0.081697	0.606980	0.396419
	C201	C	0.898205	0.605853	0.587123
	C202	C	0.082548	0.412845	0.591030
	C203	C	0.898189	0.411964	0.395294
	C204	C	0.894711	0.602220	0.086354
	C205	C	0.085396	0.416311	0.088212
	C206	C	0.085863	0.601407	0.895744
	C207	C	0.890475	0.416921	0.895286
	C208	C	0.086863	0.915826	0.583753
	C209	C	0.088286	0.108949	0.398788
	C210	C	0.894462	0.104454	0.583967
	C211	C	0.893583	0.915033	0.398072
	C212	C	0.582279	0.109807	0.892400
	C213	C	0.397406	0.106745	0.085913
	C214	C	0.580998	0.914498	0.086373
	C215	C	0.398118	0.911047	0.891861
	Zn216	Zn	0.491048	0.010510	0.739699
	Zn217	Zn	0.489534	0.010898	0.240364
	Zn218	Zn	0.739452	0.511010	-0.009653
	Zn219	Zn	0.238762	0.508740	-0.009948
	Zn220	Zn	-0.010256	0.761648	0.491325
	Zn221	Zn	-0.008937	0.260151	0.492826
	Zn222	Zn	-0.011679	0.508809	0.742329
	Zn223	Zn	-0.009712	0.509133	0.241322
	Zn224	Zn	0.490364	0.758993	-0.009887
	Zn225	Zn	0.488367	0.261077	-0.011718
	Zn226	Zn	0.740414	0.010440	0.490179
	Zn227	Zn	0.240438	0.012366	0.490758
	N228	N	0.406265	0.974210	0.667088
	N229	N	0.577260	0.046951	0.668921
	N230	N	0.576144	0.974522	0.310697
	N231	N	0.404444	0.048079	0.310996
	N232	N	0.668967	0.424601	0.953906
	N233	N	0.672489	0.600252	0.024829
	N234	N	0.309366	0.596414	0.954472
	N235	N	0.307308	0.420781	0.025293
	N236	N	0.954953	0.690947	0.403182
	N237	N	0.025205	0.691811	0.579975
	N238	N	0.955790	0.326921	0.582190
	N239	N	0.027186	0.332139	0.407262
	N240	N	0.952835	0.423709	0.670061
	N241	N	0.025001	0.596207	0.671517
	N242	N	0.954681	0.596500	0.311265
	N243	N	0.025937	0.422292	0.311813
	N244	N	0.405346	0.686625	0.952822
	N245	N	0.575979	0.688190	0.026728
	N246	N	0.572767	0.334517	0.951251
	N247	N	0.401417	0.330100	0.025060
	N248	N	0.670688	0.975102	0.401854
	N249	N	0.670896	0.045963	0.577647
	N250	N	0.310447	0.976145	0.577633
	N251	N	0.309401	0.047305	0.401284
	N252	N	0.903903	0.473076	0.169717
	N253	N	0.077601	0.545246	0.171356
	N254	N	0.072546	0.471988	0.814127
	N255	N	0.901424	0.544817	0.810717
	N256	N	0.168965	0.926186	0.454584
	N257	N	0.173078	0.100638	0.527042
	N258	N	0.809539	0.099320	0.455482
	N259	N	0.809228	0.922215	0.526218
	N260	N	0.453509	0.190344	0.900738
	N261	N	0.525066	0.191095	0.075365
	N262	N	0.453746	0.828890	0.077483
	N263	N	0.526206	0.829294	0.902455
	N264	N	0.453386	0.923341	0.170113
	N265	N	0.525377	0.098761	0.169754
	N266	N	0.454522	0.096736	0.809069
	N267	N	0.527103	0.924199	0.810941
	N268	N	0.906468	0.188280	0.454801
	N269	N	0.077339	0.189610	0.529122
	N270	N	0.078106	0.831079	0.455548
	N271	N	0.903370	0.830972	0.526972
	N272	N	0.168321	0.473304	0.902942
	N273	N	0.170687	0.543969	0.078805
	N274	N	0.808537	0.475157	0.078867
	N275	N	0.808510	0.545621	0.901789
	O276	O	0.519517	0.673645	0.626358
	H277	H	0.504346	0.653725	0.628502
	H278	H	0.507691	0.668430	0.623698
	O279	O	0.849561	0.988445	-0.117118
	H280	H	0.866319	0.993874	-0.111653
	H281	H	0.847906	0.987418	-0.112942
	O282	O	0.035827	0.145545	0.832230
	H283	H	0.025187	0.142785	0.824041
	H284	H	0.036052	0.137733	0.827746
	O285	O	0.812081	0.159800	0.059547
	H286	H	0.804686	0.164917	0.040996
	H287	H	0.806651	0.143600	0.066200
	O288	O	-0.041202	0.000298	1.044374
	H289	H	-0.035782	-0.026381	1.050133
	H290	H	-0.050472	0.007156	1.058358
	O291	O	0.588879	0.487421	0.367091
	H292	H	0.586110	0.499795	0.370733
	H293	H	0.598941	0.490673	0.357006
	O294	O	0.389048	0.525674	0.311936
	H295	H	0.386651	0.551954	0.317151
	H296	H	0.373738	0.516016	0.302532
	O297	O	1.199828	0.999620	1.111398
	H298	H	1.210455	1.014680	1.114289
	H299	H	1.205124	0.990441	1.113568
	O300	O	0.035428	0.126767	0.039147
	H301	H	0.033693	0.127955	0.036061
	H302	H	0.050070	0.121438	0.040389
	O303	O	0.490004	0.669390	0.641545
	H304	H	0.481629	0.678130	0.633392
	H305	H	0.484564	0.649203	0.640159
	O306	O	1.197269	0.053317	-0.060672
	H307	H	1.200085	0.057534	-0.053244
	H308	H	1.200468	0.064566	-0.058794
	O309	O	0.696595	0.695485	0.510604
	H310	H	0.715912	0.709131	0.526955
	H311	H	0.693229	0.689619	0.546551
	O312	O	1.298469	0.485609	0.405971
	H313	H	1.293455	0.478602	0.414848
	H314	H	1.290528	0.483429	0.378086
	O315	O	0.573037	0.395509	0.400664
	H316	H	0.589238	0.399776	0.392165
	H317	H	0.571244	0.408634	0.382090
	O318	O	0.472984	0.651403	0.298647
	H319	H	0.473591	0.653070	0.316243
	H320	H	0.488756	0.659221	0.282565
	O321	O	1.009978	0.127565	1.119898
	H322	H	1.013698	0.116943	1.108143
	H323	H	1.007836	0.132306	1.127104
	O324	O	0.043948	-0.189695	1.041797
	H325	H	0.026369	-0.197998	1.068571
	H326	H	0.058595	-0.171370	1.033617
	O327	O	0.303036	0.656346	0.324454
	H328	H	0.310478	0.663153	0.340238
	H329	H	0.331306	0.662942	0.317768
	O330	O	0.514417	0.635545	0.360838
	H331	H	0.527063	0.634973	0.365426
	H332	H	0.524688	0.639582	0.371729
	O333	O	0.782183	0.804042	1.013472
	H334	H	0.782876	0.790211	0.998604
	H335	H	0.778985	0.790141	0.995678
	O336	O	0.614233	0.491551	0.362918
	H337	H	0.623840	0.505408	0.360121
	H338	H	0.624649	0.494297	0.373025
	O339	O	1.120525	0.168589	1.124460
	H340	H	1.118654	0.165749	1.145000
	H341	H	1.123566	0.171556	1.129128
	O342	O	-0.029773	0.796484	1.202377
	H343	H	-0.019763	0.776323	1.217665
	H344	H	-0.049109	0.799066	1.209233
	O345	O	0.676518	0.523090	0.556431
	H346	H	0.673712	0.521197	0.546606
	H347	H	0.678385	0.528792	0.560534
	O348	O	0.332767	0.549109	0.632066
	H349	H	0.329631	0.533841	0.606740
	H350	H	0.323704	0.539181	0.650906
	O351	O	0.043573	0.138432	0.106696
	H352	H	0.036291	0.116071	0.113967
	H353	H	0.034934	0.147343	0.090051
	O354	O	1.128858	0.967855	-0.088425
	H355	H	1.112340	0.959519	-0.070093
	H356	H	1.140236	0.971463	-0.096759
	O357	O	-0.085930	0.821108	-0.085348
	H358	H	-0.079606	0.836099	-0.099788
	H359	H	-0.060556	0.814596	-0.076669
	O360	O	0.289131	0.356936	0.523464
	H361	H	0.270344	0.342633	0.527323
	H362	H	0.294974	0.350596	0.541351
	O363	O	0.522692	0.323922	0.578798
	H364	H	0.532314	0.322141	0.579519
	H365	H	0.525830	0.306172	0.584467
	O366	O	0.380363	0.460680	0.652202
	H367	H	0.399506	0.464552	0.658711
	H368	H	0.385581	0.470089	0.665136
	O369	O	0.504686	0.382549	0.544715
	H370	H	0.503839	0.375648	0.529242
	H371	H	0.507945	0.382558	0.532466
	O372	O	0.643633	0.527735	0.623946
	H373	H	0.645444	0.511657	0.627012
	H374	H	0.629500	0.523916	0.613342
	O375	O	0.511195	0.473116	0.682545
	H376	H	0.521407	0.465731	0.688130
	H377	H	0.516684	0.468147	0.674116
	O378	O	0.631291	0.326860	0.369399
	H379	H	0.615889	0.322849	0.353198
	H380	H	0.640492	0.343297	0.356707
	O381	O	0.521616	0.650324	0.429769
	H382	H	0.542913	0.658528	0.444002
	H383	H	0.513762	0.638870	0.443064
	O384	O	0.181467	0.925439	0.834338
	H385	H	0.185862	0.929227	0.858215
	H386	H	0.164197	0.924075	0.836372
	O387	O	1.055559	1.192369	0.144762
	H388	H	1.035489	1.195240	0.142121
	H389	H	1.060226	1.196143	0.153871
	O390	O	0.422577	0.311789	0.404357
	H391	H	0.404858	0.310854	0.406239
	H392	H	0.403925	0.306475	0.413084
	O393	O	0.828446	-0.911805	1.795827
	H394	H	0.817026	-0.916629	1.789403
	H395	H	0.825427	-0.911247	1.793693
	O396	O	0.045303	0.991873	1.161328
	H397	H	0.044059	0.998328	1.161628
	H398	H	0.049312	0.999288	1.166803
	O399	O	0.285153	0.665918	0.503972
	H400	H	0.283329	0.657269	0.494693
	H401	H	0.262682	0.679336	0.496776
	O402	O	0.826696	0.129894	0.845929
	H403	H	0.824380	0.131378	0.868573
	H404	H	0.829408	0.117623	0.841888
	O405	O	-0.189390	-0.168766	0.172875
	H406	H	-0.169757	-0.154111	0.182142
	H407	H	-0.199717	-0.179833	0.122014
	O408	O	0.878795	1.107329	0.928772
	H409	H	0.910355	1.119010	0.924748
	H410	H	0.875558	1.099678	0.935856
	O411	O	1.184623	0.824653	-0.109031
	H412	H	1.193236	0.834295	-0.109958
	H413	H	1.197790	0.835406	-0.093698
	O414	O	-0.054229	0.039534	0.996015
	H415	H	-0.049810	0.039935	0.987553
	H416	H	-0.052566	0.037139	1.003639
	O417	O	1.017548	-0.202461	0.781407
	H418	H	1.027339	-0.202670	0.773681
	H419	H	1.026001	-0.212678	0.765950
	O420	O	-0.224206	0.988697	0.201751
	H421	H	-0.225263	0.966287	0.201716
	H422	H	-0.250162	0.990275	0.213854
	O423	O	1.622873	0.541743	-0.482822
	H424	H	1.624114	0.540831	-0.472877
	H425	H	1.605908	0.535554	-0.492115
	O426	O	0.078420	0.007371	0.842385
	H427	H	0.074473	0.005930	0.838162
	H428	H	0.081996	0.005846	0.853094
	O429	O	0.351184	0.352782	0.613614
	H430	H	0.354538	0.370135	0.608922
	H431	H	0.361780	0.353649	0.625338
