data_Molecule from HDF5

_cell_length_a		16.187755
_cell_length_b		16.351681
_cell_length_c		15.958940
_cell_angle_alpha	91.068561
_cell_angle_beta	90.441109
_cell_angle_gamma	90.428019
_symmetry_space_group_name_H-M	'P 1'
_symmetry_Int_Tables_number		1

loop_
	_symmetry_equiv_pos_as_xyz
	x,y,z

loop_
	_atom_site_label
	_atom_site_type_symbol
	_atom_site_fract_x
	_atom_site_fract_y
	_atom_site_fract_z
	H0	H	0.408853	0.838310	0.701329
	H1	H	0.604892	0.167280	0.714106
	H2	H	0.596730	0.839806	0.280081
	H3	H	0.407486	0.168998	0.285528
	H4	H	0.713500	0.404841	0.827354
	H5	H	0.721390	0.606931	0.161743
	H6	H	0.294651	0.595732	0.828344
	H7	H	0.294856	0.409473	0.162444
	H8	H	0.840940	0.716652	0.394769
	H9	H	0.167041	0.725310	0.604585
	H10	H	0.841270	0.289440	0.593175
	H11	H	0.167912	0.284757	0.390820
	H12	H	0.839494	0.409478	0.702354
	H13	H	0.170601	0.603468	0.709758
	H14	H	0.840163	0.595096	0.282963
	H15	H	0.171519	0.407002	0.284381
	H16	H	0.405496	0.712314	0.828063
	H17	H	0.609366	0.724749	0.159824
	H18	H	0.603946	0.285333	0.830463
	H19	H	0.407221	0.294165	0.162479
	H20	H	0.717931	0.840817	0.392401
	H21	H	0.720784	0.167690	0.598434
	H22	H	0.286268	0.842220	0.592925
	H23	H	0.287410	0.166350	0.396277
	H24	H	0.910545	0.338378	0.200380
	H25	H	0.108183	0.665884	0.215205
	H26	H	0.100180	0.341116	0.778175
	H27	H	0.910779	0.669436	0.786358
	H28	H	0.212731	0.904180	0.328584
	H29	H	0.219200	0.106935	0.661775
	H30	H	0.793055	0.096411	0.328923
	H31	H	0.792043	0.909084	0.663726
	H32	H	0.341020	0.216771	0.893858
	H33	H	0.667504	0.224952	0.104079
	H34	H	0.341540	0.788720	0.092492
	H35	H	0.669004	0.787009	0.892747
	H36	H	0.337642	0.910805	0.198975
	H37	H	0.669296	0.102945	0.211385
	H38	H	0.338722	0.094277	0.785211
	H39	H	0.670837	0.909090	0.784455
	H40	H	0.903515	0.211879	0.329021
	H41	H	0.106433	0.223067	0.661024
	H42	H	0.103657	0.785100	0.332346
	H43	H	0.904365	0.792374	0.663500
	H44	H	0.219373	0.341115	0.891839
	H45	H	0.224322	0.666759	0.100069
	H46	H	0.787944	0.342031	0.092641
	H47	H	0.789584	0.666487	0.896367
	H48	H	0.416155	0.117797	0.582326
	H49	H	0.593615	0.887924	0.589602
	H50	H	0.611641	0.124518	0.407747
	H51	H	0.410356	0.892005	0.410357
	H52	H	0.603140	0.417768	0.115912
	H53	H	0.601117	0.595275	0.873700
	H54	H	0.420328	0.602310	0.115699
	H55	H	0.407853	0.410841	0.875308
	H56	H	0.127335	0.597876	0.396047
	H57	H	0.891849	0.590028	0.579812
	H58	H	0.122905	0.411045	0.583427
	H59	H	0.885188	0.402900	0.393395
	H60	H	0.123099	0.414032	0.586988
	H61	H	0.882752	0.596511	0.602444
	H62	H	0.123400	0.607037	0.415628
	H63	H	0.885972	0.402799	0.402127
	H64	H	0.411924	0.602407	0.116727
	H65	H	0.595425	0.592043	0.877268
	H66	H	0.593665	0.417874	0.113252
	H67	H	0.416996	0.407898	0.876891
	H68	H	0.596547	0.122667	0.393854
	H69	H	0.601121	0.888387	0.580116
	H70	H	0.403139	0.122959	0.590825
	H71	H	0.394649	0.882873	0.395328
	H72	H	0.914782	0.619722	0.090169
	H73	H	0.097720	0.389304	0.079269
	H74	H	0.107776	0.622750	0.906497
	H75	H	0.915957	0.387378	0.892245
	H76	H	0.110535	0.912747	0.621827
	H77	H	0.089566	0.090033	0.378027
	H78	H	0.906382	0.102716	0.618725
	H79	H	0.917228	0.907038	0.378476
	H80	H	0.621690	0.099867	0.915521
	H81	H	0.383973	0.105541	0.087835
	H82	H	0.622568	0.919132	0.088491
	H83	H	0.385334	0.896614	0.904674
	H84	H	0.625253	0.908623	0.090918
	H85	H	0.389131	0.098011	0.082829
	H86	H	0.620684	0.088981	0.905913
	H87	H	0.389718	0.912908	0.901943
	H88	H	0.914382	0.093320	0.614690
	H89	H	0.094345	0.101537	0.374078
	H90	H	0.093436	0.929046	0.611298
	H91	H	0.908636	0.903958	0.375720
	H92	H	0.102534	0.622818	0.899554
	H93	H	0.109980	0.384749	0.086082
	H94	H	0.914360	0.620714	0.088542
	H95	H	0.911195	0.390553	0.906807
	H96	H	0.417625	0.121325	0.598172
	H97	H	0.604781	0.884265	0.591108
	H98	H	0.592941	0.117077	0.413796
	H99	H	0.416311	0.887108	0.387828
	H100	H	0.596358	0.409930	0.116083
	H101	H	0.596544	0.599108	0.874583
	H102	H	0.416473	0.595390	0.113828
	H103	H	0.410378	0.401739	0.873317
	H104	H	0.117775	0.586119	0.411805
	H105	H	0.883769	0.612469	0.583964
	H106	H	0.124242	0.409699	0.587159
	H107	H	0.888132	0.409567	0.398402
	H108	H	0.913226	0.620643	0.089310
	H109	H	0.097946	0.385056	0.092969
	H110	H	0.099532	0.619511	0.907532
	H111	H	0.902583	0.384602	0.895512
	H112	H	0.085712	0.904497	0.616259
	H113	H	0.102810	0.091481	0.375023
	H114	H	0.918824	0.105871	0.616166
	H115	H	0.910433	0.912614	0.378402
	H116	H	0.625560	0.101892	0.901882
	H117	H	0.385068	0.096606	0.093168
	H118	H	0.622238	0.910968	0.081248
	H119	H	0.383163	0.903756	0.889306
	C120	C	0.383616	0.012426	0.616207
	C121	C	0.628275	0.995260	0.617783
	C122	C	0.626475	0.012715	0.374003
	C123	C	0.380226	0.995505	0.371911
	C124	C	0.625834	0.383669	0.004780
	C125	C	0.627584	0.626073	0.985570
	C126	C	0.386337	0.624513	0.004398
	C127	C	0.384333	0.381888	0.986104
	C128	C	0.014030	0.624173	0.376641
	C129	C	0.995499	0.627951	0.618790
	C130	C	0.013974	0.383855	0.613734
	C131	C	0.995846	0.378542	0.370589
	C132	C	0.885306	0.512359	0.116029
	C133	C	0.130293	0.494741	0.117568
	C134	C	0.128894	0.513308	0.873604
	C135	C	0.882665	0.495641	0.871629
	C136	C	0.124717	0.884214	0.506259
	C137	C	0.125661	0.125890	0.485833
	C138	C	0.884300	0.124933	0.505317
	C139	C	0.883171	0.882002	0.487929
	C140	C	0.513797	0.123683	0.876938
	C141	C	0.495108	0.128654	0.119317
	C142	C	0.513889	0.884153	0.114516
	C143	C	0.495728	0.879027	0.871367
	C144	C	0.387217	0.888122	0.666448
	C145	C	0.625506	0.118321	0.675481
	C146	C	0.619664	0.889172	0.317526
	C147	C	0.385526	0.119516	0.320941
	C148	C	0.678115	0.384395	0.878265
	C149	C	0.683507	0.626124	0.111559
	C150	C	0.331460	0.618007	0.878430
	C151	C	0.331016	0.387611	0.112368
	C152	C	0.890096	0.678467	0.375765
	C153	C	0.118699	0.685359	0.621329
	C154	C	0.890115	0.328344	0.611962
	C155	C	0.119391	0.323615	0.372274
	C156	C	0.889360	0.387975	0.666636
	C157	C	0.120493	0.624973	0.673709
	C158	C	0.889497	0.617995	0.320538
	C159	C	0.121300	0.384440	0.319169
	C160	C	0.386869	0.675626	0.878216
	C161	C	0.628125	0.684822	0.110689
	C162	C	0.623781	0.324446	0.879907
	C163	C	0.386787	0.330499	0.112415
	C164	C	0.679915	0.889515	0.373512
	C165	C	0.683245	0.118627	0.617935
	C166	C	0.326039	0.890069	0.612570
	C167	C	0.325797	0.118221	0.376283
	C168	C	0.889037	0.388281	0.165875
	C169	C	0.128232	0.617418	0.176043
	C170	C	0.122316	0.389968	0.816585
	C171	C	0.888208	0.619677	0.821111
	C172	C	0.177166	0.884241	0.379524
	C173	C	0.181447	0.125785	0.611813
	C174	C	0.829736	0.118026	0.378943
	C175	C	0.828742	0.887247	0.613490
	C176	C	0.389810	0.178018	0.876054
	C177	C	0.618547	0.185660	0.121320
	C178	C	0.390216	0.827796	0.111716
	C179	C	0.620070	0.825175	0.873331
	C180	C	0.388447	0.888367	0.165149
	C181	C	0.619420	0.125255	0.175042
	C182	C	0.388790	0.117601	0.821541
	C183	C	0.621005	0.885610	0.819438
	C184	C	0.885006	0.175420	0.378892
	C185	C	0.125491	0.183800	0.611310
	C186	C	0.123018	0.824984	0.381356
	C187	C	0.884659	0.829509	0.613565
	C188	C	0.181538	0.389960	0.873265
	C189	C	0.186491	0.617649	0.119094
	C190	C	0.827738	0.390146	0.112514
	C191	C	0.828035	0.618242	0.875954
	C192	C	0.405836	0.098557	0.596391
	C193	C	0.606274	0.909058	0.593883
	C194	C	0.606378	0.098999	0.397930
	C195	C	0.400888	0.909632	0.391820
	C196	C	0.604071	0.408110	0.092454
	C197	C	0.604409	0.602399	0.897887
	C198	C	0.409507	0.605661	0.092572
	C199	C	0.405370	0.400995	0.898120
	C200	C	0.100383	0.603197	0.400722
	C201	C	0.908562	0.606212	0.595542
	C202	C	0.100866	0.405158	0.592193
	C203	C	0.908980	0.399108	0.391556
	C204	C	0.907582	0.598267	0.095698
	C205	C	0.108268	0.408484	0.093033
	C206	C	0.109248	0.599628	0.897490
	C207	C	0.903628	0.409639	0.892088
	C208	C	0.103064	0.908249	0.593717
	C209	C	0.102386	0.101673	0.398366
	C210	C	0.906723	0.106265	0.593711
	C211	C	0.905579	0.901954	0.400262
	C212	C	0.600247	0.103081	0.900785
	C213	C	0.408365	0.106527	0.095040
	C214	C	0.600851	0.906364	0.093188
	C215	C	0.408602	0.898646	0.892356
	Zn216	Zn	0.505266	0.002714	0.745714
	Zn217	Zn	0.503313	0.004871	0.244115
	Zn218	Zn	0.754429	0.504548	-0.005166
	Zn219	Zn	0.258616	0.503987	-0.004033
	Zn220	Zn	0.004955	0.754999	0.498460
	Zn221	Zn	0.004380	0.252622	0.493966
	Zn222	Zn	0.005677	0.505342	0.743627
	Zn223	Zn	0.006651	0.502629	0.245661
	Zn224	Zn	0.505561	0.753150	-0.005602
	Zn225	Zn	0.504594	0.254957	-0.003202
	Zn226	Zn	0.757127	0.004411	0.496319
	Zn227	Zn	0.252478	0.004718	0.495432
	N228	N	0.422560	0.965164	0.668935
	N229	N	0.592113	0.040592	0.675543
	N230	N	0.587226	0.966936	0.317603
	N231	N	0.418679	0.042245	0.317758
	N232	N	0.679773	0.420446	0.956999
	N233	N	0.683471	0.590595	0.032574
	N234	N	0.331129	0.586829	0.957850
	N235	N	0.329325	0.418980	0.032970
	N236	N	0.968537	0.682442	0.410060
	N237	N	0.039957	0.687519	0.588021
	N238	N	0.968746	0.325791	0.579838
	N239	N	0.040423	0.319656	0.403431
	N240	N	0.967359	0.422099	0.667953
	N241	N	0.042841	0.589949	0.672450
	N242	N	0.967518	0.585132	0.320698
	N243	N	0.043456	0.417935	0.317868
	N244	N	0.420422	0.679826	0.957800
	N245	N	0.593897	0.684911	0.031515
	N246	N	0.592308	0.323642	0.959798
	N247	N	0.419206	0.326678	0.033079
	N248	N	0.684307	0.967281	0.407815
	N249	N	0.685136	0.041092	0.582877
	N250	N	0.323802	0.968295	0.582309
	N251	N	0.322382	0.040291	0.407223
	N252	N	0.924148	0.465309	0.168364
	N253	N	0.094016	0.539973	0.175256
	N254	N	0.090095	0.467722	0.816816
	N255	N	0.921548	0.542472	0.818214
	N256	N	0.178378	0.920544	0.458117
	N257	N	0.181528	0.090428	0.532767
	N258	N	0.829244	0.087372	0.458675
	N259	N	0.827469	0.919079	0.534258
	N260	N	0.468592	0.182262	0.909604
	N261	N	0.539961	0.187903	0.087456
	N262	N	0.469523	0.824702	0.081200
	N263	N	0.541150	0.820659	0.904711
	N264	N	0.466291	0.922857	0.166825
	N265	N	0.541766	0.090389	0.173715
	N266	N	0.466655	0.084210	0.822197
	N267	N	0.542922	0.918077	0.817814
	N268	N	0.918318	0.179890	0.458507
	N269	N	0.091612	0.184149	0.531957
	N270	N	0.091218	0.824853	0.461158
	N271	N	0.917846	0.826078	0.534377
	N272	N	0.185663	0.467594	0.908010
	N273	N	0.187941	0.540194	0.083657
	N274	N	0.825306	0.468306	0.082237
	N275	N	0.824373	0.540117	0.906631
	O276	O	0.049213	0.042896	0.042107
	H277	H	0.052812	0.042454	0.045115
	H278	H	0.043978	0.044018	0.052788
	O279	O	0.611948	0.529004	0.540758
	H280	H	0.622419	0.532846	0.548734
	H281	H	0.614293	0.530991	0.537173
	O282	O	0.483959	0.497238	0.410302
	H283	H	0.492945	0.509849	0.407994
	H284	H	0.493835	0.499538	0.417494
	O285	O	0.921441	-0.032368	1.031993
	H286	H	0.913576	-0.032435	1.042209
	H287	H	0.929449	-0.031415	1.031900
	O288	O	1.028084	0.073453	-0.030183
	H289	H	1.032249	0.071148	-0.027066
	H290	H	1.019714	0.072325	-0.034866
	O291	O	0.538468	0.636346	0.484452
	H292	H	0.540204	0.640693	0.491596
	H293	H	0.542489	0.623443	0.484583
	O294	O	0.962788	-0.012280	1.036610
	H295	H	0.964310	-0.012544	1.051595
	H296	H	0.976309	-0.007256	1.022832
	O297	O	0.025706	0.000797	0.044442
	H298	H	0.027348	0.012574	0.042441
	H299	H	0.037796	-0.002120	0.061973
	O300	O	0.503042	0.541998	0.460049
	H301	H	0.498302	0.546938	0.459718
	H302	H	0.515609	0.546280	0.468648
	O303	O	0.430005	0.437611	0.407873
	H304	H	0.438880	0.444330	0.416917
	H305	H	0.430328	0.434456	0.396853
	O306	O	1.035251	0.034783	-0.018501
	H307	H	1.033337	0.028296	-0.017444
	H308	H	1.034445	0.036723	-0.024224
	O309	O	0.017020	-0.061139	1.056235
	H310	H	0.013920	-0.052663	1.056444
	H311	H	0.013002	-0.053104	1.055735
	O312	O	1.045905	1.034459	1.041084
	H313	H	1.055035	1.031842	1.042794
	H314	H	1.048715	1.038743	1.048407
	O315	O	0.503286	0.509662	0.447185
	H316	H	0.493443	0.507799	0.454383
	H317	H	0.510231	0.505219	0.449788
	O318	O	0.488111	0.378171	0.551714
	H319	H	0.492131	0.370921	0.549228
	H320	H	0.485262	0.373952	0.545496
	O321	O	-0.001468	0.984389	0.951756
	H322	H	0.003831	0.982209	0.960751
	H323	H	-0.005213	0.985034	0.950579
	O324	O	0.502544	0.603798	0.540998
	H325	H	0.501348	0.610680	0.547521
	H326	H	0.492667	0.615402	0.541108
	O327	O	0.494319	0.497027	0.479682
	H328	H	0.504817	0.491369	0.482146
	H329	H	0.488322	0.491571	0.478199
	O330	O	0.408642	0.379081	0.512675
	H331	H	0.406571	0.369280	0.513159
	H332	H	0.405714	0.383740	0.518992
	O333	O	0.429703	0.452365	0.483999
	H334	H	0.427114	0.450703	0.481282
	H335	H	0.431416	0.457601	0.478487
	O336	O	0.607853	0.531568	0.511260
	H337	H	0.603573	0.530865	0.513297
	H338	H	0.610486	0.526258	0.503778
	O339	O	0.934956	1.043317	0.015803
	H340	H	0.930378	1.034769	0.007291
	H341	H	0.929457	1.042243	0.012296
	O342	O	0.485669	0.468828	0.509489
	H343	H	0.490211	0.465744	0.502717
	H344	H	0.478109	0.469742	0.507559
	O345	O	0.534923	0.537216	0.617940
	H346	H	0.535621	0.545089	0.626211
	H347	H	0.531302	0.537502	0.617842
	O348	O	0.007520	0.068252	-0.011657
	H349	H	0.003669	0.073913	-0.013883
	H350	H	-0.005696	0.065613	-0.017201
	O351	O	0.028464	1.053913	1.042217
	H352	H	0.022044	1.056340	1.048143
	H353	H	0.034681	1.067174	1.044266
	O354	O	0.562541	0.478587	0.472409
	H355	H	0.550779	0.479385	0.467227
	H356	H	0.560473	0.479968	0.468802
	O357	O	-0.073605	1.004354	1.022646
	H358	H	-0.073280	1.008410	1.013050
	H359	H	-0.071380	0.998087	1.026225
