data_Molecule from HDF5

_cell_length_a		16.284233
_cell_length_b		16.175694
_cell_length_c		16.084139
_cell_angle_alpha	90.546928
_cell_angle_beta	90.025752
_cell_angle_gamma	89.311253
_symmetry_space_group_name_H-M	'P 1'
_symmetry_Int_Tables_number		1

loop_
	_symmetry_equiv_pos_as_xyz
	x,y,z

loop_
	_atom_site_label
	_atom_site_type_symbol
	_atom_site_fract_x
	_atom_site_fract_y
	_atom_site_fract_z
	H0	H	0.409041	0.834330	0.708295
	H1	H	0.599308	0.166226	0.713973
	H2	H	0.602575	0.836281	0.285396
	H3	H	0.404795	0.166533	0.289093
	H4	H	0.718150	0.397510	0.832275
	H5	H	0.717574	0.600662	0.162431
	H6	H	0.287693	0.601752	0.833447
	H7	H	0.292710	0.406009	0.162990
	H8	H	0.840310	0.717130	0.400559
	H9	H	0.168551	0.715673	0.598052
	H10	H	0.839084	0.292588	0.593891
	H11	H	0.166050	0.281748	0.395459
	H12	H	0.840458	0.406515	0.711018
	H13	H	0.169372	0.597622	0.711366
	H14	H	0.840202	0.599348	0.285642
	H15	H	0.168501	0.400051	0.283525
	H16	H	0.405155	0.713002	0.832366
	H17	H	0.601478	0.714600	0.163935
	H18	H	0.603391	0.284631	0.833454
	H19	H	0.408465	0.293446	0.164640
	H20	H	0.720493	0.838193	0.396831
	H21	H	0.716496	0.165758	0.601020
	H22	H	0.289652	0.836822	0.597351
	H23	H	0.285099	0.163550	0.398522
	H24	H	0.909455	0.335678	0.208981
	H25	H	0.099698	0.665919	0.212507
	H26	H	0.102850	0.336031	0.783975
	H27	H	0.906004	0.667710	0.788691
	H28	H	0.218888	0.897393	0.333861
	H29	H	0.216163	0.102100	0.662539
	H30	H	0.786444	0.102569	0.332891
	H31	H	0.791058	0.905243	0.663102
	H32	H	0.339892	0.217885	0.900072
	H33	H	0.667637	0.215980	0.100315
	H34	H	0.340310	0.789497	0.097887
	H35	H	0.666973	0.782254	0.897254
	H36	H	0.339244	0.907822	0.209809
	H37	H	0.667437	0.098541	0.215188
	H38	H	0.339440	0.100176	0.785569
	H39	H	0.667892	0.899771	0.783334
	H40	H	0.903836	0.213998	0.331181
	H41	H	0.098463	0.214582	0.663349
	H42	H	0.103565	0.785653	0.332992
	H43	H	0.905311	0.791713	0.663132
	H44	H	0.221433	0.337646	0.895564
	H45	H	0.215184	0.665561	0.099497
	H46	H	0.792199	0.336136	0.096341
	H47	H	0.785953	0.664553	0.898340
	H48	H	0.408076	0.115922	0.582574
	H49	H	0.609699	0.881015	0.589024
	H50	H	0.598878	0.123225	0.402456
	H51	H	0.404789	0.880304	0.403997
	H52	H	0.596649	0.411823	0.115565
	H53	H	0.600418	0.586516	0.879249
	H54	H	0.400245	0.596288	0.119417
	H55	H	0.407588	0.406402	0.876854
	H56	H	0.118739	0.584976	0.409018
	H57	H	0.885866	0.602899	0.593677
	H58	H	0.119071	0.411092	0.586249
	H59	H	0.886021	0.407251	0.402095
	H60	H	0.123026	0.407028	0.596212
	H61	H	0.888140	0.598572	0.589180
	H62	H	0.124120	0.594021	0.395237
	H63	H	0.887013	0.409853	0.404251
	H64	H	0.413485	0.587781	0.113607
	H65	H	0.589671	0.588407	0.882114
	H66	H	0.597167	0.405813	0.118088
	H67	H	0.412632	0.412031	0.880470
	H68	H	0.586507	0.117459	0.406183
	H69	H	0.595586	0.882368	0.597839
	H70	H	0.400072	0.121535	0.596645
	H71	H	0.413601	0.881593	0.398139
	H72	H	0.917793	0.615757	0.090394
	H73	H	0.096212	0.381262	0.100604
	H74	H	0.092500	0.618251	0.908865
	H75	H	0.906805	0.381190	0.902574
	H76	H	0.100614	0.913139	0.617927
	H77	H	0.092796	0.095226	0.377294
	H78	H	0.917791	0.098580	0.613666
	H79	H	0.915700	0.911604	0.381394
	H80	H	0.622069	0.091215	0.903351
	H81	H	0.384358	0.101494	0.097729
	H82	H	0.618943	0.906744	0.083642
	H83	H	0.387324	0.915186	0.899775
	H84	H	0.621289	0.913757	0.095930
	H85	H	0.387366	0.102051	0.088643
	H86	H	0.620970	0.096124	0.908459
	H87	H	0.382781	0.900937	0.900642
	H88	H	0.903316	0.105316	0.619478
	H89	H	0.099675	0.088566	0.378334
	H90	H	0.092715	0.911546	0.615142
	H91	H	0.910860	0.905012	0.377550
	H92	H	0.101323	0.619617	0.908264
	H93	H	0.093999	0.387213	0.080193
	H94	H	0.903364	0.617835	0.082407
	H95	H	0.913897	0.382039	0.898806
	H96	H	0.417561	0.117153	0.596901
	H97	H	0.595213	0.886736	0.582076
	H98	H	0.597036	0.118389	0.415435
	H99	H	0.413422	0.884068	0.408600
	H100	H	0.604378	0.409559	0.117865
	H101	H	0.596462	0.597022	0.877083
	H102	H	0.414398	0.604726	0.118785
	H103	H	0.415730	0.405183	0.878456
	H104	H	0.123181	0.601940	0.410897
	H105	H	0.887209	0.596039	0.595983
	H106	H	0.122256	0.400624	0.587355
	H107	H	0.886078	0.410091	0.401347
	H108	H	0.905828	0.621863	0.097941
	H109	H	0.112764	0.379621	0.086578
	H110	H	0.095968	0.620816	0.901963
	H111	H	0.913040	0.384354	0.906662
	H112	H	0.097787	0.905828	0.618964
	H113	H	0.091460	0.087211	0.381579
	H114	H	0.903268	0.088421	0.614915
	H115	H	0.907053	0.912631	0.378831
	H116	H	0.617887	0.089128	0.909991
	H117	H	0.387823	0.093989	0.093233
	H118	H	0.624317	0.899618	0.094221
	H119	H	0.388506	0.907310	0.912932
	C120	C	0.381585	0.009051	0.619784
	C121	C	0.626397	0.992355	0.620195
	C122	C	0.624499	0.010776	0.377362
	C123	C	0.381094	0.991336	0.376421
	C124	C	0.627334	0.378493	0.007551
	C125	C	0.624158	0.620837	0.988916
	C126	C	0.381185	0.623908	0.007220
	C127	C	0.384265	0.381497	0.988843
	C128	C	0.013252	0.622875	0.376864
	C129	C	0.996043	0.625695	0.621157
	C130	C	0.012580	0.380530	0.618321
	C131	C	0.994871	0.378572	0.373957
	C132	C	0.882341	0.509456	0.118368
	C133	C	0.126687	0.491742	0.119122
	C134	C	0.126104	0.510582	0.876531
	C135	C	0.882320	0.491991	0.875775
	C136	C	0.125830	0.879435	0.507713
	C137	C	0.122818	0.121016	0.488649
	C138	C	0.880113	0.124817	0.506434
	C139	C	0.882841	0.882223	0.488704
	C140	C	0.512177	0.122464	0.878092
	C141	C	0.495050	0.125495	0.122236
	C142	C	0.512672	0.880355	0.119359
	C143	C	0.494956	0.877816	0.875341
	C144	C	0.387000	0.884339	0.672473
	C145	C	0.620908	0.116678	0.676272
	C146	C	0.622907	0.885895	0.322383
	C147	C	0.383620	0.116418	0.324463
	C148	C	0.681363	0.378463	0.882393
	C149	C	0.679465	0.620184	0.113473
	C150	C	0.326025	0.621406	0.882750
	C151	C	0.330189	0.385212	0.113845
	C152	C	0.889477	0.678808	0.379914
	C153	C	0.119463	0.678588	0.618439
	C154	C	0.888418	0.328757	0.614901
	C155	C	0.117673	0.321080	0.375844
	C156	C	0.889042	0.385617	0.672910
	C157	C	0.119892	0.619913	0.674919
	C158	C	0.889273	0.620460	0.322540
	C159	C	0.119011	0.380116	0.320221
	C160	C	0.384099	0.676985	0.882220
	C161	C	0.621342	0.676487	0.114168
	C162	C	0.624156	0.322245	0.882670
	C163	C	0.387500	0.329281	0.114480
	C164	C	0.681772	0.887051	0.377581
	C165	C	0.679001	0.116548	0.620054
	C166	C	0.327579	0.885478	0.617290
	C167	C	0.324580	0.115208	0.379317
	C168	C	0.887585	0.385098	0.172311
	C169	C	0.121352	0.616389	0.174770
	C170	C	0.123603	0.385788	0.821040
	C171	C	0.885265	0.617572	0.824355
	C172	C	0.181166	0.878725	0.383117
	C173	C	0.177922	0.121144	0.613318
	C174	C	0.824396	0.122626	0.382144
	C175	C	0.828512	0.885408	0.613604
	C176	C	0.388838	0.179175	0.880174
	C177	C	0.618699	0.178342	0.119970
	C178	C	0.389176	0.827044	0.117146
	C179	C	0.618261	0.821106	0.877187
	C180	C	0.388547	0.885699	0.173130
	C181	C	0.618602	0.120255	0.177565
	C182	C	0.388548	0.120590	0.823127
	C183	C	0.618688	0.879385	0.820657
	C184	C	0.882990	0.177970	0.381294
	C185	C	0.119469	0.177195	0.613687
	C186	C	0.123688	0.823067	0.382881
	C187	C	0.885536	0.828795	0.613687
	C188	C	0.182642	0.386645	0.876666
	C189	C	0.178834	0.616051	0.118594
	C190	C	0.829225	0.385408	0.116247
	C191	C	0.825389	0.616037	0.878817
	C192	C	0.402149	0.095763	0.598255
	C193	C	0.606152	0.905806	0.596681
	C194	C	0.600974	0.097245	0.400896
	C195	C	0.403855	0.904407	0.397485
	C196	C	0.605823	0.402048	0.094472
	C197	C	0.601899	0.597666	0.902078
	C198	C	0.402964	0.602648	0.094733
	C199	C	0.405573	0.401852	0.901232
	C200	C	0.099551	0.600077	0.398525
	C201	C	0.909439	0.605200	0.599363
	C202	C	0.099183	0.400358	0.596377
	C203	C	0.908714	0.402293	0.395973
	C204	C	0.902934	0.596056	0.096629
	C205	C	0.106815	0.405030	0.096095
	C206	C	0.103206	0.597253	0.899622
	C207	C	0.904681	0.405248	0.896273
	C208	C	0.103664	0.903238	0.594802
	C209	C	0.101206	0.097277	0.401597
	C210	C	0.901717	0.103778	0.593662
	C211	C	0.904728	0.903408	0.401779
	C212	C	0.598091	0.098976	0.900668
	C213	C	0.408886	0.105248	0.099966
	C214	C	0.599166	0.900848	0.097772
	C215	C	0.408617	0.900960	0.897764
	Zn216	Zn	0.503657	0.000343	0.748129
	Zn217	Zn	0.503260	0.001258	0.249303
	Zn218	Zn	0.753296	0.500162	-0.002487
	Zn219	Zn	0.254757	0.501504	-0.001919
	Zn220	Zn	0.004410	0.753579	0.498595
	Zn221	Zn	0.002602	0.250967	0.496957
	Zn222	Zn	0.004650	0.501985	0.748149
	Zn223	Zn	0.004746	0.500825	0.246818
	Zn224	Zn	0.503523	0.750445	-0.002062
	Zn225	Zn	0.504496	0.253296	-0.001466
	Zn226	Zn	0.753496	0.002574	0.497858
	Zn227	Zn	0.252574	0.000235	0.498116
	N228	N	0.419741	0.962302	0.674359
	N229	N	0.588826	0.038392	0.676542
	N230	N	0.587855	0.963812	0.322089
	N231	N	0.418122	0.038458	0.322467
	N232	N	0.683594	0.412412	0.961096
	N233	N	0.681120	0.585978	0.034779
	N234	N	0.324036	0.588989	0.961668
	N235	N	0.328141	0.417095	0.034749
	N236	N	0.967523	0.680534	0.412844
	N237	N	0.041247	0.682408	0.585936
	N238	N	0.966334	0.325758	0.581511
	N239	N	0.039659	0.320005	0.408350
	N240	N	0.967216	0.417059	0.675240
	N241	N	0.041860	0.587888	0.676863
	N242	N	0.967237	0.586607	0.320320
	N243	N	0.041319	0.415240	0.318817
	N244	N	0.417612	0.678647	0.960746
	N245	N	0.587879	0.677080	0.035716
	N246	N	0.591292	0.322048	0.961418
	N247	N	0.420515	0.326972	0.035777
	N248	N	0.682853	0.965773	0.410958
	N249	N	0.682593	0.038401	0.585832
	N250	N	0.324171	0.963988	0.585068
	N251	N	0.322653	0.036322	0.410699
	N252	N	0.919942	0.463234	0.174073
	N253	N	0.089319	0.538145	0.175280
	N254	N	0.088975	0.463731	0.821045
	N255	N	0.919774	0.539572	0.822017
	N256	N	0.182611	0.913202	0.461763
	N257	N	0.180257	0.086843	0.534591
	N258	N	0.822381	0.090198	0.460992
	N259	N	0.826710	0.918037	0.534957
	N260	N	0.466831	0.180675	0.913232
	N261	N	0.541062	0.181663	0.086384
	N262	N	0.467329	0.823696	0.084214
	N263	N	0.540324	0.819929	0.910306
	N264	N	0.466291	0.918067	0.174772
	N265	N	0.540666	0.087957	0.179143
	N266	N	0.466184	0.085844	0.821848
	N267	N	0.540966	0.913918	0.819464
	N268	N	0.916770	0.179488	0.459592
	N269	N	0.085792	0.176857	0.535322
	N270	N	0.089911	0.823609	0.461279
	N271	N	0.918738	0.826500	0.535102
	N272	N	0.184381	0.465214	0.910393
	N273	N	0.182109	0.537751	0.084360
	N274	N	0.825843	0.463602	0.083423
	N275	N	0.823158	0.537018	0.910011
	O276	O	1.021672	0.998117	-0.014076
	H277	H	1.021287	0.997923	-0.010328
	H278	H	1.026845	0.996377	-0.016227
	O279	O	-0.014261	-0.002372	0.980192
	H280	H	-0.014029	0.006986	0.983455
	H281	H	-0.005522	-0.004317	0.978373
	O282	O	0.012092	-0.022890	0.022083
	H283	H	0.019659	-0.022955	0.022303
	H284	H	0.005369	-0.025864	0.018381
	O285	O	0.479329	0.464871	0.500207
	H286	H	0.471159	0.470251	0.497716
	H287	H	0.478302	0.471202	0.500006
	O288	O	-0.086308	0.024104	0.013689
	H289	H	-0.077802	0.024265	0.000293
	H290	H	-0.093825	0.016746	0.015669
	O291	O	-0.018128	1.030736	0.074167
	H292	H	-0.020466	1.026197	0.063992
	H293	H	-0.013782	1.023667	0.068465
	O294	O	-0.016847	1.048935	0.028843
	H295	H	-0.011597	1.048347	0.025125
	H296	H	-0.019641	1.045761	0.023350
	O297	O	0.598800	0.490144	0.519611
	H298	H	0.608064	0.493489	0.519313
	H299	H	0.603620	0.486045	0.537497
	O300	O	0.555670	0.462913	0.547064
	H301	H	0.552324	0.454442	0.539002
	H302	H	0.548121	0.456495	0.541662
	O303	O	1.023186	0.005842	0.935760
	H304	H	1.034746	0.005622	0.925811
	H305	H	1.022946	0.014876	0.938490
	O306	O	0.036126	1.004251	0.932705
	H307	H	0.035607	1.009720	0.926840
	H308	H	0.037551	0.999852	0.934115
	O309	O	-0.014523	0.977702	0.953671
	H310	H	-0.010965	0.984577	0.949380
	H311	H	-0.014529	0.973324	0.964414
	O312	O	0.046498	-0.002035	0.972602
	H313	H	0.029747	-0.003834	0.969063
	H314	H	0.037948	0.001044	0.968417
	O315	O	0.036424	-0.000005	-0.033802
	H316	H	0.026178	0.009599	-0.043924
	H317	H	0.032923	0.006083	-0.018146
	O318	O	0.041614	-0.039958	1.000306
	H319	H	0.052114	-0.039298	1.003131
	H320	H	0.041726	-0.027724	1.001841
	O321	O	0.544225	0.501886	0.488695
	H322	H	0.545005	0.501391	0.484743
	H323	H	0.550602	0.506590	0.494350
	O324	O	1.027437	-0.072509	0.987134
	H325	H	1.017085	-0.083613	0.993577
	H326	H	1.034817	-0.076989	0.990286
	O327	O	0.962748	1.005208	0.988586
	H328	H	0.959505	1.000823	0.996466
	H329	H	0.947808	1.008366	0.983077
	O330	O	0.580004	0.499831	0.535439
	H331	H	0.575979	0.500329	0.529880
	H332	H	0.580755	0.498069	0.539857
	O333	O	1.028817	0.054419	0.041513
	H334	H	1.040211	0.057873	0.049655
	H335	H	1.022765	0.054272	0.046667
	O336	O	0.532703	0.543465	0.476555
	H337	H	0.535833	0.554377	0.475446
	H338	H	0.539387	0.540866	0.478492
	O339	O	0.512933	0.434839	0.465756
	H340	H	0.515112	0.428380	0.458455
	H341	H	0.509825	0.442719	0.460596
	O342	O	0.019701	1.060120	0.971018
	H343	H	0.015869	1.059632	0.973393
	H344	H	0.019813	1.054655	0.979751
	O345	O	0.544465	0.483268	0.501925
	H346	H	0.539152	0.480027	0.507546
	H347	H	0.557380	0.481402	0.502922
