data_Molecule from HDF5

_cell_length_a		16.235135
_cell_length_b		16.271983
_cell_length_c		16.195560
_cell_angle_alpha	89.669625
_cell_angle_beta	89.873366
_cell_angle_gamma	90.111747
_symmetry_space_group_name_H-M	'P 1'
_symmetry_Int_Tables_number		1

loop_
	_symmetry_equiv_pos_as_xyz
	x,y,z

loop_
	_atom_site_label
	_atom_site_type_symbol
	_atom_site_fract_x
	_atom_site_fract_y
	_atom_site_fract_z
	H0	H	0.407019	0.845092	0.710204
	H1	H	0.604747	0.172844	0.708342
	H2	H	0.604742	0.843882	0.282869
	H3	H	0.407567	0.171216	0.279186
	H4	H	0.719052	0.409415	0.830369
	H5	H	0.718742	0.605967	0.158663
	H6	H	0.291167	0.607234	0.830765
	H7	H	0.290106	0.408066	0.159257
	H8	H	0.842271	0.724194	0.395793
	H9	H	0.169735	0.723175	0.593316
	H10	H	0.842619	0.292713	0.594500
	H11	H	0.170644	0.295067	0.395727
	H12	H	0.840931	0.409384	0.708450
	H13	H	0.169585	0.606853	0.709357
	H14	H	0.841081	0.606846	0.282377
	H15	H	0.170053	0.412235	0.281491
	H16	H	0.406785	0.722919	0.830889
	H17	H	0.602457	0.719567	0.159392
	H18	H	0.603745	0.294502	0.830419
	H19	H	0.403739	0.290993	0.158347
	H20	H	0.720571	0.844578	0.398749
	H21	H	0.720087	0.172627	0.591874
	H22	H	0.290065	0.845869	0.596951
	H23	H	0.292858	0.172230	0.395076
	H24	H	0.905365	0.344911	0.211965
	H25	H	0.102188	0.673103	0.205518
	H26	H	0.101422	0.344258	0.782325
	H27	H	0.907471	0.672336	0.780675
	H28	H	0.221347	0.911310	0.331534
	H29	H	0.218864	0.106414	0.659731
	H30	H	0.794002	0.107330	0.330430
	H31	H	0.792520	0.909256	0.659382
	H32	H	0.341594	0.221824	0.896131
	H33	H	0.669537	0.223137	0.092922
	H34	H	0.340946	0.793824	0.094509
	H35	H	0.669231	0.793863	0.895958
	H36	H	0.342028	0.908614	0.211439
	H37	H	0.670539	0.104640	0.207058
	H38	H	0.341670	0.105866	0.781487
	H39	H	0.669614	0.911138	0.781910
	H40	H	0.909575	0.223359	0.330852
	H41	H	0.105721	0.223453	0.658789
	H42	H	0.105638	0.796697	0.330983
	H43	H	0.906803	0.793344	0.658610
	H44	H	0.218001	0.344400	0.897087
	H45	H	0.219794	0.671508	0.092336
	H46	H	0.789840	0.344185	0.094480
	H47	H	0.791601	0.672676	0.896082
	H48	H	0.417136	0.123025	0.583598
	H49	H	0.602582	0.890537	0.588952
	H50	H	0.601903	0.123936	0.406840
	H51	H	0.412127	0.894230	0.414556
	H52	H	0.595179	0.414392	0.111709
	H53	H	0.600553	0.603454	0.875802
	H54	H	0.411692	0.599027	0.111705
	H55	H	0.414153	0.413018	0.877650
	H56	H	0.126402	0.609257	0.395625
	H57	H	0.885461	0.605367	0.594959
	H58	H	0.120807	0.416411	0.580560
	H59	H	0.890947	0.418549	0.408765
	H60	H	0.122046	0.422474	0.592161
	H61	H	0.889422	0.607264	0.579452
	H62	H	0.122495	0.604879	0.406229
	H63	H	0.887949	0.418586	0.398902
	H64	H	0.412773	0.601173	0.112686
	H65	H	0.597552	0.599471	0.877212
	H66	H	0.597791	0.412914	0.112904
	H67	H	0.408443	0.414993	0.875895
	H68	H	0.605363	0.128270	0.395874
	H69	H	0.597657	0.890795	0.592587
	H70	H	0.407857	0.127196	0.586334
	H71	H	0.404993	0.888245	0.399860
	H72	H	0.916543	0.627107	0.100578
	H73	H	0.087822	0.394167	0.088095
	H74	H	0.107019	0.628308	0.899636
	H75	H	0.901595	0.392380	0.916725
	H76	H	0.101617	0.922315	0.612059
	H77	H	0.104323	0.107542	0.374615
	H78	H	0.918636	0.103335	0.611873
	H79	H	0.920342	0.918669	0.379574
	H80	H	0.623863	0.108794	0.905933
	H81	H	0.388018	0.101702	0.090762
	H82	H	0.623806	0.914463	0.092540
	H83	H	0.389600	0.916941	0.904871
	H84	H	0.623149	0.908911	0.086540
	H85	H	0.389018	0.101779	0.084435
	H86	H	0.620663	0.096232	0.903954
	H87	H	0.387036	0.915372	0.900244
	H88	H	0.908372	0.106781	0.615888
	H89	H	0.102380	0.097177	0.378479
	H90	H	0.090637	0.914903	0.609852
	H91	H	0.912328	0.909952	0.374348
	H92	H	0.091943	0.625297	0.894899
	H93	H	0.104312	0.391465	0.081196
	H94	H	0.917557	0.620195	0.077340
	H95	H	0.902957	0.385527	0.887882
	H96	H	0.415389	0.127104	0.593135
	H97	H	0.597326	0.893339	0.586409
	H98	H	0.593269	0.124268	0.398375
	H99	H	0.422072	0.892926	0.400029
	H100	H	0.597819	0.416419	0.111287
	H101	H	0.595570	0.604511	0.876563
	H102	H	0.410010	0.600059	0.113181
	H103	H	0.412937	0.419304	0.878341
	H104	H	0.122895	0.597642	0.396843
	H105	H	0.891163	0.593057	0.586835
	H106	H	0.125598	0.410070	0.591181
	H107	H	0.887930	0.409003	0.404682
	H108	H	0.896420	0.628310	0.087160
	H109	H	0.100998	0.387555	0.099041
	H110	H	0.095946	0.621659	0.910889
	H111	H	0.927297	0.395646	0.902069
	H112	H	0.101823	0.909233	0.615446
	H113	H	0.094096	0.104235	0.378996
	H114	H	0.910580	0.095823	0.612109
	H115	H	0.907874	0.921257	0.376845
	H116	H	0.625847	0.103235	0.894154
	H117	H	0.389427	0.096981	0.087491
	H118	H	0.621288	0.916862	0.085665
	H119	H	0.387779	0.911753	0.904163
	C120	C	0.384381	0.017543	0.617230
	C121	C	0.627777	0.999935	0.617220
	C122	C	0.628494	0.017087	0.372903
	C123	C	0.384863	0.999923	0.374514
	C124	C	0.625632	0.386917	0.003063
	C125	C	0.625920	0.629491	0.985709
	C126	C	0.383069	0.629553	0.003762
	C127	C	0.383053	0.386148	0.986467
	C128	C	0.014812	0.631657	0.372501
	C129	C	0.997189	0.630022	0.615674
	C130	C	0.014401	0.387203	0.616789
	C131	C	0.997522	0.387388	0.374630
	C132	C	0.882126	0.516723	0.117304
	C133	C	0.126328	0.499783	0.116601
	C134	C	0.126331	0.516795	0.873530
	C135	C	0.882796	0.499773	0.873445
	C136	C	0.127570	0.887399	0.504183
	C137	C	0.128365	0.131037	0.486191
	C138	C	0.885121	0.130516	0.504230
	C139	C	0.884851	0.887563	0.486118
	C140	C	0.514705	0.130594	0.873091
	C141	C	0.497505	0.128553	0.115890
	C142	C	0.514416	0.884896	0.117794
	C143	C	0.496948	0.887089	0.874504
	C144	C	0.386534	0.894287	0.672714
	C145	C	0.625254	0.123898	0.671026
	C146	C	0.625456	0.893028	0.319946
	C147	C	0.387270	0.122416	0.317408
	C148	C	0.681047	0.389505	0.879495
	C149	C	0.680760	0.626322	0.109903
	C150	C	0.328739	0.627233	0.879783
	C151	C	0.327955	0.387780	0.110008
	C152	C	0.891197	0.686109	0.375920
	C153	C	0.120850	0.685170	0.613559
	C154	C	0.891232	0.331109	0.614514
	C155	C	0.121377	0.332959	0.375883
	C156	C	0.890211	0.389377	0.670978
	C157	C	0.120681	0.627485	0.671277
	C158	C	0.890592	0.627955	0.319302
	C159	C	0.121110	0.390786	0.318799
	C160	C	0.385833	0.685146	0.880084
	C161	C	0.623315	0.683102	0.109969
	C162	C	0.624046	0.332188	0.879462
	C163	C	0.384804	0.330036	0.109680
	C164	C	0.683164	0.893474	0.377343
	C165	C	0.682423	0.123849	0.613035
	C166	C	0.328618	0.894472	0.616037
	C167	C	0.330173	0.123172	0.375232
	C168	C	0.884833	0.393514	0.173490
	C169	C	0.123164	0.623624	0.169361
	C170	C	0.122812	0.393222	0.819335
	C171	C	0.886204	0.623425	0.818234
	C172	C	0.183217	0.890740	0.380362
	C173	C	0.182156	0.127650	0.610360
	C174	C	0.831265	0.127803	0.379849
	C175	C	0.830249	0.889388	0.610147
	C176	C	0.390766	0.184518	0.875554
	C177	C	0.620799	0.184465	0.112999
	C178	C	0.390470	0.830590	0.115763
	C179	C	0.620426	0.832114	0.876397
	C180	C	0.391068	0.887662	0.173755
	C181	C	0.621583	0.125624	0.169406
	C182	C	0.390824	0.127091	0.818592
	C183	C	0.620644	0.890477	0.819811
	C184	C	0.888541	0.185472	0.379904
	C185	C	0.126206	0.186053	0.609647
	C186	C	0.125809	0.833822	0.380007
	C187	C	0.886676	0.831482	0.609600
	C188	C	0.180607	0.393322	0.876460
	C189	C	0.181577	0.622902	0.113031
	C190	C	0.827749	0.393216	0.114892
	C191	C	0.829008	0.623590	0.875866
	C192	C	0.406843	0.103590	0.594339
	C193	C	0.605734	0.914004	0.595901
	C194	C	0.606707	0.103210	0.393957
	C195	C	0.406678	0.913909	0.398038
	C196	C	0.603327	0.408417	0.089591
	C197	C	0.604385	0.608638	0.899131
	C198	C	0.405013	0.606799	0.090322
	C199	C	0.405254	0.408978	0.899607
	C200	C	0.101495	0.610349	0.393274
	C201	C	0.910951	0.608212	0.593690
	C202	C	0.100476	0.409715	0.594546
	C203	C	0.911290	0.408914	0.397468
	C204	C	0.903870	0.602991	0.094854
	C205	C	0.104309	0.413338	0.095527
	C206	C	0.104747	0.602849	0.895358
	C207	C	0.904247	0.413558	0.895661
	C208	C	0.104734	0.909019	0.590294
	C209	C	0.106742	0.109437	0.399705
	C210	C	0.906289	0.108502	0.590962
	C211	C	0.906908	0.910063	0.399283
	C212	C	0.601051	0.109214	0.894863
	C213	C	0.411154	0.106621	0.094000
	C214	C	0.600597	0.906927	0.095033
	C215	C	0.410455	0.908462	0.896635
	Zn216	Zn	0.505989	0.009230	0.745956
	Zn217	Zn	0.506244	0.007387	0.245130
	Zn218	Zn	0.754000	0.508281	-0.005399
	Zn219	Zn	0.254883	0.507882	-0.005151
	Zn220	Zn	0.006423	0.759529	0.494461
	Zn221	Zn	0.006971	0.258543	0.495451
	Zn222	Zn	0.005020	0.508240	0.744929
	Zn223	Zn	0.005277	0.508831	0.245326
	Zn224	Zn	0.504798	0.757621	-0.004724
	Zn225	Zn	0.504781	0.258124	-0.005587
	Zn226	Zn	0.756654	0.008775	0.494974
	Zn227	Zn	0.255785	0.009045	0.495930
	N228	N	0.420632	0.971790	0.673562
	N229	N	0.591820	0.046108	0.673575
	N230	N	0.592201	0.970720	0.317008
	N231	N	0.420730	0.044841	0.317039
	N232	N	0.682120	0.422948	0.957408
	N233	N	0.682793	0.593825	0.031636
	N234	N	0.327045	0.593303	0.957841
	N235	N	0.327003	0.422150	0.032259
	N236	N	0.969479	0.688575	0.408112
	N237	N	0.043123	0.686960	0.579764
	N238	N	0.969386	0.329772	0.581299
	N239	N	0.043546	0.330842	0.409736
	N240	N	0.967664	0.423596	0.672358
	N241	N	0.042852	0.593732	0.672637
	N242	N	0.968414	0.594728	0.316800
	N243	N	0.043185	0.424309	0.318098
	N244	N	0.419013	0.686266	0.958037
	N245	N	0.589996	0.685228	0.032051
	N246	N	0.590023	0.330583	0.957257
	N247	N	0.418278	0.328784	0.031503
	N248	N	0.685222	0.971512	0.409567
	N249	N	0.684282	0.045981	0.580239
	N250	N	0.327027	0.972255	0.582282
	N251	N	0.328495	0.045808	0.410171
	N252	N	0.918109	0.471340	0.174916
	N253	N	0.089426	0.546010	0.171709
	N254	N	0.089547	0.470918	0.817741
	N255	N	0.919091	0.545508	0.816681
	N256	N	0.184522	0.923577	0.458497
	N257	N	0.183724	0.094239	0.532589
	N258	N	0.828822	0.094464	0.458148
	N259	N	0.829025	0.923617	0.532293
	N260	N	0.468570	0.186703	0.908798
	N261	N	0.542589	0.186275	0.080253
	N262	N	0.468050	0.828875	0.081556
	N263	N	0.542402	0.829979	0.909749
	N264	N	0.469122	0.920695	0.175002
	N265	N	0.543935	0.091795	0.171447
	N266	N	0.468920	0.094431	0.816821
	N267	N	0.542968	0.923977	0.818537
	N268	N	0.921004	0.187425	0.458196
	N269	N	0.093499	0.188158	0.531479
	N270	N	0.091838	0.831809	0.457796
	N271	N	0.920139	0.830514	0.531464
	N272	N	0.182980	0.471175	0.909487
	N273	N	0.183655	0.544737	0.081107
	N274	N	0.825655	0.470935	0.081139
	N275	N	0.826833	0.545761	0.909506
	O276	O	-0.475857	-0.517393	1.456236
	H277	H	-0.472080	-0.514855	1.454768
	H278	H	-0.475732	-0.511235	1.453545
	O279	O	0.518277	0.458976	0.436430
	H280	H	0.520563	0.454361	0.434936
	H281	H	0.517288	0.451912	0.437183
	O282	O	0.521331	0.477070	0.443737
	H283	H	0.513570	0.475901	0.435440
	H284	H	0.525463	0.472263	0.449877
	O285	O	0.726497	0.752050	0.251485
	H286	H	0.723550	0.748537	0.251770
	H287	H	0.726104	0.754304	0.249511
	O288	O	0.480329	0.477185	0.503864
	H289	H	0.483021	0.481500	0.508774
	H290	H	0.485345	0.476291	0.501303
	O291	O	-0.441201	0.453808	1.426162
	H292	H	-0.436771	0.451896	1.431714
	H293	H	-0.440072	0.450769	1.428119
	O294	O	0.548572	0.494206	0.485081
	H295	H	0.550543	0.489266	0.479491
	H296	H	0.546683	0.498238	0.483806
	O297	O	0.939262	-0.066737	0.035924
	H298	H	0.935345	-0.067839	0.036294
	H299	H	0.938001	-0.069573	0.033194
