data_Molecule from HDF5

_cell_length_a		16.751515
_cell_length_b		16.483887
_cell_length_c		16.634133
_cell_angle_alpha	90.009507
_cell_angle_beta	89.932730
_cell_angle_gamma	90.071237
_symmetry_space_group_name_H-M	'P 1'
_symmetry_Int_Tables_number		1

loop_
	_symmetry_equiv_pos_as_xyz
	x,y,z

loop_
	_atom_site_label
	_atom_site_type_symbol
	_atom_site_fract_x
	_atom_site_fract_y
	_atom_site_fract_z
	H0	H	0.383677	0.832009	0.714944
	H1	H	0.592773	0.144725	0.712625
	H2	H	0.597958	0.831134	0.271850
	H3	H	0.390110	0.144932	0.273978
	H4	H	0.712026	0.380743	0.838799
	H5	H	0.716340	0.597225	0.145803
	H6	H	0.270612	0.590500	0.837209
	H7	H	0.271278	0.384187	0.151055
	H8	H	0.836820	0.712094	0.387979
	H9	H	0.145710	0.709851	0.596705
	H10	H	0.836525	0.268038	0.597326
	H11	H	0.141406	0.262023	0.382022
	H12	H	0.837150	0.383582	0.715235
	H13	H	0.146285	0.593203	0.713738
	H14	H	0.838663	0.598644	0.267697
	H15	H	0.141714	0.377861	0.266229
	H16	H	0.389095	0.705426	0.836751
	H17	H	0.596933	0.709955	0.148633
	H18	H	0.591152	0.268884	0.836693
	H19	H	0.390734	0.271359	0.153486
	H20	H	0.714483	0.832405	0.387060
	H21	H	0.708794	0.144584	0.596600
	H22	H	0.267134	0.834238	0.599363
	H23	H	0.270812	0.144107	0.386602
	H24	H	0.883506	0.333586	0.216645
	H25	H	0.094332	0.645230	0.212573
	H26	H	0.090955	0.328654	0.777258
	H27	H	0.886590	0.645176	0.773379
	H28	H	0.217731	0.876518	0.341417
	H29	H	0.216542	0.098555	0.645406
	H30	H	0.768905	0.095056	0.339363
	H31	H	0.768948	0.882273	0.649531
	H32	H	0.334050	0.204166	0.893627
	H33	H	0.646455	0.208826	0.097972
	H34	H	0.335997	0.765562	0.098888
	H35	H	0.644310	0.763609	0.886540
	H36	H	0.337561	0.880159	0.217455
	H37	H	0.646885	0.093088	0.215432
	H38	H	0.335590	0.089934	0.774953
	H39	H	0.644396	0.880005	0.770113
	H40	H	0.884272	0.211974	0.339674
	H41	H	0.096674	0.210383	0.648087
	H42	H	0.100227	0.762663	0.341539
	H43	H	0.888715	0.770135	0.651598
	H44	H	0.207077	0.328381	0.891998
	H45	H	0.211182	0.644379	0.097973
	H46	H	0.768196	0.332397	0.101013
	H47	H	0.766249	0.642063	0.884272
	H48	H	0.406757	0.099103	0.580766
	H49	H	0.580758	0.873213	0.584120
	H50	H	0.577324	0.098459	0.406197
	H51	H	0.403909	0.878481	0.412226
	H52	H	0.580966	0.398904	0.105676
	H53	H	0.572824	0.575133	0.884881
	H54	H	0.398898	0.571467	0.104231
	H55	H	0.396676	0.390169	0.880000
	H56	H	0.101712	0.574263	0.397427
	H57	H	0.880444	0.576384	0.584048
	H58	H	0.102672	0.399763	0.580737
	H59	H	0.883603	0.408835	0.406732
	H60	H	0.102119	0.402291	0.585777
	H61	H	0.878817	0.577920	0.586768
	H62	H	0.101488	0.582591	0.408809
	H63	H	0.878525	0.401034	0.401295
	H64	H	0.403899	0.576728	0.104580
	H65	H	0.581442	0.575908	0.880901
	H66	H	0.580638	0.400199	0.104912
	H67	H	0.393478	0.396236	0.880413
	H68	H	0.582056	0.099525	0.406930
	H69	H	0.578621	0.874828	0.581758
	H70	H	0.399525	0.101056	0.579311
	H71	H	0.397669	0.872905	0.404860
	H72	H	0.902272	0.598350	0.073698
	H73	H	0.081841	0.374698	0.081400
	H74	H	0.079933	0.600506	0.903736
	H75	H	0.902267	0.375379	0.903548
	H76	H	0.075207	0.902425	0.602490
	H77	H	0.080204	0.070735	0.383663
	H78	H	0.895698	0.081545	0.608513
	H79	H	0.900800	0.899088	0.381748
	H80	H	0.604033	0.077569	0.899141
	H81	H	0.379347	0.082402	0.084058
	H82	H	0.600815	0.896829	0.078227
	H83	H	0.378075	0.894579	0.902331
	H84	H	0.599033	0.903153	0.080368
	H85	H	0.383519	0.073000	0.083652
	H86	H	0.602997	0.081396	0.904498
	H87	H	0.381366	0.898050	0.908339
	H88	H	0.898849	0.071100	0.603795
	H89	H	0.075703	0.074957	0.383577
	H90	H	0.080714	0.900586	0.606481
	H91	H	0.900170	0.902452	0.383401
	H92	H	0.085776	0.601800	0.905528
	H93	H	0.078235	0.374041	0.084430
	H94	H	0.901940	0.600825	0.080493
	H95	H	0.901795	0.375567	0.905451
	H96	H	0.402589	0.102337	0.586438
	H97	H	0.581769	0.873861	0.581135
	H98	H	0.580482	0.100478	0.402185
	H99	H	0.407824	0.875949	0.401885
	H100	H	0.579733	0.399188	0.104953
	H101	H	0.578964	0.567783	0.885259
	H102	H	0.396980	0.577697	0.106931
	H103	H	0.399964	0.395810	0.882986
	H104	H	0.096477	0.569466	0.409490
	H105	H	0.879019	0.579882	0.583864
	H106	H	0.103057	0.397311	0.585305
	H107	H	0.881144	0.399125	0.411479
	H108	H	0.907777	0.597568	0.078473
	H109	H	0.077622	0.376376	0.080260
	H110	H	0.083751	0.602846	0.899815
	H111	H	0.900089	0.375077	0.904291
	H112	H	0.080534	0.906716	0.602540
	H113	H	0.081101	0.076421	0.380578
	H114	H	0.906168	0.080543	0.604071
	H115	H	0.903385	0.900912	0.383742
	H116	H	0.600912	0.074616	0.904265
	H117	H	0.377938	0.076600	0.091909
	H118	H	0.601580	0.898354	0.084788
	H119	H	0.380341	0.901973	0.902083
	C120	C	0.369745	-0.002662	0.614512
	C121	C	0.611376	0.978183	0.614328
	C122	C	0.613042	-0.003824	0.372390
	C123	C	0.371171	0.979248	0.373214
	C124	C	0.611568	0.366709	0.002108
	C125	C	0.611713	0.607776	0.985077
	C126	C	0.369407	0.606886	0.001665
	C127	C	0.367793	0.364479	0.985830
	C128	C	-0.001171	0.610130	0.372041
	C129	C	0.982109	0.610157	0.616106
	C130	C	0.000146	0.367384	0.615102
	C131	C	0.981679	0.367642	0.371704
	C132	C	0.870089	0.496500	0.112585
	C133	C	0.111194	0.478884	0.114278
	C134	C	0.112402	0.496318	0.872846
	C135	C	0.869492	0.478983	0.872321
	C136	C	0.112801	0.867790	0.502545
	C137	C	0.112290	0.109292	0.484163
	C138	C	0.868545	0.110421	0.502541
	C139	C	0.869810	0.867776	0.486062
	C140	C	0.499253	0.108227	0.872748
	C141	C	0.483278	0.108861	0.116727
	C142	C	0.499088	0.865982	0.114484
	C143	C	0.482118	0.865360	0.871614
	C144	C	0.366033	0.879240	0.674561
	C145	C	0.612133	0.097113	0.673370
	C146	C	0.616168	0.878257	0.311996
	C147	C	0.370434	0.097590	0.313399
	C148	C	0.671128	0.363432	0.884918
	C149	C	0.674687	0.613804	0.100300
	C150	C	0.310538	0.608893	0.883887
	C151	C	0.310848	0.364993	0.104286
	C152	C	0.883366	0.671902	0.369088
	C153	C	0.099086	0.670081	0.616414
	C154	C	0.883100	0.307937	0.616199
	C155	C	0.095935	0.303929	0.365983
	C156	C	0.883453	0.365025	0.674998
	C157	C	0.099312	0.612130	0.674507
	C158	C	0.883909	0.615497	0.309613
	C159	C	0.095930	0.361612	0.308154
	C160	C	0.369456	0.665760	0.883588
	C161	C	0.615278	0.669731	0.101515
	C162	C	0.611215	0.307857	0.883937
	C163	C	0.369993	0.308646	0.105265
	C164	C	0.673992	0.878990	0.369174
	C165	C	0.669644	0.097364	0.615787
	C166	C	0.308409	0.880120	0.617181
	C167	C	0.311461	0.097207	0.369477
	C168	C	0.865976	0.380103	0.175648
	C169	C	0.113038	0.597732	0.173115
	C170	C	0.110751	0.376371	0.815866
	C171	C	0.867460	0.597200	0.812399
	C172	C	0.175853	0.860830	0.387463
	C173	C	0.174826	0.114901	0.599817
	C174	C	0.808868	0.113403	0.385979
	C175	C	0.809688	0.864798	0.603138
	C176	C	0.381410	0.165538	0.873695
	C177	C	0.600129	0.168726	0.117200
	C178	C	0.382672	0.805504	0.117143
	C179	C	0.598052	0.804266	0.868633
	C180	C	0.383512	0.862531	0.176106
	C181	C	0.600391	0.111144	0.175433
	C182	C	0.382180	0.108625	0.814711
	C183	C	0.597828	0.861966	0.810445
	C184	C	0.866314	0.171423	0.386117
	C185	C	0.115314	0.170601	0.600934
	C186	C	0.117226	0.804052	0.387502
	C187	C	0.869257	0.809207	0.604091
	C188	C	0.168719	0.376327	0.872797
	C189	C	0.171411	0.597084	0.116472
	C190	C	0.808542	0.379559	0.118141
	C191	C	0.807981	0.596014	0.867929
	C192	C	0.395895	0.079500	0.589444
	C193	C	0.587350	0.895561	0.589517
	C194	C	0.587365	0.078326	0.397876
	C195	C	0.396053	0.896920	0.398946
	C196	C	0.587319	0.392030	0.083752
	C197	C	0.585250	0.580524	0.904522
	C198	C	0.392937	0.582542	0.083779
	C199	C	0.390199	0.387559	0.902689
	C200	C	0.078990	0.583086	0.397820
	C201	C	0.900670	0.585309	0.591753
	C202	C	0.081385	0.392578	0.590805
	C203	C	0.901978	0.395155	0.398746
	C204	C	0.896593	0.577728	0.085273
	C205	C	0.086102	0.396548	0.089407
	C206	C	0.089846	0.579869	0.896344
	C207	C	0.894206	0.396791	0.897524
	C208	C	0.086292	0.895439	0.582969
	C209	C	0.086260	0.082017	0.403688
	C210	C	0.893205	0.084976	0.584274
	C211	C	0.894354	0.893465	0.404334
	C212	C	0.581212	0.084774	0.895988
	C213	C	0.401624	0.084310	0.093256
	C214	C	0.579529	0.891993	0.088509
	C215	C	0.401121	0.890917	0.897106
	Zn216	Zn	0.490250	-0.012872	0.742446
	Zn217	Zn	0.492351	-0.013131	0.244850
	Zn218	Zn	0.740989	0.487618	-0.007131
	Zn219	Zn	0.239812	0.486428	-0.006033
	Zn220	Zn	-0.009414	0.739325	0.494165
	Zn221	Zn	-0.008626	0.238210	0.493146
	Zn222	Zn	-0.008411	0.488061	0.745111
	Zn223	Zn	-0.010209	0.488939	0.242593
	Zn224	Zn	0.490411	0.736337	-0.006519
	Zn225	Zn	0.490712	0.237558	-0.005305
	Zn226	Zn	0.740578	-0.011981	0.493765
	Zn227	Zn	0.241822	-0.010926	0.493199
	N228	N	0.403703	0.953032	0.672802
	N229	N	0.576930	0.021964	0.672863
	N230	N	0.578859	0.952240	0.313947
	N231	N	0.406747	0.022926	0.315244
	N232	N	0.671670	0.399029	0.959541
	N233	N	0.672532	0.576053	0.026854
	N234	N	0.310104	0.573149	0.958389
	N235	N	0.308948	0.398664	0.028761
	N236	N	0.955825	0.668828	0.407206
	N237	N	0.025206	0.669101	0.580892
	N238	N	0.956813	0.308708	0.580064
	N239	N	0.023914	0.307620	0.405147
	N240	N	0.957310	0.401071	0.674635
	N241	N	0.025572	0.575573	0.674453
	N242	N	0.956746	0.577593	0.311439
	N243	N	0.023818	0.400483	0.311400
	N244	N	0.404958	0.664911	0.957907
	N245	N	0.576724	0.666337	0.028655
	N246	N	0.574973	0.309499	0.957787
	N247	N	0.404400	0.307924	0.030285
	N248	N	0.672301	0.953469	0.405860
	N249	N	0.669577	0.022426	0.579688
	N250	N	0.310656	0.954657	0.580388
	N251	N	0.311703	0.022459	0.405762
	N252	N	0.903624	0.453880	0.172420
	N253	N	0.076579	0.523135	0.172215
	N254	N	0.076709	0.452120	0.815578
	N255	N	0.905261	0.523415	0.815016
	N256	N	0.173113	0.900010	0.460084
	N257	N	0.173369	0.077680	0.526114
	N258	N	0.809864	0.076327	0.459745
	N259	N	0.809731	0.900491	0.528499
	N260	N	0.455483	0.165873	0.908940
	N261	N	0.526177	0.167596	0.081416
	N262	N	0.455594	0.807303	0.079563
	N263	N	0.524842	0.806012	0.905791
	N264	N	0.456963	0.899349	0.174722
	N265	N	0.526817	0.074673	0.175230
	N266	N	0.456555	0.074081	0.813716
	N267	N	0.524583	0.899033	0.811995
	N268	N	0.902828	0.169618	0.459835
	N269	N	0.076890	0.167213	0.528119
	N270	N	0.078338	0.808307	0.460054
	N271	N	0.905885	0.810913	0.530226
	N272	N	0.170192	0.451981	0.907346
	N273	N	0.170414	0.522100	0.080426
	N274	N	0.810872	0.453042	0.079579
	N275	N	0.809179	0.521452	0.904569
	O276	O	-0.227325	0.956758	0.210656
	H277	H	-0.210498	0.969703	0.209608
	H278	H	-0.247321	0.966415	0.230153
	O279	O	0.019743	1.195055	0.210875
	H280	H	0.016700	1.214955	0.219413
	H281	H	0.015133	1.199917	0.191345
	O282	O	1.208570	0.016388	0.929600
	H283	H	1.205997	0.024962	0.928660
	H284	H	1.196930	0.023016	0.937843
	O285	O	0.786281	0.191767	0.786488
	H286	H	0.752865	0.222384	0.752710
	H287	H	0.783577	0.147532	0.781233
	O288	O	0.461602	0.444538	0.554615
	H289	H	0.462053	0.444852	0.547625
	H290	H	0.469730	0.432567	0.551439
	O291	O	0.474056	0.271934	0.510908
	H292	H	0.467836	0.276341	0.521914
	H293	H	0.501137	0.269097	0.488733
	O294	O	1.177332	-0.201190	1.186578
	H295	H	1.174337	-0.203660	1.180319
	H296	H	1.161889	-0.179954	1.175457
	O297	O	0.530081	0.495749	0.690546
	H298	H	0.551045	0.500125	0.687035
	H299	H	0.547104	0.513650	0.690421
	O300	O	-0.470680	-0.643383	1.694573
	H301	H	-0.456774	-0.608812	1.694233
	H302	H	-0.464465	-0.643441	1.665495
	O303	O	0.282639	0.354161	0.354827
	H304	H	0.268130	0.333058	0.348051
	H305	H	0.277037	0.342512	0.354531
	O306	O	0.699029	0.280988	0.287711
	H307	H	0.699015	0.298508	0.274718
	H308	H	0.723641	0.264586	0.280007
	O309	O	0.376306	0.635410	0.457712
	H310	H	0.374331	0.619373	0.467698
	H311	H	0.368861	0.633722	0.463805
	O312	O	0.263971	0.517807	0.274314
	H313	H	0.259470	0.521177	0.260472
	H314	H	0.246796	0.510902	0.275896
	O315	O	0.894045	1.181398	1.071242
	H316	H	0.885597	1.197586	1.041456
	H317	H	0.902000	1.171926	1.055456
	O318	O	0.472580	0.710840	0.494325
	H319	H	0.481430	0.714231	0.478769
	H320	H	0.462843	0.695301	0.480331
	O321	O	0.267971	0.451943	0.713212
	H322	H	0.250621	0.459341	0.743106
	H323	H	0.298990	0.475188	0.718615
	O324	O	1.272583	1.272116	-0.296215
	H325	H	1.318885	1.271581	-0.297470
	H326	H	1.263765	1.315077	-0.295702
	O327	O	-0.078467	-0.227499	0.943204
	H328	H	-0.063483	-0.222041	0.925975
	H329	H	-0.055472	-0.231697	0.960863
	O330	O	0.495568	0.265204	0.313670
	H331	H	0.499472	0.240577	0.304682
	H332	H	0.523838	0.272272	0.315564
	O333	O	0.414671	0.534664	0.679796
	H334	H	0.423633	0.541517	0.665285
	H335	H	0.428813	0.534853	0.678543
	O336	O	0.691067	0.591123	0.304532
	H337	H	0.706511	0.607796	0.289836
	H338	H	0.686749	0.577258	0.303489
	O339	O	1.027787	-0.228134	0.786045
	H340	H	1.039731	-0.249664	0.767748
	H341	H	1.056279	-0.227501	0.785455
	O342	O	-0.229969	0.023666	-0.225752
	H343	H	-0.238190	0.005908	-0.204751
	H344	H	-0.256787	0.020266	-0.236376
	O345	O	-0.031707	0.776981	1.215688
	H346	H	-0.039798	0.768767	1.215358
	H347	H	-0.029595	0.775870	1.229754
	O348	O	0.218198	0.208992	0.035288
	H349	H	0.218492	0.188676	0.057827
	H350	H	0.252456	0.241626	0.034827
	O351	O	0.263254	0.273074	0.507285
	H352	H	0.258721	0.259931	0.532101
	H353	H	0.264605	0.256276	0.525442
	O354	O	0.175019	-0.231219	0.941181
	H355	H	0.192519	-0.254038	0.933108
	H356	H	0.179314	-0.233005	0.906325
	O357	O	0.701296	0.695567	0.702060
	H358	H	0.697921	0.700263	0.662703
	H359	H	0.730407	0.725600	0.713990
	O360	O	0.769366	0.767146	0.216097
	H361	H	0.775004	0.810997	0.213809
	H362	H	0.790079	0.763267	0.193234
	O363	O	0.209465	0.019867	0.220189
	H364	H	0.234096	0.018440	0.226803
	H365	H	0.208791	0.007165	0.216553
	O366	O	0.721766	0.419208	0.542844
	H367	H	0.729228	0.435999	0.537642
	H368	H	0.714850	0.415831	0.527443
	O369	O	0.709245	0.541874	0.475869
	H370	H	0.705123	0.561122	0.479958
	H371	H	0.708677	0.546357	0.472123
	O372	O	0.936585	1.028525	-0.083006
	H373	H	0.935675	1.035358	-0.094024
	H374	H	0.946214	1.052117	-0.077178
	O375	O	0.771469	-0.059864	-0.071927
	H376	H	0.769684	-0.062259	-0.055888
	H377	H	0.791116	-0.071255	-0.057583
	O378	O	0.469713	0.501741	0.270050
	H379	H	0.449111	0.505622	0.278353
	H380	H	0.471053	0.491703	0.268018
	O381	O	-0.046453	1.205931	0.769308
	H382	H	-0.075517	1.216606	0.758447
	H383	H	-0.056108	1.215792	0.747033
	O384	O	1.059184	-0.066689	1.229479
	H385	H	1.066146	-0.055240	1.220258
	H386	H	1.063929	-0.073205	1.229123
	O387	O	1.038296	1.050474	-0.239892
	H388	H	1.024149	1.057495	-0.239214
	H389	H	1.027414	1.037873	-0.246327
	O390	O	0.641357	0.515334	0.357236
	H391	H	0.638441	0.514637	0.351142
	H392	H	0.627773	0.534749	0.335847
	O393	O	0.457692	0.279734	0.439875
	H394	H	0.459104	0.279788	0.425125
	H395	H	0.480795	0.281434	0.425790
	O396	O	-0.053549	0.946032	1.041966
	H397	H	-0.058505	0.953420	1.037607
	H398	H	-0.060313	0.945481	1.039385
	O399	O	0.431781	0.505693	0.435544
	H400	H	0.428566	0.499595	0.432499
	H401	H	0.419922	0.508649	0.434669
	O402	O	0.656645	0.646866	0.504767
	H403	H	0.657910	0.659318	0.496331
	H404	H	0.634416	0.661066	0.486266
	O405	O	1.076152	0.160503	0.968360
	H406	H	1.097777	0.168629	0.976040
	H407	H	1.087743	0.163303	0.940545
	O408	O	0.200116	-0.222868	-0.215815
	H409	H	0.232846	-0.251831	-0.251494
	H410	H	0.201300	-0.172668	-0.225393
	O411	O	0.806783	1.175864	1.185281
	H412	H	0.814572	1.164022	1.151198
	H413	H	0.835584	1.163183	1.181198
	O414	O	0.265585	0.606197	0.523515
	H415	H	0.258388	0.610458	0.523435
	H416	H	0.264342	0.585246	0.517149
	O417	O	0.708835	0.505628	0.712096
	H418	H	0.714798	0.522475	0.703589
	H419	H	0.727407	0.536626	0.729227
	O420	O	0.248651	0.480688	0.476232
	H421	H	0.246829	0.446696	0.469312
	H422	H	0.248938	0.478107	0.473454
	O423	O	0.224741	-0.042413	1.046007
	H424	H	0.214647	-0.063966	1.028882
	H425	H	0.225178	-0.046166	1.040791
	O426	O	0.573599	0.531557	0.371077
	H427	H	0.572229	0.521116	0.375980
	H428	H	0.574395	0.536200	0.347385
	O429	O	1.200535	1.189166	1.206245
	H430	H	1.206681	1.151936	1.218372
	H431	H	1.167262	1.192986	1.187553
	O432	O	0.412814	0.277299	0.702333
	H433	H	0.436543	0.261685	0.724911
	H434	H	0.430933	0.300930	0.710418
	O435	O	-0.195305	0.812012	-0.186585
	H436	H	-0.182021	0.825783	-0.165781
	H437	H	-0.177378	0.817971	-0.161725
	O438	O	-0.237805	0.209768	-0.042814
	H439	H	-0.238645	0.219247	-0.072203
	H440	H	-0.252759	0.232195	-0.062209
	O441	O	0.139082	-0.182675	0.034024
	H442	H	0.162454	-0.203585	0.014000
	H443	H	0.124362	-0.174120	0.007612
	O444	O	0.514926	0.704481	0.712802
	H445	H	0.530517	0.721192	0.732142
	H446	H	0.529477	0.712373	0.706275
	O447	O	0.051733	0.965868	0.921867
	H448	H	0.049291	0.975530	0.904506
	H449	H	0.048456	0.976156	0.924489
	O450	O	-0.033350	0.776599	1.069767
	H451	H	-0.010042	0.783783	1.068976
	H452	H	-0.033130	0.784655	1.079603
	O453	O	0.711985	0.268802	0.461732
	H454	H	0.721059	0.263453	0.444721
	H455	H	0.733365	0.264866	0.452641
	O456	O	0.466353	0.710566	0.270371
	H457	H	0.445762	0.728025	0.253929
	H458	H	0.448619	0.707309	0.259034
	O459	O	0.298867	0.679365	0.680235
	H460	H	0.308070	0.659547	0.653550
	H461	H	0.321455	0.663108	0.664795
	O462	O	0.756386	1.022806	1.051912
	H463	H	0.762401	1.041613	1.055682
	H464	H	0.752487	1.030785	1.048367
	O465	O	1.009510	0.038311	0.051613
	H466	H	1.021428	0.046952	0.031883
	H467	H	1.007661	0.030352	0.051965
	O468	O	0.282163	0.697051	0.283080
	H469	H	0.271853	0.681138	0.303483
	H470	H	0.268599	0.701706	0.273604
	O471	O	0.620422	0.653440	0.451381
	H472	H	0.606649	0.638465	0.452694
	H473	H	0.634295	0.661071	0.423143
	O474	O	0.598194	0.450609	0.307825
	H475	H	0.589307	0.436850	0.303172
	H476	H	0.598070	0.469948	0.297946
	O477	O	0.689555	0.291688	1.688664
	H478	H	0.661318	0.308157	1.675315
	H479	H	0.684088	0.316505	1.663534
	O480	O	0.495446	0.644038	0.597877
	H481	H	0.509041	0.659951	0.593563
	H482	H	0.503660	0.650018	0.585883
	O483	O	0.429136	0.439239	0.325134
	H484	H	0.424106	0.420152	0.314842
	H485	H	0.428636	0.439399	0.316991
	O486	O	1.200806	-0.031601	0.778145
	H487	H	1.199940	-0.012017	0.796352
	H488	H	1.211160	-0.015114	0.766735
	O489	O	0.943945	0.922230	-0.245419
	H490	H	0.932868	0.913592	-0.251523
	H491	H	0.945309	0.908991	-0.245112
	O492	O	-0.070598	0.030902	0.228401
	H493	H	-0.052846	0.037775	0.225077
	H494	H	-0.062615	0.033981	0.227171
	O495	O	0.012926	1.165658	0.989663
	H496	H	0.005833	1.173180	0.955476
	H497	H	0.049474	1.161008	0.988673
	O498	O	1.179981	1.163495	0.805719
	H499	H	1.195597	1.181909	0.785901
	H500	H	1.172037	1.154096	0.787644
	O501	O	0.775601	0.780221	1.024837
	H502	H	0.778402	0.770246	1.020975
	H503	H	0.778662	0.775287	1.037092
