data_Molecule from HDF5

_cell_length_a		16.702127
_cell_length_b		16.217838
_cell_length_c		16.183020
_cell_angle_alpha	89.963725
_cell_angle_beta	90.072777
_cell_angle_gamma	89.928359
_symmetry_space_group_name_H-M	'P 1'
_symmetry_Int_Tables_number		1

loop_
	_symmetry_equiv_pos_as_xyz
	x,y,z

loop_
	_atom_site_label
	_atom_site_type_symbol
	_atom_site_fract_x
	_atom_site_fract_y
	_atom_site_fract_z
	H0	H	0.395392	0.827029	0.728077
	H1	H	0.594928	0.151509	0.729283
	H2	H	0.594065	0.827774	0.296923
	H3	H	0.391273	0.151348	0.294294
	H4	H	0.716267	0.383238	0.852714
	H5	H	0.719099	0.600646	0.171148
	H6	H	0.271071	0.602580	0.853798
	H7	H	0.271508	0.380361	0.170743
	H8	H	0.839059	0.711605	0.405351
	H9	H	0.151794	0.714442	0.618469
	H10	H	0.839302	0.267148	0.617358
	H11	H	0.151087	0.265629	0.406085
	H12	H	0.839284	0.386507	0.733228
	H13	H	0.151873	0.597225	0.735837
	H14	H	0.839143	0.594513	0.288661
	H15	H	0.151892	0.382130	0.288308
	H16	H	0.394414	0.707811	0.850370
	H17	H	0.594167	0.705128	0.175985
	H18	H	0.595289	0.273365	0.849910
	H19	H	0.393404	0.272569	0.174289
	H20	H	0.717162	0.832163	0.402237
	H21	H	0.719080	0.146620	0.624440
	H22	H	0.271072	0.830627	0.623059
	H23	H	0.268274	0.146810	0.401267
	H24	H	0.895792	0.327603	0.227361
	H25	H	0.095246	0.652541	0.228531
	H26	H	0.094640	0.328044	0.797694
	H27	H	0.895429	0.653054	0.796177
	H28	H	0.217862	0.878917	0.354027
	H29	H	0.217922	0.099984	0.669794
	H30	H	0.769735	0.099545	0.353905
	H31	H	0.773193	0.881474	0.671865
	H32	H	0.337956	0.210845	0.908960
	H33	H	0.652271	0.212151	0.118980
	H34	H	0.338059	0.768632	0.118257
	H35	H	0.652678	0.769362	0.909485
	H36	H	0.337613	0.886969	0.233651
	H37	H	0.652056	0.094791	0.236163
	H38	H	0.338521	0.094472	0.791309
	H39	H	0.652809	0.885396	0.791564
	H40	H	0.892303	0.206392	0.349361
	H41	H	0.095511	0.206761	0.672838
	H42	H	0.093937	0.774475	0.348978
	H43	H	0.894286	0.771883	0.674090
	H44	H	0.219217	0.332876	0.902325
	H45	H	0.219772	0.648058	0.124845
	H46	H	0.772458	0.332077	0.122084
	H47	H	0.772566	0.650067	0.903590
	H48	H	0.401818	0.106967	0.604695
	H49	H	0.586272	0.874759	0.598131
	H50	H	0.584948	0.104524	0.429400
	H51	H	0.394105	0.871366	0.425037
	H52	H	0.588507	0.400348	0.129675
	H53	H	0.585209	0.579001	0.897008
	H54	H	0.397925	0.576369	0.130167
	H55	H	0.403803	0.406585	0.897612
	H56	H	0.107637	0.577127	0.418480
	H57	H	0.887544	0.576879	0.595455
	H58	H	0.106714	0.403051	0.604515
	H59	H	0.886961	0.403722	0.425027
	H60	H	0.109606	0.395031	0.605442
	H61	H	0.884204	0.575909	0.607704
	H62	H	0.108205	0.583505	0.420980
	H63	H	0.882038	0.400994	0.412380
	H64	H	0.408360	0.569925	0.123286
	H65	H	0.587487	0.578224	0.896689
	H66	H	0.588623	0.407520	0.126921
	H67	H	0.408446	0.404844	0.897964
	H68	H	0.584868	0.106211	0.425027
	H69	H	0.586657	0.873261	0.600290
	H70	H	0.408786	0.101506	0.597284
	H71	H	0.411250	0.874633	0.417683
	H72	H	0.904116	0.605438	0.099748
	H73	H	0.086569	0.374708	0.098866
	H74	H	0.080341	0.601659	0.933432
	H75	H	0.904265	0.378018	0.930906
	H76	H	0.081419	0.909335	0.623463
	H77	H	0.083705	0.075122	0.396313
	H78	H	0.906706	0.073474	0.625543
	H79	H	0.899887	0.909090	0.398373
	H80	H	0.609638	0.084857	0.918343
	H81	H	0.385024	0.077251	0.102769
	H82	H	0.607953	0.892244	0.101442
	H83	H	0.383818	0.896979	0.926729
	H84	H	0.603338	0.904154	0.099691
	H85	H	0.382372	0.082539	0.106629
	H86	H	0.606064	0.082193	0.928302
	H87	H	0.384605	0.904879	0.919354
	H88	H	0.905732	0.079617	0.628004
	H89	H	0.084713	0.074440	0.395030
	H90	H	0.079509	0.897460	0.628101
	H91	H	0.910179	0.902344	0.398014
	H92	H	0.093794	0.608215	0.927246
	H93	H	0.084808	0.376507	0.096290
	H94	H	0.907235	0.605127	0.097752
	H95	H	0.896594	0.372600	0.922540
	H96	H	0.398252	0.104840	0.593963
	H97	H	0.583860	0.874169	0.600060
	H98	H	0.581743	0.104400	0.427322
	H99	H	0.407801	0.879610	0.435950
	H100	H	0.582081	0.403705	0.127131
	H101	H	0.585589	0.576468	0.897123
	H102	H	0.409452	0.583268	0.128249
	H103	H	0.404687	0.401633	0.896787
	H104	H	0.105060	0.578960	0.424802
	H105	H	0.882311	0.586632	0.601842
	H106	H	0.106090	0.397141	0.598103
	H107	H	0.882437	0.391048	0.421686
	H108	H	0.904118	0.605340	0.096759
	H109	H	0.087822	0.375674	0.096030
	H110	H	0.080572	0.607655	0.917493
	H111	H	0.908339	0.374769	0.919435
	H112	H	0.090039	0.903188	0.629356
	H113	H	0.084483	0.074433	0.396842
	H114	H	0.901024	0.075852	0.628180
	H115	H	0.899741	0.896900	0.393216
	H116	H	0.606309	0.075158	0.920250
	H117	H	0.383781	0.084014	0.099631
	H118	H	0.608258	0.900708	0.110980
	H119	H	0.380875	0.895395	0.916811
	C120	C	0.372458	-0.001699	0.632344
	C121	C	0.616269	0.980238	0.632829
	C122	C	0.615081	-0.000859	0.393537
	C123	C	0.372514	0.980903	0.392524
	C124	C	0.616828	0.370570	0.021486
	C125	C	0.616922	0.610822	1.003438
	C126	C	0.373591	0.610807	0.021288
	C127	C	0.374293	0.371212	1.003967
	C128	C	0.003312	0.611277	0.389652
	C129	C	0.987874	0.612786	0.634025
	C130	C	0.003784	0.367450	0.634152
	C131	C	0.987089	0.366351	0.387886
	C132	C	0.874185	0.499153	0.131313
	C133	C	0.117302	0.481368	0.131859
	C134	C	0.116601	0.499805	0.892425
	C135	C	0.872505	0.481602	0.891098
	C136	C	0.115153	0.869763	0.520876
	C137	C	0.115794	0.108939	0.502179
	C138	C	0.872586	0.109802	0.521169
	C139	C	0.872585	0.868981	0.502818
	C140	C	0.503525	0.112225	0.890656
	C141	C	0.486860	0.113459	0.136100
	C142	C	0.502718	0.867844	0.135172
	C143	C	0.486994	0.867268	0.889672
	C144	C	0.373922	0.876476	0.691090
	C145	C	0.615462	0.102134	0.691438
	C146	C	0.614538	0.877090	0.334563
	C147	C	0.371624	0.102294	0.332798
	C148	C	0.675855	0.366480	0.900274
	C149	C	0.677171	0.615783	0.124098
	C150	C	0.312398	0.617562	0.901376
	C151	C	0.312962	0.365123	0.123360
	C152	C	0.885621	0.671159	0.387515
	C153	C	0.105117	0.673740	0.636715
	C154	C	0.886027	0.307826	0.635653
	C155	C	0.104479	0.305804	0.386951
	C156	C	0.886211	0.366859	0.693761
	C157	C	0.105162	0.615267	0.695136
	C158	C	0.885815	0.613004	0.329120
	C159	C	0.104719	0.364125	0.328366
	C160	C	0.373760	0.670065	0.899560
	C161	C	0.615337	0.668336	0.126161
	C162	C	0.615860	0.311621	0.899121
	C163	C	0.373852	0.311248	0.125402
	C164	C	0.675711	0.879208	0.387296
	C165	C	0.677538	0.099666	0.639235
	C166	C	0.312324	0.878261	0.638172
	C167	C	0.310271	0.099994	0.385957
	C168	C	0.875277	0.376988	0.189434
	C169	C	0.115942	0.603243	0.191053
	C170	C	0.115693	0.377431	0.834911
	C171	C	0.874322	0.603828	0.833426
	C172	C	0.176474	0.863552	0.401136
	C173	C	0.176654	0.115181	0.622237
	C174	C	0.811471	0.115094	0.401079
	C175	C	0.813426	0.864573	0.623787
	C176	C	0.385297	0.171407	0.889784
	C177	C	0.604835	0.172913	0.137911
	C178	C	0.384988	0.808698	0.136443
	C179	C	0.605475	0.808627	0.889607
	C180	C	0.384659	0.867657	0.194099
	C181	C	0.604674	0.114119	0.196131
	C182	C	0.385535	0.113551	0.831066
	C183	C	0.605388	0.866323	0.830600
	C184	C	0.872152	0.168852	0.398993
	C185	C	0.115852	0.168582	0.623778
	C186	C	0.114667	0.811657	0.398514
	C187	C	0.873398	0.809756	0.624802
	C188	C	0.177782	0.380064	0.886813
	C189	C	0.177803	0.601248	0.138934
	C190	C	0.813528	0.379336	0.137206
	C191	C	0.813304	0.602300	0.887091
	C192	C	0.396191	0.082624	0.606163
	C193	C	0.592343	0.895928	0.606820
	C194	C	0.590863	0.083243	0.419782
	C195	C	0.397214	0.897059	0.418915
	C196	C	0.593156	0.396369	0.105762
	C197	C	0.593062	0.585202	0.919147
	C198	C	0.398191	0.584148	0.105297
	C199	C	0.398608	0.396991	0.919604
	C200	C	0.085571	0.586927	0.414451
	C201	C	0.906169	0.587314	0.608814
	C202	C	0.086087	0.391361	0.609623
	C203	C	0.905109	0.391459	0.412626
	C204	C	0.898036	0.583452	0.105414
	C205	C	0.093394	0.397556	0.104958
	C206	C	0.092111	0.583927	0.918355
	C207	C	0.895974	0.397047	0.916809
	C208	C	0.090786	0.895707	0.605096
	C209	C	0.091182	0.082453	0.418043
	C210	C	0.897412	0.083901	0.605392
	C211	C	0.896296	0.895254	0.418596
	C212	C	0.585678	0.087613	0.915061
	C213	C	0.404923	0.088604	0.110553
	C214	C	0.585040	0.892038	0.110940
	C215	C	0.404735	0.892036	0.913975
	Zn216	Zn	0.495028	-0.010199	0.759955
	Zn217	Zn	0.494864	-0.010147	0.265838
	Zn218	Zn	0.745374	0.490721	0.012241
	Zn219	Zn	0.245183	0.491529	0.012008
	Zn220	Zn	-0.004955	0.742580	0.510885
	Zn221	Zn	-0.005142	0.236677	0.511393
	Zn222	Zn	-0.004271	0.490338	0.764933
	Zn223	Zn	-0.004373	0.489679	0.258618
	Zn224	Zn	0.494904	0.737256	0.012927
	Zn225	Zn	0.495205	0.242902	0.012653
	Zn226	Zn	0.744437	-0.010394	0.512488
	Zn227	Zn	0.243755	-0.011138	0.511995
	N228	N	0.410721	0.952198	0.687679
	N229	N	0.578013	0.026928	0.687390
	N230	N	0.577512	0.952595	0.338359
	N231	N	0.409804	0.027301	0.336680
	N232	N	0.676925	0.401977	0.977477
	N233	N	0.678565	0.580874	0.046677
	N234	N	0.312071	0.581560	0.978245
	N235	N	0.313131	0.401775	0.046689
	N236	N	0.959759	0.670272	0.424369
	N237	N	0.031164	0.672308	0.599260
	N238	N	0.960105	0.308187	0.599172
	N239	N	0.030351	0.307188	0.423403
	N240	N	0.960258	0.403195	0.692796
	N241	N	0.031507	0.577879	0.693489
	N242	N	0.959821	0.576435	0.330428
	N243	N	0.030611	0.401042	0.328809
	N244	N	0.411193	0.666059	0.975068
	N245	N	0.578576	0.665328	0.050225
	N246	N	0.579979	0.313865	0.975442
	N247	N	0.411304	0.314985	0.050078
	N248	N	0.676182	0.956088	0.423309
	N249	N	0.678210	0.022758	0.603515
	N250	N	0.311180	0.955156	0.602462
	N251	N	0.310920	0.023539	0.422393
	N252	N	0.912237	0.452580	0.186119
	N253	N	0.079156	0.527504	0.187026
	N254	N	0.078694	0.453067	0.837873
	N255	N	0.910367	0.527579	0.835764
	N256	N	0.176876	0.898881	0.478238
	N257	N	0.176744	0.079040	0.545414
	N258	N	0.811404	0.079573	0.478138
	N259	N	0.812699	0.900537	0.546765
	N260	N	0.459623	0.170865	0.926074
	N261	N	0.530496	0.172585	0.101399
	N262	N	0.459424	0.808639	0.100572
	N263	N	0.530903	0.808865	0.925422
	N264	N	0.458909	0.903683	0.193542
	N265	N	0.530062	0.078403	0.195633
	N266	N	0.459980	0.077287	0.831565
	N267	N	0.530568	0.901823	0.830343
	N268	N	0.909561	0.165869	0.474806
	N269	N	0.078751	0.164954	0.548117
	N270	N	0.077265	0.815138	0.474101
	N271	N	0.909253	0.812096	0.548496
	N272	N	0.178481	0.457374	0.921655
	N273	N	0.178981	0.524508	0.103247
	N274	N	0.812765	0.456452	0.101816
	N275	N	0.811909	0.525064	0.921956
	O276	O	0.613091	0.508195	0.488555
	H277	H	0.609363	0.494811	0.484068
	H278	H	0.618570	0.502681	0.488632
	O279	O	0.274743	0.512322	0.298007
	H280	H	0.263245	0.541894	0.290185
	H281	H	0.264157	0.540370	0.280740
	O282	O	1.051909	0.778174	0.080316
	H283	H	1.039742	0.766228	0.068274
	H284	H	1.057401	0.765348	0.069351
	O285	O	1.091086	1.141067	-0.079512
	H286	H	1.110972	1.148255	-0.071293
	H287	H	1.095140	1.119648	-0.072147
	O288	O	0.651058	0.607430	0.636154
	H289	H	0.626550	0.617745	0.638986
	H290	H	0.662221	0.602741	0.638319
	O291	O	0.488396	0.518273	0.694122
	H292	H	0.477409	0.510611	0.681189
	H293	H	0.474997	0.515848	0.694328
	O294	O	0.893001	1.085779	1.091080
	H295	H	0.890809	1.089225	1.085273
	H296	H	0.894804	1.097693	1.095359
	O297	O	0.684434	0.310549	0.329646
	H298	H	0.668580	0.297537	0.335123
	H299	H	0.663305	0.312132	0.335362
	O300	O	0.456726	0.384157	0.684492
	H301	H	0.472627	0.386948	0.660713
	H302	H	0.469131	0.380524	0.711064
	O303	O	0.710246	0.497752	0.693958
	H304	H	0.734484	0.510014	0.713150
	H305	H	0.698105	0.515974	0.690694
	O306	O	0.492515	0.683350	0.583880
	H307	H	0.492029	0.675921	0.594847
	H308	H	0.488864	0.685508	0.579895
	O309	O	0.958032	-0.107951	0.136857
	H310	H	0.956124	-0.096859	0.139638
	H311	H	0.949744	-0.110428	0.144885
	O312	O	0.460256	0.575370	0.326125
	H313	H	0.472682	0.580610	0.334724
	H314	H	0.467579	0.565355	0.324362
	O315	O	0.277972	0.268955	0.580241
	H316	H	0.267470	0.257548	0.576449
	H317	H	0.263734	0.274619	0.564161
	O318	O	0.194406	0.016750	-0.023881
	H319	H	0.207055	0.010269	-0.037924
	H320	H	0.182505	-0.001108	-0.024617
	O321	O	0.300705	0.494204	0.487133
	H322	H	0.295315	0.511227	0.502953
	H323	H	0.294250	0.493627	0.482385
	O324	O	0.827070	-0.104151	1.005424
	H325	H	0.828144	-0.100846	1.023221
	H326	H	0.823228	-0.117088	1.011335
	O327	O	0.712201	0.469830	0.354029
	H328	H	0.709428	0.422365	0.362098
	H329	H	0.732811	0.464093	0.339114
	O330	O	0.036880	1.054572	0.856993
	H331	H	0.030244	1.062424	0.860222
	H332	H	0.040998	1.049621	0.857164
	O333	O	-0.425375	0.561261	-0.424860
	H334	H	-0.419472	0.560898	-0.451203
	H335	H	-0.413380	0.567670	-0.419690
	O336	O	1.197434	0.889262	-0.135534
	H337	H	1.206787	0.869570	-0.134159
	H338	H	1.187059	0.898434	-0.143846
	O339	O	0.032784	0.800611	0.861537
	H340	H	0.024990	0.792043	0.865921
	H341	H	0.013737	0.810202	0.866019
	O342	O	0.596588	0.295262	0.639706
	H343	H	0.616600	0.307743	0.626376
	H344	H	0.585701	0.305559	0.623302
	O345	O	-0.147629	-0.082725	1.047183
	H346	H	-0.150708	-0.076010	1.053865
	H347	H	-0.141169	-0.077469	1.053464
	O348	O	0.505451	0.312720	0.514360
	H349	H	0.481510	0.313311	0.507409
	H350	H	0.519138	0.311651	0.512742
	O351	O	1.006285	0.978242	0.155837
	H352	H	1.009977	0.985984	0.159573
	H353	H	1.024560	0.987657	0.181454
	O354	O	0.922207	0.935389	0.924422
	H355	H	0.932859	0.955537	0.928075
	H356	H	0.915222	0.939290	0.934033
	O357	O	0.131429	-0.074868	0.157606
	H358	H	0.136847	-0.082001	0.157892
	H359	H	0.122038	-0.086981	0.165687
	O360	O	0.309465	0.305299	0.697672
	H361	H	0.357242	0.296818	0.699012
	H362	H	0.294573	0.287339	0.666337
	O363	O	0.833107	0.134394	-0.171103
	H364	H	0.837236	0.152896	-0.173467
	H365	H	0.842278	0.118432	-0.179069
	O366	O	0.015850	0.136515	0.810752
	H367	H	0.020296	0.142768	0.809491
	H368	H	0.026612	0.141221	0.808232
	O369	O	1.149762	-0.028166	1.137142
	H370	H	1.147234	-0.026326	1.131575
	H371	H	1.158873	-0.019146	1.129823
	O372	O	0.479633	0.623835	0.584772
	H373	H	0.479965	0.623574	0.592464
	H374	H	0.477112	0.622576	0.603496
	O375	O	0.111977	0.157825	1.173543
	H376	H	0.109962	0.147223	1.175617
	H377	H	0.121352	0.152268	1.150112
	O378	O	0.444302	0.406254	0.329072
	H379	H	0.443796	0.415055	0.335518
	H380	H	0.415555	0.423772	0.329225
	O381	O	-0.215770	1.194705	-0.007178
	H382	H	-0.228474	1.211294	-0.026696
	H383	H	-0.213198	1.194898	-0.031149
	O384	O	0.401198	0.531783	0.542773
	H385	H	0.407741	0.529436	0.552100
	H386	H	0.406809	0.528705	0.550783
	O387	O	0.578301	0.612530	0.447524
	H388	H	0.593796	0.597644	0.467008
	H389	H	0.589470	0.611042	0.433900
	O390	O	0.945101	0.911313	-0.052400
	H391	H	0.954854	0.903801	-0.048668
	H392	H	0.944251	0.902941	-0.046688
	O393	O	0.987222	-0.038959	0.954341
	H394	H	0.987123	-0.041543	0.960083
	H395	H	0.987026	-0.033865	0.957247
	O396	O	0.362920	0.639490	0.432709
	H397	H	0.335593	0.653175	0.440505
	H398	H	0.372493	0.627779	0.444280
	O399	O	0.161634	1.187042	0.057347
	H400	H	0.165035	1.186549	0.053810
	H401	H	0.163319	1.194878	0.054581
	O402	O	1.705792	1.276256	-0.512113
	H403	H	1.714990	1.274800	-0.503572
	H404	H	1.718610	1.258750	-0.530044
	O405	O	0.615622	0.464682	0.564998
	H406	H	0.610308	0.474199	0.567950
	H407	H	0.624848	0.474988	0.573584
	O408	O	0.523584	0.279980	0.303528
	H409	H	0.513545	0.258635	0.275656
	H410	H	0.495853	0.290483	0.306009
	O411	O	0.928009	1.096211	1.065607
	H412	H	0.942486	1.099877	1.057202
	H413	H	0.925358	1.102550	1.060657
	O414	O	0.279389	0.473066	0.723574
	H415	H	0.274963	0.438249	0.729344
	H416	H	0.272176	0.450838	0.742506
	O417	O	0.136718	0.846515	0.942728
	H418	H	0.112417	0.840017	0.953362
	H419	H	0.118113	0.863471	0.942009
	O420	O	-0.204938	0.853665	1.138410
	H421	H	-0.213162	0.873302	1.165504
	H422	H	-0.202630	0.837049	1.139289
	O423	O	0.012510	1.108455	0.129670
	H424	H	0.020270	1.108376	0.128905
	H425	H	0.015058	1.121572	0.128700
	O426	O	0.335942	0.382582	0.478741
	H427	H	0.331624	0.390545	0.463265
	H428	H	0.334992	0.401018	0.493642
	O429	O	0.674810	0.677008	0.469614
	H430	H	0.684453	0.675253	0.483453
	H431	H	0.676250	0.662730	0.473296
	O432	O	0.311116	0.675756	0.325108
	H433	H	0.324405	0.684254	0.354111
	H434	H	0.340514	0.683114	0.343086
	O435	O	-0.204238	0.047524	-0.179671
	H436	H	-0.192069	0.053912	-0.177564
	H437	H	-0.225235	0.034190	-0.183099
	O438	O	-0.034092	0.834160	1.101146
	H439	H	-0.030226	0.838720	1.092653
	H440	H	-0.042554	0.817802	1.099269
	O441	O	0.511402	0.679699	0.571085
	H442	H	0.508205	0.674292	0.576366
	H443	H	0.523555	0.664128	0.572893
