data_Molecule from HDF5

_cell_length_a		16.090652
_cell_length_b		16.228376
_cell_length_c		16.326401
_cell_angle_alpha	90.132355
_cell_angle_beta	89.770778
_cell_angle_gamma	89.737460
_symmetry_space_group_name_H-M	'P 1'
_symmetry_Int_Tables_number		1

loop_
	_symmetry_equiv_pos_as_xyz
	x,y,z

loop_
	_atom_site_label
	_atom_site_type_symbol
	_atom_site_fract_x
	_atom_site_fract_y
	_atom_site_fract_z
	H0	H	0.388021	0.846946	0.706228
	H1	H	0.592159	0.172442	0.706468
	H2	H	0.592709	0.847402	0.272637
	H3	H	0.386393	0.172024	0.270771
	H4	H	0.712162	0.407193	0.825952
	H5	H	0.707558	0.607651	0.151877
	H6	H	0.279832	0.610463	0.825641
	H7	H	0.278167	0.411897	0.151479
	H8	H	0.826907	0.726043	0.387319
	H9	H	0.156684	0.726058	0.584918
	H10	H	0.827065	0.298055	0.589909
	H11	H	0.155132	0.295331	0.385873
	H12	H	0.829639	0.410235	0.706971
	H13	H	0.157004	0.614401	0.702355
	H14	H	0.829738	0.614356	0.269817
	H15	H	0.157093	0.409344	0.273854
	H16	H	0.391784	0.728646	0.828070
	H17	H	0.596719	0.727496	0.151223
	H18	H	0.599293	0.289515	0.827082
	H19	H	0.392050	0.294196	0.150628
	H20	H	0.707924	0.847925	0.386986
	H21	H	0.703635	0.174920	0.587386
	H22	H	0.276106	0.846253	0.586415
	H23	H	0.277890	0.175634	0.392529
	H24	H	0.892288	0.347936	0.206539
	H25	H	0.093551	0.673773	0.203737
	H26	H	0.098862	0.348995	0.767092
	H27	H	0.891062	0.674193	0.772135
	H28	H	0.206772	0.912140	0.324513
	H29	H	0.203880	0.110694	0.650671
	H30	H	0.774705	0.112355	0.324877
	H31	H	0.776466	0.914128	0.650658
	H32	H	0.329259	0.225602	0.890752
	H33	H	0.658372	0.222569	0.088323
	H34	H	0.329112	0.795121	0.091184
	H35	H	0.657548	0.794002	0.889175
	H36	H	0.327695	0.909427	0.203965
	H37	H	0.656224	0.109065	0.204336
	H38	H	0.327787	0.111854	0.775396
	H39	H	0.655179	0.903763	0.768615
	H40	H	0.888241	0.230438	0.324961
	H41	H	0.091131	0.229973	0.648611
	H42	H	0.093095	0.795478	0.325032
	H43	H	0.887890	0.794630	0.648721
	H44	H	0.209450	0.345992	0.888662
	H45	H	0.205839	0.675287	0.084432
	H46	H	0.779502	0.346019	0.088520
	H47	H	0.776777	0.674081	0.890012
	H48	H	0.410850	0.123006	0.583876
	H49	H	0.587268	0.891885	0.581654
	H50	H	0.581762	0.126871	0.399366
	H51	H	0.407325	0.898850	0.406939
	H52	H	0.586512	0.409170	0.106368
	H53	H	0.583524	0.596122	0.875529
	H54	H	0.383769	0.599119	0.109443
	H55	H	0.407503	0.421441	0.875020
	H56	H	0.110101	0.602336	0.395399
	H57	H	0.878378	0.598942	0.571983
	H58	H	0.109770	0.423457	0.579931
	H59	H	0.873309	0.425342	0.393552
	H60	H	0.110522	0.417004	0.576362
	H61	H	0.873055	0.598283	0.590562
	H62	H	0.110517	0.604619	0.392023
	H63	H	0.873812	0.419153	0.396244
	H64	H	0.411041	0.591355	0.098346
	H65	H	0.579618	0.606564	0.873408
	H66	H	0.591788	0.420562	0.105030
	H67	H	0.406474	0.410542	0.871810
	H68	H	0.583045	0.129171	0.393680
	H69	H	0.578344	0.893634	0.582651
	H70	H	0.391601	0.126134	0.573056
	H71	H	0.385253	0.888964	0.396856
	H72	H	0.890676	0.631049	0.082689
	H73	H	0.085730	0.392618	0.083580
	H74	H	0.090636	0.629417	0.895353
	H75	H	0.921146	0.399794	0.895973
	H76	H	0.077252	0.912952	0.604307
	H77	H	0.081893	0.103858	0.371464
	H78	H	0.896983	0.098269	0.601564
	H79	H	0.907249	0.925446	0.375333
	H80	H	0.611238	0.103111	0.899809
	H81	H	0.374484	0.106183	0.077935
	H82	H	0.609075	0.923605	0.080842
	H83	H	0.377043	0.923507	0.899997
	H84	H	0.612301	0.916760	0.086741
	H85	H	0.375459	0.099124	0.080531
	H86	H	0.607846	0.092437	0.899223
	H87	H	0.373411	0.918282	0.894415
	H88	H	0.905394	0.108861	0.602036
	H89	H	0.083381	0.104702	0.369958
	H90	H	0.089072	0.917268	0.605909
	H91	H	0.901983	0.908340	0.368163
	H92	H	0.085351	0.628985	0.890179
	H93	H	0.085800	0.393551	0.079917
	H94	H	0.911079	0.626543	0.087956
	H95	H	0.896237	0.395620	0.909008
	H96	H	0.393503	0.131961	0.593840
	H97	H	0.582210	0.895102	0.575153
	H98	H	0.576966	0.127033	0.394470
	H99	H	0.406687	0.890425	0.382207
	H100	H	0.579446	0.418442	0.101293
	H101	H	0.591422	0.603044	0.870586
	H102	H	0.405721	0.618312	0.108838
	H103	H	0.396624	0.418095	0.871029
	H104	H	0.111916	0.606151	0.395060
	H105	H	0.871054	0.614760	0.581445
	H106	H	0.107536	0.423461	0.572088
	H107	H	0.875902	0.424755	0.399971
	H108	H	0.904470	0.621209	0.068178
	H109	H	0.087981	0.392702	0.081549
	H110	H	0.083926	0.625673	0.896817
	H111	H	0.899366	0.388710	0.881659
	H112	H	0.080435	0.925160	0.600975
	H113	H	0.083156	0.103721	0.371676
	H114	H	0.892687	0.110010	0.606311
	H115	H	0.889850	0.923029	0.369059
	H116	H	0.612032	0.098747	0.889948
	H117	H	0.373139	0.104510	0.085497
	H118	H	0.610721	0.913603	0.078321
	H119	H	0.375568	0.915570	0.902015
	C120	C	0.368598	0.018904	0.611697
	C121	C	0.611884	1.001751	0.609676
	C122	C	0.611473	0.019820	0.366154
	C123	C	0.369760	1.001034	0.366780
	C124	C	0.616816	0.386117	-0.002942
	C125	C	0.614632	0.631177	0.980696
	C126	C	0.371542	0.632506	-0.002009
	C127	C	0.372706	0.387818	0.979881
	C128	C	0.001812	0.633679	0.365053
	C129	C	0.983332	0.633453	0.608948
	C130	C	0.000959	0.391242	0.607984
	C131	C	0.982956	0.391792	0.366755
	C132	C	0.872248	0.518780	0.109874
	C133	C	0.115235	0.501714	0.109895
	C134	C	0.116684	0.519778	0.864731
	C135	C	0.873627	0.502422	0.866762
	C136	C	0.112590	0.889540	0.496207
	C137	C	0.111986	0.133530	0.478426
	C138	C	0.868634	0.134884	0.495878
	C139	C	0.869403	0.889908	0.478193
	C140	C	0.501844	0.129595	0.867958
	C141	C	0.483718	0.131580	0.110208
	C142	C	0.501755	0.888952	0.110899
	C143	C	0.483686	0.888068	0.867788
	C144	C	0.369400	0.895879	0.667148
	C145	C	0.611308	0.123880	0.667397
	C146	C	0.611932	0.896472	0.310383
	C147	C	0.368811	0.123924	0.310535
	C148	C	0.674235	0.386873	0.874839
	C149	C	0.670698	0.628796	0.102927
	C150	C	0.316809	0.630696	0.874838
	C151	C	0.316051	0.390952	0.102601
	C152	C	0.877047	0.689031	0.367086
	C153	C	0.107293	0.688957	0.606027
	C154	C	0.876850	0.335514	0.608889
	C155	C	0.106387	0.333875	0.367011
	C156	C	0.878156	0.391214	0.667267
	C157	C	0.107439	0.633143	0.664224
	C158	C	0.878180	0.633388	0.308564
	C159	C	0.107216	0.390755	0.311033
	C160	C	0.372770	0.689440	0.876204
	C161	C	0.614922	0.688074	0.102606
	C162	C	0.617819	0.328358	0.875498
	C163	C	0.373033	0.332469	0.102391
	C164	C	0.669436	0.896919	0.367440
	C165	C	0.666659	0.125304	0.607656
	C166	C	0.313178	0.895620	0.608011
	C167	C	0.314318	0.125585	0.370617
	C168	C	0.872906	0.396418	0.167427
	C169	C	0.113558	0.625007	0.165380
	C170	C	0.117353	0.397417	0.806717
	C171	C	0.871942	0.625246	0.810611
	C172	C	0.169031	0.891623	0.373575
	C173	C	0.166710	0.131495	0.601570
	C174	C	0.812735	0.132634	0.373266
	C175	C	0.813820	0.892899	0.601567
	C176	C	0.378210	0.187084	0.870577
	C177	C	0.608310	0.185704	0.108625
	C178	C	0.378108	0.832901	0.110409
	C179	C	0.608035	0.831755	0.868936
	C180	C	0.377578	0.889741	0.166670
	C181	C	0.607153	0.129258	0.166501
	C182	C	0.377410	0.130618	0.812969
	C183	C	0.606680	0.886246	0.808887
	C184	C	0.868963	0.191656	0.373621
	C185	C	0.110385	0.190494	0.600423
	C186	C	0.112352	0.833381	0.373829
	C187	C	0.869103	0.833458	0.600485
	C188	C	0.172349	0.395717	0.867242
	C189	C	0.169466	0.625609	0.106175
	C190	C	0.816745	0.395374	0.108561
	C191	C	0.815216	0.625163	0.869054
	C192	C	0.391763	0.104780	0.589977
	C193	C	0.589369	0.915696	0.586327
	C194	C	0.587583	0.105378	0.389076
	C195	C	0.392802	0.915156	0.388736
	C196	C	0.593009	0.409311	0.082219
	C197	C	0.591635	0.608590	0.895384
	C198	C	0.393631	0.609604	0.083378
	C199	C	0.396637	0.410009	0.894756
	C200	C	0.088394	0.611024	0.387484
	C201	C	0.896634	0.610752	0.587410
	C202	C	0.086896	0.414537	0.583313
	C203	C	0.896623	0.416193	0.389889
	C204	C	0.895364	0.604053	0.086508
	C205	C	0.092983	0.415359	0.088087
	C206	C	0.093548	0.605703	0.887467
	C207	C	0.898273	0.417102	0.889070
	C208	C	0.089024	0.911948	0.581546
	C209	C	0.089492	0.110585	0.393102
	C210	C	0.891608	0.112305	0.581027
	C211	C	0.892750	0.912432	0.393118
	C212	C	0.588101	0.105214	0.889938
	C213	C	0.396789	0.109760	0.087612
	C214	C	0.588421	0.911505	0.088495
	C215	C	0.397616	0.911968	0.891789
	Zn216	Zn	0.491538	0.009213	0.740002
	Zn217	Zn	0.491006	0.009619	0.238005
	Zn218	Zn	0.743918	0.509382	-0.012094
	Zn219	Zn	0.243655	0.510277	-0.012178
	Zn220	Zn	-0.009085	0.760815	0.487113
	Zn221	Zn	-0.009476	0.263849	0.486267
	Zn222	Zn	-0.005945	0.511673	0.736276
	Zn223	Zn	-0.006387	0.510902	0.238815
	Zn224	Zn	0.493312	0.761160	-0.009523
	Zn225	Zn	0.494644	0.258119	-0.011693
	Zn226	Zn	0.740459	0.011620	0.487343
	Zn227	Zn	0.241136	0.011430	0.488025
	N228	N	0.403233	0.973670	0.669663
	N229	N	0.578063	0.045840	0.668782
	N230	N	0.576707	0.973895	0.309378
	N231	N	0.402355	0.045716	0.307765
	N232	N	0.673709	0.422254	0.951466
	N233	N	0.670716	0.593992	0.025939
	N234	N	0.316125	0.595586	0.951495
	N235	N	0.315798	0.424614	0.025495
	N236	N	0.954884	0.689423	0.401525
	N237	N	0.029076	0.689346	0.572449
	N238	N	0.954342	0.335104	0.572902
	N239	N	0.028202	0.334427	0.400947
	N240	N	0.956280	0.425126	0.666797
	N241	N	0.029232	0.599512	0.666445
	N242	N	0.956705	0.599614	0.307175
	N243	N	0.029392	0.426352	0.310924
	N244	N	0.405787	0.690905	0.953747
	N245	N	0.580870	0.689768	0.025501
	N246	N	0.582817	0.327848	0.952467
	N247	N	0.407696	0.330241	0.025127
	N248	N	0.669400	0.974506	0.401570
	N249	N	0.667165	0.048278	0.572530
	N250	N	0.312237	0.973270	0.574468
	N251	N	0.314652	0.048196	0.404935
	N252	N	0.906628	0.474145	0.168504
	N253	N	0.080863	0.546850	0.167916
	N254	N	0.083591	0.475492	0.804962
	N255	N	0.907733	0.548246	0.809246
	N256	N	0.169471	0.925821	0.450750
	N257	N	0.167840	0.096666	0.524609
	N258	N	0.812152	0.098144	0.450150
	N259	N	0.813632	0.927061	0.524699
	N260	N	0.456626	0.186663	0.903929
	N261	N	0.530393	0.187320	0.074449
	N262	N	0.456404	0.832073	0.076329
	N263	N	0.530692	0.832806	0.905202
	N264	N	0.455512	0.923945	0.167031
	N265	N	0.528401	0.096370	0.167731
	N266	N	0.455194	0.095319	0.811468
	N267	N	0.528357	0.920637	0.808360
	N268	N	0.902960	0.193159	0.450852
	N269	N	0.077164	0.191975	0.522936
	N270	N	0.077967	0.831864	0.451113
	N271	N	0.902925	0.831171	0.522963
	N272	N	0.172175	0.472941	0.902439
	N273	N	0.170711	0.547839	0.072499
	N274	N	0.816109	0.472334	0.073402
	N275	N	0.816082	0.547692	0.903357
	O276	O	0.994259	-0.115725	0.934956
	H277	H	0.994976	-0.136717	0.940624
	H278	H	1.014864	-0.113373	0.913974
	O279	O	0.533599	0.607525	0.377904
	H280	H	0.537857	0.588320	0.391922
	H281	H	0.545925	0.607871	0.371262
	O282	O	0.606354	0.530679	0.444660
	H283	H	0.588232	0.530817	0.426237
	H284	H	0.622143	0.541833	0.438451
	O285	O	0.501830	0.486224	0.490331
	H286	H	0.502193	0.483200	0.479648
	H287	H	0.490187	0.467170	0.476259
	O288	O	0.423465	0.542920	0.460815
	H289	H	0.427147	0.541021	0.442723
	H290	H	0.414708	0.548953	0.465772
	O291	O	0.465727	-0.663319	1.463920
	H292	H	0.462921	-0.660969	1.472855
	H293	H	0.459646	-0.667694	1.458218
	O294	O	1.029613	1.017298	-0.002099
	H295	H	1.021125	1.028910	-0.011285
	H296	H	1.013805	1.008892	0.003247
	O297	O	0.909646	0.858367	0.006549
	H298	H	0.909209	0.846234	0.006215
	H299	H	0.905555	0.863162	0.017226
	O300	O	0.474702	0.565356	0.633100
	H301	H	0.488060	0.571036	0.620729
	H302	H	0.476643	0.553627	0.648402
	O303	O	0.452700	0.399709	0.565505
	H304	H	0.452221	0.399625	0.562514
	H305	H	0.455445	0.411608	0.566961
	O306	O	0.431342	0.375648	0.416381
	H307	H	0.424766	0.382565	0.421613
	H308	H	0.419431	0.394629	0.426368
	O309	O	0.596372	0.600136	0.495757
	H310	H	0.578014	0.603701	0.496367
	H311	H	0.609382	0.589098	0.495573
	O312	O	0.988852	1.079970	1.014945
	H313	H	0.981869	1.076668	1.014926
	H314	H	0.994760	1.080712	1.015151
	O315	O	1.080599	1.002833	0.064135
	H316	H	1.080494	1.007989	0.059663
	H317	H	1.083071	0.996101	0.069302
	O318	O	-0.054984	0.113530	0.995585
	H319	H	-0.055719	0.117428	0.991556
	H320	H	-0.062398	0.125224	0.993501
	O321	O	0.392847	0.629021	0.360405
	H322	H	0.398832	0.632657	0.369420
	H323	H	0.390004	0.629083	0.353315
	O324	O	0.054678	1.013615	0.963767
	H325	H	0.045325	1.014545	0.967604
	H326	H	0.063145	1.020567	0.966922
	O327	O	-0.046184	1.013667	0.989663
	H328	H	-0.044018	1.011522	0.999087
	H329	H	-0.039835	1.006666	0.981597
	O330	O	-0.094298	0.045773	-0.036480
	H331	H	-0.089203	0.056224	-0.033774
	H332	H	-0.094504	0.037071	-0.031498
	O333	O	0.463776	0.383122	0.588241
	H334	H	0.463726	0.383869	0.591804
	H335	H	0.461601	0.400072	0.595144
	O336	O	-0.023513	0.042848	0.033223
	H337	H	-0.022638	0.045289	0.028178
	H338	H	-0.027153	0.053888	0.038111
	O339	O	-0.013596	-0.005361	0.053405
	H340	H	-0.006396	-0.007034	0.053348
	H341	H	-0.014228	-0.000116	0.052400
	O342	O	0.429921	0.542678	0.508318
	H343	H	0.438734	0.525412	0.514880
	H344	H	0.436979	0.549333	0.501273
	O345	O	-0.012172	1.131843	0.907144
	H346	H	-0.020123	1.134771	0.904085
	H347	H	-0.026375	1.127077	0.903185
	O348	O	0.099339	0.010673	1.025688
	H349	H	0.099848	0.017501	1.032119
	H350	H	0.090671	0.017322	1.027498
	O351	O	0.475458	0.435766	0.440106
	H352	H	0.483824	0.423256	0.437664
	H353	H	0.481729	0.428518	0.440777
	O354	O	-0.009388	0.964841	-0.058265
	H355	H	0.000886	0.973167	-0.057212
	H356	H	0.004097	0.956670	-0.053215
	O357	O	0.485862	0.540178	0.457480
	H358	H	0.482370	0.539534	0.466069
	H359	H	0.483765	0.540712	0.446468
	O360	O	1.518931	-0.488406	1.445628
	H361	H	1.533200	-0.494028	1.430391
	H362	H	1.516585	-0.498000	1.456384
	O363	O	0.511755	0.516727	0.448141
	H364	H	0.498228	0.510514	0.447889
	H365	H	0.510801	0.530847	0.447248
	O366	O	0.347204	0.485697	0.522791
	H367	H	0.351424	0.482792	0.519266
	H368	H	0.326389	0.485078	0.521308
	O369	O	0.961094	0.087452	0.040342
	H370	H	0.956492	0.074608	0.046171
	H371	H	0.951841	0.085684	0.034169
	O372	O	0.564981	0.580863	0.542385
	H373	H	0.558828	0.580668	0.543359
	H374	H	0.571490	0.575087	0.554144
	O375	O	1.028548	-0.046990	0.883481
	H376	H	1.022454	-0.056798	0.876613
	H377	H	1.032347	-0.052348	0.887439
	O378	O	-0.031611	0.984316	-0.024047
	H379	H	-0.027990	0.982964	-0.035142
	H380	H	-0.033440	0.969133	-0.022081
	O381	O	0.639942	0.558626	0.558741
	H382	H	0.628797	0.561896	0.560906
	H383	H	0.661279	0.562894	0.565420
	O384	O	0.984154	0.909061	-0.114695
	H385	H	0.993790	0.907742	-0.117326
	H386	H	0.996042	0.904565	-0.111360
	O387	O	1.515218	0.405282	1.381080
	H388	H	1.519092	0.393131	1.369723
	H389	H	1.494538	0.405516	1.389556
	O390	O	1.048176	1.037784	-0.097251
	H391	H	1.052213	1.044087	-0.104272
	H392	H	1.048542	1.035860	-0.106186
	O393	O	0.588597	0.593829	0.662307
	H394	H	0.606130	0.592870	0.661805
	H395	H	0.585308	0.603450	0.660696
