data_Molecule from HDF5

_cell_length_a		16.354380
_cell_length_b		16.121607
_cell_length_c		16.459046
_cell_angle_alpha	89.875176
_cell_angle_beta	90.085463
_cell_angle_gamma	90.238906
_symmetry_space_group_name_H-M	'P 1'
_symmetry_Int_Tables_number		1

loop_
	_symmetry_equiv_pos_as_xyz
	x,y,z

loop_
	_atom_site_label
	_atom_site_type_symbol
	_atom_site_fract_x
	_atom_site_fract_y
	_atom_site_fract_z
	H0	H	0.391478	0.836942	0.714999
	H1	H	0.599888	0.161852	0.718142
	H2	H	0.597432	0.838804	0.280146
	H3	H	0.387405	0.161582	0.276915
	H4	H	0.714159	0.395739	0.841784
	H5	H	0.713176	0.607880	0.158036
	H6	H	0.270659	0.607385	0.839538
	H7	H	0.269545	0.395444	0.158703
	H8	H	0.831148	0.718542	0.398159
	H9	H	0.155098	0.717843	0.597938
	H10	H	0.830361	0.282633	0.598698
	H11	H	0.154957	0.287738	0.398239
	H12	H	0.832241	0.394202	0.719488
	H13	H	0.151415	0.607653	0.720420
	H14	H	0.833616	0.610261	0.277075
	H15	H	0.151265	0.398181	0.277428
	H16	H	0.390794	0.720455	0.838519
	H17	H	0.593755	0.720297	0.159410
	H18	H	0.592259	0.285262	0.838648
	H19	H	0.390410	0.282526	0.160060
	H20	H	0.710418	0.838517	0.396917
	H21	H	0.713316	0.163096	0.602174
	H22	H	0.275317	0.838023	0.600671
	H23	H	0.277739	0.164395	0.395559
	H24	H	0.885521	0.341826	0.219748
	H25	H	0.096590	0.665729	0.216181
	H26	H	0.096291	0.341460	0.779412
	H27	H	0.883801	0.662714	0.777402
	H28	H	0.214350	0.896699	0.339052
	H29	H	0.212984	0.104175	0.657304
	H30	H	0.769875	0.108910	0.340368
	H31	H	0.769909	0.891875	0.655591
	H32	H	0.329998	0.216085	0.898185
	H33	H	0.653206	0.220715	0.102051
	H34	H	0.330822	0.783958	0.098803
	H35	H	0.653916	0.784743	0.898973
	H36	H	0.333648	0.891539	0.221163
	H37	H	0.651254	0.109223	0.221932
	H38	H	0.333094	0.104683	0.777957
	H39	H	0.651998	0.893974	0.778099
	H40	H	0.890743	0.220166	0.337607
	H41	H	0.093244	0.218397	0.658747
	H42	H	0.094509	0.785000	0.337346
	H43	H	0.891781	0.781477	0.657582
	H44	H	0.208471	0.340343	0.896258
	H45	H	0.210591	0.664872	0.101488
	H46	H	0.773598	0.340330	0.103261
	H47	H	0.775081	0.664428	0.897209
	H48	H	0.404922	0.117071	0.588445
	H49	H	0.586170	0.881094	0.595628
	H50	H	0.581871	0.117765	0.405250
	H51	H	0.402384	0.881052	0.399893
	H52	H	0.578292	0.407436	0.113398
	H53	H	0.579774	0.591930	0.885789
	H54	H	0.404646	0.595788	0.112383
	H55	H	0.393697	0.417639	0.886003
	H56	H	0.109619	0.592726	0.401558
	H57	H	0.875407	0.593331	0.597298
	H58	H	0.105852	0.414747	0.591465
	H59	H	0.878552	0.420693	0.402585
	H60	H	0.106306	0.412519	0.590992
	H61	H	0.876467	0.596830	0.583874
	H62	H	0.108361	0.595610	0.408459
	H63	H	0.874253	0.405522	0.404622
	H64	H	0.395403	0.591972	0.114898
	H65	H	0.584308	0.594786	0.883940
	H66	H	0.588966	0.412503	0.115724
	H67	H	0.406599	0.411512	0.888195
	H68	H	0.575863	0.114266	0.411391
	H69	H	0.573358	0.886785	0.590004
	H70	H	0.404838	0.117695	0.589335
	H71	H	0.412947	0.889026	0.412818
	H72	H	0.901408	0.618087	0.084290
	H73	H	0.092609	0.382724	0.088197
	H74	H	0.081256	0.619563	0.906274
	H75	H	0.897084	0.383960	0.908418
	H76	H	0.082006	0.905717	0.612770
	H77	H	0.085480	0.098258	0.381788
	H78	H	0.904944	0.081513	0.607623
	H79	H	0.904454	0.914069	0.385657
	H80	H	0.605465	0.090483	0.912477
	H81	H	0.380784	0.086534	0.084502
	H82	H	0.604057	0.920491	0.088005
	H83	H	0.379131	0.919060	0.902537
	H84	H	0.610601	0.912107	0.098714
	H85	H	0.378486	0.084591	0.094630
	H86	H	0.607517	0.088262	0.904980
	H87	H	0.373797	0.906241	0.902589
	H88	H	0.909592	0.095995	0.612418
	H89	H	0.091481	0.092314	0.381524
	H90	H	0.090785	0.911824	0.614017
	H91	H	0.901918	0.909777	0.383303
	H92	H	0.077902	0.617901	0.910636
	H93	H	0.071386	0.385545	0.101489
	H94	H	0.900845	0.620870	0.091608
	H95	H	0.907404	0.385264	0.906065
	H96	H	0.405510	0.116325	0.589253
	H97	H	0.586192	0.885629	0.581425
	H98	H	0.585186	0.116988	0.413522
	H99	H	0.395447	0.884943	0.417035
	H100	H	0.579832	0.418897	0.110280
	H101	H	0.584879	0.588786	0.885855
	H102	H	0.401770	0.585979	0.110884
	H103	H	0.395990	0.403575	0.882007
	H104	H	0.106392	0.588481	0.407273
	H105	H	0.880590	0.583108	0.588098
	H106	H	0.105244	0.414330	0.589129
	H107	H	0.880716	0.413281	0.416431
	H108	H	0.907433	0.618135	0.088479
	H109	H	0.072972	0.392776	0.077059
	H110	H	0.083389	0.618305	0.911938
	H111	H	0.902784	0.388210	0.915163
	H112	H	0.081965	0.916650	0.609635
	H113	H	0.084240	0.090906	0.384601
	H114	H	0.894948	0.091475	0.614611
	H115	H	0.898572	0.914255	0.384468
	H116	H	0.608826	0.096021	0.907292
	H117	H	0.376465	0.094459	0.090381
	H118	H	0.607962	0.906323	0.085176
	H119	H	0.379728	0.911009	0.913920
	C120	C	0.373253	0.009225	0.619399
	C121	C	0.614631	0.991652	0.620208
	C122	C	0.613047	0.009447	0.378546
	C123	C	0.372077	0.991949	0.377625
	C124	C	0.613619	0.380499	0.008338
	C125	C	0.614319	0.623904	0.990512
	C126	C	0.369866	0.623146	0.007305
	C127	C	0.368266	0.379410	0.991299
	C128	C	0.002107	0.624425	0.375864
	C129	C	0.983583	0.623195	0.620641
	C130	C	-0.000000	0.380609	0.620694
	C131	C	0.983860	0.381733	0.376663
	C132	C	0.870840	0.511922	0.120319
	C133	C	0.111389	0.494140	0.119537
	C134	C	0.112276	0.511633	0.878319
	C135	C	0.870579	0.492870	0.878490
	C136	C	0.115757	0.880285	0.506581
	C137	C	0.116827	0.124421	0.488781
	C138	C	0.871746	0.122022	0.506121
	C139	C	0.870960	0.880146	0.489603
	C140	C	0.501161	0.122660	0.876826
	C141	C	0.484049	0.122211	0.121507
	C142	C	0.501119	0.880035	0.120815
	C143	C	0.484127	0.880275	0.877010
	C144	C	0.372265	0.886278	0.676759
	C145	C	0.617657	0.113537	0.679022
	C146	C	0.615299	0.887358	0.319689
	C147	C	0.370277	0.113692	0.317637
	C148	C	0.673224	0.378334	0.888840
	C149	C	0.673348	0.625729	0.110457
	C150	C	0.310889	0.625210	0.887177
	C151	C	0.309656	0.377522	0.111097
	C152	C	0.880183	0.681260	0.377412
	C153	C	0.105901	0.680348	0.619007
	C154	C	0.879161	0.321253	0.619396
	C155	C	0.105640	0.325007	0.377966
	C156	C	0.879859	0.376871	0.679593
	C157	C	0.104056	0.625360	0.679724
	C158	C	0.881216	0.627095	0.317346
	C159	C	0.103861	0.380001	0.317454
	C160	C	0.370706	0.681474	0.886480
	C161	C	0.613997	0.681917	0.111016
	C162	C	0.612598	0.323419	0.887249
	C163	C	0.369787	0.321058	0.111849
	C164	C	0.671643	0.887178	0.377772
	C165	C	0.674245	0.113914	0.621272
	C166	C	0.314814	0.886652	0.619554
	C167	C	0.315537	0.114978	0.376722
	C168	C	0.868222	0.390200	0.180049
	C169	C	0.114505	0.616731	0.177562
	C170	C	0.114134	0.390057	0.819249
	C171	C	0.867362	0.614591	0.818346
	C172	C	0.174261	0.878941	0.386594
	C173	C	0.174110	0.124274	0.609525
	C174	C	0.811285	0.125347	0.387222
	C175	C	0.810825	0.875751	0.608701
	C176	C	0.379416	0.179045	0.877527
	C177	C	0.604727	0.182052	0.121741
	C178	C	0.379755	0.821730	0.119483
	C179	C	0.605366	0.822513	0.878565
	C180	C	0.381367	0.875391	0.180606
	C181	C	0.603715	0.126253	0.181508
	C182	C	0.380905	0.123198	0.817914
	C183	C	0.604654	0.877293	0.818649
	C184	C	0.871313	0.180984	0.385802
	C185	C	0.114608	0.180955	0.610123
	C186	C	0.114626	0.823135	0.385730
	C187	C	0.871391	0.820507	0.609578
	C188	C	0.170156	0.389344	0.877356
	C189	C	0.171429	0.616200	0.120581
	C190	C	0.812249	0.389454	0.121990
	C191	C	0.812535	0.615277	0.877532
	C192	C	0.398023	0.094878	0.595886
	C193	C	0.589256	0.906751	0.596102
	C194	C	0.588153	0.094166	0.402945
	C195	C	0.396472	0.907089	0.402678
	C196	C	0.589272	0.405465	0.091301
	C197	C	0.590042	0.599115	0.906982
	C198	C	0.393563	0.598450	0.090834
	C199	C	0.391930	0.403780	0.907203
	C200	C	0.086201	0.599538	0.399079
	C201	C	0.899537	0.598421	0.596718
	C202	C	0.084229	0.406377	0.597306
	C203	C	0.899886	0.406197	0.400780
	C204	C	0.895984	0.596885	0.095429
	C205	C	0.086194	0.409200	0.095801
	C206	C	0.087924	0.596638	0.902734
	C207	C	0.895277	0.407842	0.902809
	C208	C	0.091985	0.904490	0.590370
	C209	C	0.093866	0.100883	0.404589
	C210	C	0.896078	0.096887	0.589742
	C211	C	0.894836	0.905520	0.406047
	C212	C	0.585369	0.098651	0.901063
	C213	C	0.400375	0.096196	0.096904
	C214	C	0.585541	0.905600	0.097443
	C215	C	0.399500	0.905006	0.899867
	Zn216	Zn	0.493622	0.000304	0.748090
	Zn217	Zn	0.492765	0.000103	0.250176
	Zn218	Zn	0.743205	0.502260	-0.000273
	Zn219	Zn	0.239440	0.502165	-0.000334
	Zn220	Zn	-0.006609	0.751248	0.497632
	Zn221	Zn	-0.007524	0.251936	0.497857
	Zn222	Zn	-0.008853	0.502424	0.750498
	Zn223	Zn	-0.008323	0.503634	0.247897
	Zn224	Zn	0.492274	0.752722	-0.001195
	Zn225	Zn	0.491966	0.250584	-0.000633
	Zn226	Zn	0.741501	0.001182	0.498478
	Zn227	Zn	0.244972	0.001167	0.498372
	N228	N	0.407799	0.963698	0.676691
	N229	N	0.581271	0.036590	0.678444
	N230	N	0.579561	0.964370	0.319991
	N231	N	0.404957	0.036249	0.318173
	N232	N	0.673955	0.413195	0.964949
	N233	N	0.673728	0.590353	0.034456
	N234	N	0.310329	0.589567	0.963277
	N235	N	0.308598	0.412793	0.035050
	N236	N	0.956142	0.679614	0.413168
	N237	N	0.029962	0.679110	0.582957
	N238	N	0.954984	0.323394	0.583789
	N239	N	0.029965	0.325999	0.414165
	N240	N	0.956244	0.412928	0.680822
	N241	N	0.027095	0.590788	0.680737
	N242	N	0.957971	0.592643	0.315926
	N243	N	0.027151	0.414516	0.316565
	N244	N	0.406737	0.680415	0.961896
	N245	N	0.577875	0.680910	0.035581
	N246	N	0.576241	0.324295	0.962502
	N247	N	0.405449	0.321979	0.036252
	N248	N	0.670373	0.964109	0.413577
	N249	N	0.672679	0.037017	0.585555
	N250	N	0.315242	0.964171	0.584496
	N251	N	0.316412	0.038206	0.413255
	N252	N	0.903682	0.467609	0.179530
	N253	N	0.077860	0.539796	0.177195
	N254	N	0.078738	0.467206	0.819766
	N255	N	0.902940	0.537372	0.818746
	N256	N	0.174958	0.913714	0.462856
	N257	N	0.175802	0.090384	0.532944
	N258	N	0.811498	0.089353	0.463140
	N259	N	0.810749	0.912219	0.533096
	N260	N	0.455277	0.178860	0.913448
	N261	N	0.529304	0.179387	0.084806
	N262	N	0.455415	0.824331	0.083206
	N263	N	0.529382	0.824449	0.914184
	N264	N	0.457896	0.911048	0.181377
	N265	N	0.527649	0.089839	0.181705
	N266	N	0.457892	0.089175	0.817192
	N267	N	0.528298	0.912757	0.817850
	N268	N	0.908515	0.178741	0.460646
	N269	N	0.080011	0.181480	0.534027
	N270	N	0.078893	0.823702	0.461214
	N271	N	0.908099	0.822994	0.534585
	N272	N	0.169073	0.466027	0.913390
	N273	N	0.169682	0.539132	0.085303
	N274	N	0.813826	0.466073	0.085588
	N275	N	0.814333	0.538646	0.914046
	O276	O	0.629690	0.623720	0.409285
	H277	H	0.638121	0.612431	0.415502
	H278	H	0.629800	0.630938	0.431351
	O279	O	0.412454	0.334490	0.701333
	H280	H	0.398120	0.331783	0.715966
	H281	H	0.419748	0.329888	0.703381
	O282	O	0.441616	0.445518	0.660003
	H283	H	0.444651	0.435659	0.674876
	H284	H	0.428551	0.431154	0.660788
	O285	O	1.008539	0.074146	0.059640
	H286	H	1.001165	0.065335	0.064050
	H287	H	1.003011	0.075030	0.054683
	O288	O	-0.057651	-0.101801	0.841506
	H289	H	-0.036124	-0.108314	0.849250
	H290	H	-0.060506	-0.106320	0.833666
	O291	O	0.647291	0.328972	0.324583
	H292	H	0.630565	0.330114	0.329511
	H293	H	0.639176	0.325966	0.338122
	O294	O	0.535921	0.359955	0.502192
	H295	H	0.534339	0.371401	0.520040
	H296	H	0.527890	0.362369	0.529272
	O297	O	0.934090	1.095959	0.995213
	H298	H	0.930291	1.093519	0.998859
	H299	H	0.944641	1.088729	1.010147
	O300	O	0.049721	-0.146901	-0.135083
	H301	H	0.064131	-0.142611	-0.147297
	H302	H	0.054816	-0.159524	-0.129804
	O303	O	0.459674	0.600728	0.484778
	H304	H	0.471195	0.593318	0.470275
	H305	H	0.446693	0.604174	0.478337
	O306	O	0.893052	0.090534	-0.181951
	H307	H	0.882719	0.078947	-0.183893
	H308	H	0.878545	0.105919	-0.199772
	O309	O	0.342179	0.617052	0.372086
	H310	H	0.337470	0.605832	0.361140
	H311	H	0.366680	0.609818	0.367210
	O312	O	0.842672	1.012066	0.081408
	H313	H	0.832328	1.005015	0.093280
	H314	H	0.843114	1.011204	0.077722
	O315	O	0.507229	0.655104	0.378726
	H316	H	0.521549	0.662263	0.370818
	H317	H	0.520209	0.662420	0.371194
	O318	O	0.306447	0.304385	0.662008
	H319	H	0.280862	0.281959	0.667398
	H320	H	0.306235	0.308511	0.654891
	O321	O	1.163369	0.089736	0.873339
	H322	H	1.147138	0.092960	0.876674
	H323	H	1.146295	0.088737	0.895484
	O324	O	0.121422	-0.117219	0.902933
	H325	H	0.128158	-0.114160	0.885457
	H326	H	0.104561	-0.105057	0.916280
	O327	O	0.544833	0.374814	0.612253
	H328	H	0.541581	0.375983	0.618416
	H329	H	0.535555	0.374493	0.614522
	O330	O	0.341771	0.316027	0.490962
	H331	H	0.336075	0.315448	0.489377
	H332	H	0.332593	0.308885	0.492333
	O333	O	1.052143	0.853091	1.061542
	H334	H	1.044166	0.849402	1.059876
	H335	H	1.053271	0.860897	1.050436
	O336	O	0.489105	0.451058	0.306507
	H337	H	0.488165	0.438244	0.307623
	H338	H	0.494445	0.459157	0.306431
	O339	O	0.924935	0.032205	0.949225
	H340	H	0.933883	0.010540	0.947380
	H341	H	0.911856	0.028896	0.936119
	O342	O	0.084172	0.894877	0.934999
	H343	H	0.081803	0.896720	0.949655
	H344	H	0.087920	0.907741	0.945922
	O345	O	0.572901	0.526094	0.500902
	H346	H	0.567097	0.511710	0.504592
	H347	H	0.568502	0.532108	0.504431
	O348	O	0.580501	0.499676	0.295402
	H349	H	0.564911	0.488864	0.298682
	H350	H	0.609806	0.507956	0.284289
	O351	O	0.013204	0.202896	0.201868
	H352	H	0.025871	0.189635	0.198172
	H353	H	0.016220	0.221778	0.217980
	O354	O	1.191867	1.195298	0.070702
	H355	H	1.206596	1.210344	0.072502
	H356	H	1.192846	1.188100	0.090840
	O357	O	-0.161961	1.021099	0.058943
	H358	H	-0.162251	1.025205	0.061026
	H359	H	-0.172019	1.016195	0.058013
	O360	O	0.309269	0.508022	0.517845
	H361	H	0.314650	0.512191	0.529107
	H362	H	0.299618	0.511847	0.523630
	O363	O	0.434721	0.685855	0.431635
	H364	H	0.431603	0.696405	0.413449
	H365	H	0.434001	0.688962	0.422808
	O366	O	0.577700	0.471829	0.418238
	H367	H	0.580784	0.473631	0.421723
	H368	H	0.598967	0.460176	0.411033
	O369	O	0.487801	0.460141	0.649313
	H370	H	0.481225	0.447824	0.645391
	H371	H	0.485902	0.456485	0.652449
	O372	O	0.497975	0.442673	0.617286
	H373	H	0.504598	0.439836	0.612070
	H374	H	0.498518	0.440592	0.622008
	O375	O	0.589376	0.469948	0.496849
	H376	H	0.593866	0.453691	0.498113
	H377	H	0.573416	0.467411	0.509485
	O378	O	0.316579	0.516086	0.384797
	H379	H	0.309416	0.504138	0.404588
	H380	H	0.311135	0.523946	0.364154
	O381	O	0.651278	0.599203	0.606884
	H382	H	0.644838	0.575859	0.605350
	H383	H	0.633374	0.590747	0.601802
	O384	O	-0.203772	1.140705	0.804109
	H385	H	-0.205236	1.113084	0.788172
	H386	H	-0.206184	1.126472	0.825362
	O387	O	0.807874	0.854151	0.155458
	H388	H	0.818984	0.871804	0.148870
	H389	H	0.791818	0.845440	0.147435
	O390	O	0.523952	0.625426	0.660244
	H391	H	0.500290	0.626326	0.652907
	H392	H	0.516507	0.630671	0.669260
	O393	O	1.073972	-0.070382	0.951524
	H394	H	1.084043	-0.079873	0.949823
	H395	H	1.063532	-0.081809	0.951321
	O396	O	0.049233	1.045630	1.164808
	H397	H	0.045827	1.024355	1.161772
	H398	H	0.064383	1.044587	1.176043
	O399	O	0.409135	0.418823	0.357725
	H400	H	0.413229	0.419999	0.349499
	H401	H	0.411118	0.429295	0.359483
	O402	O	1.004645	0.003525	0.859179
	H403	H	1.002667	0.007513	0.863011
	H404	H	1.008398	0.009903	0.842434
	O405	O	-0.133819	-0.027497	-0.032927
	H406	H	-0.123969	-0.019243	-0.028067
	H407	H	-0.137521	-0.029292	-0.032695
	O408	O	0.898735	1.170965	0.944175
	H409	H	0.872471	1.178536	0.952219
	H410	H	0.900911	1.158947	0.931289
	O411	O	1.005863	0.870361	0.134151
	H412	H	0.991177	0.887602	0.116277
	H413	H	1.010514	0.858004	0.151949
	O414	O	-0.087521	0.202229	0.974217
	H415	H	-0.085059	0.200882	0.984811
	H416	H	-0.087062	0.200192	0.994993
	O417	O	1.052101	-0.126202	0.855109
	H418	H	1.067072	-0.121438	0.844756
	H419	H	1.056408	-0.121433	0.864932
	O420	O	0.159096	1.096264	0.181626
	H421	H	0.170084	1.081616	0.185504
	H422	H	0.149141	1.081514	0.186784
	O423	O	1.692515	0.580815	-0.394849
	H424	H	1.698731	0.576957	-0.376418
	H425	H	1.703876	0.573636	-0.404814
	O426	O	0.091363	-0.083586	1.130876
	H427	H	0.083213	-0.088183	1.132425
	H428	H	0.092431	-0.080859	1.122472
	O429	O	0.432604	0.668282	0.637719
	H430	H	0.418276	0.654149	0.632064
	H431	H	0.439434	0.674876	0.642636
