data_Molecule from HDF5

_cell_length_a		16.467382
_cell_length_b		16.551719
_cell_length_c		16.400582
_cell_angle_alpha	90.150382
_cell_angle_beta	89.837817
_cell_angle_gamma	89.954233
_symmetry_space_group_name_H-M	'P 1'
_symmetry_Int_Tables_number		1

loop_
	_symmetry_equiv_pos_as_xyz
	x,y,z

loop_
	_atom_site_label
	_atom_site_type_symbol
	_atom_site_fract_x
	_atom_site_fract_y
	_atom_site_fract_z
	H0	H	0.412259	0.859498	0.715081
	H1	H	0.620913	0.173684	0.712913
	H2	H	0.626898	0.860009	0.266499
	H3	H	0.411693	0.172044	0.271340
	H4	H	0.740106	0.409136	0.833137
	H5	H	0.740639	0.623645	0.148931
	H6	H	0.298387	0.621102	0.833401
	H7	H	0.297353	0.413737	0.150317
	H8	H	0.861207	0.741469	0.381592
	H9	H	0.174608	0.738272	0.597997
	H10	H	0.858398	0.295235	0.596667
	H11	H	0.174225	0.294196	0.386161
	H12	H	0.858852	0.410890	0.713320
	H13	H	0.176379	0.618488	0.710909
	H14	H	0.860729	0.623320	0.267523
	H15	H	0.176447	0.411755	0.271042
	H16	H	0.412525	0.738887	0.834498
	H17	H	0.625863	0.740229	0.148955
	H18	H	0.627017	0.290672	0.835136
	H19	H	0.412504	0.296342	0.150403
	H20	H	0.743068	0.859538	0.382982
	H21	H	0.741834	0.171049	0.601435
	H22	H	0.293203	0.860141	0.599978
	H23	H	0.295909	0.172858	0.388658
	H24	H	0.915826	0.358281	0.208687
	H25	H	0.122165	0.674195	0.213377
	H26	H	0.119689	0.357047	0.773411
	H27	H	0.914959	0.674222	0.770691
	H28	H	0.240368	0.908601	0.334301
	H29	H	0.233607	0.118115	0.651337
	H30	H	0.798110	0.115796	0.332980
	H31	H	0.795557	0.910028	0.651518
	H32	H	0.359234	0.233800	0.892443
	H33	H	0.675487	0.237499	0.098446
	H34	H	0.360962	0.793142	0.100260
	H35	H	0.674760	0.793421	0.884156
	H36	H	0.359715	0.911372	0.214568
	H37	H	0.676645	0.117691	0.210861
	H38	H	0.358257	0.114835	0.777259
	H39	H	0.676156	0.911660	0.770994
	H40	H	0.911953	0.234739	0.333170
	H41	H	0.119263	0.236165	0.649429
	H42	H	0.125580	0.791610	0.334499
	H43	H	0.908823	0.791523	0.650350
	H44	H	0.237491	0.358430	0.889103
	H45	H	0.238131	0.674695	0.096238
	H46	H	0.796810	0.359866	0.094598
	H47	H	0.795298	0.673878	0.883544
	H48	H	0.422489	0.130478	0.584914
	H49	H	0.600177	0.904712	0.584412
	H50	H	0.607297	0.127526	0.400606
	H51	H	0.427324	0.904322	0.408706
	H52	H	0.610137	0.431389	0.104265
	H53	H	0.607963	0.603182	0.878425
	H54	H	0.426285	0.604024	0.105797
	H55	H	0.432164	0.422724	0.879300
	H56	H	0.126159	0.604405	0.410920
	H57	H	0.906058	0.601404	0.579552
	H58	H	0.131812	0.415650	0.577664
	H59	H	0.903890	0.429019	0.395151
	H60	H	0.125814	0.430963	0.575498
	H61	H	0.904693	0.604890	0.582211
	H62	H	0.127526	0.597238	0.401309
	H63	H	0.901148	0.419006	0.400561
	H64	H	0.432111	0.605860	0.103964
	H65	H	0.602841	0.602836	0.880432
	H66	H	0.601482	0.429945	0.101814
	H67	H	0.426293	0.423762	0.876995
	H68	H	0.601214	0.123513	0.406490
	H69	H	0.606095	0.906469	0.574059
	H70	H	0.426877	0.129252	0.586432
	H71	H	0.427087	0.902573	0.401567
	H72	H	0.931682	0.626687	0.075598
	H73	H	0.108569	0.402275	0.088002
	H74	H	0.112496	0.630544	0.901100
	H75	H	0.917379	0.401894	0.906100
	H76	H	0.103696	0.924411	0.604921
	H77	H	0.105428	0.106354	0.378187
	H78	H	0.930398	0.107930	0.605769
	H79	H	0.934243	0.921531	0.379624
	H80	H	0.629433	0.103032	0.905879
	H81	H	0.409104	0.097357	0.078464
	H82	H	0.626603	0.933877	0.075812
	H83	H	0.404817	0.924113	0.906812
	H84	H	0.631410	0.929114	0.086101
	H85	H	0.399678	0.107857	0.094488
	H86	H	0.633054	0.103702	0.899730
	H87	H	0.406339	0.929565	0.907018
	H88	H	0.924935	0.107145	0.607272
	H89	H	0.108748	0.105290	0.375829
	H90	H	0.106893	0.928732	0.604956
	H91	H	0.924571	0.929992	0.378851
	H92	H	0.106486	0.630507	0.897791
	H93	H	0.104251	0.406462	0.077733
	H94	H	0.926436	0.629228	0.078146
	H95	H	0.932013	0.402275	0.891481
	H96	H	0.425372	0.128139	0.582509
	H97	H	0.611403	0.901208	0.583084
	H98	H	0.609426	0.125943	0.409733
	H99	H	0.433048	0.905423	0.404696
	H100	H	0.606152	0.423480	0.105942
	H101	H	0.604648	0.607356	0.879126
	H102	H	0.428442	0.609793	0.106761
	H103	H	0.429292	0.428697	0.878571
	H104	H	0.131685	0.608971	0.401119
	H105	H	0.905297	0.605493	0.577727
	H106	H	0.133040	0.425974	0.590274
	H107	H	0.906135	0.427810	0.406969
	H108	H	0.931692	0.628882	0.081445
	H109	H	0.115356	0.402478	0.077778
	H110	H	0.106772	0.627308	0.904142
	H111	H	0.935845	0.409371	0.910193
	H112	H	0.101680	0.929340	0.603577
	H113	H	0.106305	0.102087	0.377652
	H114	H	0.928159	0.103023	0.605564
	H115	H	0.935615	0.933217	0.384774
	H116	H	0.632290	0.108615	0.904123
	H117	H	0.402942	0.117006	0.075787
	H118	H	0.631256	0.922177	0.075983
	H119	H	0.404474	0.927607	0.901910
	C120	C	0.393981	0.024984	0.615685
	C121	C	0.638870	1.007256	0.613542
	C122	C	0.639510	0.023198	0.371367
	C123	C	0.396351	1.007570	0.372344
	C124	C	0.639103	0.394941	-0.000287
	C125	C	0.639147	0.638035	0.982964
	C126	C	0.397089	0.638214	0.000598
	C127	C	0.397243	0.394969	0.983427
	C128	C	0.025381	0.637231	0.370396
	C129	C	1.009394	0.636230	0.612407
	C130	C	0.025467	0.393447	0.613044
	C131	C	1.008382	0.393499	0.369175
	C132	C	0.897284	0.524935	0.111339
	C133	C	0.140739	0.507877	0.113649
	C134	C	0.139526	0.524630	0.870111
	C135	C	0.896211	0.508202	0.869281
	C136	C	0.138486	0.894033	0.500443
	C137	C	0.137038	0.136177	0.482738
	C138	C	0.895740	0.136533	0.500675
	C139	C	0.896882	0.894280	0.484721
	C140	C	0.526542	0.136494	0.872422
	C141	C	0.508594	0.137959	0.114462
	C142	C	0.526038	0.895345	0.113127
	C143	C	0.509288	0.894632	0.871358
	C144	C	0.392974	0.906546	0.675257
	C145	C	0.640291	0.125877	0.673605
	C146	C	0.643848	0.906466	0.308112
	C147	C	0.393735	0.125299	0.312130
	C148	C	0.700090	0.391436	0.880850
	C149	C	0.700626	0.641378	0.101311
	C150	C	0.337814	0.639948	0.881172
	C151	C	0.337289	0.394579	0.102732
	C152	C	0.908080	0.700040	0.365336
	C153	C	0.127776	0.697086	0.615679
	C154	C	0.906054	0.334865	0.615112
	C155	C	0.127203	0.333932	0.367536
	C156	C	0.906328	0.392537	0.673029
	C157	C	0.128723	0.637702	0.671742
	C158	C	0.907624	0.641088	0.308390
	C159	C	0.128083	0.392492	0.310300
	C160	C	0.394731	0.698295	0.881643
	C161	C	0.643206	0.699409	0.101428
	C162	C	0.643867	0.332132	0.882059
	C163	C	0.394528	0.336185	0.102894
	C164	C	0.701860	0.906342	0.366103
	C165	C	0.700643	0.124656	0.618106
	C166	C	0.333620	0.906949	0.618267
	C167	C	0.335590	0.125455	0.370007
	C168	C	0.896273	0.406085	0.170123
	C169	C	0.141394	0.626900	0.173519
	C170	C	0.139394	0.405009	0.812321
	C171	C	0.895316	0.626806	0.810023
	C172	C	0.200273	0.890781	0.381892
	C173	C	0.194700	0.137321	0.603160
	C174	C	0.837002	0.136244	0.380796
	C175	C	0.835286	0.891164	0.603545
	C176	C	0.406591	0.194219	0.872780
	C177	C	0.628339	0.196802	0.116387
	C178	C	0.407821	0.834113	0.117435
	C179	C	0.627727	0.834186	0.867240
	C180	C	0.407342	0.892548	0.174620
	C181	C	0.628640	0.137517	0.172564
	C182	C	0.406100	0.135274	0.815671
	C183	C	0.628275	0.892714	0.810527
	C184	C	0.893728	0.194904	0.380868
	C185	C	0.137756	0.195699	0.602370
	C186	C	0.142777	0.832590	0.381971
	C187	C	0.892131	0.832561	0.603259
	C188	C	0.198143	0.405608	0.869691
	C189	C	0.199082	0.627182	0.115130
	C190	C	0.836985	0.406925	0.113444
	C191	C	0.835593	0.626502	0.866159
	C192	C	0.418010	0.107609	0.591454
	C193	C	0.613248	0.925359	0.587721
	C194	C	0.613415	0.104658	0.398024
	C195	C	0.421982	0.925369	0.397872
	C196	C	0.613275	0.420888	0.082539
	C197	C	0.612756	0.611883	0.900719
	C198	C	0.421911	0.613643	0.083957
	C199	C	0.422301	0.418396	0.899914
	C200	C	0.107159	0.611074	0.396905
	C201	C	0.926957	0.611180	0.587080
	C202	C	0.108588	0.417362	0.588190
	C203	C	0.925365	0.418306	0.393914
	C204	C	0.922726	0.606923	0.085885
	C205	C	0.116351	0.425433	0.088579
	C206	C	0.115572	0.607751	0.894242
	C207	C	0.921169	0.425918	0.895173
	C208	C	0.111840	0.919879	0.582993
	C209	C	0.113439	0.111572	0.398937
	C210	C	0.920464	0.112690	0.584508
	C211	C	0.923761	0.920566	0.402494
	C212	C	0.609990	0.112257	0.896346
	C213	C	0.425666	0.114369	0.090053
	C214	C	0.608186	0.920995	0.086786
	C215	C	0.426698	0.919905	0.897649
	Zn216	Zn	0.517938	0.015688	0.742883
	Zn217	Zn	0.517711	0.015729	0.242308
	Zn218	Zn	0.767528	0.516640	-0.009400
	Zn219	Zn	0.268753	0.516844	-0.008865
	Zn220	Zn	0.017224	0.765990	0.492442
	Zn221	Zn	0.016517	0.265044	0.491198
	Zn222	Zn	0.018021	0.515447	0.741111
	Zn223	Zn	0.017791	0.515936	0.241365
	Zn224	Zn	0.517895	0.766458	-0.007628
	Zn225	Zn	0.518278	0.266231	-0.007185
	Zn226	Zn	0.768184	0.014912	0.492707
	Zn227	Zn	0.266045	0.016090	0.492843
	N228	N	0.429726	0.980868	0.673882
	N229	N	0.602572	0.051948	0.670984
	N230	N	0.605467	0.980128	0.311359
	N231	N	0.430703	0.050745	0.313191
	N232	N	0.697237	0.429854	0.955116
	N233	N	0.698160	0.603780	0.026601
	N234	N	0.339219	0.603268	0.956144
	N235	N	0.338964	0.430478	0.027432
	N236	N	0.982544	0.697950	0.403070
	N237	N	0.052621	0.696475	0.579644
	N238	N	0.981140	0.335025	0.578556
	N239	N	0.051606	0.334280	0.403134
	N240	N	0.981764	0.428125	0.671989
	N241	N	0.054097	0.600749	0.669949
	N242	N	0.981699	0.602976	0.311239
	N243	N	0.053079	0.428801	0.311096
	N244	N	0.430714	0.697444	0.957141
	N245	N	0.605802	0.697526	0.026868
	N246	N	0.606550	0.334262	0.957085
	N247	N	0.431388	0.336447	0.027676
	N248	N	0.699067	0.979748	0.404955
	N249	N	0.699783	0.049876	0.581462
	N250	N	0.333970	0.981651	0.582226
	N251	N	0.337205	0.051058	0.406751
	N252	N	0.932858	0.480683	0.169063
	N253	N	0.105823	0.551766	0.172849
	N254	N	0.104037	0.480038	0.812137
	N255	N	0.931952	0.552264	0.811769
	N256	N	0.197758	0.928128	0.456767
	N257	N	0.194416	0.100979	0.527777
	N258	N	0.837963	0.101223	0.456595
	N259	N	0.838311	0.928752	0.528995
	N260	N	0.482654	0.195157	0.906883
	N261	N	0.552755	0.197729	0.081311
	N262	N	0.482602	0.835760	0.080071
	N263	N	0.552762	0.835130	0.904097
	N264	N	0.481678	0.929981	0.171947
	N265	N	0.553229	0.102061	0.171843
	N266	N	0.481724	0.100153	0.815274
	N267	N	0.553376	0.929582	0.812863
	N268	N	0.929298	0.195260	0.456600
	N269	N	0.102890	0.195229	0.526403
	N270	N	0.105050	0.834628	0.456802
	N271	N	0.929478	0.834045	0.528146
	N272	N	0.198392	0.481146	0.904612
	N273	N	0.199064	0.552215	0.079100
	N274	N	0.837053	0.481925	0.078015
	N275	N	0.835628	0.551340	0.901964
	O276	O	0.575723	0.670984	0.519713
	H277	H	0.585229	0.667263	0.506067
	H278	H	0.576845	0.659636	0.513421
	O279	O	0.519447	0.525467	0.290388
	H280	H	0.515227	0.515955	0.296856
	H281	H	0.517926	0.522557	0.284234
	O282	O	1.679014	1.529543	0.435608
	H283	H	1.677574	1.518810	0.417789
	H284	H	1.674883	1.538031	0.440801
	O285	O	0.861957	-0.989087	0.178918
	H286	H	0.870692	-0.970103	0.176666
	H287	H	0.855455	-0.969572	0.172873
	O288	O	0.143009	0.003649	0.204070
	H289	H	0.120845	-0.012153	0.201886
	H290	H	0.133842	0.000396	0.218134
	O291	O	0.882567	0.881886	-0.123937
	H292	H	0.906393	0.876922	-0.154411
	H293	H	0.899560	0.879334	-0.119768
	O294	O	0.094550	1.026433	-0.006886
	H295	H	0.087861	1.016940	0.000471
	H296	H	0.101135	1.035704	-0.011524
	O297	O	0.680394	0.408761	0.617806
	H298	H	0.689582	0.413835	0.638958
	H299	H	0.681560	0.412916	0.610877
	O300	O	0.042272	-0.013329	0.979666
	H301	H	0.031386	-0.022567	0.981732
	H302	H	0.056802	-0.009872	0.962281
	O303	O	-0.057386	0.017176	1.029888
	H304	H	-0.048434	0.007021	1.018304
	H305	H	-0.052246	0.024991	1.032813
	O306	O	-0.183919	1.216705	0.863986
	H307	H	-0.181135	1.215435	0.890747
	H308	H	-0.185078	1.203527	0.878896
	O309	O	0.084664	-0.086453	0.033389
	H310	H	0.071994	-0.090973	0.021389
	H311	H	0.078026	-0.096229	0.034416
	O312	O	-0.262967	0.291494	0.461670
	H313	H	-0.240402	0.264714	0.464622
	H314	H	-0.263451	0.302030	0.469776
	O315	O	0.209981	0.215981	1.020321
	H316	H	0.202871	0.213203	1.004347
	H317	H	0.210722	0.217721	1.004831
	O318	O	0.485452	1.312184	-0.297081
	H319	H	0.497047	1.311453	-0.299508
	H320	H	0.505752	1.308523	-0.280529
	O321	O	0.572253	0.489663	0.686625
	H322	H	0.586728	0.484972	0.683231
	H323	H	0.586864	0.500885	0.693945
	O324	O	0.501705	0.727680	0.288294
	H325	H	0.510731	0.736212	0.282002
	H326	H	0.499732	0.736682	0.294893
	O327	O	0.074796	0.980538	1.926033
	H328	H	0.083941	0.972271	1.910756
	H329	H	0.072072	0.994771	1.918752
	O330	O	0.510647	-0.688937	-0.446418
	H331	H	0.525496	-0.690660	-0.452939
	H332	H	0.508496	-0.693423	-0.470884
	O333	O	1.042460	0.801458	0.778009
	H334	H	1.070681	0.793225	0.774974
	H335	H	1.062355	0.787654	0.761771
	O336	O	1.310664	-0.267775	1.284998
	H337	H	1.330867	-0.266913	1.274312
	H338	H	1.312833	-0.291774	1.267425
	O339	O	1.311305	0.333362	1.466391
	H340	H	1.294913	0.328642	1.467218
	H341	H	1.318882	0.345800	1.460775
	O342	O	0.484392	0.358538	0.416835
	H343	H	0.488002	0.348368	0.409814
	H344	H	0.479891	0.363498	0.425619
	O345	O	0.381184	0.305535	0.332950
	H346	H	0.370893	0.285365	0.323769
	H347	H	0.384243	0.308345	0.336548
	O348	O	1.355712	0.550982	1.380039
	H349	H	1.342508	0.541975	1.383531
	H350	H	1.342145	0.547444	1.378696
	O351	O	0.731389	0.483095	-0.720025
	H352	H	0.756327	0.488905	-0.740406
	H353	H	0.700777	0.496381	-0.723308
	O354	O	-0.104010	1.054176	0.793543
	H355	H	-0.090735	1.056035	0.784216
	H356	H	-0.097937	1.051700	0.790051
	O357	O	0.990425	1.229823	0.934552
	H358	H	0.991948	1.249377	0.926960
	H359	H	0.973780	1.224515	0.958854
	O360	O	0.300968	0.733602	0.468601
	H361	H	0.298377	0.739919	0.443810
	H362	H	0.284844	0.744417	0.452253
	O363	O	0.302081	0.484944	0.707202
	H364	H	0.309187	0.464371	0.710109
	H365	H	0.285792	0.471479	0.725586
	O366	O	0.845748	0.144004	0.916031
	H367	H	0.841541	0.136911	0.906721
	H368	H	0.839187	0.127705	0.925183
	O369	O	0.358411	0.323008	0.664505
	H370	H	0.359758	0.314783	0.653286
	H371	H	0.373756	0.329632	0.655360
	O372	O	0.722068	0.312906	0.290130
	H373	H	0.708430	0.347122	0.286230
	H374	H	0.723016	0.316992	0.328367
	O375	O	0.010664	0.893506	1.162260
	H376	H	-0.002256	0.885419	1.149308
	H377	H	-0.002793	0.898547	1.170905
	O378	O	0.651852	0.684466	0.432617
	H379	H	0.628944	0.674942	0.436313
	H380	H	0.659539	0.682371	0.429112
	O381	O	0.830204	-0.130712	0.180936
	H382	H	0.828307	-0.130067	0.146756
	H383	H	0.823771	-0.093012	0.174675
	O384	O	0.007927	0.024548	0.858043
	H385	H	0.010745	0.021325	0.861937
	H386	H	-0.000922	0.020609	0.850578
	O387	O	0.217903	0.990989	0.790618
	H388	H	0.220438	0.990355	0.780086
	H389	H	0.225472	0.965676	0.782786
	O390	O	-0.178086	-0.165883	0.965509
	H391	H	-0.194517	-0.190072	0.952165
	H392	H	-0.156677	-0.158504	0.940502
	O393	O	0.967045	1.226880	0.116649
	H394	H	0.962982	1.235459	0.133777
	H395	H	0.993742	1.235598	0.133900
	O396	O	-0.116336	0.010884	1.026162
	H397	H	-0.112529	0.030874	1.028469
	H398	H	-0.114379	0.004217	1.007087
	O399	O	0.064250	1.209737	-0.176190
	H400	H	0.061780	1.211726	-0.188641
	H401	H	0.055104	1.226548	-0.170453
	O402	O	-0.541921	-0.427327	0.701853
	H403	H	-0.549125	-0.449151	0.703869
	H404	H	-0.527874	-0.434144	0.706286
	O405	O	-0.153684	0.200209	0.153039
	H406	H	-0.122557	0.189222	0.150421
	H407	H	-0.171617	0.226125	0.183277
	O408	O	0.304893	0.547697	0.511495
	H409	H	0.309315	0.565487	0.522994
	H410	H	0.301030	0.557089	0.511730
	O411	O	0.345545	0.405019	0.408566
	H412	H	0.343444	0.396464	0.401831
	H413	H	0.360398	0.410802	0.413791
	O414	O	0.554060	0.294978	0.276205
	H415	H	0.568085	0.304721	0.274605
	H416	H	0.558059	0.269811	0.255425
	O417	O	0.535044	0.459410	0.427136
	H418	H	0.522216	0.466307	0.432421
	H419	H	0.519489	0.453688	0.425307
	O420	O	0.722882	0.722995	0.586132
	H421	H	0.699166	0.723440	0.564951
	H422	H	0.735957	0.742105	0.576413
	O423	O	-0.642069	0.465815	0.283017
	H424	H	-0.657696	0.464936	0.275189
	H425	H	-0.635198	0.455602	0.282754
	O426	O	1.170613	0.890090	1.062837
	H427	H	1.162054	0.899396	1.073652
	H428	H	1.161245	0.904946	1.069062
	O429	O	0.600148	0.478741	0.678882
	H430	H	0.616882	0.483726	0.683399
	H431	H	0.607069	0.492062	0.685575
	O432	O	1.140891	0.214652	1.186822
	H433	H	1.155615	0.210951	1.156460
	H434	H	1.150739	0.195708	1.189989
	O435	O	0.118832	0.020544	0.036470
	H436	H	0.116570	0.009884	0.028643
	H437	H	0.133072	0.005856	0.037975
	O438	O	1.221602	-0.192550	-0.033382
	H439	H	1.223154	-0.190291	-0.013354
	H440	H	1.233602	-0.194308	-0.017984
	O441	O	0.210388	0.247658	0.797873
	H442	H	0.225022	0.239267	0.791497
	H443	H	0.209618	0.256253	0.775225
	O444	O	0.364562	0.715184	0.647708
	H445	H	0.377208	0.702191	0.635768
	H446	H	0.368499	0.699236	0.619537
	O447	O	0.626644	0.508543	0.501983
	H448	H	0.623542	0.509254	0.516935
	H449	H	0.630906	0.520943	0.491577
	O450	O	0.633476	0.634971	0.308568
	H451	H	0.627480	0.643773	0.317220
	H452	H	0.625817	0.633243	0.294097
	O453	O	0.539754	0.727907	0.695026
	H454	H	0.529744	0.741328	0.696266
	H455	H	0.531350	0.718605	0.705134
	O456	O	0.718450	-0.371473	-0.309712
	H457	H	0.707942	-0.351409	-0.332017
	H458	H	0.725229	-0.361790	-0.305687
	O459	O	0.458991	0.745082	0.452799
	H460	H	0.462630	0.736616	0.459994
	H461	H	0.444350	0.756797	0.453803
	O462	O	-0.012194	0.862230	0.149733
	H463	H	-0.033673	0.865205	0.152146
	H464	H	-0.028562	0.836843	0.159361
	O465	O	1.214530	-0.182215	-0.207802
	H466	H	1.223674	-0.188676	-0.158500
	H467	H	1.244762	-0.190994	-0.230751
