data_Molecule from HDF5

_cell_length_a		16.222987
_cell_length_b		16.045778
_cell_length_c		16.267483
_cell_angle_alpha	90.467810
_cell_angle_beta	89.706211
_cell_angle_gamma	88.863497
_symmetry_space_group_name_H-M	'P 1'
_symmetry_Int_Tables_number		1

loop_
	_symmetry_equiv_pos_as_xyz
	x,y,z

loop_
	_atom_site_label
	_atom_site_type_symbol
	_atom_site_fract_x
	_atom_site_fract_y
	_atom_site_fract_z
	H0	H	0.405262	0.838371	0.710189
	H1	H	0.598676	0.168405	0.712449
	H2	H	0.605010	0.837709	0.283583
	H3	H	0.401591	0.168744	0.283311
	H4	H	0.726233	0.398510	0.835633
	H5	H	0.714617	0.601554	0.162500
	H6	H	0.287316	0.604132	0.834551
	H7	H	0.290634	0.405908	0.160909
	H8	H	0.838352	0.717901	0.407268
	H9	H	0.169120	0.716307	0.597067
	H10	H	0.837937	0.297962	0.595876
	H11	H	0.167713	0.286613	0.399230
	H12	H	0.840467	0.409605	0.715168
	H13	H	0.167462	0.603635	0.714996
	H14	H	0.840550	0.608846	0.285025
	H15	H	0.167797	0.399940	0.281955
	H16	H	0.406005	0.716717	0.832569
	H17	H	0.596509	0.714996	0.162447
	H18	H	0.607006	0.286689	0.833685
	H19	H	0.411979	0.295692	0.162586
	H20	H	0.722134	0.839268	0.394750
	H21	H	0.710220	0.171173	0.595165
	H22	H	0.292932	0.838034	0.592544
	H23	H	0.287192	0.169482	0.398888
	H24	H	0.909420	0.338499	0.211563
	H25	H	0.100164	0.670299	0.212012
	H26	H	0.108211	0.339498	0.781418
	H27	H	0.901803	0.670393	0.789497
	H28	H	0.220022	0.901640	0.332647
	H29	H	0.217137	0.106410	0.659407
	H30	H	0.787033	0.106119	0.332846
	H31	H	0.788766	0.909982	0.660273
	H32	H	0.341412	0.221627	0.900851
	H33	H	0.671622	0.210588	0.092618
	H34	H	0.338457	0.797106	0.091209
	H35	H	0.668865	0.784799	0.896514
	H36	H	0.341268	0.904917	0.212731
	H37	H	0.668395	0.100717	0.212784
	H38	H	0.340240	0.107312	0.784257
	H39	H	0.667432	0.897617	0.777454
	H40	H	0.903666	0.221445	0.333490
	H41	H	0.095916	0.215726	0.662869
	H42	H	0.103766	0.786034	0.333640
	H43	H	0.908805	0.799224	0.663912
	H44	H	0.222451	0.338422	0.896462
	H45	H	0.213110	0.670597	0.095597
	H46	H	0.796937	0.337234	0.097182
	H47	H	0.789098	0.668763	0.904534
	H48	H	0.408327	0.119452	0.580328
	H49	H	0.593123	0.888566	0.579356
	H50	H	0.586248	0.123296	0.395099
	H51	H	0.417725	0.881649	0.389123
	H52	H	0.593061	0.411686	0.112864
	H53	H	0.589547	0.594010	0.882391
	H54	H	0.411156	0.606167	0.115504
	H55	H	0.415378	0.422107	0.883320
	H56	H	0.120632	0.590921	0.404611
	H57	H	0.886834	0.603556	0.590487
	H58	H	0.122195	0.405698	0.587915
	H59	H	0.885889	0.415766	0.402663
	H60	H	0.118230	0.416604	0.587451
	H61	H	0.886961	0.597837	0.598311
	H62	H	0.122861	0.596102	0.402210
	H63	H	0.886004	0.414663	0.404710
	H64	H	0.400654	0.599245	0.116838
	H65	H	0.604588	0.600582	0.875686
	H66	H	0.602520	0.398500	0.118597
	H67	H	0.422881	0.406988	0.881389
	H68	H	0.590785	0.119724	0.412752
	H69	H	0.606536	0.883051	0.585348
	H70	H	0.399492	0.127036	0.595093
	H71	H	0.421483	0.890439	0.412343
	H72	H	0.902238	0.625528	0.095816
	H73	H	0.102958	0.386816	0.082191
	H74	H	0.096330	0.623847	0.905287
	H75	H	0.921571	0.383611	0.896624
	H76	H	0.100367	0.910850	0.615219
	H77	H	0.094640	0.095461	0.379948
	H78	H	0.906544	0.105483	0.615216
	H79	H	0.913662	0.912315	0.380524
	H80	H	0.618971	0.095619	0.913314
	H81	H	0.390089	0.101177	0.080843
	H82	H	0.621167	0.915514	0.093158
	H83	H	0.393190	0.923642	0.911672
	H84	H	0.625488	0.901036	0.092966
	H85	H	0.389118	0.089858	0.095598
	H86	H	0.620068	0.079258	0.898359
	H87	H	0.383422	0.915867	0.888128
	H88	H	0.900814	0.101176	0.615623
	H89	H	0.095832	0.094366	0.380180
	H90	H	0.098526	0.915870	0.613230
	H91	H	0.911685	0.908459	0.378826
	H92	H	0.091743	0.621792	0.907029
	H93	H	0.106906	0.381146	0.097214
	H94	H	0.912913	0.622738	0.096589
	H95	H	0.924341	0.389331	0.913281
	H96	H	0.417259	0.121830	0.596912
	H97	H	0.594241	0.884091	0.594079
	H98	H	0.602936	0.126940	0.401694
	H99	H	0.399756	0.881470	0.405832
	H100	H	0.609536	0.413338	0.116371
	H101	H	0.604510	0.583163	0.881750
	H102	H	0.411852	0.593981	0.111924
	H103	H	0.406255	0.408932	0.876819
	H104	H	0.121536	0.595758	0.408089
	H105	H	0.883968	0.607228	0.599029
	H106	H	0.122371	0.412467	0.596567
	H107	H	0.886910	0.416081	0.404879
	H108	H	0.908504	0.622419	0.087734
	H109	H	0.090465	0.387133	0.093129
	H110	H	0.096314	0.622132	0.910369
	H111	H	0.907091	0.382768	0.908156
	H112	H	0.096095	0.911184	0.613200
	H113	H	0.093480	0.094739	0.380048
	H114	H	0.907195	0.097634	0.612491
	H115	H	0.909546	0.912795	0.379210
	H116	H	0.628067	0.099532	0.893530
	H117	H	0.383989	0.107907	0.096532
	H118	H	0.620039	0.907380	0.081125
	H119	H	0.384378	0.897640	0.908209
	C120	C	0.381221	0.012874	0.618532
	C121	C	0.623360	0.995118	0.616036
	C122	C	0.624758	0.013350	0.374376
	C123	C	0.382526	0.994280	0.374716
	C124	C	0.630893	0.378676	0.007439
	C125	C	0.625318	0.622309	0.989120
	C126	C	0.380103	0.627339	0.006331
	C127	C	0.385838	0.384299	0.988915
	C128	C	0.013127	0.625317	0.378042
	C129	C	0.995198	0.629055	0.623121
	C130	C	0.012314	0.384985	0.619520
	C131	C	0.994822	0.382999	0.375448
	C132	C	0.882848	0.513243	0.120933
	C133	C	0.126257	0.494976	0.119331
	C134	C	0.126157	0.513278	0.876993
	C135	C	0.885350	0.494778	0.878872
	C136	C	0.127342	0.881559	0.505623
	C137	C	0.122568	0.124699	0.488425
	C138	C	0.877925	0.129828	0.505820
	C139	C	0.883039	0.885008	0.488722
	C140	C	0.513560	0.124182	0.874979
	C141	C	0.496616	0.125258	0.118843
	C142	C	0.513307	0.882337	0.117319
	C143	C	0.495482	0.880424	0.872959
	C144	C	0.385010	0.887892	0.672660
	C145	C	0.619402	0.119437	0.673360
	C146	C	0.625091	0.887816	0.319974
	C147	C	0.382434	0.119105	0.320442
	C148	C	0.687547	0.379141	0.884222
	C149	C	0.677359	0.620668	0.113407
	C150	C	0.325325	0.624504	0.883026
	C151	C	0.329556	0.386388	0.112187
	C152	C	0.888093	0.681182	0.384078
	C153	C	0.119561	0.680499	0.618500
	C154	C	0.887764	0.333837	0.616566
	C155	C	0.118704	0.325199	0.378613
	C156	C	0.889080	0.388962	0.676286
	C157	C	0.118655	0.624497	0.677167
	C158	C	0.889329	0.626739	0.323593
	C159	C	0.118701	0.381475	0.320118
	C160	C	0.384300	0.680512	0.882157
	C161	C	0.619070	0.677774	0.113087
	C162	C	0.628219	0.323728	0.883268
	C163	C	0.389775	0.331464	0.113042
	C164	C	0.683208	0.888720	0.375295
	C165	C	0.674491	0.120924	0.614894
	C166	C	0.328983	0.887670	0.614211
	C167	C	0.325543	0.119695	0.377613
	C168	C	0.888731	0.388043	0.174372
	C169	C	0.120915	0.620751	0.174310
	C170	C	0.127289	0.388767	0.819834
	C171	C	0.883730	0.620307	0.826357
	C172	C	0.182430	0.881717	0.382025
	C173	C	0.178614	0.124881	0.611156
	C174	C	0.824361	0.126685	0.382118
	C175	C	0.827395	0.889465	0.611939
	C176	C	0.390259	0.182974	0.879520
	C177	C	0.621479	0.175691	0.114367
	C178	C	0.388473	0.831670	0.113181
	C179	C	0.619515	0.823103	0.875522
	C180	C	0.389918	0.885565	0.173426
	C181	C	0.620029	0.120752	0.173984
	C182	C	0.389678	0.125999	0.821497
	C183	C	0.618691	0.879101	0.816280
	C184	C	0.882299	0.184067	0.382505
	C185	C	0.118366	0.179601	0.612875
	C186	C	0.124530	0.824399	0.382511
	C187	C	0.887099	0.834102	0.613582
	C188	C	0.184208	0.388324	0.877097
	C189	C	0.177363	0.620776	0.116570
	C190	C	0.832457	0.387372	0.117587
	C191	C	0.827044	0.619374	0.882926
	C192	C	0.401975	0.100141	0.597159
	C193	C	0.603782	0.907799	0.592914
	C194	C	0.600449	0.100705	0.396703
	C195	C	0.405974	0.907036	0.396005
	C196	C	0.608442	0.401193	0.093744
	C197	C	0.605507	0.599247	0.902541
	C198	C	0.401597	0.606335	0.092467
	C199	C	0.408238	0.406196	0.902912
	C200	C	0.099380	0.601398	0.398716
	C201	C	0.908467	0.608874	0.602248
	C202	C	0.098747	0.405367	0.597220
	C203	C	0.908741	0.407898	0.397675
	C204	C	0.902160	0.600826	0.099725
	C205	C	0.106255	0.407797	0.097301
	C206	C	0.101686	0.600073	0.900548
	C207	C	0.910419	0.407577	0.899880
	C208	C	0.104862	0.905601	0.591811
	C209	C	0.100883	0.101605	0.402364
	C210	C	0.898615	0.107969	0.592200
	C211	C	0.905145	0.905261	0.401840
	C212	C	0.600073	0.098817	0.895624
	C213	C	0.410112	0.105545	0.097325
	C214	C	0.599939	0.902235	0.095480
	C215	C	0.409285	0.904994	0.895846
	Zn216	Zn	0.503519	0.003350	0.745599
	Zn217	Zn	0.504560	0.003255	0.247164
	Zn218	Zn	0.756718	0.501677	-0.001263
	Zn219	Zn	0.253907	0.504059	-0.002007
	Zn220	Zn	0.004601	0.754853	0.499073
	Zn221	Zn	0.002630	0.255817	0.498127
	Zn222	Zn	0.004512	0.505719	0.749796
	Zn223	Zn	0.004690	0.504689	0.247540
	Zn224	Zn	0.503883	0.753197	-0.003665
	Zn225	Zn	0.506468	0.253288	-0.002442
	Zn226	Zn	0.751901	0.005637	0.496026
	Zn227	Zn	0.254255	0.004441	0.496162
	N228	N	0.416628	0.966856	0.675529
	N229	N	0.588259	0.040386	0.674203
	N230	N	0.589445	0.966341	0.319326
	N231	N	0.417288	0.040210	0.318452
	N232	N	0.689510	0.412574	0.962518
	N233	N	0.681439	0.586968	0.035257
	N234	N	0.322609	0.592266	0.961084
	N235	N	0.327083	0.418456	0.033874
	N236	N	0.966027	0.680551	0.417213
	N237	N	0.041630	0.683589	0.585773
	N238	N	0.965335	0.331216	0.581819
	N239	N	0.040687	0.326008	0.412265
	N240	N	0.967604	0.419762	0.678432
	N241	N	0.040330	0.593317	0.680186
	N242	N	0.967833	0.592568	0.319776
	N243	N	0.040794	0.416770	0.318002
	N244	N	0.417874	0.682319	0.959636
	N245	N	0.587474	0.678954	0.034821
	N246	N	0.594070	0.322949	0.960734
	N247	N	0.424139	0.330019	0.035471
	N248	N	0.682954	0.967865	0.408647
	N249	N	0.677248	0.042582	0.579754
	N250	N	0.326468	0.966481	0.581389
	N251	N	0.325431	0.041209	0.410699
	N252	N	0.919368	0.467382	0.176830
	N253	N	0.089905	0.541564	0.176377
	N254	N	0.092129	0.467509	0.819425
	N255	N	0.919285	0.541830	0.823692
	N256	N	0.184379	0.916457	0.459751
	N257	N	0.181523	0.091650	0.532717
	N258	N	0.821316	0.093814	0.459845
	N259	N	0.824818	0.920423	0.533210
	N260	N	0.468489	0.181980	0.911871
	N261	N	0.543715	0.178592	0.080751
	N262	N	0.466136	0.829532	0.078766
	N263	N	0.541893	0.823700	0.909927
	N264	N	0.468428	0.916338	0.176177
	N265	N	0.541471	0.090075	0.177055
	N266	N	0.467431	0.090112	0.818638
	N267	N	0.540537	0.914256	0.814823
	N268	N	0.914550	0.186500	0.460572
	N269	N	0.084127	0.179519	0.535619
	N270	N	0.091102	0.824214	0.460461
	N271	N	0.921145	0.831402	0.535878
	N272	N	0.183708	0.466830	0.911835
	N273	N	0.180615	0.541793	0.083108
	N274	N	0.828525	0.466166	0.085004
	N275	N	0.828237	0.540233	0.915182
	O276	O	-0.006971	-0.037287	-0.026062
	H277	H	-0.015761	-0.037731	-0.024951
	H278	H	-0.003380	-0.049394	-0.032030
	O279	O	0.514474	0.540492	0.496300
	H280	H	0.511131	0.542508	0.491372
	H281	H	0.512612	0.537140	0.503905
	O282	O	0.416281	0.539726	0.490164
	H283	H	0.415204	0.544310	0.490820
	H284	H	0.418012	0.551169	0.492470
	O285	O	1.030440	0.101851	1.064512
	H286	H	1.026816	0.104435	1.061235
	H287	H	1.033192	0.107465	1.058884
	O288	O	1.019719	-0.054302	-0.006561
	H289	H	1.014241	-0.040915	-0.000001
	H290	H	1.009651	-0.063790	0.000240
	O291	O	0.491821	0.496774	0.614382
	H292	H	0.486783	0.508985	0.623227
	H293	H	0.500109	0.498052	0.614677
	O294	O	1.011104	0.105669	1.017703
	H295	H	1.004818	0.109442	1.012557
	H296	H	1.009023	0.104490	1.014579
	O297	O	0.050014	0.012587	-0.037361
	H298	H	0.053595	0.003395	-0.033410
	H299	H	0.045993	0.012045	-0.044728
	O300	O	0.618512	0.575576	0.593641
	H301	H	0.630985	0.573579	0.594700
	H302	H	0.626286	0.570323	0.589129
	O303	O	0.470152	0.478682	0.535637
	H304	H	0.479376	0.476476	0.542081
	H305	H	0.464150	0.476896	0.544440
	O306	O	0.950525	0.035171	-0.023184
	H307	H	0.953137	0.028518	-0.024524
	H308	H	0.958209	0.037796	-0.027236
	O309	O	0.061661	0.035703	0.998043
	H310	H	0.067045	0.030217	0.998045
	H311	H	0.064478	0.045755	0.995674
	O312	O	1.088597	0.979901	0.951585
	H313	H	1.088225	0.978360	0.954049
	H314	H	1.088612	0.980851	0.947553
	O315	O	0.552162	0.577126	0.467278
	H316	H	0.547568	0.582213	0.460729
	H317	H	0.539245	0.575053	0.465568
	O318	O	0.443461	0.472761	0.569146
	H319	H	0.443042	0.479780	0.568431
	H320	H	0.435447	0.479411	0.570914
	O321	O	0.009965	0.991912	0.943684
	H322	H	0.011520	0.998905	0.948859
	H323	H	0.013624	0.990553	0.940150
	O324	O	0.524989	0.567455	0.490226
	H325	H	0.523781	0.572010	0.490980
	H326	H	0.538306	0.569573	0.480430
	O327	O	0.573756	0.430594	0.411107
	H328	H	0.567441	0.421848	0.392948
	H329	H	0.578123	0.420204	0.405369
	O330	O	0.544149	0.507104	0.515144
	H331	H	0.543895	0.506971	0.512973
	H332	H	0.539452	0.493655	0.504811
	O333	O	0.468336	0.457582	0.530738
	H334	H	0.467065	0.459581	0.532004
	H335	H	0.470559	0.462909	0.544707
	O336	O	0.500708	0.449348	0.412687
	H337	H	0.484904	0.453317	0.409569
	H338	H	0.498816	0.444397	0.410604
	O339	O	1.002020	0.950430	0.045816
	H340	H	1.002461	0.951142	0.037840
	H341	H	1.001432	0.955800	0.052295
	O342	O	0.476512	0.441524	0.431515
	H343	H	0.475482	0.442359	0.420246
	H344	H	0.475245	0.427584	0.437249
	O345	O	0.536367	0.404149	0.498882
	H346	H	0.545168	0.397730	0.499347
	H347	H	0.541152	0.406652	0.507515
	O348	O	-0.003091	0.025491	-0.102585
	H349	H	-0.009150	0.021830	-0.113238
	H350	H	0.005273	0.024572	-0.112167
	O351	O	-0.095488	1.130988	1.072010
	H352	H	-0.091631	1.116896	1.076989
	H353	H	-0.098399	1.140818	1.067487
	O354	O	0.462145	0.496938	0.443152
	H355	H	0.461131	0.492182	0.442817
	H356	H	0.468021	0.505300	0.449475
	O357	O	0.005318	0.971884	0.932573
	H358	H	0.010043	0.975569	0.941373
	H359	H	0.003470	0.969132	0.923964
