data_Molecule from HDF5

_cell_length_a		16.317315
_cell_length_b		16.154059
_cell_length_c		16.153867
_cell_angle_alpha	89.742030
_cell_angle_beta	89.916217
_cell_angle_gamma	90.005957
_symmetry_space_group_name_H-M	'P 1'
_symmetry_Int_Tables_number		1

loop_
	_symmetry_equiv_pos_as_xyz
	x,y,z

loop_
	_atom_site_label
	_atom_site_type_symbol
	_atom_site_fract_x
	_atom_site_fract_y
	_atom_site_fract_z
	H0	H	0.410646	0.833085	0.712160
	H1	H	0.603669	0.164486	0.712625
	H2	H	0.602995	0.832048	0.289366
	H3	H	0.409773	0.162207	0.285932
	H4	H	0.723587	0.397796	0.834767
	H5	H	0.721038	0.595819	0.164530
	H6	H	0.292112	0.598567	0.836192
	H7	H	0.292752	0.396796	0.164186
	H8	H	0.843507	0.714728	0.402452
	H9	H	0.170722	0.712886	0.598091
	H10	H	0.843013	0.284560	0.598706
	H11	H	0.170709	0.285793	0.401512
	H12	H	0.843426	0.400195	0.716828
	H13	H	0.170270	0.598122	0.714125
	H14	H	0.843137	0.598488	0.285595
	H15	H	0.171704	0.402131	0.287757
	H16	H	0.409555	0.711821	0.835524
	H17	H	0.604981	0.709219	0.165285
	H18	H	0.604649	0.286025	0.833369
	H19	H	0.410572	0.284814	0.164800
	H20	H	0.723251	0.833820	0.400146
	H21	H	0.720547	0.164355	0.597631
	H22	H	0.290876	0.835917	0.602667
	H23	H	0.293902	0.162968	0.400096
	H24	H	0.911707	0.333057	0.213219
	H25	H	0.104028	0.664642	0.210471
	H26	H	0.105564	0.333831	0.786722
	H27	H	0.910739	0.664959	0.788005
	H28	H	0.222324	0.900376	0.336211
	H29	H	0.221723	0.099135	0.664377
	H30	H	0.793483	0.098475	0.334530
	H31	H	0.791707	0.898064	0.664408
	H32	H	0.343230	0.211433	0.901653
	H33	H	0.670456	0.212619	0.098108
	H34	H	0.344231	0.782411	0.098922
	H35	H	0.671549	0.785370	0.903555
	H36	H	0.343638	0.898354	0.214240
	H37	H	0.671407	0.094260	0.212816
	H38	H	0.343246	0.096067	0.785910
	H39	H	0.670141	0.899119	0.784745
	H40	H	0.910636	0.211702	0.333721
	H41	H	0.103121	0.210962	0.665101
	H42	H	0.104779	0.788076	0.335156
	H43	H	0.909995	0.785655	0.666057
	H44	H	0.220672	0.333515	0.902341
	H45	H	0.223122	0.663101	0.099611
	H46	H	0.793205	0.333724	0.100917
	H47	H	0.792361	0.662704	0.899267
	H48	H	0.413884	0.118248	0.596776
	H49	H	0.607577	0.878402	0.594817
	H50	H	0.593596	0.112152	0.411611
	H51	H	0.410335	0.880234	0.414937
	H52	H	0.605765	0.408355	0.116657
	H53	H	0.595628	0.590432	0.882919
	H54	H	0.410418	0.588631	0.119460
	H55	H	0.411205	0.405662	0.880718
	H56	H	0.123546	0.590393	0.401773
	H57	H	0.891029	0.587623	0.594663
	H58	H	0.125355	0.405871	0.603819
	H59	H	0.888557	0.402967	0.405080
	H60	H	0.125352	0.396362	0.588520
	H61	H	0.888371	0.595687	0.596671
	H62	H	0.125613	0.598689	0.404224
	H63	H	0.891436	0.405658	0.409637
	H64	H	0.416374	0.585474	0.115924
	H65	H	0.603315	0.596850	0.879358
	H66	H	0.596606	0.405656	0.115729
	H67	H	0.414328	0.407855	0.882192
	H68	H	0.609545	0.117461	0.410517
	H69	H	0.595003	0.881238	0.597384
	H70	H	0.417495	0.115853	0.590172
	H71	H	0.409723	0.877126	0.403055
	H72	H	0.913605	0.615232	0.087274
	H73	H	0.103798	0.379954	0.096847
	H74	H	0.101033	0.614626	0.912852
	H75	H	0.916326	0.382287	0.910388
	H76	H	0.099930	0.909207	0.617330
	H77	H	0.104726	0.090230	0.381204
	H78	H	0.914892	0.089369	0.616329
	H79	H	0.924374	0.898701	0.382786
	H80	H	0.625026	0.092841	0.902330
	H81	H	0.388055	0.084659	0.105857
	H82	H	0.621163	0.911237	0.091080
	H83	H	0.389897	0.905388	0.906973
	H84	H	0.627996	0.901937	0.103927
	H85	H	0.386995	0.104547	0.091970
	H86	H	0.623656	0.094003	0.909157
	H87	H	0.390224	0.903896	0.905455
	H88	H	0.914134	0.094850	0.618774
	H89	H	0.098855	0.090770	0.382725
	H90	H	0.098929	0.903898	0.618960
	H91	H	0.902153	0.903567	0.377211
	H92	H	0.105927	0.618420	0.905562
	H93	H	0.097590	0.381257	0.094857
	H94	H	0.909116	0.618431	0.093319
	H95	H	0.914484	0.381120	0.909561
	H96	H	0.409832	0.117899	0.590098
	H97	H	0.599429	0.883641	0.585800
	H98	H	0.599714	0.118133	0.397103
	H99	H	0.419466	0.881399	0.407744
	H100	H	0.602636	0.399327	0.118752
	H101	H	0.605974	0.586207	0.881777
	H102	H	0.416056	0.593014	0.119224
	H103	H	0.415067	0.403819	0.880636
	H104	H	0.122498	0.592118	0.409496
	H105	H	0.891365	0.594003	0.588502
	H106	H	0.119437	0.413137	0.588528
	H107	H	0.890490	0.408895	0.404302
	H108	H	0.917501	0.616463	0.094749
	H109	H	0.102756	0.380774	0.089986
	H110	H	0.097460	0.616525	0.903846
	H111	H	0.915883	0.380873	0.907577
	H112	H	0.103461	0.905473	0.620193
	H113	H	0.102209	0.096322	0.380908
	H114	H	0.910416	0.090458	0.618068
	H115	H	0.916343	0.920366	0.386955
	H116	H	0.622631	0.087366	0.906740
	H117	H	0.396150	0.083650	0.082593
	H118	H	0.625231	0.894738	0.088891
	H119	H	0.390316	0.903253	0.908158
	C120	C	0.385896	0.008266	0.621442
	C121	C	0.628987	0.990417	0.621420
	C122	C	0.628876	0.006517	0.378465
	C123	C	0.385784	0.988989	0.379346
	C124	C	0.630063	0.375812	0.007723
	C125	C	0.629404	0.618952	0.990862
	C126	C	0.385936	0.618564	0.009227
	C127	C	0.385625	0.376711	0.990600
	C128	C	0.015642	0.622265	0.377224
	C129	C	0.998388	0.620896	0.621143
	C130	C	0.015160	0.376788	0.622479
	C131	C	0.998619	0.377979	0.378548
	C132	C	0.885603	0.507418	0.121417
	C133	C	0.129654	0.489948	0.121851
	C134	C	0.129219	0.507305	0.878868
	C135	C	0.886645	0.490246	0.879277
	C136	C	0.129185	0.878300	0.509394
	C137	C	0.129223	0.120658	0.490846
	C138	C	0.885489	0.120409	0.508206
	C139	C	0.885950	0.877813	0.491692
	C140	C	0.515435	0.119783	0.877875
	C141	C	0.498719	0.119269	0.121609
	C142	C	0.516402	0.874555	0.122705
	C143	C	0.498461	0.875964	0.878505
	C144	C	0.389350	0.883172	0.675821
	C145	C	0.625452	0.114856	0.675912
	C146	C	0.624761	0.881752	0.325665
	C147	C	0.389059	0.113135	0.323631
	C148	C	0.685553	0.377910	0.883919
	C149	C	0.683667	0.616101	0.115221
	C150	C	0.330681	0.617599	0.885024
	C151	C	0.330926	0.377563	0.115001
	C152	C	0.892423	0.677170	0.380831
	C153	C	0.121848	0.675334	0.618335
	C154	C	0.891907	0.322109	0.619549
	C155	C	0.122040	0.323372	0.381330
	C156	C	0.892012	0.379705	0.677909
	C157	C	0.121648	0.618364	0.676062
	C158	C	0.892195	0.619387	0.323000
	C159	C	0.122406	0.381332	0.324534
	C160	C	0.388524	0.674229	0.884858
	C161	C	0.625783	0.672275	0.115580
	C162	C	0.626203	0.322564	0.882967
	C163	C	0.389485	0.321953	0.115260
	C164	C	0.684205	0.882656	0.380933
	C165	C	0.683407	0.114893	0.618670
	C166	C	0.330262	0.884106	0.620757
	C167	C	0.331438	0.113512	0.380404
	C168	C	0.890096	0.382695	0.176201
	C169	C	0.125534	0.614918	0.174252
	C170	C	0.125993	0.383244	0.824181
	C171	C	0.889165	0.615027	0.824329
	C172	C	0.184492	0.880705	0.385259
	C173	C	0.183778	0.118955	0.615228
	C174	C	0.831110	0.118587	0.383846
	C175	C	0.830391	0.878899	0.615592
	C176	C	0.392288	0.174367	0.880623
	C177	C	0.621742	0.174440	0.118662
	C178	C	0.392982	0.820094	0.119465
	C179	C	0.622126	0.821935	0.881896
	C180	C	0.392725	0.877637	0.176848
	C181	C	0.622143	0.115749	0.175817
	C182	C	0.392111	0.116908	0.823315
	C183	C	0.621601	0.878803	0.823215
	C184	C	0.889532	0.174658	0.383327
	C185	C	0.124984	0.174599	0.615444
	C186	C	0.125990	0.824753	0.384726
	C187	C	0.888795	0.822425	0.615999
	C188	C	0.183624	0.383095	0.881415
	C189	C	0.185003	0.613995	0.119196
	C190	C	0.830946	0.383072	0.120576
	C191	C	0.830680	0.613919	0.880017
	C192	C	0.407314	0.094894	0.598985
	C193	C	0.607197	0.903602	0.599295
	C194	C	0.607291	0.093592	0.400031
	C195	C	0.406795	0.902101	0.402171
	C196	C	0.608117	0.397795	0.094691
	C197	C	0.607984	0.597472	0.903927
	C198	C	0.407743	0.595692	0.095620
	C199	C	0.407223	0.399193	0.903692
	C200	C	0.101716	0.600393	0.398770
	C201	C	0.912558	0.598961	0.599396
	C202	C	0.101075	0.398682	0.600286
	C203	C	0.912513	0.399612	0.399903
	C204	C	0.907036	0.594123	0.098564
	C205	C	0.107937	0.403027	0.100387
	C206	C	0.107743	0.594242	0.900944
	C207	C	0.909036	0.403949	0.902343
	C208	C	0.107447	0.899828	0.596403
	C209	C	0.108293	0.098911	0.404042
	C210	C	0.906679	0.098161	0.595234
	C211	C	0.907864	0.900814	0.404937
	C212	C	0.601552	0.097851	0.899588
	C213	C	0.412674	0.097404	0.099831
	C214	C	0.602338	0.896268	0.101088
	C215	C	0.412451	0.897806	0.900363
	Zn216	Zn	0.506702	-0.001387	0.749519
	Zn217	Zn	0.506966	-0.003199	0.250861
	Zn218	Zn	0.757260	0.498117	-0.000528
	Zn219	Zn	0.257695	0.497947	0.000184
	Zn220	Zn	0.007791	0.750212	0.500265
	Zn221	Zn	0.006805	0.248115	0.499350
	Zn222	Zn	0.006994	0.499718	0.750681
	Zn223	Zn	0.007239	0.499190	0.249217
	Zn224	Zn	0.507696	0.746484	0.000490
	Zn225	Zn	0.507189	0.249107	-0.001351
	Zn226	Zn	0.757775	-0.000929	0.499718
	Zn227	Zn	0.257571	-0.000684	0.500569
	N228	N	0.423307	0.961151	0.676182
	N229	N	0.592458	0.036331	0.677857
	N230	N	0.590831	0.959711	0.324311
	N231	N	0.422099	0.034764	0.322962
	N232	N	0.687972	0.410289	0.962666
	N233	N	0.685906	0.583749	0.036627
	N234	N	0.328890	0.583873	0.963303
	N235	N	0.328199	0.410854	0.036486
	N236	N	0.970157	0.679090	0.413876
	N237	N	0.044354	0.676945	0.584774
	N238	N	0.969595	0.319743	0.586095
	N239	N	0.044258	0.321068	0.414269
	N240	N	0.969654	0.412621	0.679934
	N241	N	0.043996	0.585355	0.678172
	N242	N	0.969737	0.585867	0.320654
	N243	N	0.044744	0.414725	0.322927
	N244	N	0.422406	0.674782	0.962891
	N245	N	0.592628	0.674330	0.037217
	N246	N	0.592652	0.320982	0.961174
	N247	N	0.423099	0.321548	0.037014
	N248	N	0.686795	0.961459	0.413015
	N249	N	0.685809	0.036493	0.585700
	N250	N	0.327701	0.962870	0.587754
	N251	N	0.329307	0.035326	0.414392
	N252	N	0.923338	0.461115	0.176910
	N253	N	0.091842	0.536935	0.175970
	N254	N	0.093082	0.461655	0.822326
	N255	N	0.923318	0.537146	0.823842
	N256	N	0.186386	0.913309	0.463864
	N257	N	0.186507	0.086070	0.536881
	N258	N	0.828580	0.085550	0.462475
	N259	N	0.828437	0.912256	0.537166
	N260	N	0.470014	0.176415	0.913627
	N261	N	0.544018	0.176809	0.085683
	N262	N	0.470733	0.818057	0.086565
	N263	N	0.544538	0.819826	0.915352
	N264	N	0.470475	0.910664	0.179160
	N265	N	0.544601	0.082093	0.177713
	N266	N	0.469820	0.083664	0.821607
	N267	N	0.543828	0.911655	0.820912
	N268	N	0.922427	0.176047	0.461745
	N269	N	0.091573	0.175671	0.537267
	N270	N	0.092158	0.823338	0.462804
	N271	N	0.922966	0.821915	0.537866
	N272	N	0.185696	0.461338	0.914730
	N273	N	0.187440	0.535108	0.087217
	N274	N	0.828165	0.461378	0.086959
	N275	N	0.828844	0.535445	0.913475
	O276	O	0.979809	1.004204	-0.031598
	H277	H	0.968908	0.997963	-0.029742
	H278	H	0.981161	1.008721	-0.029978
	O279	O	-0.057065	0.039146	-0.050451
	H280	H	-0.057435	0.048612	-0.050756
	H281	H	-0.070345	0.051425	-0.057555
	O282	O	-0.025786	0.002226	0.959642
	H283	H	-0.023804	0.004048	0.963827
	H284	H	-0.019849	-0.001647	0.956524
	O285	O	0.496886	0.536848	0.480115
	H286	H	0.489762	0.539803	0.475857
	H287	H	0.495164	0.535478	0.472702
	O288	O	0.496069	0.534421	0.437816
	H289	H	0.496467	0.536136	0.439491
	H290	H	0.490781	0.536323	0.436191
	O291	O	0.477292	0.495601	0.445333
	H292	H	0.461838	0.494212	0.445236
	H293	H	0.479180	0.496235	0.444529
	O294	O	-0.498006	-0.471864	0.468399
	H295	H	-0.495808	-0.471591	0.466730
	H296	H	-0.501611	-0.480476	0.462206
	O297	O	0.473995	0.480942	0.492117
	H298	H	0.478261	0.482049	0.499407
	H299	H	0.466192	0.483143	0.496934
	O300	O	-0.057118	1.057841	0.950995
	H301	H	-0.059362	1.046833	0.952153
	H302	H	-0.050090	1.059974	0.961446
	O303	O	0.506801	0.504124	0.402388
	H304	H	0.502263	0.499683	0.400080
	H305	H	0.507983	0.497460	0.392863
	O306	O	-0.059044	0.049518	1.005325
	H307	H	-0.072321	0.043660	1.003211
	H308	H	-0.068491	0.049005	0.998921
	O309	O	0.926136	1.105597	0.960892
	H310	H	0.921675	1.105062	0.952308
	H311	H	0.923397	1.096521	0.963146
	O312	O	0.500982	0.470774	0.450797
	H313	H	0.507441	0.468497	0.453529
	H314	H	0.507315	0.470144	0.462823
	O315	O	0.478273	0.532468	0.506372
	H316	H	0.484553	0.528994	0.508867
	H317	H	0.486933	0.536871	0.502154
	O318	O	-0.056755	1.019042	0.002363
	H319	H	-0.055681	1.023537	-0.000471
	H320	H	-0.053892	1.027547	-0.007343
	O321	O	0.963577	1.008731	-0.028328
	H322	H	0.968471	1.008664	-0.026745
	H323	H	0.972167	1.013761	-0.027208
