data_Molecule from HDF5

_cell_length_a		16.189076
_cell_length_b		16.416244
_cell_length_c		16.232956
_cell_angle_alpha	90.008346
_cell_angle_beta	89.842298
_cell_angle_gamma	89.934231
_symmetry_space_group_name_H-M	'P 1'
_symmetry_Int_Tables_number		1

loop_
	_symmetry_equiv_pos_as_xyz
	x,y,z

loop_
	_atom_site_label
	_atom_site_type_symbol
	_atom_site_fract_x
	_atom_site_fract_y
	_atom_site_fract_z
	H0	H	0.389144	0.832391	0.719745
	H1	H	0.596580	0.152220	0.719647
	H2	H	0.597713	0.832599	0.283933
	H3	H	0.392042	0.153419	0.281998
	H4	H	0.713771	0.390933	0.840131
	H5	H	0.711070	0.595096	0.163399
	H6	H	0.279624	0.593261	0.839070
	H7	H	0.278216	0.392393	0.164037
	H8	H	0.831561	0.711841	0.400843
	H9	H	0.157607	0.712344	0.603963
	H10	H	0.833827	0.274455	0.609747
	H11	H	0.156608	0.274014	0.397004
	H12	H	0.833356	0.395086	0.719794
	H13	H	0.159428	0.593797	0.715893
	H14	H	0.832354	0.596511	0.284162
	H15	H	0.159177	0.393751	0.285377
	H16	H	0.389206	0.711988	0.840714
	H17	H	0.600110	0.712132	0.162073
	H18	H	0.603186	0.272338	0.840017
	H19	H	0.389484	0.272003	0.162336
	H20	H	0.712956	0.832249	0.397210
	H21	H	0.712615	0.152343	0.604845
	H22	H	0.278484	0.831289	0.599799
	H23	H	0.277719	0.153797	0.398119
	H24	H	0.892078	0.334022	0.222068
	H25	H	0.097499	0.654993	0.218643
	H26	H	0.099779	0.335246	0.783841
	H27	H	0.892542	0.654355	0.783913
	H28	H	0.208894	0.894123	0.337011
	H29	H	0.211001	0.093617	0.663390
	H30	H	0.779969	0.093854	0.337253
	H31	H	0.777495	0.892493	0.662807
	H32	H	0.334296	0.211153	0.898322
	H33	H	0.658180	0.211533	0.106931
	H34	H	0.333340	0.774371	0.103942
	H35	H	0.656984	0.772676	0.896084
	H36	H	0.331944	0.892587	0.217184
	H37	H	0.658588	0.092233	0.217611
	H38	H	0.331786	0.092549	0.786459
	H39	H	0.656602	0.889050	0.781002
	H40	H	0.889626	0.215174	0.340340
	H41	H	0.098125	0.211417	0.663075
	H42	H	0.097980	0.775376	0.340265
	H43	H	0.889772	0.776888	0.663369
	H44	H	0.211752	0.333590	0.901064
	H45	H	0.213890	0.654447	0.104761
	H46	H	0.776353	0.333537	0.107224
	H47	H	0.776915	0.653770	0.900167
	H48	H	0.399515	0.108095	0.590546
	H49	H	0.589123	0.879008	0.583743
	H50	H	0.586989	0.108696	0.407755
	H51	H	0.402316	0.878346	0.408532
	H52	H	0.589640	0.403075	0.118482
	H53	H	0.586000	0.584668	0.884624
	H54	H	0.407597	0.581359	0.116685
	H55	H	0.407020	0.403460	0.886114
	H56	H	0.108253	0.582676	0.418731
	H57	H	0.879344	0.585716	0.589662
	H58	H	0.108134	0.415397	0.592087
	H59	H	0.880777	0.405628	0.415252
	H60	H	0.117573	0.396083	0.602468
	H61	H	0.878682	0.583661	0.596530
	H62	H	0.111761	0.580668	0.404274
	H63	H	0.879471	0.405960	0.411390
	H64	H	0.408538	0.585558	0.117808
	H65	H	0.586150	0.580939	0.885392
	H66	H	0.579816	0.404990	0.114275
	H67	H	0.407327	0.397924	0.885776
	H68	H	0.584074	0.107012	0.409025
	H69	H	0.588351	0.874798	0.595882
	H70	H	0.401932	0.109123	0.597926
	H71	H	0.403200	0.877540	0.408885
	H72	H	0.908673	0.607529	0.092972
	H73	H	0.088423	0.379146	0.090331
	H74	H	0.089078	0.610811	0.910186
	H75	H	0.910140	0.381060	0.911331
	H76	H	0.090656	0.904178	0.618261
	H77	H	0.086086	0.078941	0.386158
	H78	H	0.914004	0.092669	0.616011
	H79	H	0.905425	0.906026	0.386491
	H80	H	0.610111	0.082850	0.915762
	H81	H	0.378880	0.085165	0.093150
	H82	H	0.611649	0.903861	0.094712
	H83	H	0.378323	0.901908	0.910249
	H84	H	0.613766	0.896053	0.092136
	H85	H	0.380963	0.085221	0.087753
	H86	H	0.611239	0.077141	0.908050
	H87	H	0.379179	0.899424	0.912347
	H88	H	0.892780	0.087777	0.621106
	H89	H	0.077353	0.086575	0.386299
	H90	H	0.081829	0.905465	0.615882
	H91	H	0.908333	0.898695	0.383154
	H92	H	0.088708	0.611074	0.909084
	H93	H	0.088743	0.377634	0.095874
	H94	H	0.901529	0.607434	0.088237
	H95	H	0.903561	0.379915	0.915712
	H96	H	0.406345	0.106120	0.592476
	H97	H	0.577127	0.880774	0.590132
	H98	H	0.586381	0.107929	0.411465
	H99	H	0.402457	0.878308	0.409805
	H100	H	0.582247	0.395277	0.118646
	H101	H	0.582349	0.582725	0.885854
	H102	H	0.404187	0.583776	0.117822
	H103	H	0.402281	0.401205	0.885064
	H104	H	0.113812	0.594458	0.411029
	H105	H	0.877669	0.589483	0.594538
	H106	H	0.110452	0.395743	0.580120
	H107	H	0.878672	0.402347	0.413456
	H108	H	0.901642	0.609642	0.096179
	H109	H	0.083653	0.380194	0.093922
	H110	H	0.087959	0.610016	0.909931
	H111	H	0.904057	0.378175	0.908860
	H112	H	0.084807	0.896938	0.619668
	H113	H	0.088055	0.089430	0.383384
	H114	H	0.906735	0.072717	0.612144
	H115	H	0.900708	0.900530	0.383199
	H116	H	0.613811	0.086042	0.907697
	H117	H	0.380831	0.080109	0.090175
	H118	H	0.610132	0.901386	0.087194
	H119	H	0.379967	0.902768	0.913982
	C120	C	0.372110	0.001383	0.622797
	C121	C	0.615845	0.983940	0.621682
	C122	C	0.616687	0.001760	0.379015
	C123	C	0.372587	0.984255	0.378683
	C124	C	0.616851	0.370585	0.010156
	C125	C	0.616297	0.613952	0.992054
	C126	C	0.375166	0.613720	0.010478
	C127	C	0.374381	0.370608	0.992879
	C128	C	0.003428	0.616032	0.381006
	C129	C	0.986451	0.616187	0.623496
	C130	C	0.004479	0.373067	0.623410
	C131	C	0.986782	0.373654	0.381502
	C132	C	0.872974	0.502558	0.124169
	C133	C	0.117470	0.485564	0.123525
	C134	C	0.118204	0.503889	0.880039
	C135	C	0.874622	0.485379	0.880875
	C136	C	0.115824	0.872322	0.510000
	C137	C	0.115476	0.115139	0.492287
	C138	C	0.873112	0.115416	0.509737
	C139	C	0.873571	0.872445	0.491948
	C140	C	0.504280	0.113132	0.879806
	C141	C	0.487244	0.114063	0.122409
	C142	C	0.504300	0.870496	0.122270
	C143	C	0.486036	0.869986	0.879721
	C144	C	0.371026	0.880490	0.680331
	C145	C	0.616087	0.103993	0.680905
	C146	C	0.616643	0.880687	0.322372
	C147	C	0.372730	0.105257	0.320900
	C148	C	0.675534	0.370949	0.888705
	C149	C	0.673286	0.614148	0.114525
	C150	C	0.317708	0.613212	0.887958
	C151	C	0.316353	0.371886	0.114833
	C152	C	0.880700	0.673197	0.380852
	C153	C	0.109136	0.673506	0.622835
	C154	C	0.882483	0.314638	0.626594
	C155	C	0.108615	0.314139	0.379112
	C156	C	0.882179	0.374631	0.681585
	C157	C	0.110155	0.614504	0.678675
	C158	C	0.880993	0.615833	0.322926
	C159	C	0.109804	0.373659	0.323620
	C160	C	0.372175	0.672558	0.888972
	C161	C	0.618106	0.672656	0.113650
	C162	C	0.620136	0.311841	0.888864
	C163	C	0.371656	0.311722	0.114084
	C164	C	0.674476	0.880637	0.378868
	C165	C	0.673775	0.104358	0.623349
	C166	C	0.315447	0.880119	0.621001
	C167	C	0.315673	0.105643	0.378627
	C168	C	0.873121	0.381792	0.182795
	C169	C	0.116807	0.606734	0.180323
	C170	C	0.118442	0.382978	0.822807
	C171	C	0.873697	0.606252	0.822821
	C172	C	0.171421	0.873993	0.386574
	C173	C	0.172868	0.113993	0.614511
	C174	C	0.816565	0.114884	0.386970
	C175	C	0.815925	0.873510	0.614315
	C176	C	0.382377	0.171544	0.879634
	C177	C	0.609598	0.171543	0.124112
	C178	C	0.381838	0.813595	0.122817
	C179	C	0.608449	0.811837	0.877747
	C180	C	0.381172	0.872421	0.179282
	C181	C	0.609901	0.112494	0.179650
	C182	C	0.381154	0.112221	0.824103
	C183	C	0.608195	0.869718	0.820472
	C184	C	0.871480	0.174997	0.388456
	C185	C	0.116857	0.172699	0.614484
	C186	C	0.116600	0.814532	0.388323
	C187	C	0.871849	0.815715	0.614660
	C188	C	0.174446	0.382370	0.881104
	C189	C	0.175170	0.606389	0.123836
	C190	C	0.815248	0.381661	0.125532
	C191	C	0.815984	0.605915	0.880547
	C192	C	0.395730	0.085899	0.600135
	C193	C	0.591889	0.899956	0.596907
	C194	C	0.592871	0.086060	0.402573
	C195	C	0.395721	0.899966	0.402151
	C196	C	0.591248	0.394311	0.095060
	C197	C	0.591822	0.589771	0.907273
	C198	C	0.399621	0.590234	0.095381
	C199	C	0.398699	0.393885	0.907574
	C200	C	0.088952	0.592807	0.404518
	C201	C	0.900859	0.592976	0.600303
	C202	C	0.090030	0.395812	0.598602
	C203	C	0.901828	0.397521	0.406232
	C204	C	0.896805	0.586427	0.099652
	C205	C	0.093906	0.400975	0.100127
	C206	C	0.095144	0.588584	0.903034
	C207	C	0.898983	0.401599	0.904827
	C208	C	0.092539	0.895468	0.595680
	C209	C	0.090986	0.091681	0.407264
	C210	C	0.897451	0.091380	0.594280
	C211	C	0.897910	0.895005	0.406468
	C212	C	0.589791	0.089026	0.903551
	C213	C	0.402251	0.090570	0.097575
	C214	C	0.589734	0.893576	0.098359
	C215	C	0.401282	0.894268	0.904919
	Zn216	Zn	0.494113	-0.008341	0.751263
	Zn217	Zn	0.495388	-0.007117	0.250565
	Zn218	Zn	0.744140	0.493051	0.002050
	Zn219	Zn	0.246506	0.494224	0.001806
	Zn220	Zn	-0.006031	0.744549	0.502583
	Zn221	Zn	-0.005418	0.244591	0.502141
	Zn222	Zn	-0.003458	0.494884	0.751885
	Zn223	Zn	-0.004375	0.494342	0.252349
	Zn224	Zn	0.495560	0.741570	0.001060
	Zn225	Zn	0.496535	0.241893	0.001223
	Zn226	Zn	0.745306	-0.006909	0.500150
	Zn227	Zn	0.243736	-0.006617	0.500171
	N228	N	0.405362	0.956958	0.681706
	N229	N	0.580684	0.028047	0.680009
	N230	N	0.581388	0.956806	0.322325
	N231	N	0.407403	0.028925	0.320667
	N232	N	0.673664	0.406738	0.965323
	N233	N	0.672246	0.578191	0.037947
	N234	N	0.319335	0.577322	0.964453
	N235	N	0.317802	0.407610	0.038240
	N236	N	0.957613	0.673325	0.416230
	N237	N	0.031206	0.674712	0.589316
	N238	N	0.959760	0.313533	0.591073
	N239	N	0.031051	0.313826	0.414303
	N240	N	0.959088	0.410038	0.679881
	N241	N	0.032816	0.579935	0.679504
	N242	N	0.958411	0.580917	0.322827
	N243	N	0.033106	0.409803	0.324809
	N244	N	0.407304	0.672968	0.966038
	N245	N	0.583324	0.672593	0.036575
	N246	N	0.584418	0.311456	0.965650
	N247	N	0.407015	0.310863	0.036910
	N248	N	0.674645	0.957243	0.413374
	N249	N	0.673737	0.028539	0.587280
	N250	N	0.315812	0.956487	0.585864
	N251	N	0.315512	0.029565	0.414039
	N252	N	0.908335	0.457829	0.182019
	N253	N	0.081745	0.530417	0.180456
	N254	N	0.084435	0.459665	0.821815
	N255	N	0.909720	0.530371	0.823062
	N256	N	0.171257	0.909324	0.463469
	N257	N	0.172353	0.079173	0.537416
	N258	N	0.817332	0.078730	0.463369
	N259	N	0.816679	0.907933	0.536967
	N260	N	0.460197	0.172447	0.913436
	N261	N	0.532189	0.172644	0.089350
	N262	N	0.459350	0.812288	0.088180
	N263	N	0.531494	0.811776	0.913761
	N264	N	0.458522	0.906892	0.179321
	N265	N	0.532701	0.077444	0.178766
	N266	N	0.458041	0.076642	0.824188
	N267	N	0.531114	0.905099	0.821509
	N268	N	0.905626	0.175908	0.465898
	N269	N	0.081838	0.173564	0.537420
	N270	N	0.082799	0.813352	0.466044
	N271	N	0.907034	0.814947	0.537591
	N272	N	0.174412	0.458464	0.916181
	N273	N	0.175681	0.529950	0.089251
	N274	N	0.814961	0.457661	0.089795
	N275	N	0.816515	0.529979	0.916039
	O276	O	0.482967	0.502327	0.459895
	H277	H	0.485102	0.508638	0.473373
	H278	H	0.482485	0.498630	0.475670
	O279	O	0.470278	0.444977	0.552941
	H280	H	0.480614	0.453060	0.539298
	H281	H	0.473160	0.446470	0.558067
	O282	O	1.092794	0.025208	1.089156
	H283	H	1.090079	0.037130	1.084797
	H284	H	1.087398	0.022938	1.087324
	O285	O	0.396900	0.463004	0.460207
	H286	H	0.393357	0.466560	0.466081
	H287	H	0.381864	0.461290	0.454995
	O288	O	1.008713	0.928485	0.945237
	H289	H	1.008539	0.933825	0.941008
	H290	H	1.007775	0.933167	0.966825
	O291	O	-0.162907	1.066886	0.024318
	H292	H	-0.166788	1.058154	0.031676
	H293	H	-0.162564	1.067724	0.019733
	O294	O	0.528725	0.433675	0.617047
	H295	H	0.528611	0.425189	0.622634
	H296	H	0.543375	0.438150	0.603396
	O297	O	0.327100	0.374996	0.549828
	H298	H	0.332047	0.378777	0.544299
	H299	H	0.325650	0.381011	0.547629
	O300	O	0.538212	0.563440	0.439547
	H301	H	0.528110	0.568049	0.444917
	H302	H	0.541552	0.570854	0.458733
	O303	O	0.584889	0.637676	0.456933
	H304	H	0.576759	0.656090	0.462325
	H305	H	0.568929	0.625464	0.465912
	O306	O	0.638844	0.310803	0.323162
	H307	H	0.646289	0.349807	0.313677
	H308	H	0.609159	0.304038	0.310868
	O309	O	0.604822	0.491694	0.361114
	H310	H	0.617678	0.497978	0.367111
	H311	H	0.600001	0.492517	0.346622
	O312	O	-0.070366	-0.043575	0.114791
	H313	H	-0.077622	-0.045365	0.108435
	H314	H	-0.069422	-0.030914	0.112634
	O315	O	0.446371	0.439322	0.561962
	H316	H	0.441453	0.429312	0.571780
	H317	H	0.460294	0.439177	0.558880
	O318	O	0.150087	0.997120	1.036457
	H319	H	0.148853	1.016037	1.038299
	H320	H	0.139979	0.998964	1.040827
	O321	O	0.440721	0.668370	0.312572
	H322	H	0.417609	0.672708	0.313567
	H323	H	0.424230	0.680871	0.302687
	O324	O	0.046130	1.057361	-0.171959
	H325	H	0.033121	1.066214	-0.182919
	H326	H	0.063190	1.057018	-0.178104
	O327	O	0.400921	0.427965	0.608325
	H328	H	0.404629	0.429021	0.603894
	H329	H	0.396190	0.428825	0.604554
	O330	O	0.407704	-0.369457	1.622735
	H331	H	0.411467	-0.363758	1.610918
	H332	H	0.423965	-0.364589	1.633581
	O333	O	0.005903	-0.151548	0.928760
	H334	H	0.002483	-0.168605	0.912095
	H335	H	0.008447	-0.140924	0.934444
	O336	O	0.502056	0.509448	0.326976
	H337	H	0.499366	0.519812	0.323105
	H338	H	0.490175	0.520321	0.321073
	O339	O	0.870992	0.083889	-0.120476
	H340	H	0.861587	0.087127	-0.112094
	H341	H	0.876809	0.073152	-0.118027
	O342	O	-0.093120	0.164475	0.050474
	H343	H	-0.090169	0.169884	0.045418
	H344	H	-0.098308	0.147861	0.052376
	O345	O	0.858399	-0.062485	1.088133
	H346	H	0.879179	-0.064564	1.080102
	H347	H	0.856820	-0.068963	1.107406
	O348	O	1.059269	0.836801	0.052793
	H349	H	1.056104	0.835411	0.054291
	H350	H	1.054245	0.844752	0.035589
	O351	O	0.531636	0.448245	0.601109
	H352	H	0.535967	0.454632	0.610266
	H353	H	0.524803	0.447806	0.611344
	O354	O	1.165662	-0.105441	0.856999
	H355	H	1.167351	-0.106694	0.873391
	H356	H	1.164655	-0.102970	0.847716
	O357	O	0.584807	0.619945	0.624355
	H358	H	0.585247	0.605188	0.622263
	H359	H	0.601828	0.609509	0.630862
	O360	O	0.626530	0.525159	0.545576
	H361	H	0.619767	0.531127	0.529829
	H362	H	0.636464	0.512505	0.536492
	O363	O	0.063150	1.090536	0.984304
	H364	H	0.063857	1.097838	0.978716
	H365	H	0.040672	1.103387	0.972883
	O366	O	0.684489	0.374254	0.493969
	H367	H	0.679710	0.372057	0.468352
	H368	H	0.698375	0.350381	0.476960
	O369	O	0.001353	1.138424	-0.031961
	H370	H	-0.001993	1.144694	-0.049493
	H371	H	-0.002766	1.143139	-0.025989
	O372	O	0.516054	0.622095	0.561167
	H373	H	0.535276	0.621065	0.568259
	H374	H	0.519759	0.630192	0.552438
	O375	O	0.624758	0.501295	0.617022
	H376	H	0.638196	0.500040	0.595801
	H377	H	0.622780	0.493902	0.614052
	O378	O	1.158801	1.078692	-0.100455
	H379	H	1.161110	1.075482	-0.093147
	H380	H	1.152777	1.073833	-0.113344
	O381	O	1.020093	-0.179288	-0.012720
	H382	H	1.029984	-0.179134	-0.032671
	H383	H	1.033395	-0.172005	-0.024137
	O384	O	0.942185	1.130777	-0.130523
	H385	H	0.929803	1.126400	-0.131215
	H386	H	0.935207	1.139207	-0.128283
	O387	O	0.145310	-0.073583	-0.015973
	H388	H	0.143155	-0.057974	-0.016648
	H389	H	0.148179	-0.072608	-0.019508
	O390	O	-0.201761	0.962682	0.006447
	H391	H	-0.208441	0.939961	0.006772
	H392	H	-0.207978	0.955221	0.021248
	O393	O	0.906852	0.866852	1.039951
	H394	H	0.911104	0.865308	1.051411
	H395	H	0.915337	0.872076	1.046763
	O396	O	0.525688	0.315734	0.412909
	H397	H	0.535083	0.319296	0.412988
	H398	H	0.535354	0.314557	0.420067
	O399	O	0.059133	1.020653	1.156106
	H400	H	0.062348	1.023518	1.161644
	H401	H	0.064365	1.023962	1.160153
	O402	O	0.357217	0.353082	0.666058
	H403	H	0.356695	0.340193	0.679056
	H404	H	0.366334	0.344138	0.671529
	O405	O	0.956408	0.994048	0.026063
	H406	H	0.959975	0.981386	0.034251
	H407	H	0.960690	1.003056	0.019232
	O408	O	0.959031	1.045526	-0.039814
	H409	H	0.959301	1.048593	-0.044796
	H410	H	0.970232	1.047767	-0.046653
	O411	O	1.000982	0.064084	1.090864
	H412	H	1.002058	0.071839	1.100493
	H413	H	0.997279	0.054469	1.098364
	O414	O	0.383911	0.303486	0.455865
	H415	H	0.379591	0.284421	0.448869
	H416	H	0.376105	0.320840	0.455528
	O417	O	0.350228	0.660318	0.417471
	H418	H	0.339386	0.663204	0.427744
	H419	H	0.338368	0.646186	0.428637
