data_Molecule from HDF5

_cell_length_a		16.666198
_cell_length_b		16.565588
_cell_length_c		16.625463
_cell_angle_alpha	89.902253
_cell_angle_beta	90.076899
_cell_angle_gamma	90.334047
_symmetry_space_group_name_H-M	'P 1'
_symmetry_Int_Tables_number		1

loop_
	_symmetry_equiv_pos_as_xyz
	x,y,z

loop_
	_atom_site_label
	_atom_site_type_symbol
	_atom_site_fract_x
	_atom_site_fract_y
	_atom_site_fract_z
	H0	H	0.378568	0.837124	0.716956
	H1	H	0.590760	0.147702	0.713495
	H2	H	0.593543	0.837027	0.268688
	H3	H	0.384803	0.149291	0.276957
	H4	H	0.708177	0.385149	0.841567
	H5	H	0.713178	0.605921	0.145248
	H6	H	0.263621	0.594436	0.839112
	H7	H	0.267206	0.387647	0.152903
	H8	H	0.830440	0.708972	0.393697
	H9	H	0.140823	0.711778	0.600899
	H10	H	0.828043	0.269110	0.598424
	H11	H	0.139926	0.270604	0.391846
	H12	H	0.829513	0.382596	0.717139
	H13	H	0.141873	0.592676	0.714904
	H14	H	0.830100	0.593539	0.275460
	H15	H	0.139319	0.385831	0.273547
	H16	H	0.376050	0.714480	0.841131
	H17	H	0.593840	0.717303	0.147449
	H18	H	0.591039	0.269767	0.840700
	H19	H	0.384692	0.272691	0.153062
	H20	H	0.710086	0.836423	0.384029
	H21	H	0.709258	0.145901	0.600378
	H22	H	0.264398	0.836130	0.599244
	H23	H	0.268248	0.148478	0.392767
	H24	H	0.879812	0.335691	0.214781
	H25	H	0.090721	0.647185	0.215128
	H26	H	0.087311	0.332331	0.776866
	H27	H	0.878261	0.645164	0.769803
	H28	H	0.204852	0.887217	0.339458
	H29	H	0.207439	0.097056	0.650840
	H30	H	0.762313	0.097057	0.339939
	H31	H	0.763124	0.883968	0.648860
	H32	H	0.329339	0.208927	0.893470
	H33	H	0.642932	0.208792	0.095476
	H34	H	0.329479	0.768986	0.098632
	H35	H	0.633588	0.761639	0.880447
	H36	H	0.328790	0.885307	0.215208
	H37	H	0.641626	0.093866	0.214265
	H38	H	0.330255	0.095541	0.773500
	H39	H	0.635993	0.881216	0.766622
	H40	H	0.882365	0.210628	0.338664
	H41	H	0.088842	0.210081	0.652374
	H42	H	0.091478	0.767881	0.341955
	H43	H	0.882002	0.770202	0.651060
	H44	H	0.202954	0.332025	0.893087
	H45	H	0.206683	0.646565	0.099395
	H46	H	0.762359	0.337602	0.099470
	H47	H	0.759448	0.643765	0.881928
	H48	H	0.397419	0.104720	0.584312
	H49	H	0.565951	0.882601	0.581310
	H50	H	0.571471	0.101870	0.404035
	H51	H	0.394496	0.877648	0.404044
	H52	H	0.573508	0.400405	0.107818
	H53	H	0.577172	0.572015	0.883488
	H54	H	0.401381	0.580528	0.104248
	H55	H	0.392965	0.403114	0.884091
	H56	H	0.096435	0.578652	0.409148
	H57	H	0.877436	0.577908	0.576517
	H58	H	0.095881	0.399847	0.584786
	H59	H	0.873428	0.402550	0.404271
	H60	H	0.095972	0.402251	0.586617
	H61	H	0.874390	0.571264	0.590213
	H62	H	0.096971	0.576248	0.404764
	H63	H	0.871857	0.398785	0.403268
	H64	H	0.391935	0.583451	0.108808
	H65	H	0.563660	0.569279	0.891060
	H66	H	0.577594	0.403267	0.107603
	H67	H	0.395641	0.393541	0.881698
	H68	H	0.571411	0.099521	0.410154
	H69	H	0.575291	0.881073	0.576274
	H70	H	0.396209	0.105035	0.582223
	H71	H	0.393958	0.879056	0.405654
	H72	H	0.901285	0.602100	0.080360
	H73	H	0.078831	0.374386	0.090899
	H74	H	0.073326	0.601232	0.904525
	H75	H	0.901161	0.382003	0.909182
	H76	H	0.072200	0.907659	0.604153
	H77	H	0.078833	0.080946	0.382606
	H78	H	0.900639	0.073784	0.603375
	H79	H	0.899870	0.909765	0.387010
	H80	H	0.598570	0.083557	0.902777
	H81	H	0.374532	0.077985	0.083759
	H82	H	0.593437	0.906857	0.078978
	H83	H	0.376927	0.904982	0.913198
	H84	H	0.595119	0.906703	0.084454
	H85	H	0.370845	0.080678	0.092339
	H86	H	0.597000	0.082033	0.905868
	H87	H	0.376669	0.910734	0.905897
	H88	H	0.898251	0.083460	0.607705
	H89	H	0.075662	0.080217	0.383901
	H90	H	0.072218	0.896533	0.608931
	H91	H	0.903964	0.895291	0.382918
	H92	H	0.075141	0.601204	0.907617
	H93	H	0.068372	0.378762	0.087917
	H94	H	0.895367	0.603773	0.081909
	H95	H	0.894412	0.381262	0.913185
	H96	H	0.394649	0.104801	0.584729
	H97	H	0.573976	0.877422	0.585998
	H98	H	0.576807	0.101772	0.407173
	H99	H	0.393160	0.877697	0.404369
	H100	H	0.573135	0.404996	0.106288
	H101	H	0.565820	0.583725	0.883849
	H102	H	0.393293	0.573171	0.105099
	H103	H	0.386000	0.396827	0.879677
	H104	H	0.098507	0.581349	0.405212
	H105	H	0.870074	0.586527	0.587384
	H106	H	0.096963	0.399794	0.587199
	H107	H	0.873339	0.399352	0.407153
	H108	H	0.899997	0.604981	0.085871
	H109	H	0.077587	0.378988	0.080031
	H110	H	0.076817	0.602450	0.904663
	H111	H	0.894833	0.378560	0.905208
	H112	H	0.082088	0.903291	0.608257
	H113	H	0.076375	0.083266	0.382876
	H114	H	0.890564	0.075904	0.607310
	H115	H	0.889360	0.900469	0.380105
	H116	H	0.597267	0.079681	0.902680
	H117	H	0.371446	0.088062	0.085323
	H118	H	0.595029	0.901778	0.081422
	H119	H	0.372843	0.902263	0.904960
	C120	C	0.363799	0.001342	0.615865
	C121	C	0.605741	0.982693	0.614321
	C122	C	0.606883	-0.001119	0.373038
	C123	C	0.363997	0.982242	0.373644
	C124	C	0.606538	0.370789	0.004294
	C125	C	0.605033	0.612517	0.985971
	C126	C	0.363093	0.611249	0.003389
	C127	C	0.362323	0.367875	0.986499
	C128	C	-0.005493	0.610974	0.374818
	C129	C	0.977199	0.610432	0.616598
	C130	C	-0.007101	0.368098	0.617230
	C131	C	0.975694	0.368528	0.373258
	C132	C	0.864686	0.500974	0.115425
	C133	C	0.106683	0.481444	0.117102
	C134	C	0.105665	0.497641	0.874640
	C135	C	0.863560	0.482453	0.873783
	C136	C	0.106928	0.870152	0.504238
	C137	C	0.107761	0.113157	0.486847
	C138	C	0.864439	0.110446	0.503048
	C139	C	0.864754	0.868945	0.485900
	C140	C	0.494439	0.113242	0.872590
	C141	C	0.476489	0.112707	0.116949
	C142	C	0.492470	0.871236	0.114832
	C143	C	0.475888	0.870466	0.872541
	C144	C	0.360867	0.883576	0.676154
	C145	C	0.608991	0.100428	0.673737
	C146	C	0.611074	0.883217	0.309960
	C147	C	0.364716	0.101493	0.315753
	C148	C	0.667159	0.367555	0.887686
	C149	C	0.670754	0.621322	0.099886
	C150	C	0.303021	0.613318	0.886266
	C151	C	0.306162	0.368237	0.105601
	C152	C	0.877114	0.669897	0.373786
	C153	C	0.094348	0.670688	0.618615
	C154	C	0.875147	0.308561	0.617600
	C155	C	0.092981	0.309629	0.372293
	C156	C	0.876075	0.364876	0.676787
	C157	C	0.094695	0.611717	0.675604
	C158	C	0.876967	0.612546	0.315556
	C159	C	0.092737	0.366954	0.313761
	C160	C	0.359277	0.672620	0.887039
	C161	C	0.611310	0.676806	0.100748
	C162	C	0.608858	0.310211	0.887452
	C163	C	0.364519	0.311356	0.105804
	C164	C	0.668970	0.883036	0.367459
	C165	C	0.668018	0.099338	0.617544
	C166	C	0.304075	0.883114	0.617935
	C167	C	0.306875	0.101311	0.373235
	C168	C	0.861232	0.383085	0.175130
	C169	C	0.109228	0.599679	0.175888
	C170	C	0.105978	0.379454	0.816242
	C171	C	0.859961	0.598335	0.810431
	C172	C	0.165910	0.868120	0.386919
	C173	C	0.167245	0.115211	0.604299
	C174	C	0.803710	0.114235	0.385986
	C175	C	0.803968	0.866009	0.602615
	C176	C	0.376492	0.170376	0.873124
	C177	C	0.595363	0.169932	0.115538
	C178	C	0.375771	0.809893	0.116963
	C179	C	0.589040	0.804952	0.864801
	C180	C	0.375703	0.867548	0.175088
	C181	C	0.594987	0.112786	0.174303
	C182	C	0.376956	0.114274	0.813570
	C183	C	0.590165	0.863914	0.807936
	C184	C	0.863043	0.170679	0.385544
	C185	C	0.108305	0.171363	0.604896
	C186	C	0.109286	0.809081	0.387749
	C187	C	0.862796	0.809619	0.603595
	C188	C	0.163870	0.379491	0.873821
	C189	C	0.166872	0.599408	0.118369
	C190	C	0.802788	0.384095	0.118096
	C191	C	0.801211	0.598101	0.866630
	C192	C	0.388914	0.083367	0.590929
	C193	C	0.579165	0.901456	0.588538
	C194	C	0.580706	0.079929	0.399748
	C195	C	0.387296	0.899761	0.397638
	C196	C	0.581722	0.395925	0.085997
	C197	C	0.576783	0.583338	0.906781
	C198	C	0.388590	0.586215	0.084887
	C199	C	0.384957	0.391085	0.903550
	C200	C	0.076026	0.586045	0.399441
	C201	C	0.895301	0.585612	0.591826
	C202	C	0.074720	0.393369	0.593102
	C203	C	0.894118	0.393189	0.397812
	C204	C	0.891271	0.582557	0.090035
	C205	C	0.081954	0.398939	0.093157
	C206	C	0.081946	0.580273	0.898596
	C207	C	0.889503	0.401694	0.901312
	C208	C	0.082424	0.895260	0.585962
	C209	C	0.083671	0.088794	0.404578
	C210	C	0.889234	0.085036	0.584748
	C211	C	0.890487	0.894618	0.404476
	C212	C	0.576348	0.088738	0.896893
	C213	C	0.393750	0.089212	0.093808
	C214	C	0.573429	0.897502	0.088967
	C215	C	0.396314	0.898173	0.900260
	Zn216	Zn	0.485141	-0.007981	0.743662
	Zn217	Zn	0.485019	-0.009190	0.245283
	Zn218	Zn	0.735184	0.493203	-0.005179
	Zn219	Zn	0.234912	0.489410	-0.004438
	Zn220	Zn	-0.013970	0.740414	0.495495
	Zn221	Zn	-0.014967	0.240153	0.495595
	Zn222	Zn	-0.015197	0.489450	0.745998
	Zn223	Zn	-0.014944	0.490860	0.245053
	Zn224	Zn	0.484421	0.741191	-0.006056
	Zn225	Zn	0.485017	0.241602	-0.004649
	Zn226	Zn	0.735308	-0.010620	0.494202
	Zn227	Zn	0.235534	-0.008139	0.495035
	N228	N	0.397189	0.958110	0.675186
	N229	N	0.571009	0.026725	0.672138
	N230	N	0.572889	0.956293	0.313445
	N231	N	0.399282	0.026416	0.315543
	N232	N	0.665924	0.404734	0.961456
	N233	N	0.667041	0.581864	0.027490
	N234	N	0.305237	0.575932	0.959726
	N235	N	0.304591	0.402497	0.030445
	N236	N	0.951351	0.669324	0.409784
	N237	N	0.020050	0.670321	0.582958
	N238	N	0.949052	0.310199	0.581467
	N239	N	0.019088	0.310383	0.408487
	N240	N	0.950294	0.401116	0.676915
	N241	N	0.020661	0.575059	0.674609
	N242	N	0.950993	0.576912	0.315828
	N243	N	0.018499	0.402518	0.313900
	N244	N	0.395769	0.671780	0.960965
	N245	N	0.571152	0.671512	0.028848
	N246	N	0.571878	0.312143	0.961043
	N247	N	0.398404	0.310528	0.030499
	N248	N	0.666459	0.956155	0.406036
	N249	N	0.666380	0.024985	0.581375
	N250	N	0.305522	0.957473	0.581368
	N251	N	0.305956	0.026134	0.408286
	N252	N	0.898940	0.456953	0.173760
	N253	N	0.072622	0.525229	0.175458
	N254	N	0.070789	0.454182	0.816432
	N255	N	0.898074	0.525298	0.814535
	N256	N	0.164646	0.905365	0.460431
	N257	N	0.167248	0.079839	0.529755
	N258	N	0.804431	0.077600	0.460144
	N259	N	0.804785	0.902078	0.528297
	N260	N	0.450820	0.170372	0.908791
	N261	N	0.520568	0.170221	0.080934
	N262	N	0.449549	0.811874	0.080258
	N263	N	0.517131	0.809114	0.904462
	N264	N	0.449488	0.904797	0.174135
	N265	N	0.519874	0.078390	0.175632
	N266	N	0.451522	0.079666	0.812951
	N267	N	0.518774	0.904035	0.812726
	N268	N	0.900059	0.168471	0.459270
	N269	N	0.071974	0.170344	0.530727
	N270	N	0.073504	0.809973	0.461938
	N271	N	0.899636	0.811014	0.529793
	N272	N	0.163988	0.454259	0.909470
	N273	N	0.165640	0.524758	0.082486
	N274	N	0.804589	0.458622	0.081937
	N275	N	0.803432	0.525162	0.905592
	O276	O	-0.219431	0.996857	0.203412
	H277	H	-0.203196	0.993482	0.215111
	H278	H	-0.225168	0.971951	0.204594
	O279	O	-0.066895	0.935510	0.030534
	H280	H	-0.053126	0.915995	0.022307
	H281	H	-0.067218	0.947842	0.018944
	O282	O	1.019842	-0.021552	0.786939
	H283	H	1.019225	-0.007434	0.791366
	H284	H	1.016295	-0.021145	0.777474
	O285	O	1.022528	0.186239	1.196243
	H286	H	1.045868	0.176369	1.180383
	H287	H	1.021790	0.213714	1.223066
	O288	O	0.783201	0.798808	0.193622
	H289	H	0.817323	0.791259	0.204269
	H290	H	0.789505	0.818215	0.160202
	O291	O	0.694818	0.283214	0.285463
	H292	H	0.702225	0.312477	0.304564
	H293	H	0.729587	0.253116	0.252832
	O294	O	0.919894	0.091344	0.940764
	H295	H	0.941481	0.091184	0.944540
	H296	H	0.911169	0.091840	0.953433
	O297	O	0.473352	0.379697	0.417980
	H298	H	0.492734	0.371734	0.413508
	H299	H	0.489060	0.402754	0.406211
	O300	O	-0.306133	-0.299484	1.472165
	H301	H	-0.313036	-0.295970	1.469252
	H302	H	-0.293299	-0.313565	1.462855
	O303	O	0.684497	0.548429	0.439397
	H304	H	0.686356	0.536902	0.422723
	H305	H	0.681084	0.531274	0.439696
	O306	O	0.794628	0.186462	0.184561
	H307	H	0.811248	0.160347	0.173739
	H308	H	0.812597	0.171676	0.157739
	O309	O	0.265278	0.469281	0.457998
	H310	H	0.259208	0.462913	0.463307
	H311	H	0.272958	0.480636	0.468862
	O312	O	0.444147	0.678207	0.546295
	H313	H	0.422559	0.674990	0.527901
	H314	H	0.461549	0.672260	0.541635
	O315	O	0.875656	0.841276	1.002062
	H316	H	0.870082	0.829412	1.015128
	H317	H	0.891368	0.847038	0.992789
	O318	O	0.299653	0.684533	0.682479
	H319	H	0.326736	0.666153	0.678587
	H320	H	0.308118	0.690556	0.667702
	O321	O	0.543276	0.476657	0.662192
	H322	H	0.556932	0.473530	0.651375
	H323	H	0.540712	0.467257	0.669451
	O324	O	1.521279	1.707594	-0.445279
	H325	H	1.518220	1.703001	-0.468680
	H326	H	1.551817	1.708690	-0.445171
	O327	O	-0.455702	-0.466213	0.517998
	H328	H	-0.455159	-0.473909	0.522403
	H329	H	-0.449034	-0.478758	0.499889
	O330	O	0.390678	0.367661	0.457759
	H331	H	0.405005	0.365613	0.456863
	H332	H	0.403601	0.381755	0.468749
	O333	O	0.424922	0.449191	0.276314
	H334	H	0.443175	0.439501	0.281936
	H335	H	0.439139	0.453517	0.272432
	O336	O	0.562592	0.264579	0.553435
	H337	H	0.567117	0.256883	0.555875
	H338	H	0.566311	0.270659	0.571896
	O339	O	1.210834	-0.036498	1.065956
	H340	H	1.211922	-0.053361	1.048301
	H341	H	1.209454	-0.039830	1.062267
	O342	O	-0.122764	-0.015991	-0.214832
	H343	H	-0.112362	-0.017841	-0.211564
	H344	H	-0.142784	-0.034605	-0.214588
	O345	O	-0.181522	0.818362	0.818099
	H346	H	-0.206860	0.790523	0.786171
	H347	H	-0.170311	0.819874	0.834296
	O348	O	0.190518	0.197831	0.201305
	H349	H	0.174382	0.166224	0.210482
	H350	H	0.221849	0.230062	0.236197
	O351	O	0.293590	0.292811	0.673184
	H352	H	0.293461	0.302921	0.657013
	H353	H	0.299295	0.311997	0.654405
	O354	O	0.167588	-0.194830	1.185091
	H355	H	0.148696	-0.167579	1.175690
	H356	H	0.149340	-0.182339	1.162933
	O357	O	0.708256	0.458409	0.539116
	H358	H	0.707229	0.457028	0.545416
	H359	H	0.711228	0.440279	0.530817
	O360	O	1.066140	0.887598	-0.049909
	H361	H	1.069577	0.887325	-0.075575
	H362	H	1.052995	0.890417	-0.063265
	O363	O	0.043805	-0.074342	0.225949
	H364	H	0.039187	-0.059231	0.220224
	H365	H	0.045361	-0.061405	0.229958
	O366	O	0.312667	0.477711	0.695479
	H367	H	0.321019	0.487115	0.695168
	H368	H	0.299347	0.481258	0.696613
	O369	O	0.551295	0.544916	0.258411
	H370	H	0.548754	0.573302	0.261821
	H371	H	0.554609	0.548660	0.263439
	O372	O	1.181540	1.178859	-0.188583
	H373	H	1.189437	1.197579	-0.193911
	H374	H	1.162455	1.187135	-0.189035
	O375	O	0.749001	0.028053	0.016537
	H376	H	0.746921	0.008968	0.026418
	H377	H	0.754635	0.008253	0.013997
	O378	O	0.487442	0.481886	0.623578
	H379	H	0.501056	0.465194	0.622898
	H380	H	0.469896	0.488829	0.628438
	O381	O	-0.054911	1.209114	0.776014
	H382	H	-0.063942	1.241384	0.750154
	H383	H	-0.082182	1.202853	0.784227
	O384	O	1.418857	-0.536396	1.466479
	H385	H	1.416125	-0.547034	1.483016
	H386	H	1.413317	-0.520612	1.463710
	O387	O	1.025627	0.765157	-0.227632
	H388	H	1.045604	0.761642	-0.238488
	H389	H	1.043921	0.748375	-0.246637
	O390	O	0.698653	0.695146	0.287510
	H391	H	0.735786	0.720214	0.267146
	H392	H	0.674602	0.681202	0.302312
	O393	O	0.257105	0.505814	0.602281
	H394	H	0.262236	0.505766	0.598925
	H395	H	0.256951	0.516384	0.605911
	O396	O	0.209191	1.029203	1.221164
	H397	H	0.226667	1.037825	1.224527
	H398	H	0.232211	1.019941	1.220305
	O399	O	0.660226	0.316914	0.686625
	H400	H	0.645291	0.327960	0.685144
	H401	H	0.685013	0.289322	0.713833
	O402	O	0.500574	0.712425	0.338057
	H403	H	0.474513	0.696824	0.345593
	H404	H	0.477820	0.730524	0.313710
	O405	O	0.937861	-0.227896	0.915807
	H406	H	0.929150	-0.227544	0.907537
	H407	H	0.950215	-0.230922	0.883394
	O408	O	0.204650	-0.227647	-0.039881
	H409	H	0.211186	-0.238611	-0.053773
	H410	H	0.211785	-0.239954	-0.070638
	O411	O	0.880238	1.056798	0.876582
	H412	H	0.869910	1.058902	0.858642
	H413	H	0.892631	1.044072	0.880909
	O414	O	0.271722	0.706068	0.305242
	H415	H	0.266638	0.664200	0.312032
	H416	H	0.236486	0.735573	0.278969
	O417	O	0.699521	0.508972	0.711383
	H418	H	0.707860	0.514752	0.730179
	H419	H	0.708466	0.499505	0.703449
	O420	O	0.488949	0.514305	0.661331
	H421	H	0.496112	0.532983	0.652994
	H422	H	0.490515	0.506119	0.665159
	O423	O	0.052793	0.050911	1.050128
	H424	H	0.055934	0.047439	1.044416
	H425	H	0.055169	0.047888	1.043789
	O426	O	0.286759	0.298101	0.303237
	H427	H	0.297362	0.324795	0.320627
	H428	H	0.310559	0.312946	0.325165
	O429	O	1.433288	1.581953	1.416733
	H430	H	1.438046	1.601336	1.399282
	H431	H	1.418343	1.575658	1.432849
	O432	O	0.452539	0.271334	0.718096
	H433	H	0.433976	0.286412	0.709147
	H434	H	0.447671	0.237943	0.748242
	O435	O	-0.289193	0.716845	-0.281238
	H436	H	-0.302079	0.710282	-0.300561
	H437	H	-0.302259	0.691352	-0.303507
	O438	O	0.039848	0.175700	-0.007139
	H439	H	0.064498	0.165553	0.003092
	H440	H	0.051398	0.178604	-0.001766
	O441	O	0.031923	-0.233722	0.048609
	H442	H	0.033495	-0.233959	0.033731
	H443	H	0.038181	-0.233805	0.033728
	O444	O	0.190830	0.783014	0.790065
	H445	H	0.208371	0.761526	0.771366
	H446	H	0.199261	0.838418	0.784669
	O447	O	0.197124	0.947339	0.785810
	H448	H	0.180979	0.969848	0.789341
	H449	H	0.211615	0.965112	0.763330
	O450	O	-0.042697	0.771488	1.218588
	H451	H	-0.032777	0.756492	1.214823
	H452	H	-0.028729	0.777489	1.223873
	O453	O	0.704505	0.273649	0.453634
	H454	H	0.730061	0.241591	0.453912
	H455	H	0.683221	0.278930	0.439330
	O456	O	0.703452	0.455683	0.279552
	H457	H	0.688342	0.450210	0.282955
	H458	H	0.720118	0.466015	0.251225
	O459	O	0.281993	0.698332	0.482422
	H460	H	0.265619	0.713697	0.478136
	H461	H	0.294692	0.690262	0.457765
	O462	O	1.167891	1.034988	0.935406
	H463	H	1.163361	1.026483	0.936571
	H464	H	1.172714	1.068056	0.922674
	O465	O	0.779035	0.206301	-0.042877
	H466	H	0.766287	0.216814	-0.025060
	H467	H	0.773963	0.177959	-0.026744
	O468	O	0.270731	0.520242	0.283413
	H469	H	0.268221	0.513508	0.271413
	H470	H	0.277948	0.504361	0.286299
	O471	O	0.526040	0.263695	0.267024
	H472	H	0.564759	0.262421	0.267199
	H473	H	0.540021	0.235817	0.240375
	O474	O	0.604209	0.579665	0.456188
	H475	H	0.602465	0.575714	0.447667
	H476	H	0.605520	0.589115	0.447265
	O477	O	0.772545	0.198715	1.790335
	H478	H	0.775770	0.186942	1.821213
	H479	H	0.772237	0.168015	1.806282
	O480	O	0.469414	0.649169	0.657835
	H481	H	0.488312	0.669331	0.674536
	H482	H	0.477760	0.659589	0.631290
	O483	O	0.265952	0.284519	0.507987
	H484	H	0.264423	0.259131	0.512901
	H485	H	0.279892	0.291936	0.497810
	O486	O	1.209468	0.217113	1.032192
	H487	H	1.206976	0.209161	1.079362
	H488	H	1.242357	0.249938	1.036396
	O489	O	0.777144	0.820396	0.052102
	H490	H	0.781761	0.821347	0.054461
	H491	H	0.786878	0.809158	0.046913
	O492	O	-0.253129	-0.035574	-0.108187
	H493	H	-0.263689	-0.045566	-0.117659
	H494	H	-0.255369	-0.055386	-0.117193
	O495	O	-0.057723	1.051016	1.228482
	H496	H	-0.039853	1.062957	1.219334
	H497	H	-0.062252	1.059316	1.237214
	O498	O	1.088900	1.130943	0.789112
	H499	H	1.077333	1.145026	0.771840
	H500	H	1.083095	1.156031	0.810393
	O501	O	0.929401	1.217672	1.075811
	H502	H	0.946539	1.213315	1.067181
	H503	H	0.936794	1.228389	1.071308
