data_Molecule from HDF5

_cell_length_a		16.158363
_cell_length_b		16.164297
_cell_length_c		16.317609
_cell_angle_alpha	89.980272
_cell_angle_beta	90.223632
_cell_angle_gamma	89.777502
_symmetry_space_group_name_H-M	'P 1'
_symmetry_Int_Tables_number		1

loop_
	_symmetry_equiv_pos_as_xyz
	x,y,z

loop_
	_atom_site_label
	_atom_site_type_symbol
	_atom_site_fract_x
	_atom_site_fract_y
	_atom_site_fract_z
	H0	H	0.407254	0.835942	0.708418
	H1	H	0.606249	0.163818	0.710958
	H2	H	0.605323	0.836007	0.280718
	H3	H	0.404195	0.163935	0.279453
	H4	H	0.719906	0.399611	0.831394
	H5	H	0.721431	0.598409	0.158401
	H6	H	0.289717	0.600407	0.831101
	H7	H	0.292977	0.402958	0.158674
	H8	H	0.840548	0.713323	0.396056
	H9	H	0.170849	0.711751	0.592809
	H10	H	0.839319	0.289103	0.590945
	H11	H	0.169946	0.286208	0.398751
	H12	H	0.841677	0.400455	0.709382
	H13	H	0.169868	0.599242	0.709832
	H14	H	0.841515	0.601007	0.278307
	H15	H	0.169817	0.399590	0.282026
	H16	H	0.405026	0.715665	0.831537
	H17	H	0.603796	0.714279	0.158835
	H18	H	0.605948	0.282800	0.832511
	H19	H	0.408779	0.286475	0.158980
	H20	H	0.717779	0.835225	0.397948
	H21	H	0.715985	0.166804	0.590731
	H22	H	0.294687	0.834887	0.591057
	H23	H	0.291455	0.164479	0.395773
	H24	H	0.907828	0.335074	0.207890
	H25	H	0.106221	0.663382	0.210499
	H26	H	0.105650	0.335203	0.781061
	H27	H	0.904735	0.663970	0.778710
	H28	H	0.218676	0.901804	0.330791
	H29	H	0.220451	0.098568	0.658125
	H30	H	0.790813	0.097366	0.330917
	H31	H	0.791213	0.902650	0.658762
	H32	H	0.340136	0.214174	0.896535
	H33	H	0.670658	0.212704	0.093564
	H34	H	0.339134	0.791218	0.089952
	H35	H	0.670347	0.786048	0.897870
	H36	H	0.341178	0.901725	0.208726
	H37	H	0.669502	0.099906	0.210879
	H38	H	0.341393	0.101946	0.778311
	H39	H	0.670121	0.900359	0.782246
	H40	H	0.905719	0.214135	0.330324
	H41	H	0.102325	0.212770	0.658523
	H42	H	0.102102	0.785876	0.331247
	H43	H	0.907600	0.785421	0.658840
	H44	H	0.219017	0.334827	0.898039
	H45	H	0.216145	0.665832	0.091211
	H46	H	0.793346	0.334302	0.092240
	H47	H	0.790352	0.663947	0.895214
	H48	H	0.416120	0.118130	0.590146
	H49	H	0.599922	0.880598	0.593881
	H50	H	0.596595	0.119018	0.398258
	H51	H	0.412334	0.882037	0.399937
	H52	H	0.605016	0.412465	0.111122
	H53	H	0.593159	0.597205	0.879305
	H54	H	0.418647	0.590173	0.107851
	H55	H	0.410182	0.413001	0.879749
	H56	H	0.118391	0.585985	0.410872
	H57	H	0.888019	0.597330	0.580599
	H58	H	0.125639	0.406181	0.593385
	H59	H	0.891903	0.415715	0.411162
	H60	H	0.123740	0.402367	0.586419
	H61	H	0.890578	0.584267	0.584414
	H62	H	0.125537	0.586263	0.391082
	H63	H	0.885202	0.414611	0.386455
	H64	H	0.412201	0.604969	0.114378
	H65	H	0.602681	0.593397	0.876788
	H66	H	0.592922	0.406204	0.109694
	H67	H	0.418372	0.406126	0.878749
	H68	H	0.595983	0.117694	0.403590
	H69	H	0.593028	0.884795	0.587712
	H70	H	0.413229	0.117840	0.583953
	H71	H	0.413255	0.882061	0.401130
	H72	H	0.918839	0.615994	0.089904
	H73	H	0.100011	0.381401	0.089171
	H74	H	0.107331	0.618104	0.910787
	H75	H	0.912512	0.380698	0.898865
	H76	H	0.106048	0.907821	0.613123
	H77	H	0.091915	0.095701	0.378589
	H78	H	0.905831	0.095204	0.613212
	H79	H	0.915782	0.904935	0.378784
	H80	H	0.619719	0.082710	0.906581
	H81	H	0.384677	0.098039	0.092716
	H82	H	0.624028	0.905153	0.089958
	H83	H	0.385840	0.904516	0.901051
	H84	H	0.622706	0.908298	0.086305
	H85	H	0.389468	0.094903	0.079392
	H86	H	0.625510	0.091261	0.892412
	H87	H	0.388568	0.910506	0.902935
	H88	H	0.913668	0.089917	0.609777
	H89	H	0.102836	0.096417	0.375309
	H90	H	0.096048	0.910346	0.609176
	H91	H	0.908493	0.903596	0.376839
	H92	H	0.099401	0.622308	0.887940
	H93	H	0.100706	0.381469	0.089334
	H94	H	0.912102	0.616179	0.081284
	H95	H	0.917122	0.382440	0.900747
	H96	H	0.409533	0.119690	0.588644
	H97	H	0.603378	0.882241	0.584609
	H98	H	0.600526	0.119543	0.401246
	H99	H	0.411728	0.881276	0.401253
	H100	H	0.603864	0.399866	0.113930
	H101	H	0.595281	0.586888	0.881046
	H102	H	0.402737	0.590760	0.113328
	H103	H	0.408566	0.403062	0.876179
	H104	H	0.126968	0.603095	0.402868
	H105	H	0.885792	0.592402	0.594999
	H106	H	0.121757	0.409931	0.587034
	H107	H	0.882806	0.393300	0.400506
	H108	H	0.909084	0.619624	0.090605
	H109	H	0.100401	0.381102	0.090322
	H110	H	0.084105	0.612519	0.904644
	H111	H	0.912260	0.383350	0.903297
	H112	H	0.097450	0.900363	0.613330
	H113	H	0.099033	0.086306	0.379629
	H114	H	0.914301	0.099288	0.612141
	H115	H	0.910394	0.910856	0.379183
	H116	H	0.623402	0.100105	0.907476
	H117	H	0.389021	0.084245	0.089754
	H118	H	0.622862	0.909942	0.090959
	H119	H	0.387328	0.909547	0.895945
	C120	C	0.385015	0.009263	0.615624
	C121	C	0.627107	0.991732	0.616736
	C122	C	0.626582	0.009462	0.373068
	C123	C	0.383709	0.990918	0.372885
	C124	C	0.628411	0.377215	0.003908
	C125	C	0.626981	0.621397	0.986725
	C126	C	0.382636	0.623175	0.003455
	C127	C	0.384323	0.378680	0.986514
	C128	C	0.014696	0.621169	0.372509
	C129	C	0.996914	0.620292	0.615722
	C130	C	0.014269	0.378374	0.616441
	C131	C	0.996102	0.378713	0.372821
	C132	C	0.885344	0.508024	0.115459
	C133	C	0.127906	0.490786	0.117060
	C134	C	0.126514	0.508678	0.873203
	C135	C	0.884055	0.490904	0.871950
	C136	C	0.127836	0.877545	0.503559
	C137	C	0.126686	0.121461	0.486060
	C138	C	0.883205	0.122274	0.502953
	C139	C	0.883036	0.877990	0.486515
	C140	C	0.514015	0.121215	0.873606
	C141	C	0.496655	0.121187	0.116622
	C142	C	0.514097	0.879520	0.116303
	C143	C	0.496368	0.878573	0.872451
	C144	C	0.387384	0.884949	0.670334
	C145	C	0.625643	0.115253	0.672380
	C146	C	0.625038	0.885156	0.318569
	C147	C	0.384941	0.114886	0.317710
	C148	C	0.682572	0.379395	0.880375
	C149	C	0.683321	0.619241	0.109551
	C150	C	0.327598	0.620240	0.880063
	C151	C	0.330112	0.381662	0.109665
	C152	C	0.890135	0.676250	0.375139
	C153	C	0.121365	0.674808	0.613567
	C154	C	0.889382	0.325242	0.612370
	C155	C	0.120502	0.323372	0.377003
	C156	C	0.890461	0.380564	0.671357
	C157	C	0.120778	0.619103	0.672001
	C158	C	0.890589	0.620277	0.316721
	C159	C	0.120464	0.380045	0.319500
	C160	C	0.384798	0.678018	0.880358
	C161	C	0.624769	0.676738	0.109805
	C162	C	0.625845	0.321358	0.880906
	C163	C	0.387681	0.323721	0.109760
	C164	C	0.680762	0.884732	0.376886
	C165	C	0.680415	0.116503	0.612732
	C166	C	0.331158	0.884621	0.612390
	C167	C	0.328782	0.115257	0.375498
	C168	C	0.887959	0.384091	0.170201
	C169	C	0.125517	0.614674	0.171946
	C170	C	0.125514	0.384388	0.818579
	C171	C	0.885417	0.614882	0.817014
	C172	C	0.181347	0.880965	0.380059
	C173	C	0.181977	0.118786	0.609437
	C174	C	0.828626	0.118297	0.379541
	C175	C	0.829100	0.881397	0.609813
	C176	C	0.389747	0.176940	0.875729
	C177	C	0.621081	0.175559	0.114233
	C178	C	0.389217	0.826932	0.111599
	C179	C	0.620797	0.823558	0.876592
	C180	C	0.389993	0.882005	0.170497
	C181	C	0.620559	0.119380	0.172481
	C182	C	0.390278	0.121019	0.816954
	C183	C	0.620753	0.880285	0.818955
	C184	C	0.885375	0.176605	0.379587
	C185	C	0.123528	0.175812	0.609441
	C186	C	0.123899	0.822947	0.380318
	C187	C	0.887084	0.823418	0.609895
	C188	C	0.181776	0.384133	0.876751
	C189	C	0.180336	0.615752	0.112724
	C190	C	0.831290	0.383473	0.112698
	C191	C	0.827969	0.614601	0.874501
	C192	C	0.406668	0.096096	0.594090
	C193	C	0.605241	0.904898	0.595093
	C194	C	0.604268	0.096310	0.394643
	C195	C	0.405851	0.904135	0.394439
	C196	C	0.606924	0.399388	0.089475
	C197	C	0.603851	0.599018	0.901257
	C198	C	0.404717	0.601504	0.089489
	C199	C	0.405971	0.400724	0.900589
	C200	C	0.101386	0.598403	0.394848
	C201	C	0.910475	0.597949	0.593210
	C202	C	0.101128	0.400004	0.595193
	C203	C	0.909136	0.401191	0.393417
	C204	C	0.906987	0.594946	0.093666
	C205	C	0.106798	0.403765	0.095880
	C206	C	0.103725	0.595284	0.894596
	C207	C	0.907119	0.404418	0.894333
	C208	C	0.106219	0.899526	0.589796
	C209	C	0.104416	0.099392	0.400101
	C210	C	0.904879	0.101071	0.589335
	C211	C	0.904852	0.899970	0.400568
	C212	C	0.600554	0.098169	0.895742
	C213	C	0.410119	0.098879	0.094074
	C214	C	0.601031	0.901125	0.095187
	C215	C	0.409619	0.901532	0.893516
	Zn216	Zn	0.505581	0.000394	0.744892
	Zn217	Zn	0.505336	-0.000036	0.245286
	Zn218	Zn	0.756658	0.498876	-0.005185
	Zn219	Zn	0.254649	0.500318	-0.005134
	Zn220	Zn	0.005630	0.748311	0.495253
	Zn221	Zn	0.004706	0.251070	0.494360
	Zn222	Zn	0.006131	0.500071	0.744099
	Zn223	Zn	0.005793	0.499753	0.244445
	Zn224	Zn	0.505079	0.751614	-0.004489
	Zn225	Zn	0.506044	0.249470	-0.004870
	Zn226	Zn	0.754108	0.000797	0.494816
	Zn227	Zn	0.256666	0.000258	0.494544
	N228	N	0.420172	0.963432	0.672503
	N229	N	0.593242	0.036680	0.674945
	N230	N	0.592013	0.963819	0.316072
	N231	N	0.418699	0.036674	0.316177
	N232	N	0.684325	0.413490	0.957612
	N233	N	0.684787	0.585579	0.032121
	N234	N	0.326439	0.586555	0.957570
	N235	N	0.327921	0.415093	0.032075
	N236	N	0.968150	0.676791	0.409294
	N237	N	0.043351	0.675606	0.579330
	N238	N	0.967462	0.323844	0.578814
	N239	N	0.042199	0.322683	0.409740
	N240	N	0.969052	0.412816	0.673936
	N241	N	0.042549	0.585901	0.673232
	N242	N	0.968987	0.586555	0.315149
	N243	N	0.042122	0.413613	0.316738
	N244	N	0.418361	0.680009	0.957985
	N245	N	0.590263	0.678041	0.032517
	N246	N	0.592769	0.319813	0.958449
	N247	N	0.420700	0.321874	0.032122
	N248	N	0.681831	0.962947	0.409959
	N249	N	0.681453	0.038590	0.578824
	N250	N	0.329467	0.962852	0.579049
	N251	N	0.327868	0.037259	0.409311
	N252	N	0.920593	0.462671	0.172235
	N253	N	0.093289	0.536083	0.174398
	N254	N	0.091839	0.462720	0.816223
	N255	N	0.919317	0.536747	0.815232
	N256	N	0.184080	0.914103	0.457813
	N257	N	0.183795	0.085564	0.531790
	N258	N	0.827167	0.085120	0.457278
	N259	N	0.826525	0.914480	0.532157
	N260	N	0.467577	0.176923	0.910290
	N261	N	0.543092	0.176679	0.080114
	N262	N	0.467426	0.825313	0.078602
	N263	N	0.542560	0.822369	0.909255
	N264	N	0.468712	0.914164	0.173678
	N265	N	0.542261	0.086234	0.173992
	N266	N	0.468631	0.087131	0.815299
	N267	N	0.542295	0.913764	0.816238
	N268	N	0.918503	0.179121	0.457422
	N269	N	0.089820	0.177560	0.531822
	N270	N	0.091185	0.820927	0.458061
	N271	N	0.919797	0.821013	0.532160
	N272	N	0.182583	0.462306	0.909947
	N273	N	0.181878	0.537614	0.079261
	N274	N	0.829646	0.461536	0.079103
	N275	N	0.827162	0.536469	0.908176
	O276	O	0.940648	0.978256	-0.009610
	H277	H	0.943815	0.977386	-0.016581
	H278	H	0.941392	0.973191	-0.015268
	O279	O	-0.058532	-0.008243	0.031759
	H280	H	-0.058712	-0.002293	0.030576
	H281	H	-0.066800	-0.010869	0.033149
	O282	O	0.015464	-0.045963	0.961930
	H283	H	0.016454	-0.049281	0.956734
	H284	H	0.010141	-0.048944	0.958850
	O285	O	0.499179	0.517027	0.602156
	H286	H	0.501230	0.519523	0.604870
	H287	H	0.492916	0.511614	0.602714
	O288	O	0.508406	0.533608	0.519741
	H289	H	0.502310	0.527028	0.525185
	H290	H	0.507329	0.535550	0.525224
	O291	O	0.488219	0.551470	0.507619
	H292	H	0.487419	0.555910	0.498756
	H293	H	0.490366	0.550384	0.508025
	O294	O	-0.465783	-0.434484	0.563081
	H295	H	-0.464148	-0.433375	0.569430
	H296	H	-0.475385	-0.424970	0.563759
	O297	O	0.514225	0.573114	0.525239
	H298	H	0.509662	0.580089	0.530044
	H299	H	0.519125	0.583855	0.528149
	O300	O	-0.019673	0.956519	1.019504
	H301	H	-0.018407	0.956513	1.021575
	H302	H	-0.021321	0.963118	1.024391
	O303	O	0.515265	0.511924	0.543651
	H304	H	0.515594	0.505442	0.535414
	H305	H	0.521049	0.513918	0.539653
	O306	O	-0.020656	-0.030113	0.984580
	H307	H	-0.025892	-0.033047	0.983429
	H308	H	-0.030632	-0.029013	0.991514
	O309	O	0.985926	0.989586	0.945894
	H310	H	0.982173	0.994531	0.947249
	H311	H	0.992550	0.996832	0.945567
	O312	O	0.530003	0.505110	0.529781
	H313	H	0.535952	0.508510	0.533055
	H314	H	0.538453	0.512534	0.533753
	O315	O	0.474903	0.532027	0.557347
	H316	H	0.470346	0.529426	0.551546
	H317	H	0.474187	0.534792	0.560725
	O318	O	-0.043396	1.008568	-0.008908
	H319	H	-0.041879	1.007866	-0.019434
	H320	H	-0.049861	1.002747	-0.006650
	O321	O	0.963976	1.004711	-0.023004
	H322	H	0.974847	1.012660	-0.025357
	H323	H	0.960801	1.000141	-0.015833
