data_Molecule from HDF5

_cell_length_a		16.266653
_cell_length_b		16.555559
_cell_length_c		15.936947
_cell_angle_alpha	89.812294
_cell_angle_beta	90.106904
_cell_angle_gamma	89.914321
_symmetry_space_group_name_H-M	'P 1'
_symmetry_Int_Tables_number		1

loop_
	_symmetry_equiv_pos_as_xyz
	x,y,z

loop_
	_atom_site_label
	_atom_site_type_symbol
	_atom_site_fract_x
	_atom_site_fract_y
	_atom_site_fract_z
	H0	H	0.405074	0.839817	0.709436
	H1	H	0.600972	0.161976	0.708854
	H2	H	0.599527	0.840201	0.278965
	H3	H	0.404000	0.163766	0.277981
	H4	H	0.714712	0.400937	0.830008
	H5	H	0.712706	0.599521	0.161027
	H6	H	0.285911	0.599632	0.828929
	H7	H	0.287521	0.401909	0.160988
	H8	H	0.842128	0.723050	0.388116
	H9	H	0.164280	0.717976	0.599682
	H10	H	0.843255	0.276786	0.605673
	H11	H	0.161622	0.279727	0.387995
	H12	H	0.835908	0.407041	0.703596
	H13	H	0.165788	0.595180	0.708187
	H14	H	0.836677	0.598686	0.283351
	H15	H	0.164976	0.405184	0.281918
	H16	H	0.395622	0.718278	0.829633
	H17	H	0.603440	0.718263	0.157731
	H18	H	0.604578	0.283827	0.831305
	H19	H	0.393629	0.280468	0.156852
	H20	H	0.721546	0.841576	0.390120
	H21	H	0.722987	0.159241	0.598210
	H22	H	0.284618	0.839854	0.595585
	H23	H	0.277394	0.159216	0.386048
	H24	H	0.898751	0.341319	0.215092
	H25	H	0.097971	0.662533	0.210922
	H26	H	0.097977	0.338731	0.781674
	H27	H	0.900718	0.661028	0.777694
	H28	H	0.214396	0.899752	0.328387
	H29	H	0.216019	0.095981	0.660248
	H30	H	0.787821	0.101573	0.328413
	H31	H	0.787453	0.899548	0.659872
	H32	H	0.340574	0.223115	0.883919
	H33	H	0.659005	0.223514	0.101607
	H34	H	0.339581	0.781743	0.100326
	H35	H	0.659289	0.777509	0.885080
	H36	H	0.337801	0.905129	0.208844
	H37	H	0.665022	0.098881	0.206032
	H38	H	0.337126	0.097205	0.779246
	H39	H	0.665709	0.904686	0.781230
	H40	H	0.896185	0.222576	0.333044
	H41	H	0.109540	0.216804	0.659460
	H42	H	0.105134	0.783667	0.330240
	H43	H	0.899755	0.783189	0.658837
	H44	H	0.222638	0.342733	0.890525
	H45	H	0.220656	0.660286	0.100404
	H46	H	0.779726	0.342041	0.100369
	H47	H	0.778371	0.658936	0.888617
	H48	H	0.412504	0.112160	0.582344
	H49	H	0.604531	0.881997	0.595602
	H50	H	0.600199	0.117251	0.398846
	H51	H	0.413982	0.891093	0.405337
	H52	H	0.593127	0.404551	0.116137
	H53	H	0.584282	0.592322	0.877876
	H54	H	0.420797	0.590471	0.108901
	H55	H	0.420334	0.406763	0.877627
	H56	H	0.117375	0.597288	0.410572
	H57	H	0.885957	0.596457	0.581439
	H58	H	0.117141	0.408598	0.581583
	H59	H	0.891263	0.418532	0.413353
	H60	H	0.118717	0.409098	0.590542
	H61	H	0.885118	0.593987	0.584729
	H62	H	0.116208	0.588199	0.405976
	H63	H	0.881692	0.408688	0.398099
	H64	H	0.408700	0.604448	0.117700
	H65	H	0.589376	0.594167	0.874343
	H66	H	0.590197	0.419161	0.111070
	H67	H	0.404187	0.407015	0.871940
	H68	H	0.591189	0.114870	0.399121
	H69	H	0.582575	0.889089	0.588286
	H70	H	0.403909	0.114161	0.578425
	H71	H	0.401329	0.886940	0.406785
	H72	H	0.904657	0.613105	0.079238
	H73	H	0.099692	0.388791	0.079335
	H74	H	0.088408	0.614053	0.901391
	H75	H	0.909952	0.387472	0.900804
	H76	H	0.086360	0.900796	0.612908
	H77	H	0.086729	0.093258	0.376804
	H78	H	0.910592	0.085727	0.612323
	H79	H	0.909564	0.914625	0.375803
	H80	H	0.618562	0.091507	0.896630
	H81	H	0.384763	0.094428	0.080175
	H82	H	0.616700	0.903829	0.082336
	H83	H	0.388316	0.914982	0.907816
	H84	H	0.615858	0.908572	0.081675
	H85	H	0.384996	0.091738	0.081918
	H86	H	0.618692	0.103864	0.907061
	H87	H	0.382101	0.908975	0.894908
	H88	H	0.919034	0.087717	0.610371
	H89	H	0.090259	0.092713	0.375944
	H90	H	0.101200	0.904595	0.618054
	H91	H	0.918132	0.910349	0.378487
	H92	H	0.092574	0.612618	0.908569
	H93	H	0.098603	0.384199	0.096423
	H94	H	0.899839	0.617179	0.089733
	H95	H	0.905057	0.387749	0.908750
	H96	H	0.405971	0.116465	0.587929
	H97	H	0.600384	0.889180	0.572244
	H98	H	0.596986	0.114336	0.406946
	H99	H	0.408227	0.885446	0.394852
	H100	H	0.578193	0.408165	0.110191
	H101	H	0.590106	0.587535	0.876328
	H102	H	0.401636	0.586561	0.114410
	H103	H	0.410518	0.421523	0.879180
	H104	H	0.119104	0.596159	0.400586
	H105	H	0.884485	0.597626	0.585000
	H106	H	0.120057	0.401369	0.586484
	H107	H	0.886179	0.399166	0.416092
	H108	H	0.912542	0.613962	0.089825
	H109	H	0.084947	0.389378	0.087031
	H110	H	0.097038	0.616285	0.902148
	H111	H	0.901550	0.383217	0.901289
	H112	H	0.092216	0.915288	0.610494
	H113	H	0.088477	0.090587	0.378140
	H114	H	0.913870	0.094191	0.613797
	H115	H	0.911668	0.905243	0.373493
	H116	H	0.612335	0.090008	0.911829
	H117	H	0.383816	0.093926	0.083632
	H118	H	0.617954	0.907270	0.085195
	H119	H	0.383817	0.900864	0.908178
	C120	C	0.379133	0.008799	0.614218
	C121	C	0.625257	0.992388	0.616029
	C122	C	0.625285	0.009575	0.371472
	C123	C	0.377967	0.993160	0.370848
	C124	C	0.619183	0.380498	0.003803
	C125	C	0.619798	0.621423	0.985179
	C126	C	0.379555	0.622881	0.004127
	C127	C	0.380180	0.380721	0.985196
	C128	C	0.010474	0.623732	0.374140
	C129	C	0.993037	0.623269	0.615443
	C130	C	0.010912	0.377694	0.616587
	C131	C	0.993091	0.379572	0.376256
	C132	C	0.876663	0.509524	0.117636
	C133	C	0.123228	0.493368	0.117848
	C134	C	0.122601	0.508697	0.873571
	C135	C	0.875968	0.491670	0.872425
	C136	C	0.122459	0.878435	0.503785
	C137	C	0.121319	0.120968	0.486022
	C138	C	0.882375	0.121276	0.503825
	C139	C	0.882694	0.879932	0.485507
	C140	C	0.509309	0.123940	0.872876
	C141	C	0.491776	0.123031	0.113776
	C142	C	0.509763	0.878639	0.114858
	C143	C	0.492093	0.879093	0.872575
	C144	C	0.383165	0.887696	0.671295
	C145	C	0.622381	0.113414	0.671742
	C146	C	0.621620	0.888732	0.315869
	C147	C	0.381436	0.114806	0.314900
	C148	C	0.676683	0.381359	0.879682
	C149	C	0.675813	0.619845	0.110561
	C150	C	0.322942	0.620739	0.878798
	C151	C	0.324247	0.381506	0.110571
	C152	C	0.889540	0.682454	0.371198
	C153	C	0.115519	0.679214	0.617642
	C154	C	0.890187	0.318481	0.620597
	C155	C	0.113975	0.320663	0.371769
	C156	C	0.886324	0.383101	0.669686
	C157	C	0.116309	0.618068	0.671800
	C158	C	0.887018	0.620325	0.319036
	C159	C	0.115565	0.382976	0.318731
	C160	C	0.377406	0.679817	0.879344
	C161	C	0.621450	0.679143	0.108940
	C162	C	0.622142	0.322686	0.880552
	C163	C	0.377003	0.321014	0.108373
	C164	C	0.682258	0.889361	0.371409
	C165	C	0.683386	0.111848	0.616934
	C166	C	0.323452	0.887777	0.614553
	C167	C	0.318596	0.112322	0.368607
	C168	C	0.878431	0.389133	0.175853
	C169	C	0.119332	0.614206	0.173357
	C170	C	0.120071	0.387516	0.818215
	C171	C	0.878949	0.612604	0.815433
	C172	C	0.177437	0.880289	0.378426
	C173	C	0.178961	0.117731	0.610449
	C174	C	0.825267	0.121647	0.378941
	C175	C	0.825367	0.880207	0.609954
	C176	C	0.388425	0.182577	0.868051
	C177	C	0.612078	0.182543	0.117771
	C178	C	0.387865	0.821334	0.117604
	C179	C	0.612609	0.819307	0.868952
	C180	C	0.386917	0.882674	0.171745
	C181	C	0.615039	0.120372	0.169772
	C182	C	0.386668	0.120154	0.815652
	C183	C	0.615616	0.882248	0.816986
	C184	C	0.879522	0.181786	0.381129
	C185	C	0.125786	0.177683	0.610019
	C186	C	0.123475	0.822057	0.379385
	C187	C	0.881335	0.822120	0.609590
	C188	C	0.181785	0.389563	0.872850
	C189	C	0.180652	0.612993	0.118518
	C190	C	0.818999	0.389708	0.118847
	C191	C	0.818031	0.611509	0.870676
	C192	C	0.401042	0.092516	0.589957
	C193	C	0.602504	0.908462	0.592428
	C194	C	0.602747	0.093778	0.394797
	C195	C	0.401097	0.909581	0.395005
	C196	C	0.594375	0.403793	0.090309
	C197	C	0.595170	0.598277	0.898680
	C198	C	0.403414	0.600568	0.091044
	C199	C	0.404498	0.404738	0.898844
	C200	C	0.095716	0.600693	0.398689
	C201	C	0.907553	0.602204	0.591032
	C202	C	0.096307	0.399739	0.593046
	C203	C	0.908411	0.402195	0.401698
	C204	C	0.899181	0.593146	0.093417
	C205	C	0.100892	0.409243	0.094443
	C206	C	0.099246	0.592573	0.896967
	C207	C	0.898851	0.408121	0.896446
	C208	C	0.100093	0.900478	0.591078
	C209	C	0.095885	0.098622	0.399514
	C210	C	0.907278	0.096347	0.589820
	C211	C	0.906320	0.903189	0.398567
	C212	C	0.594524	0.101624	0.897933
	C213	C	0.406776	0.100037	0.089079
	C214	C	0.594790	0.900196	0.090377
	C215	C	0.406921	0.901883	0.896717
	Zn216	Zn	0.501657	0.001610	0.744689
	Zn217	Zn	0.502025	0.002033	0.241930
	Zn218	Zn	0.746682	0.500559	-0.004707
	Zn219	Zn	0.253387	0.501410	-0.004111
	Zn220	Zn	0.003218	0.752569	0.494363
	Zn221	Zn	0.002929	0.249082	0.496802
	Zn222	Zn	0.000409	0.499984	0.743292
	Zn223	Zn	0.000038	0.501448	0.246960
	Zn224	Zn	0.500021	0.749860	-0.006906
	Zn225	Zn	0.499478	0.252803	-0.005557
	Zn226	Zn	0.755220	0.000376	0.494279
	Zn227	Zn	0.247063	0.000098	0.493371
	N228	N	0.417323	0.963601	0.671229
	N229	N	0.587113	0.038046	0.671588
	N230	N	0.587091	0.964652	0.315538
	N231	N	0.417309	0.039569	0.315640
	N232	N	0.675109	0.416414	0.957555
	N233	N	0.675042	0.584959	0.032487
	N234	N	0.323877	0.586314	0.957427
	N235	N	0.325725	0.417755	0.032783
	N236	N	0.967434	0.684589	0.404808
	N237	N	0.037696	0.682972	0.583796
	N238	N	0.968763	0.314783	0.588768
	N239	N	0.036873	0.318300	0.406907
	N240	N	0.962378	0.419279	0.667516
	N241	N	0.039245	0.583933	0.670630
	N242	N	0.963227	0.584452	0.320781
	N243	N	0.039248	0.418907	0.321295
	N244	N	0.411796	0.681305	0.958270
	N245	N	0.587026	0.680178	0.030056
	N246	N	0.586935	0.322118	0.958921
	N247	N	0.411070	0.320487	0.029516
	N248	N	0.684826	0.965740	0.405007
	N249	N	0.685213	0.035628	0.582988
	N250	N	0.320745	0.963967	0.579800
	N251	N	0.316254	0.035837	0.402658
	N252	N	0.913760	0.464531	0.175269
	N253	N	0.084287	0.538733	0.172995
	N254	N	0.083970	0.462625	0.818526
	N255	N	0.914278	0.537166	0.815909
	N256	N	0.176962	0.914750	0.456767
	N257	N	0.176297	0.083207	0.532057
	N258	N	0.826657	0.084788	0.456398
	N259	N	0.826095	0.915443	0.531747
	N260	N	0.465805	0.185025	0.902910
	N261	N	0.534427	0.184276	0.083704
	N262	N	0.465148	0.818740	0.082915
	N263	N	0.534742	0.817053	0.902421
	N264	N	0.463456	0.917765	0.170159
	N265	N	0.539234	0.083711	0.167286
	N266	N	0.462911	0.084367	0.818326
	N267	N	0.539644	0.918785	0.819099
	N268	N	0.914176	0.181558	0.459874
	N269	N	0.090518	0.179621	0.531628
	N270	N	0.089887	0.820818	0.458373
	N271	N	0.916372	0.822046	0.531072
	N272	N	0.183653	0.465970	0.906475
	N273	N	0.183080	0.536827	0.084705
	N274	N	0.818055	0.465433	0.083242
	N275	N	0.815957	0.535388	0.905250
	O276	O	0.189585	-0.127907	-0.116124
	H277	H	0.192769	-0.119811	-0.118941
	H278	H	0.193717	-0.126199	-0.113668
	O279	O	0.426414	0.645816	0.421863
	H280	H	0.421644	0.642678	0.423037
	H281	H	0.418217	0.641950	0.426821
	O282	O	0.928178	0.158569	-0.048253
	H283	H	0.921209	0.165212	-0.050558
	H284	H	0.927412	0.157494	-0.047038
	O285	O	0.089073	0.836106	-0.168066
	H286	H	0.097648	0.869196	-0.173335
	H287	H	0.076686	0.823440	-0.178508
	O288	O	0.423251	0.552078	0.487423
	H289	H	0.426455	0.560270	0.489628
	H290	H	0.436984	0.553624	0.471416
	O291	O	0.548168	0.397577	0.503443
	H292	H	0.538394	0.408616	0.510587
	H293	H	0.544023	0.383766	0.501798
	O294	O	0.862259	0.967678	1.064290
	H295	H	0.865388	0.960312	1.064297
	H296	H	0.852107	0.964032	1.050023
	O297	O	-0.165638	-0.142404	0.122707
	H298	H	-0.174211	-0.142184	0.137525
	H299	H	-0.158065	-0.161144	0.108784
	O300	O	0.475762	0.562653	0.480346
	H301	H	0.485224	0.564330	0.477029
	H302	H	0.481752	0.573452	0.474247
	O303	O	-0.014666	0.867352	1.026196
	H304	H	-0.007089	0.865983	1.014017
	H305	H	-0.000387	0.866246	1.014605
	O306	O	-0.051463	0.908493	-0.064603
	H307	H	-0.052629	0.892303	-0.069574
	H308	H	-0.047291	0.925944	-0.064419
	O309	O	0.821940	0.050899	0.033116
	H310	H	0.826231	0.042107	0.051205
	H311	H	0.823719	0.048010	0.041211
	O312	O	0.118773	-0.083219	1.133900
	H313	H	0.107061	-0.095849	1.123031
	H314	H	0.120586	-0.083061	1.156182
	O315	O	0.522271	0.559062	0.511221
	H316	H	0.528300	0.556749	0.516983
	H317	H	0.525856	0.560002	0.509178
	O318	O	0.537372	0.486339	0.454556
	H319	H	0.543071	0.481368	0.458077
	H320	H	0.533966	0.489498	0.443444
	O321	O	0.393812	0.502578	0.528879
	H322	H	0.392312	0.516503	0.521835
	H323	H	0.385821	0.501741	0.524803
	O324	O	0.478164	0.597053	0.478858
	H325	H	0.481466	0.592251	0.483587
	H326	H	0.484831	0.601850	0.477289
	O327	O	0.029518	1.142540	1.119027
	H328	H	0.027730	1.144932	1.117433
	H329	H	0.026529	1.150628	1.097575
	O330	O	0.447502	0.417142	0.549942
	H331	H	0.442248	0.406755	0.551581
	H332	H	0.438321	0.425115	0.538513
	O333	O	0.067892	0.917314	0.972142
	H334	H	0.063208	0.907616	0.963055
	H335	H	0.064698	0.914441	0.955394
	O336	O	0.876231	0.828556	1.041826
	H337	H	0.886717	0.819901	1.043693
	H338	H	0.881087	0.849474	1.035455
	O339	O	0.617759	0.486698	0.528194
	H340	H	0.623682	0.479256	0.529085
	H341	H	0.607440	0.491945	0.515547
	O342	O	1.138786	0.156559	0.034560
	H343	H	1.135327	0.145227	0.026238
	H344	H	1.145850	0.165746	0.041225
	O345	O	0.392138	0.504921	0.557043
	H346	H	0.404294	0.502434	0.558775
	H347	H	0.392976	0.512070	0.550815
	O348	O	0.900857	1.017548	0.982537
	H349	H	0.887594	1.012607	0.996505
	H350	H	0.890956	1.041114	0.967035
	O351	O	0.895582	0.960111	-0.063834
	H352	H	0.897438	0.966127	-0.056636
	H353	H	0.887862	0.955448	-0.072774
	O354	O	0.512470	0.499498	0.534378
	H355	H	0.504397	0.506390	0.531004
	H356	H	0.510387	0.510046	0.521284
	O357	O	0.526925	0.442839	0.598382
	H358	H	0.505864	0.441103	0.608738
	H359	H	0.523177	0.446501	0.599814
	O360	O	-0.105071	-0.006080	0.068302
	H361	H	-0.107753	-0.003197	0.074298
	H362	H	-0.102388	-0.011760	0.075551
	O363	O	0.499503	0.517859	0.623356
	H364	H	0.495914	0.524686	0.618811
	H365	H	0.490245	0.495846	0.623652
	O366	O	0.057414	0.162731	1.082680
	H367	H	0.075001	0.160475	1.079617
	H368	H	0.057071	0.161983	1.086155
	O369	O	0.558766	0.378546	0.469244
	H370	H	0.550962	0.377111	0.458726
	H371	H	0.558404	0.372187	0.473263
	O372	O	0.472751	0.401037	0.419518
	H373	H	0.472479	0.399481	0.424743
	H374	H	0.473414	0.406852	0.419144
	O375	O	0.596171	0.508699	0.581547
	H376	H	0.597716	0.506643	0.594217
	H377	H	0.598106	0.500612	0.589952
	O378	O	0.551598	0.510002	0.359183
	H379	H	0.555360	0.501255	0.351040
	H380	H	0.553816	0.496572	0.367486
	O381	O	0.516002	0.403931	0.390789
	H382	H	0.517706	0.401028	0.399560
	H383	H	0.524279	0.410214	0.384381
	O384	O	0.153306	0.998629	0.138055
	H385	H	0.176357	1.007970	0.156777
	H386	H	0.153976	1.008912	0.122584
	O387	O	1.125178	-0.033960	1.113260
	H388	H	1.133605	-0.047876	1.107750
	H389	H	1.114686	-0.043012	1.114828
	O390	O	-0.127572	1.098244	-0.140515
	H391	H	-0.129059	1.117741	-0.132017
	H392	H	-0.138299	1.089175	-0.141579
	O393	O	1.120574	0.967572	-0.136879
	H394	H	1.120372	0.974145	-0.125966
	H395	H	1.101981	0.960091	-0.128329
	O396	O	1.052561	0.063453	0.951203
	H397	H	1.059752	0.054650	0.954636
	H398	H	1.041844	0.058741	0.945067
	O399	O	0.020794	1.122533	0.866651
	H400	H	0.013548	1.108669	0.865839
	H401	H	0.010122	1.113086	0.865706
	O402	O	0.990213	1.186467	0.928869
	H403	H	0.991339	1.190943	0.924769
	H404	H	0.984427	1.195122	0.925720
	O405	O	0.635471	0.539864	0.518619
	H406	H	0.645347	0.534480	0.515504
	H407	H	0.633856	0.530747	0.523713
