data_Molecule from HDF5

_cell_length_a		16.246288
_cell_length_b		16.016117
_cell_length_c		16.250643
_cell_angle_alpha	88.429717
_cell_angle_beta	90.867881
_cell_angle_gamma	89.674504
_symmetry_space_group_name_H-M	'P 1'
_symmetry_Int_Tables_number		1

loop_
	_symmetry_equiv_pos_as_xyz
	x,y,z

loop_
	_atom_site_label
	_atom_site_type_symbol
	_atom_site_fract_x
	_atom_site_fract_y
	_atom_site_fract_z
	H0	H	0.412928	0.844866	0.721709
	H1	H	0.611883	0.175865	0.713962
	H2	H	0.603484	0.843068	0.302911
	H3	H	0.403012	0.173708	0.279655
	H4	H	0.722627	0.415258	0.841001
	H5	H	0.726106	0.606745	0.167063
	H6	H	0.288870	0.618578	0.841787
	H7	H	0.295178	0.405315	0.168403
	H8	H	0.843150	0.726223	0.403054
	H9	H	0.172792	0.718498	0.605617
	H10	H	0.842535	0.292478	0.605814
	H11	H	0.172437	0.300177	0.417414
	H12	H	0.843934	0.405847	0.723393
	H13	H	0.171189	0.603565	0.722737
	H14	H	0.845805	0.620336	0.280881
	H15	H	0.170229	0.409064	0.295581
	H16	H	0.407520	0.729788	0.840626
	H17	H	0.604079	0.712943	0.171343
	H18	H	0.604683	0.302059	0.838533
	H19	H	0.413820	0.290593	0.167919
	H20	H	0.721844	0.846034	0.408158
	H21	H	0.721936	0.176097	0.597822
	H22	H	0.295132	0.844737	0.608259
	H23	H	0.291792	0.177241	0.396492
	H24	H	0.911515	0.345650	0.223838
	H25	H	0.108767	0.677337	0.217372
	H26	H	0.105579	0.343306	0.804780
	H27	H	0.902965	0.673957	0.782731
	H28	H	0.222358	0.912977	0.340144
	H29	H	0.228623	0.107502	0.665738
	H30	H	0.790761	0.116933	0.340148
	H31	H	0.792926	0.903306	0.667366
	H32	H	0.344360	0.227494	0.898630
	H33	H	0.673090	0.218453	0.101402
	H34	H	0.343071	0.795560	0.100890
	H35	H	0.674780	0.800320	0.917713
	H36	H	0.345124	0.905950	0.219817
	H37	H	0.671984	0.105265	0.219838
	H38	H	0.348159	0.118975	0.777666
	H39	H	0.673277	0.910671	0.795802
	H40	H	0.905397	0.232483	0.342146
	H41	H	0.105745	0.212536	0.671561
	H42	H	0.104252	0.798977	0.339440
	H43	H	0.914401	0.792443	0.669598
	H44	H	0.221804	0.346569	0.911130
	H45	H	0.223016	0.677325	0.101747
	H46	H	0.794098	0.346032	0.110927
	H47	H	0.793454	0.676652	0.900188
	H48	H	0.418705	0.131500	0.597019
	H49	H	0.605255	0.888812	0.605197
	H50	H	0.597923	0.134394	0.397203
	H51	H	0.425080	0.897926	0.427767
	H52	H	0.602116	0.411243	0.121417
	H53	H	0.597069	0.605605	0.887622
	H54	H	0.416991	0.605407	0.123539
	H55	H	0.409017	0.420770	0.885926
	H56	H	0.124652	0.597841	0.411312
	H57	H	0.893268	0.588471	0.600488
	H58	H	0.121989	0.410603	0.601155
	H59	H	0.889559	0.418852	0.414538
	H60	H	0.124234	0.418906	0.612508
	H61	H	0.885311	0.609038	0.603049
	H62	H	0.126901	0.605788	0.409359
	H63	H	0.890700	0.425169	0.416296
	H64	H	0.408547	0.598470	0.124906
	H65	H	0.598394	0.613671	0.884724
	H66	H	0.604320	0.414534	0.121965
	H67	H	0.412039	0.426522	0.886911
	H68	H	0.589509	0.127106	0.412309
	H69	H	0.596389	0.891482	0.603056
	H70	H	0.424271	0.124947	0.585103
	H71	H	0.397308	0.887259	0.417551
	H72	H	0.920913	0.627230	0.090745
	H73	H	0.105327	0.391876	0.099338
	H74	H	0.095338	0.629973	0.912098
	H75	H	0.913375	0.389589	0.917293
	H76	H	0.107929	0.910914	0.623157
	H77	H	0.093485	0.115412	0.385786
	H78	H	0.910724	0.091257	0.621491
	H79	H	0.916935	0.921439	0.387594
	H80	H	0.621929	0.092379	0.914303
	H81	H	0.393916	0.100487	0.086957
	H82	H	0.625264	0.917852	0.111727
	H83	H	0.394563	0.930189	0.911292
	H84	H	0.630676	0.902493	0.113032
	H85	H	0.393007	0.093918	0.094321
	H86	H	0.630958	0.106509	0.896832
	H87	H	0.389290	0.918834	0.902735
	H88	H	0.919931	0.099371	0.621098
	H89	H	0.106434	0.107914	0.384125
	H90	H	0.105693	0.919842	0.620048
	H91	H	0.910608	0.916734	0.384841
	H92	H	0.100613	0.632183	0.910017
	H93	H	0.101509	0.391201	0.107581
	H94	H	0.911742	0.631222	0.088361
	H95	H	0.914852	0.389967	0.916847
	H96	H	0.410585	0.129925	0.585825
	H97	H	0.603558	0.892102	0.595623
	H98	H	0.607329	0.132555	0.412541
	H99	H	0.420877	0.887550	0.398793
	H100	H	0.601006	0.415405	0.120457
	H101	H	0.605605	0.607876	0.885099
	H102	H	0.417007	0.595856	0.120992
	H103	H	0.413650	0.421577	0.887930
	H104	H	0.124091	0.603532	0.417209
	H105	H	0.892911	0.602891	0.584187
	H106	H	0.128561	0.404133	0.613445
	H107	H	0.888850	0.421855	0.409497
	H108	H	0.915039	0.632064	0.098038
	H109	H	0.096705	0.394868	0.101510
	H110	H	0.095984	0.631616	0.907297
	H111	H	0.913671	0.391148	0.917842
	H112	H	0.098884	0.912153	0.620249
	H113	H	0.094343	0.100424	0.389142
	H114	H	0.908654	0.101933	0.624971
	H115	H	0.908252	0.925103	0.387484
	H116	H	0.627437	0.115331	0.917951
	H117	H	0.388020	0.103231	0.095558
	H118	H	0.624873	0.909768	0.098551
	H119	H	0.391872	0.915773	0.916586
	C120	C	0.388913	0.019470	0.622932
	C121	C	0.631324	1.000863	0.626290
	C122	C	0.626998	0.020443	0.383362
	C123	C	0.384586	1.000814	0.381177
	C124	C	0.630205	0.388302	0.012781
	C125	C	0.628963	0.632503	0.995406
	C126	C	0.384676	0.632618	0.014267
	C127	C	0.385218	0.389473	0.995230
	C128	C	0.016725	0.633775	0.381501
	C129	C	0.999129	0.627904	0.626194
	C130	C	0.015986	0.383785	0.633757
	C131	C	0.998034	0.391565	0.387403
	C132	C	0.887508	0.520546	0.125268
	C133	C	0.130431	0.502547	0.128604
	C134	C	0.126504	0.520472	0.885873
	C135	C	0.884833	0.500310	0.884351
	C136	C	0.130952	0.887540	0.512655
	C137	C	0.128308	0.132034	0.495389
	C138	C	0.884417	0.131668	0.513772
	C139	C	0.885589	0.888502	0.495272
	C140	C	0.518277	0.135083	0.878452
	C141	C	0.499631	0.127998	0.123515
	C142	C	0.517893	0.883439	0.131609
	C143	C	0.500497	0.891553	0.885184
	C144	C	0.391682	0.894439	0.682655
	C145	C	0.630560	0.125985	0.677776
	C146	C	0.624130	0.893609	0.336090
	C147	C	0.384450	0.124745	0.319797
	C148	C	0.684970	0.393645	0.889652
	C149	C	0.686552	0.627241	0.118839
	C150	C	0.327878	0.635823	0.890529
	C151	C	0.332316	0.387009	0.119002
	C152	C	0.892969	0.690035	0.382192
	C153	C	0.123272	0.681539	0.624998
	C154	C	0.892197	0.329492	0.627500
	C155	C	0.122665	0.336587	0.394521
	C156	C	0.892677	0.385914	0.686111
	C157	C	0.122513	0.624214	0.683612
	C158	C	0.894278	0.636956	0.321518
	C159	C	0.121466	0.390870	0.333705
	C160	C	0.386696	0.691462	0.890271
	C161	C	0.625978	0.680100	0.121018
	C162	C	0.625776	0.337563	0.888436
	C163	C	0.391103	0.329692	0.118748
	C164	C	0.683163	0.895282	0.388497
	C165	C	0.685665	0.126234	0.619971
	C166	C	0.333579	0.894331	0.625565
	C167	C	0.328967	0.126375	0.378016
	C168	C	0.890599	0.395275	0.184674
	C169	C	0.128540	0.627407	0.180921
	C170	C	0.125026	0.394072	0.838041
	C171	C	0.884797	0.624823	0.823229
	C172	C	0.184845	0.892175	0.389108
	C173	C	0.187994	0.127183	0.617939
	C174	C	0.828552	0.135208	0.389712
	C175	C	0.831465	0.886208	0.618636
	C176	C	0.394273	0.190816	0.878378
	C177	C	0.623482	0.181811	0.121923
	C178	C	0.393092	0.831110	0.124203
	C179	C	0.625112	0.837095	0.894059
	C180	C	0.394302	0.886172	0.183433
	C181	C	0.622927	0.125180	0.180957
	C182	C	0.395987	0.136623	0.818254
	C183	C	0.624376	0.891880	0.833266
	C184	C	0.886009	0.192470	0.390735
	C185	C	0.126777	0.179609	0.620891
	C186	C	0.126533	0.834938	0.389039
	C187	C	0.891705	0.830561	0.619856
	C188	C	0.183074	0.395840	0.891146
	C189	C	0.185185	0.627644	0.122972
	C190	C	0.832176	0.395377	0.128553
	C191	C	0.830412	0.626538	0.881688
	C192	C	0.411248	0.106227	0.597020
	C193	C	0.608659	0.913419	0.607118
	C194	C	0.604717	0.108531	0.401799
	C195	C	0.407542	0.913415	0.407001
	C196	C	0.608812	0.407890	0.098926
	C197	C	0.606770	0.614399	0.908360
	C198	C	0.407488	0.607265	0.100619
	C199	C	0.405538	0.415389	0.909227
	C200	C	0.102988	0.609448	0.405550
	C201	C	0.912759	0.606495	0.602725
	C202	C	0.102609	0.405055	0.614719
	C203	C	0.912195	0.415127	0.407318
	C204	C	0.909390	0.607517	0.099790
	C205	C	0.107808	0.415160	0.108635
	C206	C	0.103969	0.608593	0.904362
	C207	C	0.907302	0.412828	0.909927
	C208	C	0.110173	0.908041	0.598797
	C209	C	0.104721	0.113469	0.408761
	C210	C	0.906651	0.105260	0.600072
	C211	C	0.905933	0.913618	0.408933
	C212	C	0.604348	0.111674	0.902551
	C213	C	0.413697	0.105744	0.099367
	C214	C	0.604417	0.903862	0.113242
	C215	C	0.414163	0.914734	0.904455
	Zn216	Zn	0.510175	0.011794	0.752855
	Zn217	Zn	0.508246	0.008431	0.256304
	Zn218	Zn	0.758232	0.511452	0.004005
	Zn219	Zn	0.255630	0.512139	0.004546
	Zn220	Zn	0.008251	0.759296	0.504143
	Zn221	Zn	0.006995	0.259486	0.507804
	Zn222	Zn	0.006819	0.508060	0.759594
	Zn223	Zn	0.007400	0.511913	0.255498
	Zn224	Zn	0.508006	0.759545	0.006445
	Zn225	Zn	0.508210	0.259735	0.002438
	Zn226	Zn	0.755410	0.010473	0.503270
	Zn227	Zn	0.258462	0.011275	0.502448
	N228	N	0.425747	0.972993	0.680790
	N229	N	0.597443	0.046981	0.681903
	N230	N	0.589803	0.972600	0.332652
	N231	N	0.418392	0.045561	0.321677
	N232	N	0.687999	0.424298	0.968057
	N233	N	0.688749	0.598766	0.039686
	N234	N	0.326436	0.599997	0.968568
	N235	N	0.328361	0.423439	0.041196
	N236	N	0.970265	0.688418	0.418621
	N237	N	0.045561	0.683887	0.589855
	N238	N	0.970074	0.327981	0.595697
	N239	N	0.045082	0.336929	0.427341
	N240	N	0.970756	0.418604	0.690393
	N241	N	0.044303	0.591501	0.684455
	N242	N	0.972330	0.602718	0.320843
	N243	N	0.043184	0.424454	0.329207
	N244	N	0.421330	0.689845	0.968316
	N245	N	0.590599	0.683513	0.043381
	N246	N	0.592590	0.333906	0.966068
	N247	N	0.423174	0.331005	0.040728
	N248	N	0.685099	0.975248	0.416949
	N249	N	0.686331	0.047373	0.588630
	N250	N	0.331844	0.973051	0.589085
	N251	N	0.328900	0.048229	0.415363
	N252	N	0.924376	0.473948	0.182638
	N253	N	0.095293	0.548341	0.184769
	N254	N	0.090491	0.472898	0.834215
	N255	N	0.917961	0.545355	0.824870
	N256	N	0.188018	0.923872	0.467035
	N257	N	0.189255	0.098393	0.538925
	N258	N	0.827402	0.097877	0.467109
	N259	N	0.827509	0.921584	0.540283
	N260	N	0.471285	0.190016	0.915169
	N261	N	0.545868	0.183389	0.086626
	N262	N	0.470880	0.828892	0.092747
	N263	N	0.547091	0.836831	0.925753
	N264	N	0.472664	0.918028	0.188292
	N265	N	0.544637	0.092561	0.182164
	N266	N	0.474078	0.102514	0.818219
	N267	N	0.546047	0.925422	0.828000
	N268	N	0.919735	0.190514	0.469119
	N269	N	0.090414	0.182988	0.543695
	N270	N	0.093856	0.831774	0.466896
	N271	N	0.924665	0.831860	0.542251
	N272	N	0.183933	0.475561	0.920265
	N273	N	0.186446	0.548818	0.091327
	N274	N	0.830227	0.474106	0.092079
	N275	N	0.830249	0.548195	0.918953
	O276	O	0.479932	0.498284	0.444265
	H277	H	0.492613	0.490040	0.445451
	H278	H	0.480183	0.496168	0.429914
	O279	O	0.351316	0.537407	0.422661
	H280	H	0.352465	0.549941	0.413477
	H281	H	0.354176	0.538513	0.426185
	O282	O	1.101732	0.927607	-0.134176
	H283	H	1.111651	0.928343	-0.123439
	H284	H	1.109648	0.922098	-0.120807
	O285	O	1.016098	0.167445	1.084671
	H286	H	1.037309	0.176064	1.081228
	H287	H	0.990504	0.178867	1.085090
	O288	O	0.083920	0.107225	-0.026147
	H289	H	0.085878	0.100424	-0.046662
	H290	H	0.092747	0.110036	-0.033926
	O291	O	0.457218	0.472058	0.435860
	H292	H	0.453105	0.478219	0.430391
	H293	H	0.455329	0.486846	0.433459
	O294	O	0.562831	0.533548	0.508884
	H295	H	0.563123	0.538467	0.507980
	H296	H	0.557775	0.510112	0.510877
	O297	O	0.128768	0.079665	1.080216
	H298	H	0.136514	0.077197	1.084692
	H299	H	0.126940	0.076129	1.082621
	O300	O	0.428842	0.365282	0.547847
	H301	H	0.423619	0.374993	0.559625
	H302	H	0.417200	0.356251	0.538871
	O303	O	0.930338	0.908277	0.116049
	H304	H	0.928097	0.912697	0.121430
	H305	H	0.927468	0.898643	0.107396
	O306	O	-0.511428	1.635853	0.477004
	H307	H	-0.511138	1.637112	0.482004
	H308	H	-0.525945	1.624473	0.471055
	O309	O	0.492879	0.366162	0.483965
	H310	H	0.479703	0.363727	0.489693
	H311	H	0.480170	0.367633	0.485676
	O312	O	-0.022264	-0.018358	-0.042624
	H313	H	-0.019057	-0.019685	-0.036148
	H314	H	-0.008172	-0.005664	-0.039221
	O315	O	0.967617	0.085131	-0.114020
	H316	H	0.970563	0.113226	-0.121133
	H317	H	0.954136	0.076670	-0.109604
	O318	O	0.898368	1.010042	1.074818
	H319	H	0.888804	1.009723	1.072696
	H320	H	0.897668	1.010863	1.074790
	O321	O	0.033830	-0.097650	1.054061
	H322	H	0.029451	-0.085877	1.053743
	H323	H	0.035714	-0.097422	1.052588
	O324	O	0.523251	0.608776	0.460601
	H325	H	0.541219	0.601717	0.446653
	H326	H	0.532985	0.607243	0.471530
	O327	O	-0.092874	0.053271	-0.056576
	H328	H	-0.095158	0.055696	-0.061217
	H329	H	-0.103165	0.055325	-0.073483
	O330	O	0.540707	0.527482	0.564529
	H331	H	0.551407	0.529323	0.572595
	H332	H	0.528911	0.549225	0.549489
	O333	O	-0.548025	0.560219	0.476387
	H334	H	-0.545238	0.568524	0.483108
	H335	H	-0.558145	0.572574	0.459828
	O336	O	-0.081912	0.131446	-0.095522
	H337	H	-0.082156	0.110893	-0.096385
	H338	H	-0.088404	0.137723	-0.086371
	O339	O	1.062618	-0.037970	0.973537
	H340	H	1.067103	-0.055288	0.975458
	H341	H	1.071299	-0.034967	0.983350
	O342	O	0.980488	1.028398	0.922019
	H343	H	0.993501	1.032901	0.914104
	H344	H	0.984754	1.030325	0.904184
	O345	O	1.060078	0.993791	0.037935
	H346	H	1.063778	0.994128	0.033811
	H347	H	1.066388	1.003939	0.043201
	O348	O	0.430169	0.565489	0.454412
	H349	H	0.413803	0.577324	0.449940
	H350	H	0.439448	0.558762	0.471711
	O351	O	0.545584	0.521184	0.484130
	H352	H	0.550655	0.508631	0.500585
	H353	H	0.561710	0.518088	0.479853
	O354	O	0.617735	0.552227	0.479111
	H355	H	0.612400	0.543140	0.480603
	H356	H	0.613547	0.544203	0.472481
	O357	O	0.921780	-0.017786	1.141549
	H358	H	0.920774	-0.019498	1.152989
	H359	H	0.906406	-0.023703	1.149221
	O360	O	0.383444	0.493624	0.555570
	H361	H	0.369845	0.495713	0.561371
	H362	H	0.377072	0.491662	0.552149
	O363	O	0.903070	0.104527	1.028236
	H364	H	0.905607	0.107112	1.022251
	H365	H	0.896444	0.092353	1.023473
	O366	O	0.460070	0.499511	0.478174
	H367	H	0.465588	0.501191	0.459065
	H368	H	0.450609	0.511810	0.474365
	O369	O	1.181944	0.058024	1.150636
	H370	H	1.182901	0.067394	1.150810
	H371	H	1.183304	0.080816	1.152010
	O372	O	0.015053	0.012802	-0.010146
	H373	H	0.018055	-0.000114	-0.006072
	H374	H	-0.004019	0.010890	-0.020506
	O375	O	1.088363	-0.069552	-0.027777
	H376	H	1.082769	-0.064635	-0.025899
	H377	H	1.083315	-0.059781	-0.024583
	O378	O	0.441110	0.438942	0.648748
	H379	H	0.429246	0.440572	0.658668
	H380	H	0.456066	0.448735	0.647738
	O381	O	0.593155	0.474640	0.583433
	H382	H	0.597750	0.486070	0.585093
	H383	H	0.587034	0.473952	0.588774
