data_Molecule from HDF5

_cell_length_a		16.323987
_cell_length_b		16.051735
_cell_length_c		16.191123
_cell_angle_alpha	90.900192
_cell_angle_beta	90.546540
_cell_angle_gamma	89.744591
_symmetry_space_group_name_H-M	'P 1'
_symmetry_Int_Tables_number		1

loop_
	_symmetry_equiv_pos_as_xyz
	x,y,z

loop_
	_atom_site_label
	_atom_site_type_symbol
	_atom_site_fract_x
	_atom_site_fract_y
	_atom_site_fract_z
	H0	H	0.408165	0.836642	0.710991
	H1	H	0.602476	0.169075	0.719772
	H2	H	0.601326	0.838539	0.286312
	H3	H	0.402488	0.169767	0.293008
	H4	H	0.718054	0.400233	0.839343
	H5	H	0.722281	0.610567	0.164787
	H6	H	0.283445	0.604076	0.839761
	H7	H	0.288714	0.405419	0.165998
	H8	H	0.838749	0.715361	0.406015
	H9	H	0.166806	0.718946	0.604720
	H10	H	0.837228	0.292836	0.594803
	H11	H	0.165244	0.284649	0.402463
	H12	H	0.839465	0.405423	0.716652
	H13	H	0.166045	0.604617	0.721655
	H14	H	0.840848	0.602532	0.286009
	H15	H	0.165857	0.398705	0.285554
	H16	H	0.404390	0.714173	0.836866
	H17	H	0.601521	0.719821	0.167455
	H18	H	0.600442	0.287419	0.838774
	H19	H	0.409478	0.296954	0.168794
	H20	H	0.716675	0.838551	0.400160
	H21	H	0.718109	0.169086	0.607297
	H22	H	0.289369	0.838577	0.601368
	H23	H	0.285296	0.167230	0.402505
	H24	H	0.908169	0.337250	0.208814
	H25	H	0.103437	0.668508	0.220944
	H26	H	0.101397	0.338000	0.788211
	H27	H	0.904410	0.670405	0.791490
	H28	H	0.218333	0.896247	0.339190
	H29	H	0.221107	0.108374	0.665285
	H30	H	0.782103	0.102829	0.340351
	H31	H	0.788996	0.904547	0.666527
	H32	H	0.338671	0.217128	0.906642
	H33	H	0.667531	0.218667	0.104485
	H34	H	0.339492	0.792474	0.096995
	H35	H	0.666905	0.786686	0.903370
	H36	H	0.339154	0.906353	0.214654
	H37	H	0.664673	0.106506	0.224438
	H38	H	0.340578	0.103869	0.786088
	H39	H	0.667374	0.902310	0.788019
	H40	H	0.902848	0.211481	0.336095
	H41	H	0.100254	0.220121	0.666181
	H42	H	0.099383	0.785559	0.338673
	H43	H	0.910265	0.796217	0.669813
	H44	H	0.217833	0.339291	0.899962
	H45	H	0.217706	0.669219	0.106888
	H46	H	0.789054	0.340511	0.100236
	H47	H	0.785879	0.668834	0.901484
	H48	H	0.406625	0.120800	0.588867
	H49	H	0.597175	0.881982	0.603290
	H50	H	0.595551	0.121266	0.418155
	H51	H	0.407655	0.884820	0.412268
	H52	H	0.604104	0.418567	0.121959
	H53	H	0.595107	0.602136	0.882455
	H54	H	0.407458	0.593639	0.118966
	H55	H	0.414686	0.405135	0.886090
	H56	H	0.121798	0.602968	0.413616
	H57	H	0.885812	0.609182	0.590789
	H58	H	0.117482	0.412600	0.594493
	H59	H	0.885072	0.411735	0.398209
	H60	H	0.117907	0.412107	0.595472
	H61	H	0.890907	0.588468	0.591744
	H62	H	0.116521	0.588854	0.417466
	H63	H	0.884018	0.402280	0.403938
	H64	H	0.416580	0.600642	0.118655
	H65	H	0.602768	0.588536	0.884312
	H66	H	0.593467	0.417679	0.118281
	H67	H	0.402453	0.409452	0.882475
	H68	H	0.594310	0.124202	0.412402
	H69	H	0.591689	0.887979	0.589141
	H70	H	0.409550	0.124075	0.602124
	H71	H	0.407159	0.882197	0.402402
	H72	H	0.909946	0.622276	0.089149
	H73	H	0.102189	0.383276	0.092192
	H74	H	0.090894	0.623984	0.906452
	H75	H	0.908510	0.385234	0.908981
	H76	H	0.108019	0.912478	0.624065
	H77	H	0.102289	0.087049	0.383960
	H78	H	0.909116	0.089118	0.618225
	H79	H	0.903217	0.910320	0.384494
	H80	H	0.618497	0.097210	0.916107
	H81	H	0.384198	0.108786	0.096955
	H82	H	0.621306	0.907518	0.094731
	H83	H	0.385999	0.915999	0.899945
	H84	H	0.616374	0.917665	0.090625
	H85	H	0.389702	0.097474	0.091757
	H86	H	0.618333	0.090134	0.910241
	H87	H	0.384673	0.902042	0.903267
	H88	H	0.918401	0.102376	0.618619
	H89	H	0.088496	0.085323	0.389436
	H90	H	0.095984	0.923542	0.616044
	H91	H	0.910566	0.911827	0.387635
	H92	H	0.090438	0.619724	0.919992
	H93	H	0.095857	0.385192	0.095776
	H94	H	0.909411	0.625757	0.099459
	H95	H	0.910903	0.385450	0.905944
	H96	H	0.420198	0.118727	0.593349
	H97	H	0.606684	0.883698	0.590657
	H98	H	0.589934	0.120833	0.415943
	H99	H	0.415703	0.886055	0.408190
	H100	H	0.599810	0.409053	0.122527
	H101	H	0.587679	0.589432	0.887843
	H102	H	0.406608	0.603715	0.122862
	H103	H	0.410689	0.418145	0.886766
	H104	H	0.122051	0.589758	0.403679
	H105	H	0.882668	0.598197	0.609365
	H106	H	0.118049	0.411342	0.593414
	H107	H	0.888568	0.411791	0.409453
	H108	H	0.917919	0.621227	0.095865
	H109	H	0.096134	0.386090	0.088180
	H110	H	0.102561	0.625449	0.914967
	H111	H	0.912278	0.387137	0.910487
	H112	H	0.091591	0.906522	0.620771
	H113	H	0.091808	0.099065	0.382539
	H114	H	0.903784	0.103721	0.623357
	H115	H	0.909829	0.904216	0.383581
	H116	H	0.621719	0.097762	0.908381
	H117	H	0.384303	0.097367	0.104168
	H118	H	0.619847	0.917013	0.101846
	H119	H	0.389883	0.912034	0.911890
	C120	C	0.383374	0.012055	0.622659
	C121	C	0.626401	0.994460	0.625183
	C122	C	0.622244	0.012704	0.384003
	C123	C	0.380361	0.993998	0.380485
	C124	C	0.626439	0.383211	0.012362
	C125	C	0.624656	0.625132	0.993367
	C126	C	0.380676	0.626569	0.011438
	C127	C	0.382226	0.384066	0.994193
	C128	C	0.011972	0.623497	0.382140
	C129	C	0.994407	0.627180	0.627338
	C130	C	0.010234	0.383181	0.622589
	C131	C	0.994046	0.378766	0.376569
	C132	C	0.883341	0.513648	0.122566
	C133	C	0.126125	0.494426	0.124116
	C134	C	0.124155	0.513194	0.882345
	C135	C	0.881342	0.495377	0.880867
	C136	C	0.125938	0.881751	0.511619
	C137	C	0.124121	0.123451	0.493168
	C138	C	0.880305	0.125264	0.511272
	C139	C	0.881408	0.882012	0.494344
	C140	C	0.511685	0.125121	0.882267
	C141	C	0.494104	0.129205	0.127559
	C142	C	0.511131	0.885236	0.122723
	C143	C	0.495041	0.880600	0.877697
	C144	C	0.386919	0.886637	0.675201
	C145	C	0.623216	0.119491	0.681967
	C146	C	0.620891	0.888055	0.325464
	C147	C	0.382010	0.119431	0.328363
	C148	C	0.680236	0.381872	0.888412
	C149	C	0.682604	0.627912	0.116358
	C150	C	0.322949	0.623788	0.888187
	C151	C	0.327329	0.386603	0.117525
	C152	C	0.888298	0.678428	0.384688
	C153	C	0.117637	0.681821	0.625351
	C154	C	0.886633	0.329543	0.617512
	C155	C	0.116277	0.321981	0.380585
	C156	C	0.887772	0.385454	0.677910
	C157	C	0.117135	0.625080	0.683741
	C158	C	0.889341	0.622185	0.325135
	C159	C	0.116764	0.379428	0.322856
	C160	C	0.383051	0.678491	0.886770
	C161	C	0.622304	0.682091	0.117738
	C162	C	0.622087	0.325490	0.888191
	C163	C	0.387282	0.332375	0.118915
	C164	C	0.678542	0.888148	0.382011
	C165	C	0.680730	0.119374	0.625841
	C166	C	0.327899	0.887637	0.620516
	C167	C	0.323457	0.118016	0.382749
	C168	C	0.886674	0.387878	0.174094
	C169	C	0.123747	0.618881	0.182466
	C170	C	0.122036	0.388270	0.825574
	C171	C	0.883188	0.620448	0.827505
	C172	C	0.180408	0.878969	0.388298
	C173	C	0.181917	0.126422	0.616347
	C174	C	0.822235	0.122207	0.388243
	C175	C	0.827433	0.885277	0.618055
	C176	C	0.388071	0.180091	0.885238
	C177	C	0.617775	0.182643	0.125403
	C178	C	0.388253	0.830102	0.117981
	C179	C	0.618025	0.824644	0.882261
	C180	C	0.388170	0.886531	0.176961
	C181	C	0.616592	0.126453	0.184897
	C182	C	0.389011	0.123929	0.825354
	C183	C	0.618201	0.882313	0.824841
	C184	C	0.882114	0.176475	0.386314
	C185	C	0.121848	0.181991	0.616933
	C186	C	0.121445	0.823448	0.388102
	C187	C	0.887656	0.831040	0.619495
	C188	C	0.180071	0.388722	0.881296
	C189	C	0.180552	0.619336	0.125799
	C190	C	0.827504	0.389463	0.119842
	C191	C	0.824667	0.619713	0.882546
	C192	C	0.405400	0.098716	0.601271
	C193	C	0.604895	0.907224	0.601433
	C194	C	0.599878	0.099608	0.408383
	C195	C	0.403454	0.906918	0.401350
	C196	C	0.605457	0.407692	0.098514
	C197	C	0.601804	0.600673	0.907104
	C198	C	0.403418	0.605535	0.097682
	C199	C	0.402988	0.404750	0.907582
	C200	C	0.097888	0.600678	0.404908
	C201	C	0.908843	0.605182	0.604026
	C202	C	0.095660	0.405434	0.600992
	C203	C	0.908023	0.401806	0.397484
	C204	C	0.905822	0.600466	0.101195
	C205	C	0.104420	0.407406	0.099154
	C206	C	0.101448	0.600237	0.906749
	C207	C	0.903918	0.408317	0.902138
	C208	C	0.104864	0.906989	0.597800
	C209	C	0.101129	0.097979	0.407416
	C210	C	0.903551	0.104448	0.597685
	C211	C	0.901751	0.902703	0.407731
	C212	C	0.597218	0.101925	0.904898
	C213	C	0.408339	0.107478	0.104440
	C214	C	0.596912	0.907600	0.101769
	C215	C	0.409115	0.903393	0.898826
	Zn216	Zn	0.503659	0.003492	0.750547
	Zn217	Zn	0.501973	0.004924	0.254636
	Zn218	Zn	0.754377	0.504986	0.002130
	Zn219	Zn	0.252654	0.504214	0.002693
	Zn220	Zn	0.002945	0.754129	0.503957
	Zn221	Zn	0.001546	0.252409	0.500542
	Zn222	Zn	0.003064	0.504301	0.754664
	Zn223	Zn	0.004155	0.502909	0.250275
	Zn224	Zn	0.503462	0.754046	0.001859
	Zn225	Zn	0.503676	0.255895	0.003761
	Zn226	Zn	0.752280	0.003515	0.503234
	Zn227	Zn	0.254537	0.002715	0.502199
	N228	N	0.420824	0.965076	0.676678
	N229	N	0.590361	0.040635	0.681647
	N230	N	0.586537	0.966529	0.326433
	N231	N	0.416520	0.041256	0.326539
	N232	N	0.683100	0.417161	0.966482
	N233	N	0.684203	0.593288	0.037978
	N234	N	0.321343	0.592212	0.966679
	N235	N	0.324044	0.417880	0.038895
	N236	N	0.965606	0.679416	0.419497
	N237	N	0.040343	0.683256	0.590784
	N238	N	0.963737	0.327972	0.583774
	N239	N	0.038775	0.321683	0.413495
	N240	N	0.965675	0.417948	0.681311
	N241	N	0.039598	0.591949	0.685269
	N242	N	0.967165	0.588819	0.323455
	N243	N	0.039682	0.413948	0.320201
	N244	N	0.418240	0.680494	0.964211
	N245	N	0.587094	0.680694	0.040162
	N246	N	0.589298	0.326153	0.966098
	N247	N	0.420551	0.330608	0.041254
	N248	N	0.679387	0.966467	0.417765
	N249	N	0.682902	0.040499	0.591269
	N250	N	0.325650	0.966435	0.588345
	N251	N	0.322135	0.038917	0.414307
	N252	N	0.920704	0.466166	0.176028
	N253	N	0.090935	0.540080	0.181852
	N254	N	0.088102	0.466808	0.826098
	N255	N	0.917825	0.542276	0.826251
	N256	N	0.183624	0.914499	0.466436
	N257	N	0.183332	0.090666	0.538548
	N258	N	0.820898	0.091165	0.466920
	N259	N	0.823325	0.916293	0.539237
	N260	N	0.465416	0.180784	0.919870
	N261	N	0.540676	0.184493	0.090576
	N262	N	0.465779	0.829291	0.084974
	N263	N	0.540275	0.823312	0.914361
	N264	N	0.465481	0.920309	0.179876
	N265	N	0.538698	0.094012	0.186486
	N266	N	0.466882	0.090536	0.823257
	N267	N	0.540696	0.916322	0.821710
	N268	N	0.917440	0.178564	0.463695
	N269	N	0.086291	0.180035	0.539487
	N270	N	0.088346	0.824924	0.465814
	N271	N	0.920469	0.828952	0.541653
	N272	N	0.181355	0.467668	0.915909
	N273	N	0.182422	0.540877	0.090270
	N274	N	0.825089	0.468715	0.088722
	N275	N	0.823247	0.540871	0.914851
	O276	O	0.481026	0.437658	0.577178
	H277	H	0.474542	0.440004	0.584418
	H278	H	0.471548	0.438299	0.563013
	O279	O	0.392774	0.441684	0.550904
	H280	H	0.390388	0.434708	0.542752
	H281	H	0.391221	0.443082	0.533200
	O282	O	0.892061	1.033319	-0.030906
	H283	H	0.888158	1.041518	-0.032458
	H284	H	0.898531	1.038985	-0.024931
	O285	O	1.103157	0.093860	1.010223
	H286	H	1.095447	0.090600	1.009647
	H287	H	1.108667	0.086515	1.007131
	O288	O	0.369694	0.310238	0.451261
	H289	H	0.374568	0.311218	0.439930
	H290	H	0.366653	0.314300	0.448162
	O291	O	0.526755	0.494558	0.477282
	H292	H	0.519599	0.490271	0.481184
	H293	H	0.534849	0.487530	0.471448
	O294	O	0.612575	0.596726	0.593066
	H295	H	0.622361	0.604461	0.595650
	H296	H	0.611108	0.600692	0.595630
	O297	O	-0.134945	0.003059	0.998094
	H298	H	-0.129450	0.009888	1.009469
	H299	H	-0.141037	0.003236	0.986296
	O300	O	0.491523	0.468331	0.511352
	H301	H	0.496737	0.452301	0.508942
	H302	H	0.494090	0.464811	0.514809
	O303	O	0.947603	1.087154	-0.017224
	H304	H	0.943174	1.077660	-0.041688
	H305	H	0.942346	1.080802	-0.006778
	O306	O	-0.574809	1.532012	0.374053
	H307	H	-0.598701	1.528776	0.357265
	H308	H	-0.566375	1.547799	0.371285
	O309	O	0.417865	0.530606	0.577847
	H310	H	0.428289	0.535481	0.574543
	H311	H	0.415955	0.531634	0.574871
	O312	O	-0.083561	0.050144	-0.080611
	H313	H	-0.078298	0.046070	-0.080486
	H314	H	-0.091075	0.065651	-0.075406
	O315	O	1.024341	-0.004325	0.069955
	H316	H	1.030206	-0.006123	0.066840
	H317	H	1.029191	-0.004636	0.070244
	O318	O	1.108692	0.994758	1.142179
	H319	H	1.102008	1.017918	1.140528
	H320	H	1.128173	1.004532	1.143489
	O321	O	0.020217	-0.086373	0.991459
	H322	H	0.024582	-0.076763	0.999249
	H323	H	0.024152	-0.079776	0.983712
	O324	O	0.555270	0.482558	0.356513
	H325	H	0.542762	0.489251	0.349818
	H326	H	0.545243	0.487750	0.363631
	O327	O	-0.038321	0.030456	0.023024
	H328	H	-0.028796	0.040002	0.024900
	H329	H	-0.048049	0.019096	0.022381
	O330	O	0.538880	0.586444	0.491150
	H331	H	0.539141	0.576416	0.496388
	H332	H	0.540070	0.579663	0.499701
	O333	O	-0.465414	0.575574	0.573788
	H334	H	-0.472165	0.581432	0.580289
	H335	H	-0.472585	0.574332	0.573520
	O336	O	-0.035101	-0.022535	0.019751
	H337	H	-0.031590	-0.033518	0.023731
	H338	H	-0.038170	-0.027325	0.021817
	O339	O	0.557489	0.570086	0.540942
	H340	H	0.567710	0.555655	0.539087
	H341	H	0.564103	0.574003	0.547464
	O342	O	1.126206	0.992404	1.043770
	H343	H	1.123170	0.999816	1.052438
	H344	H	1.125125	0.996688	1.041115
	O345	O	1.034132	1.081541	0.031521
	H346	H	1.032961	1.088026	0.025671
	H347	H	1.036416	1.085181	0.018359
	O348	O	0.453775	0.541072	0.399188
	H349	H	0.457393	0.544658	0.416651
	H350	H	0.461746	0.550617	0.400541
	O351	O	0.576867	0.541782	0.515706
	H352	H	0.571355	0.542070	0.526676
	H353	H	0.584871	0.545806	0.525102
	O354	O	0.415084	0.452286	0.428416
	H355	H	0.410733	0.438616	0.432206
	H356	H	0.421993	0.456720	0.433292
	O357	O	0.936104	-0.026725	1.076511
	H358	H	0.930908	-0.030898	1.088975
	H359	H	0.928683	-0.032104	1.074627
	O360	O	0.555856	0.520896	0.570852
	H361	H	0.546631	0.513467	0.582257
	H362	H	0.571477	0.521073	0.573284
	O363	O	1.017253	-0.041425	0.989866
	H364	H	1.006284	-0.033038	0.983941
	H365	H	1.019048	-0.048828	0.997999
	O366	O	0.954034	0.982146	0.986104
	H367	H	0.952015	0.980469	0.995044
	H368	H	0.954771	0.970889	0.980455
	O369	O	1.075791	-0.011309	0.893063
	H370	H	1.078030	-0.003462	0.889997
	H371	H	1.085233	-0.024089	0.905065
	O372	O	0.027301	-0.008457	-0.020488
	H373	H	0.032534	-0.017315	-0.026647
	H374	H	0.022519	-0.015846	-0.026660
	O375	O	1.112996	-0.054377	-0.068332
	H376	H	1.126062	-0.066373	-0.073874
	H377	H	1.125596	-0.050535	-0.065349
	O378	O	0.664456	0.393079	0.454461
	H379	H	0.677124	0.398197	0.447562
	H380	H	0.660472	0.400077	0.440512
	O381	O	0.465612	0.462254	0.523578
	H382	H	0.462258	0.460592	0.515931
	H383	H	0.473964	0.473081	0.532013
