data_Molecule from HDF5

_cell_length_a		16.219599
_cell_length_b		16.375219
_cell_length_c		16.095198
_cell_angle_alpha	89.986639
_cell_angle_beta	89.908007
_cell_angle_gamma	89.848877
_symmetry_space_group_name_H-M	'P 1'
_symmetry_Int_Tables_number		1

loop_
	_symmetry_equiv_pos_as_xyz
	x,y,z

loop_
	_atom_site_label
	_atom_site_type_symbol
	_atom_site_fract_x
	_atom_site_fract_y
	_atom_site_fract_z
	H0	H	0.398805	0.839894	0.714442
	H1	H	0.592967	0.166561	0.715484
	H2	H	0.595290	0.840455	0.286026
	H3	H	0.398546	0.167320	0.288265
	H4	H	0.709254	0.404762	0.837066
	H5	H	0.705313	0.601146	0.168244
	H6	H	0.280615	0.602322	0.836246
	H7	H	0.283349	0.407330	0.167937
	H8	H	0.832122	0.721304	0.400865
	H9	H	0.159110	0.718349	0.605017
	H10	H	0.832144	0.285852	0.604356
	H11	H	0.159055	0.286250	0.399670
	H12	H	0.829620	0.406437	0.715294
	H13	H	0.159699	0.597027	0.714638
	H14	H	0.828992	0.599543	0.292040
	H15	H	0.159475	0.406152	0.288858
	H16	H	0.392999	0.719471	0.837277
	H17	H	0.595267	0.719700	0.165254
	H18	H	0.596287	0.288312	0.837416
	H19	H	0.395299	0.288935	0.166730
	H20	H	0.713265	0.841492	0.400640
	H21	H	0.711240	0.165526	0.601566
	H22	H	0.280796	0.841045	0.601555
	H23	H	0.278547	0.165756	0.400154
	H24	H	0.897102	0.339665	0.217206
	H25	H	0.089985	0.667135	0.216560
	H26	H	0.091858	0.340036	0.789576
	H27	H	0.894929	0.666404	0.787775
	H28	H	0.208828	0.905124	0.335956
	H29	H	0.207948	0.099380	0.666860
	H30	H	0.783109	0.101049	0.335516
	H31	H	0.782399	0.905172	0.667179
	H32	H	0.331594	0.221648	0.898189
	H33	H	0.658391	0.218689	0.102391
	H34	H	0.330449	0.789376	0.101060
	H35	H	0.657310	0.786068	0.898735
	H36	H	0.330482	0.906648	0.216004
	H37	H	0.659896	0.099295	0.212960
	H38	H	0.329398	0.099393	0.789153
	H39	H	0.660033	0.908045	0.789744
	H40	H	0.894748	0.219242	0.337494
	H41	H	0.096040	0.217308	0.666440
	H42	H	0.097534	0.786337	0.337863
	H43	H	0.896448	0.789547	0.666992
	H44	H	0.210210	0.341168	0.903220
	H45	H	0.209165	0.666980	0.102277
	H46	H	0.778996	0.340911	0.103112
	H47	H	0.778500	0.666157	0.904107
	H48	H	0.409355	0.117491	0.593745
	H49	H	0.582614	0.888455	0.599739
	H50	H	0.591380	0.118865	0.413036
	H51	H	0.396949	0.887763	0.414007
	H52	H	0.585866	0.412145	0.119900
	H53	H	0.580066	0.586051	0.888960
	H54	H	0.401763	0.592163	0.118549
	H55	H	0.399188	0.416562	0.883890
	H56	H	0.112944	0.591022	0.402314
	H57	H	0.877542	0.600722	0.593110
	H58	H	0.113244	0.411360	0.599874
	H59	H	0.879819	0.412039	0.412859
	H60	H	0.113356	0.402841	0.594285
	H61	H	0.878974	0.595929	0.591417
	H62	H	0.114695	0.604448	0.411062
	H63	H	0.876715	0.409403	0.408159
	H64	H	0.407156	0.599385	0.119386
	H65	H	0.581122	0.605213	0.882179
	H66	H	0.583960	0.408779	0.119686
	H67	H	0.409443	0.411103	0.885435
	H68	H	0.593074	0.121939	0.404002
	H69	H	0.588919	0.889801	0.585014
	H70	H	0.396295	0.118925	0.587889
	H71	H	0.401291	0.885547	0.401191
	H72	H	0.895764	0.618721	0.088969
	H73	H	0.092080	0.384986	0.102314
	H74	H	0.084925	0.621181	0.903229
	H75	H	0.899051	0.390151	0.919768
	H76	H	0.082187	0.912637	0.616668
	H77	H	0.084958	0.087202	0.386159
	H78	H	0.894779	0.095408	0.622792
	H79	H	0.903825	0.912290	0.383553
	H80	H	0.612050	0.102629	0.913281
	H81	H	0.378380	0.093610	0.093440
	H82	H	0.615120	0.910374	0.103960
	H83	H	0.373994	0.897828	0.909401
	H84	H	0.613167	0.899334	0.085883
	H85	H	0.375001	0.100610	0.097455
	H86	H	0.608968	0.091325	0.911746
	H87	H	0.381584	0.915527	0.918063
	H88	H	0.907730	0.088554	0.615721
	H89	H	0.080753	0.103708	0.383666
	H90	H	0.088708	0.901625	0.622997
	H91	H	0.907515	0.910555	0.384871
	H92	H	0.083477	0.617253	0.914524
	H93	H	0.081711	0.389328	0.094883
	H94	H	0.893491	0.622436	0.102627
	H95	H	0.893613	0.384094	0.905131
	H96	H	0.398245	0.122671	0.601392
	H97	H	0.597271	0.883471	0.597071
	H98	H	0.584607	0.118203	0.406797
	H99	H	0.409862	0.890465	0.410494
	H100	H	0.587197	0.408175	0.120463
	H101	H	0.596578	0.593734	0.881064
	H102	H	0.398723	0.599887	0.121389
	H103	H	0.399505	0.404996	0.881020
	H104	H	0.108153	0.591192	0.418100
	H105	H	0.878136	0.596001	0.596815
	H106	H	0.109929	0.412113	0.590412
	H107	H	0.877683	0.406458	0.413074
	H108	H	0.906308	0.617885	0.098862
	H109	H	0.094571	0.388345	0.089283
	H110	H	0.093528	0.621015	0.910909
	H111	H	0.909657	0.389419	0.906559
	H112	H	0.095671	0.913049	0.621897
	H113	H	0.097464	0.098636	0.379690
	H114	H	0.907734	0.103636	0.620244
	H115	H	0.904351	0.907921	0.382862
	H116	H	0.613808	0.097849	0.902564
	H117	H	0.378063	0.100424	0.089423
	H118	H	0.607111	0.919823	0.086460
	H119	H	0.375860	0.915528	0.897872
	C120	C	0.373444	0.012097	0.623208
	C121	C	0.617716	0.994968	0.623024
	C122	C	0.618320	0.012017	0.379235
	C123	C	0.373851	0.995405	0.379574
	C124	C	0.615847	0.381484	0.010742
	C125	C	0.615096	0.624263	0.992911
	C126	C	0.373379	0.625305	0.010391
	C127	C	0.373899	0.382389	0.993005
	C128	C	0.003453	0.624702	0.381375
	C129	C	0.986640	0.625135	0.623675
	C130	C	0.003612	0.380415	0.624180
	C131	C	0.986503	0.380914	0.381249
	C132	C	0.870988	0.511782	0.125635
	C133	C	0.116584	0.495544	0.124455
	C134	C	0.116748	0.512087	0.880557
	C135	C	0.871949	0.495308	0.881411
	C136	C	0.117652	0.880951	0.510865
	C137	C	0.116499	0.124282	0.492664
	C138	C	0.874321	0.124684	0.510498
	C139	C	0.875613	0.882373	0.493108
	C140	C	0.503345	0.125832	0.879388
	C141	C	0.486098	0.125328	0.122412
	C142	C	0.503104	0.881931	0.122052
	C143	C	0.485932	0.881512	0.879331
	C144	C	0.377924	0.888736	0.677081
	C145	C	0.614248	0.117609	0.678204
	C146	C	0.615834	0.889267	0.323809
	C147	C	0.377033	0.118421	0.325106
	C148	C	0.671854	0.383777	0.886697
	C149	C	0.669091	0.621922	0.118049
	C150	C	0.318123	0.622707	0.885704
	C151	C	0.319827	0.386261	0.118071
	C152	C	0.880623	0.681875	0.382308
	C153	C	0.110084	0.680017	0.623445
	C154	C	0.880469	0.324920	0.623256
	C155	C	0.110012	0.325354	0.381428
	C156	C	0.879312	0.384825	0.678535
	C157	C	0.110324	0.620078	0.678460
	C158	C	0.878949	0.621466	0.327843
	C159	C	0.110299	0.384802	0.325978
	C160	C	0.374111	0.680887	0.886118
	C161	C	0.614108	0.680703	0.116652
	C162	C	0.615549	0.325879	0.886834
	C163	C	0.375315	0.326903	0.117283
	C164	C	0.674336	0.889692	0.380906
	C165	C	0.672949	0.117160	0.621361
	C166	C	0.318814	0.889506	0.621328
	C167	C	0.317692	0.117714	0.381194
	C168	C	0.875646	0.388607	0.179787
	C169	C	0.111695	0.618430	0.178992
	C170	C	0.113382	0.389218	0.826341
	C171	C	0.874548	0.617754	0.825807
	C172	C	0.172065	0.884124	0.385832
	C173	C	0.170861	0.120530	0.617466
	C174	C	0.819752	0.121979	0.385547
	C175	C	0.819995	0.884895	0.617703
	C176	C	0.380162	0.181941	0.879937
	C177	C	0.609548	0.180558	0.121135
	C178	C	0.379503	0.827413	0.120774
	C179	C	0.608899	0.825354	0.880067
	C180	C	0.379545	0.885511	0.177947
	C181	C	0.610431	0.120878	0.176131
	C182	C	0.379099	0.121728	0.825117
	C183	C	0.610203	0.885434	0.825359
	C184	C	0.875458	0.180699	0.386321
	C185	C	0.115462	0.179188	0.617119
	C186	C	0.116593	0.825037	0.386856
	C187	C	0.876947	0.827626	0.617836
	C188	C	0.171988	0.389647	0.882946
	C189	C	0.171035	0.618307	0.122386
	C190	C	0.816673	0.389236	0.123426
	C191	C	0.816587	0.617554	0.883511
	C192	C	0.394895	0.097623	0.600815
	C193	C	0.596088	0.909371	0.600436
	C194	C	0.596148	0.097484	0.401426
	C195	C	0.396105	0.910178	0.402031
	C196	C	0.592573	0.403358	0.097719
	C197	C	0.592527	0.601659	0.906409
	C198	C	0.395921	0.603596	0.097155
	C199	C	0.396128	0.404259	0.906119
	C200	C	0.089571	0.602190	0.403929
	C201	C	0.900399	0.603757	0.600612
	C202	C	0.089870	0.402114	0.601343
	C203	C	0.900492	0.402769	0.404474
	C204	C	0.892333	0.597516	0.103583
	C205	C	0.095588	0.409696	0.102161
	C206	C	0.093983	0.597689	0.903005
	C207	C	0.894372	0.409959	0.903905
	C208	C	0.095500	0.902633	0.598047
	C209	C	0.094284	0.102869	0.405648
	C210	C	0.896803	0.102405	0.597066
	C211	C	0.898357	0.903982	0.406223
	C212	C	0.589273	0.103778	0.902379
	C213	C	0.399455	0.104253	0.100139
	C214	C	0.589481	0.903412	0.098936
	C215	C	0.399396	0.903380	0.901696
	Zn216	Zn	0.494869	0.003790	0.751755
	Zn217	Zn	0.495571	0.003828	0.250592
	Zn218	Zn	0.742341	0.503054	0.003175
	Zn219	Zn	0.245815	0.504178	0.001987
	Zn220	Zn	-0.004109	0.753856	0.502557
	Zn221	Zn	-0.004227	0.252067	0.502038
	Zn222	Zn	-0.005880	0.503411	0.751886
	Zn223	Zn	-0.005921	0.503109	0.253442
	Zn224	Zn	0.494253	0.752967	0.000907
	Zn225	Zn	0.494683	0.254031	0.001269
	Zn226	Zn	0.747238	0.002906	0.501313
	Zn227	Zn	0.244745	0.003267	0.501346
	N228	N	0.411083	0.966054	0.678576
	N229	N	0.580583	0.040583	0.679352
	N230	N	0.581701	0.966439	0.322604
	N231	N	0.411340	0.041558	0.324255
	N232	N	0.672148	0.417501	0.965166
	N233	N	0.669799	0.587349	0.040246
	N234	N	0.317409	0.588932	0.964031
	N235	N	0.318794	0.420086	0.039799
	N236	N	0.959081	0.683901	0.414992
	N237	N	0.031892	0.683295	0.590003
	N238	N	0.958691	0.322184	0.590132
	N239	N	0.032087	0.322937	0.415151
	N240	N	0.956825	0.418815	0.679193
	N241	N	0.032808	0.586728	0.678591
	N242	N	0.956314	0.586715	0.327133
	N243	N	0.032544	0.418738	0.325668
	N244	N	0.407969	0.682454	0.964455
	N245	N	0.581100	0.682432	0.037963
	N246	N	0.581168	0.324755	0.964905
	N247	N	0.408408	0.324692	0.038587
	N248	N	0.676020	0.966860	0.414527
	N249	N	0.675137	0.039883	0.587847
	N250	N	0.315848	0.967125	0.588640
	N251	N	0.315455	0.040168	0.414209
	N252	N	0.908592	0.465692	0.181308
	N253	N	0.078641	0.541138	0.180295
	N254	N	0.079559	0.466329	0.824953
	N255	N	0.908328	0.540675	0.824313
	N256	N	0.172892	0.918249	0.463995
	N257	N	0.171749	0.087182	0.539092
	N258	N	0.819053	0.087776	0.463859
	N259	N	0.819211	0.918366	0.539165
	N260	N	0.458469	0.184787	0.912717
	N261	N	0.531036	0.183305	0.088319
	N262	N	0.457530	0.825019	0.086762
	N263	N	0.530437	0.822602	0.912644
	N264	N	0.457405	0.918716	0.178746
	N265	N	0.532782	0.087331	0.177025
	N266	N	0.456658	0.087524	0.824672
	N267	N	0.532715	0.919826	0.825058
	N268	N	0.908449	0.182734	0.464841
	N269	N	0.082412	0.181670	0.538443
	N270	N	0.083579	0.823075	0.465541
	N271	N	0.910741	0.825869	0.539404
	N272	N	0.174155	0.467177	0.915880
	N273	N	0.174132	0.540949	0.089047
	N274	N	0.813585	0.466902	0.090603
	N275	N	0.814901	0.540430	0.917282
	O276	O	0.455643	0.514920	0.378898
	H277	H	0.454381	0.518858	0.386853
	H278	H	0.435331	0.524099	0.383365
	O279	O	0.458536	0.438083	0.574055
	H280	H	0.457061	0.442268	0.569766
	H281	H	0.461726	0.444743	0.572498
	O282	O	0.448893	0.484495	0.418718
	H283	H	0.458742	0.470418	0.422938
	H284	H	0.445780	0.480655	0.416069
	O285	O	-0.016354	1.035226	1.009030
	H286	H	-0.016299	1.025363	1.011593
	H287	H	-0.021159	1.037710	1.013256
	O288	O	0.534412	0.479823	0.558447
	H289	H	0.537157	0.487784	0.549408
	H290	H	0.530519	0.488176	0.556210
	O291	O	-0.038487	0.053936	1.004503
	H292	H	-0.034793	0.050241	1.011564
	H293	H	-0.043491	0.053972	1.005040
	O294	O	0.580601	0.510011	0.531962
	H295	H	0.588403	0.510270	0.530764
	H296	H	0.592728	0.505235	0.526571
	O297	O	0.396848	0.536095	0.459735
	H298	H	0.401798	0.532533	0.464252
	H299	H	0.397486	0.543042	0.462111
	O300	O	0.486266	0.572807	0.551717
	H301	H	0.485139	0.580290	0.554685
	H302	H	0.488691	0.577650	0.540602
	O303	O	0.580785	0.517724	0.451924
	H304	H	0.586259	0.518755	0.448336
	H305	H	0.580350	0.499830	0.451985
	O306	O	1.001227	0.036462	0.997706
	H307	H	1.002934	0.032914	0.997967
	H308	H	1.001994	0.040690	0.994846
	O309	O	0.576297	0.549881	0.511287
	H310	H	0.588132	0.558817	0.513875
	H311	H	0.577116	0.546573	0.508907
	O312	O	0.443310	0.545428	0.416880
	H313	H	0.434975	0.542734	0.405881
	H314	H	0.446545	0.530300	0.425255
	O315	O	0.984524	0.013632	0.994718
	H316	H	0.980064	0.015248	0.998331
	H317	H	0.982970	0.020001	0.989350
	O318	O	-0.002697	0.001401	0.007025
	H319	H	-0.007675	-0.000624	0.008643
	H320	H	0.003308	0.001327	0.002853
	O321	O	0.405341	0.491263	0.498990
	H322	H	0.400740	0.480534	0.513352
	H323	H	0.406880	0.495159	0.507704
	O324	O	1.462605	-0.418296	-0.543409
	H325	H	1.453072	-0.413349	-0.546453
	H326	H	1.458740	-0.412937	-0.545722
	O327	O	0.982793	1.086899	0.041063
	H328	H	0.990484	1.093840	0.034594
	H329	H	0.979108	1.091405	0.044905
	O330	O	0.530740	0.412704	0.588157
	H331	H	0.528271	0.390290	0.593210
	H332	H	0.530423	0.408972	0.586024
	O333	O	0.547431	0.499218	0.518383
	H334	H	0.542601	0.509019	0.521264
	H335	H	0.541633	0.501194	0.510866
