data_Molecule from HDF5

_cell_length_a		16.127704
_cell_length_b		16.111955
_cell_length_c		16.432232
_cell_angle_alpha	89.404944
_cell_angle_beta	89.463929
_cell_angle_gamma	90.369324
_symmetry_space_group_name_H-M	'P 1'
_symmetry_Int_Tables_number		1

loop_
	_symmetry_equiv_pos_as_xyz
	x,y,z

loop_
	_atom_site_label
	_atom_site_type_symbol
	_atom_site_fract_x
	_atom_site_fract_y
	_atom_site_fract_z
	H0	H	0.394234	0.834658	0.722981
	H1	H	0.602823	0.160801	0.716243
	H2	H	0.602004	0.832477	0.286996
	H3	H	0.398429	0.159085	0.281777
	H4	H	0.720022	0.399316	0.842746
	H5	H	0.711441	0.593793	0.167958
	H6	H	0.285833	0.597774	0.842092
	H7	H	0.282897	0.393521	0.166063
	H8	H	0.835013	0.710917	0.407930
	H9	H	0.165461	0.710489	0.599132
	H10	H	0.836288	0.281441	0.606718
	H11	H	0.166449	0.288982	0.407892
	H12	H	0.836956	0.392563	0.725016
	H13	H	0.164025	0.599808	0.718850
	H14	H	0.837716	0.601983	0.287675
	H15	H	0.163007	0.396148	0.287958
	H16	H	0.405084	0.711909	0.840231
	H17	H	0.599082	0.713789	0.164576
	H18	H	0.600275	0.286159	0.839038
	H19	H	0.396512	0.274511	0.163469
	H20	H	0.715112	0.832980	0.404614
	H21	H	0.711586	0.163629	0.595108
	H22	H	0.284782	0.832420	0.602480
	H23	H	0.291832	0.163406	0.404840
	H24	H	0.894572	0.334398	0.228523
	H25	H	0.104800	0.660640	0.220531
	H26	H	0.103695	0.333065	0.788521
	H27	H	0.897497	0.659673	0.786028
	H28	H	0.216978	0.901114	0.341938
	H29	H	0.218798	0.099089	0.665521
	H30	H	0.786878	0.102069	0.341245
	H31	H	0.780425	0.896673	0.664380
	H32	H	0.336267	0.212152	0.901602
	H33	H	0.664295	0.209731	0.095580
	H34	H	0.335981	0.779470	0.102765
	H35	H	0.665765	0.787372	0.902403
	H36	H	0.338077	0.888398	0.223245
	H37	H	0.662604	0.101854	0.216689
	H38	H	0.337466	0.101989	0.784274
	H39	H	0.662355	0.896950	0.783836
	H40	H	0.904389	0.217545	0.343428
	H41	H	0.098465	0.211109	0.667808
	H42	H	0.102056	0.784232	0.343049
	H43	H	0.896169	0.780613	0.665965
	H44	H	0.213401	0.331521	0.908020
	H45	H	0.215018	0.662021	0.100189
	H46	H	0.784459	0.331521	0.107606
	H47	H	0.792515	0.663067	0.909519
	H48	H	0.414062	0.117232	0.603989
	H49	H	0.583521	0.879844	0.599737
	H50	H	0.605532	0.118106	0.407924
	H51	H	0.410350	0.880901	0.415634
	H52	H	0.582876	0.403283	0.115721
	H53	H	0.596061	0.591912	0.887912
	H54	H	0.413711	0.584138	0.116326
	H55	H	0.406941	0.399069	0.886488
	H56	H	0.113113	0.585416	0.421721
	H57	H	0.882819	0.583241	0.600312
	H58	H	0.124546	0.386976	0.597166
	H59	H	0.880200	0.407387	0.407257
	H60	H	0.111235	0.417668	0.583788
	H61	H	0.880361	0.589865	0.602690
	H62	H	0.118037	0.582875	0.402102
	H63	H	0.882673	0.399940	0.422847
	H64	H	0.407963	0.593747	0.120266
	H65	H	0.598887	0.594933	0.886778
	H66	H	0.593052	0.393762	0.121835
	H67	H	0.402180	0.410683	0.888445
	H68	H	0.586746	0.117244	0.393918
	H69	H	0.587169	0.882185	0.588889
	H70	H	0.416706	0.110572	0.587259
	H71	H	0.404697	0.877741	0.411453
	H72	H	0.917000	0.615568	0.108821
	H73	H	0.094367	0.380390	0.090277
	H74	H	0.087734	0.615630	0.902554
	H75	H	0.911670	0.378511	0.914296
	H76	H	0.088528	0.902940	0.619253
	H77	H	0.090022	0.098169	0.389491
	H78	H	0.901491	0.090724	0.620538
	H79	H	0.906383	0.913250	0.389548
	H80	H	0.619461	0.096321	0.905785
	H81	H	0.382054	0.087930	0.089596
	H82	H	0.618332	0.898032	0.087634
	H83	H	0.383145	0.910144	0.913008
	H84	H	0.612798	0.917457	0.089785
	H85	H	0.384679	0.077762	0.092768
	H86	H	0.616236	0.088066	0.911297
	H87	H	0.379885	0.904973	0.907309
	H88	H	0.904500	0.084289	0.616937
	H89	H	0.101345	0.097983	0.386260
	H90	H	0.096043	0.904605	0.621680
	H91	H	0.916232	0.904071	0.389787
	H92	H	0.088801	0.610951	0.917131
	H93	H	0.092929	0.375403	0.109473
	H94	H	0.912980	0.610160	0.087092
	H95	H	0.910638	0.380279	0.916653
	H96	H	0.400171	0.118459	0.592486
	H97	H	0.594700	0.877954	0.597153
	H98	H	0.584180	0.110162	0.416300
	H99	H	0.411206	0.878671	0.408561
	H100	H	0.596896	0.408116	0.118218
	H101	H	0.600280	0.590697	0.887533
	H102	H	0.402432	0.583902	0.118239
	H103	H	0.413641	0.408710	0.890865
	H104	H	0.122199	0.602391	0.410498
	H105	H	0.883702	0.589235	0.594457
	H106	H	0.121019	0.414975	0.617968
	H107	H	0.887329	0.417582	0.419662
	H108	H	0.895646	0.618036	0.099908
	H109	H	0.077244	0.382957	0.099087
	H110	H	0.101154	0.617360	0.910041
	H111	H	0.909007	0.379375	0.915513
	H112	H	0.090953	0.911001	0.618028
	H113	H	0.095828	0.088539	0.391131
	H114	H	0.909246	0.091243	0.619245
	H115	H	0.904087	0.901105	0.384824
	H116	H	0.618760	0.086985	0.900668
	H117	H	0.380313	0.084875	0.099348
	H118	H	0.620967	0.907076	0.106121
	H119	H	0.382468	0.901864	0.914174
	C120	C	0.379071	0.006730	0.624633
	C121	C	0.619306	0.988847	0.622703
	C122	C	0.621832	0.006071	0.379088
	C123	C	0.379665	0.987765	0.381251
	C124	C	0.621904	0.374664	0.011295
	C125	C	0.624532	0.620210	0.995192
	C126	C	0.379505	0.617857	0.011575
	C127	C	0.377031	0.373857	0.994956
	C128	C	0.009374	0.620083	0.382738
	C129	C	0.991176	0.617950	0.626265
	C130	C	0.010082	0.375355	0.628932
	C131	C	0.991899	0.378931	0.386472
	C132	C	0.877901	0.505770	0.129366
	C133	C	0.119594	0.488483	0.126284
	C134	C	0.122160	0.505692	0.882148
	C135	C	0.881033	0.488077	0.885282
	C136	C	0.121432	0.877798	0.512611
	C137	C	0.124224	0.121968	0.496077
	C138	C	0.878139	0.120561	0.512239
	C139	C	0.877544	0.875939	0.495008
	C140	C	0.509263	0.119433	0.878471
	C141	C	0.490822	0.115146	0.121716
	C142	C	0.509028	0.875066	0.124304
	C143	C	0.490815	0.877313	0.881672
	C144	C	0.376807	0.883220	0.682852
	C145	C	0.620540	0.112357	0.677422
	C146	C	0.621619	0.882227	0.324375
	C147	C	0.380049	0.110682	0.322343
	C148	C	0.680266	0.378854	0.890128
	C149	C	0.675863	0.615431	0.118372
	C150	C	0.324140	0.617477	0.890176
	C151	C	0.320752	0.373740	0.117109
	C152	C	0.885131	0.674472	0.386375
	C153	C	0.115818	0.673749	0.621232
	C154	C	0.885621	0.319058	0.627154
	C155	C	0.116305	0.325039	0.387804
	C156	C	0.886017	0.374156	0.685900
	C157	C	0.115011	0.618442	0.680653
	C158	C	0.886305	0.620043	0.326708
	C159	C	0.114734	0.378518	0.328035
	C160	C	0.383277	0.674421	0.889414
	C161	C	0.620010	0.675276	0.116728
	C162	C	0.620604	0.322453	0.888418
	C163	C	0.377477	0.314579	0.115852
	C164	C	0.678019	0.882385	0.382550
	C165	C	0.674824	0.113692	0.617359
	C166	C	0.322483	0.881958	0.623008
	C167	C	0.326926	0.112967	0.383461
	C168	C	0.876547	0.382817	0.188298
	C169	C	0.122241	0.611875	0.181538
	C170	C	0.121820	0.382068	0.827121
	C171	C	0.879957	0.611037	0.826240
	C172	C	0.178233	0.880669	0.390483
	C173	C	0.180058	0.118890	0.617530
	C174	C	0.824608	0.120951	0.389997
	C175	C	0.819492	0.877076	0.616519
	C176	C	0.385566	0.174972	0.881002
	C177	C	0.614880	0.172371	0.117819
	C178	C	0.385478	0.817210	0.123194
	C179	C	0.615693	0.823675	0.882661
	C180	C	0.386579	0.871313	0.183296
	C181	C	0.613887	0.118400	0.177713
	C182	C	0.386366	0.120175	0.822378
	C183	C	0.614238	0.878414	0.823844
	C184	C	0.882732	0.178833	0.391245
	C185	C	0.120410	0.175067	0.618559
	C186	C	0.120915	0.822428	0.391102
	C187	C	0.877067	0.819022	0.617119
	C188	C	0.176465	0.381208	0.886586
	C189	C	0.177090	0.612536	0.121716
	C190	C	0.821812	0.381440	0.128086
	C191	C	0.827613	0.612817	0.887678
	C192	C	0.403258	0.092985	0.601349
	C193	C	0.595689	0.902312	0.601637
	C194	C	0.598829	0.092833	0.399882
	C195	C	0.402212	0.901270	0.405041
	C196	C	0.598022	0.395525	0.096441
	C197	C	0.604252	0.598881	0.909672
	C198	C	0.401551	0.594241	0.096390
	C199	C	0.400610	0.398816	0.910352
	C200	C	0.095834	0.596900	0.404740
	C201	C	0.904647	0.594390	0.605392
	C202	C	0.096422	0.399438	0.606342
	C203	C	0.905521	0.401653	0.409858
	C204	C	0.901668	0.592144	0.105817
	C205	C	0.095287	0.402160	0.105708
	C206	C	0.099291	0.592098	0.903521
	C207	C	0.903887	0.401691	0.908669
	C208	C	0.098448	0.899858	0.597608
	C209	C	0.102392	0.100956	0.411083
	C210	C	0.898864	0.096035	0.596856
	C211	C	0.901611	0.899415	0.410232
	C212	C	0.595828	0.097097	0.899853
	C213	C	0.404815	0.090670	0.100250
	C214	C	0.595109	0.900081	0.101036
	C215	C	0.404493	0.899271	0.905032
	Zn216	Zn	0.499864	-0.002602	0.752768
	Zn217	Zn	0.500027	-0.004018	0.251881
	Zn218	Zn	0.752581	0.496996	0.005449
	Zn219	Zn	0.248393	0.496746	0.004811
	Zn220	Zn	-0.000192	0.746838	0.505159
	Zn221	Zn	0.001153	0.250352	0.505688
	Zn222	Zn	0.000351	0.496879	0.755398
	Zn223	Zn	0.000201	0.497527	0.256635
	Zn224	Zn	0.501101	0.748941	0.002171
	Zn225	Zn	0.499213	0.244774	0.001372
	Zn226	Zn	0.748361	-0.002135	0.501754
	Zn227	Zn	0.252267	-0.001659	0.503591
	N228	N	0.411215	0.961697	0.684051
	N229	N	0.586733	0.033817	0.680845
	N230	N	0.587738	0.960408	0.321912
	N231	N	0.412114	0.031867	0.321046
	N232	N	0.681373	0.410461	0.967410
	N233	N	0.679036	0.582105	0.041535
	N234	N	0.321409	0.583103	0.967222
	N235	N	0.320320	0.409694	0.040840
	N236	N	0.962764	0.674831	0.420306
	N237	N	0.037758	0.673578	0.588254
	N238	N	0.963664	0.319497	0.592465
	N239	N	0.038795	0.325302	0.423591
	N240	N	0.964366	0.408257	0.687377
	N241	N	0.036531	0.584525	0.683831
	N242	N	0.964820	0.586997	0.324269
	N243	N	0.036370	0.411597	0.327344
	N244	N	0.416855	0.674713	0.966055
	N245	N	0.589133	0.678705	0.039089
	N246	N	0.584999	0.319631	0.964927
	N247	N	0.411670	0.314618	0.038768
	N248	N	0.678317	0.960336	0.415791
	N249	N	0.674020	0.035817	0.583685
	N250	N	0.323754	0.959657	0.587457
	N251	N	0.326491	0.035455	0.419442
	N252	N	0.910777	0.461299	0.189124
	N253	N	0.087081	0.533853	0.184511
	N254	N	0.088774	0.460599	0.824175
	N255	N	0.912481	0.532298	0.824740
	N256	N	0.178879	0.914177	0.467154
	N257	N	0.182634	0.086560	0.540382
	N258	N	0.821458	0.085382	0.466358
	N259	N	0.819673	0.911800	0.539643
	N260	N	0.462961	0.174737	0.915192
	N261	N	0.537390	0.170663	0.083566
	N262	N	0.462762	0.819476	0.087045
	N263	N	0.538201	0.822852	0.918098
	N264	N	0.464448	0.906600	0.184052
	N265	N	0.535728	0.083571	0.180439
	N266	N	0.464390	0.086248	0.820710
	N267	N	0.535619	0.910932	0.822944
	N268	N	0.915165	0.178796	0.468205
	N269	N	0.086268	0.177088	0.542179
	N270	N	0.086321	0.820380	0.467925
	N271	N	0.912457	0.818171	0.540699
	N272	N	0.176791	0.458924	0.920291
	N273	N	0.175475	0.534822	0.087872
	N274	N	0.822410	0.459027	0.092284
	N275	N	0.828177	0.535467	0.923874
	O276	O	1.000239	0.905208	-0.059008
	H277	H	0.999007	0.904895	-0.047392
	H278	H	1.001515	0.910513	-0.065256
	O279	O	0.532265	0.539661	0.525909
	H280	H	0.530293	0.539556	0.528083
	H281	H	0.529506	0.534928	0.530460
	O282	O	1.072673	0.992620	-0.120313
	H283	H	1.074195	0.985210	-0.105643
	H284	H	1.072759	0.992583	-0.122170
	O285	O	1.022839	-0.117916	0.999031
	H286	H	1.019962	-0.133568	1.009543
	H287	H	1.015034	-0.122651	1.003173
	O288	O	0.559906	0.553765	0.579717
	H289	H	0.561902	0.557429	0.572718
	H290	H	0.562141	0.568505	0.583487
	O291	O	0.541048	0.507363	0.435047
	H292	H	0.526672	0.504661	0.435799
	H293	H	0.542337	0.496289	0.425773
	O294	O	0.623849	0.453181	0.413790
	H295	H	0.623892	0.445676	0.414502
	H296	H	0.626505	0.445532	0.402627
	O297	O	0.122897	-0.099521	0.884842
	H298	H	0.129281	-0.093427	0.897256
	H299	H	0.118012	-0.100727	0.877336
	O300	O	0.552458	0.494803	0.538806
	H301	H	0.546460	0.497692	0.549099
	H302	H	0.551847	0.506184	0.530791
	O303	O	0.974677	0.953617	-0.036926
	H304	H	0.980840	0.945997	-0.033535
	H305	H	0.983832	0.956260	-0.037872
	O306	O	-0.104328	1.053763	0.944407
	H307	H	-0.116330	1.065707	0.939140
	H308	H	-0.113674	1.060616	0.950836
	O309	O	0.504466	0.450802	0.623198
	H310	H	0.510540	0.447140	0.620197
	H311	H	0.502391	0.456755	0.615231
	O312	O	-0.062867	-0.055382	0.165554
	H313	H	-0.060181	-0.054160	0.153909
	H314	H	-0.066705	-0.065779	0.170541
	O315	O	1.005981	0.012091	-0.136231
	H316	H	1.003713	0.020727	-0.134936
	H317	H	1.004121	0.015952	-0.149673
	O318	O	1.090629	1.083856	0.940730
	H319	H	1.078906	1.083373	0.938013
	H320	H	1.100347	1.095650	0.934640
	O321	O	-0.057782	-0.148829	1.066081
	H322	H	-0.066214	-0.127084	1.071826
	H323	H	-0.078061	-0.160374	1.065784
	O324	O	0.533492	0.424484	0.425953
	H325	H	0.534643	0.420275	0.434153
	H326	H	0.534101	0.431864	0.429803
	O327	O	-0.148856	-0.069559	0.161914
	H328	H	-0.166701	-0.068995	0.170379
	H329	H	-0.146054	-0.082555	0.164212
	O330	O	0.538404	0.402671	0.522809
	H331	H	0.544205	0.396878	0.519871
	H332	H	0.556456	0.398547	0.531276
	O333	O	-0.075429	0.980942	0.985655
	H334	H	-0.067798	0.985035	0.990573
	H335	H	-0.076527	0.966234	0.993136
	O336	O	0.049037	-0.063061	0.139147
	H337	H	0.034987	-0.065800	0.134784
	H338	H	0.055901	-0.073643	0.142087
	O339	O	0.485645	0.498341	0.485371
	H340	H	0.491357	0.496322	0.494042
	H341	H	0.476766	0.493141	0.481482
	O342	O	0.870078	1.118795	1.008190
	H343	H	0.877217	1.128167	1.004753
	H344	H	0.878884	1.118662	1.000326
	O345	O	1.062216	0.970987	0.037407
	H346	H	1.049088	0.968645	0.027606
	H347	H	1.069610	0.968213	0.039473
	O348	O	0.441830	0.457746	0.526768
	H349	H	0.436785	0.460932	0.526355
	H350	H	0.450296	0.456556	0.521970
	O351	O	-0.176343	1.041811	0.011772
	H352	H	-0.170810	1.049566	0.018383
	H353	H	-0.178994	1.036764	0.007648
	O354	O	0.489646	0.417909	0.466488
	H355	H	0.487501	0.412618	0.479937
	H356	H	0.488767	0.417345	0.464543
	O357	O	1.006966	0.092652	0.952242
	H358	H	1.008620	0.088225	0.955226
	H359	H	1.031290	0.096370	0.944710
	O360	O	0.459309	0.419464	0.600900
	H361	H	0.451648	0.420569	0.607737
	H362	H	0.462563	0.428907	0.614300
	O363	O	0.401087	0.453239	0.553581
	H364	H	0.399684	0.449725	0.552708
	H365	H	0.418963	0.453471	0.561849
	O366	O	1.156971	1.095485	1.089256
	H367	H	1.157252	1.069193	1.085384
	H368	H	1.165172	1.102276	1.090740
	O369	O	0.920644	0.050427	0.981698
	H370	H	0.917967	0.035471	0.974707
	H371	H	0.918584	0.062774	0.974948
	O372	O	0.132093	-0.032243	0.139957
	H373	H	0.134549	-0.019513	0.153044
	H374	H	0.138998	-0.034008	0.128514
	O375	O	1.084562	0.097564	0.002977
	H376	H	1.092951	0.092826	0.002502
	H377	H	1.083899	0.094995	-0.000666
	O378	O	0.455205	0.598331	0.475496
	H379	H	0.453790	0.587293	0.459776
	H380	H	0.448025	0.597356	0.472805
	O381	O	0.487386	0.474952	0.511419
	H382	H	0.481706	0.468695	0.499302
	H383	H	0.486691	0.473406	0.512204
