data_Molecule from HDF5

_cell_length_a		15.984987
_cell_length_b		16.146859
_cell_length_c		16.464612
_cell_angle_alpha	89.259512
_cell_angle_beta	89.105558
_cell_angle_gamma	90.616264
_symmetry_space_group_name_H-M	'P 1'
_symmetry_Int_Tables_number		1

loop_
	_symmetry_equiv_pos_as_xyz
	x,y,z

loop_
	_atom_site_label
	_atom_site_type_symbol
	_atom_site_fract_x
	_atom_site_fract_y
	_atom_site_fract_z
	H0	H	0.399169	0.834127	0.711754
	H1	H	0.611315	0.159856	0.701209
	H2	H	0.610720	0.832638	0.272544
	H3	H	0.408157	0.158765	0.271023
	H4	H	0.724767	0.404043	0.827115
	H5	H	0.719030	0.589988	0.154885
	H6	H	0.302069	0.593113	0.825709
	H7	H	0.288812	0.393329	0.151528
	H8	H	0.839181	0.704120	0.396941
	H9	H	0.173539	0.708961	0.580984
	H10	H	0.840677	0.281572	0.591195
	H11	H	0.175451	0.289923	0.392621
	H12	H	0.844194	0.390181	0.710964
	H13	H	0.173994	0.597723	0.697504
	H14	H	0.842499	0.597259	0.274929
	H15	H	0.173254	0.398582	0.272480
	H16	H	0.412523	0.713803	0.828824
	H17	H	0.606955	0.711029	0.153094
	H18	H	0.610276	0.283772	0.826765
	H19	H	0.404406	0.275089	0.151493
	H20	H	0.717951	0.829013	0.394285
	H21	H	0.718295	0.161474	0.577403
	H22	H	0.293736	0.829999	0.588931
	H23	H	0.303149	0.163288	0.395842
	H24	H	0.901061	0.333947	0.211602
	H25	H	0.113280	0.660536	0.201581
	H26	H	0.112206	0.332585	0.771698
	H27	H	0.910175	0.659570	0.772630
	H28	H	0.223553	0.903846	0.325845
	H29	H	0.219315	0.091362	0.653423
	H30	H	0.801128	0.092820	0.324650
	H31	H	0.789560	0.895277	0.651782
	H32	H	0.341088	0.205914	0.894529
	H33	H	0.674998	0.205349	0.080290
	H34	H	0.341532	0.780317	0.090637
	H35	H	0.676366	0.790505	0.894341
	H36	H	0.344143	0.888601	0.211319
	H37	H	0.673031	0.098959	0.199371
	H38	H	0.342426	0.097988	0.775283
	H39	H	0.671980	0.897243	0.771774
	H40	H	0.910900	0.216057	0.328704
	H41	H	0.106209	0.211447	0.651839
	H42	H	0.105935	0.785408	0.325341
	H43	H	0.904708	0.777172	0.651308
	H44	H	0.220319	0.329413	0.894320
	H45	H	0.219118	0.662631	0.077119
	H46	H	0.794953	0.330457	0.089500
	H47	H	0.804224	0.663609	0.896368
	H48	H	0.420302	0.116773	0.593096
	H49	H	0.598910	0.875479	0.586687
	H50	H	0.607260	0.114391	0.395552
	H51	H	0.420755	0.882400	0.409319
	H52	H	0.607295	0.404222	0.106005
	H53	H	0.603156	0.594786	0.875434
	H54	H	0.408170	0.580395	0.105479
	H55	H	0.413087	0.402995	0.872448
	H56	H	0.126940	0.587992	0.389303
	H57	H	0.887800	0.587311	0.580786
	H58	H	0.128680	0.399571	0.580450
	H59	H	0.885633	0.394830	0.400903
	H60	H	0.124695	0.409022	0.576848
	H61	H	0.889129	0.579339	0.586485
	H62	H	0.128879	0.594175	0.391559
	H63	H	0.893393	0.411285	0.407766
	H64	H	0.421457	0.585833	0.103581
	H65	H	0.609508	0.598407	0.873870
	H66	H	0.591199	0.401381	0.102330
	H67	H	0.419351	0.402551	0.875377
	H68	H	0.605623	0.116028	0.384959
	H69	H	0.592306	0.878338	0.586217
	H70	H	0.422287	0.111364	0.576820
	H71	H	0.404743	0.874374	0.397628
	H72	H	0.923594	0.614860	0.091656
	H73	H	0.106750	0.377168	0.076052
	H74	H	0.108385	0.615657	0.885598
	H75	H	0.917154	0.373989	0.885212
	H76	H	0.107676	0.904955	0.605149
	H77	H	0.105147	0.094628	0.373402
	H78	H	0.905993	0.091105	0.607155
	H79	H	0.912031	0.906466	0.374323
	H80	H	0.626765	0.087584	0.891534
	H81	H	0.385871	0.090722	0.084227
	H82	H	0.627344	0.901347	0.077299
	H83	H	0.389124	0.906297	0.900539
	H84	H	0.624682	0.910037	0.081271
	H85	H	0.391648	0.079712	0.076425
	H86	H	0.628055	0.089915	0.890886
	H87	H	0.387523	0.903582	0.898240
	H88	H	0.911449	0.079573	0.602719
	H89	H	0.105656	0.092669	0.374173
	H90	H	0.090557	0.904495	0.600896
	H91	H	0.920743	0.899106	0.373705
	H92	H	0.098759	0.612864	0.889415
	H93	H	0.096559	0.374251	0.098258
	H94	H	0.918724	0.612048	0.075883
	H95	H	0.931174	0.383608	0.903449
	H96	H	0.406506	0.116184	0.582286
	H97	H	0.595717	0.878559	0.580162
	H98	H	0.597136	0.112105	0.390539
	H99	H	0.425165	0.877542	0.388725
	H100	H	0.599764	0.389221	0.108350
	H101	H	0.608852	0.590891	0.874978
	H102	H	0.410976	0.593232	0.108725
	H103	H	0.417222	0.397310	0.873165
	H104	H	0.125462	0.589230	0.396191
	H105	H	0.885083	0.588094	0.590648
	H106	H	0.128296	0.407734	0.586738
	H107	H	0.887837	0.410010	0.390500
	H108	H	0.908024	0.618965	0.086723
	H109	H	0.083668	0.383510	0.079800
	H110	H	0.106716	0.613278	0.894987
	H111	H	0.906680	0.377345	0.907666
	H112	H	0.098642	0.890516	0.607471
	H113	H	0.103469	0.093312	0.374763
	H114	H	0.919469	0.090631	0.604571
	H115	H	0.910462	0.895871	0.370300
	H116	H	0.626974	0.089114	0.892690
	H117	H	0.388056	0.078250	0.090138
	H118	H	0.629634	0.903961	0.086568
	H119	H	0.389557	0.902401	0.901424
	C120	C	0.385175	0.005684	0.613423
	C121	C	0.626520	0.986743	0.609716
	C122	C	0.631145	0.004768	0.364533
	C123	C	0.389191	0.987320	0.369553
	C124	C	0.630114	0.373143	-0.002096
	C125	C	0.633048	0.620420	0.982834
	C126	C	0.387664	0.616383	-0.001579
	C127	C	0.385233	0.371132	0.981060
	C128	C	0.016504	0.617836	0.366703
	C129	C	0.998147	0.615299	0.610010
	C130	C	0.017220	0.374492	0.612171
	C131	C	0.999306	0.377492	0.369962
	C132	C	0.886471	0.505982	0.113611
	C133	C	0.127286	0.487483	0.109779
	C134	C	0.132298	0.504555	0.864586
	C135	C	0.890157	0.487323	0.869868
	C136	C	0.129071	0.873984	0.496866
	C137	C	0.131651	0.120476	0.481601
	C138	C	0.886357	0.117306	0.497526
	C139	C	0.883796	0.871270	0.480146
	C140	C	0.516912	0.117212	0.866146
	C141	C	0.498568	0.113695	0.108845
	C142	C	0.517529	0.873945	0.112262
	C143	C	0.498664	0.876250	0.869815
	C144	C	0.382265	0.882271	0.671234
	C145	C	0.628392	0.110816	0.662892
	C146	C	0.629697	0.881243	0.310817
	C147	C	0.390262	0.110726	0.311693
	C148	C	0.686757	0.380928	0.875577
	C149	C	0.683812	0.613347	0.105700
	C150	C	0.337141	0.614051	0.875146
	C151	C	0.327233	0.372676	0.103019
	C152	C	0.889810	0.669179	0.373585
	C153	C	0.123835	0.671150	0.602998
	C154	C	0.891413	0.318602	0.611152
	C155	C	0.125219	0.325494	0.372020
	C156	C	0.892948	0.372341	0.670962
	C157	C	0.123983	0.615972	0.661033
	C158	C	0.891615	0.616288	0.313047
	C159	C	0.124009	0.379683	0.312173
	C160	C	0.392116	0.674287	0.876864
	C161	C	0.627468	0.673057	0.104889
	C162	C	0.629603	0.321246	0.875366
	C163	C	0.384988	0.313941	0.103062
	C164	C	0.683038	0.879451	0.371324
	C165	C	0.681709	0.111889	0.601527
	C166	C	0.329627	0.880471	0.610376
	C167	C	0.337725	0.112913	0.373264
	C168	C	0.884379	0.382235	0.171233
	C169	C	0.129832	0.611492	0.163023
	C170	C	0.131102	0.381021	0.810605
	C171	C	0.891733	0.611135	0.812370
	C172	C	0.185377	0.880679	0.374358
	C173	C	0.183566	0.114172	0.604352
	C174	C	0.836080	0.114473	0.374129
	C175	C	0.827223	0.874055	0.602851
	C176	C	0.391299	0.170275	0.872311
	C177	C	0.624817	0.168835	0.102317
	C178	C	0.391767	0.817503	0.111261
	C179	C	0.625380	0.824967	0.872479
	C180	C	0.393069	0.871511	0.171004
	C181	C	0.623864	0.115743	0.161576
	C182	C	0.391965	0.116714	0.812789
	C183	C	0.623179	0.878070	0.811516
	C184	C	0.890857	0.175619	0.376061
	C185	C	0.127052	0.173690	0.603676
	C186	C	0.126867	0.822081	0.374171
	C187	C	0.884507	0.815358	0.602634
	C188	C	0.184857	0.379553	0.871469
	C189	C	0.182599	0.612604	0.101182
	C190	C	0.830925	0.380737	0.110896
	C191	C	0.838833	0.612975	0.873971
	C192	C	0.409340	0.092299	0.590637
	C193	C	0.602702	0.899937	0.590394
	C194	C	0.609720	0.091771	0.384286
	C195	C	0.410568	0.900398	0.392075
	C196	C	0.606312	0.392638	0.083465
	C197	C	0.613113	0.600517	0.896927
	C198	C	0.407577	0.593160	0.083970
	C199	C	0.409286	0.394217	0.895838
	C200	C	0.104316	0.596687	0.386329
	C201	C	0.909956	0.591757	0.591519
	C202	C	0.104829	0.398682	0.588317
	C203	C	0.911519	0.399058	0.393030
	C204	C	0.909859	0.592706	0.091332
	C205	C	0.102935	0.400619	0.090542
	C206	C	0.111021	0.591491	0.883997
	C207	C	0.911888	0.400724	0.892104
	C208	C	0.105871	0.893903	0.582289
	C209	C	0.110828	0.099864	0.396105
	C210	C	0.906295	0.093979	0.582645
	C211	C	0.907361	0.893678	0.394807
	C212	C	0.604593	0.095426	0.885721
	C213	C	0.411045	0.089734	0.089464
	C214	C	0.604688	0.898046	0.088731
	C215	C	0.411319	0.897666	0.893438
	Zn216	Zn	0.506329	-0.003680	0.739990
	Zn217	Zn	0.508536	-0.004311	0.238385
	Zn218	Zn	0.760847	0.496805	-0.008937
	Zn219	Zn	0.257294	0.495628	-0.011131
	Zn220	Zn	0.006617	0.742834	0.488944
	Zn221	Zn	0.008050	0.248884	0.490079
	Zn222	Zn	0.008809	0.495201	0.738668
	Zn223	Zn	0.007403	0.497405	0.240286
	Zn224	Zn	0.508596	0.747909	-0.009152
	Zn225	Zn	0.508002	0.241838	-0.010510
	Zn226	Zn	0.755842	-0.005133	0.488158
	Zn227	Zn	0.260359	-0.003210	0.489999
	N228	N	0.416025	0.960907	0.673275
	N229	N	0.594688	0.031930	0.667895
	N230	N	0.598252	0.960177	0.306342
	N231	N	0.421392	0.031592	0.309314
	N232	N	0.687265	0.412349	0.952767
	N233	N	0.687285	0.581459	0.028666
	N234	N	0.334168	0.578669	0.951756
	N235	N	0.327048	0.407473	0.026208
	N236	N	0.968650	0.670530	0.405956
	N237	N	0.044585	0.670790	0.571947
	N238	N	0.969985	0.319681	0.575394
	N239	N	0.046630	0.324079	0.407169
	N240	N	0.972302	0.406301	0.671699
	N241	N	0.044699	0.581829	0.665514
	N242	N	0.971359	0.585166	0.308674
	N243	N	0.044485	0.411279	0.310911
	N244	N	0.422683	0.675873	0.954611
	N245	N	0.596675	0.677575	0.027297
	N246	N	0.595028	0.316388	0.952556
	N247	N	0.420314	0.312940	0.026175
	N248	N	0.684188	0.957375	0.404043
	N249	N	0.680698	0.033986	0.568995
	N250	N	0.330865	0.958390	0.575299
	N251	N	0.336968	0.035324	0.408696
	N252	N	0.918096	0.460860	0.173221
	N253	N	0.096066	0.532677	0.168420
	N254	N	0.099110	0.459688	0.806214
	N255	N	0.922877	0.531996	0.809728
	N256	N	0.186888	0.912085	0.451596
	N257	N	0.186417	0.081615	0.527462
	N258	N	0.832870	0.078867	0.450481
	N259	N	0.826584	0.908079	0.525651
	N260	N	0.470021	0.170987	0.904695
	N261	N	0.545975	0.167741	0.070207
	N262	N	0.470081	0.818857	0.075476
	N263	N	0.546890	0.823601	0.908111
	N264	N	0.472194	0.906155	0.171575
	N265	N	0.544427	0.081953	0.165761
	N266	N	0.471090	0.084255	0.808922
	N267	N	0.543373	0.909123	0.809675
	N268	N	0.921372	0.177489	0.453739
	N269	N	0.095770	0.177785	0.526281
	N270	N	0.092398	0.817980	0.451385
	N271	N	0.918686	0.813321	0.525413
	N272	N	0.185795	0.457398	0.904328
	N273	N	0.181380	0.534464	0.068915
	N274	N	0.832194	0.458632	0.075403
	N275	N	0.837718	0.535382	0.909270
	O276	O	0.961662	0.992452	0.097936
	H277	H	0.959318	0.990035	0.099297
	H278	H	0.961571	0.986496	0.084922
	O279	O	-0.007186	-0.007356	0.908327
	H280	H	-0.017104	-0.007260	0.911452
	H281	H	-0.012587	-0.004364	0.902237
	O282	O	0.041034	0.004140	0.021135
	H283	H	0.046954	0.010796	0.018055
	H284	H	0.047479	0.004926	0.015586
	O285	O	0.568566	0.558131	0.565403
	H286	H	0.568490	0.552983	0.560153
	H287	H	0.568385	0.560139	0.570580
	O288	O	-0.032491	-0.085557	0.004917
	H289	H	-0.024885	-0.093304	-0.006429
	H290	H	-0.036481	-0.089900	0.000897
	O291	O	-0.029227	1.028678	0.015377
	H292	H	-0.030670	1.026626	0.022859
	H293	H	-0.031803	1.032699	0.016283
	O294	O	0.116232	1.014111	-0.062621
	H295	H	0.108009	1.025265	-0.059989
	H296	H	0.127792	1.016282	-0.057108
	O297	O	0.476097	0.401525	0.550364
	H298	H	0.480049	0.402894	0.544241
	H299	H	0.470243	0.408644	0.548712
	O300	O	0.474371	0.453479	0.509758
	H301	H	0.472351	0.450734	0.510628
	H302	H	0.471551	0.444018	0.518249
	O303	O	0.949354	-0.066188	1.025135
	H304	H	0.959039	-0.067420	1.026884
	H305	H	0.938056	-0.082257	1.030156
	O306	O	-0.011760	0.998988	0.965351
	H307	H	0.003138	1.002299	0.975119
	H308	H	-0.010124	1.005358	0.960531
	O309	O	0.014731	0.986532	0.896677
	H310	H	0.004531	0.994668	0.899574
	H311	H	0.012147	0.981913	0.899778
	O312	O	-0.079693	0.033282	0.991078
	H313	H	-0.089547	0.031513	1.002764
	H314	H	-0.072774	0.024910	0.990401
	O315	O	0.497653	0.513596	0.473775
	H316	H	0.509969	0.510148	0.471092
	H317	H	0.491885	0.512433	0.473455
	O318	O	-0.036948	0.017859	1.031595
	H319	H	-0.038392	0.017927	1.032094
	H320	H	-0.040931	0.011698	1.019784
	O321	O	-0.010072	1.004174	1.028996
	H322	H	-0.003217	1.010608	1.017114
	H323	H	-0.009957	0.999989	1.032848
	O324	O	0.996361	0.040537	0.979744
	H325	H	0.997064	0.027816	1.002114
	H326	H	0.988653	0.046741	0.977988
	O327	O	1.041419	0.951321	0.958707
	H328	H	1.047099	0.956842	0.967585
	H329	H	1.038823	0.947465	0.952982
	O330	O	0.433329	0.449204	0.562204
	H331	H	0.424803	0.443356	0.556838
	H332	H	0.431612	0.439802	0.565500
	O333	O	0.455879	0.413872	0.503438
	H334	H	0.455207	0.410039	0.510960
	H335	H	0.452620	0.411645	0.500896
	O336	O	0.434533	0.474279	0.537510
	H337	H	0.424407	0.478302	0.544031
	H338	H	0.429729	0.465133	0.534275
	O339	O	0.485830	0.520127	0.555713
	H340	H	0.487860	0.519204	0.554495
	H341	H	0.492435	0.522400	0.563007
	O342	O	0.542337	0.528499	0.516144
	H343	H	0.536625	0.529574	0.524615
	H344	H	0.543435	0.535188	0.520819
	O345	O	0.505327	0.563133	0.550804
	H346	H	0.505551	0.566005	0.550001
	H347	H	0.503885	0.570176	0.551811
