data_Molecule from HDF5

_cell_length_a		16.264394
_cell_length_b		16.445232
_cell_length_c		16.175907
_cell_angle_alpha	89.972276
_cell_angle_beta	89.806292
_cell_angle_gamma	89.903089
_symmetry_space_group_name_H-M	'P 1'
_symmetry_Int_Tables_number		1

loop_
	_symmetry_equiv_pos_as_xyz
	x,y,z

loop_
	_atom_site_label
	_atom_site_type_symbol
	_atom_site_fract_x
	_atom_site_fract_y
	_atom_site_fract_z
	H0	H	0.391480	0.825993	0.729185
	H1	H	0.594198	0.147729	0.725484
	H2	H	0.596463	0.826730	0.288248
	H3	H	0.388771	0.146499	0.288442
	H4	H	0.709962	0.384408	0.845315
	H5	H	0.711457	0.590671	0.169323
	H6	H	0.278047	0.588828	0.843860
	H7	H	0.274361	0.384914	0.169519
	H8	H	0.834162	0.709175	0.398536
	H9	H	0.155766	0.703835	0.609363
	H10	H	0.834175	0.266957	0.615653
	H11	H	0.151945	0.261987	0.396863
	H12	H	0.831527	0.387067	0.723889
	H13	H	0.155734	0.587877	0.723586
	H14	H	0.831477	0.587846	0.290945
	H15	H	0.155006	0.383199	0.287183
	H16	H	0.388584	0.707889	0.847299
	H17	H	0.600284	0.707878	0.168190
	H18	H	0.598534	0.266714	0.847129
	H19	H	0.386057	0.267690	0.169269
	H20	H	0.714114	0.826625	0.403941
	H21	H	0.714095	0.146064	0.614127
	H22	H	0.271848	0.826917	0.615619
	H23	H	0.271448	0.145855	0.404952
	H24	H	0.890527	0.325582	0.226365
	H25	H	0.095782	0.647081	0.225585
	H26	H	0.095239	0.325077	0.788719
	H27	H	0.892084	0.647600	0.788240
	H28	H	0.213296	0.882383	0.346416
	H29	H	0.208853	0.088848	0.671364
	H30	H	0.773958	0.091159	0.346358
	H31	H	0.778846	0.886136	0.672106
	H32	H	0.332338	0.205826	0.905666
	H33	H	0.653890	0.206719	0.113151
	H34	H	0.334531	0.764431	0.117620
	H35	H	0.653535	0.765062	0.900699
	H36	H	0.331066	0.886197	0.225539
	H37	H	0.654386	0.089896	0.225845
	H38	H	0.330398	0.087312	0.793894
	H39	H	0.656052	0.886094	0.791369
	H40	H	0.886599	0.208295	0.346972
	H41	H	0.097807	0.207376	0.669180
	H42	H	0.100880	0.767046	0.346175
	H43	H	0.890756	0.767165	0.668636
	H44	H	0.212726	0.326129	0.903611
	H45	H	0.212715	0.647171	0.109790
	H46	H	0.773789	0.326014	0.110021
	H47	H	0.771238	0.646424	0.901526
	H48	H	0.407139	0.097417	0.598460
	H49	H	0.586619	0.872592	0.596569
	H50	H	0.587147	0.105274	0.404833
	H51	H	0.404490	0.873976	0.420170
	H52	H	0.581118	0.389643	0.125541
	H53	H	0.588835	0.568473	0.892467
	H54	H	0.406397	0.573506	0.121384
	H55	H	0.403337	0.399370	0.892371
	H56	H	0.112159	0.584364	0.413903
	H57	H	0.877922	0.574057	0.601884
	H58	H	0.108301	0.398691	0.593008
	H59	H	0.874960	0.388682	0.414669
	H60	H	0.110423	0.396099	0.598372
	H61	H	0.876080	0.585853	0.596753
	H62	H	0.106809	0.576423	0.424651
	H63	H	0.882219	0.396792	0.428963
	H64	H	0.405568	0.579219	0.123937
	H65	H	0.571403	0.573992	0.896586
	H66	H	0.588331	0.399022	0.125241
	H67	H	0.408627	0.394050	0.891981
	H68	H	0.569066	0.094366	0.421965
	H69	H	0.587191	0.870682	0.602493
	H70	H	0.394380	0.100333	0.595500
	H71	H	0.401861	0.873477	0.420462
	H72	H	0.898193	0.602532	0.103201
	H73	H	0.079869	0.377361	0.087622
	H74	H	0.080847	0.595818	0.924883
	H75	H	0.898901	0.373950	0.920004
	H76	H	0.083615	0.890222	0.625862
	H77	H	0.078275	0.077550	0.392929
	H78	H	0.903568	0.080887	0.625345
	H79	H	0.901896	0.897040	0.390314
	H80	H	0.608761	0.076019	0.917732
	H81	H	0.379734	0.073221	0.097579
	H82	H	0.607637	0.897131	0.095303
	H83	H	0.379510	0.894929	0.922485
	H84	H	0.609183	0.896469	0.098064
	H85	H	0.374869	0.080543	0.102704
	H86	H	0.610726	0.080200	0.916821
	H87	H	0.379441	0.899165	0.919966
	H88	H	0.902016	0.076083	0.623427
	H89	H	0.085027	0.075164	0.392479
	H90	H	0.085302	0.898178	0.623915
	H91	H	0.905518	0.900212	0.392907
	H92	H	0.098149	0.604822	0.914989
	H93	H	0.094485	0.370109	0.096153
	H94	H	0.908668	0.597503	0.098095
	H95	H	0.899661	0.370688	0.912805
	H96	H	0.399225	0.103330	0.607560
	H97	H	0.582434	0.873153	0.600701
	H98	H	0.594352	0.100154	0.430355
	H99	H	0.403448	0.873140	0.418535
	H100	H	0.576641	0.399829	0.121803
	H101	H	0.583142	0.585651	0.888778
	H102	H	0.399911	0.575093	0.124216
	H103	H	0.401379	0.391952	0.889394
	H104	H	0.108692	0.570576	0.411652
	H105	H	0.881073	0.576162	0.589522
	H106	H	0.109730	0.392822	0.593272
	H107	H	0.879787	0.406003	0.413277
	H108	H	0.897861	0.598844	0.090656
	H109	H	0.078580	0.372391	0.105377
	H110	H	0.079078	0.602377	0.904420
	H111	H	0.905816	0.374361	0.916186
	H112	H	0.076258	0.894213	0.622045
	H113	H	0.079971	0.071050	0.395075
	H114	H	0.906858	0.076929	0.622905
	H115	H	0.907437	0.895419	0.391457
	H116	H	0.608195	0.079995	0.921080
	H117	H	0.377703	0.082088	0.093346
	H118	H	0.609298	0.893725	0.095450
	H119	H	0.377419	0.895280	0.917664
	C120	C	0.370100	-0.005233	0.632113
	C121	C	0.615401	0.978222	0.630750
	C122	C	0.615468	-0.005168	0.386445
	C123	C	0.371480	0.978530	0.387919
	C124	C	0.613736	0.365342	0.016974
	C125	C	0.613658	0.607774	0.999139
	C126	C	0.372362	0.608067	0.016172
	C127	C	0.372426	0.365103	0.998670
	C128	C	0.003066	0.608711	0.384783
	C129	C	0.984970	0.608471	0.627471
	C130	C	0.002797	0.365826	0.627310
	C131	C	0.984780	0.365009	0.385846
	C132	C	0.870320	0.494656	0.129529
	C133	C	0.114838	0.478947	0.127724
	C134	C	0.116321	0.494825	0.884056
	C135	C	0.870755	0.478720	0.885338
	C136	C	0.114631	0.864098	0.516755
	C137	C	0.112934	0.106948	0.500067
	C138	C	0.871859	0.109358	0.516954
	C139	C	0.873733	0.866175	0.498823
	C140	C	0.502152	0.108729	0.887532
	C141	C	0.483966	0.109449	0.129811
	C142	C	0.502068	0.865080	0.128759
	C143	C	0.485306	0.865420	0.887705
	C144	C	0.371232	0.874288	0.690471
	C145	C	0.614425	0.099157	0.687704
	C146	C	0.616122	0.874555	0.327218
	C147	C	0.369658	0.098515	0.327969
	C148	C	0.671614	0.365133	0.894370
	C149	C	0.673024	0.609291	0.120594
	C150	C	0.315665	0.608381	0.893361
	C151	C	0.313490	0.365753	0.120990
	C152	C	0.882143	0.668385	0.382100
	C153	C	0.106938	0.665539	0.628201
	C154	C	0.881847	0.307151	0.631689
	C155	C	0.104687	0.303392	0.380645
	C156	C	0.880709	0.366772	0.686012
	C157	C	0.106937	0.607736	0.685170
	C158	C	0.880600	0.608191	0.327999
	C159	C	0.106252	0.363962	0.326192
	C160	C	0.370584	0.667900	0.895220
	C161	C	0.617587	0.667718	0.120149
	C162	C	0.616121	0.306446	0.895237
	C163	C	0.368829	0.306900	0.120649
	C164	C	0.674882	0.874797	0.384849
	C165	C	0.674316	0.098194	0.632205
	C166	C	0.312071	0.874474	0.633476
	C167	C	0.311579	0.098424	0.386222
	C168	C	0.870929	0.373841	0.187571
	C169	C	0.114881	0.599170	0.186381
	C170	C	0.115041	0.373683	0.827171
	C171	C	0.871785	0.599315	0.826988
	C172	C	0.174528	0.863777	0.395131
	C173	C	0.170654	0.107773	0.622363
	C174	C	0.812978	0.110061	0.395172
	C175	C	0.816359	0.866131	0.622239
	C176	C	0.380399	0.166433	0.886911
	C177	C	0.605269	0.167654	0.131298
	C178	C	0.381828	0.805548	0.132973
	C179	C	0.605783	0.805772	0.884218
	C180	C	0.380225	0.865841	0.187334
	C181	C	0.605741	0.109331	0.187516
	C182	C	0.379531	0.107318	0.831388
	C183	C	0.607175	0.865903	0.829613
	C184	C	0.869103	0.168579	0.395430
	C185	C	0.115409	0.166975	0.621032
	C186	C	0.118272	0.806445	0.394711
	C187	C	0.872157	0.806912	0.620614
	C188	C	0.173863	0.374171	0.884072
	C189	C	0.173307	0.599230	0.128627
	C190	C	0.812531	0.374027	0.129825
	C191	C	0.811611	0.598808	0.883575
	C192	C	0.393500	0.078558	0.607615
	C193	C	0.592096	0.893839	0.606920
	C194	C	0.590554	0.078185	0.411701
	C195	C	0.396258	0.895321	0.412458
	C196	C	0.589174	0.389107	0.102081
	C197	C	0.588407	0.583168	0.914464
	C198	C	0.396738	0.583072	0.101192
	C199	C	0.397248	0.388232	0.913481
	C200	C	0.087360	0.584437	0.409618
	C201	C	0.900406	0.585492	0.603111
	C202	C	0.087370	0.389076	0.602147
	C203	C	0.900828	0.389962	0.411540
	C204	C	0.894438	0.578050	0.104645
	C205	C	0.091071	0.395026	0.103426
	C206	C	0.092950	0.579200	0.907875
	C207	C	0.894483	0.394807	0.909400
	C208	C	0.089111	0.887536	0.601934
	C209	C	0.088154	0.081896	0.415304
	C210	C	0.896762	0.084944	0.601791
	C211	C	0.898037	0.890523	0.413742
	C212	C	0.587118	0.085483	0.911659
	C213	C	0.399383	0.085678	0.105205
	C214	C	0.586665	0.888997	0.103545
	C215	C	0.400674	0.889552	0.912839
	Zn216	Zn	0.493870	-0.012647	0.759784
	Zn217	Zn	0.493391	-0.012966	0.256654
	Zn218	Zn	0.740814	0.486778	0.007734
	Zn219	Zn	0.244901	0.486513	0.006148
	Zn220	Zn	-0.005625	0.736646	0.506019
	Zn221	Zn	-0.006234	0.236753	0.507769
	Zn222	Zn	-0.006021	0.486370	0.755379
	Zn223	Zn	-0.006820	0.486855	0.257817
	Zn224	Zn	0.493689	0.735934	0.008459
	Zn225	Zn	0.492959	0.237308	0.008685
	Zn226	Zn	0.744700	-0.013131	0.508732
	Zn227	Zn	0.241268	-0.014185	0.509203
	N228	N	0.406612	0.950142	0.689865
	N229	N	0.578512	0.023606	0.686752
	N230	N	0.580264	0.950348	0.327884
	N231	N	0.406340	0.023142	0.328701
	N232	N	0.670325	0.401007	0.971121
	N233	N	0.670641	0.572595	0.044306
	N234	N	0.316515	0.572060	0.969805
	N235	N	0.315247	0.401196	0.044031
	N236	N	0.959404	0.669128	0.416365
	N237	N	0.030091	0.666232	0.592896
	N238	N	0.958630	0.306491	0.595868
	N239	N	0.028195	0.303739	0.416950
	N240	N	0.956881	0.402840	0.683342
	N241	N	0.030327	0.572867	0.684928
	N242	N	0.956610	0.571860	0.329434
	N243	N	0.030641	0.401559	0.329257
	N244	N	0.405267	0.667697	0.972704
	N245	N	0.581611	0.667052	0.043523
	N246	N	0.580848	0.306335	0.972502
	N247	N	0.404959	0.306580	0.043652
	N248	N	0.674858	0.950601	0.420779
	N249	N	0.675023	0.021891	0.597255
	N250	N	0.310998	0.950524	0.598231
	N251	N	0.312465	0.022983	0.422703
	N252	N	0.905931	0.449932	0.187771
	N253	N	0.079345	0.523427	0.185985
	N254	N	0.080129	0.449961	0.826860
	N255	N	0.907860	0.523756	0.827990
	N256	N	0.172584	0.898893	0.472309
	N257	N	0.169132	0.070997	0.546102
	N258	N	0.814577	0.073867	0.471724
	N259	N	0.817244	0.902397	0.545558
	N260	N	0.457599	0.167626	0.920980
	N261	N	0.528291	0.168166	0.096508
	N262	N	0.458616	0.804899	0.097484
	N263	N	0.528846	0.805334	0.919688
	N264	N	0.456085	0.902343	0.184775
	N265	N	0.529394	0.073806	0.186663
	N266	N	0.456493	0.072404	0.831417
	N267	N	0.531172	0.902305	0.831540
	N268	N	0.904833	0.168355	0.472343
	N269	N	0.080311	0.166581	0.543837
	N270	N	0.081986	0.806401	0.471400
	N271	N	0.906877	0.806657	0.542857
	N272	N	0.174689	0.450519	0.918776
	N273	N	0.173441	0.523374	0.092900
	N274	N	0.812096	0.449950	0.094325
	N275	N	0.810906	0.522793	0.919083
	O276	O	0.458143	0.564547	0.599956
	H277	H	0.465922	0.571080	0.599336
	H278	H	0.459242	0.561889	0.602031
	O279	O	0.313774	0.336732	0.537630
	H280	H	0.304900	0.330311	0.543033
	H281	H	0.318031	0.347062	0.554473
	O282	O	0.868974	0.083746	1.051466
	H283	H	0.859383	0.092963	1.047734
	H284	H	0.849748	0.078339	1.048078
	O285	O	0.494522	0.419438	0.392487
	H286	H	0.483700	0.422009	0.378588
	H287	H	0.499236	0.425981	0.411605
	O288	O	1.086193	0.997363	1.004440
	H289	H	1.088275	0.993573	1.010569
	H290	H	1.083289	0.988837	0.994677
	O291	O	0.606173	1.587876	-0.403424
	H292	H	0.619031	1.574827	-0.399182
	H293	H	0.614689	1.588934	-0.404245
	O294	O	0.692808	0.497466	0.441130
	H295	H	0.698911	0.521796	0.452786
	H296	H	0.698061	0.484837	0.449093
	O297	O	0.555302	0.375582	0.359643
	H298	H	0.565379	0.385865	0.349416
	H299	H	0.525933	0.375669	0.358932
	O300	O	0.515680	0.446387	0.639862
	H301	H	0.519276	0.453115	0.632254
	H302	H	0.518715	0.428672	0.642013
	O303	O	0.480740	0.330897	0.541676
	H304	H	0.475499	0.325597	0.517854
	H305	H	0.502099	0.325693	0.543405
	O306	O	0.421913	0.595703	0.612035
	H307	H	0.420853	0.597751	0.613655
	H308	H	0.435795	0.594318	0.603058
	O309	O	0.539445	0.472378	0.415887
	H310	H	0.533575	0.461765	0.415305
	H311	H	0.536758	0.484427	0.410806
	O312	O	-0.200456	-0.108326	0.119913
	H313	H	-0.190948	-0.115426	0.117655
	H314	H	-0.201400	-0.121391	0.098751
	O315	O	0.389296	0.625040	0.555213
	H316	H	0.407691	0.617031	0.557525
	H317	H	0.379413	0.642471	0.544182
	O318	O	0.003562	0.945861	1.116667
	H319	H	0.011045	0.946326	1.126422
	H320	H	-0.003001	0.967855	1.124017
	O321	O	0.532409	0.448051	0.543294
	H322	H	0.532623	0.436813	0.523718
	H323	H	0.526483	0.433432	0.546014
	O324	O	-0.067228	1.103780	-0.056319
	H325	H	-0.059228	1.101186	-0.058114
	H326	H	-0.053157	1.109112	-0.061340
	O327	O	0.153041	0.070422	0.044969
	H328	H	0.150808	0.074057	0.040502
	H329	H	0.154170	0.068127	0.048957
	O330	O	0.159866	-0.009676	1.054006
	H331	H	0.181590	-0.005629	1.042198
	H332	H	0.163440	-0.009727	1.052522
	O333	O	-0.020826	0.115043	0.953738
	H334	H	-0.003604	0.117076	0.951146
	H335	H	-0.038170	0.114021	0.952237
	O336	O	0.491923	0.581692	0.672528
	H337	H	0.492630	0.587326	0.698019
	H338	H	0.481108	0.571608	0.669359
	O339	O	0.984011	0.130366	-0.107744
	H340	H	0.980960	0.130699	-0.113868
	H341	H	0.998584	0.126358	-0.116225
	O342	O	-0.158014	-0.076395	-0.066246
	H343	H	-0.151600	-0.058805	-0.072421
	H344	H	-0.141256	-0.083258	-0.076415
	O345	O	0.864093	0.156915	0.923444
	H346	H	0.860389	0.163860	0.927092
	H347	H	0.857168	0.159684	0.921512
	O348	O	0.951279	1.050057	0.108606
	H349	H	0.948539	1.045277	0.105615
	H350	H	0.953201	1.043429	0.115095
	O351	O	0.589967	0.332998	0.574671
	H352	H	0.599522	0.325586	0.565463
	H353	H	0.603825	0.336472	0.563913
	O354	O	1.175997	-0.009628	0.957309
	H355	H	1.192099	-0.015913	0.942568
	H356	H	1.176142	-0.017967	0.971305
	O357	O	0.497166	0.620930	0.387198
	H358	H	0.490201	0.645145	0.385153
	H359	H	0.503008	0.608137	0.380134
	O360	O	1.037308	0.814876	1.006665
	H361	H	1.031407	0.818883	1.016942
	H362	H	1.038799	0.816079	1.030940
	O363	O	-0.105701	0.950261	1.035640
	H364	H	-0.111763	0.947437	1.041637
	H365	H	-0.116179	0.945909	1.025043
	O366	O	0.384927	0.422954	0.607568
	H367	H	0.393654	0.425701	0.600154
	H368	H	0.398248	0.439673	0.612884
	O369	O	0.057136	1.087519	0.040427
	H370	H	0.064197	1.072266	0.029323
	H371	H	0.052703	1.102175	0.049099
	O372	O	0.467527	0.461821	0.316775
	H373	H	0.470866	0.434163	0.323409
	H374	H	0.456077	0.465557	0.318505
	O375	O	0.375246	0.573619	0.350596
	H376	H	0.383675	0.582429	0.368685
	H377	H	0.366907	0.543820	0.344042
	O378	O	0.958998	1.129687	0.064873
	H379	H	0.952056	1.115861	0.065772
	H380	H	0.960194	1.135770	0.071883
	O381	O	1.053356	-0.216551	-0.020115
	H382	H	1.069892	-0.218751	-0.023538
	H383	H	1.049006	-0.218057	-0.008407
	O384	O	1.559629	1.437021	-0.416735
	H385	H	1.548359	1.443434	-0.419620
	H386	H	1.555677	1.432970	-0.419078
	O387	O	-0.056321	-0.142847	0.192231
	H388	H	-0.050350	-0.131606	0.185172
	H389	H	-0.052705	-0.145718	0.197809
	O390	O	0.121811	0.807431	-0.097594
	H391	H	0.100145	0.806112	-0.084970
	H392	H	0.127063	0.798202	-0.074495
	O393	O	0.486705	0.667679	0.385545
	H394	H	0.466847	0.663265	0.379975
	H395	H	0.491453	0.683691	0.388685
	O396	O	0.357104	0.488558	0.402625
	H397	H	0.369912	0.501805	0.406688
	H398	H	0.357971	0.484301	0.417065
	O399	O	0.672663	1.614379	1.590671
	H400	H	0.684714	1.607010	1.599817
	H401	H	0.648274	1.605059	1.598820
	O402	O	0.410728	0.526278	0.499364
	H403	H	0.416818	0.524716	0.512457
	H404	H	0.409675	0.533855	0.504885
	O405	O	0.906138	0.795378	-0.065642
	H406	H	0.910446	0.802069	-0.059226
	H407	H	0.898467	0.779529	-0.076195
	O408	O	1.101947	0.923278	-0.061254
	H409	H	1.103034	0.921415	-0.058632
	H410	H	1.101498	0.915074	-0.054688
	O411	O	0.914351	-0.109270	1.105349
	H412	H	0.911301	-0.117756	1.118996
	H413	H	0.896693	-0.117587	1.106455
	O414	O	0.489899	0.341486	0.670119
	H415	H	0.489200	0.345246	0.654950
	H416	H	0.484579	0.325488	0.675500
	O417	O	0.595464	0.305171	0.373182
	H418	H	0.584741	0.296706	0.356581
	H419	H	0.592920	0.314205	0.368726
