data_Molecule from HDF5

_cell_length_a		16.188739
_cell_length_b		16.293748
_cell_length_c		16.256229
_cell_angle_alpha	89.918060
_cell_angle_beta	90.025172
_cell_angle_gamma	89.539062
_symmetry_space_group_name_H-M	'P 1'
_symmetry_Int_Tables_number		1

loop_
	_symmetry_equiv_pos_as_xyz
	x,y,z

loop_
	_atom_site_label
	_atom_site_type_symbol
	_atom_site_fract_x
	_atom_site_fract_y
	_atom_site_fract_z
	H0	H	0.409664	0.835389	0.723897
	H1	H	0.605489	0.162880	0.723893
	H2	H	0.609622	0.835411	0.293183
	H3	H	0.408121	0.161949	0.293802
	H4	H	0.723339	0.399584	0.843876
	H5	H	0.719964	0.593471	0.173155
	H6	H	0.292721	0.597873	0.845613
	H7	H	0.296511	0.401446	0.173229
	H8	H	0.844950	0.716260	0.408476
	H9	H	0.173462	0.710189	0.608085
	H10	H	0.843698	0.286232	0.607173
	H11	H	0.171954	0.282079	0.409492
	H12	H	0.843873	0.401207	0.723090
	H13	H	0.173053	0.594634	0.722777
	H14	H	0.843347	0.598148	0.295638
	H15	H	0.172450	0.398957	0.295663
	H16	H	0.405808	0.715038	0.846216
	H17	H	0.607785	0.711778	0.172211
	H18	H	0.609382	0.281400	0.844451
	H19	H	0.409517	0.283169	0.171833
	H20	H	0.725403	0.835707	0.410079
	H21	H	0.720342	0.163676	0.606768
	H22	H	0.295029	0.834635	0.605882
	H23	H	0.292492	0.162103	0.410321
	H24	H	0.909470	0.335276	0.224771
	H25	H	0.105208	0.661730	0.224479
	H26	H	0.108091	0.334608	0.795674
	H27	H	0.906603	0.662316	0.792371
	H28	H	0.222265	0.900700	0.343773
	H29	H	0.219808	0.094651	0.672915
	H30	H	0.793983	0.097663	0.344501
	H31	H	0.794960	0.901579	0.673283
	H32	H	0.344137	0.214214	0.909144
	H33	H	0.673030	0.209927	0.108028
	H34	H	0.343796	0.785595	0.108084
	H35	H	0.671787	0.781457	0.909298
	H36	H	0.344429	0.900730	0.223429
	H37	H	0.672716	0.094018	0.221720
	H38	H	0.343405	0.098536	0.794119
	H39	H	0.672805	0.898136	0.794137
	H40	H	0.906306	0.215835	0.345809
	H41	H	0.106727	0.212221	0.672158
	H42	H	0.108968	0.782134	0.345149
	H43	H	0.910201	0.783615	0.672981
	H44	H	0.224463	0.335281	0.911722
	H45	H	0.221412	0.662611	0.108447
	H46	H	0.796372	0.334178	0.105862
	H47	H	0.791527	0.662417	0.909550
	H48	H	0.412246	0.115962	0.603015
	H49	H	0.602171	0.882939	0.601654
	H50	H	0.599505	0.115776	0.411696
	H51	H	0.424154	0.882716	0.411781
	H52	H	0.601954	0.414717	0.121180
	H53	H	0.604929	0.586414	0.891659
	H54	H	0.410415	0.593382	0.127807
	H55	H	0.416554	0.415871	0.894144
	H56	H	0.125134	0.591627	0.419020
	H57	H	0.893600	0.593079	0.593836
	H58	H	0.124601	0.411480	0.606788
	H59	H	0.890672	0.412230	0.412397
	H60	H	0.129575	0.396046	0.606154
	H61	H	0.892470	0.584962	0.602843
	H62	H	0.124689	0.586861	0.416621
	H63	H	0.888464	0.400500	0.414742
	H64	H	0.416625	0.587351	0.123982
	H65	H	0.593205	0.587406	0.894207
	H66	H	0.592071	0.396134	0.123632
	H67	H	0.425179	0.399693	0.892468
	H68	H	0.597645	0.113764	0.416449
	H69	H	0.600738	0.883576	0.601243
	H70	H	0.414989	0.115584	0.603080
	H71	H	0.415486	0.884659	0.423602
	H72	H	0.911319	0.616656	0.105189
	H73	H	0.098553	0.382860	0.102596
	H74	H	0.102852	0.615174	0.918889
	H75	H	0.916184	0.380679	0.908296
	H76	H	0.100080	0.897272	0.626638
	H77	H	0.100159	0.095550	0.390097
	H78	H	0.917459	0.078983	0.620544
	H79	H	0.913944	0.907858	0.392102
	H80	H	0.621941	0.082430	0.921433
	H81	H	0.390127	0.096870	0.097036
	H82	H	0.624867	0.901537	0.096057
	H83	H	0.386663	0.897143	0.911698
	H84	H	0.624497	0.909559	0.102377
	H85	H	0.393448	0.085718	0.099341
	H86	H	0.626660	0.087462	0.907611
	H87	H	0.394358	0.907146	0.926462
	H88	H	0.925949	0.102163	0.625623
	H89	H	0.103991	0.090111	0.390091
	H90	H	0.108591	0.905954	0.626881
	H91	H	0.919488	0.909126	0.393904
	H92	H	0.099287	0.616280	0.912051
	H93	H	0.104182	0.382084	0.099232
	H94	H	0.916878	0.614145	0.103641
	H95	H	0.922951	0.385195	0.918312
	H96	H	0.413415	0.114722	0.601269
	H97	H	0.601749	0.883698	0.600148
	H98	H	0.603216	0.116373	0.415938
	H99	H	0.409023	0.878696	0.410988
	H100	H	0.611998	0.398265	0.129546
	H101	H	0.598856	0.596656	0.890793
	H102	H	0.419111	0.596755	0.126481
	H103	H	0.407950	0.401787	0.887704
	H104	H	0.127172	0.590925	0.414149
	H105	H	0.888827	0.596093	0.604608
	H106	H	0.123577	0.403406	0.593289
	H107	H	0.893536	0.407828	0.423177
	H108	H	0.912384	0.614853	0.099239
	H109	H	0.104595	0.380494	0.105464
	H110	H	0.095163	0.613007	0.917312
	H111	H	0.910423	0.381665	0.920490
	H112	H	0.097840	0.908056	0.623089
	H113	H	0.097293	0.090377	0.392452
	H114	H	0.901391	0.095798	0.630780
	H115	H	0.918105	0.903109	0.391265
	H116	H	0.626895	0.096989	0.919695
	H117	H	0.389003	0.093188	0.107893
	H118	H	0.628103	0.900729	0.105552
	H119	H	0.391175	0.915798	0.909042
	C120	C	0.386127	0.007094	0.630563
	C121	C	0.629683	0.991411	0.630070
	C122	C	0.630005	0.007361	0.386453
	C123	C	0.386648	0.990024	0.386787
	C124	C	0.631280	0.374544	0.016484
	C125	C	0.628025	0.618327	1.000549
	C126	C	0.385676	0.621243	0.018066
	C127	C	0.388286	0.377730	1.000147
	C128	C	0.017053	0.619804	0.387706
	C129	C	1.000229	0.619020	0.629448
	C130	C	0.017207	0.376448	0.630556
	C131	C	0.999361	0.377452	0.387699
	C132	C	0.886120	0.506906	0.130722
	C133	C	0.129855	0.490079	0.130952
	C134	C	0.129708	0.507047	0.887672
	C135	C	0.886325	0.490384	0.886516
	C136	C	0.131061	0.875577	0.517261
	C137	C	0.128483	0.119396	0.500055
	C138	C	0.885957	0.121254	0.517363
	C139	C	0.887846	0.877577	0.500613
	C140	C	0.516405	0.119205	0.887293
	C141	C	0.499613	0.119362	0.129745
	C142	C	0.517199	0.876563	0.130222
	C143	C	0.499306	0.876862	0.887001
	C144	C	0.388898	0.883965	0.685556
	C145	C	0.626312	0.114173	0.685813
	C146	C	0.629116	0.884076	0.331505
	C147	C	0.388220	0.113109	0.331496
	C148	C	0.686231	0.378027	0.892873
	C149	C	0.682882	0.614886	0.123899
	C150	C	0.330285	0.618532	0.894654
	C151	C	0.333836	0.380710	0.123926
	C152	C	0.893762	0.677259	0.388789
	C153	C	0.124137	0.673240	0.628019
	C154	C	0.893110	0.322946	0.628001
	C155	C	0.123005	0.320892	0.389672
	C156	C	0.893226	0.380124	0.685424
	C157	C	0.123970	0.615663	0.685032
	C158	C	0.892987	0.618251	0.333036
	C159	C	0.123308	0.378723	0.332881
	C160	C	0.386258	0.677123	0.895167
	C161	C	0.627164	0.673952	0.123226
	C162	C	0.629518	0.319321	0.893426
	C163	C	0.390278	0.322186	0.123300
	C164	C	0.686549	0.884156	0.389561
	C165	C	0.683400	0.114534	0.627650
	C166	C	0.332296	0.883653	0.626800
	C167	C	0.330703	0.113311	0.389331
	C168	C	0.888990	0.383830	0.186351
	C169	C	0.126299	0.613166	0.186280
	C170	C	0.128540	0.383930	0.833080
	C171	C	0.887282	0.613495	0.830954
	C172	C	0.185895	0.878861	0.393466
	C173	C	0.182704	0.115461	0.623811
	C174	C	0.831175	0.118499	0.393701
	C175	C	0.832732	0.880608	0.624289
	C176	C	0.393043	0.175920	0.888989
	C177	C	0.623609	0.173023	0.127667
	C178	C	0.393064	0.822761	0.127997
	C179	C	0.622963	0.819960	0.888982
	C180	C	0.393185	0.880123	0.185266
	C181	C	0.623746	0.114977	0.183930
	C182	C	0.392584	0.118042	0.832034
	C183	C	0.623553	0.878002	0.831759
	C184	C	0.887308	0.177009	0.394339
	C185	C	0.126290	0.173945	0.623459
	C186	C	0.129277	0.820388	0.393841
	C187	C	0.889619	0.821811	0.624125
	C188	C	0.186045	0.383965	0.890875
	C189	C	0.183936	0.613541	0.128646
	C190	C	0.832884	0.383464	0.127314
	C191	C	0.829626	0.613492	0.888715
	C192	C	0.407340	0.093435	0.608945
	C193	C	0.607980	0.905510	0.607611
	C194	C	0.606866	0.093145	0.408073
	C195	C	0.409489	0.904177	0.408976
	C196	C	0.608866	0.396459	0.102587
	C197	C	0.605442	0.596600	0.914368
	C198	C	0.408494	0.599035	0.103780
	C199	C	0.410039	0.399397	0.913818
	C200	C	0.103333	0.596572	0.410128
	C201	C	0.913959	0.597813	0.606901
	C202	C	0.103566	0.397575	0.608558
	C203	C	0.913044	0.400242	0.410035
	C204	C	0.907264	0.592969	0.109040
	C205	C	0.108717	0.404090	0.109005
	C206	C	0.106248	0.592682	0.909730
	C207	C	0.909679	0.404580	0.909112
	C208	C	0.108759	0.897344	0.603339
	C209	C	0.106793	0.098239	0.413335
	C210	C	0.908408	0.098861	0.603418
	C211	C	0.910529	0.899893	0.414726
	C212	C	0.602840	0.095710	0.909679
	C213	C	0.413129	0.098050	0.107786
	C214	C	0.603332	0.897677	0.108081
	C215	C	0.413086	0.899932	0.909104
	Zn216	Zn	0.508210	-0.001338	0.758773
	Zn217	Zn	0.508226	-0.001638	0.257900
	Zn218	Zn	0.758091	0.497843	0.008731
	Zn219	Zn	0.258827	0.498858	0.009247
	Zn220	Zn	0.009211	0.747780	0.508880
	Zn221	Zn	0.007736	0.248513	0.508693
	Zn222	Zn	0.008116	0.498679	0.758367
	Zn223	Zn	0.007913	0.498453	0.259562
	Zn224	Zn	0.507710	0.748287	0.008822
	Zn225	Zn	0.508730	0.247418	0.008488
	Zn226	Zn	0.758541	-0.000543	0.508741
	Zn227	Zn	0.257852	-0.001465	0.508414
	N228	N	0.421805	0.961579	0.687734
	N229	N	0.593691	0.036362	0.687369
	N230	N	0.594588	0.961476	0.329631
	N231	N	0.422440	0.035471	0.329883
	N232	N	0.687416	0.411637	0.970557
	N233	N	0.683656	0.580868	0.046553
	N234	N	0.329708	0.584481	0.972041
	N235	N	0.332521	0.414714	0.046323
	N236	N	0.972092	0.678363	0.422037
	N237	N	0.046171	0.675488	0.594197
	N238	N	0.971228	0.320309	0.594709
	N239	N	0.044865	0.319911	0.423182
	N240	N	0.971302	0.412551	0.687297
	N241	N	0.046032	0.582742	0.686081
	N242	N	0.970578	0.583297	0.332273
	N243	N	0.045610	0.413341	0.331741
	N244	N	0.420074	0.678950	0.972766
	N245	N	0.593884	0.676143	0.045338
	N246	N	0.596158	0.317200	0.971206
	N247	N	0.423380	0.320206	0.045350
	N248	N	0.687183	0.961640	0.423034
	N249	N	0.685626	0.037189	0.593770
	N250	N	0.330557	0.961258	0.593311
	N251	N	0.329819	0.036032	0.423193
	N252	N	0.921374	0.461593	0.188637
	N253	N	0.093550	0.535506	0.187873
	N254	N	0.093959	0.461353	0.831136
	N255	N	0.921503	0.535879	0.829259
	N256	N	0.186911	0.912542	0.471042
	N257	N	0.183978	0.082103	0.546018
	N258	N	0.830295	0.084474	0.471189
	N259	N	0.831643	0.914564	0.546657
	N260	N	0.471023	0.176635	0.922624
	N261	N	0.545328	0.175721	0.094608
	N262	N	0.471049	0.820414	0.094454
	N263	N	0.544966	0.819260	0.922630
	N264	N	0.471171	0.912925	0.186877
	N265	N	0.545665	0.082349	0.185463
	N266	N	0.470386	0.083598	0.830936
	N267	N	0.545631	0.912255	0.829988
	N268	N	0.920519	0.178836	0.472237
	N269	N	0.093423	0.176432	0.545440
	N270	N	0.095906	0.818161	0.471760
	N271	N	0.923234	0.819849	0.546355
	N272	N	0.187099	0.461652	0.924013
	N273	N	0.186279	0.536065	0.094819
	N274	N	0.831219	0.460798	0.093440
	N275	N	0.829070	0.535975	0.922657
	O276	O	0.525391	0.580354	0.505346
	H277	H	0.520725	0.590082	0.508499
	H278	H	0.525974	0.582643	0.508750
	O279	O	-0.444245	0.565483	-0.486473
	H280	H	-0.447425	0.565472	-0.485287
	H281	H	-0.449360	0.565695	-0.498415
	O282	O	0.519798	0.563234	0.549114
	H283	H	0.522329	0.564958	0.545866
	H284	H	0.518731	0.557921	0.540755
	O285	O	0.466489	0.577287	0.508265
	H286	H	0.465026	0.587428	0.517967
	H287	H	0.473596	0.577141	0.508253
	O288	O	0.990971	0.016239	-0.086221
	H289	H	0.993594	0.017463	-0.089488
	H290	H	0.993012	0.011347	-0.086892
	O291	O	-0.505161	0.569148	-0.598605
	H292	H	-0.511878	0.573827	-0.602032
	H293	H	-0.495232	0.568152	-0.597129
	O294	O	0.535280	0.553902	0.503840
	H295	H	0.540628	0.556643	0.507098
	H296	H	0.542568	0.546477	0.500992
	O297	O	-0.048472	1.046317	-0.077358
	H298	H	-0.058247	1.058707	-0.070993
	H299	H	-0.046286	1.047962	-0.089661
	O300	O	0.979816	0.043946	0.901328
	H301	H	0.982323	0.032948	0.901822
	H302	H	0.981051	0.037794	0.896744
	O303	O	0.535254	0.537285	0.530920
	H304	H	0.531033	0.539855	0.532584
	H305	H	0.537294	0.543153	0.532953
	O306	O	-0.021764	1.031386	0.912307
	H307	H	-0.024450	1.025560	0.920111
	H308	H	-0.024568	1.047483	0.903675
	O309	O	0.580189	0.534711	0.470545
	H310	H	0.575834	0.527519	0.474334
	H311	H	0.569392	0.539270	0.464421
