data_Molecule from HDF5

_cell_length_a		16.354253
_cell_length_b		16.396844
_cell_length_c		16.360884
_cell_angle_alpha	89.876567
_cell_angle_beta	89.839773
_cell_angle_gamma	89.880476
_symmetry_space_group_name_H-M	'P 1'
_symmetry_Int_Tables_number		1

loop_
	_symmetry_equiv_pos_as_xyz
	x,y,z

loop_
	_atom_site_label
	_atom_site_type_symbol
	_atom_site_fract_x
	_atom_site_fract_y
	_atom_site_fract_z
	H0	H	0.393600	0.843373	0.712443
	H1	H	0.603157	0.161451	0.710292
	H2	H	0.607252	0.843469	0.267543
	H3	H	0.397231	0.162447	0.271601
	H4	H	0.721164	0.396479	0.829687
	H5	H	0.723474	0.606850	0.147121
	H6	H	0.281988	0.605730	0.828677
	H7	H	0.283054	0.400286	0.150512
	H8	H	0.840818	0.723266	0.383416
	H9	H	0.160768	0.721531	0.592520
	H10	H	0.840768	0.281588	0.595331
	H11	H	0.160756	0.282301	0.386262
	H12	H	0.841642	0.397030	0.711219
	H13	H	0.161331	0.604895	0.706986
	H14	H	0.840698	0.606990	0.268160
	H15	H	0.161860	0.400585	0.271388
	H16	H	0.396543	0.722344	0.829091
	H17	H	0.606492	0.721881	0.147772
	H18	H	0.604121	0.282918	0.829791
	H19	H	0.398703	0.283143	0.150155
	H20	H	0.722998	0.843365	0.384679
	H21	H	0.720918	0.161329	0.596151
	H22	H	0.280058	0.841729	0.595720
	H23	H	0.281767	0.161515	0.388744
	H24	H	0.896596	0.342405	0.210644
	H25	H	0.106319	0.660959	0.210038
	H26	H	0.104280	0.341382	0.770399
	H27	H	0.893303	0.659334	0.764397
	H28	H	0.223423	0.895802	0.330169
	H29	H	0.215661	0.100963	0.651217
	H30	H	0.778356	0.108964	0.329862
	H31	H	0.780242	0.898300	0.649717
	H32	H	0.339700	0.220322	0.888782
	H33	H	0.660695	0.222424	0.094537
	H34	H	0.340429	0.781452	0.094769
	H35	H	0.659716	0.779971	0.882807
	H36	H	0.339501	0.899641	0.208343
	H37	H	0.659661	0.107087	0.210800
	H38	H	0.338300	0.102322	0.775398
	H39	H	0.660410	0.897013	0.768092
	H40	H	0.896427	0.222280	0.328820
	H41	H	0.102550	0.219975	0.648786
	H42	H	0.107286	0.780685	0.329093
	H43	H	0.895268	0.780657	0.648424
	H44	H	0.218209	0.340804	0.890211
	H45	H	0.221423	0.661015	0.093894
	H46	H	0.781820	0.341157	0.093529
	H47	H	0.775561	0.658582	0.878940
	H48	H	0.409743	0.115003	0.580891
	H49	H	0.590488	0.886746	0.583025
	H50	H	0.589255	0.115064	0.401881
	H51	H	0.417408	0.889295	0.397971
	H52	H	0.592795	0.410051	0.105456
	H53	H	0.593373	0.588114	0.874350
	H54	H	0.414343	0.594686	0.102822
	H55	H	0.413714	0.412424	0.876848
	H56	H	0.113695	0.591429	0.400206
	H57	H	0.888156	0.587063	0.578442
	H58	H	0.114047	0.410240	0.576781
	H59	H	0.886298	0.409967	0.402100
	H60	H	0.115255	0.411927	0.579712
	H61	H	0.885875	0.593009	0.578249
	H62	H	0.114772	0.590915	0.398060
	H63	H	0.887063	0.415398	0.400155
	H64	H	0.405827	0.592943	0.105354
	H65	H	0.585664	0.587184	0.877299
	H66	H	0.591207	0.415331	0.102988
	H67	H	0.409807	0.406917	0.872882
	H68	H	0.588957	0.115964	0.398778
	H69	H	0.583432	0.891231	0.577683
	H70	H	0.406260	0.116210	0.579548
	H71	H	0.410412	0.889000	0.405713
	H72	H	0.915289	0.612848	0.076344
	H73	H	0.088968	0.387976	0.082488
	H74	H	0.090179	0.616617	0.894932
	H75	H	0.907792	0.390335	0.908621
	H76	H	0.089736	0.909468	0.603242
	H77	H	0.097548	0.092551	0.371626
	H78	H	0.903888	0.092912	0.605448
	H79	H	0.912667	0.909705	0.374692
	H80	H	0.612892	0.089189	0.902985
	H81	H	0.385126	0.091271	0.084848
	H82	H	0.612372	0.916533	0.076085
	H83	H	0.389402	0.917087	0.902977
	H84	H	0.615232	0.911633	0.083082
	H85	H	0.385908	0.098253	0.077652
	H86	H	0.615635	0.089791	0.893582
	H87	H	0.385033	0.911063	0.896303
	H88	H	0.911546	0.085462	0.600131
	H89	H	0.088965	0.083542	0.377687
	H90	H	0.091463	0.912641	0.603449
	H91	H	0.907979	0.915409	0.375406
	H92	H	0.089359	0.615353	0.898749
	H93	H	0.092135	0.388397	0.076269
	H94	H	0.912129	0.613061	0.073983
	H95	H	0.909488	0.385165	0.892762
	H96	H	0.407161	0.117112	0.583162
	H97	H	0.592465	0.889514	0.573944
	H98	H	0.587126	0.114635	0.400347
	H99	H	0.408303	0.884882	0.396332
	H100	H	0.587582	0.410664	0.103390
	H101	H	0.588166	0.594467	0.873923
	H102	H	0.411213	0.586700	0.101080
	H103	H	0.406310	0.413325	0.874851
	H104	H	0.114237	0.592744	0.398885
	H105	H	0.888574	0.590518	0.573037
	H106	H	0.115627	0.408310	0.579175
	H107	H	0.884668	0.411462	0.396509
	H108	H	0.911654	0.614522	0.077868
	H109	H	0.095554	0.386327	0.081799
	H110	H	0.093970	0.616881	0.897625
	H111	H	0.922939	0.391618	0.900861
	H112	H	0.087584	0.912026	0.601988
	H113	H	0.084740	0.096074	0.375574
	H114	H	0.914896	0.096656	0.603896
	H115	H	0.915141	0.915918	0.377683
	H116	H	0.616672	0.097048	0.899793
	H117	H	0.388964	0.088539	0.075767
	H118	H	0.614519	0.908093	0.075614
	H119	H	0.386825	0.908406	0.905567
	C120	C	0.377163	0.010478	0.612624
	C121	C	0.620441	0.994296	0.610601
	C122	C	0.622216	0.010738	0.367697
	C123	C	0.379264	0.993086	0.368761
	C124	C	0.621863	0.380365	-0.001781
	C125	C	0.622495	0.622547	0.980065
	C126	C	0.379192	0.623070	-0.002699
	C127	C	0.379630	0.380436	0.981154
	C128	C	0.008980	0.624148	0.366802
	C129	C	0.992846	0.622125	0.608899
	C130	C	0.009135	0.379437	0.610711
	C131	C	0.992262	0.381115	0.368212
	C132	C	0.880506	0.508903	0.109409
	C133	C	0.123323	0.493117	0.111296
	C134	C	0.122769	0.510472	0.866973
	C135	C	0.879604	0.493247	0.867257
	C136	C	0.122519	0.879312	0.497708
	C137	C	0.121186	0.121686	0.480913
	C138	C	0.877980	0.124298	0.497775
	C139	C	0.879392	0.881209	0.481043
	C140	C	0.508919	0.123246	0.868494
	C141	C	0.492291	0.123881	0.111012
	C142	C	0.508852	0.879970	0.110890
	C143	C	0.492124	0.879955	0.868214
	C144	C	0.376261	0.890504	0.671975
	C145	C	0.621442	0.113987	0.670204
	C146	C	0.625321	0.891131	0.307666
	C147	C	0.377982	0.113999	0.310726
	C148	C	0.681051	0.378352	0.877651
	C149	C	0.683157	0.625059	0.099690
	C150	C	0.320552	0.624826	0.876995
	C151	C	0.321667	0.380582	0.102246
	C152	C	0.888758	0.683693	0.365032
	C153	C	0.112756	0.681765	0.610737
	C154	C	0.889030	0.320728	0.613382
	C155	C	0.112775	0.321769	0.366915
	C156	C	0.889155	0.378547	0.670827
	C157	C	0.113275	0.623487	0.667826
	C158	C	0.888606	0.625530	0.307804
	C159	C	0.113427	0.380894	0.310295
	C160	C	0.377734	0.682983	0.877164
	C161	C	0.625088	0.682394	0.099818
	C162	C	0.623164	0.321560	0.877652
	C163	C	0.379228	0.322439	0.102118
	C164	C	0.682886	0.891009	0.366013
	C165	C	0.680355	0.113695	0.613481
	C166	C	0.319374	0.889926	0.613949
	C167	C	0.320254	0.113343	0.368666
	C168	C	0.878386	0.389736	0.170282
	C169	C	0.124625	0.613161	0.170413
	C170	C	0.123218	0.389291	0.809618
	C171	C	0.875345	0.611893	0.805028
	C172	C	0.183497	0.876984	0.377942
	C173	C	0.177926	0.121275	0.602336
	C174	C	0.818505	0.126640	0.377685
	C175	C	0.819729	0.879383	0.601413
	C176	C	0.388089	0.181337	0.869321
	C177	C	0.612460	0.183070	0.113032
	C178	C	0.388461	0.820954	0.112924
	C179	C	0.612251	0.820241	0.865349
	C180	C	0.388002	0.879784	0.169706
	C181	C	0.612167	0.125411	0.170778
	C182	C	0.387103	0.122474	0.812876
	C183	C	0.612145	0.878262	0.807809
	C184	C	0.876920	0.183504	0.377233
	C185	C	0.121307	0.180142	0.601337
	C186	C	0.125284	0.819929	0.377303
	C187	C	0.877151	0.821002	0.601051
	C188	C	0.179940	0.389175	0.868769
	C189	C	0.181697	0.613403	0.112210
	C190	C	0.820949	0.389417	0.112211
	C191	C	0.816915	0.611318	0.862448
	C192	C	0.400837	0.094236	0.588079
	C193	C	0.595936	0.910814	0.585368
	C194	C	0.596186	0.093611	0.393134
	C195	C	0.404725	0.909459	0.392981
	C196	C	0.597591	0.404820	0.081978
	C197	C	0.596548	0.597097	0.896926
	C198	C	0.403492	0.598657	0.081203
	C199	C	0.403289	0.404126	0.896686
	C200	C	0.092412	0.599234	0.391702
	C201	C	0.909400	0.597218	0.583881
	C202	C	0.093146	0.403219	0.585805
	C203	C	0.908102	0.405376	0.392470
	C204	C	0.905648	0.591919	0.083493
	C205	C	0.099273	0.409266	0.087136
	C206	C	0.098415	0.594342	0.890308
	C207	C	0.905944	0.410612	0.893193
	C208	C	0.097056	0.903987	0.581083
	C209	C	0.097343	0.097526	0.396917
	C210	C	0.902750	0.099075	0.581346
	C211	C	0.904564	0.906364	0.397692
	C212	C	0.593329	0.098918	0.891786
	C213	C	0.408424	0.099437	0.086600
	C214	C	0.592210	0.904697	0.085625
	C215	C	0.408793	0.904944	0.894236
	Zn216	Zn	0.499765	0.001763	0.739965
	Zn217	Zn	0.500214	0.002235	0.239258
	Zn218	Zn	0.750508	0.500496	-0.010848
	Zn219	Zn	0.251081	0.501839	-0.010753
	Zn220	Zn	0.000363	0.751903	0.488818
	Zn221	Zn	0.000174	0.251515	0.488877
	Zn222	Zn	0.001241	0.501616	0.738286
	Zn223	Zn	0.000814	0.502057	0.239331
	Zn224	Zn	0.500684	0.751224	-0.010675
	Zn225	Zn	0.501330	0.251976	-0.010053
	Zn226	Zn	0.750254	0.002683	0.489711
	Zn227	Zn	0.250613	0.000539	0.490453
	N228	N	0.411720	0.966243	0.671199
	N229	N	0.584966	0.038631	0.668383
	N230	N	0.588488	0.966479	0.308354
	N231	N	0.413841	0.038052	0.310386
	N232	N	0.680311	0.414238	0.953436
	N233	N	0.681931	0.588936	0.024066
	N234	N	0.321198	0.588523	0.952782
	N235	N	0.321705	0.415797	0.025955
	N236	N	0.964786	0.683207	0.400636
	N237	N	0.036807	0.681119	0.574938
	N238	N	0.964545	0.321252	0.576605
	N239	N	0.036333	0.321669	0.402022
	N240	N	0.965114	0.414115	0.669635
	N241	N	0.037640	0.587048	0.666898
	N242	N	0.964496	0.589507	0.308597
	N243	N	0.037409	0.416714	0.310897
	N244	N	0.413386	0.682128	0.953164
	N245	N	0.587984	0.680933	0.024550
	N246	N	0.587045	0.322490	0.953614
	N247	N	0.414179	0.322169	0.025765
	N248	N	0.681308	0.966558	0.402204
	N249	N	0.679757	0.038203	0.576984
	N250	N	0.319931	0.965476	0.577456
	N251	N	0.320949	0.037179	0.403882
	N252	N	0.914948	0.465047	0.168564
	N253	N	0.088658	0.537496	0.169719
	N254	N	0.088590	0.465852	0.808117
	N255	N	0.913899	0.537513	0.808216
	N256	N	0.182126	0.912835	0.453770
	N257	N	0.178034	0.085691	0.526290
	N258	N	0.818642	0.090946	0.453770
	N259	N	0.820890	0.916015	0.525765
	N260	N	0.465026	0.181953	0.903104
	N261	N	0.536896	0.181892	0.076397
	N262	N	0.464641	0.820864	0.077183
	N263	N	0.536554	0.821027	0.902078
	N264	N	0.463872	0.915729	0.168828
	N265	N	0.536493	0.089059	0.169445
	N266	N	0.463446	0.087167	0.812098
	N267	N	0.536332	0.914505	0.809450
	N268	N	0.912721	0.182455	0.453112
	N269	N	0.086677	0.180497	0.524934
	N270	N	0.088246	0.821042	0.452880
	N271	N	0.913411	0.821929	0.525183
	N272	N	0.180079	0.465398	0.903213
	N273	N	0.180832	0.537825	0.076139
	N274	N	0.822486	0.464470	0.074792
	N275	N	0.819641	0.536685	0.900594
	O276	O	0.521336	0.704152	0.698109
	H277	H	0.564003	0.692608	0.693279
	H278	H	0.528908	0.725955	0.728383
	O279	O	0.321154	0.615468	0.569373
	H280	H	0.334603	0.595780	0.590301
	H281	H	0.316838	0.619235	0.578897
	O282	O	0.137985	0.183831	0.827797
	H283	H	0.126086	0.168561	0.832641
	H284	H	0.131850	0.183813	0.825174
	O285	O	0.945532	1.051871	-0.194942
	H286	H	0.922995	1.053396	-0.196183
	H287	H	0.938407	1.043727	-0.174128
	O288	O	0.055878	0.197806	0.001579
	H289	H	0.045306	0.192755	0.000884
	H290	H	0.051216	0.199958	-0.014411
	O291	O	1.013269	-0.062499	0.866570
	H292	H	1.016290	-0.069907	0.865261
	H293	H	1.025469	-0.066517	0.858871
	O294	O	0.972580	0.788409	1.129879
	H295	H	0.976494	0.776687	1.157789
	H296	H	0.970284	0.793593	1.144116
	O297	O	0.405904	0.296942	0.612360
	H298	H	0.408662	0.282073	0.615366
	H299	H	0.424427	0.288203	0.618341
	O300	O	0.400747	0.612678	0.570059
	H301	H	0.404776	0.608461	0.580842
	H302	H	0.407117	0.618836	0.590415
	O303	O	0.613373	0.407945	0.556021
	H304	H	0.608109	0.407277	0.546547
	H305	H	0.624594	0.406591	0.545426
	O306	O	0.084377	0.200962	1.170614
	H307	H	0.084356	0.197971	1.172506
	H308	H	0.090057	0.212613	1.184784
	O309	O	1.014132	0.138997	-0.137009
	H310	H	0.997208	0.154600	-0.144970
	H311	H	1.013032	0.136818	-0.136976
	O312	O	0.301428	0.474993	0.569810
	H313	H	0.295297	0.455499	0.567098
	H314	H	0.296469	0.457325	0.577947
	O315	O	0.653982	0.489012	0.341915
	H316	H	0.637413	0.512792	0.341699
	H317	H	0.668648	0.490540	0.362444
	O318	O	-0.186609	0.161330	-0.142607
	H319	H	-0.184684	0.149141	-0.144605
	H320	H	-0.188279	0.158593	-0.114848
	O321	O	0.112583	0.876399	1.026268
	H322	H	0.096966	0.871084	1.016780
	H323	H	0.116006	0.871547	1.032775
	O324	O	1.180202	0.109833	1.134428
	H325	H	1.201019	0.129590	1.145723
	H326	H	1.185175	0.111698	1.140460
	O327	O	0.378329	0.587713	0.454174
	H328	H	0.361464	0.572113	0.448386
	H329	H	0.373028	0.611686	0.483648
	O330	O	-0.050276	0.812411	0.888197
	H331	H	-0.040818	0.815329	0.869573
	H332	H	-0.040602	0.810136	0.900428
	O333	O	0.169937	0.907539	-0.198976
	H334	H	0.179846	0.902921	-0.168980
	H335	H	0.166543	0.941114	-0.205249
	O336	O	1.146561	0.930339	0.056956
	H337	H	1.130010	0.932611	0.049660
	H338	H	1.147916	0.917789	0.059727
	O339	O	0.109948	1.035447	0.960500
	H340	H	0.099947	1.044561	0.954733
	H341	H	0.118349	1.042973	0.985509
	O342	O	0.436824	0.389368	0.292153
	H343	H	0.444971	0.382522	0.272462
	H344	H	0.416174	0.392345	0.310469
	O345	O	0.002870	0.023691	1.173014
	H346	H	0.018218	0.030004	1.163432
	H347	H	-0.026334	0.033989	1.185297
	O348	O	0.422785	0.445964	0.324593
	H349	H	0.425490	0.460394	0.336218
	H350	H	0.435102	0.454234	0.321046
	O351	O	0.701653	0.301295	0.492779
	H352	H	0.695328	0.314913	0.443938
	H353	H	0.729910	0.274995	0.486995
	O354	O	0.876240	1.025685	0.977473
	H355	H	0.884612	1.025049	0.976019
	H356	H	0.876665	1.013178	0.995477
	O357	O	0.200724	-0.191444	-0.109358
	H358	H	0.192496	-0.163331	-0.095794
	H359	H	0.215166	-0.216956	-0.114633
	O360	O	0.590767	0.528262	0.429430
	H361	H	0.587770	0.539745	0.437516
	H362	H	0.583926	0.531480	0.424742
	O363	O	0.820675	-0.205057	0.012467
	H364	H	0.841942	-0.202241	0.000655
	H365	H	0.805613	-0.227814	0.011535
	O366	O	-0.294022	0.310401	0.710076
	H367	H	-0.280916	0.307376	0.719854
	H368	H	-0.296326	0.300159	0.705002
	O369	O	1.685508	0.322297	0.328558
	H370	H	1.655064	0.313284	0.316996
	H371	H	1.686975	0.364381	0.318752
	O372	O	0.528958	0.537155	0.577523
	H373	H	0.522762	0.518856	0.576370
	H374	H	0.542902	0.530819	0.578128
	O375	O	-0.416196	-0.375381	1.364531
	H376	H	-0.432873	-0.370397	1.376915
	H377	H	-0.406447	-0.380425	1.360942
	O378	O	0.303144	0.697736	0.376712
	H379	H	0.281989	0.713993	0.400183
	H380	H	0.293167	0.673010	0.396741
	O381	O	-0.134436	1.077418	0.082111
	H382	H	-0.145204	1.078725	0.086631
	H383	H	-0.143386	1.083483	0.087240
	O384	O	0.556813	0.497593	0.592395
	H385	H	0.559377	0.500783	0.596550
	H386	H	0.560202	0.485624	0.595762
	O387	O	1.108183	1.026337	0.181538
	H388	H	1.107285	1.024400	0.180885
	H389	H	1.103191	1.041560	0.181022
	O390	O	0.812571	0.817425	0.171321
	H391	H	0.834324	0.799294	0.172530
	H392	H	0.814823	0.806501	0.136155
	O393	O	1.004819	-0.194726	0.800949
	H394	H	1.015308	-0.212503	0.775515
	H395	H	1.026806	-0.189065	0.818488
	O396	O	0.458575	0.316989	0.464744
	H397	H	0.459992	0.314473	0.473212
	H398	H	0.464114	0.323735	0.478494
	O399	O	0.855665	0.203575	0.929311
	H400	H	0.845323	0.201545	0.925833
	H401	H	0.851637	0.198943	0.939402
	O402	O	0.785799	0.983555	0.195669
	H403	H	0.756491	0.970759	0.222958
	H404	H	0.792441	0.940059	0.191568
	O405	O	0.686356	0.614170	0.461848
	H406	H	0.688102	0.621306	0.471486
	H407	H	0.674208	0.618478	0.461736
	O408	O	0.360987	0.309723	0.603303
	H409	H	0.353303	0.310305	0.626605
	H410	H	0.380000	0.307151	0.605120
	O411	O	1.639053	0.700400	1.533781
	H412	H	1.625855	0.689502	1.509860
	H413	H	1.644744	0.714700	1.537884
	O414	O	0.436636	0.353133	0.391369
	H415	H	0.436179	0.347603	0.387286
	H416	H	0.431329	0.372036	0.400843
	O417	O	0.199609	1.058366	0.996553
	H418	H	0.194286	1.065208	0.989205
	H419	H	0.204061	1.065179	0.988461
	O420	O	-0.184853	1.004681	0.873439
	H421	H	-0.191980	0.996111	0.884970
	H422	H	-0.178460	0.992513	0.863381
	O423	O	0.000914	0.972410	-0.080850
	H424	H	-0.000538	0.965064	-0.081555
	H425	H	0.002024	0.983160	-0.071021
	O426	O	0.671130	0.618021	0.675791
	H427	H	0.677346	0.585961	0.680091
	H428	H	0.684930	0.620997	0.641769
	O429	O	0.477120	0.708393	0.274843
	H430	H	0.458007	0.727431	0.251876
	H431	H	0.439329	0.710464	0.274828
	O432	O	0.443171	0.588703	0.404077
	H433	H	0.432458	0.591310	0.395765
	H434	H	0.421380	0.583059	0.420939
	O435	O	0.028907	0.090907	0.095567
	H436	H	0.022966	0.088305	0.109213
	H437	H	0.022420	0.097152	0.099175
	O438	O	-0.531177	1.531300	1.507403
	H439	H	-0.531834	1.531916	1.519710
	H440	H	-0.537119	1.533452	1.511436
	O441	O	0.455029	0.406262	0.610362
	H442	H	0.453662	0.414966	0.614179
	H443	H	0.466876	0.393672	0.619586
