data_Molecule from HDF5

_cell_length_a		16.395731
_cell_length_b		16.233068
_cell_length_c		16.117473
_cell_angle_alpha	90.006695
_cell_angle_beta	90.010843
_cell_angle_gamma	90.116804
_symmetry_space_group_name_H-M	'P 1'
_symmetry_Int_Tables_number		1

loop_
	_symmetry_equiv_pos_as_xyz
	x,y,z

loop_
	_atom_site_label
	_atom_site_type_symbol
	_atom_site_fract_x
	_atom_site_fract_y
	_atom_site_fract_z
	H0	H	0.418965	0.832679	0.717926
	H1	H	0.611300	0.162695	0.719229
	H2	H	0.610456	0.832571	0.295148
	H3	H	0.419570	0.162945	0.294917
	H4	H	0.728293	0.398943	0.842927
	H5	H	0.729872	0.598804	0.171425
	H6	H	0.299702	0.597786	0.843232
	H7	H	0.299969	0.397422	0.171957
	H8	H	0.852112	0.713882	0.408661
	H9	H	0.176977	0.715065	0.606870
	H10	H	0.852814	0.281901	0.607731
	H11	H	0.177001	0.282594	0.407368
	H12	H	0.851222	0.400795	0.720341
	H13	H	0.177841	0.596037	0.720570
	H14	H	0.851656	0.595497	0.293709
	H15	H	0.178325	0.402205	0.295326
	H16	H	0.418692	0.708577	0.841578
	H17	H	0.611622	0.710029	0.172537
	H18	H	0.611481	0.286343	0.841348
	H19	H	0.416634	0.284475	0.173000
	H20	H	0.730498	0.834738	0.406576
	H21	H	0.731293	0.160599	0.608313
	H22	H	0.298193	0.835215	0.608072
	H23	H	0.300534	0.161729	0.406616
	H24	H	0.918208	0.333187	0.219875
	H25	H	0.110229	0.662972	0.218564
	H26	H	0.110386	0.332528	0.794844
	H27	H	0.919591	0.663276	0.796013
	H28	H	0.229047	0.899593	0.342261
	H29	H	0.230010	0.098885	0.671395
	H30	H	0.800120	0.098742	0.342741
	H31	H	0.800256	0.898664	0.671452
	H32	H	0.352855	0.212763	0.908040
	H33	H	0.676805	0.213917	0.106554
	H34	H	0.352500	0.781652	0.106422
	H35	H	0.677393	0.782168	0.907351
	H36	H	0.351668	0.900256	0.220927
	H37	H	0.677822	0.095776	0.220571
	H38	H	0.351776	0.094666	0.794390
	H39	H	0.676973	0.899777	0.792479
	H40	H	0.918970	0.210329	0.342178
	H41	H	0.111851	0.210920	0.672663
	H42	H	0.111452	0.785966	0.341491
	H43	H	0.918579	0.787280	0.672899
	H44	H	0.231164	0.334373	0.906639
	H45	H	0.230165	0.661512	0.107460
	H46	H	0.798087	0.335402	0.107800
	H47	H	0.799859	0.661029	0.906962
	H48	H	0.418423	0.115845	0.599890
	H49	H	0.602906	0.881991	0.599538
	H50	H	0.610439	0.116869	0.408437
	H51	H	0.425238	0.880512	0.407042
	H52	H	0.611530	0.403506	0.127655
	H53	H	0.615396	0.587554	0.887413
	H54	H	0.428768	0.595191	0.125179
	H55	H	0.424257	0.407351	0.890929
	H56	H	0.128544	0.590755	0.421830
	H57	H	0.899133	0.595698	0.595598
	H58	H	0.134630	0.394621	0.605414
	H59	H	0.897029	0.397022	0.413190
	H60	H	0.127966	0.404694	0.591228
	H61	H	0.899983	0.587261	0.602013
	H62	H	0.130802	0.588292	0.407017
	H63	H	0.900509	0.406019	0.421163
	H64	H	0.413681	0.594384	0.129357
	H65	H	0.604098	0.584668	0.891744
	H66	H	0.608222	0.411058	0.124445
	H67	H	0.421421	0.403364	0.889011
	H68	H	0.602826	0.112892	0.416336
	H69	H	0.610969	0.880695	0.594903
	H70	H	0.422558	0.115492	0.601789
	H71	H	0.424154	0.883563	0.422487
	H72	H	0.914300	0.616573	0.099336
	H73	H	0.114961	0.380300	0.096135
	H74	H	0.112660	0.616349	0.911946
	H75	H	0.920736	0.381740	0.917511
	H76	H	0.100581	0.908334	0.622826
	H77	H	0.117077	0.086445	0.387671
	H78	H	0.928584	0.097380	0.626822
	H79	H	0.921093	0.911868	0.389794
	H80	H	0.631570	0.096784	0.914996
	H81	H	0.396075	0.085923	0.114909
	H82	H	0.632230	0.893989	0.093216
	H83	H	0.399710	0.905514	0.914993
	H84	H	0.626467	0.913422	0.095555
	H85	H	0.394985	0.106825	0.097001
	H86	H	0.629938	0.089770	0.916622
	H87	H	0.397403	0.902691	0.909495
	H88	H	0.911871	0.091761	0.628218
	H89	H	0.100890	0.086668	0.392822
	H90	H	0.110188	0.900608	0.628116
	H91	H	0.927069	0.904008	0.389865
	H92	H	0.103876	0.613955	0.913567
	H93	H	0.110175	0.378867	0.106927
	H94	H	0.924812	0.616918	0.105740
	H95	H	0.918935	0.379793	0.913355
	H96	H	0.421826	0.114178	0.597071
	H97	H	0.610895	0.879058	0.603764
	H98	H	0.613939	0.115359	0.419068
	H99	H	0.411958	0.878020	0.414895
	H100	H	0.602862	0.404022	0.124305
	H101	H	0.606364	0.596564	0.888071
	H102	H	0.421265	0.581746	0.123675
	H103	H	0.419485	0.407805	0.889079
	H104	H	0.133751	0.602186	0.413499
	H105	H	0.896373	0.596533	0.605932
	H106	H	0.130273	0.412583	0.607615
	H107	H	0.898722	0.409292	0.409026
	H108	H	0.923950	0.612386	0.093694
	H109	H	0.103059	0.382115	0.098179
	H110	H	0.110367	0.613931	0.920867
	H111	H	0.922459	0.380295	0.913752
	H112	H	0.112643	0.913543	0.624284
	H113	H	0.107642	0.099976	0.385301
	H114	H	0.923630	0.080185	0.621863
	H115	H	0.917682	0.903390	0.386531
	H116	H	0.632547	0.092106	0.909778
	H117	H	0.404302	0.082822	0.088994
	H118	H	0.634266	0.903196	0.111422
	H119	H	0.397851	0.899533	0.915631
	C120	C	0.393148	0.006802	0.628228
	C121	C	0.636405	0.988840	0.628600
	C122	C	0.636761	0.006375	0.385934
	C123	C	0.393023	0.989537	0.385692
	C124	C	0.635544	0.377355	0.015986
	C125	C	0.636403	0.618511	0.998251
	C126	C	0.393263	0.618816	0.016683
	C127	C	0.393212	0.376959	0.998962
	C128	C	0.023320	0.621170	0.385626
	C129	C	1.006118	0.621117	0.629568
	C130	C	0.023294	0.375829	0.629881
	C131	C	1.006436	0.376234	0.386073
	C132	C	0.892730	0.507026	0.128933
	C133	C	0.136756	0.489224	0.128827
	C134	C	0.136654	0.506182	0.886236
	C135	C	0.893675	0.489438	0.886500
	C136	C	0.135930	0.878299	0.515892
	C137	C	0.136547	0.119942	0.498000
	C138	C	0.893580	0.119029	0.516467
	C139	C	0.893825	0.877927	0.498541
	C140	C	0.523623	0.120223	0.885357
	C141	C	0.506176	0.120065	0.129011
	C142	C	0.523201	0.875357	0.128789
	C143	C	0.506279	0.874714	0.884945
	C144	C	0.396964	0.882502	0.682168
	C145	C	0.632763	0.113293	0.682732
	C146	C	0.632174	0.882072	0.331877
	C147	C	0.397811	0.113456	0.331593
	C148	C	0.690658	0.378897	0.892015
	C149	C	0.691768	0.617891	0.122304
	C150	C	0.338390	0.616921	0.892218
	C151	C	0.338138	0.378265	0.122910
	C152	C	0.900578	0.675605	0.388344
	C153	C	0.128447	0.676967	0.627426
	C154	C	0.901006	0.320504	0.627219
	C155	C	0.128607	0.321168	0.388076
	C156	C	0.900396	0.379528	0.683624
	C157	C	0.128916	0.617363	0.683483
	C158	C	0.900352	0.616895	0.331424
	C159	C	0.129334	0.380433	0.332031
	C160	C	0.397022	0.672514	0.891528
	C161	C	0.632930	0.673106	0.123050
	C162	C	0.632079	0.323213	0.891166
	C163	C	0.395970	0.321980	0.123319
	C164	C	0.692056	0.883168	0.386991
	C165	C	0.692045	0.112359	0.627057
	C166	C	0.336991	0.883609	0.627134
	C167	C	0.338596	0.112890	0.387408
	C168	C	0.896501	0.382684	0.183126
	C169	C	0.132138	0.613514	0.182049
	C170	C	0.132484	0.382079	0.831261
	C171	C	0.897982	0.613646	0.832478
	C172	C	0.190350	0.880292	0.391184
	C173	C	0.191686	0.118287	0.622333
	C174	C	0.838207	0.118097	0.392096
	C175	C	0.838848	0.879512	0.622519
	C176	C	0.401141	0.174916	0.887430
	C177	C	0.628531	0.175600	0.126804
	C178	C	0.400834	0.820057	0.126722
	C179	C	0.628479	0.819586	0.887094
	C180	C	0.400459	0.879128	0.183400
	C181	C	0.629102	0.116539	0.183137
	C182	C	0.400738	0.116282	0.830791
	C183	C	0.628657	0.878630	0.830319
	C184	C	0.897150	0.173615	0.391684
	C185	C	0.132851	0.173764	0.623198
	C186	C	0.132581	0.823391	0.391092
	C187	C	0.897195	0.823789	0.623201
	C188	C	0.192224	0.382915	0.886987
	C189	C	0.191847	0.612613	0.126951
	C190	C	0.837017	0.383748	0.127460
	C191	C	0.838448	0.612578	0.887654
	C192	C	0.414602	0.092993	0.606001
	C193	C	0.614738	0.902882	0.606070
	C194	C	0.615389	0.092748	0.408121
	C195	C	0.414210	0.902871	0.408034
	C196	C	0.613944	0.399668	0.103126
	C197	C	0.614918	0.596091	0.911505
	C198	C	0.414857	0.596869	0.103551
	C199	C	0.415135	0.399692	0.912143
	C200	C	0.108882	0.599997	0.407542
	C201	C	0.920560	0.599597	0.607549
	C202	C	0.109095	0.397515	0.607859
	C203	C	0.920848	0.397714	0.407941
	C204	C	0.914653	0.593038	0.106501
	C205	C	0.115571	0.402804	0.106922
	C206	C	0.115405	0.592257	0.908848
	C207	C	0.914609	0.402944	0.908500
	C208	C	0.114255	0.900994	0.602659
	C209	C	0.114936	0.097617	0.411189
	C210	C	0.915078	0.096576	0.603342
	C211	C	0.915464	0.900176	0.411184
	C212	C	0.609200	0.099003	0.907022
	C213	C	0.420668	0.098193	0.106897
	C214	C	0.608915	0.897020	0.106737
	C215	C	0.420445	0.896306	0.906957
	Zn216	Zn	0.514719	-0.002210	0.756957
	Zn217	Zn	0.515003	-0.002077	0.257498
	Zn218	Zn	0.764179	0.498043	0.007255
	Zn219	Zn	0.265475	0.497535	0.007567
	Zn220	Zn	0.014417	0.750160	0.507542
	Zn221	Zn	0.014688	0.246914	0.507673
	Zn222	Zn	0.014667	0.497669	0.757753
	Zn223	Zn	0.014924	0.497900	0.257041
	Zn224	Zn	0.514960	0.745741	0.007191
	Zn225	Zn	0.514649	0.249251	0.007196
	Zn226	Zn	0.765489	-0.001869	0.506772
	Zn227	Zn	0.264857	-0.001291	0.506687
	N228	N	0.430976	0.960064	0.683152
	N229	N	0.598949	0.035733	0.683947
	N230	N	0.598564	0.959751	0.330997
	N231	N	0.431067	0.035661	0.330568
	N232	N	0.693159	0.411622	0.970780
	N233	N	0.693943	0.584671	0.043697
	N234	N	0.335752	0.584398	0.971071
	N235	N	0.336128	0.411590	0.044337
	N236	N	0.977890	0.678258	0.421414
	N237	N	0.051122	0.679001	0.594254
	N238	N	0.978557	0.318045	0.594643
	N239	N	0.051163	0.318538	0.421042
	N240	N	0.977331	0.413593	0.684835
	N241	N	0.051955	0.583379	0.685069
	N242	N	0.977612	0.583831	0.329367
	N243	N	0.052327	0.413946	0.330706
	N244	N	0.430376	0.673819	0.969795
	N245	N	0.599078	0.673656	0.045011
	N246	N	0.598497	0.322205	0.969404
	N247	N	0.429724	0.321160	0.045258
	N248	N	0.694858	0.961315	0.420066
	N249	N	0.694407	0.034198	0.593999
	N250	N	0.334536	0.961802	0.594269
	N251	N	0.335728	0.034734	0.420207
	N252	N	0.930451	0.460288	0.184273
	N253	N	0.098638	0.535825	0.183424
	N254	N	0.098715	0.459669	0.830639
	N255	N	0.931441	0.535930	0.831568
	N256	N	0.192834	0.913428	0.469836
	N257	N	0.194107	0.085470	0.543704
	N258	N	0.835908	0.084805	0.470619
	N259	N	0.836599	0.912266	0.543919
	N260	N	0.478287	0.177684	0.920555
	N261	N	0.551138	0.177802	0.093723
	N262	N	0.478160	0.817493	0.093568
	N263	N	0.551148	0.817238	0.920548
	N264	N	0.477519	0.913033	0.184414
	N265	N	0.552110	0.082641	0.184494
	N266	N	0.477878	0.082772	0.829664
	N267	N	0.551751	0.912009	0.829083
	N268	N	0.930778	0.174255	0.469931
	N269	N	0.099391	0.175006	0.544841
	N270	N	0.099115	0.822229	0.469457
	N271	N	0.930930	0.823024	0.544980
	N272	N	0.194851	0.460855	0.920541
	N273	N	0.194837	0.534246	0.094545
	N274	N	0.834436	0.461904	0.094593
	N275	N	0.835515	0.534357	0.920593
	O276	O	0.535384	0.466115	0.488322
	H277	H	0.534982	0.463134	0.478086
	H278	H	0.547577	0.465196	0.480453
	O279	O	-0.560227	0.450967	-0.528046
	H280	H	-0.558646	0.444130	-0.536997
	H281	H	-0.570516	0.458337	-0.518431
	O282	O	0.496188	0.453356	0.542181
	H283	H	0.498039	0.447976	0.533165
	H284	H	0.506023	0.449789	0.542957
	O285	O	0.057990	0.949252	0.971861
	H286	H	0.050411	0.958636	0.967416
	H287	H	0.062316	0.952752	0.972548
	O288	O	1.023927	0.027726	-0.062326
	H289	H	1.026470	0.028810	-0.066805
	H290	H	1.020472	0.024770	-0.061119
	O291	O	-0.981418	0.988976	-1.004490
	H292	H	-0.979103	0.989107	-0.998088
	H293	H	-0.979779	0.984160	-1.007237
	O294	O	0.503369	0.461162	0.439577
	H295	H	0.497546	0.470089	0.443185
	H296	H	0.493261	0.468067	0.429225
	O297	O	0.025587	1.004313	-0.014205
	H298	H	0.030431	1.010765	-0.013790
	H299	H	0.023521	1.011332	-0.013598
	O300	O	1.047381	-0.046002	0.963279
	H301	H	1.046390	-0.049810	0.961272
	H302	H	1.038094	-0.044477	0.966050
	O303	O	0.466648	0.473363	0.542674
	H304	H	0.470759	0.477288	0.547088
	H305	H	0.461977	0.471703	0.554591
	O306	O	0.049975	0.971373	1.007552
	H307	H	0.063555	0.961916	1.009723
	H308	H	0.045623	0.966203	0.998018
	O309	O	0.451033	0.462836	0.504397
	H310	H	0.443711	0.459611	0.520040
	H311	H	0.447283	0.458369	0.501436
