data_Molecule from HDF5

_cell_length_a		16.261785
_cell_length_b		16.213989
_cell_length_c		16.289112
_cell_angle_alpha	89.944964
_cell_angle_beta	90.014005
_cell_angle_gamma	90.050021
_symmetry_space_group_name_H-M	'P 1'
_symmetry_Int_Tables_number		1

loop_
	_symmetry_equiv_pos_as_xyz
	x,y,z

loop_
	_atom_site_label
	_atom_site_type_symbol
	_atom_site_fract_x
	_atom_site_fract_y
	_atom_site_fract_z
	H0	H	0.402836	0.835738	0.713939
	H1	H	0.598262	0.165426	0.713255
	H2	H	0.597731	0.834965	0.287258
	H3	H	0.402573	0.163643	0.286433
	H4	H	0.713891	0.402573	0.836022
	H5	H	0.714395	0.599134	0.163562
	H6	H	0.285882	0.598336	0.836120
	H7	H	0.285913	0.401649	0.163603
	H8	H	0.835051	0.712821	0.403328
	H9	H	0.164499	0.713069	0.596212
	H10	H	0.835548	0.286749	0.596737
	H11	H	0.164816	0.287082	0.403538
	H12	H	0.836231	0.400368	0.714658
	H13	H	0.164148	0.597717	0.713059
	H14	H	0.835913	0.598340	0.285454
	H15	H	0.164044	0.403369	0.286827
	H16	H	0.402464	0.713630	0.835854
	H17	H	0.596250	0.712633	0.164090
	H18	H	0.597410	0.286640	0.836096
	H19	H	0.403178	0.287184	0.164408
	H20	H	0.711703	0.834527	0.404493
	H21	H	0.712902	0.165063	0.597021
	H22	H	0.286826	0.835140	0.597547
	H23	H	0.286179	0.164022	0.401208
	H24	H	0.902433	0.335527	0.212736
	H25	H	0.098212	0.664182	0.213460
	H26	H	0.097443	0.335219	0.787097
	H27	H	0.901470	0.664954	0.786067
	H28	H	0.214227	0.902452	0.336118
	H29	H	0.214524	0.098024	0.663889
	H30	H	0.785275	0.098718	0.336735
	H31	H	0.785626	0.900771	0.664740
	H32	H	0.335620	0.213193	0.902994
	H33	H	0.664304	0.212875	0.097509
	H34	H	0.335010	0.787145	0.096283
	H35	H	0.664381	0.786939	0.903906
	H36	H	0.335837	0.900134	0.215365
	H37	H	0.663837	0.097107	0.214001
	H38	H	0.336357	0.098881	0.785614
	H39	H	0.664753	0.902478	0.787268
	H40	H	0.903671	0.212571	0.335987
	H41	H	0.098719	0.213769	0.663830
	H42	H	0.096272	0.787826	0.335359
	H43	H	0.902763	0.785773	0.664636
	H44	H	0.212486	0.335259	0.903279
	H45	H	0.213652	0.664676	0.096751
	H46	H	0.787631	0.335413	0.096513
	H47	H	0.785244	0.664244	0.901362
	H48	H	0.412426	0.116025	0.594046
	H49	H	0.599409	0.880408	0.597132
	H50	H	0.596715	0.115778	0.413365
	H51	H	0.410189	0.882301	0.405185
	H52	H	0.589443	0.410154	0.114250
	H53	H	0.607875	0.590936	0.879304
	H54	H	0.400548	0.592950	0.117815
	H55	H	0.408339	0.399577	0.881030
	H56	H	0.114074	0.589033	0.410128
	H57	H	0.885809	0.591063	0.585013
	H58	H	0.114731	0.411278	0.589599
	H59	H	0.886189	0.414461	0.408650
	H60	H	0.118357	0.408575	0.600803
	H61	H	0.882712	0.586173	0.600962
	H62	H	0.117617	0.591756	0.398820
	H63	H	0.880245	0.405467	0.396644
	H64	H	0.408572	0.589418	0.115142
	H65	H	0.585440	0.582719	0.888707
	H66	H	0.593862	0.401791	0.118731
	H67	H	0.398366	0.408409	0.881685
	H68	H	0.598109	0.120412	0.400008
	H69	H	0.586618	0.883570	0.598015
	H70	H	0.404018	0.116548	0.588234
	H71	H	0.405358	0.883218	0.411124
	H72	H	0.902342	0.619072	0.092915
	H73	H	0.096086	0.381050	0.094089
	H74	H	0.094774	0.618254	0.905351
	H75	H	0.909569	0.381073	0.896688
	H76	H	0.092447	0.899849	0.618140
	H77	H	0.095242	0.095000	0.382861
	H78	H	0.900236	0.099716	0.621171
	H79	H	0.892786	0.905090	0.379876
	H80	H	0.624498	0.111443	0.897992
	H81	H	0.384254	0.091963	0.092189
	H82	H	0.615146	0.909073	0.091994
	H83	H	0.384222	0.906468	0.909957
	H84	H	0.616834	0.908016	0.097210
	H85	H	0.381874	0.091264	0.096242
	H86	H	0.610343	0.092614	0.926493
	H87	H	0.383396	0.909645	0.903659
	H88	H	0.903212	0.084787	0.615988
	H89	H	0.094003	0.091568	0.383503
	H90	H	0.099754	0.909178	0.617243
	H91	H	0.909992	0.919011	0.388375
	H92	H	0.093585	0.617665	0.905388
	H93	H	0.091585	0.382845	0.095080
	H94	H	0.909797	0.618453	0.097123
	H95	H	0.915450	0.388407	0.913505
	H96	H	0.403675	0.119657	0.597686
	H97	H	0.593267	0.885516	0.586552
	H98	H	0.585674	0.115273	0.405218
	H99	H	0.403350	0.880836	0.404596
	H100	H	0.598578	0.409560	0.116882
	H101	H	0.588186	0.607286	0.881220
	H102	H	0.408285	0.598186	0.117913
	H103	H	0.410854	0.411781	0.885780
	H104	H	0.118579	0.600502	0.407151
	H105	H	0.879618	0.601803	0.595886
	H106	H	0.118096	0.400099	0.591710
	H107	H	0.882213	0.398933	0.411251
	H108	H	0.909654	0.615229	0.088768
	H109	H	0.092703	0.383665	0.091079
	H110	H	0.094090	0.616923	0.905934
	H111	H	0.896494	0.381433	0.911073
	H112	H	0.088708	0.910437	0.614096
	H113	H	0.092135	0.094751	0.383828
	H114	H	0.914196	0.096269	0.614997
	H115	H	0.914151	0.896359	0.384071
	H116	H	0.615819	0.076658	0.894611
	H117	H	0.381716	0.095634	0.094483
	H118	H	0.617119	0.903323	0.093404
	H119	H	0.381662	0.903259	0.904235
	C120	C	0.378828	0.008612	0.621362
	C121	C	0.621630	0.991904	0.621970
	C122	C	0.621304	0.007950	0.378634
	C123	C	0.378358	0.990926	0.378572
	C124	C	0.621745	0.378842	0.008309
	C125	C	0.621792	0.621740	0.991513
	C126	C	0.378182	0.621714	0.008179
	C127	C	0.378102	0.378330	0.991444
	C128	C	0.008032	0.621828	0.377727
	C129	C	0.991718	0.621273	0.621609
	C130	C	0.008425	0.378378	0.621771
	C131	C	0.991253	0.378254	0.378112
	C132	C	0.878899	0.508673	0.121233
	C133	C	0.121334	0.491619	0.121127
	C134	C	0.121957	0.508772	0.877927
	C135	C	0.878592	0.492023	0.878588
	C136	C	0.121396	0.878417	0.508091
	C137	C	0.121869	0.121398	0.491908
	C138	C	0.878214	0.121521	0.508921
	C139	C	0.877870	0.878166	0.492311
	C140	C	0.508333	0.121860	0.878168
	C141	C	0.491575	0.121019	0.121959
	C142	C	0.508064	0.878018	0.122358
	C143	C	0.491798	0.878300	0.878340
	C144	C	0.382271	0.884459	0.675821
	C145	C	0.618879	0.116083	0.676003
	C146	C	0.618376	0.884216	0.324423
	C147	C	0.381774	0.114863	0.323955
	C148	C	0.676680	0.381425	0.885003
	C149	C	0.676589	0.619354	0.114701
	C150	C	0.323923	0.618606	0.884747
	C151	C	0.323531	0.380834	0.114712
	C152	C	0.884075	0.675529	0.381754
	C153	C	0.115564	0.675087	0.617251
	C154	C	0.884599	0.323858	0.618182
	C155	C	0.115527	0.324497	0.382102
	C156	C	0.885123	0.380310	0.676810
	C157	C	0.115439	0.618147	0.675581
	C158	C	0.884551	0.618609	0.323457
	C159	C	0.115314	0.382039	0.324303
	C160	C	0.381451	0.676119	0.884677
	C161	C	0.617938	0.675968	0.114921
	C162	C	0.618254	0.324414	0.884879
	C163	C	0.381935	0.323928	0.114941
	C164	C	0.675497	0.884064	0.382293
	C165	C	0.675942	0.115965	0.618253
	C166	C	0.324564	0.884415	0.618306
	C167	C	0.324330	0.115009	0.381196
	C168	C	0.881843	0.384719	0.175359
	C169	C	0.118254	0.615420	0.175091
	C170	C	0.118195	0.384547	0.824376
	C171	C	0.881246	0.615990	0.824040
	C172	C	0.176237	0.881550	0.385046
	C173	C	0.176772	0.118601	0.614929
	C174	C	0.823699	0.118629	0.385295
	C175	C	0.822940	0.880255	0.615777
	C176	C	0.384731	0.175961	0.881816
	C177	C	0.615249	0.175380	0.118157
	C178	C	0.384301	0.823639	0.118414
	C179	C	0.615584	0.824541	0.882826
	C180	C	0.384595	0.880197	0.177059
	C181	C	0.615143	0.118112	0.176086
	C182	C	0.385029	0.119075	0.823579
	C183	C	0.615440	0.881306	0.824376
	C184	C	0.882339	0.175469	0.385042
	C185	C	0.119078	0.175999	0.615130
	C186	C	0.117874	0.824431	0.384674
	C187	C	0.881175	0.823279	0.615681
	C188	C	0.175406	0.384421	0.881882
	C189	C	0.175796	0.615504	0.117360
	C190	C	0.824448	0.384837	0.117859
	C191	C	0.823784	0.615772	0.881280
	C192	C	0.400214	0.095089	0.599666
	C193	C	0.599618	0.905539	0.600412
	C194	C	0.599966	0.094718	0.399903
	C195	C	0.399928	0.904548	0.400370
	C196	C	0.600308	0.400734	0.094332
	C197	C	0.600171	0.600101	0.905212
	C198	C	0.399611	0.599917	0.094528
	C199	C	0.399399	0.400113	0.905018
	C200	C	0.094356	0.600275	0.399121
	C201	C	0.905108	0.599438	0.600313
	C202	C	0.094664	0.400193	0.600357
	C203	C	0.905200	0.399839	0.399350
	C204	C	0.900878	0.595340	0.099480
	C205	C	0.099685	0.404787	0.099819
	C206	C	0.100623	0.595232	0.899229
	C207	C	0.900761	0.405874	0.900521
	C208	C	0.100098	0.900084	0.594306
	C209	C	0.100209	0.100013	0.405543
	C210	C	0.899458	0.100007	0.595135
	C211	C	0.899366	0.900353	0.406332
	C212	C	0.594665	0.099951	0.899988
	C213	C	0.405031	0.099324	0.100618
	C214	C	0.594025	0.900166	0.100620
	C215	C	0.405295	0.899934	0.899664
	Zn216	Zn	0.500669	0.000099	0.749814
	Zn217	Zn	0.499901	-0.000372	0.250620
	Zn218	Zn	0.750796	0.500396	-0.000253
	Zn219	Zn	0.249634	0.500073	-0.000576
	Zn220	Zn	-0.000461	0.749773	0.500010
	Zn221	Zn	0.000561	0.250212	0.500325
	Zn222	Zn	-0.000154	0.500257	0.749992
	Zn223	Zn	-0.000092	0.500067	0.249518
	Zn224	Zn	0.499510	0.750109	-0.000168
	Zn225	Zn	0.499960	0.249889	0.000098
	Zn226	Zn	0.749396	0.000006	0.500727
	Zn227	Zn	0.250723	0.000392	0.499878
	N228	N	0.415238	0.962478	0.678010
	N229	N	0.585939	0.037973	0.678442
	N230	N	0.585256	0.962230	0.322301
	N231	N	0.414801	0.036835	0.322387
	N232	N	0.678840	0.414754	0.962587
	N233	N	0.678837	0.586221	0.036980
	N234	N	0.321502	0.585798	0.962624
	N235	N	0.321386	0.414276	0.037153
	N236	N	0.961846	0.677624	0.414776
	N237	N	0.037565	0.677128	0.584575
	N238	N	0.962324	0.322447	0.584789
	N239	N	0.037716	0.322002	0.414846
	N240	N	0.962901	0.413470	0.679196
	N241	N	0.037409	0.585504	0.678168
	N242	N	0.962526	0.586036	0.320938
	N243	N	0.037202	0.414536	0.321525
	N244	N	0.414542	0.678011	0.962287
	N245	N	0.584527	0.677464	0.037377
	N246	N	0.585104	0.322405	0.962439
	N247	N	0.414966	0.322289	0.037272
	N248	N	0.677360	0.961981	0.415508
	N249	N	0.677629	0.037961	0.585287
	N250	N	0.322576	0.962435	0.585101
	N251	N	0.322101	0.037189	0.414355
	N252	N	0.914748	0.462776	0.177541
	N253	N	0.085248	0.537409	0.177492
	N254	N	0.085631	0.462707	0.821860
	N255	N	0.914618	0.538160	0.822168
	N256	N	0.178607	0.914375	0.462749
	N257	N	0.178496	0.085478	0.537324
	N258	N	0.821051	0.085809	0.463136
	N259	N	0.820855	0.914004	0.538145
	N260	N	0.462336	0.177608	0.915141
	N261	N	0.537446	0.177467	0.085361
	N262	N	0.461802	0.822408	0.084873
	N263	N	0.537590	0.822628	0.915513
	N264	N	0.462617	0.913159	0.179738
	N265	N	0.537282	0.085076	0.178403
	N266	N	0.462861	0.085985	0.821314
	N267	N	0.537508	0.913966	0.821532
	N268	N	0.915635	0.177274	0.462602
	N269	N	0.085508	0.177713	0.537671
	N270	N	0.084287	0.822674	0.462129
	N271	N	0.914493	0.821796	0.538227
	N272	N	0.177949	0.462565	0.914436
	N273	N	0.177616	0.537561	0.084403
	N274	N	0.822505	0.462951	0.084987
	N275	N	0.822281	0.537799	0.914780
