data_Molecule from HDF5

_cell_length_a		16.430476
_cell_length_b		16.348941
_cell_length_c		16.481678
_cell_angle_alpha	89.902439
_cell_angle_beta	89.884765
_cell_angle_gamma	89.955840
_symmetry_space_group_name_H-M	'P 1'
_symmetry_Int_Tables_number		1

loop_
	_symmetry_equiv_pos_as_xyz
	x,y,z

loop_
	_atom_site_label
	_atom_site_type_symbol
	_atom_site_fract_x
	_atom_site_fract_y
	_atom_site_fract_z
	H0	H	0.390628	0.843980	0.714857
	H1	H	0.609672	0.158980	0.713799
	H2	H	0.610954	0.845248	0.264349
	H3	H	0.392634	0.159538	0.267632
	H4	H	0.726229	0.392188	0.834684
	H5	H	0.725301	0.612720	0.146116
	H6	H	0.271858	0.614498	0.835861
	H7	H	0.274787	0.391271	0.145622
	H8	H	0.843491	0.725265	0.381275
	H9	H	0.157108	0.725801	0.597324
	H10	H	0.842487	0.276862	0.600895
	H11	H	0.157513	0.279015	0.386043
	H12	H	0.842827	0.392139	0.716886
	H13	H	0.156317	0.613311	0.716549
	H14	H	0.844656	0.610834	0.264643
	H15	H	0.155488	0.388414	0.263172
	H16	H	0.389152	0.729331	0.834107
	H17	H	0.607062	0.726439	0.146728
	H18	H	0.608663	0.277871	0.833172
	H19	H	0.390342	0.275186	0.145253
	H20	H	0.725290	0.843905	0.379273
	H21	H	0.725322	0.157725	0.597851
	H22	H	0.275509	0.843955	0.599329
	H23	H	0.275179	0.157891	0.381087
	H24	H	0.891204	0.344688	0.213386
	H25	H	0.110058	0.657474	0.214901
	H26	H	0.107681	0.343126	0.767959
	H27	H	0.890845	0.658956	0.766040
	H28	H	0.227102	0.890662	0.334361
	H29	H	0.227294	0.112681	0.645272
	H30	H	0.776847	0.110323	0.333943
	H31	H	0.774580	0.889225	0.645240
	H32	H	0.341929	0.224168	0.884291
	H33	H	0.658366	0.224538	0.095051
	H34	H	0.342534	0.778038	0.099653
	H35	H	0.655878	0.777479	0.881273
	H36	H	0.344196	0.890978	0.218332
	H37	H	0.658082	0.109991	0.213622
	H38	H	0.344295	0.115049	0.762106
	H39	H	0.653931	0.890266	0.762183
	H40	H	0.889254	0.229312	0.336403
	H41	H	0.110040	0.226048	0.647286
	H42	H	0.109388	0.776911	0.333334
	H43	H	0.890857	0.774332	0.645366
	H44	H	0.222595	0.343032	0.883780
	H45	H	0.224879	0.657649	0.100225
	H46	H	0.775012	0.345640	0.099281
	H47	H	0.775922	0.658797	0.880902
	H48	H	0.409052	0.114221	0.574522
	H49	H	0.589135	0.887299	0.578462
	H50	H	0.591903	0.112883	0.411180
	H51	H	0.415005	0.889092	0.404571
	H52	H	0.580921	0.420694	0.098140
	H53	H	0.582746	0.586407	0.880445
	H54	H	0.415487	0.592314	0.101578
	H55	H	0.412681	0.412031	0.877185
	H56	H	0.114500	0.590974	0.400747
	H57	H	0.891979	0.583740	0.572895
	H58	H	0.114791	0.408988	0.580886
	H59	H	0.888522	0.412498	0.408182
	H60	H	0.109582	0.415415	0.574203
	H61	H	0.888603	0.583253	0.582676
	H62	H	0.111723	0.587045	0.405101
	H63	H	0.890160	0.422583	0.402392
	H64	H	0.407725	0.587571	0.102726
	H65	H	0.587105	0.593542	0.877636
	H66	H	0.584071	0.404845	0.104103
	H67	H	0.409575	0.415451	0.876824
	H68	H	0.594515	0.118810	0.396358
	H69	H	0.582930	0.888942	0.578134
	H70	H	0.414579	0.114604	0.579564
	H71	H	0.413304	0.889328	0.405473
	H72	H	0.915305	0.618526	0.086719
	H73	H	0.084748	0.386610	0.081629
	H74	H	0.080643	0.612303	0.902434
	H75	H	0.918487	0.388644	0.898689
	H76	H	0.088850	0.914086	0.601690
	H77	H	0.089650	0.090916	0.377531
	H78	H	0.910013	0.086134	0.603057
	H79	H	0.916061	0.913705	0.379465
	H80	H	0.613022	0.093329	0.901841
	H81	H	0.388576	0.086359	0.079994
	H82	H	0.613831	0.916426	0.086202
	H83	H	0.390508	0.924322	0.904014
	H84	H	0.613259	0.907598	0.073790
	H85	H	0.387374	0.089174	0.080020
	H86	H	0.609634	0.085258	0.904311
	H87	H	0.383888	0.914602	0.896630
	H88	H	0.914408	0.086249	0.602179
	H89	H	0.087570	0.083508	0.381057
	H90	H	0.086346	0.916437	0.600518
	H91	H	0.911850	0.911037	0.376488
	H92	H	0.088117	0.612875	0.908220
	H93	H	0.084369	0.390577	0.072732
	H94	H	0.921118	0.610239	0.071748
	H95	H	0.914908	0.392367	0.909949
	H96	H	0.416029	0.111310	0.572394
	H97	H	0.586729	0.889690	0.573219
	H98	H	0.580079	0.112432	0.400634
	H99	H	0.413694	0.888020	0.403913
	H100	H	0.596590	0.416743	0.104545
	H101	H	0.591336	0.585775	0.878261
	H102	H	0.415299	0.583762	0.099138
	H103	H	0.414365	0.416656	0.878054
	H104	H	0.113210	0.585066	0.398906
	H105	H	0.887193	0.592353	0.577482
	H106	H	0.111433	0.418491	0.583660
	H107	H	0.884914	0.413433	0.396983
	H108	H	0.904180	0.617425	0.072351
	H109	H	0.092540	0.386039	0.076020
	H110	H	0.088649	0.616174	0.899471
	H111	H	0.906825	0.385799	0.903299
	H112	H	0.085356	0.913551	0.601016
	H113	H	0.081956	0.089802	0.380289
	H114	H	0.912372	0.089792	0.603247
	H115	H	0.911285	0.916592	0.377660
	H116	H	0.613026	0.085991	0.896195
	H117	H	0.388962	0.087990	0.077837
	H118	H	0.608199	0.921993	0.073174
	H119	H	0.387656	0.911820	0.909660
	C120	C	0.378341	0.010008	0.610660
	C121	C	0.621202	0.992464	0.610769
	C122	C	0.622418	0.010206	0.368707
	C123	C	0.379440	0.992506	0.369743
	C124	C	0.621809	0.379987	-0.001102
	C125	C	0.621336	0.623623	0.981905
	C126	C	0.377697	0.623860	-0.001347
	C127	C	0.378548	0.380318	0.980835
	C128	C	0.009455	0.622361	0.367921
	C129	C	0.992243	0.621873	0.611792
	C130	C	0.008234	0.379666	0.613598
	C131	C	0.991275	0.380754	0.369380
	C132	C	0.879074	0.511281	0.110893
	C133	C	0.121712	0.491847	0.111376
	C134	C	0.120839	0.510106	0.869318
	C135	C	0.878692	0.492889	0.869242
	C136	C	0.121747	0.880011	0.498170
	C137	C	0.121108	0.122437	0.482569
	C138	C	0.878053	0.122482	0.499731
	C139	C	0.878297	0.878501	0.480741
	C140	C	0.508218	0.123404	0.867176
	C141	C	0.492242	0.122786	0.111960
	C142	C	0.508482	0.880720	0.112335
	C143	C	0.490415	0.881440	0.868954
	C144	C	0.373716	0.891459	0.673608
	C145	C	0.626688	0.111011	0.673188
	C146	C	0.627841	0.892368	0.305318
	C147	C	0.375224	0.111579	0.308117
	C148	C	0.685007	0.375435	0.881382
	C149	C	0.684131	0.629006	0.099115
	C150	C	0.313565	0.630655	0.882218
	C151	C	0.315955	0.374547	0.098620
	C152	C	0.891047	0.684567	0.364151
	C153	C	0.109918	0.684949	0.615194
	C154	C	0.890019	0.317153	0.618431
	C155	C	0.109838	0.318588	0.366822
	C156	C	0.890232	0.374890	0.676156
	C157	C	0.109564	0.628487	0.674515
	C158	C	0.891475	0.627255	0.305935
	C159	C	0.108873	0.373579	0.305965
	C160	C	0.372465	0.687751	0.881288
	C161	C	0.625342	0.686135	0.099327
	C162	C	0.626571	0.318073	0.880781
	C163	C	0.373829	0.316598	0.098327
	C164	C	0.684959	0.891659	0.362829
	C165	C	0.684322	0.110595	0.615215
	C166	C	0.316143	0.891356	0.616237
	C167	C	0.316616	0.111163	0.364548
	C168	C	0.873741	0.392415	0.172920
	C169	C	0.126798	0.610104	0.173954
	C170	C	0.125167	0.390835	0.808145
	C171	C	0.874118	0.611489	0.806827
	C172	C	0.185547	0.874315	0.381131
	C173	C	0.185262	0.128576	0.598917
	C174	C	0.816610	0.127672	0.381715
	C175	C	0.815526	0.872699	0.598282
	C176	C	0.389842	0.184678	0.865339
	C177	C	0.610789	0.184427	0.113894
	C178	C	0.390117	0.818177	0.117451
	C179	C	0.608170	0.818013	0.863926
	C180	C	0.391046	0.874587	0.176641
	C181	C	0.610704	0.127406	0.172901
	C182	C	0.390833	0.130160	0.804349
	C183	C	0.607420	0.874410	0.804459
	C184	C	0.873062	0.187025	0.382850
	C185	C	0.126760	0.185650	0.599687
	C186	C	0.126517	0.817728	0.380366
	C187	C	0.873635	0.815246	0.598196
	C188	C	0.182513	0.390883	0.865790
	C189	C	0.184215	0.610302	0.116427
	C190	C	0.815972	0.392988	0.115926
	C191	C	0.816562	0.611324	0.863991
	C192	C	0.405353	0.091979	0.583286
	C193	C	0.594062	0.910193	0.584281
	C194	C	0.596247	0.092947	0.395139
	C195	C	0.406093	0.910370	0.396997
	C196	C	0.595011	0.406569	0.080600
	C197	C	0.594834	0.596492	0.900149
	C198	C	0.404957	0.596058	0.079912
	C199	C	0.404730	0.407249	0.898834
	C200	C	0.091612	0.595488	0.394117
	C201	C	0.910377	0.594138	0.585307
	C202	C	0.090563	0.406389	0.587155
	C203	C	0.909321	0.408344	0.395120
	C204	C	0.905893	0.593609	0.084468
	C205	C	0.094820	0.409476	0.084599
	C206	C	0.093781	0.592468	0.895978
	C207	C	0.905680	0.410496	0.896287
	C208	C	0.094650	0.906918	0.579880
	C209	C	0.094023	0.095674	0.400978
	C210	C	0.904330	0.095100	0.581354
	C211	C	0.905238	0.906041	0.399166
	C212	C	0.590588	0.095766	0.893252
	C213	C	0.409877	0.095869	0.086536
	C214	C	0.590150	0.907608	0.085416
	C215	C	0.408718	0.909013	0.895726
	Zn216	Zn	0.499001	0.001924	0.739117
	Zn217	Zn	0.500837	0.001653	0.241536
	Zn218	Zn	0.750610	0.502387	-0.009644
	Zn219	Zn	0.249218	0.500939	-0.009930
	Zn220	Zn	0.000699	0.750669	0.489470
	Zn221	Zn	-0.000317	0.251812	0.491406
	Zn222	Zn	0.000089	0.501682	0.741473
	Zn223	Zn	0.000255	0.500839	0.239165
	Zn224	Zn	0.499027	0.752433	-0.009422
	Zn225	Zn	0.499775	0.251616	-0.010659
	Zn226	Zn	0.749724	-0.000150	0.489718
	Zn227	Zn	0.250272	0.001383	0.489829
	N228	N	0.411453	0.966427	0.670641
	N229	N	0.588313	0.036365	0.670779
	N230	N	0.589738	0.966953	0.308870
	N231	N	0.413461	0.036919	0.311122
	N232	N	0.682092	0.413484	0.955684
	N233	N	0.681822	0.590986	0.024757
	N234	N	0.316687	0.591690	0.955999
	N235	N	0.319058	0.413717	0.024668
	N236	N	0.965529	0.681530	0.401929
	N237	N	0.035893	0.680958	0.576794
	N238	N	0.964530	0.320056	0.580215
	N239	N	0.035813	0.322873	0.405545
	N240	N	0.964672	0.413063	0.673183
	N241	N	0.035157	0.590086	0.672550
	N242	N	0.966297	0.589458	0.307898
	N243	N	0.033998	0.411207	0.307171
	N244	N	0.411390	0.683774	0.954992
	N245	N	0.587161	0.683147	0.025342
	N246	N	0.588020	0.320757	0.954728
	N247	N	0.412228	0.320382	0.024252
	N248	N	0.681737	0.966116	0.401509
	N249	N	0.681372	0.035727	0.577675
	N250	N	0.318762	0.966164	0.578024
	N251	N	0.319030	0.036051	0.402206
	N252	N	0.912036	0.467042	0.170218
	N253	N	0.088767	0.535392	0.171035
	N254	N	0.087761	0.466037	0.809967
	N255	N	0.912050	0.536568	0.809981
	N256	N	0.182694	0.912530	0.455446
	N257	N	0.181970	0.089996	0.525036
	N258	N	0.819532	0.088180	0.455422
	N259	N	0.818403	0.911529	0.524209
	N260	N	0.464031	0.180663	0.903357
	N261	N	0.535991	0.181671	0.076880
	N262	N	0.463819	0.821923	0.078144
	N263	N	0.534385	0.822242	0.903209
	N264	N	0.465661	0.912684	0.173807
	N265	N	0.535732	0.089986	0.172082
	N266	N	0.465822	0.092679	0.805385
	N267	N	0.533236	0.913072	0.807290
	N268	N	0.910309	0.184323	0.457358
	N269	N	0.087380	0.181906	0.526275
	N270	N	0.087604	0.821248	0.454083
	N271	N	0.911628	0.818602	0.524117
	N272	N	0.180196	0.466288	0.902760
	N273	N	0.181055	0.535694	0.078156
	N274	N	0.818882	0.467986	0.078232
	N275	N	0.819062	0.536435	0.901848
	O276	O	0.565519	0.445103	0.710064
	H277	H	0.551858	0.413794	0.702497
	H278	H	0.534125	0.466239	0.715944
	O279	O	0.788879	-0.214162	1.009289
	H280	H	0.767366	-0.207812	0.993598
	H281	H	0.773205	-0.217605	1.008733
	O282	O	0.522680	0.288531	0.274719
	H283	H	0.504120	0.306754	0.257282
	H284	H	0.514834	0.273174	0.254644
	O285	O	0.399780	0.351637	0.429124
	H286	H	0.385349	0.361740	0.437848
	H287	H	0.402226	0.368425	0.408401
	O288	O	0.365302	0.292445	0.488998
	H289	H	0.368044	0.306464	0.467291
	H290	H	0.350846	0.283280	0.479604
	O291	O	0.677622	0.684381	0.669360
	H292	H	0.677755	0.694142	0.635361
	H293	H	0.682464	0.640220	0.680642
	O294	O	0.216816	-0.017373	0.767161
	H295	H	0.255340	-0.024393	0.729393
	H296	H	0.203136	-0.069593	0.780692
	O297	O	0.500633	0.672530	0.527050
	H298	H	0.507817	0.676521	0.547697
	H299	H	0.498816	0.658527	0.539370
	O300	O	0.480827	0.713424	0.275359
	H301	H	0.504399	0.724242	0.308290
	H302	H	0.474506	0.747116	0.251776
	O303	O	0.499140	0.570021	0.488249
	H304	H	0.524122	0.559832	0.505315
	H305	H	0.497589	0.574979	0.507533
	O306	O	0.684056	0.318810	0.312742
	H307	H	0.644061	0.311316	0.309420
	H308	H	0.679934	0.356640	0.306278
	O309	O	0.321313	0.332667	0.668826
	H310	H	0.327529	0.317319	0.631155
	H311	H	0.359927	0.318970	0.666997
	O312	O	0.017873	0.791715	0.781908
	H313	H	-0.001368	0.810579	0.777353
	H314	H	0.006511	0.772773	0.774518
	O315	O	0.480715	0.291386	0.704014
	H316	H	0.501511	0.278137	0.668767
	H317	H	0.487179	0.262555	0.724436
	O318	O	1.213877	0.021602	0.204312
	H319	H	1.215819	0.015848	0.222772
	H320	H	1.218131	0.009877	0.208051
	O321	O	-0.220252	0.018403	-0.232331
	H322	H	-0.258644	0.027102	-0.271309
	H323	H	-0.206153	0.070325	-0.214187
	O324	O	0.557886	0.561227	0.325116
	H325	H	0.544332	0.572846	0.349735
	H326	H	0.552198	0.573808	0.328014
	O327	O	0.458843	0.453777	0.262386
	H328	H	0.480290	0.470095	0.270932
	H329	H	0.439099	0.472731	0.269619
	O330	O	-0.172814	0.824225	0.168276
	H331	H	-0.185540	0.868669	0.168917
	H332	H	-0.171938	0.818220	0.136893
	O333	O	0.570693	0.297623	0.559515
	H334	H	0.581670	0.289212	0.528863
	H335	H	0.576238	0.311193	0.533878
	O336	O	0.143459	0.195959	-0.001657
	H337	H	0.147392	0.176957	-0.018799
	H338	H	0.144906	0.212734	-0.013077
	O339	O	-0.044239	1.038672	1.187982
	H340	H	-0.019314	1.036481	1.186178
	H341	H	-0.030982	1.062132	1.182529
	O342	O	-0.014788	0.787347	1.206505
	H343	H	-0.044818	0.782441	1.213254
	H344	H	-0.023953	0.769331	1.211281
	O345	O	1.017638	1.219108	0.213059
	H346	H	1.023531	1.255460	0.240317
	H347	H	1.069166	1.208301	0.200381
	O348	O	0.287658	0.706909	0.477866
	H349	H	0.288989	0.726902	0.463654
	H350	H	0.306445	0.722993	0.480122
	O351	O	0.058467	0.955262	1.200934
	H352	H	0.057030	0.926471	1.200566
	H353	H	0.054744	0.961982	1.185975
	O354	O	0.179840	0.826806	-0.190835
	H355	H	0.191441	0.813340	-0.137676
	H356	H	0.126148	0.814280	-0.198934
	O357	O	0.199620	0.110029	0.955687
	H358	H	0.174375	0.101240	0.949028
	H359	H	0.213640	0.084177	0.926571
	O360	O	0.693213	0.440627	0.531660
	H361	H	0.702962	0.433542	0.541483
	H362	H	0.687527	0.434231	0.555459
	O363	O	-0.176560	0.166348	0.825554
	H364	H	-0.154533	0.167610	0.848707
	H365	H	-0.147944	0.182416	0.836492
	O366	O	-0.206563	1.039847	0.033179
	H367	H	-0.207360	1.062647	0.036585
	H368	H	-0.202922	1.028001	0.063521
	O369	O	0.321796	0.674479	0.316931
	H370	H	0.336192	0.666173	0.317168
	H371	H	0.341699	0.668766	0.325557
	O372	O	0.786645	-0.081692	0.908550
	H373	H	0.783502	-0.054565	0.905369
	H374	H	0.785744	-0.069942	0.898894
	O375	O	0.713252	0.522371	0.700676
	H376	H	0.687972	0.499394	0.708699
	H377	H	0.730044	0.522567	0.729545
	O378	O	1.175935	1.183960	1.172215
	H379	H	1.190120	1.136511	1.177316
	H380	H	1.189750	1.195130	1.125233
	O381	O	0.440890	0.558575	0.708530
	H382	H	0.416556	0.555851	0.709525
	H383	H	0.428448	0.567604	0.714863
	O384	O	0.712760	0.287078	0.472810
	H385	H	0.750039	0.257296	0.463474
	H386	H	0.704771	0.307631	0.443871
	O387	O	0.100586	-0.016480	1.021162
	H388	H	0.114158	-0.000427	1.020598
	H389	H	0.091148	-0.002429	1.016705
	O390	O	0.041318	0.036610	-0.168602
	H391	H	0.032487	0.010279	-0.173715
	H392	H	0.047132	0.022838	-0.164245
	O393	O	1.063164	0.793633	1.048441
	H394	H	1.046429	0.804637	1.043927
	H395	H	1.054526	0.794230	1.063799
	O396	O	0.938253	-0.197088	-0.060253
	H397	H	0.911094	-0.201336	-0.064423
	H398	H	0.939169	-0.183830	-0.052410
	O399	O	0.979183	0.210188	0.779494
	H400	H	0.988628	0.223791	0.750934
	H401	H	1.004162	0.188532	0.771204
	O402	O	1.055769	1.159223	0.883884
	H403	H	1.086191	1.145202	0.884147
	H404	H	1.042832	1.153823	0.893689
	O405	O	0.966895	1.094652	0.009313
	H406	H	0.960651	1.108896	0.010327
	H407	H	0.955959	1.095812	0.025340
	O408	O	0.797861	-0.013511	0.197247
	H409	H	0.834484	0.006671	0.206717
	H410	H	0.774541	-0.006430	0.227278
	O411	O	1.280063	1.547880	0.544726
	H412	H	1.273348	1.546947	0.586234
	H413	H	1.274763	1.592025	0.539703
	O414	O	0.713267	0.480876	0.276659
	H415	H	0.719544	0.488251	0.249324
	H416	H	0.699251	0.481364	0.267884
	O417	O	0.643518	0.516717	0.403882
	H418	H	0.638807	0.498087	0.409997
	H419	H	0.646008	0.501816	0.388884
	O420	O	0.568130	0.711206	0.405707
	H421	H	0.578026	0.695082	0.424615
	H422	H	0.580386	0.713912	0.432068
	O423	O	0.473452	0.498969	0.516755
	H424	H	0.482402	0.501214	0.535535
	H425	H	0.437069	0.495428	0.513952
	O426	O	0.286194	0.386099	0.456183
	H427	H	0.274949	0.399616	0.439482
	H428	H	0.300157	0.402129	0.472438
	O429	O	0.290222	0.516474	0.272572
	H430	H	0.269204	0.529694	0.252014
	H431	H	0.288521	0.514538	0.279704
	O432	O	0.709189	0.712113	0.507962
	H433	H	0.721919	0.697468	0.512928
	H434	H	0.739363	0.717778	0.501420
	O435	O	-0.173078	0.208967	1.021112
	H436	H	-0.178103	0.224976	1.033564
	H437	H	-0.157753	0.193342	1.011761
	O438	O	0.215623	-0.211036	-0.030561
	H439	H	0.235936	-0.232354	-0.021947
	H440	H	0.194214	-0.223843	-0.009158
	O441	O	0.885066	0.155468	0.029870
	H442	H	0.900679	0.158671	0.030060
	H443	H	0.888155	0.169881	0.047271
	O444	O	0.228456	0.984100	1.004305
	H445	H	0.230438	0.966103	0.996024
	H446	H	0.224965	0.969989	0.990050
	O447	O	0.941956	-0.056151	0.772998
	H448	H	0.921614	-0.034904	0.767900
	H449	H	0.926815	-0.060560	0.788774
	O450	O	0.518174	0.714090	0.704540
	H451	H	0.551358	0.714209	0.704395
	H452	H	0.509417	0.723161	0.729686
	O453	O	0.279620	0.486951	0.712225
	H454	H	0.294487	0.433705	0.697203
	H455	H	0.242315	0.479854	0.748527
