data_Molecule from HDF5

_cell_length_a		16.414252
_cell_length_b		16.326506
_cell_length_c		16.521530
_cell_angle_alpha	90.059131
_cell_angle_beta	90.043843
_cell_angle_gamma	89.989058
_symmetry_space_group_name_H-M	'P 1'
_symmetry_Int_Tables_number		1

loop_
	_symmetry_equiv_pos_as_xyz
	x,y,z

loop_
	_atom_site_label
	_atom_site_type_symbol
	_atom_site_fract_x
	_atom_site_fract_y
	_atom_site_fract_z
	H0	H	0.394324	0.843458	0.723688
	H1	H	0.612963	0.158159	0.722396
	H2	H	0.614358	0.844146	0.273504
	H3	H	0.395451	0.159212	0.276865
	H4	H	0.728206	0.395494	0.842111
	H5	H	0.726423	0.604819	0.157766
	H6	H	0.280767	0.611477	0.844414
	H7	H	0.280232	0.389866	0.154488
	H8	H	0.845925	0.717780	0.397279
	H9	H	0.162707	0.725386	0.608476
	H10	H	0.847496	0.281718	0.602554
	H11	H	0.164345	0.277322	0.393124
	H12	H	0.848557	0.393035	0.722114
	H13	H	0.161202	0.612409	0.726967
	H14	H	0.848857	0.606847	0.277018
	H15	H	0.163376	0.390217	0.274270
	H16	H	0.399048	0.725937	0.843060
	H17	H	0.612035	0.723594	0.157360
	H18	H	0.612921	0.277893	0.842611
	H19	H	0.397190	0.275123	0.155190
	H20	H	0.727719	0.841644	0.392037
	H21	H	0.727691	0.158195	0.606568
	H22	H	0.281745	0.842718	0.605913
	H23	H	0.280918	0.158175	0.392025
	H24	H	0.901563	0.342602	0.218923
	H25	H	0.115649	0.659004	0.223257
	H26	H	0.115005	0.343483	0.775912
	H27	H	0.896378	0.658356	0.775723
	H28	H	0.228648	0.892143	0.342600
	H29	H	0.230942	0.110637	0.655400
	H30	H	0.784446	0.103380	0.343129
	H31	H	0.778773	0.888627	0.655780
	H32	H	0.348286	0.225334	0.892499
	H33	H	0.664337	0.219103	0.101928
	H34	H	0.347165	0.778439	0.105394
	H35	H	0.665366	0.782897	0.897016
	H36	H	0.347207	0.892950	0.223231
	H37	H	0.659434	0.111037	0.225556
	H38	H	0.348555	0.110893	0.774408
	H39	H	0.662204	0.892273	0.775769
	H40	H	0.901517	0.219786	0.341804
	H41	H	0.114560	0.226456	0.656179
	H42	H	0.112798	0.774955	0.344300
	H43	H	0.897982	0.776228	0.657823
	H44	H	0.231591	0.344007	0.890349
	H45	H	0.231457	0.658716	0.109200
	H46	H	0.786334	0.342771	0.103227
	H47	H	0.784382	0.660236	0.893233
	H48	H	0.421517	0.113972	0.591177
	H49	H	0.596074	0.883598	0.590555
	H50	H	0.590179	0.111865	0.412374
	H51	H	0.411813	0.886222	0.413812
	H52	H	0.597670	0.410503	0.113116
	H53	H	0.593023	0.594428	0.886238
	H54	H	0.420752	0.590288	0.111757
	H55	H	0.421859	0.417059	0.889892
	H56	H	0.117541	0.587983	0.415917
	H57	H	0.890268	0.590788	0.592616
	H58	H	0.119977	0.414920	0.591431
	H59	H	0.892971	0.411177	0.409562
	H60	H	0.119295	0.412942	0.585563
	H61	H	0.895098	0.588400	0.583041
	H62	H	0.117862	0.583318	0.410195
	H63	H	0.893208	0.414330	0.406803
	H64	H	0.417013	0.587916	0.111202
	H65	H	0.599972	0.593566	0.884958
	H66	H	0.597546	0.413299	0.112338
	H67	H	0.420367	0.412168	0.888219
	H68	H	0.595631	0.113345	0.414256
	H69	H	0.586084	0.887731	0.590523
	H70	H	0.420834	0.111228	0.582621
	H71	H	0.421995	0.886785	0.405303
	H72	H	0.922119	0.611494	0.078317
	H73	H	0.087000	0.391910	0.084074
	H74	H	0.090753	0.612351	0.913684
	H75	H	0.918985	0.389369	0.911908
	H76	H	0.093273	0.914307	0.611231
	H77	H	0.090094	0.086905	0.389487
	H78	H	0.918422	0.084022	0.611289
	H79	H	0.915479	0.914469	0.388912
	H80	H	0.617661	0.086255	0.911010
	H81	H	0.388995	0.091437	0.089040
	H82	H	0.621573	0.907940	0.093626
	H83	H	0.394858	0.919041	0.912961
	H84	H	0.614666	0.912892	0.080156
	H85	H	0.393198	0.088033	0.083851
	H86	H	0.618534	0.087380	0.908121
	H87	H	0.390685	0.914104	0.904882
	H88	H	0.920407	0.095062	0.613951
	H89	H	0.092909	0.091294	0.386579
	H90	H	0.092679	0.914789	0.610438
	H91	H	0.920194	0.907513	0.388599
	H92	H	0.091252	0.612293	0.914879
	H93	H	0.098678	0.387736	0.082692
	H94	H	0.906639	0.619905	0.088987
	H95	H	0.915974	0.386987	0.912348
	H96	H	0.413836	0.115479	0.586194
	H97	H	0.592376	0.888032	0.581865
	H98	H	0.593954	0.115304	0.409443
	H99	H	0.423451	0.891987	0.417846
	H100	H	0.594886	0.411770	0.112090
	H101	H	0.596463	0.588232	0.887716
	H102	H	0.420511	0.586173	0.109843
	H103	H	0.417433	0.416038	0.888029
	H104	H	0.121375	0.590086	0.409849
	H105	H	0.895065	0.580665	0.591034
	H106	H	0.117828	0.418792	0.586895
	H107	H	0.891044	0.410714	0.406024
	H108	H	0.924669	0.617088	0.098242
	H109	H	0.093370	0.385930	0.093658
	H110	H	0.091863	0.612836	0.914357
	H111	H	0.918058	0.386453	0.908972
	H112	H	0.092029	0.913950	0.610631
	H113	H	0.096255	0.086284	0.387731
	H114	H	0.910005	0.090349	0.615224
	H115	H	0.912338	0.907872	0.386089
	H116	H	0.618485	0.089163	0.911051
	H117	H	0.391443	0.084579	0.090560
	H118	H	0.616168	0.923167	0.092143
	H119	H	0.391628	0.908997	0.914335
	C120	C	0.383790	0.009351	0.620591
	C121	C	0.625954	0.990970	0.620698
	C122	C	0.626373	0.009256	0.378086
	C123	C	0.384082	0.992336	0.378622
	C124	C	0.628521	0.379537	0.008062
	C125	C	0.628421	0.624315	0.990983
	C126	C	0.385377	0.622741	0.007924
	C127	C	0.385126	0.379773	0.991036
	C128	C	0.014551	0.620413	0.379374
	C129	C	0.996867	0.622138	0.622814
	C130	C	0.014904	0.381130	0.620270
	C131	C	0.997307	0.378536	0.375904
	C132	C	0.885754	0.510362	0.119774
	C133	C	0.128094	0.492419	0.121163
	C134	C	0.126837	0.509199	0.879089
	C135	C	0.884287	0.492406	0.877926
	C136	C	0.126903	0.879058	0.508022
	C137	C	0.127375	0.122743	0.490920
	C138	C	0.884188	0.121392	0.509025
	C139	C	0.882767	0.876677	0.491784
	C140	C	0.514264	0.122088	0.876901
	C141	C	0.495586	0.121659	0.120415
	C142	C	0.513614	0.880347	0.121706
	C143	C	0.496731	0.880252	0.878285
	C144	C	0.378072	0.890861	0.682823
	C145	C	0.630123	0.110468	0.681874
	C146	C	0.630956	0.891078	0.315097
	C147	C	0.378796	0.111337	0.317205
	C148	C	0.688597	0.376830	0.889412
	C149	C	0.687297	0.624762	0.109826
	C150	C	0.322396	0.627807	0.890782
	C151	C	0.321852	0.373930	0.107981
	C152	C	0.894472	0.679489	0.377926
	C153	C	0.115043	0.685147	0.626477
	C154	C	0.895201	0.321021	0.621696
	C155	C	0.116577	0.317298	0.374379
	C156	C	0.896107	0.376376	0.681426
	C157	C	0.114345	0.629042	0.685696
	C158	C	0.896175	0.624604	0.317498
	C159	C	0.116268	0.373868	0.315331
	C160	C	0.381165	0.685120	0.890301
	C161	C	0.629745	0.683433	0.110045
	C162	C	0.630903	0.318600	0.889581
	C163	C	0.380273	0.316459	0.108254
	C164	C	0.687464	0.889865	0.374349
	C165	C	0.687418	0.110514	0.624069
	C166	C	0.321756	0.890528	0.624083
	C167	C	0.321528	0.111045	0.374648
	C168	C	0.883616	0.390571	0.179129
	C169	C	0.132963	0.611219	0.183054
	C170	C	0.131829	0.390759	0.816656
	C171	C	0.880241	0.611380	0.816710
	C172	C	0.188240	0.874629	0.390140
	C173	C	0.189784	0.127503	0.608455
	C174	C	0.824330	0.122514	0.390245
	C175	C	0.820386	0.872097	0.609099
	C176	C	0.395702	0.184596	0.874102
	C177	C	0.615698	0.180543	0.121868
	C178	C	0.394617	0.818362	0.124216
	C179	C	0.616923	0.821104	0.877515
	C180	C	0.394810	0.875128	0.182839
	C181	C	0.613431	0.126571	0.183011
	C182	C	0.395836	0.127610	0.815188
	C183	C	0.615301	0.875742	0.816987
	C184	C	0.882750	0.180214	0.389698
	C185	C	0.131833	0.185490	0.608719
	C186	C	0.130647	0.816073	0.390764
	C187	C	0.880002	0.815901	0.610157
	C188	C	0.190335	0.391417	0.873542
	C189	C	0.191002	0.610912	0.126355
	C190	C	0.826197	0.390460	0.121273
	C191	C	0.823924	0.612064	0.875193
	C192	C	0.410898	0.091935	0.594209
	C193	C	0.599388	0.908050	0.595031
	C194	C	0.600559	0.092016	0.404435
	C195	C	0.411410	0.909828	0.404956
	C196	C	0.603638	0.404713	0.090719
	C197	C	0.603447	0.599362	0.907787
	C198	C	0.412047	0.595849	0.089652
	C199	C	0.412045	0.407236	0.910011
	C200	C	0.097408	0.594580	0.404661
	C201	C	0.914895	0.594483	0.596478
	C202	C	0.097334	0.407742	0.595069
	C203	C	0.914380	0.404458	0.400535
	C204	C	0.910656	0.594361	0.095263
	C205	C	0.100818	0.410117	0.094430
	C206	C	0.098965	0.591173	0.906439
	C207	C	0.910334	0.409158	0.903553
	C208	C	0.100384	0.906540	0.589459
	C209	C	0.100783	0.095945	0.409234
	C210	C	0.909096	0.096928	0.591894
	C211	C	0.908596	0.902567	0.409496
	C212	C	0.596635	0.095154	0.902700
	C213	C	0.412899	0.095513	0.094949
	C214	C	0.595835	0.907041	0.096292
	C215	C	0.413948	0.906471	0.903565
	Zn216	Zn	0.504893	-0.000189	0.748545
	Zn217	Zn	0.503773	0.001443	0.250200
	Zn218	Zn	0.757023	0.502099	-0.000914
	Zn219	Zn	0.255620	0.501582	-0.000220
	Zn220	Zn	0.005411	0.749164	0.500607
	Zn221	Zn	0.005856	0.251543	0.499579
	Zn222	Zn	0.005796	0.500774	0.750401
	Zn223	Zn	0.006608	0.501211	0.248787
	Zn224	Zn	0.505707	0.752637	0.000103
	Zn225	Zn	0.506506	0.250646	-0.000845
	Zn226	Zn	0.754749	-0.000616	0.500594
	Zn227	Zn	0.256084	0.000759	0.498860
	N228	N	0.416008	0.965861	0.680875
	N229	N	0.592772	0.035160	0.679932
	N230	N	0.593702	0.966366	0.317255
	N231	N	0.417001	0.036461	0.319590
	N232	N	0.687456	0.413981	0.964148
	N233	N	0.686632	0.588985	0.034487
	N234	N	0.324782	0.589908	0.965023
	N235	N	0.324645	0.412727	0.034172
	N236	N	0.969095	0.677315	0.415760
	N237	N	0.040767	0.680946	0.588263
	N238	N	0.969912	0.323656	0.584295
	N239	N	0.041588	0.320029	0.411246
	N240	N	0.971598	0.412968	0.680810
	N241	N	0.039870	0.590848	0.683744
	N242	N	0.971959	0.588744	0.318317
	N243	N	0.041148	0.411038	0.315933
	N244	N	0.419309	0.682258	0.964270
	N245	N	0.594135	0.683400	0.034723
	N246	N	0.594143	0.320365	0.964124
	N247	N	0.418911	0.319940	0.034718
	N248	N	0.684791	0.964332	0.412911
	N249	N	0.685051	0.035052	0.586993
	N250	N	0.325166	0.965302	0.586196
	N251	N	0.324804	0.036050	0.412180
	N252	N	0.920254	0.466087	0.178131
	N253	N	0.094792	0.536452	0.180243
	N254	N	0.093081	0.465284	0.819967
	N255	N	0.917295	0.535948	0.818412
	N256	N	0.185755	0.913219	0.464039
	N257	N	0.187155	0.089156	0.534304
	N258	N	0.825065	0.086649	0.465534
	N259	N	0.821853	0.909042	0.534393
	N260	N	0.470500	0.181558	0.911496
	N261	N	0.541300	0.177802	0.083812
	N262	N	0.469534	0.821243	0.087227
	N263	N	0.542049	0.823712	0.914672
	N264	N	0.469688	0.912563	0.181675
	N265	N	0.537581	0.090967	0.182512
	N266	N	0.470516	0.089700	0.816638
	N267	N	0.539541	0.911741	0.817217
	N268	N	0.919020	0.179931	0.464613
	N269	N	0.094039	0.182920	0.534531
	N270	N	0.093307	0.818495	0.465112
	N271	N	0.917966	0.818634	0.536034
	N272	N	0.187298	0.466158	0.911560
	N273	N	0.188395	0.535777	0.088786
	N274	N	0.827832	0.466042	0.084800
	N275	N	0.826601	0.537173	0.912764
	O276	O	0.486051	0.284776	0.717441
	H277	H	0.432505	0.295004	0.705871
	H278	H	0.482622	0.247121	0.744725
	O279	O	0.793218	0.048957	0.785288
	H280	H	0.781010	0.068891	0.770306
	H281	H	0.789710	0.073916	0.795496
	O282	O	0.720377	0.293492	0.470388
	H283	H	0.738682	0.279168	0.475201
	H284	H	0.717612	0.291597	0.445859
	O285	O	0.709760	0.550999	0.452063
	H286	H	0.710778	0.559570	0.465097
	H287	H	0.711515	0.546859	0.472971
	O288	O	0.298019	0.291885	0.521022
	H289	H	0.291960	0.318335	0.500827
	H290	H	0.268586	0.281529	0.510554
	O291	O	0.287377	0.563939	0.551324
	H292	H	0.285090	0.536341	0.550571
	H293	H	0.307607	0.544905	0.569023
	O294	O	0.059991	-0.168091	1.027124
	H295	H	0.090732	-0.173484	1.020442
	H296	H	0.049135	-0.167710	1.003246
	O297	O	0.701864	0.415772	0.603715
	H298	H	0.690528	0.397519	0.592506
	H299	H	0.693520	0.406050	0.623724
	O300	O	0.659526	0.685652	0.687172
	H301	H	0.678863	0.668379	0.662585
	H302	H	0.674353	0.671842	0.684550
	O303	O	0.582544	0.587026	0.299263
	H304	H	0.584094	0.612162	0.299929
	H305	H	0.576544	0.594566	0.316608
	O306	O	0.706129	0.482981	0.308912
	H307	H	0.713127	0.490983	0.338759
	H308	H	0.690339	0.494054	0.292104
	O309	O	0.447444	0.324795	0.393938
	H310	H	0.453156	0.318298	0.406604
	H311	H	0.439011	0.333422	0.407962
	O312	O	0.025727	0.789424	0.787482
	H313	H	0.017073	0.773089	0.767125
	H314	H	0.004841	0.795198	0.791794
	O315	O	0.326288	0.317983	0.683968
	H316	H	0.317183	0.336536	0.659119
	H317	H	0.313542	0.344191	0.665446
	O318	O	1.198456	0.140708	0.039842
	H319	H	1.196020	0.117237	0.015313
	H320	H	1.224669	0.158557	0.042481
	O321	O	-0.067387	-0.197014	-0.053522
	H322	H	-0.062424	-0.194803	-0.062749
	H323	H	-0.085433	-0.196494	-0.039838
	O324	O	0.527392	0.290631	0.282897
	H325	H	0.529125	0.258879	0.260473
	H326	H	0.532193	0.282980	0.309826
	O327	O	0.687748	0.315406	0.315146
	H328	H	0.684496	0.325469	0.319556
	H329	H	0.680916	0.328258	0.313237
	O330	O	-0.091216	0.998105	0.139159
	H331	H	-0.089351	1.017866	0.118586
	H332	H	-0.118255	1.008489	0.146126
	O333	O	0.289214	0.523170	0.288684
	H334	H	0.285505	0.512555	0.265512
	H335	H	0.301892	0.511401	0.264875
	O336	O	-0.202358	0.011182	0.141258
	H337	H	-0.194635	0.003080	0.125558
	H338	H	-0.213430	0.029298	0.128163
	O339	O	0.210568	0.981894	0.790589
	H340	H	0.201439	1.006960	0.809613
	H341	H	0.237844	0.980697	0.765383
	O342	O	0.195627	0.973523	1.072997
	H343	H	0.193999	0.945532	1.070392
	H344	H	0.198366	0.986298	1.098929
	O345	O	1.054743	1.206874	0.205971
	H346	H	1.074275	1.194597	0.214036
	H347	H	1.061762	1.222657	0.222448
	O348	O	0.412430	0.591166	0.706436
	H349	H	0.443718	0.586858	0.707023
	H350	H	0.433729	0.607494	0.718555
	O351	O	0.178515	1.129993	0.955875
	H352	H	0.181419	1.110846	0.964374
	H353	H	0.164460	1.131242	0.955122
	O354	O	0.215568	0.792497	-0.018166
	H355	H	0.242587	0.776289	-0.023643
	H356	H	0.210300	0.793986	-0.055014
	O357	O	0.028911	-0.057209	1.189012
	H358	H	0.011112	-0.056739	1.187194
	H359	H	0.016616	-0.077803	1.180948
	O360	O	0.716127	0.705433	0.522225
	H361	H	0.688481	0.709238	0.501398
	H362	H	0.737611	0.737041	0.524034
	O363	O	-0.299922	0.535359	0.687860
	H364	H	-0.294672	0.513153	0.689389
	H365	H	-0.308763	0.513471	0.688126
	O366	O	-0.153900	1.188562	-0.190630
	H367	H	-0.135617	1.200384	-0.167111
	H368	H	-0.133782	1.193657	-0.178109
	O369	O	0.294566	0.710115	0.480376
	H370	H	0.280428	0.684593	0.498180
	H371	H	0.264401	0.717115	0.494294
	O372	O	0.985432	-0.045413	0.976121
	H373	H	0.976763	-0.058680	0.994715
	H374	H	0.991249	-0.035650	0.972730
	O375	O	0.512293	0.711918	0.695454
	H376	H	0.522211	0.743242	0.722454
	H377	H	0.558806	0.705918	0.683390
	O378	O	0.998641	1.143767	0.970540
	H379	H	1.002036	1.129985	0.978324
	H380	H	0.993441	1.151416	0.980930
	O381	O	0.467720	0.460724	0.502975
	H382	H	0.482614	0.479186	0.512614
	H383	H	0.479152	0.462413	0.474923
	O384	O	0.993351	0.211134	-0.178826
	H385	H	1.011915	0.224815	-0.177389
	H386	H	1.006989	0.196744	-0.186257
	O387	O	-0.181968	-0.181202	1.186702
	H388	H	-0.137558	-0.190786	1.192512
	H389	H	-0.188636	-0.153332	1.201607
	O390	O	-0.076745	0.139035	0.112294
	H391	H	-0.083830	0.145738	0.103418
	H392	H	-0.079733	0.136407	0.118048
	O393	O	1.039147	1.017997	1.087493
	H394	H	1.030546	1.002303	1.088671
	H395	H	1.048243	1.014954	1.087163
	O396	O	0.790939	-0.209937	0.026605
	H397	H	0.767905	-0.238530	0.025234
	H398	H	0.795047	-0.206586	0.068798
	O399	O	0.561469	0.299578	0.544377
	H400	H	0.559445	0.294097	0.546655
	H401	H	0.560719	0.295714	0.543416
	O402	O	1.189159	0.816723	0.818606
	H403	H	1.180710	0.851797	0.809397
	H404	H	1.153967	0.818604	0.810332
	O405	O	1.063422	1.062771	-0.227485
	H406	H	1.085799	1.066729	-0.232610
	H407	H	1.039435	1.044904	-0.218730
	O408	O	0.842411	-0.015360	-0.034503
	H409	H	0.841754	-0.045271	-0.043239
	H410	H	0.844913	-0.026508	-0.045881
	O411	O	1.534290	1.530407	0.537511
	H412	H	1.532702	1.561100	0.535863
	H413	H	1.561299	1.529489	0.549241
	O414	O	0.561759	0.660050	0.459919
	H415	H	0.540561	0.668850	0.429684
	H416	H	0.535577	0.657993	0.484251
	O417	O	0.185940	0.162782	0.126952
	H418	H	0.185150	0.168112	0.099543
	H419	H	0.194515	0.132917	0.125655
	O420	O	0.475839	0.713419	0.529086
	H421	H	0.445879	0.716768	0.523857
	H422	H	0.472821	0.714163	0.555191
	O423	O	0.553366	0.428206	0.679098
	H424	H	0.535754	0.404579	0.684973
	H425	H	0.547617	0.414809	0.660572
	O426	O	0.483807	0.721495	0.281690
	H427	H	0.434958	0.711996	0.294801
	H428	H	0.478812	0.753896	0.247824
	O429	O	0.296185	0.434721	0.438598
	H430	H	0.304477	0.455670	0.418948
	H431	H	0.323541	0.443521	0.430116
	O432	O	0.294542	0.481983	0.710360
	H433	H	0.310570	0.503369	0.720848
	H434	H	0.288823	0.494202	0.737231
	O435	O	-0.130491	0.170740	1.025768
	H436	H	-0.121921	0.155374	1.027784
	H437	H	-0.110468	0.170479	1.045519
	O438	O	0.166713	0.011143	0.204514
	H439	H	0.149864	0.000847	0.212839
	H440	H	0.172237	0.022592	0.213807
	O441	O	0.917138	-0.040790	-0.211431
	H442	H	0.916954	-0.042017	-0.193252
	H443	H	0.881323	-0.021714	-0.223726
	O444	O	-0.016435	0.800382	1.212429
	H445	H	-0.000492	0.804524	1.198388
	H446	H	-0.008220	0.788029	1.224723
	O447	O	0.872356	0.196002	1.074747
	H448	H	0.877416	0.207605	1.088802
	H449	H	0.862214	0.220937	1.081355
	O450	O	0.327041	0.686790	0.319671
	H451	H	0.317461	0.636245	0.310857
	H452	H	0.315194	0.697109	0.373444
	O453	O	0.456783	0.469125	0.286477
	H454	H	0.486773	0.479957	0.282969
	H455	H	0.474187	0.450617	0.291298
