data_Molecule from HDF5

_cell_length_a		16.288980
_cell_length_b		16.274286
_cell_length_c		16.213963
_cell_angle_alpha	89.979355
_cell_angle_beta	90.156745
_cell_angle_gamma	90.101614
_symmetry_space_group_name_H-M	'P 1'
_symmetry_Int_Tables_number		1

loop_
	_symmetry_equiv_pos_as_xyz
	x,y,z

loop_
	_atom_site_label
	_atom_site_type_symbol
	_atom_site_fract_x
	_atom_site_fract_y
	_atom_site_fract_z
	H0	H	0.392719	0.828826	0.720453
	H1	H	0.588806	0.157068	0.720023
	H2	H	0.587176	0.828095	0.292811
	H3	H	0.392932	0.156529	0.293283
	H4	H	0.703809	0.393031	0.842227
	H5	H	0.706041	0.592253	0.169744
	H6	H	0.273851	0.592184	0.842976
	H7	H	0.275997	0.393888	0.170731
	H8	H	0.826664	0.707362	0.406138
	H9	H	0.153947	0.707788	0.605660
	H10	H	0.826696	0.276850	0.603882
	H11	H	0.153136	0.278530	0.407378
	H12	H	0.825471	0.393685	0.719585
	H13	H	0.153904	0.591110	0.720903
	H14	H	0.826251	0.589529	0.291517
	H15	H	0.153546	0.394485	0.292767
	H16	H	0.389836	0.707054	0.841993
	H17	H	0.589084	0.706669	0.170414
	H18	H	0.587005	0.279199	0.842023
	H19	H	0.391177	0.278002	0.170739
	H20	H	0.704567	0.828084	0.408341
	H21	H	0.707463	0.155546	0.606700
	H22	H	0.275274	0.828193	0.606057
	H23	H	0.276050	0.155741	0.407846
	H24	H	0.892771	0.328071	0.218615
	H25	H	0.087579	0.656314	0.219575
	H26	H	0.087147	0.328536	0.791669
	H27	H	0.891175	0.656588	0.791492
	H28	H	0.205199	0.893316	0.342546
	H29	H	0.205191	0.091361	0.670826
	H30	H	0.776162	0.091136	0.342594
	H31	H	0.776724	0.892427	0.671260
	H32	H	0.326263	0.206303	0.906861
	H33	H	0.652630	0.210161	0.107494
	H34	H	0.326365	0.777204	0.104712
	H35	H	0.653190	0.778367	0.907952
	H36	H	0.325781	0.894308	0.220312
	H37	H	0.654192	0.090604	0.220032
	H38	H	0.326874	0.090353	0.790768
	H39	H	0.654695	0.894320	0.792914
	H40	H	0.892267	0.205697	0.342226
	H41	H	0.090243	0.207772	0.669860
	H42	H	0.089022	0.778425	0.341605
	H43	H	0.892223	0.776930	0.670100
	H44	H	0.203050	0.328999	0.907529
	H45	H	0.205419	0.655389	0.105871
	H46	H	0.774402	0.328628	0.104378
	H47	H	0.774054	0.655406	0.905718
	H48	H	0.395851	0.111144	0.605094
	H49	H	0.583709	0.874692	0.603525
	H50	H	0.588118	0.109697	0.413771
	H51	H	0.408442	0.879380	0.414674
	H52	H	0.578794	0.404863	0.121693
	H53	H	0.588581	0.587465	0.886536
	H54	H	0.391712	0.582833	0.124820
	H55	H	0.404975	0.392542	0.889880
	H56	H	0.105733	0.587143	0.417402
	H57	H	0.876296	0.586430	0.587711
	H58	H	0.104198	0.406234	0.598339
	H59	H	0.872038	0.394650	0.412511
	H60	H	0.108124	0.397791	0.604137
	H61	H	0.874809	0.576513	0.603289
	H62	H	0.106229	0.581760	0.409783
	H63	H	0.873771	0.399824	0.416520
	H64	H	0.402380	0.580467	0.120427
	H65	H	0.579932	0.578191	0.892250
	H66	H	0.580325	0.394969	0.124369
	H67	H	0.386062	0.395651	0.885260
	H68	H	0.581417	0.108754	0.410622
	H69	H	0.579795	0.878126	0.597478
	H70	H	0.403795	0.105819	0.597042
	H71	H	0.389778	0.875905	0.423608
	H72	H	0.895380	0.614097	0.113365
	H73	H	0.081788	0.374927	0.100527
	H74	H	0.076825	0.606688	0.916576
	H75	H	0.896470	0.374822	0.908897
	H76	H	0.078622	0.898295	0.622529
	H77	H	0.083229	0.084752	0.389381
	H78	H	0.909854	0.083745	0.619825
	H79	H	0.889176	0.902779	0.387759
	H80	H	0.606884	0.076284	0.904499
	H81	H	0.373896	0.092819	0.091072
	H82	H	0.606633	0.901793	0.104224
	H83	H	0.371996	0.897905	0.907397
	H84	H	0.607961	0.895041	0.100200
	H85	H	0.376762	0.075665	0.098023
	H86	H	0.611177	0.099100	0.911549
	H87	H	0.374314	0.895701	0.918059
	H88	H	0.894854	0.094742	0.628333
	H89	H	0.083813	0.086548	0.388978
	H90	H	0.087291	0.896835	0.625522
	H91	H	0.902840	0.904796	0.392024
	H92	H	0.088905	0.610085	0.917526
	H93	H	0.083546	0.376023	0.097316
	H94	H	0.911378	0.602324	0.093271
	H95	H	0.897911	0.377274	0.914962
	H96	H	0.391946	0.109170	0.593478
	H97	H	0.586824	0.875616	0.597109
	H98	H	0.582220	0.107000	0.418143
	H99	H	0.392855	0.870860	0.402859
	H100	H	0.587858	0.401874	0.124325
	H101	H	0.575721	0.590157	0.889634
	H102	H	0.399897	0.591498	0.124445
	H103	H	0.397410	0.410487	0.892658
	H104	H	0.109136	0.591016	0.409507
	H105	H	0.869847	0.594395	0.602816
	H106	H	0.105233	0.396941	0.594198
	H107	H	0.872756	0.399982	0.409973
	H108	H	0.885148	0.609091	0.087975
	H109	H	0.085737	0.373668	0.100217
	H110	H	0.083221	0.611171	0.906034
	H111	H	0.892372	0.375010	0.913334
	H112	H	0.084341	0.905010	0.622056
	H113	H	0.084418	0.085168	0.388948
	H114	H	0.891200	0.075408	0.622589
	H115	H	0.898211	0.892010	0.387276
	H116	H	0.602198	0.082994	0.926961
	H117	H	0.369593	0.089394	0.109125
	H118	H	0.604871	0.901127	0.096468
	H119	H	0.375626	0.905654	0.913250
	C120	C	0.368819	0.000505	0.627663
	C121	C	0.612326	0.984337	0.628376
	C122	C	0.612157	0.000412	0.385387
	C123	C	0.368316	0.983663	0.384782
	C124	C	0.610548	0.371798	0.014947
	C125	C	0.610879	0.613778	0.997731
	C126	C	0.368390	0.613869	0.014879
	C127	C	0.367721	0.370852	0.997901
	C128	C	-0.001329	0.614339	0.383986
	C129	C	0.981923	0.614543	0.627436
	C130	C	-0.002043	0.370805	0.627767
	C131	C	0.981242	0.370342	0.384369
	C132	C	0.868277	0.500557	0.127093
	C133	C	0.111797	0.483359	0.127902
	C134	C	0.111028	0.500722	0.884748
	C135	C	0.867757	0.484291	0.883949
	C136	C	0.111629	0.871279	0.514684
	C137	C	0.112481	0.114007	0.497691
	C138	C	0.869644	0.113218	0.515159
	C139	C	0.868606	0.870308	0.497788
	C140	C	0.498567	0.114361	0.884813
	C141	C	0.481532	0.114545	0.128191
	C142	C	0.498196	0.870657	0.128399
	C143	C	0.481881	0.870932	0.884611
	C144	C	0.372016	0.877258	0.682706
	C145	C	0.609562	0.107952	0.682882
	C146	C	0.608561	0.877046	0.330430
	C147	C	0.371935	0.107371	0.330553
	C148	C	0.665607	0.373321	0.891231
	C149	C	0.667491	0.612086	0.121020
	C150	C	0.312335	0.612049	0.891669
	C151	C	0.313413	0.373366	0.121532
	C152	C	0.875581	0.669420	0.385968
	C153	C	0.105179	0.669764	0.625877
	C154	C	0.875251	0.314676	0.625317
	C155	C	0.104279	0.316263	0.387307
	C156	C	0.874693	0.373141	0.682311
	C157	C	0.105114	0.611882	0.683137
	C158	C	0.875121	0.610794	0.329369
	C159	C	0.104434	0.374016	0.330226
	C160	C	0.369995	0.669074	0.891297
	C161	C	0.609571	0.669221	0.121283
	C162	C	0.607896	0.316598	0.891181
	C163	C	0.370597	0.315773	0.121672
	C164	C	0.666639	0.876916	0.387961
	C165	C	0.668567	0.107208	0.626624
	C166	C	0.313352	0.877159	0.625969
	C167	C	0.314153	0.107055	0.387753
	C168	C	0.870881	0.377173	0.181975
	C169	C	0.108340	0.607217	0.182359
	C170	C	0.107587	0.377523	0.829889
	C171	C	0.870831	0.607517	0.829113
	C172	C	0.166786	0.873466	0.391130
	C173	C	0.167345	0.111564	0.621658
	C174	C	0.813784	0.111669	0.391663
	C175	C	0.814221	0.872571	0.621695
	C176	C	0.375280	0.169020	0.886479
	C177	C	0.604610	0.170457	0.126312
	C178	C	0.375171	0.815193	0.125502
	C179	C	0.604559	0.815729	0.887108
	C180	C	0.374747	0.873339	0.182867
	C181	C	0.604915	0.112082	0.183330
	C182	C	0.375728	0.111432	0.828734
	C183	C	0.605266	0.873755	0.830265
	C184	C	0.872043	0.167984	0.391300
	C185	C	0.110461	0.169680	0.621126
	C186	C	0.109255	0.816198	0.390939
	C187	C	0.871519	0.814926	0.621141
	C188	C	0.165638	0.377817	0.887094
	C189	C	0.167078	0.606709	0.125994
	C190	C	0.812914	0.377232	0.124455
	C191	C	0.812593	0.607041	0.885861
	C192	C	0.390698	0.086563	0.605168
	C193	C	0.590008	0.898373	0.606073
	C194	C	0.590324	0.086280	0.407574
	C195	C	0.390349	0.897483	0.407070
	C196	C	0.588699	0.394095	0.101221
	C197	C	0.588188	0.591646	0.911655
	C198	C	0.391116	0.591478	0.101083
	C199	C	0.389730	0.392980	0.911655
	C200	C	0.084771	0.592900	0.405828
	C201	C	0.896132	0.592478	0.604615
	C202	C	0.083856	0.393626	0.605355
	C203	C	0.894894	0.392021	0.406393
	C204	C	0.890819	0.586341	0.104772
	C205	C	0.090172	0.397218	0.106006
	C206	C	0.089389	0.587186	0.906817
	C207	C	0.889269	0.398046	0.905893
	C208	C	0.089752	0.893451	0.601087
	C209	C	0.090477	0.091938	0.411451
	C210	C	0.892140	0.091079	0.601210
	C211	C	0.890209	0.893238	0.411322
	C212	C	0.584565	0.092671	0.907698
	C213	C	0.395602	0.092487	0.105942
	C214	C	0.584332	0.892761	0.106704
	C215	C	0.395968	0.893137	0.906515
	Zn216	Zn	0.490733	-0.007573	0.756308
	Zn217	Zn	0.489788	-0.007638	0.256668
	Zn218	Zn	0.739097	0.492307	0.005958
	Zn219	Zn	0.240020	0.492599	0.006181
	Zn220	Zn	-0.009427	0.742765	0.505935
	Zn221	Zn	-0.009571	0.241715	0.506295
	Zn222	Zn	-0.010318	0.492900	0.755614
	Zn223	Zn	-0.010275	0.491859	0.256100
	Zn224	Zn	0.489811	0.742358	0.006151
	Zn225	Zn	0.489784	0.243086	0.006241
	Zn226	Zn	0.741040	-0.007609	0.506778
	Zn227	Zn	0.240184	-0.007798	0.506443
	N228	N	0.405853	0.954781	0.683695
	N229	N	0.575250	0.030572	0.683817
	N230	N	0.575232	0.954701	0.329112
	N231	N	0.404969	0.029512	0.328768
	N232	N	0.667339	0.406964	0.969084
	N233	N	0.668485	0.578421	0.043149
	N234	N	0.311367	0.578262	0.969455
	N235	N	0.311552	0.406929	0.043516
	N236	N	0.953312	0.671592	0.419397
	N237	N	0.027601	0.671557	0.592039
	N238	N	0.952987	0.313081	0.592128
	N239	N	0.026679	0.313884	0.420457
	N240	N	0.952139	0.407098	0.683840
	N241	N	0.027695	0.577992	0.684043
	N242	N	0.952547	0.577257	0.327945
	N243	N	0.026687	0.406898	0.328386
	N244	N	0.404337	0.670195	0.968818
	N245	N	0.575017	0.670236	0.043809
	N246	N	0.574171	0.315563	0.968999
	N247	N	0.403802	0.314012	0.043841
	N248	N	0.669191	0.954658	0.421376
	N249	N	0.670268	0.029481	0.593253
	N250	N	0.311427	0.954911	0.592458
	N251	N	0.311849	0.029274	0.420762
	N252	N	0.904897	0.454640	0.183397
	N253	N	0.074799	0.529568	0.183848
	N254	N	0.074404	0.455080	0.828344
	N255	N	0.904501	0.530010	0.827831
	N256	N	0.168137	0.907124	0.468931
	N257	N	0.168674	0.077862	0.543958
	N258	N	0.812379	0.078115	0.469437
	N259	N	0.812224	0.906237	0.543665
	N260	N	0.452729	0.170878	0.920727
	N261	N	0.526861	0.172012	0.092744
	N262	N	0.452980	0.813430	0.092398
	N263	N	0.526918	0.814024	0.920358
	N264	N	0.452232	0.907222	0.184566
	N265	N	0.527575	0.077833	0.184459
	N266	N	0.453294	0.078261	0.827641
	N267	N	0.527922	0.907331	0.828579
	N268	N	0.906166	0.168994	0.469030
	N269	N	0.076839	0.171227	0.543263
	N270	N	0.075538	0.814872	0.468709
	N271	N	0.904541	0.813677	0.543305
	N272	N	0.167895	0.455693	0.920404
	N273	N	0.169277	0.528919	0.092859
	N274	N	0.811067	0.454934	0.091229
	N275	N	0.810574	0.529405	0.919381
	O276	O	1.501391	0.558315	0.537752
	H277	H	1.503939	0.550775	0.531149
	H278	H	1.499103	0.553375	0.536395
	O279	O	0.501794	0.554313	0.569860
	H280	H	0.502804	0.562275	0.563527
	H281	H	0.499143	0.560456	0.570445
	O282	O	1.518523	1.472841	-0.451262
	H283	H	1.522462	1.469484	-0.447445
	H284	H	1.519744	1.473280	-0.448600
	O285	O	0.496815	0.513023	0.541000
	H286	H	0.494794	0.516314	0.542135
	H287	H	0.497924	0.516371	0.548912
