data_Molecule from HDF5

_cell_length_a		16.195728
_cell_length_b		16.251968
_cell_length_c		16.213169
_cell_angle_alpha	89.911560
_cell_angle_beta	89.859149
_cell_angle_gamma	89.910164
_symmetry_space_group_name_H-M	'P 1'
_symmetry_Int_Tables_number		1

loop_
	_symmetry_equiv_pos_as_xyz
	x,y,z

loop_
	_atom_site_label
	_atom_site_type_symbol
	_atom_site_fract_x
	_atom_site_fract_y
	_atom_site_fract_z
	H0	H	0.404024	0.851337	0.717569
	H1	H	0.599445	0.179255	0.717818
	H2	H	0.601505	0.851032	0.289673
	H3	H	0.403248	0.179182	0.288659
	H4	H	0.714819	0.417495	0.839028
	H5	H	0.714187	0.612017	0.167893
	H6	H	0.288980	0.613774	0.838254
	H7	H	0.287224	0.416279	0.167126
	H8	H	0.837419	0.732282	0.405197
	H9	H	0.165961	0.729868	0.601560
	H10	H	0.837866	0.301929	0.604058
	H11	H	0.165457	0.301125	0.402860
	H12	H	0.837315	0.418688	0.717096
	H13	H	0.166286	0.613806	0.716522
	H14	H	0.836641	0.617101	0.289599
	H15	H	0.166158	0.418072	0.289052
	H16	H	0.401468	0.730708	0.839370
	H17	H	0.601018	0.729820	0.166800
	H18	H	0.601011	0.300807	0.838757
	H19	H	0.401547	0.300651	0.167809
	H20	H	0.718096	0.852229	0.405642
	H21	H	0.714135	0.180725	0.601544
	H22	H	0.288125	0.851823	0.602174
	H23	H	0.288432	0.179833	0.404636
	H24	H	0.901664	0.352842	0.220745
	H25	H	0.098783	0.680945	0.215128
	H26	H	0.100818	0.352033	0.788270
	H27	H	0.903392	0.680110	0.791267
	H28	H	0.215583	0.919704	0.340019
	H29	H	0.214605	0.114516	0.668767
	H30	H	0.787416	0.116120	0.339861
	H31	H	0.791107	0.920611	0.669017
	H32	H	0.336878	0.229553	0.905322
	H33	H	0.665926	0.228515	0.101850
	H34	H	0.337384	0.800843	0.102695
	H35	H	0.665923	0.799715	0.903677
	H36	H	0.337842	0.914813	0.219117
	H37	H	0.666689	0.111632	0.215846
	H38	H	0.337313	0.113269	0.789568
	H39	H	0.666252	0.915329	0.789505
	H40	H	0.902010	0.232121	0.339942
	H41	H	0.099393	0.230590	0.667834
	H42	H	0.103799	0.801390	0.340083
	H43	H	0.904469	0.803574	0.668146
	H44	H	0.216805	0.351322	0.904169
	H45	H	0.216383	0.679881	0.100721
	H46	H	0.788066	0.351174	0.102393
	H47	H	0.786566	0.678259	0.905463
	H48	H	0.399124	0.134879	0.595513
	H49	H	0.601754	0.898000	0.592291
	H50	H	0.592538	0.132605	0.408626
	H51	H	0.399196	0.896016	0.410052
	H52	H	0.588783	0.419063	0.120015
	H53	H	0.594433	0.614029	0.884741
	H54	H	0.401190	0.608463	0.122155
	H55	H	0.413125	0.423943	0.887579
	H56	H	0.117855	0.610558	0.413855
	H57	H	0.880089	0.610370	0.608866
	H58	H	0.120715	0.427006	0.602366
	H59	H	0.879596	0.419934	0.401635
	H60	H	0.121518	0.417086	0.595387
	H61	H	0.882336	0.620291	0.591755
	H62	H	0.117465	0.605814	0.409128
	H63	H	0.885744	0.418484	0.421557
	H64	H	0.411697	0.601509	0.117703
	H65	H	0.600299	0.604949	0.885303
	H66	H	0.598365	0.416985	0.123361
	H67	H	0.410072	0.417401	0.884693
	H68	H	0.594581	0.131686	0.411191
	H69	H	0.599247	0.895724	0.603276
	H70	H	0.412990	0.134948	0.606648
	H71	H	0.414222	0.897756	0.403455
	H72	H	0.908745	0.633929	0.101811
	H73	H	0.089717	0.400479	0.096850
	H74	H	0.101119	0.633186	0.915334
	H75	H	0.902861	0.395315	0.905551
	H76	H	0.091328	0.925513	0.620613
	H77	H	0.094562	0.110064	0.387308
	H78	H	0.909094	0.101676	0.618855
	H79	H	0.917290	0.917067	0.386254
	H80	H	0.613660	0.101567	0.921353
	H81	H	0.384846	0.111178	0.090338
	H82	H	0.620987	0.920588	0.102560
	H83	H	0.386900	0.926672	0.912412
	H84	H	0.619376	0.916089	0.091847
	H85	H	0.385214	0.100796	0.098464
	H86	H	0.621430	0.101208	0.898515
	H87	H	0.383004	0.922125	0.907216
	H88	H	0.915754	0.116847	0.621442
	H89	H	0.096194	0.110628	0.385142
	H90	H	0.094211	0.917323	0.623054
	H91	H	0.900402	0.922051	0.382219
	H92	H	0.097762	0.635409	0.901454
	H93	H	0.095811	0.400273	0.092301
	H94	H	0.910757	0.630661	0.092689
	H95	H	0.914996	0.398560	0.906646
	H96	H	0.415353	0.129347	0.589753
	H97	H	0.590284	0.899584	0.596104
	H98	H	0.595682	0.132955	0.408637
	H99	H	0.411706	0.900854	0.419075
	H100	H	0.596136	0.426601	0.120468
	H101	H	0.589294	0.605496	0.887243
	H102	H	0.413514	0.614110	0.120888
	H103	H	0.404876	0.423280	0.885057
	H104	H	0.120510	0.611467	0.407129
	H105	H	0.887649	0.601427	0.592848
	H106	H	0.116752	0.426796	0.590454
	H107	H	0.887957	0.436760	0.411574
	H108	H	0.901684	0.634061	0.095064
	H109	H	0.096502	0.397988	0.099909
	H110	H	0.088023	0.630511	0.911216
	H111	H	0.907588	0.399286	0.916689
	H112	H	0.100418	0.924267	0.622459
	H113	H	0.096242	0.108584	0.386868
	H114	H	0.898999	0.113623	0.625359
	H115	H	0.912783	0.933288	0.388892
	H116	H	0.623531	0.121424	0.911267
	H117	H	0.380107	0.113251	0.103501
	H118	H	0.617223	0.927263	0.093851
	H119	H	0.384383	0.919532	0.914895
	C120	C	0.380256	0.024317	0.625561
	C121	C	0.623936	1.006944	0.625400
	C122	C	0.623775	0.023979	0.381603
	C123	C	0.380318	1.006787	0.382209
	C124	C	0.623597	0.392483	0.012497
	C125	C	0.622887	0.636112	0.994613
	C126	C	0.380310	0.636701	0.011443
	C127	C	0.380111	0.393047	0.994275
	C128	C	0.009926	0.638577	0.381793
	C129	C	0.992644	0.638445	0.625278
	C130	C	0.010647	0.395194	0.625070
	C131	C	0.993033	0.395589	0.382142
	C132	C	0.878954	0.524557	0.125738
	C133	C	0.122807	0.507840	0.124406
	C134	C	0.124138	0.524196	0.880951
	C135	C	0.880362	0.506464	0.882175
	C136	C	0.124312	0.894300	0.513283
	C137	C	0.124010	0.138399	0.495273
	C138	C	0.879821	0.139146	0.512788
	C139	C	0.881475	0.895873	0.494931
	C140	C	0.510295	0.136682	0.881941
	C141	C	0.492664	0.136018	0.124910
	C142	C	0.510561	0.892627	0.124883
	C143	C	0.493138	0.893484	0.882214
	C144	C	0.382895	0.900646	0.680394
	C145	C	0.620267	0.130478	0.680092
	C146	C	0.621738	0.900227	0.327295
	C147	C	0.383040	0.130331	0.326734
	C148	C	0.677652	0.396347	0.888248
	C149	C	0.677117	0.633097	0.118559
	C150	C	0.326171	0.634376	0.887540
	C151	C	0.324811	0.395962	0.118234
	C152	C	0.886284	0.694396	0.384575
	C153	C	0.116793	0.692552	0.622220
	C154	C	0.886904	0.340052	0.623505
	C155	C	0.116588	0.339709	0.383540
	C156	C	0.886536	0.397705	0.679950
	C157	C	0.116835	0.634906	0.679415
	C158	C	0.885995	0.636849	0.327063
	C159	C	0.116959	0.397764	0.326763
	C160	C	0.382163	0.692498	0.888082
	C161	C	0.620595	0.691447	0.118004
	C162	C	0.620971	0.338337	0.888218
	C163	C	0.381758	0.338406	0.118444
	C164	C	0.679633	0.900833	0.385023
	C165	C	0.677356	0.131109	0.622079
	C166	C	0.325249	0.900981	0.623097
	C167	C	0.325841	0.130644	0.384446
	C168	C	0.881233	0.401530	0.182020
	C169	C	0.120040	0.631569	0.178348
	C170	C	0.121549	0.400872	0.825973
	C171	C	0.883012	0.630747	0.828343
	C172	C	0.178352	0.898253	0.389108
	C173	C	0.177681	0.135541	0.619291
	C174	C	0.824552	0.136732	0.389059
	C175	C	0.827784	0.899488	0.619380
	C176	C	0.386203	0.191590	0.884743
	C177	C	0.616857	0.190392	0.121837
	C178	C	0.386372	0.838350	0.122731
	C179	C	0.616864	0.837602	0.883648
	C180	C	0.386681	0.895013	0.180690
	C181	C	0.617310	0.132108	0.178434
	C182	C	0.386505	0.133838	0.827311
	C183	C	0.617159	0.895131	0.826932
	C184	C	0.881856	0.194327	0.389031
	C185	C	0.120385	0.193167	0.618818
	C186	C	0.122966	0.839140	0.389531
	C187	C	0.883982	0.841380	0.618954
	C188	C	0.179137	0.400567	0.883723
	C189	C	0.178506	0.630963	0.121516
	C190	C	0.824783	0.400516	0.123404
	C191	C	0.824972	0.629840	0.885431
	C192	C	0.402558	0.110777	0.603760
	C193	C	0.603052	0.920167	0.603731
	C194	C	0.601048	0.110114	0.403088
	C195	C	0.401840	0.920640	0.404379
	C196	C	0.601156	0.414345	0.098960
	C197	C	0.601127	0.614516	0.908082
	C198	C	0.402450	0.614598	0.097869
	C199	C	0.402679	0.415023	0.908076
	C200	C	0.096301	0.615766	0.403712
	C201	C	0.905811	0.617111	0.604075
	C202	C	0.097080	0.417059	0.602681
	C203	C	0.906774	0.418297	0.405019
	C204	C	0.900643	0.610537	0.103209
	C205	C	0.100651	0.421805	0.102721
	C206	C	0.102098	0.610559	0.902811
	C207	C	0.902270	0.420063	0.903355
	C208	C	0.102108	0.915980	0.599811
	C209	C	0.102105	0.116363	0.408800
	C210	C	0.901576	0.117241	0.599345
	C211	C	0.903641	0.917628	0.408236
	C212	C	0.597069	0.114635	0.903813
	C213	C	0.405824	0.114791	0.103698
	C214	C	0.596763	0.914684	0.102543
	C215	C	0.407129	0.915872	0.904855
	Zn216	Zn	0.502217	0.014567	0.753769
	Zn217	Zn	0.501498	0.014474	0.253079
	Zn218	Zn	0.751152	0.514456	0.003655
	Zn219	Zn	0.252401	0.515681	0.003057
	Zn220	Zn	0.001699	0.766830	0.503810
	Zn221	Zn	0.001959	0.267193	0.503848
	Zn222	Zn	0.001714	0.516144	0.753004
	Zn223	Zn	0.001206	0.516741	0.253456
	Zn224	Zn	0.501284	0.764873	0.002821
	Zn225	Zn	0.501548	0.264827	0.003651
	Zn226	Zn	0.752624	0.016536	0.503795
	Zn227	Zn	0.252049	0.016391	0.504150
	N228	N	0.416469	0.978374	0.681814
	N229	N	0.587953	0.052224	0.682264
	N230	N	0.587661	0.977763	0.325003
	N231	N	0.416319	0.052359	0.325057
	N232	N	0.679487	0.429175	0.966402
	N233	N	0.678588	0.599392	0.040879
	N234	N	0.325066	0.600327	0.965087
	N235	N	0.323535	0.429335	0.040119
	N236	N	0.964446	0.695786	0.417712
	N237	N	0.038492	0.695051	0.589524
	N238	N	0.965054	0.338363	0.589946
	N239	N	0.038463	0.337967	0.417096
	N240	N	0.964385	0.431351	0.681076
	N241	N	0.038676	0.601852	0.681390
	N242	N	0.963918	0.602952	0.325313
	N243	N	0.039062	0.431866	0.325702
	N244	N	0.415177	0.694057	0.966266
	N245	N	0.587604	0.693490	0.039933
	N246	N	0.587951	0.335934	0.966584
	N247	N	0.415316	0.336468	0.040520
	N248	N	0.681159	0.978858	0.417836
	N249	N	0.679571	0.053238	0.588687
	N250	N	0.323466	0.978982	0.589816
	N251	N	0.324190	0.052986	0.418406
	N252	N	0.914098	0.479495	0.183557
	N253	N	0.085962	0.554254	0.180074
	N254	N	0.088081	0.478662	0.824274
	N255	N	0.917020	0.553142	0.826302
	N256	N	0.179398	0.931767	0.466974
	N257	N	0.180264	0.102481	0.541248
	N258	N	0.823282	0.103099	0.467057
	N259	N	0.826190	0.932834	0.541307
	N260	N	0.464261	0.193374	0.918039
	N261	N	0.538441	0.192809	0.089258
	N262	N	0.464391	0.836638	0.088811
	N263	N	0.538897	0.836408	0.917361
	N264	N	0.464851	0.927843	0.182422
	N265	N	0.539060	0.099038	0.180453
	N266	N	0.464577	0.100284	0.825757
	N267	N	0.539352	0.929312	0.825904
	N268	N	0.915245	0.196107	0.467004
	N269	N	0.087803	0.195131	0.540534
	N270	N	0.089729	0.836761	0.467730
	N271	N	0.916696	0.839135	0.540567
	N272	N	0.180739	0.478332	0.917148
	N273	N	0.180412	0.552965	0.088701
	N274	N	0.823288	0.477948	0.088930
	N275	N	0.823193	0.551720	0.918086
	O276	O	0.563638	0.490749	0.477481
	H277	H	0.560249	0.495363	0.476255
	H278	H	0.565222	0.490287	0.474510
	O279	O	0.516348	0.537439	0.415892
	H280	H	0.513801	0.542066	0.415665
	H281	H	0.522278	0.532797	0.402371
	O282	O	0.488279	0.526094	0.454200
	H283	H	0.476206	0.530480	0.449983
	H284	H	0.484042	0.530628	0.442460
	O285	O	0.005110	1.003988	1.027789
	H286	H	0.005432	1.004185	1.040414
	H287	H	0.002858	1.015070	1.024852
	O288	O	0.581335	0.468477	0.487383
	H289	H	0.577520	0.472150	0.485074
	H290	H	0.585014	0.468499	0.491070
	O291	O	0.022687	0.044414	1.002370
	H292	H	0.028045	0.043991	0.995064
	H293	H	0.018016	0.047434	1.006576
	O294	O	0.466403	0.516173	0.549773
	H295	H	0.468483	0.510619	0.550681
	H296	H	0.459553	0.514956	0.547956
	O297	O	0.491904	0.536813	0.428734
	H298	H	0.497738	0.537539	0.433251
	H299	H	0.497283	0.548022	0.424542
	O300	O	0.377503	0.449696	0.547489
	H301	H	0.379072	0.449777	0.550214
	H302	H	0.385260	0.440390	0.553195
	O303	O	0.489571	0.515714	0.529192
	H304	H	0.478748	0.509381	0.532537
	H305	H	0.500233	0.511443	0.530603
	O306	O	1.022032	0.004590	1.015007
	H307	H	1.025273	0.002563	1.018879
	H308	H	1.023039	-0.000443	1.009351
	O309	O	-0.018664	-0.039433	0.045213
	H310	H	-0.021189	-0.032535	0.043239
	H311	H	-0.032207	-0.034957	0.049297
	O312	O	0.426942	0.578788	0.446486
	H313	H	0.430226	0.580505	0.461542
	H314	H	0.415500	0.569484	0.445884
	O315	O	1.024393	-0.024327	1.047895
	H316	H	1.020332	-0.028080	1.046398
	H317	H	1.032241	-0.027362	1.054271
	O318	O	0.045460	0.060955	-0.019687
	H319	H	0.048549	0.045888	-0.019458
	H320	H	0.052492	0.062187	-0.029191
	O321	O	0.529419	0.486506	0.498382
	H322	H	0.534500	0.480107	0.493143
	H323	H	0.539406	0.477255	0.498619
	O324	O	1.586322	-0.475970	-0.523108
	H325	H	1.584497	-0.469579	-0.521926
	H326	H	1.591627	-0.485751	-0.529957
	O327	O	0.412376	0.551315	0.496037
	H328	H	0.412528	0.549430	0.495647
	H329	H	0.420596	0.550486	0.500397
	O330	O	0.491974	0.514776	0.541266
	H331	H	0.492812	0.518475	0.538234
	H332	H	0.489068	0.512978	0.547209
	O333	O	0.264350	-0.262058	0.249052
	H334	H	0.261313	-0.266399	0.256128
	H335	H	0.269886	-0.256054	0.248908
