data_Molecule from HDF5

_cell_length_a		16.329490
_cell_length_b		16.117550
_cell_length_c		16.177589
_cell_angle_alpha	90.048213
_cell_angle_beta	89.681693
_cell_angle_gamma	89.958051
_symmetry_space_group_name_H-M	'P 1'
_symmetry_Int_Tables_number		1

loop_
	_symmetry_equiv_pos_as_xyz
	x,y,z

loop_
	_atom_site_label
	_atom_site_type_symbol
	_atom_site_fract_x
	_atom_site_fract_y
	_atom_site_fract_z
	H0	H	0.400833	0.838806	0.717979
	H1	H	0.598837	0.169004	0.714943
	H2	H	0.600070	0.837862	0.288708
	H3	H	0.403574	0.167911	0.289448
	H4	H	0.721055	0.401586	0.838707
	H5	H	0.719066	0.605054	0.165847
	H6	H	0.288716	0.606662	0.838536
	H7	H	0.285760	0.402439	0.165261
	H8	H	0.838466	0.718173	0.402826
	H9	H	0.165325	0.719331	0.597170
	H10	H	0.839003	0.290118	0.600245
	H11	H	0.164689	0.286632	0.397710
	H12	H	0.840965	0.403010	0.718395
	H13	H	0.165474	0.605956	0.716852
	H14	H	0.840307	0.604866	0.284568
	H15	H	0.165249	0.403967	0.284081
	H16	H	0.407560	0.717256	0.837618
	H17	H	0.600030	0.716556	0.167781
	H18	H	0.604480	0.289132	0.838231
	H19	H	0.404563	0.290896	0.167335
	H20	H	0.717428	0.838476	0.400917
	H21	H	0.719587	0.166383	0.605991
	H22	H	0.284887	0.839119	0.604176
	H23	H	0.287105	0.166768	0.402451
	H24	H	0.905817	0.338221	0.213806
	H25	H	0.100762	0.668723	0.213467
	H26	H	0.103590	0.338201	0.786792
	H27	H	0.907036	0.668528	0.788559
	H28	H	0.220060	0.901130	0.339123
	H29	H	0.215727	0.104917	0.664670
	H30	H	0.784991	0.103703	0.337810
	H31	H	0.786085	0.902838	0.665047
	H32	H	0.340888	0.220325	0.905875
	H33	H	0.667492	0.218347	0.101694
	H34	H	0.339816	0.789251	0.102107
	H35	H	0.667539	0.791649	0.904594
	H36	H	0.339728	0.903894	0.217788
	H37	H	0.666394	0.101267	0.217910
	H38	H	0.339899	0.106612	0.787954
	H39	H	0.664652	0.903320	0.783253
	H40	H	0.903411	0.217042	0.335687
	H41	H	0.097966	0.217280	0.665359
	H42	H	0.100032	0.792124	0.335687
	H43	H	0.902961	0.790786	0.665360
	H44	H	0.222045	0.340071	0.898521
	H45	H	0.217301	0.668678	0.101831
	H46	H	0.788352	0.339101	0.102079
	H47	H	0.788961	0.667698	0.900713
	H48	H	0.404424	0.122542	0.595353
	H49	H	0.591387	0.883638	0.602316
	H50	H	0.596010	0.121096	0.412508
	H51	H	0.410371	0.885265	0.411295
	H52	H	0.601877	0.416617	0.120232
	H53	H	0.604439	0.601450	0.881025
	H54	H	0.411300	0.594296	0.119719
	H55	H	0.415108	0.413680	0.885741
	H56	H	0.117594	0.597195	0.410185
	H57	H	0.886842	0.591615	0.601583
	H58	H	0.117570	0.415616	0.591682
	H59	H	0.885741	0.415846	0.402024
	H60	H	0.120819	0.409572	0.596230
	H61	H	0.883417	0.602824	0.595977
	H62	H	0.119051	0.594763	0.403538
	H63	H	0.883415	0.404142	0.406229
	H64	H	0.408676	0.597835	0.120583
	H65	H	0.600213	0.589199	0.886080
	H66	H	0.591517	0.413792	0.118211
	H67	H	0.412037	0.411078	0.884102
	H68	H	0.593366	0.120555	0.409190
	H69	H	0.586880	0.889855	0.587264
	H70	H	0.409498	0.121531	0.598309
	H71	H	0.407832	0.883928	0.410822
	H72	H	0.917634	0.623340	0.103187
	H73	H	0.097984	0.386127	0.087160
	H74	H	0.094198	0.621532	0.905139
	H75	H	0.910758	0.385023	0.909988
	H76	H	0.093104	0.909987	0.619258
	H77	H	0.103301	0.101367	0.379747
	H78	H	0.906463	0.092171	0.617038
	H79	H	0.901595	0.913758	0.381150
	H80	H	0.625561	0.110956	0.902596
	H81	H	0.384556	0.100112	0.102207
	H82	H	0.618243	0.909780	0.086850
	H83	H	0.386403	0.908743	0.911395
	H84	H	0.617871	0.917863	0.101022
	H85	H	0.388328	0.102290	0.090190
	H86	H	0.613818	0.093613	0.925470
	H87	H	0.386560	0.911902	0.911720
	H88	H	0.912100	0.097227	0.617813
	H89	H	0.097904	0.083425	0.385294
	H90	H	0.095153	0.911831	0.619324
	H91	H	0.912784	0.916222	0.385773
	H92	H	0.096298	0.618782	0.914162
	H93	H	0.100256	0.383271	0.095948
	H94	H	0.915930	0.616364	0.082449
	H95	H	0.911371	0.384386	0.908882
	H96	H	0.408578	0.120492	0.592151
	H97	H	0.603054	0.883771	0.589730
	H98	H	0.591764	0.119769	0.412638
	H99	H	0.409314	0.884628	0.409403
	H100	H	0.598579	0.407012	0.122387
	H101	H	0.591984	0.600396	0.886095
	H102	H	0.407051	0.594373	0.119965
	H103	H	0.411260	0.414149	0.885747
	H104	H	0.120156	0.601485	0.405238
	H105	H	0.889007	0.594142	0.589101
	H106	H	0.118969	0.407516	0.588770
	H107	H	0.888018	0.413524	0.413358
	H108	H	0.898652	0.624894	0.092708
	H109	H	0.091705	0.387087	0.092856
	H110	H	0.102868	0.623798	0.907864
	H111	H	0.911989	0.385367	0.910702
	H112	H	0.092473	0.912061	0.618373
	H113	H	0.085518	0.097711	0.384746
	H114	H	0.905818	0.099685	0.620321
	H115	H	0.910404	0.905279	0.382052
	H116	H	0.618092	0.081569	0.897236
	H117	H	0.389321	0.090280	0.095566
	H118	H	0.622957	0.903303	0.100967
	H119	H	0.386030	0.911062	0.908786
	C120	C	0.378678	0.012183	0.624686
	C121	C	0.622977	0.994365	0.623139
	C122	C	0.622948	0.011538	0.381872
	C123	C	0.380732	0.993751	0.381674
	C124	C	0.626222	0.382486	0.011320
	C125	C	0.626122	0.625645	0.993529
	C126	C	0.381647	0.625144	0.011248
	C127	C	0.382848	0.383383	0.993698
	C128	C	0.011084	0.626518	0.378168
	C129	C	0.994333	0.625769	0.623357
	C130	C	0.011430	0.382031	0.622237
	C131	C	0.993446	0.381799	0.378019
	C132	C	0.882233	0.512594	0.122327
	C133	C	0.124879	0.494681	0.121482
	C134	C	0.126473	0.512132	0.879453
	C135	C	0.883164	0.494499	0.880850
	C136	C	0.123201	0.882133	0.510441
	C137	C	0.123411	0.124574	0.491811
	C138	C	0.879526	0.125185	0.509697
	C139	C	0.879785	0.882076	0.491770
	C140	C	0.511576	0.125681	0.880729
	C141	C	0.495282	0.126189	0.125264
	C142	C	0.511867	0.881506	0.125011
	C143	C	0.494123	0.881785	0.880424
	C144	C	0.380636	0.888179	0.680368
	C145	C	0.619952	0.118945	0.678212
	C146	C	0.620475	0.887190	0.326433
	C147	C	0.383321	0.118341	0.326716
	C148	C	0.682099	0.383219	0.887674
	C149	C	0.681023	0.624231	0.117009
	C150	C	0.326724	0.625384	0.887625
	C151	C	0.325049	0.383568	0.116824
	C152	C	0.887826	0.681130	0.381571
	C153	C	0.116660	0.681593	0.619123
	C154	C	0.888244	0.327225	0.620550
	C155	C	0.116014	0.325117	0.378402
	C156	C	0.889248	0.383375	0.679565
	C157	C	0.116855	0.624962	0.678338
	C158	C	0.888859	0.624750	0.322533
	C159	C	0.116532	0.383756	0.322050
	C160	C	0.385969	0.680486	0.887270
	C161	C	0.621730	0.679595	0.118131
	C162	C	0.624339	0.326837	0.887566
	C163	C	0.384325	0.328225	0.117867
	C164	C	0.678775	0.887439	0.382184
	C165	C	0.679893	0.117781	0.623713
	C166	C	0.323015	0.888313	0.623661
	C167	C	0.325576	0.117957	0.383159
	C168	C	0.884699	0.388042	0.177383
	C169	C	0.121672	0.619243	0.176459
	C170	C	0.124358	0.387962	0.823815
	C171	C	0.886047	0.619120	0.825879
	C172	C	0.180513	0.882680	0.387418
	C173	C	0.177597	0.123943	0.615718
	C174	C	0.823530	0.123698	0.386543
	C175	C	0.824242	0.883180	0.616005
	C176	C	0.389175	0.182142	0.884707
	C177	C	0.618368	0.180866	0.122585
	C178	C	0.388914	0.826439	0.122392
	C179	C	0.617788	0.827832	0.882535
	C180	C	0.388560	0.883672	0.180130
	C181	C	0.617795	0.122727	0.180345
	C182	C	0.388651	0.125354	0.826084
	C183	C	0.616531	0.883961	0.823094
	C184	C	0.882497	0.179895	0.385452
	C185	C	0.119190	0.180165	0.615855
	C186	C	0.120971	0.828186	0.385889
	C187	C	0.882578	0.827690	0.616000
	C188	C	0.183029	0.388860	0.879817
	C189	C	0.179861	0.619155	0.120888
	C190	C	0.826372	0.388495	0.121584
	C191	C	0.827278	0.618410	0.881554
	C192	C	0.400837	0.098887	0.601906
	C193	C	0.600367	0.908091	0.599924
	C194	C	0.600413	0.098067	0.404664
	C195	C	0.402670	0.906949	0.404096
	C196	C	0.603791	0.405433	0.097944
	C197	C	0.605033	0.603572	0.906831
	C198	C	0.402924	0.602305	0.097782
	C199	C	0.406059	0.406262	0.907719
	C200	C	0.096695	0.604336	0.399732
	C201	C	0.908707	0.602733	0.602115
	C202	C	0.096932	0.404301	0.599046
	C203	C	0.908096	0.404526	0.400601
	C204	C	0.904435	0.599238	0.099702
	C205	C	0.103104	0.407994	0.098767
	C206	C	0.104166	0.598952	0.902306
	C207	C	0.904886	0.407519	0.903206
	C208	C	0.100262	0.904599	0.596795
	C209	C	0.101972	0.101204	0.405561
	C210	C	0.901629	0.102913	0.596088
	C211	C	0.901813	0.904969	0.405207
	C212	C	0.596968	0.102207	0.902054
	C213	C	0.409559	0.104071	0.102775
	C214	C	0.597595	0.903790	0.102767
	C215	C	0.408525	0.903981	0.903666
	Zn216	Zn	0.501295	0.003400	0.751412
	Zn217	Zn	0.502152	0.002884	0.253969
	Zn218	Zn	0.753902	0.503585	0.001875
	Zn219	Zn	0.253859	0.504236	0.001933
	Zn220	Zn	0.001538	0.754996	0.500639
	Zn221	Zn	0.002035	0.253207	0.500154
	Zn222	Zn	0.003951	0.502911	0.752143
	Zn223	Zn	0.003454	0.503556	0.249462
	Zn224	Zn	0.503689	0.752760	0.003153
	Zn225	Zn	0.504678	0.255229	0.002733
	Zn226	Zn	0.751702	0.002925	0.501669
	Zn227	Zn	0.251455	0.003047	0.502037
	N228	N	0.414521	0.966269	0.681142
	N229	N	0.585090	0.041203	0.677937
	N230	N	0.586562	0.965272	0.326086
	N231	N	0.416976	0.040183	0.325715
	N232	N	0.683571	0.416971	0.965852
	N233	N	0.683999	0.591440	0.038401
	N234	N	0.324041	0.591652	0.965676
	N235	N	0.324038	0.417339	0.038624
	N236	N	0.964913	0.682271	0.415490
	N237	N	0.039464	0.682235	0.585738
	N238	N	0.965152	0.326342	0.585346
	N239	N	0.038599	0.323562	0.412482
	N240	N	0.966784	0.416896	0.680548
	N241	N	0.039685	0.590887	0.681055
	N242	N	0.966382	0.591434	0.320184
	N243	N	0.039569	0.418382	0.321711
	N244	N	0.419368	0.680496	0.965210
	N245	N	0.588350	0.680642	0.040315
	N246	N	0.590188	0.326498	0.965479
	N247	N	0.419581	0.327869	0.040481
	N248	N	0.680421	0.965729	0.416049
	N249	N	0.681869	0.039447	0.590028
	N250	N	0.321479	0.966639	0.589775
	N251	N	0.323568	0.039485	0.416372
	N252	N	0.918569	0.466043	0.177968
	N253	N	0.088327	0.540845	0.177409
	N254	N	0.090121	0.465936	0.823222
	N255	N	0.919943	0.540953	0.825216
	N256	N	0.182150	0.915517	0.466036
	N257	N	0.180326	0.090153	0.537655
	N258	N	0.821259	0.090700	0.464939
	N259	N	0.822271	0.916080	0.537689
	N260	N	0.466455	0.182361	0.918045
	N261	N	0.541081	0.183099	0.089147
	N262	N	0.466510	0.825023	0.088745
	N263	N	0.540796	0.826171	0.917537
	N264	N	0.465921	0.917143	0.181892
	N265	N	0.540079	0.089634	0.182184
	N266	N	0.465922	0.091048	0.823216
	N267	N	0.538592	0.916619	0.821689
	N268	N	0.916414	0.181077	0.463142
	N269	N	0.086022	0.180425	0.537911
	N270	N	0.085992	0.827615	0.463403
	N271	N	0.916324	0.826740	0.537663
	N272	N	0.184791	0.467338	0.913321
	N273	N	0.181812	0.540728	0.087270
	N274	N	0.824816	0.466857	0.087883
	N275	N	0.825238	0.539860	0.914779
	O276	O	0.022851	0.070582	0.019984
	H277	H	0.018716	0.074029	0.017627
	H278	H	0.023423	0.070236	0.005513
	O279	O	0.372488	0.422092	0.581350
	H280	H	0.365964	0.425502	0.575957
	H281	H	0.370297	0.420621	0.597718
	O282	O	0.579593	0.490850	0.460569
	H283	H	0.582738	0.496096	0.451851
	H284	H	0.561439	0.480944	0.465637
	O285	O	0.000696	1.037912	0.961851
	H286	H	0.004449	1.036647	0.962414
	H287	H	0.002503	1.032931	0.965548
	O288	O	1.060178	0.011780	-0.019336
	H289	H	1.060880	0.008365	-0.021069
	H290	H	1.064839	0.009516	-0.016908
	O291	O	0.949152	0.966212	1.014668
	H292	H	0.948298	0.968279	1.024867
	H293	H	0.944743	0.974688	1.016232
	O294	O	0.536085	1.490289	0.564208
	H295	H	0.541855	1.489572	0.556197
	H296	H	0.536677	1.486457	0.549553
	O297	O	0.959558	-0.041985	1.000407
	H298	H	0.956081	-0.051734	0.999772
	H299	H	0.959138	-0.047487	1.000949
	O300	O	0.541549	0.486363	0.527012
	H301	H	0.551389	0.484075	0.529597
	H302	H	0.535603	0.483183	0.532219
	O303	O	1.033844	-0.006357	0.020144
	H304	H	1.034971	-0.000703	0.019761
	H305	H	1.031354	0.002087	0.035033
	O306	O	-0.015009	1.031919	1.025015
	H307	H	-0.010143	1.030143	1.023860
	H308	H	-0.012079	1.034703	1.020505
	O309	O	0.546208	0.471919	0.373851
	H310	H	0.541102	0.472653	0.377845
	H311	H	0.533679	0.463014	0.374204
	O312	O	1.627505	0.508093	0.562522
	H313	H	1.630788	0.514236	0.560946
	H314	H	1.633291	0.507170	0.564504
	O315	O	0.428700	0.518211	0.494180
	H316	H	0.427341	0.519367	0.500972
	H317	H	0.423587	0.513807	0.504181
	O318	O	0.406270	0.514992	0.471187
	H319	H	0.402211	0.523543	0.470698
	H320	H	0.405210	0.514876	0.490086
	O321	O	1.018302	0.915639	1.014940
	H322	H	1.021903	0.919171	1.014244
	H323	H	1.014627	0.908935	1.021374
	O324	O	0.600622	0.599893	0.539970
	H325	H	0.597815	0.590271	0.532869
	H326	H	0.609180	0.603802	0.545933
	O327	O	0.334297	0.560081	0.435491
	H328	H	0.323322	0.572919	0.437557
	H329	H	0.336102	0.551438	0.425588
	O330	O	1.007392	0.028110	0.997785
	H331	H	1.010329	0.023483	0.994722
	H332	H	1.006783	0.027561	0.995048
	O333	O	0.940068	1.057695	0.022855
	H334	H	0.941361	1.043450	0.019058
	H335	H	0.935867	1.066106	0.027450
	O336	O	0.359004	0.342455	0.607880
	H337	H	0.381591	0.343252	0.617241
	H338	H	0.353362	0.359592	0.610371
	O339	O	0.486407	0.543851	0.568940
	H340	H	0.486153	0.538733	0.567833
	H341	H	0.499257	0.553502	0.568619
	O342	O	0.069798	0.921279	-0.040703
	H343	H	0.081356	0.913350	-0.041396
	H344	H	0.079188	0.918741	-0.053252
	O345	O	0.008895	-0.062928	-0.076458
	H346	H	-0.000059	-0.063930	-0.069847
	H347	H	0.012054	-0.069058	-0.073818
	O348	O	-0.482316	0.644922	0.520519
	H349	H	-0.472720	0.639899	0.512954
	H350	H	-0.474997	0.652338	0.521057
	O351	O	0.432715	0.519957	0.610695
	H352	H	0.439859	0.525415	0.609109
	H353	H	0.420069	0.521470	0.619716
	O354	O	0.482632	0.486194	0.488196
	H355	H	0.477584	0.490939	0.487611
	H356	H	0.483019	0.494860	0.475575
	O357	O	0.463315	0.358306	0.555146
	H358	H	0.473770	0.356898	0.568927
	H359	H	0.458785	0.347223	0.565153
	O360	O	0.017407	-0.029953	-0.053226
	H361	H	0.016953	-0.024996	-0.057765
	H362	H	0.024963	-0.038135	-0.064805
	O363	O	0.564135	0.497488	0.477908
	H364	H	0.569222	0.496940	0.472813
	H365	H	0.572706	0.490425	0.462782
	O366	O	-0.413767	-0.513541	1.424901
	H367	H	-0.408946	-0.527683	1.425880
	H368	H	-0.418006	-0.512420	1.418499
	O369	O	0.610597	0.439591	0.454817
	H370	H	0.611387	0.441858	0.448447
	H371	H	0.604249	0.430490	0.453224
