data_Molecule from HDF5

_cell_length_a		16.484436
_cell_length_b		16.218633
_cell_length_c		16.410884
_cell_angle_alpha	90.283697
_cell_angle_beta	89.849918
_cell_angle_gamma	89.971296
_symmetry_space_group_name_H-M	'P 1'
_symmetry_Int_Tables_number		1

loop_
	_symmetry_equiv_pos_as_xyz
	x,y,z

loop_
	_atom_site_label
	_atom_site_type_symbol
	_atom_site_fract_x
	_atom_site_fract_y
	_atom_site_fract_z
	H0	H	0.394250	0.838881	0.715183
	H1	H	0.605417	0.158250	0.718170
	H2	H	0.606689	0.838618	0.274003
	H3	H	0.396337	0.159059	0.276614
	H4	H	0.724674	0.388930	0.839934
	H5	H	0.723953	0.610847	0.153855
	H6	H	0.278391	0.600681	0.838983
	H7	H	0.276548	0.390850	0.155474
	H8	H	0.840649	0.719491	0.394804
	H9	H	0.160515	0.714378	0.597436
	H10	H	0.839974	0.277597	0.601412
	H11	H	0.158754	0.279656	0.395115
	H12	H	0.841102	0.392186	0.720254
	H13	H	0.158546	0.599742	0.715698
	H14	H	0.840751	0.605596	0.275961
	H15	H	0.156246	0.390617	0.274883
	H16	H	0.398227	0.713011	0.835792
	H17	H	0.603159	0.721402	0.155399
	H18	H	0.603851	0.277532	0.837996
	H19	H	0.396456	0.279458	0.157431
	H20	H	0.722147	0.838789	0.387556
	H21	H	0.721239	0.157948	0.603588
	H22	H	0.278444	0.840312	0.599902
	H23	H	0.281380	0.160861	0.391338
	H24	H	0.894352	0.337793	0.217140
	H25	H	0.101459	0.659187	0.216863
	H26	H	0.103700	0.337708	0.776059
	H27	H	0.896351	0.660009	0.781190
	H28	H	0.220329	0.894468	0.337753
	H29	H	0.220279	0.105983	0.655044
	H30	H	0.776894	0.105682	0.339123
	H31	H	0.774291	0.888776	0.653040
	H32	H	0.339802	0.215526	0.896415
	H33	H	0.658996	0.220001	0.100707
	H34	H	0.338929	0.783360	0.094632
	H35	H	0.658360	0.776472	0.891295
	H36	H	0.341691	0.894362	0.216934
	H37	H	0.658005	0.104876	0.218542
	H38	H	0.340364	0.099158	0.779827
	H39	H	0.656896	0.889758	0.771890
	H40	H	0.898354	0.215467	0.336839
	H41	H	0.100077	0.216531	0.657424
	H42	H	0.102019	0.779406	0.336804
	H43	H	0.899509	0.783585	0.658763
	H44	H	0.218603	0.337439	0.892289
	H45	H	0.217011	0.659232	0.100830
	H46	H	0.775035	0.340102	0.105915
	H47	H	0.779687	0.659118	0.894668
	H48	H	0.410988	0.114578	0.585135
	H49	H	0.582148	0.885505	0.582706
	H50	H	0.584968	0.109824	0.413238
	H51	H	0.408948	0.883960	0.406624
	H52	H	0.592809	0.410148	0.112300
	H53	H	0.593431	0.582052	0.883508
	H54	H	0.407762	0.594586	0.113318
	H55	H	0.410232	0.411452	0.885220
	H56	H	0.113404	0.590721	0.408814
	H57	H	0.886485	0.586108	0.589616
	H58	H	0.112242	0.406933	0.585347
	H59	H	0.883851	0.401408	0.406724
	H60	H	0.110638	0.412365	0.587570
	H61	H	0.883082	0.591621	0.594825
	H62	H	0.110012	0.583843	0.409404
	H63	H	0.888506	0.411657	0.413221
	H64	H	0.401403	0.585670	0.111934
	H65	H	0.586379	0.582613	0.885956
	H66	H	0.587997	0.417718	0.107591
	H67	H	0.409445	0.405226	0.883487
	H68	H	0.593866	0.114142	0.410306
	H69	H	0.590388	0.885655	0.577996
	H70	H	0.407726	0.116463	0.587106
	H71	H	0.411927	0.883108	0.407441
	H72	H	0.912092	0.610754	0.083874
	H73	H	0.088974	0.382385	0.084481
	H74	H	0.093185	0.612991	0.911357
	H75	H	0.911889	0.385722	0.913280
	H76	H	0.084635	0.909085	0.609536
	H77	H	0.091631	0.090451	0.381383
	H78	H	0.909636	0.087205	0.610743
	H79	H	0.913658	0.910973	0.384739
	H80	H	0.614802	0.089326	0.904982
	H81	H	0.387419	0.085974	0.087893
	H82	H	0.614154	0.907395	0.084899
	H83	H	0.385194	0.903488	0.905596
	H84	H	0.611743	0.910872	0.082470
	H85	H	0.386920	0.088516	0.088602
	H86	H	0.612546	0.086988	0.910574
	H87	H	0.387056	0.909400	0.905275
	H88	H	0.908893	0.085454	0.610211
	H89	H	0.093566	0.087192	0.381382
	H90	H	0.095209	0.905148	0.614327
	H91	H	0.910924	0.907084	0.382689
	H92	H	0.091059	0.616078	0.904155
	H93	H	0.090389	0.381906	0.086947
	H94	H	0.908553	0.614160	0.086575
	H95	H	0.909251	0.381998	0.908223
	H96	H	0.410629	0.114534	0.589897
	H97	H	0.589426	0.882455	0.586759
	H98	H	0.586166	0.113279	0.404030
	H99	H	0.410039	0.884833	0.409266
	H100	H	0.583463	0.408772	0.109499
	H101	H	0.590217	0.588163	0.883096
	H102	H	0.412358	0.585324	0.108825
	H103	H	0.404968	0.409634	0.882624
	H104	H	0.113118	0.585726	0.402774
	H105	H	0.884528	0.593705	0.587497
	H106	H	0.113129	0.408322	0.591079
	H107	H	0.884780	0.412826	0.401528
	H108	H	0.912883	0.613134	0.088472
	H109	H	0.087987	0.382457	0.087365
	H110	H	0.086121	0.611914	0.908413
	H111	H	0.915334	0.384690	0.907511
	H112	H	0.094050	0.916255	0.608961
	H113	H	0.090664	0.087742	0.382305
	H114	H	0.910656	0.085535	0.609787
	H115	H	0.909012	0.911551	0.383878
	H116	H	0.613281	0.083580	0.905432
	H117	H	0.387408	0.087676	0.085881
	H118	H	0.613163	0.911747	0.086677
	H119	H	0.384469	0.906236	0.900873
	C120	C	0.378025	0.008705	0.617820
	C121	C	0.620415	0.989646	0.616520
	C122	C	0.621458	0.007213	0.375212
	C123	C	0.379049	0.990620	0.375717
	C124	C	0.621357	0.377463	0.005770
	C125	C	0.621141	0.619224	0.988400
	C126	C	0.376919	0.618901	0.005526
	C127	C	0.377006	0.376410	0.988997
	C128	C	0.007079	0.618977	0.376358
	C129	C	0.990596	0.620613	0.620144
	C130	C	0.007236	0.377193	0.619276
	C131	C	0.990464	0.376364	0.375490
	C132	C	0.878010	0.507150	0.118863
	C133	C	0.119855	0.488999	0.118249
	C134	C	0.120971	0.507131	0.875891
	C135	C	0.879140	0.490007	0.877813
	C136	C	0.122280	0.877813	0.505494
	C137	C	0.121798	0.120668	0.487663
	C138	C	0.878212	0.118769	0.505414
	C139	C	0.878692	0.877826	0.488495
	C140	C	0.508514	0.118332	0.876139
	C141	C	0.491774	0.120392	0.119330
	C142	C	0.508502	0.877540	0.116750
	C143	C	0.490529	0.874297	0.871978
	C144	C	0.376277	0.887288	0.675679
	C145	C	0.623625	0.110071	0.678017
	C146	C	0.624847	0.886852	0.313869
	C147	C	0.377675	0.111093	0.315882
	C148	C	0.683286	0.372661	0.887127
	C149	C	0.682303	0.626086	0.107022
	C150	C	0.318253	0.619621	0.885956
	C151	C	0.317458	0.373856	0.108363
	C152	C	0.887907	0.679524	0.375523
	C153	C	0.111643	0.677019	0.618377
	C154	C	0.887922	0.317046	0.620600
	C155	C	0.110344	0.317751	0.374984
	C156	C	0.888334	0.374181	0.679729
	C157	C	0.110843	0.619935	0.677062
	C158	C	0.887994	0.622370	0.316698
	C159	C	0.109141	0.373232	0.315259
	C160	C	0.378192	0.675173	0.884525
	C161	C	0.622369	0.681556	0.107616
	C162	C	0.622922	0.317175	0.885977
	C163	C	0.377089	0.318101	0.109283
	C164	C	0.682153	0.886939	0.370702
	C165	C	0.681123	0.109923	0.620775
	C166	C	0.318444	0.888022	0.618542
	C167	C	0.320161	0.111785	0.373113
	C168	C	0.875467	0.386169	0.178227
	C169	C	0.120630	0.610730	0.177322
	C170	C	0.122214	0.385861	0.816008
	C171	C	0.877413	0.611254	0.819204
	C172	C	0.180651	0.875904	0.385152
	C173	C	0.180369	0.123449	0.607752
	C174	C	0.817937	0.122419	0.386331
	C175	C	0.816770	0.873274	0.606760
	C176	C	0.388044	0.176655	0.876633
	C177	C	0.611020	0.180670	0.120309
	C178	C	0.387519	0.820775	0.115580
	C179	C	0.610486	0.815516	0.871523
	C180	C	0.389042	0.875862	0.176424
	C181	C	0.610625	0.123175	0.179051
	C182	C	0.388253	0.119023	0.818394
	C183	C	0.609810	0.872135	0.812292
	C184	C	0.878388	0.177074	0.385088
	C185	C	0.120419	0.178410	0.608747
	C186	C	0.122001	0.818610	0.384894
	C187	C	0.878867	0.820405	0.609504
	C188	C	0.179397	0.385499	0.873666
	C189	C	0.178435	0.610596	0.119827
	C190	C	0.816329	0.387349	0.122830
	C191	C	0.819534	0.610839	0.875995
	C192	C	0.402680	0.093189	0.594168
	C193	C	0.594691	0.906334	0.590046
	C194	C	0.595724	0.090746	0.401597
	C195	C	0.403394	0.905996	0.400631
	C196	C	0.595665	0.404409	0.088593
	C197	C	0.596726	0.592097	0.905777
	C198	C	0.400485	0.595274	0.089508
	C199	C	0.401254	0.401379	0.905484
	C200	C	0.090285	0.593938	0.400220
	C201	C	0.906598	0.597352	0.597215
	C202	C	0.090295	0.402043	0.595000
	C203	C	0.907466	0.401405	0.400172
	C204	C	0.903827	0.590848	0.093717
	C205	C	0.095928	0.404307	0.093565
	C206	C	0.096965	0.591721	0.900919
	C207	C	0.904590	0.405868	0.902792
	C208	C	0.098410	0.902945	0.589247
	C209	C	0.098828	0.095541	0.403550
	C210	C	0.902632	0.093318	0.588667
	C211	C	0.903879	0.902657	0.405298
	C212	C	0.591806	0.093807	0.899891
	C213	C	0.408880	0.094722	0.094576
	C214	C	0.591330	0.902432	0.092039
	C215	C	0.407346	0.899091	0.896636
	Zn216	Zn	0.500152	-0.001605	0.745746
	Zn217	Zn	0.500246	-0.001990	0.247881
	Zn218	Zn	0.750865	0.498785	-0.002051
	Zn219	Zn	0.248152	0.497277	-0.002684
	Zn220	Zn	-0.000478	0.749025	0.497247
	Zn221	Zn	-0.001005	0.247813	0.497271
	Zn222	Zn	-0.001117	0.498477	0.749118
	Zn223	Zn	-0.001377	0.497832	0.246607
	Zn224	Zn	0.499302	0.747428	-0.004295
	Zn225	Zn	0.499517	0.248556	-0.003237
	Zn226	Zn	0.749504	-0.001948	0.496258
	Zn227	Zn	0.250435	0.000540	0.495845
	N228	N	0.412779	0.963254	0.675394
	N229	N	0.586545	0.034272	0.675649
	N230	N	0.587805	0.962677	0.316250
	N231	N	0.413475	0.034497	0.317307
	N232	N	0.682442	0.409588	0.962875
	N233	N	0.681579	0.587802	0.032196
	N234	N	0.317306	0.585422	0.962430
	N235	N	0.317327	0.409431	0.032612
	N236	N	0.962880	0.677601	0.411905
	N237	N	0.035814	0.677625	0.583728
	N238	N	0.962706	0.318991	0.583512
	N239	N	0.035486	0.319255	0.411677
	N240	N	0.963457	0.410721	0.679132
	N241	N	0.034462	0.585966	0.678614
	N242	N	0.963276	0.585644	0.316880
	N243	N	0.033510	0.408844	0.315328
	N244	N	0.413808	0.675096	0.959988
	N245	N	0.584827	0.677275	0.033070
	N246	N	0.585264	0.320200	0.960552
	N247	N	0.413621	0.319700	0.033983
	N248	N	0.680231	0.962822	0.408195
	N249	N	0.679464	0.033993	0.583359
	N250	N	0.319324	0.964716	0.583372
	N251	N	0.320881	0.035755	0.409629
	N252	N	0.913190	0.461641	0.175988
	N253	N	0.085273	0.534079	0.176754
	N254	N	0.086274	0.462343	0.817576
	N255	N	0.913912	0.534929	0.820247
	N256	N	0.181083	0.911656	0.461164
	N257	N	0.181287	0.088254	0.531377
	N258	N	0.817610	0.086966	0.462176
	N259	N	0.816460	0.908088	0.530526
	N260	N	0.463831	0.176556	0.911413
	N261	N	0.535914	0.179146	0.084121
	N262	N	0.462782	0.821644	0.079325
	N263	N	0.535204	0.816459	0.907606
	N264	N	0.465395	0.910067	0.177630
	N265	N	0.535420	0.086786	0.178720
	N266	N	0.464172	0.083665	0.817820
	N267	N	0.534122	0.907695	0.812303
	N268	N	0.915301	0.174838	0.460119
	N269	N	0.084799	0.176922	0.533117
	N270	N	0.086551	0.819412	0.460761
	N271	N	0.916790	0.823054	0.534886
	N272	N	0.178679	0.461776	0.910204
	N273	N	0.178089	0.533831	0.083943
	N274	N	0.817925	0.463469	0.086572
	N275	N	0.820584	0.534335	0.911628
	O276	O	0.603132	0.571895	0.402508
	H277	H	0.626921	0.581481	0.382205
	H278	H	0.576325	0.582890	0.402124
	O279	O	0.299877	0.298639	0.521282
	H280	H	0.298079	0.289127	0.523098
	H281	H	0.311971	0.283168	0.513009
	O282	O	0.501167	0.290029	0.511214
	H283	H	0.499893	0.291532	0.516539
	H284	H	0.503208	0.289367	0.506190
	O285	O	1.139135	1.054265	0.171629
	H286	H	1.143746	1.052005	0.179984
	H287	H	1.141384	1.049587	0.167103
	O288	O	0.416389	0.461821	0.322765
	H289	H	0.422248	0.461348	0.321839
	H290	H	0.429124	0.460389	0.322450
	O291	O	0.524625	0.703268	0.557024
	H292	H	0.519115	0.714988	0.542210
	H293	H	0.532630	0.689388	0.540896
	O294	O	0.881677	1.067485	1.149384
	H295	H	0.869954	1.065642	1.136207
	H296	H	0.880590	1.061200	1.153336
	O297	O	0.309609	0.323075	0.688231
	H298	H	0.301062	0.319563	0.684728
	H299	H	0.305218	0.341095	0.680402
	O300	O	0.326433	0.473095	0.691147
	H301	H	0.315390	0.469186	0.682306
	H302	H	0.357412	0.475858	0.688501
	O303	O	0.530361	0.682542	0.363827
	H304	H	0.519033	0.688600	0.354583
	H305	H	0.511333	0.684105	0.373825
	O306	O	0.012637	-0.114915	0.825381
	H307	H	0.004023	-0.108956	0.835800
	H308	H	0.028670	-0.119217	0.809437
	O309	O	0.836921	-0.041991	-0.169894
	H310	H	0.822923	-0.037838	-0.192270
	H311	H	0.842277	-0.011475	-0.171692
	O312	O	0.713168	0.487252	0.474676
	H313	H	0.696894	0.503413	0.477064
	H314	H	0.724223	0.488231	0.473387
	O315	O	0.496960	0.298151	0.700095
	H316	H	0.479257	0.294835	0.705789
	H317	H	0.481782	0.286261	0.712466
	O318	O	-0.140652	0.044594	0.079616
	H319	H	-0.156580	0.072935	0.074214
	H320	H	-0.134377	0.043004	0.092412
	O321	O	0.609966	0.565098	0.338090
	H322	H	0.603520	0.580253	0.344754
	H323	H	0.595457	0.567264	0.333087
	O324	O	0.881714	-0.169703	1.083569
	H325	H	0.876136	-0.173879	1.070501
	H326	H	0.867613	-0.156037	1.064087
	O327	O	0.599715	0.696315	0.695938
	H328	H	0.595120	0.699306	0.700199
	H329	H	0.602011	0.686679	0.711014
	O330	O	-0.087120	1.165510	0.893551
	H331	H	-0.069346	1.167604	0.896555
	H332	H	-0.070638	1.172976	0.907069
	O333	O	-0.064998	0.839447	0.029941
	H334	H	-0.061661	0.839410	0.014704
	H335	H	-0.083545	0.845825	0.020876
	O336	O	1.153264	1.156668	0.155609
	H337	H	1.150772	1.126115	0.155355
	H338	H	1.120335	1.157169	0.172103
	O339	O	0.091439	1.116529	0.901650
	H340	H	0.097854	1.108600	0.907274
	H341	H	0.094222	1.106718	0.904836
	O342	O	0.521201	0.588363	0.461279
	H343	H	0.527402	0.586658	0.454922
	H344	H	0.533651	0.588336	0.451245
	O345	O	-0.004744	0.133496	0.895964
	H346	H	0.005895	0.146714	0.912618
	H347	H	0.017682	0.122115	0.907004
	O348	O	0.579497	0.384798	0.603138
	H349	H	0.579841	0.364664	0.612516
	H350	H	0.562074	0.382278	0.609192
	O351	O	0.406198	0.710076	0.283525
	H352	H	0.371962	0.683256	0.285782
	H353	H	0.395192	0.738656	0.255432
	O354	O	1.192163	0.914249	0.886623
	H355	H	1.205772	0.891941	0.861971
	H356	H	1.183185	0.932671	0.881701
	O357	O	-0.128887	0.016743	0.010840
	H358	H	-0.115129	0.011180	-0.013924
	H359	H	-0.128135	0.027407	0.003540
	O360	O	0.683199	0.619615	0.611998
	H361	H	0.668887	0.607536	0.634759
	H362	H	0.695697	0.633461	0.621756
	O363	O	0.906652	-0.017360	0.000629
	H364	H	0.907899	-0.002757	-0.011661
	H365	H	0.920743	-0.014132	-0.003829
	O366	O	0.186573	-0.102541	0.987202
	H367	H	0.175042	-0.107238	0.974017
	H368	H	0.176956	-0.112202	0.979162
	O369	O	0.946549	-0.035036	0.782415
	H370	H	0.947617	-0.019267	0.775397
	H371	H	0.939366	-0.022602	0.778943
	O372	O	0.443342	0.527321	0.669126
	H373	H	0.454836	0.537797	0.671676
	H374	H	0.442799	0.500654	0.660221
	O375	O	0.045934	-0.041673	0.913089
	H376	H	0.046835	-0.024406	0.916990
	H377	H	0.036353	-0.048848	0.910189
	O378	O	0.662491	0.341947	0.511928
	H379	H	0.650138	0.342378	0.513775
	H380	H	0.680594	0.340105	0.517599
	O381	O	-0.015424	0.963563	0.191820
	H382	H	-0.024358	0.938367	0.202037
	H383	H	-0.041488	0.962082	0.175814
	O384	O	0.603482	0.550538	0.500362
	H385	H	0.596939	0.550810	0.503485
	H386	H	0.596482	0.549674	0.489999
	O387	O	0.402777	0.518375	0.559473
	H388	H	0.401065	0.524616	0.554664
	H389	H	0.404402	0.527988	0.560953
	O390	O	1.045554	0.933289	-0.096099
	H391	H	1.049532	0.922428	-0.100282
	H392	H	1.047796	0.926466	-0.098414
	O393	O	0.925934	0.161242	1.079479
	H394	H	0.945812	0.151735	1.075722
	H395	H	0.926865	0.152277	1.094269
	O396	O	0.297156	0.615388	0.296863
	H397	H	0.282745	0.579540	0.282913
	H398	H	0.286670	0.608241	0.312810
	O399	O	0.528775	0.288589	0.281919
	H400	H	0.542947	0.256412	0.251094
	H401	H	0.571198	0.297560	0.290322
	O402	O	0.965546	0.999146	0.073740
	H403	H	0.960157	0.987345	0.071345
	H404	H	0.963409	0.994840	0.060574
	O405	O	0.302742	0.520060	0.398568
	H406	H	0.311502	0.498015	0.383995
	H407	H	0.300873	0.516039	0.390348
	O408	O	0.612374	0.502633	0.683398
	H409	H	0.609008	0.485739	0.688234
	H410	H	0.610777	0.497018	0.664643
	O411	O	0.884136	1.111426	0.814036
	H412	H	0.894730	1.109312	0.822725
	H413	H	0.892403	1.113346	0.825467
	O414	O	0.688915	0.317479	0.313065
	H415	H	0.695556	0.336891	0.336375
	H416	H	0.700671	0.340662	0.324451
	O417	O	0.005900	0.805280	1.028328
	H418	H	0.002826	0.796634	1.019441
	H419	H	-0.008937	0.812399	1.019247
	O420	O	0.048121	1.127130	1.112319
	H421	H	0.047547	1.139094	1.132409
	H422	H	0.033078	1.100963	1.113539
	O423	O	0.191318	1.195509	0.059377
	H424	H	0.202367	1.185340	0.079124
	H425	H	0.200830	1.201275	0.079868
	O426	O	0.443081	0.371265	0.373430
	H427	H	0.456910	0.358729	0.356778
	H428	H	0.455975	0.376476	0.362292
	O429	O	0.314437	0.681738	0.570960
	H430	H	0.301757	0.661530	0.565415
	H431	H	0.332852	0.683361	0.559843
	O432	O	0.483749	0.694568	0.627642
	H433	H	0.470441	0.700727	0.618328
	H434	H	0.486150	0.710106	0.640351
	O435	O	0.112822	-0.163675	0.005714
	H436	H	0.111929	-0.175036	-0.006922
	H437	H	0.103032	-0.168283	-0.009860
	O438	O	0.027423	0.847317	1.037627
	H439	H	0.034581	0.835475	1.033542
	H440	H	0.012898	0.843207	1.036762
	O441	O	0.503609	0.472961	0.438057
	H442	H	0.508130	0.466395	0.411946
	H443	H	0.516803	0.477188	0.437197
