data_Molecule from HDF5

_cell_length_a		16.205192
_cell_length_b		16.131601
_cell_length_c		16.273473
_cell_angle_alpha	89.932182
_cell_angle_beta	89.647875
_cell_angle_gamma	89.701814
_symmetry_space_group_name_H-M	'P 1'
_symmetry_Int_Tables_number		1

loop_
	_symmetry_equiv_pos_as_xyz
	x,y,z

loop_
	_atom_site_label
	_atom_site_type_symbol
	_atom_site_fract_x
	_atom_site_fract_y
	_atom_site_fract_z
	H0	H	0.409247	0.831643	0.708899
	H1	H	0.605152	0.161199	0.707456
	H2	H	0.609122	0.831694	0.278909
	H3	H	0.407678	0.160122	0.279453
	H4	H	0.724441	0.396237	0.830259
	H5	H	0.719793	0.594090	0.157823
	H6	H	0.293015	0.596695	0.829793
	H7	H	0.292836	0.397182	0.156296
	H8	H	0.843927	0.712687	0.395455
	H9	H	0.172342	0.708516	0.589491
	H10	H	0.841998	0.283766	0.591766
	H11	H	0.171776	0.282694	0.394926
	H12	H	0.842708	0.396670	0.710595
	H13	H	0.171688	0.594644	0.706769
	H14	H	0.843284	0.597327	0.280680
	H15	H	0.170689	0.394680	0.276857
	H16	H	0.411314	0.710848	0.829914
	H17	H	0.603783	0.707814	0.158356
	H18	H	0.606225	0.282289	0.828714
	H19	H	0.411019	0.284297	0.157106
	H20	H	0.723387	0.832061	0.394137
	H21	H	0.717289	0.163078	0.589307
	H22	H	0.294415	0.831540	0.594306
	H23	H	0.294881	0.161524	0.396145
	H24	H	0.908170	0.331905	0.209335
	H25	H	0.105528	0.660577	0.207145
	H26	H	0.108514	0.331953	0.778181
	H27	H	0.906390	0.661177	0.779928
	H28	H	0.225373	0.896398	0.330711
	H29	H	0.218632	0.094085	0.658145
	H30	H	0.792989	0.097489	0.329757
	H31	H	0.792449	0.897557	0.657573
	H32	H	0.342834	0.209954	0.896936
	H33	H	0.672426	0.207597	0.088583
	H34	H	0.342140	0.784524	0.092403
	H35	H	0.672464	0.782095	0.896210
	H36	H	0.343702	0.896756	0.210502
	H37	H	0.671386	0.094951	0.206608
	H38	H	0.342851	0.097099	0.781167
	H39	H	0.670635	0.893668	0.776473
	H40	H	0.909872	0.210508	0.328925
	H41	H	0.104354	0.209835	0.656894
	H42	H	0.107820	0.783690	0.329031
	H43	H	0.909412	0.782823	0.657113
	H44	H	0.222005	0.331291	0.894046
	H45	H	0.218494	0.660863	0.091014
	H46	H	0.794353	0.330876	0.093068
	H47	H	0.793032	0.661257	0.895515
	H48	H	0.413378	0.118655	0.601750
	H49	H	0.604147	0.877579	0.583334
	H50	H	0.590576	0.111903	0.398957
	H51	H	0.422697	0.877707	0.394554
	H52	H	0.595303	0.395866	0.111221
	H53	H	0.605644	0.590337	0.874921
	H54	H	0.408250	0.594004	0.112436
	H55	H	0.422594	0.391600	0.874169
	H56	H	0.129005	0.599817	0.397997
	H57	H	0.889452	0.591253	0.587080
	H58	H	0.123993	0.403350	0.586573
	H59	H	0.888871	0.403810	0.399363
	H60	H	0.124532	0.402774	0.586987
	H61	H	0.891344	0.588321	0.585391
	H62	H	0.121574	0.584075	0.407188
	H63	H	0.889320	0.403124	0.403058
	H64	H	0.408989	0.584881	0.110694
	H65	H	0.601285	0.583714	0.877287
	H66	H	0.608027	0.399598	0.112784
	H67	H	0.400534	0.402880	0.870928
	H68	H	0.604537	0.114474	0.407390
	H69	H	0.599806	0.877635	0.590220
	H70	H	0.424566	0.109807	0.582481
	H71	H	0.420128	0.881365	0.410665
	H72	H	0.915658	0.611478	0.079944
	H73	H	0.094326	0.375855	0.097405
	H74	H	0.105163	0.614236	0.905916
	H75	H	0.905779	0.374993	0.902657
	H76	H	0.101526	0.914301	0.608151
	H77	H	0.111715	0.079881	0.375922
	H78	H	0.910573	0.088862	0.610198
	H79	H	0.918029	0.889958	0.372498
	H80	H	0.624290	0.086705	0.900115
	H81	H	0.390328	0.094491	0.078687
	H82	H	0.626680	0.900726	0.089447
	H83	H	0.389887	0.903192	0.902065
	H84	H	0.625731	0.899906	0.084237
	H85	H	0.392310	0.079141	0.088590
	H86	H	0.626280	0.088525	0.896068
	H87	H	0.389932	0.904423	0.901869
	H88	H	0.913706	0.088714	0.609927
	H89	H	0.090207	0.086084	0.379752
	H90	H	0.090305	0.896225	0.609766
	H91	H	0.901653	0.912013	0.374104
	H92	H	0.101426	0.617619	0.891829
	H93	H	0.092634	0.382559	0.077269
	H94	H	0.904714	0.617511	0.088871
	H95	H	0.922392	0.376636	0.891974
	H96	H	0.400854	0.116737	0.581411
	H97	H	0.595581	0.880583	0.583707
	H98	H	0.603974	0.118624	0.390872
	H99	H	0.407363	0.874200	0.400800
	H100	H	0.599259	0.409031	0.107271
	H101	H	0.597825	0.590882	0.877441
	H102	H	0.416103	0.590808	0.110373
	H103	H	0.420363	0.415666	0.880711
	H104	H	0.126607	0.582164	0.388436
	H105	H	0.890185	0.587982	0.588252
	H106	H	0.123799	0.402126	0.585592
	H107	H	0.889818	0.407106	0.400906
	H108	H	0.918274	0.615814	0.094750
	H109	H	0.111312	0.374046	0.084483
	H110	H	0.091672	0.611878	0.900899
	H111	H	0.921489	0.382744	0.910612
	H112	H	0.111162	0.895947	0.615595
	H113	H	0.105024	0.100952	0.372522
	H114	H	0.912851	0.090773	0.610605
	H115	H	0.927446	0.913214	0.382883
	H116	H	0.626002	0.091050	0.900082
	H117	H	0.386306	0.093441	0.096104
	H118	H	0.623657	0.904774	0.085658
	H119	H	0.390053	0.903959	0.900471
	C120	C	0.385452	0.005419	0.616768
	C121	C	0.627744	0.988211	0.614243
	C122	C	0.629789	0.005773	0.370905
	C123	C	0.387340	0.987003	0.373347
	C124	C	0.630040	0.372979	0.002335
	C125	C	0.628845	0.616848	0.985293
	C126	C	0.383856	0.618775	0.002395
	C127	C	0.385794	0.374799	0.983650
	C128	C	0.016804	0.618272	0.371015
	C129	C	0.998916	0.617523	0.614701
	C130	C	0.015466	0.374521	0.615557
	C131	C	0.998197	0.375213	0.372069
	C132	C	0.885099	0.505308	0.116087
	C133	C	0.127710	0.486897	0.114454
	C134	C	0.128807	0.505327	0.871095
	C135	C	0.887359	0.487497	0.873222
	C136	C	0.130732	0.874027	0.502615
	C137	C	0.129341	0.117475	0.484708
	C138	C	0.884854	0.118659	0.501818
	C139	C	0.886265	0.875722	0.484804
	C140	C	0.516267	0.117668	0.871687
	C141	C	0.498340	0.117202	0.114878
	C142	C	0.516579	0.874141	0.115801
	C143	C	0.498715	0.874334	0.872212
	C144	C	0.388304	0.881240	0.671552
	C145	C	0.625366	0.112152	0.669414
	C146	C	0.628864	0.881139	0.316551
	C147	C	0.388335	0.111152	0.317874
	C148	C	0.686184	0.375638	0.878904
	C149	C	0.682630	0.614238	0.108769
	C150	C	0.330401	0.616795	0.878931
	C151	C	0.330580	0.376954	0.107238
	C152	C	0.892926	0.674639	0.374776
	C153	C	0.123011	0.671615	0.610779
	C154	C	0.891329	0.320431	0.613067
	C155	C	0.122263	0.319695	0.374144
	C156	C	0.891932	0.376505	0.672172
	C157	C	0.122494	0.615290	0.669350
	C158	C	0.892683	0.617321	0.317729
	C159	C	0.121768	0.375550	0.315600
	C160	C	0.388997	0.673690	0.878964
	C161	C	0.624763	0.670987	0.108988
	C162	C	0.627484	0.318946	0.878256
	C163	C	0.389427	0.320979	0.107763
	C164	C	0.685555	0.881374	0.373744
	C165	C	0.681343	0.112965	0.610826
	C166	C	0.331146	0.881185	0.614819
	C167	C	0.332297	0.111849	0.375950
	C168	C	0.887797	0.381012	0.171389
	C169	C	0.125493	0.611231	0.169422
	C170	C	0.128053	0.381192	0.815874
	C171	C	0.887484	0.611763	0.817659
	C172	C	0.187001	0.876421	0.379311
	C173	C	0.182188	0.114701	0.608611
	C174	C	0.830509	0.117342	0.378623
	C175	C	0.830549	0.877922	0.608243
	C176	C	0.391988	0.172547	0.875978
	C177	C	0.622723	0.171278	0.110573
	C178	C	0.391769	0.820909	0.113300
	C179	C	0.622896	0.819149	0.874899
	C180	C	0.392609	0.876875	0.171971
	C181	C	0.622403	0.114997	0.169009
	C182	C	0.392257	0.116454	0.818221
	C183	C	0.622008	0.874958	0.815675
	C184	C	0.888679	0.173655	0.378197
	C185	C	0.125236	0.172368	0.607977
	C186	C	0.128271	0.820174	0.378529
	C187	C	0.888759	0.820672	0.608225
	C188	C	0.184563	0.380782	0.873506
	C189	C	0.181964	0.611311	0.111768
	C190	C	0.831019	0.380585	0.113715
	C191	C	0.831193	0.611947	0.875540
	C192	C	0.406613	0.092643	0.594882
	C193	C	0.606279	0.901075	0.592131
	C194	C	0.606505	0.092569	0.392708
	C195	C	0.409964	0.900342	0.395450
	C196	C	0.607484	0.394993	0.088085
	C197	C	0.607805	0.594929	0.898847
	C198	C	0.404683	0.596420	0.088952
	C199	C	0.408006	0.396732	0.897622
	C200	C	0.103342	0.595350	0.391882
	C201	C	0.912511	0.595565	0.593308
	C202	C	0.101837	0.396207	0.593033
	C203	C	0.911763	0.398073	0.394512
	C204	C	0.906531	0.592315	0.094182
	C205	C	0.105905	0.399979	0.092737
	C206	C	0.106054	0.591942	0.893240
	C207	C	0.909957	0.400526	0.895103
	C208	C	0.107591	0.895695	0.588792
	C209	C	0.108525	0.095530	0.398370
	C210	C	0.906131	0.096140	0.587859
	C211	C	0.908978	0.898403	0.398803
	C212	C	0.603142	0.095123	0.892395
	C213	C	0.411960	0.095604	0.093984
	C214	C	0.602925	0.895556	0.093261
	C215	C	0.412156	0.897178	0.894845
	Zn216	Zn	0.507086	-0.003447	0.743997
	Zn217	Zn	0.508067	-0.004430	0.244274
	Zn218	Zn	0.758138	0.496026	-0.006235
	Zn219	Zn	0.255869	0.495855	-0.007149
	Zn220	Zn	0.008098	0.746166	0.493000
	Zn221	Zn	0.007054	0.246138	0.493037
	Zn222	Zn	0.007366	0.496482	0.743782
	Zn223	Zn	0.006967	0.496558	0.243380
	Zn224	Zn	0.507688	0.745690	-0.005709
	Zn225	Zn	0.506792	0.245452	-0.007326
	Zn226	Zn	0.756623	-0.002974	0.492862
	Zn227	Zn	0.258664	-0.003724	0.494449
	N228	N	0.421387	0.959619	0.672897
	N229	N	0.593025	0.033453	0.671827
	N230	N	0.594834	0.959457	0.314554
	N231	N	0.421936	0.032604	0.315957
	N232	N	0.688151	0.408388	0.956867
	N233	N	0.685135	0.581236	0.030840
	N234	N	0.327219	0.583319	0.956751
	N235	N	0.328088	0.409746	0.029274
	N236	N	0.971178	0.675319	0.407176
	N237	N	0.045139	0.673275	0.577499
	N238	N	0.969106	0.318958	0.578574
	N239	N	0.044503	0.319473	0.408657
	N240	N	0.970143	0.409640	0.673675
	N241	N	0.044408	0.582340	0.671731
	N242	N	0.970651	0.583191	0.315160
	N243	N	0.043666	0.409435	0.314064
	N244	N	0.421528	0.674889	0.956950
	N245	N	0.592107	0.672627	0.031228
	N246	N	0.593518	0.316843	0.956064
	N247	N	0.423201	0.319710	0.030001
	N248	N	0.686249	0.959830	0.406766
	N249	N	0.683034	0.034600	0.577295
	N250	N	0.329197	0.959583	0.581484
	N251	N	0.331520	0.033606	0.409825
	N252	N	0.920420	0.459605	0.173004
	N253	N	0.092722	0.532814	0.171340
	N254	N	0.094192	0.459510	0.814235
	N255	N	0.921916	0.533506	0.816322
	N256	N	0.188664	0.908979	0.457315
	N257	N	0.185031	0.081366	0.530878
	N258	N	0.827939	0.083896	0.456479
	N259	N	0.828661	0.911094	0.530339
	N260	N	0.470056	0.173334	0.908624
	N261	N	0.544727	0.172972	0.077670
	N262	N	0.469819	0.818622	0.079304
	N263	N	0.545207	0.818789	0.909600
	N264	N	0.471090	0.909284	0.173644
	N265	N	0.544067	0.082492	0.172498
	N266	N	0.470607	0.082928	0.815615
	N267	N	0.543596	0.908354	0.813898
	N268	N	0.921867	0.174685	0.455828
	N269	N	0.093008	0.174210	0.529947
	N270	N	0.093894	0.818571	0.456260
	N271	N	0.922933	0.819304	0.530528
	N272	N	0.184917	0.458966	0.907361
	N273	N	0.183452	0.533007	0.078154
	N274	N	0.829342	0.458896	0.080035
	N275	N	0.830771	0.533648	0.909323
	O276	O	0.981593	0.996423	-0.055303
	H277	H	0.983593	0.990363	-0.052886
	H278	H	0.980268	0.994262	-0.048307
	O279	O	0.043630	-0.009576	0.995787
	H280	H	0.051430	-0.023627	0.994567
	H281	H	0.045935	0.002596	0.998875
	O282	O	0.041983	-0.092144	-0.019229
	H283	H	0.036644	-0.090410	-0.021899
	H284	H	0.042977	-0.106408	-0.021736
	O285	O	0.474026	0.444198	0.489920
	H286	H	0.480730	0.444662	0.494059
	H287	H	0.476505	0.441823	0.486125
	O288	O	-0.040665	0.048288	0.027840
	H289	H	-0.038053	0.059746	0.030796
	H290	H	-0.032066	0.050321	0.032823
	O291	O	-0.011768	0.960445	-0.033555
	H292	H	-0.011630	0.960678	-0.027278
	H293	H	-0.012895	0.961764	-0.038666
	O294	O	-0.046369	1.035407	-0.001550
	H295	H	-0.054772	1.040297	0.001413
	H296	H	-0.042535	1.042163	0.001477
	O297	O	0.530937	0.492751	0.531475
	H298	H	0.531810	0.490800	0.524002
	H299	H	0.531648	0.494150	0.535543
	O300	O	0.540540	0.483488	0.436194
	H301	H	0.531615	0.485288	0.427710
	H302	H	0.540390	0.487685	0.438229
	O303	O	0.995140	-0.063827	0.999695
	H304	H	0.993069	-0.067663	0.994397
	H305	H	1.003877	-0.066975	1.001149
	O306	O	-0.070641	0.989842	0.995587
	H307	H	-0.061830	0.984646	0.989590
	H308	H	-0.068501	0.992211	0.994894
	O309	O	0.067688	0.974919	0.925418
	H310	H	0.076841	0.978540	0.916004
	H311	H	0.062137	0.961218	0.928646
	O312	O	0.026546	-0.026521	0.944550
	H313	H	0.032150	-0.019954	0.937518
	H314	H	0.016823	-0.032342	0.938839
	O315	O	0.485039	0.478259	0.514019
	H316	H	0.480876	0.471385	0.522123
	H317	H	0.491186	0.487578	0.519099
	O318	O	0.037212	-0.044885	0.982611
	H319	H	0.047658	-0.046010	0.990822
	H320	H	0.031657	-0.038170	0.971443
	O321	O	0.054702	1.012644	1.026437
	H322	H	0.059467	1.017803	1.030155
	H323	H	0.045141	1.015454	1.029685
	O324	O	0.926696	0.013428	1.025053
	H325	H	0.918787	0.009331	1.022524
	H326	H	0.921137	0.012157	1.024610
	O327	O	1.058500	1.026999	0.931432
	H328	H	1.050059	1.022945	0.938104
	H329	H	1.058562	1.026564	0.923235
	O330	O	0.512434	0.475307	0.509197
	H331	H	0.504418	0.471868	0.509311
	H332	H	0.512241	0.473827	0.501201
	O333	O	0.409664	0.548116	0.439106
	H334	H	0.405457	0.541829	0.436097
	H335	H	0.405494	0.550937	0.434878
	O336	O	0.481886	0.499541	0.454752
	H337	H	0.484613	0.498846	0.448854
	H338	H	0.487174	0.499910	0.446997
	O339	O	0.445927	0.509014	0.519417
	H340	H	0.442151	0.519167	0.516439
	H341	H	0.454236	0.509508	0.523154
	O342	O	0.507124	0.493709	0.468783
	H343	H	0.508564	0.495246	0.481190
	H344	H	0.502992	0.486890	0.467324
	O345	O	0.449782	0.490264	0.463978
	H346	H	0.452772	0.482029	0.472281
	H347	H	0.446510	0.493762	0.450276
