data_Molecule from HDF5

_cell_length_a		16.104113
_cell_length_b		16.167887
_cell_length_c		16.389964
_cell_angle_alpha	89.554197
_cell_angle_beta	89.945429
_cell_angle_gamma	90.360648
_symmetry_space_group_name_H-M	'P 1'
_symmetry_Int_Tables_number		1

loop_
	_symmetry_equiv_pos_as_xyz
	x,y,z

loop_
	_atom_site_label
	_atom_site_type_symbol
	_atom_site_fract_x
	_atom_site_fract_y
	_atom_site_fract_z
	H0	H	0.386831	0.829082	0.709317
	H1	H	0.594546	0.154304	0.708165
	H2	H	0.591652	0.828905	0.274921
	H3	H	0.386235	0.153590	0.271575
	H4	H	0.706705	0.395969	0.828779
	H5	H	0.706602	0.592062	0.154288
	H6	H	0.276179	0.591349	0.827840
	H7	H	0.272860	0.391543	0.153685
	H8	H	0.824521	0.706133	0.390267
	H9	H	0.155720	0.704759	0.586541
	H10	H	0.824397	0.277926	0.589743
	H11	H	0.155469	0.280911	0.394480
	H12	H	0.825304	0.388198	0.707599
	H13	H	0.153588	0.594946	0.707657
	H14	H	0.826371	0.593596	0.273641
	H15	H	0.154883	0.393214	0.277235
	H16	H	0.391184	0.709849	0.828560
	H17	H	0.590173	0.708260	0.153918
	H18	H	0.590327	0.277108	0.828341
	H19	H	0.387169	0.272907	0.152730
	H20	H	0.701775	0.826878	0.394750
	H21	H	0.704660	0.156199	0.588722
	H22	H	0.275123	0.828285	0.591447
	H23	H	0.281896	0.158467	0.396484
	H24	H	0.887678	0.329003	0.208150
	H25	H	0.094862	0.655683	0.207600
	H26	H	0.092403	0.328395	0.773601
	H27	H	0.885618	0.653529	0.769800
	H28	H	0.205162	0.897017	0.328610
	H29	H	0.206653	0.092325	0.654754
	H30	H	0.773298	0.093720	0.329234
	H31	H	0.773315	0.890693	0.654318
	H32	H	0.324765	0.205786	0.891062
	H33	H	0.653428	0.207348	0.090653
	H34	H	0.324819	0.776819	0.090689
	H35	H	0.655220	0.783048	0.895486
	H36	H	0.325107	0.887721	0.208035
	H37	H	0.652150	0.095512	0.208243
	H38	H	0.326839	0.093994	0.774009
	H39	H	0.652415	0.889527	0.775283
	H40	H	0.891260	0.208738	0.329405
	H41	H	0.090493	0.208188	0.654059
	H42	H	0.090438	0.778469	0.329119
	H43	H	0.888287	0.772276	0.652150
	H44	H	0.201503	0.326424	0.894233
	H45	H	0.203339	0.657570	0.086122
	H46	H	0.774340	0.328481	0.091399
	H47	H	0.779336	0.658712	0.892744
	H48	H	0.395732	0.112223	0.586315
	H49	H	0.571090	0.879943	0.575514
	H50	H	0.584800	0.109078	0.402590
	H51	H	0.392861	0.870514	0.393879
	H52	H	0.586196	0.400505	0.107569
	H53	H	0.588320	0.583723	0.875634
	H54	H	0.398602	0.590349	0.108525
	H55	H	0.403278	0.398095	0.876985
	H56	H	0.109261	0.583492	0.391382
	H57	H	0.873981	0.582372	0.576025
	H58	H	0.109141	0.386752	0.576777
	H59	H	0.870676	0.401959	0.393864
	H60	H	0.100991	0.414196	0.576789
	H61	H	0.874095	0.574283	0.583818
	H62	H	0.109192	0.591773	0.399445
	H63	H	0.871540	0.395140	0.400814
	H64	H	0.390970	0.584089	0.107520
	H65	H	0.578724	0.588607	0.877268
	H66	H	0.577789	0.404250	0.103252
	H67	H	0.391466	0.395431	0.872858
	H68	H	0.582992	0.111210	0.392616
	H69	H	0.592800	0.870982	0.582615
	H70	H	0.402976	0.110608	0.588264
	H71	H	0.404845	0.876274	0.398303
	H72	H	0.894134	0.613008	0.086696
	H73	H	0.084012	0.375194	0.080920
	H74	H	0.072975	0.609329	0.886750
	H75	H	0.902338	0.373107	0.889500
	H76	H	0.084876	0.898513	0.607750
	H77	H	0.085767	0.083011	0.377236
	H78	H	0.897715	0.085126	0.607808
	H79	H	0.897543	0.895333	0.374042
	H80	H	0.608675	0.086246	0.897120
	H81	H	0.372316	0.078534	0.082364
	H82	H	0.609258	0.897939	0.087706
	H83	H	0.372949	0.910997	0.896474
	H84	H	0.607316	0.900650	0.081955
	H85	H	0.370858	0.081507	0.086036
	H86	H	0.607530	0.084862	0.901440
	H87	H	0.367126	0.894198	0.893484
	H88	H	0.896264	0.083297	0.607647
	H89	H	0.080724	0.090198	0.376421
	H90	H	0.080960	0.900578	0.606210
	H91	H	0.891725	0.901769	0.374688
	H92	H	0.076073	0.603783	0.908235
	H93	H	0.082191	0.371878	0.091434
	H94	H	0.906645	0.609298	0.087901
	H95	H	0.904998	0.380046	0.907342
	H96	H	0.400651	0.108227	0.581710
	H97	H	0.574464	0.871975	0.598036
	H98	H	0.574554	0.106979	0.398113
	H99	H	0.394443	0.875481	0.406744
	H100	H	0.578159	0.394672	0.106140
	H101	H	0.587372	0.593803	0.874376
	H102	H	0.400346	0.580840	0.104623
	H103	H	0.395566	0.406743	0.876760
	H104	H	0.105789	0.581031	0.401373
	H105	H	0.870080	0.583962	0.586458
	H106	H	0.112731	0.402143	0.600111
	H107	H	0.873857	0.403973	0.402400
	H108	H	0.900694	0.608652	0.077254
	H109	H	0.074159	0.377221	0.084842
	H110	H	0.093471	0.612407	0.896531
	H111	H	0.887819	0.372546	0.902182
	H112	H	0.080662	0.895973	0.607845
	H113	H	0.089691	0.090840	0.374353
	H114	H	0.898209	0.083108	0.606321
	H115	H	0.899622	0.902875	0.377629
	H116	H	0.607145	0.081484	0.898697
	H117	H	0.370967	0.083814	0.080877
	H118	H	0.607365	0.904028	0.087697
	H119	H	0.373640	0.898184	0.910145
	C120	C	0.368793	0.001984	0.614839
	C121	C	0.610939	0.982598	0.613626
	C122	C	0.610351	0.000607	0.369531
	C123	C	0.368773	0.982787	0.370261
	C124	C	0.610945	0.371182	-0.001013
	C125	C	0.613538	0.616487	0.983145
	C126	C	0.368090	0.614611	-0.000618
	C127	C	0.366551	0.369386	0.982550
	C128	C	-0.001012	0.614549	0.368295
	C129	C	0.981412	0.611028	0.611018
	C130	C	-0.001609	0.370480	0.613492
	C131	C	0.981215	0.371867	0.370752
	C132	C	0.869465	0.501567	0.113471
	C133	C	0.110801	0.483683	0.113075
	C134	C	0.110466	0.500023	0.868712
	C135	C	0.869168	0.483684	0.869733
	C136	C	0.111926	0.870689	0.499961
	C137	C	0.113618	0.116085	0.483453
	C138	C	0.868301	0.113526	0.499970
	C139	C	0.866577	0.869332	0.482634
	C140	C	0.498963	0.113317	0.869810
	C141	C	0.480066	0.112407	0.112467
	C142	C	0.498620	0.870216	0.114409
	C143	C	0.480206	0.871905	0.871147
	C144	C	0.367983	0.878064	0.671005
	C145	C	0.612302	0.105823	0.669056
	C146	C	0.610394	0.877612	0.313631
	C147	C	0.368809	0.105550	0.312084
	C148	C	0.668017	0.374482	0.877046
	C149	C	0.668225	0.612505	0.105778
	C150	C	0.313394	0.612268	0.876550
	C151	C	0.310528	0.371009	0.104805
	C152	C	0.874489	0.669122	0.370497
	C153	C	0.105938	0.667514	0.608112
	C154	C	0.873919	0.314722	0.610774
	C155	C	0.105937	0.317981	0.373900
	C156	C	0.874691	0.369667	0.669640
	C157	C	0.104872	0.612785	0.668172
	C158	C	0.875219	0.613373	0.312203
	C159	C	0.105502	0.373684	0.315412
	C160	C	0.370539	0.671321	0.877072
	C161	C	0.610697	0.670880	0.105304
	C162	C	0.610040	0.315712	0.876776
	C163	C	0.367322	0.311839	0.104327
	C164	C	0.665096	0.876651	0.373492
	C165	C	0.667011	0.106848	0.609647
	C166	C	0.312151	0.877584	0.612547
	C167	C	0.316635	0.108067	0.374070
	C168	C	0.868956	0.377992	0.169684
	C169	C	0.112532	0.606930	0.168515
	C170	C	0.110525	0.377050	0.812712
	C171	C	0.868423	0.605889	0.810853
	C172	C	0.167570	0.875146	0.377683
	C173	C	0.168926	0.113253	0.605856
	C174	C	0.812163	0.112736	0.377759
	C175	C	0.810636	0.869915	0.605024
	C176	C	0.374610	0.168756	0.871014
	C177	C	0.603934	0.169526	0.111035
	C178	C	0.374350	0.813664	0.111735
	C179	C	0.605160	0.818508	0.874101
	C180	C	0.374484	0.869280	0.169819
	C181	C	0.603284	0.113536	0.169168
	C182	C	0.375700	0.112910	0.812904
	C183	C	0.603629	0.871543	0.814191
	C184	C	0.870540	0.170237	0.377744
	C185	C	0.110896	0.170682	0.605574
	C186	C	0.110324	0.816172	0.377728
	C187	C	0.867764	0.810977	0.603997
	C188	C	0.165299	0.376220	0.872582
	C189	C	0.166634	0.607832	0.108246
	C190	C	0.812498	0.377726	0.111697
	C191	C	0.815432	0.608313	0.871793
	C192	C	0.392546	0.087957	0.592309
	C193	C	0.586713	0.896647	0.591883
	C194	C	0.587415	0.086770	0.391175
	C195	C	0.390920	0.896450	0.392899
	C196	C	0.587539	0.393345	0.083770
	C197	C	0.591571	0.595046	0.897748
	C198	C	0.390103	0.591691	0.084730
	C199	C	0.389937	0.393103	0.897636
	C200	C	0.085500	0.591976	0.390739
	C201	C	0.895120	0.587131	0.588655
	C202	C	0.085216	0.393986	0.591108
	C203	C	0.894470	0.393877	0.392568
	C204	C	0.893265	0.587892	0.090608
	C205	C	0.086933	0.397198	0.092090
	C206	C	0.087362	0.586266	0.890556
	C207	C	0.891660	0.397646	0.892913
	C208	C	0.088967	0.892152	0.585292
	C209	C	0.091759	0.094436	0.398111
	C210	C	0.890822	0.090522	0.585116
	C211	C	0.889552	0.893018	0.397500
	C212	C	0.585372	0.090893	0.892433
	C213	C	0.393816	0.088314	0.089736
	C214	C	0.585433	0.893834	0.092264
	C215	C	0.393668	0.894602	0.893373
	Zn216	Zn	0.490355	-0.008526	0.742351
	Zn217	Zn	0.488860	-0.008888	0.241064
	Zn218	Zn	0.742029	0.493686	-0.008338
	Zn219	Zn	0.237984	0.492553	-0.009273
	Zn220	Zn	-0.010468	0.740614	0.490726
	Zn221	Zn	-0.010034	0.243617	0.491898
	Zn222	Zn	-0.010280	0.491411	0.740662
	Zn223	Zn	-0.009712	0.492750	0.242012
	Zn224	Zn	0.490020	0.744818	-0.008426
	Zn225	Zn	0.489256	0.240299	-0.009052
	Zn226	Zn	0.738331	-0.007956	0.491695
	Zn227	Zn	0.241600	-0.006925	0.492628
	N228	N	0.402157	0.956314	0.672612
	N229	N	0.577961	0.027758	0.671511
	N230	N	0.577040	0.955733	0.311093
	N231	N	0.400465	0.026731	0.309796
	N232	N	0.668692	0.408359	0.953853
	N233	N	0.670339	0.579757	0.028671
	N234	N	0.311565	0.577775	0.953514
	N235	N	0.309734	0.405946	0.027959
	N236	N	0.952577	0.670041	0.404400
	N237	N	0.028228	0.666598	0.573371
	N238	N	0.951957	0.314916	0.576752
	N239	N	0.027743	0.316987	0.407852
	N240	N	0.953196	0.403567	0.671339
	N241	N	0.026486	0.578382	0.669880
	N242	N	0.953690	0.580142	0.310546
	N243	N	0.026897	0.406420	0.313271
	N244	N	0.403722	0.672919	0.954460
	N245	N	0.577269	0.673303	0.028099
	N246	N	0.575331	0.313533	0.953682
	N247	N	0.401577	0.310827	0.027334
	N248	N	0.665475	0.954302	0.407362
	N249	N	0.666192	0.029395	0.575646
	N250	N	0.312599	0.955385	0.578014
	N251	N	0.316442	0.030829	0.409738
	N252	N	0.903453	0.456106	0.171053
	N253	N	0.078506	0.528700	0.171636
	N254	N	0.077131	0.455142	0.810441
	N255	N	0.901235	0.527619	0.809504
	N256	N	0.168784	0.908229	0.454906
	N257	N	0.170742	0.079971	0.529045
	N258	N	0.810688	0.078264	0.454689
	N259	N	0.809686	0.905434	0.528425
	N260	N	0.452320	0.169236	0.905685
	N261	N	0.526206	0.168945	0.076515
	N262	N	0.452755	0.813912	0.078070
	N263	N	0.527429	0.818601	0.908961
	N264	N	0.452897	0.903302	0.171839
	N265	N	0.525142	0.078709	0.170253
	N266	N	0.454009	0.079116	0.811936
	N267	N	0.524841	0.904173	0.812226
	N268	N	0.904785	0.171008	0.454645
	N269	N	0.077215	0.172733	0.528339
	N270	N	0.076228	0.813583	0.454697
	N271	N	0.901792	0.810489	0.526909
	N272	N	0.165306	0.453814	0.906886
	N273	N	0.165776	0.530142	0.074567
	N274	N	0.812542	0.455687	0.077601
	N275	N	0.815755	0.531276	0.908117
	O276	O	0.939766	-0.137751	1.127956
	H277	H	0.947380	-0.123428	1.125631
	H278	H	0.934884	-0.141942	1.130836
	O279	O	0.431651	0.484589	0.446425
	H280	H	0.433011	0.490504	0.437279
	H281	H	0.438487	0.494513	0.445526
	O282	O	0.435182	0.535425	0.493251
	H283	H	0.430421	0.547666	0.485346
	H284	H	0.443691	0.530627	0.490650
	O285	O	0.480157	0.455018	0.534281
	H286	H	0.489675	0.439882	0.539069
	H287	H	0.479924	0.448139	0.539369
	O288	O	0.505414	0.457597	0.440882
	H289	H	0.505504	0.449226	0.439194
	H290	H	0.507011	0.461769	0.436069
	O291	O	0.025325	-0.078228	0.993552
	H292	H	0.024130	-0.082487	0.992007
	H293	H	0.026211	-0.078114	0.999041
	O294	O	0.502215	1.475762	0.450869
	H295	H	0.503026	1.480462	0.444293
	H296	H	0.505656	1.477847	0.441986
	O297	O	0.936623	1.160355	-0.067644
	H298	H	0.933111	1.159786	-0.074361
	H299	H	0.937872	1.171051	-0.079240
	O300	O	0.443551	0.583371	0.454485
	H301	H	0.442397	0.576910	0.454016
	H302	H	0.435828	0.583761	0.456545
	O303	O	0.516819	0.504408	0.595305
	H304	H	0.496459	0.517178	0.589167
	H305	H	0.518332	0.509461	0.604456
	O306	O	1.144993	1.054055	1.033873
	H307	H	1.157847	1.063572	1.034440
	H308	H	1.131410	1.050932	1.030503
	O309	O	0.517894	0.487651	0.392874
	H310	H	0.521646	0.490961	0.389204
	H311	H	0.519397	0.486045	0.393790
	O312	O	0.946298	0.885213	0.987736
	H313	H	0.943878	0.893029	0.998306
	H314	H	0.941930	0.876365	0.978252
	O315	O	1.023729	0.987634	-0.043323
	H316	H	1.034274	0.990188	-0.033418
	H317	H	1.030789	0.979396	-0.041385
	O318	O	0.347279	0.621694	0.716747
	H319	H	0.345668	0.629147	0.710689
	H320	H	0.345007	0.617833	0.715852
	O321	O	0.560200	0.573023	0.444899
	H322	H	0.567734	0.578909	0.445578
	H323	H	0.546222	0.581424	0.441376
	O324	O	-0.029648	0.886811	0.940415
	H325	H	-0.031676	0.894682	0.948927
	H326	H	-0.029070	0.894612	0.946561
	O327	O	-0.101314	1.046292	0.982796
	H328	H	-0.106346	1.062321	0.972070
	H329	H	-0.090820	1.034846	0.983229
	O330	O	0.002171	-0.148737	-0.041238
	H331	H	-0.002912	-0.146426	-0.033679
	H332	H	-0.015129	-0.160789	-0.047664
	O333	O	0.493039	0.546440	0.486418
	H334	H	0.488837	0.547868	0.482976
	H335	H	0.483195	0.537242	0.487332
	O336	O	-0.025098	0.034577	0.065866
	H337	H	-0.014322	0.022433	0.062249
	H338	H	-0.029232	0.039647	0.065743
	O339	O	-0.081045	0.014238	-0.106057
	H340	H	-0.093713	0.009582	-0.098943
	H341	H	-0.078408	0.014720	-0.109011
	O342	O	0.508316	0.510782	0.519129
	H343	H	0.512449	0.521794	0.519059
	H344	H	0.522245	0.512126	0.524631
	O345	O	-0.025114	1.003162	1.077282
	H346	H	-0.030023	0.996026	1.082762
	H347	H	-0.016398	1.003945	1.079163
	O348	O	0.016226	0.018981	1.014615
	H349	H	0.014521	0.017646	1.023463
	H350	H	0.030582	0.009196	1.006505
	O351	O	0.459799	0.495083	0.496252
	H352	H	0.460093	0.496419	0.504560
	H353	H	0.463988	0.496193	0.500854
	O354	O	0.452472	0.352410	0.515559
	H355	H	0.440795	0.342840	0.517844
	H356	H	0.449493	0.360174	0.512724
	O357	O	0.850283	1.275486	0.136583
	H358	H	0.855472	1.278980	0.129130
	H359	H	0.860627	1.268726	0.145178
	O360	O	0.968990	0.061193	0.924174
	H361	H	0.986381	0.056991	0.917064
	H362	H	0.974930	0.060626	0.932980
	O363	O	0.500074	0.477631	0.566638
	H364	H	0.494767	0.468824	0.568813
	H365	H	0.492289	0.482149	0.564481
	O366	O	1.029574	1.040069	0.081947
	H367	H	1.037073	1.043395	0.092063
	H368	H	1.028122	1.032515	0.096864
	O369	O	1.514363	0.504828	0.562261
	H370	H	1.506949	0.501251	0.566073
	H371	H	1.521320	0.507364	0.554532
	O372	O	0.528591	0.582384	0.418183
	H373	H	0.529079	0.582856	0.412051
	H374	H	0.520337	0.567784	0.414420
	O375	O	1.036350	-0.067393	1.000651
	H376	H	1.028019	-0.065980	0.988114
	H377	H	1.042203	-0.074881	0.991680
	O378	O	0.079645	1.030796	-0.092237
	H379	H	0.087285	1.028185	-0.086746
	H380	H	0.089200	1.027493	-0.093444
	O381	O	0.392109	0.440218	0.498581
	H382	H	0.397895	0.444955	0.489549
	H383	H	0.388826	0.432943	0.505933
	O384	O	0.863797	1.113832	-0.056446
	H385	H	0.853539	1.118093	-0.064501
	H386	H	0.861869	1.132589	-0.071455
	O387	O	0.972852	0.006828	1.049608
	H388	H	0.974297	0.004022	1.064417
	H389	H	0.965014	0.018625	1.041641
	O390	O	0.991068	0.910101	-0.063223
	H391	H	0.985429	0.900749	-0.059527
	H392	H	0.979413	0.909808	-0.066321
	O393	O	0.546066	0.377823	0.366510
	H394	H	0.555249	0.374302	0.380746
	H395	H	0.556588	0.358949	0.360823
