data_Molecule from HDF5

_cell_length_a		16.202523
_cell_length_b		16.294081
_cell_length_c		16.230169
_cell_angle_alpha	89.883910
_cell_angle_beta	90.059073
_cell_angle_gamma	90.211495
_symmetry_space_group_name_H-M	'P 1'
_symmetry_Int_Tables_number		1

loop_
	_symmetry_equiv_pos_as_xyz
	x,y,z

loop_
	_atom_site_label
	_atom_site_type_symbol
	_atom_site_fract_x
	_atom_site_fract_y
	_atom_site_fract_z
	H0	H	0.415776	0.829775	0.716828
	H1	H	0.614538	0.156778	0.715440
	H2	H	0.612606	0.829678	0.287100
	H3	H	0.416488	0.157153	0.285890
	H4	H	0.726268	0.396632	0.836185
	H5	H	0.728872	0.590890	0.164914
	H6	H	0.301140	0.589634	0.836790
	H7	H	0.301273	0.396097	0.166375
	H8	H	0.849809	0.706729	0.401690
	H9	H	0.179200	0.707790	0.600392
	H10	H	0.850695	0.277274	0.600089
	H11	H	0.179271	0.281070	0.403607
	H12	H	0.849809	0.394925	0.713637
	H13	H	0.179144	0.591549	0.715236
	H14	H	0.849662	0.590288	0.287682
	H15	H	0.179434	0.397701	0.289030
	H16	H	0.414546	0.707907	0.837328
	H17	H	0.614367	0.707403	0.164909
	H18	H	0.612761	0.278858	0.837421
	H19	H	0.415404	0.278010	0.165390
	H20	H	0.727478	0.829991	0.402705
	H21	H	0.729080	0.156783	0.598600
	H22	H	0.300979	0.828712	0.599133
	H23	H	0.302687	0.157595	0.404805
	H24	H	0.915765	0.329344	0.215244
	H25	H	0.112822	0.657019	0.214378
	H26	H	0.111475	0.329560	0.786612
	H27	H	0.914485	0.656348	0.784611
	H28	H	0.227290	0.897092	0.336612
	H29	H	0.228503	0.091068	0.665619
	H30	H	0.801308	0.090370	0.336578
	H31	H	0.801066	0.895145	0.665904
	H32	H	0.350267	0.205912	0.902898
	H33	H	0.678526	0.208127	0.099722
	H34	H	0.351120	0.778450	0.100367
	H35	H	0.678500	0.778452	0.901152
	H36	H	0.351208	0.894998	0.214278
	H37	H	0.680669	0.090220	0.212152
	H38	H	0.350953	0.091356	0.787138
	H39	H	0.679975	0.896885	0.788187
	H40	H	0.915728	0.207600	0.337004
	H41	H	0.114025	0.207225	0.665009
	H42	H	0.112851	0.780486	0.336891
	H43	H	0.915193	0.777873	0.665165
	H44	H	0.227795	0.329296	0.902752
	H45	H	0.229590	0.656128	0.099675
	H46	H	0.799571	0.329242	0.099209
	H47	H	0.800860	0.657150	0.903000
	H48	H	0.422375	0.109388	0.592157
	H49	H	0.617255	0.875757	0.587160
	H50	H	0.613620	0.113135	0.402001
	H51	H	0.431824	0.879332	0.404723
	H52	H	0.611720	0.386651	0.124073
	H53	H	0.609008	0.599620	0.879802
	H54	H	0.431077	0.593102	0.117648
	H55	H	0.413914	0.405617	0.884280
	H56	H	0.129866	0.588784	0.413351
	H57	H	0.899427	0.582327	0.590149
	H58	H	0.133335	0.398128	0.596326
	H59	H	0.897540	0.402377	0.407602
	H60	H	0.132125	0.398497	0.591229
	H61	H	0.897269	0.585122	0.595725
	H62	H	0.131789	0.582647	0.404553
	H63	H	0.895693	0.397584	0.405500
	H64	H	0.412276	0.589595	0.122598
	H65	H	0.616852	0.578671	0.884013
	H66	H	0.616205	0.412522	0.117351
	H67	H	0.428625	0.399587	0.886933
	H68	H	0.603972	0.110310	0.404221
	H69	H	0.609143	0.872103	0.607042
	H70	H	0.419916	0.110153	0.596384
	H71	H	0.417762	0.878255	0.417643
	H72	H	0.919036	0.611251	0.097623
	H73	H	0.106603	0.374456	0.101752
	H74	H	0.107600	0.609431	0.908070
	H75	H	0.916809	0.376661	0.910321
	H76	H	0.101975	0.905002	0.615158
	H77	H	0.108984	0.093699	0.381339
	H78	H	0.925865	0.079832	0.615177
	H79	H	0.914268	0.894683	0.380626
	H80	H	0.634740	0.092841	0.904745
	H81	H	0.400953	0.079842	0.087714
	H82	H	0.630332	0.908510	0.096218
	H83	H	0.394790	0.894820	0.904630
	H84	H	0.636828	0.894464	0.100940
	H85	H	0.395664	0.082658	0.102006
	H86	H	0.630564	0.088646	0.914668
	H87	H	0.399675	0.899230	0.915600
	H88	H	0.925960	0.092579	0.618845
	H89	H	0.113007	0.084812	0.383623
	H90	H	0.104780	0.893041	0.619337
	H91	H	0.919504	0.908081	0.385848
	H92	H	0.106736	0.609566	0.907264
	H93	H	0.101820	0.378377	0.091853
	H94	H	0.926208	0.608798	0.095047
	H95	H	0.917576	0.374279	0.903136
	H96	H	0.423756	0.109326	0.595457
	H97	H	0.596224	0.881159	0.591742
	H98	H	0.610843	0.109677	0.411613
	H99	H	0.414247	0.873003	0.399928
	H100	H	0.591778	0.401060	0.112743
	H101	H	0.594319	0.583030	0.888446
	H102	H	0.423766	0.574968	0.114412
	H103	H	0.417065	0.390958	0.880650
	H104	H	0.134621	0.593213	0.404896
	H105	H	0.897489	0.589127	0.590570
	H106	H	0.130970	0.402500	0.594327
	H107	H	0.896849	0.397734	0.410884
	H108	H	0.919328	0.609082	0.090209
	H109	H	0.112350	0.375335	0.092282
	H110	H	0.106243	0.609131	0.908740
	H111	H	0.923530	0.377253	0.906180
	H112	H	0.113337	0.902265	0.619614
	H113	H	0.103610	0.085780	0.385198
	H114	H	0.914689	0.085334	0.619471
	H115	H	0.928665	0.895429	0.385148
	H116	H	0.632150	0.081732	0.905515
	H117	H	0.395540	0.093699	0.091096
	H118	H	0.631273	0.896882	0.085950
	H119	H	0.399778	0.907290	0.905988
	C120	C	0.393117	0.001653	0.623498
	C121	C	0.636266	0.984923	0.622815
	C122	C	0.636580	0.002386	0.378663
	C123	C	0.393364	0.985025	0.379246
	C124	C	0.635095	0.372054	0.009395
	C125	C	0.636186	0.614980	0.992559
	C126	C	0.393082	0.614494	0.009960
	C127	C	0.392081	0.370878	0.992579
	C128	C	0.022890	0.615490	0.379367
	C129	C	1.006598	0.614575	0.622032
	C130	C	0.023433	0.370993	0.622276
	C131	C	1.005400	0.371667	0.379937
	C132	C	0.892652	0.501325	0.122722
	C133	C	0.135786	0.484390	0.123319
	C134	C	0.135066	0.501205	0.879854
	C135	C	0.891383	0.484586	0.878129
	C136	C	0.135577	0.872181	0.509582
	C137	C	0.136806	0.115774	0.492268
	C138	C	0.893349	0.114580	0.509340
	C139	C	0.892362	0.871071	0.492691
	C140	C	0.523908	0.115430	0.879612
	C141	C	0.506053	0.114448	0.122157
	C142	C	0.523703	0.871527	0.122636
	C143	C	0.506569	0.871912	0.879794
	C144	C	0.395371	0.878458	0.678811
	C145	C	0.634371	0.107956	0.677404
	C146	C	0.633075	0.878728	0.324591
	C147	C	0.396215	0.108309	0.324071
	C148	C	0.689471	0.375347	0.885579
	C149	C	0.691585	0.611867	0.115828
	C150	C	0.338200	0.611335	0.885950
	C151	C	0.338504	0.374686	0.117075
	C152	C	0.899136	0.669540	0.381403
	C153	C	0.129918	0.670273	0.620600
	C154	C	0.899503	0.315887	0.619820
	C155	C	0.129665	0.317751	0.382565
	C156	C	0.899121	0.374042	0.676330
	C157	C	0.130179	0.612016	0.677238
	C158	C	0.898996	0.611469	0.324836
	C159	C	0.129890	0.375863	0.325921
	C160	C	0.394450	0.670242	0.886484
	C161	C	0.634539	0.669656	0.115980
	C162	C	0.633080	0.316869	0.886036
	C163	C	0.395091	0.316176	0.116523
	C164	C	0.690197	0.878875	0.382263
	C165	C	0.691083	0.108194	0.619213
	C166	C	0.337904	0.878107	0.620592
	C167	C	0.339605	0.108654	0.383029
	C168	C	0.895070	0.378120	0.177514
	C169	C	0.133825	0.607696	0.177660
	C170	C	0.132188	0.378103	0.824801
	C171	C	0.894322	0.607630	0.822766
	C172	C	0.190081	0.876051	0.385687
	C173	C	0.191226	0.112046	0.616355
	C174	C	0.839144	0.111096	0.385474
	C175	C	0.838245	0.874404	0.616695
	C176	C	0.399415	0.168582	0.882541
	C177	C	0.629889	0.169861	0.119683
	C178	C	0.400346	0.816444	0.120316
	C179	C	0.629825	0.816955	0.881608
	C180	C	0.400332	0.874325	0.177182
	C181	C	0.630774	0.111314	0.175731
	C182	C	0.399935	0.111895	0.824873
	C183	C	0.630608	0.875746	0.825374
	C184	C	0.895652	0.169658	0.385907
	C185	C	0.134309	0.169714	0.616090
	C186	C	0.133104	0.818083	0.385853
	C187	C	0.894773	0.815936	0.616239
	C188	C	0.189831	0.378048	0.882451
	C189	C	0.191601	0.607447	0.120587
	C190	C	0.837276	0.378232	0.119859
	C191	C	0.837616	0.608046	0.881456
	C192	C	0.415462	0.087540	0.601278
	C193	C	0.614044	0.898671	0.601558
	C194	C	0.615591	0.088614	0.399584
	C195	C	0.414948	0.899037	0.401031
	C196	C	0.612935	0.393674	0.095705
	C197	C	0.613433	0.593286	0.906302
	C198	C	0.415741	0.592341	0.095973
	C199	C	0.413611	0.392334	0.906270
	C200	C	0.109638	0.594433	0.401097
	C201	C	0.920341	0.591995	0.599084
	C202	C	0.109693	0.393092	0.600318
	C203	C	0.919010	0.392958	0.401644
	C204	C	0.914949	0.587592	0.100629
	C205	C	0.113640	0.398281	0.101657
	C206	C	0.113204	0.587131	0.901680
	C207	C	0.912896	0.398355	0.900064
	C208	C	0.113307	0.893727	0.595824
	C209	C	0.115080	0.094468	0.405693
	C210	C	0.915625	0.092419	0.595676
	C211	C	0.914278	0.892915	0.406178
	C212	C	0.610213	0.094133	0.901879
	C213	C	0.419580	0.092144	0.100112
	C214	C	0.610612	0.893396	0.100653
	C215	C	0.420371	0.893949	0.902220
	Zn216	Zn	0.515211	-0.006389	0.751845
	Zn217	Zn	0.515497	-0.006472	0.250208
	Zn218	Zn	0.763871	0.493119	0.000819
	Zn219	Zn	0.264108	0.492870	0.001290
	Zn220	Zn	0.014812	0.743313	0.501085
	Zn221	Zn	0.014968	0.243073	0.501139
	Zn222	Zn	0.014480	0.492983	0.750230
	Zn223	Zn	0.014470	0.493330	0.251616
	Zn224	Zn	0.514736	0.743046	0.001136
	Zn225	Zn	0.514321	0.242906	0.001064
	Zn226	Zn	0.764806	-0.006765	0.501020
	Zn227	Zn	0.264119	-0.006634	0.501520
	N228	N	0.428752	0.956254	0.680829
	N229	N	0.600854	0.030314	0.679693
	N230	N	0.600479	0.956526	0.322092
	N231	N	0.429103	0.030519	0.321671
	N232	N	0.690757	0.408863	0.963259
	N233	N	0.692519	0.578565	0.037995
	N234	N	0.336893	0.577681	0.963622
	N235	N	0.336365	0.407899	0.039067
	N236	N	0.977167	0.672053	0.414716
	N237	N	0.051886	0.671770	0.586863
	N238	N	0.977596	0.313909	0.587008
	N239	N	0.051278	0.314919	0.415210
	N240	N	0.977080	0.407812	0.678090
	N241	N	0.052341	0.578086	0.678114
	N242	N	0.977024	0.578575	0.323369
	N243	N	0.051900	0.408816	0.324100
	N244	N	0.427709	0.672375	0.964564
	N245	N	0.600733	0.671709	0.038312
	N246	N	0.599817	0.314805	0.963936
	N247	N	0.427685	0.313683	0.038323
	N248	N	0.692373	0.956498	0.415398
	N249	N	0.692262	0.030639	0.585823
	N250	N	0.336577	0.955636	0.586754
	N251	N	0.337337	0.031101	0.416364
	N252	N	0.928775	0.455673	0.179290
	N253	N	0.099741	0.530201	0.179357
	N254	N	0.098859	0.455613	0.823144
	N255	N	0.927028	0.529782	0.820451
	N256	N	0.191820	0.908824	0.463598
	N257	N	0.192931	0.079128	0.538342
	N258	N	0.837577	0.077568	0.463278
	N259	N	0.836330	0.907840	0.538723
	N260	N	0.477488	0.171083	0.915731
	N261	N	0.551323	0.171879	0.087109
	N262	N	0.478431	0.814692	0.087163
	N263	N	0.551620	0.814363	0.914535
	N264	N	0.478288	0.907940	0.178622
	N265	N	0.552772	0.077729	0.177582
	N266	N	0.478224	0.079653	0.822918
	N267	N	0.552973	0.909379	0.824409
	N268	N	0.928923	0.171561	0.463898
	N269	N	0.101175	0.171950	0.538063
	N270	N	0.099725	0.815752	0.463750
	N271	N	0.927863	0.813937	0.538254
	N272	N	0.191512	0.455487	0.916197
	N273	N	0.192734	0.529907	0.087201
	N274	N	0.835742	0.455999	0.086572
	N275	N	0.835917	0.530610	0.915185
	O276	O	0.545859	0.516677	0.541304
	H277	H	0.540384	0.516905	0.540676
	H278	H	0.551262	0.525834	0.541002
	O279	O	-0.415665	0.498457	-0.411163
	H280	H	-0.417297	0.486447	-0.407574
	H281	H	-0.406574	0.506647	-0.410026
	O282	O	0.528961	0.525773	0.555724
	H283	H	0.534228	0.523905	0.556356
	H284	H	0.526912	0.523231	0.557636
	O285	O	0.077737	0.947820	1.007544
	H286	H	0.077968	0.944283	0.997666
	H287	H	0.077028	0.946761	1.010651
	O288	O	1.039753	-0.012524	-0.012905
	H289	H	1.035804	-0.009284	-0.015142
	H290	H	1.036553	-0.013040	-0.012774
	O291	O	-0.956345	0.919640	-1.055632
	H292	H	-0.954547	0.911749	-1.054124
	H293	H	-0.962197	0.921012	-1.049649
	O294	O	0.541209	0.499606	0.534878
	H295	H	0.539698	0.502414	0.532484
	H296	H	0.541047	0.497405	0.540788
	O297	O	0.045255	0.966441	-0.003125
	H298	H	0.044618	0.961639	-0.005466
	H299	H	0.043905	0.970114	0.000505
	O300	O	0.524038	0.527665	1.565892
	H301	H	0.515829	0.522964	1.571241
	H302	H	0.529271	0.523894	1.567186
	O303	O	0.612046	0.534692	0.528262
	H304	H	0.616953	0.541517	0.529281
	H305	H	0.613231	0.534973	0.520965
	O306	O	0.038796	0.951312	0.990713
	H307	H	0.048724	0.944131	0.991548
	H308	H	0.043524	0.949022	0.991525
	O309	O	0.575107	0.525928	0.557559
	H310	H	0.569615	0.523249	0.556265
	H311	H	0.579857	0.527024	0.561112
