data_Molecule from HDF5

_cell_length_a		16.118711
_cell_length_b		16.344234
_cell_length_c		16.124267
_cell_angle_alpha	89.499626
_cell_angle_beta	90.199154
_cell_angle_gamma	89.331857
_symmetry_space_group_name_H-M	'P 1'
_symmetry_Int_Tables_number		1

loop_
	_symmetry_equiv_pos_as_xyz
	x,y,z

loop_
	_atom_site_label
	_atom_site_type_symbol
	_atom_site_fract_x
	_atom_site_fract_y
	_atom_site_fract_z
	H0	H	0.412441	0.829241	0.709609
	H1	H	0.602995	0.156894	0.705594
	H2	H	0.609118	0.829500	0.280544
	H3	H	0.406264	0.156108	0.275450
	H4	H	0.721342	0.394844	0.825647
	H5	H	0.719731	0.584136	0.158009
	H6	H	0.295656	0.593605	0.825948
	H7	H	0.298585	0.396060	0.157391
	H8	H	0.844666	0.711885	0.386862
	H9	H	0.173294	0.703065	0.590544
	H10	H	0.842833	0.279065	0.591600
	H11	H	0.171030	0.275782	0.391248
	H12	H	0.842643	0.396457	0.704437
	H13	H	0.174011	0.586706	0.703524
	H14	H	0.842266	0.593248	0.276528
	H15	H	0.174229	0.395665	0.281383
	H16	H	0.405993	0.712250	0.828936
	H17	H	0.609734	0.703125	0.157381
	H18	H	0.610062	0.275354	0.827574
	H19	H	0.410566	0.276978	0.156594
	H20	H	0.724194	0.829732	0.397802
	H21	H	0.721712	0.156909	0.591344
	H22	H	0.296443	0.828665	0.593397
	H23	H	0.289661	0.155898	0.392580
	H24	H	0.913425	0.330740	0.207628
	H25	H	0.104436	0.657608	0.203231
	H26	H	0.108166	0.329043	0.778648
	H27	H	0.907342	0.656217	0.774804
	H28	H	0.222446	0.894718	0.326995
	H29	H	0.216458	0.083670	0.659240
	H30	H	0.792841	0.093011	0.327406
	H31	H	0.799764	0.896305	0.658980
	H32	H	0.345058	0.211251	0.889918
	H33	H	0.673530	0.203861	0.093621
	H34	H	0.343431	0.777811	0.093886
	H35	H	0.672815	0.775215	0.893877
	H36	H	0.342243	0.898020	0.205227
	H37	H	0.673756	0.086405	0.205420
	H38	H	0.342410	0.092252	0.779937
	H39	H	0.673983	0.893546	0.781043
	H40	H	0.903278	0.211250	0.328633
	H41	H	0.108970	0.206379	0.656218
	H42	H	0.108666	0.779014	0.326141
	H43	H	0.908780	0.774632	0.655421
	H44	H	0.226508	0.329901	0.893849
	H45	H	0.220969	0.657515	0.087678
	H46	H	0.798618	0.328767	0.090996
	H47	H	0.789297	0.654816	0.889431
	H48	H	0.406068	0.109837	0.580882
	H49	H	0.600775	0.876092	0.595019
	H50	H	0.601987	0.110168	0.398309
	H51	H	0.419725	0.875433	0.391288
	H52	H	0.606627	0.383344	0.115073
	H53	H	0.599002	0.588387	0.872660
	H54	H	0.417768	0.590127	0.112092
	H55	H	0.427312	0.394726	0.874561
	H56	H	0.129739	0.586645	0.387926
	H57	H	0.889511	0.587270	0.581096
	H58	H	0.126642	0.400798	0.589338
	H59	H	0.886301	0.399492	0.393038
	H60	H	0.128175	0.390106	0.584250
	H61	H	0.890706	0.585722	0.579678
	H62	H	0.127866	0.594226	0.402580
	H63	H	0.889028	0.398133	0.402915
	H64	H	0.410420	0.584690	0.112025
	H65	H	0.599609	0.583123	0.875104
	H66	H	0.613503	0.403467	0.110835
	H67	H	0.409863	0.396150	0.869673
	H68	H	0.599519	0.110302	0.396595
	H69	H	0.600386	0.880149	0.581906
	H70	H	0.409567	0.111911	0.593414
	H71	H	0.421052	0.879881	0.407126
	H72	H	0.904865	0.610054	0.077814
	H73	H	0.107313	0.374725	0.090585
	H74	H	0.101073	0.609920	0.894408
	H75	H	0.922596	0.378636	0.900982
	H76	H	0.107924	0.894624	0.612538
	H77	H	0.102013	0.076230	0.376556
	H78	H	0.910037	0.092465	0.614273
	H79	H	0.917321	0.910857	0.377412
	H80	H	0.621412	0.070863	0.906722
	H81	H	0.387370	0.092534	0.084482
	H82	H	0.627519	0.892148	0.087463
	H83	H	0.389427	0.901960	0.900085
	H84	H	0.626072	0.896003	0.084702
	H85	H	0.392190	0.085591	0.077641
	H86	H	0.631646	0.084964	0.884165
	H87	H	0.390128	0.899943	0.901392
	H88	H	0.913569	0.077781	0.608350
	H89	H	0.088831	0.087835	0.375308
	H90	H	0.099257	0.899585	0.608066
	H91	H	0.923800	0.895306	0.374086
	H92	H	0.100071	0.609277	0.897050
	H93	H	0.099282	0.378662	0.087362
	H94	H	0.911575	0.612446	0.090337
	H95	H	0.910341	0.375293	0.902308
	H96	H	0.418331	0.107690	0.584593
	H97	H	0.611503	0.874972	0.586654
	H98	H	0.599383	0.108718	0.399592
	H99	H	0.405950	0.873363	0.402150
	H100	H	0.592185	0.397417	0.105716
	H101	H	0.594574	0.586974	0.875515
	H102	H	0.418402	0.581089	0.108662
	H103	H	0.417643	0.410363	0.876290
	H104	H	0.124096	0.578579	0.400347
	H105	H	0.890370	0.584881	0.581943
	H106	H	0.124301	0.399783	0.577500
	H107	H	0.891012	0.407325	0.398979
	H108	H	0.919092	0.608032	0.079794
	H109	H	0.107356	0.377411	0.082192
	H110	H	0.102544	0.609829	0.896554
	H111	H	0.916443	0.373554	0.890593
	H112	H	0.098788	0.889736	0.610998
	H113	H	0.104748	0.092994	0.369712
	H114	H	0.925251	0.088470	0.608423
	H115	H	0.907229	0.898427	0.370344
	H116	H	0.628339	0.097416	0.909464
	H117	H	0.390136	0.082206	0.087858
	H118	H	0.627371	0.896375	0.089714
	H119	H	0.391321	0.901322	0.902306
	C120	C	0.385440	0.001252	0.615304
	C121	C	0.631184	0.985044	0.615836
	C122	C	0.630158	0.001863	0.371175
	C123	C	0.385492	0.984182	0.370711
	C124	C	0.631930	0.367651	0.000905
	C125	C	0.628019	0.612496	0.983481
	C126	C	0.386496	0.615260	0.001277
	C127	C	0.389193	0.371775	0.982869
	C128	C	0.017689	0.615777	0.368005
	C129	C	0.999422	0.612540	0.610243
	C130	C	0.016998	0.369899	0.612798
	C131	C	0.998512	0.372545	0.370456
	C132	C	0.886275	0.502007	0.112789
	C133	C	0.131304	0.485219	0.113513
	C134	C	0.130780	0.501374	0.868885
	C135	C	0.885814	0.483680	0.868128
	C136	C	0.130553	0.868485	0.500858
	C137	C	0.127356	0.112278	0.483538
	C138	C	0.885925	0.115305	0.501281
	C139	C	0.887988	0.872007	0.483198
	C140	C	0.517638	0.114073	0.871083
	C141	C	0.499610	0.112954	0.112808
	C142	C	0.517075	0.868964	0.115449
	C143	C	0.499729	0.871284	0.872533
	C144	C	0.390870	0.878099	0.671426
	C145	C	0.625705	0.107916	0.669421
	C146	C	0.628945	0.878263	0.317718
	C147	C	0.386424	0.107338	0.314203
	C148	C	0.684905	0.372908	0.875566
	C149	C	0.682817	0.606175	0.108371
	C150	C	0.331989	0.614096	0.876143
	C151	C	0.335173	0.374920	0.107812
	C152	C	0.893489	0.672840	0.367996
	C153	C	0.124090	0.665819	0.609631
	C154	C	0.892610	0.316124	0.611844
	C155	C	0.122491	0.315344	0.372232
	C156	C	0.892231	0.374608	0.667784
	C157	C	0.124409	0.607939	0.665807
	C158	C	0.892330	0.613742	0.313252
	C159	C	0.124034	0.374968	0.317455
	C160	C	0.387099	0.672764	0.877451
	C161	C	0.628130	0.665442	0.108088
	C162	C	0.629340	0.313934	0.876401
	C163	C	0.390640	0.315653	0.107340
	C164	C	0.686152	0.878457	0.376090
	C165	C	0.684477	0.107964	0.612419
	C166	C	0.333293	0.877707	0.613620
	C167	C	0.328512	0.107242	0.372397
	C168	C	0.891725	0.379139	0.169376
	C169	C	0.125965	0.608649	0.166435
	C170	C	0.128894	0.377920	0.815798
	C171	C	0.886648	0.606874	0.811995
	C172	C	0.185236	0.873666	0.376327
	C173	C	0.180476	0.106246	0.609168
	C174	C	0.829877	0.113532	0.377137
	C175	C	0.835458	0.874680	0.608637
	C176	C	0.393647	0.171519	0.871492
	C177	C	0.624382	0.166129	0.112128
	C178	C	0.392707	0.815864	0.113113
	C179	C	0.623848	0.814307	0.874220
	C180	C	0.392093	0.875041	0.168873
	C181	C	0.624454	0.107845	0.167851
	C182	C	0.392371	0.112440	0.816752
	C183	C	0.624338	0.872952	0.818003
	C184	C	0.884928	0.172175	0.377608
	C185	C	0.126922	0.167068	0.607601
	C186	C	0.128650	0.816005	0.375826
	C187	C	0.889918	0.814409	0.606835
	C188	C	0.187608	0.378434	0.872976
	C189	C	0.184039	0.608377	0.108945
	C190	C	0.834923	0.378112	0.111160
	C191	C	0.828480	0.606256	0.869587
	C192	C	0.405273	0.087410	0.592761
	C193	C	0.610326	0.899180	0.594318
	C194	C	0.606939	0.087411	0.391912
	C195	C	0.408778	0.898539	0.393450
	C196	C	0.610650	0.388500	0.088046
	C197	C	0.604587	0.592165	0.896659
	C198	C	0.408912	0.592081	0.088265
	C199	C	0.411661	0.393887	0.896039
	C200	C	0.104527	0.593252	0.390576
	C201	C	0.912726	0.592110	0.587623
	C202	C	0.103939	0.390792	0.590438
	C203	C	0.911356	0.395095	0.391903
	C204	C	0.906054	0.587809	0.089607
	C205	C	0.110748	0.399068	0.092950
	C206	C	0.107779	0.587480	0.889649
	C207	C	0.909634	0.398023	0.891075
	C208	C	0.108529	0.888489	0.587920
	C209	C	0.105077	0.091832	0.396366
	C210	C	0.909468	0.092778	0.588123
	C211	C	0.909763	0.894837	0.396375
	C212	C	0.604665	0.091022	0.893587
	C213	C	0.412477	0.092686	0.090109
	C214	C	0.604373	0.888851	0.093694
	C215	C	0.412847	0.894308	0.894811
	Zn216	Zn	0.508024	-0.007015	0.744339
	Zn217	Zn	0.508487	-0.007160	0.241735
	Zn218	Zn	0.757276	0.491463	-0.008354
	Zn219	Zn	0.260531	0.493486	-0.008653
	Zn220	Zn	0.008867	0.741794	0.490429
	Zn221	Zn	0.007546	0.242556	0.491176
	Zn222	Zn	0.008093	0.492298	0.739710
	Zn223	Zn	0.008230	0.494106	0.241972
	Zn224	Zn	0.508331	0.741346	-0.006821
	Zn225	Zn	0.509556	0.241570	-0.007820
	Zn226	Zn	0.759762	-0.006248	0.493340
	Zn227	Zn	0.256490	-0.008072	0.493105
	N228	N	0.422716	0.956014	0.672644
	N229	N	0.593432	0.030395	0.671632
	N230	N	0.594546	0.955772	0.314705
	N231	N	0.421158	0.029942	0.313010
	N232	N	0.686735	0.405449	0.953992
	N233	N	0.682802	0.573594	0.029847
	N234	N	0.331709	0.578871	0.954030
	N235	N	0.334025	0.409045	0.029368
	N236	N	0.972241	0.674220	0.401376
	N237	N	0.045594	0.668665	0.575570
	N238	N	0.971137	0.313203	0.578371
	N239	N	0.043578	0.313651	0.404506
	N240	N	0.970541	0.407324	0.668683
	N241	N	0.046138	0.575278	0.666399
	N242	N	0.970522	0.579116	0.312848
	N243	N	0.045872	0.410033	0.316214
	N244	N	0.420219	0.673712	0.956367
	N245	N	0.594752	0.669355	0.029452
	N246	N	0.597510	0.310329	0.955414
	N247	N	0.423654	0.313580	0.028774
	N248	N	0.687294	0.956022	0.408444
	N249	N	0.687977	0.030395	0.579854
	N250	N	0.329728	0.955216	0.579598
	N251	N	0.327725	0.029755	0.406774
	N252	N	0.922874	0.457086	0.170494
	N253	N	0.093872	0.530893	0.169570
	N254	N	0.094186	0.455395	0.813137
	N255	N	0.921818	0.529592	0.811217
	N256	N	0.186687	0.905627	0.455119
	N257	N	0.180669	0.072824	0.531129
	N258	N	0.830586	0.078707	0.455200
	N259	N	0.834232	0.910033	0.530858
	N260	N	0.472416	0.172551	0.904655
	N261	N	0.545584	0.169626	0.078691
	N262	N	0.471622	0.811831	0.080924
	N263	N	0.545308	0.813129	0.907270
	N264	N	0.470479	0.907283	0.170655
	N265	N	0.545890	0.075487	0.168177
	N266	N	0.470475	0.077541	0.816277
	N267	N	0.546112	0.907672	0.816895
	N268	N	0.919553	0.173200	0.455656
	N269	N	0.094528	0.170911	0.528394
	N270	N	0.095465	0.812665	0.454223
	N271	N	0.921967	0.812751	0.527824
	N272	N	0.188939	0.456178	0.905130
	N273	N	0.187234	0.530752	0.076754
	N274	N	0.831666	0.455280	0.076315
	N275	N	0.827743	0.528781	0.903726
	O276	O	0.943926	0.956662	0.074022
	H277	H	0.945053	0.952053	0.069885
	H278	H	0.933077	0.965144	0.071311
	O279	O	-0.088218	0.047326	0.910071
	H280	H	-0.081442	0.038224	0.897457
	H281	H	-0.101420	0.057288	0.902476
	O282	O	0.044937	-0.006157	-0.007609
	H283	H	0.037545	0.003246	-0.015380
	H284	H	0.054477	-0.009794	-0.004480
	O285	O	0.444068	0.497560	0.540698
	H286	H	0.443363	0.498366	0.540226
	H287	H	0.446012	0.503355	0.538100
	O288	O	-0.004383	0.008716	-0.016189
	H289	H	-0.009863	0.015257	-0.011916
	H290	H	0.002023	0.004969	-0.006252
	O291	O	0.031988	0.959984	-0.072561
	H292	H	0.033361	0.956601	-0.071588
	H293	H	0.027852	0.945203	-0.072360
	O294	O	0.012692	0.953067	-0.067739
	H295	H	0.015054	0.958454	-0.066112
	H296	H	0.016606	0.949672	-0.069043
	O297	O	0.543132	0.514073	0.570202
	H298	H	0.534433	0.517389	0.566878
	H299	H	0.547319	0.518725	0.579950
	O300	O	0.518994	0.575503	0.549599
	H301	H	0.515611	0.575254	0.539011
	H302	H	0.521819	0.575416	0.545748
	O303	O	0.948295	-0.019731	0.989009
	H304	H	0.937939	-0.017555	0.985310
	H305	H	0.950536	-0.011921	0.993825
	O306	O	-0.097130	1.066829	0.925927
	H307	H	-0.093762	1.069559	0.917768
	H308	H	-0.087746	1.074964	0.925384
	O309	O	-0.041527	1.077101	0.996051
	H310	H	-0.041026	1.084748	0.997334
	H311	H	-0.026823	1.067637	0.989124
	O312	O	0.025934	-0.052431	1.034160
	H313	H	0.013026	-0.039778	1.035257
	H314	H	0.028506	-0.060207	1.041135
	O315	O	0.490036	0.561029	0.456695
	H316	H	0.486524	0.556490	0.461354
	H317	H	0.492526	0.569959	0.454446
	O318	O	-0.026623	-0.036152	0.938165
	H319	H	-0.021198	-0.034816	0.939403
	H320	H	-0.030502	-0.028839	0.948079
	O321	O	0.008648	1.079158	0.963259
	H322	H	0.008343	1.083112	0.967724
	H323	H	0.014460	1.084865	0.960350
	O324	O	1.042291	-0.019682	1.002223
	H325	H	1.043339	-0.021568	1.008446
	H326	H	1.045415	-0.024257	1.002813
	O327	O	1.072452	0.969829	1.024351
	H328	H	1.068426	0.960262	1.022724
	H329	H	1.075048	0.962690	1.027592
	O330	O	0.449960	0.485157	0.564400
	H331	H	0.442484	0.491565	0.568300
	H332	H	0.449417	0.482782	0.559557
	O333	O	0.430745	0.591329	0.482862
	H334	H	0.424503	0.601184	0.482108
	H335	H	0.438329	0.577605	0.488447
	O336	O	0.480293	0.537477	0.459261
	H337	H	0.481378	0.534102	0.456851
	H338	H	0.484962	0.543673	0.466725
	O339	O	0.505757	0.498970	0.447016
	H340	H	0.506171	0.496556	0.456667
	H341	H	0.504959	0.488122	0.457038
	O342	O	0.494630	0.511793	0.477624
	H343	H	0.490784	0.509802	0.476939
	H344	H	0.499709	0.509253	0.476490
	O345	O	0.526426	0.549097	0.565379
	H346	H	0.522186	0.553007	0.562170
	H347	H	0.524720	0.556572	0.562958
