data_Molecule from HDF5

_cell_length_a		16.127901
_cell_length_b		16.206113
_cell_length_c		16.341606
_cell_angle_alpha	90.487922
_cell_angle_beta	90.191148
_cell_angle_gamma	90.309871
_symmetry_space_group_name_H-M	'P 1'
_symmetry_Int_Tables_number		1

loop_
	_symmetry_equiv_pos_as_xyz
	x,y,z

loop_
	_atom_site_label
	_atom_site_type_symbol
	_atom_site_fract_x
	_atom_site_fract_y
	_atom_site_fract_z
	H0	H	0.399690	0.849576	0.716893
	H1	H	0.605517	0.176554	0.721639
	H2	H	0.600793	0.850668	0.283711
	H3	H	0.399137	0.177667	0.287660
	H4	H	0.713997	0.416506	0.838104
	H5	H	0.718770	0.616461	0.165564
	H6	H	0.287338	0.609425	0.838381
	H7	H	0.285951	0.416288	0.165189
	H8	H	0.834827	0.725776	0.403847
	H9	H	0.165229	0.729617	0.601638
	H10	H	0.835041	0.301967	0.596711
	H11	H	0.166011	0.301171	0.403951
	H12	H	0.836689	0.413075	0.714792
	H13	H	0.165366	0.616039	0.717326
	H14	H	0.836902	0.611961	0.286200
	H15	H	0.165995	0.414003	0.287242
	H16	H	0.402537	0.726745	0.837805
	H17	H	0.601326	0.732374	0.165159
	H18	H	0.599901	0.297544	0.839495
	H19	H	0.401946	0.301048	0.165632
	H20	H	0.712141	0.848643	0.403175
	H21	H	0.714490	0.178737	0.599724
	H22	H	0.287414	0.849183	0.597856
	H23	H	0.289229	0.179454	0.407992
	H24	H	0.900621	0.350135	0.214658
	H25	H	0.105424	0.676997	0.220755
	H26	H	0.100337	0.350682	0.784650
	H27	H	0.901429	0.678521	0.787770
	H28	H	0.213326	0.915334	0.338798
	H29	H	0.215905	0.114655	0.665364
	H30	H	0.785325	0.110302	0.339171
	H31	H	0.785815	0.917214	0.665888
	H32	H	0.335604	0.224267	0.905966
	H33	H	0.665932	0.229869	0.103258
	H34	H	0.335398	0.800665	0.097812
	H35	H	0.667107	0.801019	0.903638
	H36	H	0.335483	0.913473	0.214521
	H37	H	0.664482	0.115698	0.220018
	H38	H	0.336883	0.112645	0.787168
	H39	H	0.665399	0.912984	0.786439
	H40	H	0.901302	0.226042	0.338632
	H41	H	0.100245	0.232432	0.664382
	H42	H	0.100438	0.796522	0.340078
	H43	H	0.901498	0.800263	0.665563
	H44	H	0.212086	0.348658	0.904038
	H45	H	0.216099	0.679283	0.100324
	H46	H	0.787263	0.349658	0.098081
	H47	H	0.790649	0.679568	0.907395
	H48	H	0.402693	0.133726	0.597770
	H49	H	0.589992	0.896169	0.596010
	H50	H	0.598910	0.133876	0.408963
	H51	H	0.406033	0.899311	0.416738
	H52	H	0.595332	0.419653	0.119148
	H53	H	0.588467	0.600912	0.889615
	H54	H	0.407273	0.598210	0.114786
	H55	H	0.407279	0.423003	0.886314
	H56	H	0.120714	0.610280	0.408444
	H57	H	0.881788	0.615463	0.588834
	H58	H	0.122524	0.415768	0.597441
	H59	H	0.887288	0.433846	0.405978
	H60	H	0.116343	0.424293	0.586549
	H61	H	0.886609	0.596256	0.591293
	H62	H	0.116704	0.605376	0.416069
	H63	H	0.877809	0.414430	0.394789
	H64	H	0.420259	0.612007	0.116285
	H65	H	0.592460	0.617033	0.883880
	H66	H	0.597102	0.424787	0.118686
	H67	H	0.411435	0.415927	0.886819
	H68	H	0.586866	0.129980	0.405448
	H69	H	0.592071	0.897503	0.593482
	H70	H	0.415459	0.131992	0.602886
	H71	H	0.398232	0.892053	0.401550
	H72	H	0.911452	0.632871	0.099140
	H73	H	0.093406	0.392166	0.108322
	H74	H	0.096802	0.630835	0.915478
	H75	H	0.906541	0.395980	0.906121
	H76	H	0.099256	0.917327	0.622326
	H77	H	0.091348	0.104258	0.387136
	H78	H	0.912662	0.105489	0.616244
	H79	H	0.908348	0.918073	0.386549
	H80	H	0.622060	0.108038	0.901907
	H81	H	0.380752	0.114949	0.094301
	H82	H	0.617631	0.925642	0.094099
	H83	H	0.383891	0.916580	0.912179
	H84	H	0.618796	0.923824	0.096651
	H85	H	0.385058	0.103612	0.090508
	H86	H	0.620327	0.113408	0.916921
	H87	H	0.385115	0.925981	0.909531
	H88	H	0.910235	0.115324	0.620065
	H89	H	0.093605	0.111326	0.385389
	H90	H	0.096031	0.928628	0.617519
	H91	H	0.905384	0.918235	0.385614
	H92	H	0.099203	0.634293	0.903986
	H93	H	0.081211	0.402594	0.087968
	H94	H	0.915225	0.629865	0.094854
	H95	H	0.909378	0.396606	0.904975
	H96	H	0.413552	0.127848	0.590806
	H97	H	0.593301	0.895886	0.595856
	H98	H	0.590090	0.127941	0.416960
	H99	H	0.416157	0.897812	0.401671
	H100	H	0.591734	0.424485	0.116558
	H101	H	0.605307	0.604021	0.884274
	H102	H	0.401644	0.615231	0.121909
	H103	H	0.403434	0.416845	0.883732
	H104	H	0.118245	0.600791	0.407433
	H105	H	0.879194	0.605909	0.606470
	H106	H	0.118471	0.429985	0.599878
	H107	H	0.884023	0.412599	0.417978
	H108	H	0.908386	0.631937	0.093721
	H109	H	0.105263	0.395245	0.086820
	H110	H	0.087940	0.629255	0.908152
	H111	H	0.908528	0.396922	0.907983
	H112	H	0.087347	0.919604	0.617879
	H113	H	0.098573	0.106136	0.384585
	H114	H	0.901858	0.107474	0.620204
	H115	H	0.906321	0.921019	0.386364
	H116	H	0.616441	0.097869	0.912811
	H117	H	0.380519	0.104867	0.102152
	H118	H	0.618485	0.922501	0.092842
	H119	H	0.381770	0.919600	0.902770
	C120	C	0.380487	0.022400	0.624364
	C121	C	0.622123	1.004973	0.624158
	C122	C	0.620713	0.021925	0.380644
	C123	C	0.378771	1.005449	0.380148
	C124	C	0.622835	0.393401	0.010444
	C125	C	0.624312	0.637191	0.993724
	C126	C	0.380400	0.635871	0.009810
	C127	C	0.378993	0.391535	0.993739
	C128	C	0.009500	0.634188	0.381437
	C129	C	0.991750	0.635497	0.623821
	C130	C	0.009703	0.394132	0.621925
	C131	C	0.992415	0.391971	0.378934
	C132	C	0.881540	0.522442	0.122975
	C133	C	0.123489	0.505467	0.123700
	C134	C	0.122562	0.522782	0.879970
	C135	C	0.879587	0.505357	0.878954
	C136	C	0.122534	0.892266	0.511064
	C137	C	0.123434	0.137110	0.493351
	C138	C	0.879089	0.135982	0.510708
	C139	C	0.877979	0.891452	0.494051
	C140	C	0.510180	0.134413	0.882077
	C141	C	0.491622	0.136807	0.124806
	C142	C	0.509188	0.893849	0.122683
	C143	C	0.492878	0.892412	0.880319
	C144	C	0.380479	0.898805	0.678921
	C145	C	0.623386	0.128098	0.681514
	C146	C	0.619948	0.899075	0.322911
	C147	C	0.380185	0.128946	0.325863
	C148	C	0.676754	0.395832	0.887046
	C149	C	0.680341	0.635931	0.116800
	C150	C	0.325302	0.630987	0.886821
	C151	C	0.324146	0.395621	0.116626
	C152	C	0.884832	0.688701	0.383610
	C153	C	0.115939	0.691583	0.621830
	C154	C	0.884846	0.338909	0.618069
	C155	C	0.116716	0.337994	0.382728
	C156	C	0.885634	0.394319	0.676733
	C157	C	0.116122	0.635064	0.679343
	C158	C	0.885670	0.632046	0.325014
	C159	C	0.116664	0.394313	0.324809
	C160	C	0.382426	0.689376	0.886691
	C161	C	0.622509	0.694268	0.116463
	C162	C	0.620634	0.336076	0.887977
	C163	C	0.381608	0.338087	0.116642
	C164	C	0.675061	0.898045	0.382771
	C165	C	0.677866	0.129063	0.621494
	C166	C	0.324577	0.898554	0.619799
	C167	C	0.325366	0.129860	0.385730
	C168	C	0.881847	0.398798	0.176762
	C169	C	0.123751	0.628563	0.180951
	C170	C	0.119929	0.399300	0.823539
	C171	C	0.881502	0.629170	0.824913
	C172	C	0.176488	0.894605	0.387961
	C173	C	0.178683	0.135538	0.616304
	C174	C	0.823555	0.131257	0.387891
	C175	C	0.823488	0.895652	0.616931
	C176	C	0.385431	0.188000	0.884867
	C177	C	0.616222	0.192337	0.123452
	C178	C	0.384658	0.838033	0.118876
	C179	C	0.617469	0.837969	0.883131
	C180	C	0.384767	0.894114	0.176981
	C181	C	0.615682	0.135401	0.181361
	C182	C	0.386070	0.132399	0.825924
	C183	C	0.616704	0.893707	0.824785
	C184	C	0.881282	0.188781	0.387452
	C185	C	0.121098	0.193785	0.615978
	C186	C	0.120409	0.835319	0.388702
	C187	C	0.880906	0.837710	0.616767
	C188	C	0.175319	0.398010	0.883098
	C189	C	0.179024	0.629678	0.121383
	C190	C	0.825285	0.398705	0.118846
	C191	C	0.826172	0.629813	0.884391
	C192	C	0.403726	0.108893	0.603423
	C193	C	0.598865	0.918802	0.601586
	C194	C	0.598324	0.108235	0.403651
	C195	C	0.400539	0.918772	0.400584
	C196	C	0.601172	0.416207	0.095864
	C197	C	0.601868	0.614209	0.908072
	C198	C	0.402945	0.614742	0.095669
	C199	C	0.400824	0.412570	0.907708
	C200	C	0.096312	0.611920	0.404114
	C201	C	0.904994	0.612627	0.602074
	C202	C	0.096607	0.416647	0.600785
	C203	C	0.905433	0.413746	0.400090
	C204	C	0.904786	0.609019	0.102051
	C205	C	0.100240	0.419034	0.101008
	C206	C	0.100948	0.609123	0.902546
	C207	C	0.901604	0.418869	0.899980
	C208	C	0.100482	0.915014	0.597118
	C209	C	0.101061	0.113901	0.407773
	C210	C	0.901639	0.115615	0.596652
	C211	C	0.900006	0.912991	0.408299
	C212	C	0.597132	0.112790	0.904172
	C213	C	0.404837	0.114299	0.102350
	C214	C	0.595794	0.917189	0.101043
	C215	C	0.406018	0.914304	0.902000
	Zn216	Zn	0.501666	0.013670	0.752978
	Zn217	Zn	0.499727	0.014069	0.251309
	Zn218	Zn	0.753159	0.514601	0.001912
	Zn219	Zn	0.250938	0.513882	0.001682
	Zn220	Zn	0.000240	0.763061	0.502661
	Zn221	Zn	0.000822	0.265401	0.501408
	Zn222	Zn	0.001048	0.514514	0.750918
	Zn223	Zn	0.001878	0.513546	0.251823
	Zn224	Zn	0.501432	0.765636	0.001638
	Zn225	Zn	0.500919	0.263401	0.002702
	Zn226	Zn	0.749553	0.013791	0.502284
	Zn227	Zn	0.251719	0.014013	0.502649
	N228	N	0.414705	0.976788	0.681664
	N229	N	0.589468	0.050187	0.683299
	N230	N	0.586818	0.977244	0.321616
	N231	N	0.412770	0.050548	0.322356
	N232	N	0.678309	0.430698	0.964134
	N233	N	0.681608	0.601336	0.039437
	N234	N	0.324047	0.598307	0.964302
	N235	N	0.322472	0.428103	0.039061
	N236	N	0.963001	0.690022	0.418008
	N237	N	0.037754	0.691882	0.587895
	N238	N	0.963073	0.338733	0.584596
	N239	N	0.038356	0.336274	0.415643
	N240	N	0.964216	0.427688	0.679436
	N241	N	0.037765	0.601084	0.680842
	N242	N	0.964241	0.599295	0.323496
	N243	N	0.038295	0.427109	0.322373
	N244	N	0.415882	0.692498	0.964240
	N245	N	0.588290	0.695039	0.039257
	N246	N	0.587616	0.334471	0.965506
	N247	N	0.415132	0.335608	0.039262
	N248	N	0.675784	0.975443	0.417875
	N249	N	0.676999	0.051497	0.586321
	N250	N	0.324375	0.976397	0.586653
	N251	N	0.324252	0.051988	0.418542
	N252	N	0.916082	0.476858	0.179445
	N253	N	0.089984	0.550337	0.182416
	N254	N	0.087922	0.477820	0.821604
	N255	N	0.914013	0.550780	0.821589
	N256	N	0.178144	0.929274	0.465211
	N257	N	0.179778	0.100717	0.539150
	N258	N	0.821895	0.099280	0.465525
	N259	N	0.821502	0.928362	0.539487
	N260	N	0.463606	0.189287	0.919164
	N261	N	0.538290	0.193141	0.089110
	N262	N	0.463057	0.837641	0.085934
	N263	N	0.539272	0.836909	0.916800
	N264	N	0.463242	0.927961	0.179411
	N265	N	0.537254	0.101587	0.182434
	N266	N	0.464568	0.099688	0.824190
	N267	N	0.538312	0.926642	0.822804
	N268	N	0.915188	0.191825	0.464881
	N269	N	0.087518	0.194851	0.538648
	N270	N	0.087546	0.834041	0.466300
	N271	N	0.913902	0.834955	0.539337
	N272	N	0.177315	0.475901	0.917447
	N273	N	0.178795	0.552186	0.086343
	N274	N	0.825197	0.476584	0.086100
	N275	N	0.824808	0.552019	0.917176
	O276	O	0.503755	0.487107	0.498249
	H277	H	0.504593	0.500790	0.493737
	H278	H	0.500593	0.490489	0.495834
	O279	O	0.496242	0.489178	0.483946
	H280	H	0.492758	0.483982	0.481339
	H281	H	0.500583	0.485469	0.480161
	O282	O	0.508456	0.566160	0.555501
	H283	H	0.516867	0.572580	0.551888
	H284	H	0.508063	0.558520	0.563562
	O285	O	0.002785	0.976606	1.034393
	H286	H	0.005294	0.971840	1.022673
	H287	H	-0.005963	0.977853	1.029626
	O288	O	0.535489	0.453859	0.550639
	H289	H	0.534022	0.450888	0.549239
	H290	H	0.522166	0.464329	0.549917
	O291	O	0.024042	-0.036403	1.008621
	H292	H	0.017250	-0.038344	1.011550
	H293	H	0.022326	-0.037792	1.015344
	O294	O	0.472004	0.483276	0.438602
	H295	H	0.468308	0.489207	0.433625
	H296	H	0.472982	0.475957	0.427369
	O297	O	0.570224	0.483476	0.497352
	H298	H	0.576854	0.492340	0.495622
	H299	H	0.565781	0.473855	0.496314
	O300	O	0.488023	0.483441	0.500044
	H301	H	0.489973	0.472936	0.488350
	H302	H	0.485750	0.479483	0.516170
	O303	O	0.502902	0.566218	0.543820
	H304	H	0.502235	0.569083	0.535063
	H305	H	0.500768	0.571017	0.546799
	O306	O	1.025435	0.020911	1.021441
	H307	H	1.021419	0.018672	1.004992
	H308	H	1.038653	0.021136	1.021357
	O309	O	0.212609	0.206771	0.233747
	H310	H	0.215168	0.208858	0.245926
	H311	H	0.208350	0.212205	0.227701
	O312	O	0.481577	0.468479	0.380111
	H313	H	0.494009	0.464508	0.377345
	H314	H	0.478980	0.472541	0.363025
	O315	O	1.057696	0.008654	1.065898
	H316	H	1.062987	0.008877	1.080971
	H317	H	1.053236	0.013525	1.072811
	O318	O	0.005504	0.013885	0.047995
	H319	H	0.003486	0.014507	0.051726
	H320	H	0.013545	0.014250	0.051124
	O321	O	0.551232	0.516414	0.462220
	H322	H	0.538754	0.524755	0.477588
	H323	H	0.557584	0.524683	0.467475
	O324	O	1.402030	-0.448251	-0.505825
	H325	H	1.402252	-0.438565	-0.508272
	H326	H	1.403190	-0.442728	-0.509416
	O327	O	0.528914	0.572279	0.572562
	H328	H	0.532417	0.568260	0.588297
	H329	H	0.532715	0.579159	0.576512
	O330	O	0.497171	0.460227	0.493855
	H331	H	0.499467	0.453240	0.502884
	H332	H	0.498946	0.454883	0.494409
	O333	O	0.029221	-0.040519	0.064776
	H334	H	0.021553	-0.041802	0.071716
	H335	H	0.034710	-0.042288	0.068395
