data_Molecule from HDF5

_cell_length_a		16.293833
_cell_length_b		16.231555
_cell_length_c		16.196709
_cell_angle_alpha	89.926873
_cell_angle_beta	90.138501
_cell_angle_gamma	90.127966
_symmetry_space_group_name_H-M	'P 1'
_symmetry_Int_Tables_number		1

loop_
	_symmetry_equiv_pos_as_xyz
	x,y,z

loop_
	_atom_site_label
	_atom_site_type_symbol
	_atom_site_fract_x
	_atom_site_fract_y
	_atom_site_fract_z
	H0	H	0.395530	0.834052	0.709076
	H1	H	0.591827	0.163289	0.707453
	H2	H	0.589666	0.834583	0.281603
	H3	H	0.394415	0.163051	0.280183
	H4	H	0.706492	0.399653	0.830784
	H5	H	0.709879	0.598990	0.157867
	H6	H	0.278979	0.598515	0.831204
	H7	H	0.280384	0.398792	0.159442
	H8	H	0.828746	0.711712	0.395199
	H9	H	0.156733	0.712325	0.592059
	H10	H	0.829470	0.283087	0.593105
	H11	H	0.156632	0.283598	0.396027
	H12	H	0.829858	0.398850	0.709510
	H13	H	0.157121	0.596994	0.708293
	H14	H	0.829048	0.595655	0.278875
	H15	H	0.157341	0.401561	0.282261
	H16	H	0.396709	0.711797	0.830638
	H17	H	0.592155	0.711888	0.159958
	H18	H	0.590539	0.285936	0.830281
	H19	H	0.396461	0.285312	0.159664
	H20	H	0.706231	0.834369	0.395817
	H21	H	0.709041	0.161397	0.593141
	H22	H	0.277804	0.834937	0.594848
	H23	H	0.277524	0.161963	0.394473
	H24	H	0.896352	0.332885	0.206992
	H25	H	0.090412	0.663805	0.207356
	H26	H	0.091062	0.334122	0.781792
	H27	H	0.896981	0.663024	0.781250
	H28	H	0.207066	0.898686	0.330962
	H29	H	0.207691	0.096844	0.658851
	H30	H	0.778708	0.096153	0.330421
	H31	H	0.778706	0.897784	0.658536
	H32	H	0.329532	0.214030	0.896078
	H33	H	0.657177	0.213553	0.093726
	H34	H	0.329935	0.784851	0.091752
	H35	H	0.657348	0.784689	0.896752
	H36	H	0.329621	0.900780	0.207783
	H37	H	0.656877	0.096699	0.209407
	H38	H	0.329017	0.096831	0.780468
	H39	H	0.657795	0.902321	0.782936
	H40	H	0.894662	0.211341	0.330448
	H41	H	0.092258	0.212276	0.659308
	H42	H	0.088945	0.785041	0.330242
	H43	H	0.893879	0.782792	0.658776
	H44	H	0.207278	0.334833	0.897828
	H45	H	0.208624	0.662805	0.093521
	H46	H	0.778673	0.334361	0.093276
	H47	H	0.779614	0.662370	0.895009
	H48	H	0.402467	0.114011	0.585271
	H49	H	0.579586	0.879471	0.601170
	H50	H	0.570967	0.110677	0.404323
	H51	H	0.396554	0.878893	0.393576
	H52	H	0.586342	0.405857	0.112478
	H53	H	0.577607	0.585035	0.881726
	H54	H	0.402198	0.594063	0.112877
	H55	H	0.401636	0.401825	0.876780
	H56	H	0.108128	0.587787	0.402156
	H57	H	0.874800	0.600264	0.582823
	H58	H	0.110777	0.406450	0.592827
	H59	H	0.877985	0.410747	0.399504
	H60	H	0.110454	0.400699	0.585301
	H61	H	0.880474	0.582298	0.582627
	H62	H	0.110901	0.593032	0.397061
	H63	H	0.872913	0.400865	0.393834
	H64	H	0.398069	0.591889	0.114210
	H65	H	0.584966	0.603309	0.874083
	H66	H	0.587405	0.406362	0.112984
	H67	H	0.395065	0.407481	0.876348
	H68	H	0.598468	0.115159	0.415307
	H69	H	0.579844	0.885729	0.577398
	H70	H	0.397703	0.115696	0.585608
	H71	H	0.408114	0.884663	0.403705
	H72	H	0.892283	0.617197	0.084579
	H73	H	0.095404	0.376006	0.096951
	H74	H	0.086688	0.615485	0.902172
	H75	H	0.896616	0.378909	0.900436
	H76	H	0.095387	0.907160	0.614469
	H77	H	0.083338	0.086375	0.378744
	H78	H	0.906017	0.084634	0.608823
	H79	H	0.897523	0.906923	0.376723
	H80	H	0.609872	0.092432	0.899291
	H81	H	0.378562	0.089226	0.083942
	H82	H	0.611335	0.900443	0.087231
	H83	H	0.374355	0.901656	0.898089
	H84	H	0.608791	0.908954	0.086534
	H85	H	0.375501	0.091115	0.092832
	H86	H	0.611063	0.095317	0.901385
	H87	H	0.378551	0.902954	0.906845
	H88	H	0.902586	0.098067	0.613854
	H89	H	0.082828	0.095405	0.377105
	H90	H	0.080528	0.912220	0.608246
	H91	H	0.900239	0.903302	0.376574
	H92	H	0.089155	0.616795	0.901833
	H93	H	0.076512	0.384062	0.091931
	H94	H	0.904776	0.616294	0.095445
	H95	H	0.901930	0.381900	0.900006
	H96	H	0.401165	0.116495	0.589661
	H97	H	0.599655	0.877271	0.588079
	H98	H	0.591910	0.121301	0.387274
	H99	H	0.393132	0.881897	0.409913
	H100	H	0.586322	0.407056	0.112444
	H101	H	0.597175	0.586643	0.875974
	H102	H	0.402018	0.589781	0.111935
	H103	H	0.402667	0.409869	0.880203
	H104	H	0.108846	0.595141	0.404425
	H105	H	0.873744	0.589536	0.598412
	H106	H	0.107498	0.409698	0.584562
	H107	H	0.876083	0.400045	0.406096
	H108	H	0.906815	0.611461	0.079681
	H109	H	0.091399	0.383539	0.077159
	H110	H	0.086646	0.616206	0.899422
	H111	H	0.899275	0.381926	0.905048
	H112	H	0.082324	0.896485	0.614130
	H113	H	0.090816	0.090647	0.376043
	H114	H	0.892146	0.087311	0.614138
	H115	H	0.896551	0.902567	0.376091
	H116	H	0.609105	0.092369	0.903188
	H117	H	0.374589	0.097807	0.086903
	H118	H	0.612305	0.906210	0.094110
	H119	H	0.377167	0.910200	0.900254
	C120	C	0.371750	0.007186	0.616169
	C121	C	0.614816	0.989405	0.616703
	C122	C	0.614469	0.007157	0.373975
	C123	C	0.370735	0.990236	0.373232
	C124	C	0.614832	0.377673	0.003633
	C125	C	0.615200	0.620166	0.985963
	C126	C	0.372304	0.620194	0.004196
	C127	C	0.372029	0.377568	0.986663
	C128	C	0.001027	0.620006	0.372272
	C129	C	0.984626	0.619794	0.616268
	C130	C	0.001364	0.376547	0.616160
	C131	C	0.984507	0.376315	0.372531
	C132	C	0.872415	0.506505	0.115696
	C133	C	0.115481	0.490152	0.116641
	C134	C	0.115413	0.507548	0.873581
	C135	C	0.871617	0.489877	0.872992
	C136	C	0.114135	0.876758	0.503598
	C137	C	0.114562	0.119628	0.486187
	C138	C	0.871559	0.118646	0.503352
	C139	C	0.870722	0.875904	0.485459
	C140	C	0.501575	0.121528	0.872770
	C141	C	0.484903	0.120813	0.116555
	C142	C	0.502376	0.876947	0.116706
	C143	C	0.485173	0.877180	0.873709
	C144	C	0.374346	0.883254	0.671552
	C145	C	0.612230	0.113651	0.670431
	C146	C	0.610647	0.883495	0.319091
	C147	C	0.373591	0.113819	0.317911
	C148	C	0.669054	0.379712	0.879881
	C149	C	0.671159	0.618405	0.109258
	C150	C	0.316988	0.618289	0.880212
	C151	C	0.317664	0.378987	0.110250
	C152	C	0.877646	0.674042	0.374762
	C153	C	0.107851	0.674935	0.613079
	C154	C	0.878293	0.321341	0.613067
	C155	C	0.107842	0.321576	0.375709
	C156	C	0.878366	0.378916	0.670904
	C157	C	0.108069	0.617646	0.670868
	C158	C	0.877675	0.616478	0.316885
	C159	C	0.108217	0.380295	0.319230
	C160	C	0.375334	0.674710	0.879872
	C161	C	0.612974	0.674840	0.110209
	C162	C	0.611530	0.322991	0.879656
	C163	C	0.375401	0.322412	0.110333
	C164	C	0.668200	0.883369	0.376006
	C165	C	0.670714	0.112861	0.613955
	C166	C	0.316269	0.883521	0.614429
	C167	C	0.315405	0.113212	0.374549
	C168	C	0.875533	0.382369	0.169821
	C169	C	0.111603	0.614608	0.170337
	C170	C	0.111901	0.383213	0.819619
	C171	C	0.875599	0.613695	0.818450
	C172	C	0.169065	0.878581	0.379870
	C173	C	0.169734	0.117212	0.609907
	C174	C	0.816785	0.116226	0.379375
	C175	C	0.816365	0.877890	0.609722
	C176	C	0.378430	0.176392	0.875314
	C177	C	0.608297	0.175604	0.114022
	C178	C	0.378824	0.821990	0.112972
	C179	C	0.608598	0.822743	0.876541
	C180	C	0.378488	0.880113	0.170105
	C181	C	0.607991	0.117785	0.171999
	C182	C	0.378128	0.118046	0.818072
	C183	C	0.608699	0.881209	0.819940
	C184	C	0.873991	0.173714	0.379512
	C185	C	0.112227	0.174486	0.610068
	C186	C	0.110231	0.822537	0.379279
	C187	C	0.873819	0.821066	0.609938
	C188	C	0.169978	0.383833	0.876525
	C189	C	0.170009	0.614230	0.113605
	C190	C	0.816920	0.383111	0.113582
	C191	C	0.817456	0.613471	0.875073
	C192	C	0.393901	0.093143	0.593578
	C193	C	0.593124	0.903131	0.595144
	C194	C	0.593544	0.093466	0.395904
	C195	C	0.392838	0.904060	0.395591
	C196	C	0.592965	0.399885	0.090352
	C197	C	0.592924	0.598356	0.899370
	C198	C	0.394149	0.598264	0.090704
	C199	C	0.393310	0.399875	0.899985
	C200	C	0.087092	0.598443	0.394777
	C201	C	0.898478	0.597524	0.594371
	C202	C	0.087345	0.398935	0.593984
	C203	C	0.898171	0.397430	0.393614
	C204	C	0.894905	0.592801	0.093377
	C205	C	0.094136	0.403691	0.095041
	C206	C	0.093911	0.593719	0.894962
	C207	C	0.892921	0.403215	0.895259
	C208	C	0.092651	0.898868	0.589824
	C209	C	0.092259	0.097437	0.399593
	C210	C	0.893642	0.096469	0.589976
	C211	C	0.891825	0.897841	0.398921
	C212	C	0.587957	0.099777	0.894754
	C213	C	0.398535	0.099037	0.094409
	C214	C	0.588650	0.898732	0.095536
	C215	C	0.398864	0.898453	0.895474
	Zn216	Zn	0.493197	-0.001241	0.744896
	Zn217	Zn	0.492894	-0.001247	0.245335
	Zn218	Zn	0.743071	0.498492	-0.005141
	Zn219	Zn	0.243999	0.498765	-0.004645
	Zn220	Zn	-0.007809	0.748418	0.494981
	Zn221	Zn	-0.007036	0.247332	0.494656
	Zn222	Zn	-0.006437	0.497992	0.745047
	Zn223	Zn	-0.006769	0.498373	0.244095
	Zn224	Zn	0.494181	0.748349	-0.004829
	Zn225	Zn	0.493599	0.249837	-0.004797
	Zn226	Zn	0.743319	-0.002473	0.494829
	Zn227	Zn	0.242444	-0.001726	0.494779
	N228	N	0.408140	0.961045	0.672626
	N229	N	0.578182	0.036071	0.672201
	N230	N	0.577807	0.961408	0.317657
	N231	N	0.407351	0.036227	0.316863
	N232	N	0.671183	0.413054	0.958087
	N233	N	0.672494	0.585033	0.031166
	N234	N	0.315068	0.585026	0.958443
	N235	N	0.315685	0.412978	0.032372
	N236	N	0.955177	0.676340	0.408458
	N237	N	0.030024	0.676300	0.579811
	N238	N	0.955972	0.319692	0.580030
	N239	N	0.029806	0.318898	0.408157
	N240	N	0.956051	0.412477	0.672940
	N241	N	0.030546	0.583947	0.672855
	N242	N	0.955481	0.583519	0.315379
	N243	N	0.030546	0.413461	0.317017
	N244	N	0.409276	0.675868	0.957747
	N245	N	0.578631	0.675902	0.032506
	N246	N	0.578581	0.321611	0.957693
	N247	N	0.408519	0.321510	0.032375
	N248	N	0.670744	0.961177	0.409477
	N249	N	0.672520	0.034711	0.581138
	N250	N	0.314384	0.961402	0.580719
	N251	N	0.313602	0.035467	0.408358
	N252	N	0.909296	0.460161	0.171157
	N253	N	0.078619	0.536518	0.172472
	N254	N	0.078719	0.461078	0.817470
	N255	N	0.908385	0.535715	0.817018
	N256	N	0.171126	0.911910	0.457895
	N257	N	0.171117	0.083770	0.531891
	N258	N	0.815080	0.082730	0.457484
	N259	N	0.814228	0.911308	0.531563
	N260	N	0.456206	0.178492	0.908812
	N261	N	0.530610	0.177456	0.080355
	N262	N	0.456902	0.819974	0.080492
	N263	N	0.530737	0.820158	0.909282
	N264	N	0.456133	0.913344	0.172638
	N265	N	0.530319	0.084393	0.173437
	N266	N	0.455732	0.084755	0.816477
	N267	N	0.530842	0.914183	0.818009
	N268	N	0.907791	0.174820	0.457367
	N269	N	0.078620	0.175998	0.532101
	N270	N	0.076865	0.820977	0.457123
	N271	N	0.906712	0.819480	0.531768
	N272	N	0.172341	0.461967	0.909230
	N273	N	0.172666	0.536052	0.081099
	N274	N	0.814965	0.461287	0.080538
	N275	N	0.814965	0.535366	0.908526
	O276	O	0.505209	0.491509	0.533349
	H277	H	0.505718	0.488990	0.535344
	H278	H	0.495800	0.486409	0.532269
	O279	O	0.452856	0.508067	0.526499
	H280	H	0.460654	0.505191	0.531404
	H281	H	0.449712	0.511040	0.526549
	O282	O	0.450029	0.498926	0.526107
	H283	H	0.449007	0.486276	0.520680
	H284	H	0.445842	0.493664	0.516667
	O285	O	0.488047	0.532184	0.498940
	H286	H	0.487972	0.522033	0.490057
	H287	H	0.490152	0.538657	0.496873
	O288	O	0.461018	0.475479	0.498086
	H289	H	0.458592	0.484369	0.504128
	H290	H	0.462406	0.476217	0.504041
	O291	O	0.443994	0.533055	1.473256
	H292	H	0.438199	0.540737	1.470954
	H293	H	0.435038	0.526274	1.472469
	O294	O	0.445274	0.492607	0.480661
	H295	H	0.439102	0.494835	0.485728
	H296	H	0.449342	0.498665	0.484054
	O297	O	1.446001	0.516397	0.546949
	H298	H	1.445580	0.520317	0.553953
	H299	H	1.449214	0.516937	0.550545
