data_Molecule from HDF5

_cell_length_a		16.386606
_cell_length_b		16.027119
_cell_length_c		16.336993
_cell_angle_alpha	91.017142
_cell_angle_beta	89.607849
_cell_angle_gamma	89.445637
_symmetry_space_group_name_H-M	'P 1'
_symmetry_Int_Tables_number		1

loop_
	_symmetry_equiv_pos_as_xyz
	x,y,z

loop_
	_atom_site_label
	_atom_site_type_symbol
	_atom_site_fract_x
	_atom_site_fract_y
	_atom_site_fract_z
	H0	H	0.397588	0.834034	0.709686
	H1	H	0.595176	0.162598	0.716670
	H2	H	0.604045	0.835074	0.277365
	H3	H	0.395215	0.162788	0.287848
	H4	H	0.720370	0.389212	0.835937
	H5	H	0.717105	0.605825	0.158556
	H6	H	0.281151	0.598237	0.835992
	H7	H	0.277174	0.394366	0.156802
	H8	H	0.834985	0.713395	0.406189
	H9	H	0.162108	0.712417	0.597805
	H10	H	0.833375	0.290757	0.594001
	H11	H	0.159472	0.277638	0.396331
	H12	H	0.836621	0.400331	0.717027
	H13	H	0.159789	0.602024	0.717774
	H14	H	0.837776	0.604464	0.280906
	H15	H	0.159087	0.389990	0.275766
	H16	H	0.401598	0.708211	0.833014
	H17	H	0.595682	0.717286	0.160169
	H18	H	0.599413	0.276751	0.836199
	H19	H	0.401819	0.290327	0.162860
	H20	H	0.717715	0.834427	0.393403
	H21	H	0.710290	0.163780	0.604361
	H22	H	0.283856	0.835367	0.600156
	H23	H	0.280055	0.161533	0.401391
	H24	H	0.900665	0.333330	0.208717
	H25	H	0.100297	0.661997	0.216359
	H26	H	0.100658	0.333875	0.778655
	H27	H	0.900960	0.665294	0.792069
	H28	H	0.220090	0.889615	0.340097
	H29	H	0.213769	0.104504	0.662475
	H30	H	0.778275	0.102198	0.338793
	H31	H	0.779248	0.900149	0.660876
	H32	H	0.335685	0.212389	0.904769
	H33	H	0.661457	0.211224	0.097053
	H34	H	0.334782	0.786396	0.094052
	H35	H	0.660560	0.779347	0.895507
	H36	H	0.338309	0.894209	0.219363
	H37	H	0.657845	0.101868	0.218107
	H38	H	0.335590	0.099716	0.785328
	H39	H	0.658274	0.891394	0.774606
	H40	H	0.900896	0.209420	0.335028
	H41	H	0.093837	0.219024	0.661243
	H42	H	0.098237	0.779944	0.336842
	H43	H	0.903200	0.792227	0.664710
	H44	H	0.215939	0.332735	0.892755
	H45	H	0.212386	0.663535	0.099497
	H46	H	0.786357	0.334506	0.095191
	H47	H	0.781310	0.661321	0.898344
	H48	H	0.400321	0.116937	0.587213
	H49	H	0.589626	0.881344	0.582551
	H50	H	0.588272	0.113990	0.421182
	H51	H	0.411927	0.880868	0.405502
	H52	H	0.589831	0.396996	0.116688
	H53	H	0.594886	0.592612	0.878834
	H54	H	0.409858	0.586611	0.109149
	H55	H	0.414164	0.401322	0.883187
	H56	H	0.119711	0.597841	0.398329
	H57	H	0.882290	0.600113	0.590725
	H58	H	0.117418	0.399576	0.598103
	H59	H	0.881009	0.401681	0.403343
	H60	H	0.111132	0.404017	0.574818
	H61	H	0.885287	0.587322	0.596081
	H62	H	0.109399	0.588361	0.421505
	H63	H	0.885282	0.410179	0.406157
	H64	H	0.407334	0.597824	0.114439
	H65	H	0.597942	0.578271	0.882568
	H66	H	0.606720	0.411217	0.115956
	H67	H	0.403329	0.400854	0.879687
	H68	H	0.595392	0.120266	0.404718
	H69	H	0.593193	0.879558	0.585707
	H70	H	0.401325	0.120459	0.598891
	H71	H	0.411659	0.881740	0.409991
	H72	H	0.907764	0.616107	0.087162
	H73	H	0.094009	0.381303	0.079048
	H74	H	0.094750	0.615660	0.913512
	H75	H	0.912256	0.378084	0.897648
	H76	H	0.094323	0.916096	0.615126
	H77	H	0.089038	0.085710	0.384804
	H78	H	0.899108	0.108464	0.619756
	H79	H	0.908074	0.902708	0.383166
	H80	H	0.613353	0.091907	0.912868
	H81	H	0.383162	0.086737	0.096536
	H82	H	0.611084	0.906743	0.084195
	H83	H	0.380240	0.905379	0.893865
	H84	H	0.610650	0.913170	0.085750
	H85	H	0.379400	0.097544	0.099310
	H86	H	0.610748	0.076316	0.904703
	H87	H	0.380820	0.898319	0.907864
	H88	H	0.892956	0.084386	0.615285
	H89	H	0.094031	0.085693	0.384027
	H90	H	0.085227	0.904947	0.615594
	H91	H	0.903721	0.906606	0.382991
	H92	H	0.095469	0.619498	0.903998
	H93	H	0.093874	0.377872	0.090008
	H94	H	0.903390	0.618785	0.093782
	H95	H	0.915924	0.382854	0.909447
	H96	H	0.411235	0.116561	0.593159
	H97	H	0.588610	0.880342	0.587701
	H98	H	0.577659	0.113253	0.405554
	H99	H	0.408250	0.879494	0.407390
	H100	H	0.586874	0.418198	0.108286
	H101	H	0.584494	0.583858	0.885306
	H102	H	0.398578	0.588985	0.114184
	H103	H	0.408120	0.411800	0.883567
	H104	H	0.110539	0.572722	0.399136
	H105	H	0.879043	0.597852	0.603639
	H106	H	0.109613	0.421915	0.592144
	H107	H	0.882171	0.409641	0.397427
	H108	H	0.911262	0.617059	0.093824
	H109	H	0.084367	0.382246	0.085104
	H110	H	0.087087	0.615831	0.907143
	H111	H	0.904070	0.377809	0.907098
	H112	H	0.099440	0.903133	0.619963
	H113	H	0.092070	0.081291	0.385817
	H114	H	0.915536	0.091218	0.611248
	H115	H	0.908791	0.908941	0.384957
	H116	H	0.617310	0.089716	0.895877
	H117	H	0.383162	0.094903	0.088843
	H118	H	0.613642	0.908225	0.090097
	H119	H	0.385553	0.913338	0.906693
	C120	C	0.376245	0.008464	0.620799
	C121	C	0.618311	0.989617	0.618291
	C122	C	0.619914	0.007584	0.377211
	C123	C	0.378378	0.989025	0.379341
	C124	C	0.623698	0.375258	0.006701
	C125	C	0.621448	0.619374	0.988748
	C126	C	0.376650	0.619100	0.005213
	C127	C	0.378108	0.376398	0.988914
	C128	C	0.006522	0.618661	0.378119
	C129	C	0.989814	0.623178	0.624164
	C130	C	0.005686	0.379624	0.618544
	C131	C	0.989620	0.374850	0.373006
	C132	C	0.879056	0.507943	0.118613
	C133	C	0.120630	0.489255	0.117327
	C134	C	0.121972	0.507437	0.875895
	C135	C	0.880291	0.489434	0.878132
	C136	C	0.122608	0.875906	0.509362
	C137	C	0.119603	0.118055	0.491720
	C138	C	0.874257	0.122212	0.508157
	C139	C	0.877498	0.878702	0.491512
	C140	C	0.506419	0.117462	0.877499
	C141	C	0.488929	0.122118	0.122946
	C142	C	0.505893	0.878531	0.117703
	C143	C	0.489294	0.874425	0.872781
	C144	C	0.377713	0.883803	0.674116
	C145	C	0.615460	0.113459	0.677553
	C146	C	0.622075	0.884168	0.317228
	C147	C	0.376531	0.113205	0.324849
	C148	C	0.681034	0.371680	0.884806
	C149	C	0.677921	0.623133	0.110271
	C150	C	0.320322	0.617290	0.883794
	C151	C	0.318469	0.376836	0.109758
	C152	C	0.884229	0.676090	0.383201
	C153	C	0.112875	0.675979	0.619325
	C154	C	0.882808	0.326368	0.615626
	C155	C	0.111017	0.316182	0.375095
	C156	C	0.884485	0.381139	0.676811
	C157	C	0.111774	0.621078	0.679057
	C158	C	0.885449	0.621426	0.321174
	C159	C	0.110942	0.372460	0.315602
	C160	C	0.380262	0.672132	0.882346
	C161	C	0.617530	0.678918	0.111044
	C162	C	0.620831	0.315704	0.884677
	C163	C	0.380687	0.324836	0.112761
	C164	C	0.678936	0.883845	0.374799
	C165	C	0.672617	0.114057	0.621633
	C166	C	0.321527	0.884317	0.619070
	C167	C	0.319186	0.112506	0.381336
	C168	C	0.880672	0.382989	0.171975
	C169	C	0.119842	0.612967	0.177012
	C170	C	0.120422	0.383062	0.817684
	C171	C	0.881097	0.614938	0.827097
	C172	C	0.180151	0.872604	0.387941
	C173	C	0.174875	0.121585	0.613852
	C174	C	0.817538	0.121000	0.386728
	C175	C	0.819670	0.881239	0.613235
	C176	C	0.384467	0.174617	0.882678
	C177	C	0.611775	0.175858	0.119153
	C178	C	0.383623	0.823498	0.115401
	C179	C	0.611573	0.817159	0.874531
	C180	C	0.385594	0.877056	0.177892
	C181	C	0.610141	0.121392	0.179365
	C182	C	0.384233	0.118017	0.823429
	C183	C	0.610363	0.872934	0.814524
	C184	C	0.878837	0.174269	0.384666
	C185	C	0.115523	0.178726	0.613420
	C186	C	0.119610	0.817822	0.386396
	C187	C	0.880987	0.827160	0.614990
	C188	C	0.178110	0.382617	0.874170
	C189	C	0.175456	0.613654	0.118631
	C190	C	0.823999	0.383736	0.115626
	C191	C	0.821392	0.612985	0.879975
	C192	C	0.397871	0.095350	0.599430
	C193	C	0.596679	0.903015	0.592712
	C194	C	0.594594	0.093558	0.403076
	C195	C	0.403437	0.903019	0.401093
	C196	C	0.600933	0.401304	0.091652
	C197	C	0.598995	0.592863	0.904179
	C198	C	0.398727	0.597432	0.090245
	C199	C	0.401661	0.398273	0.904196
	C200	C	0.091166	0.593507	0.399853
	C201	C	0.904322	0.601418	0.603144
	C202	C	0.090533	0.401690	0.595135
	C203	C	0.904930	0.399872	0.395822
	C204	C	0.901060	0.594661	0.097812
	C205	C	0.097492	0.402884	0.092130
	C206	C	0.099017	0.594443	0.900927
	C207	C	0.903923	0.402186	0.898650
	C208	C	0.099551	0.900737	0.594860
	C209	C	0.097956	0.091750	0.406913
	C210	C	0.896002	0.100882	0.593365
	C211	C	0.900130	0.899980	0.405894
	C212	C	0.591911	0.093188	0.898370
	C213	C	0.403809	0.099813	0.101288
	C214	C	0.590020	0.902461	0.093772
	C215	C	0.404270	0.898498	0.896171
	Zn216	Zn	0.497112	-0.002498	0.744984
	Zn217	Zn	0.498015	-0.001162	0.249880
	Zn218	Zn	0.752333	0.498168	-0.002485
	Zn219	Zn	0.248598	0.497236	-0.002371
	Zn220	Zn	-0.000759	0.749389	0.500565
	Zn221	Zn	-0.002801	0.248199	0.498107
	Zn222	Zn	-0.000925	0.500058	0.750699
	Zn223	Zn	-0.001200	0.497945	0.245084
	Zn224	Zn	0.497777	0.747736	-0.003843
	Zn225	Zn	0.499310	0.248439	-0.000423
	Zn226	Zn	0.746547	-0.000425	0.499199
	Zn227	Zn	0.250856	-0.002270	0.500804
	N228	N	0.411332	0.962016	0.675361
	N229	N	0.582388	0.034973	0.675618
	N230	N	0.586016	0.961991	0.318489
	N231	N	0.412941	0.035621	0.323506
	N232	N	0.682837	0.408134	0.961723
	N233	N	0.680348	0.586647	0.033343
	N234	N	0.317810	0.585216	0.961194
	N235	N	0.316655	0.408297	0.031817
	N236	N	0.960450	0.674473	0.417799
	N237	N	0.035975	0.677579	0.585761
	N238	N	0.959168	0.325453	0.579842
	N239	N	0.034582	0.317445	0.410039
	N240	N	0.962006	0.413393	0.678942
	N241	N	0.034173	0.589015	0.682241
	N242	N	0.962535	0.586174	0.317961
	N243	N	0.034258	0.408181	0.314034
	N244	N	0.414517	0.673693	0.959015
	N245	N	0.583018	0.676703	0.034390
	N246	N	0.585941	0.317682	0.961491
	N247	N	0.417205	0.324363	0.036711
	N248	N	0.677742	0.961778	0.411378
	N249	N	0.674440	0.035892	0.585226
	N250	N	0.320279	0.962856	0.586746
	N251	N	0.320202	0.034201	0.414573
	N252	N	0.913972	0.461409	0.174307
	N253	N	0.086430	0.534551	0.176431
	N254	N	0.086397	0.461867	0.818444
	N255	N	0.917018	0.537002	0.825736
	N256	N	0.181844	0.908006	0.465234
	N257	N	0.177405	0.084836	0.537197
	N258	N	0.814465	0.089611	0.464533
	N259	N	0.817442	0.912635	0.535312
	N260	N	0.461562	0.174337	0.915564
	N261	N	0.535354	0.176779	0.085234
	N262	N	0.459145	0.824210	0.078627
	N263	N	0.535313	0.818126	0.909953
	N264	N	0.462709	0.910630	0.179292
	N265	N	0.532553	0.088949	0.182392
	N266	N	0.461274	0.083192	0.820079
	N267	N	0.533307	0.907649	0.813093
	N268	N	0.913227	0.175416	0.461216
	N269	N	0.081779	0.176647	0.536537
	N270	N	0.084494	0.819646	0.463118
	N271	N	0.916459	0.825572	0.538379
	N272	N	0.178953	0.460974	0.909903
	N273	N	0.175858	0.535555	0.082274
	N274	N	0.822619	0.462371	0.083405
	N275	N	0.820804	0.533893	0.910918
	O276	O	-0.034074	0.075140	0.040229
	H277	H	-0.024634	0.071557	0.033331
	H278	H	-0.044329	0.078820	0.025277
	O279	O	0.348724	0.426248	0.442691
	H280	H	0.327433	0.441174	0.437382
	H281	H	0.341018	0.431594	0.455698
	O282	O	0.844525	-0.159447	-0.110747
	H283	H	0.853881	-0.161068	-0.117163
	H284	H	0.827880	-0.159561	-0.111953
	O285	O	-0.035141	1.064285	0.008675
	H286	H	-0.036152	1.058756	0.020166
	H287	H	-0.017423	1.066169	0.014815
	O288	O	0.571980	0.417478	0.517141
	H289	H	0.582067	0.411159	0.521097
	H290	H	0.574886	0.412992	0.499927
	O291	O	0.474010	0.584731	0.614743
	H292	H	0.484042	0.590889	0.598239
	H293	H	0.468128	0.589847	0.611897
	O294	O	1.110587	0.874771	1.007350
	H295	H	1.109735	0.879516	1.008196
	H296	H	1.114568	0.861787	0.995429
	O297	O	0.083838	0.066361	0.113054
	H298	H	0.098873	0.066574	0.118336
	H299	H	0.090052	0.065144	0.118357
	O300	O	0.656182	0.524867	0.562953
	H301	H	0.659738	0.516909	0.562520
	H302	H	0.667366	0.506124	0.563735
	O303	O	-0.053678	1.077817	1.012498
	H304	H	-0.058252	1.081909	1.010421
	H305	H	-0.050367	1.096647	1.004682
	O306	O	0.481615	0.458658	0.296758
	H307	H	0.484589	0.449205	0.287089
	H308	H	0.469545	0.474472	0.297889
	O309	O	1.052916	0.122727	0.137133
	H310	H	1.053609	0.125695	0.141341
	H311	H	1.068508	0.139290	0.142683
	O312	O	0.104348	-0.063573	1.008949
	H313	H	0.111384	-0.042021	1.012407
	H314	H	0.109090	-0.072241	1.001624
	O315	O	0.442009	0.615852	0.495409
	H316	H	0.441460	0.612911	0.497961
	H317	H	0.459768	0.622147	0.501995
	O318	O	0.596860	0.621997	0.604799
	H319	H	0.603348	0.621230	0.607620
	H320	H	0.595046	0.613720	0.605923
	O321	O	0.701540	0.503649	0.407987
	H322	H	0.718340	0.499143	0.395645
	H323	H	0.700639	0.475034	0.407848
	O324	O	0.658668	0.467544	0.555901
	H325	H	0.646310	0.458697	0.551912
	H326	H	0.656743	0.457365	0.543519
	O327	O	0.140205	1.001199	0.970637
	H328	H	0.147358	1.005028	0.968717
	H329	H	0.139782	1.000928	0.972537
	O330	O	0.465641	0.351664	0.462138
	H331	H	0.465927	0.351404	0.452839
	H332	H	0.478869	0.357669	0.462735
	O333	O	-0.036591	1.129976	0.945419
	H334	H	-0.033483	1.131439	0.945405
	H335	H	-0.030680	1.114437	0.942066
	O336	O	0.990108	0.892886	0.976408
	H337	H	0.997021	0.891460	0.974538
	H338	H	0.997380	0.891425	0.972436
	O339	O	0.341070	0.557467	0.440036
	H340	H	0.334190	0.568170	0.449016
	H341	H	0.348285	0.553669	0.451983
	O342	O	0.979896	-0.055500	0.151657
	H343	H	0.982679	-0.058494	0.146314
	H344	H	0.976345	-0.058224	0.162099
	O345	O	0.532725	0.485547	0.365177
	H346	H	0.535517	0.488127	0.359222
	H347	H	0.533846	0.483260	0.363753
	O348	O	0.993030	1.022835	1.015448
	H349	H	0.986181	1.030519	1.014847
	H350	H	0.995155	1.003944	1.017900
	O351	O	0.957869	0.937921	-0.057900
	H352	H	0.940598	0.925253	-0.038123
	H353	H	0.961813	0.936605	-0.060749
	O354	O	0.544699	0.578387	0.613598
	H355	H	0.538644	0.565173	0.608724
	H356	H	0.557395	0.575915	0.603689
	O357	O	0.559557	0.412130	0.528343
	H358	H	0.553843	0.421233	0.524746
	H359	H	0.552264	0.416471	0.525782
	O360	O	-0.058233	-0.064551	0.005831
	H361	H	-0.057221	-0.076664	0.005575
	H362	H	-0.059624	-0.060735	0.026587
	O363	O	0.665537	0.370206	0.315071
	H364	H	0.630432	0.354915	0.315185
	H365	H	0.682595	0.351706	0.294038
	O366	O	0.438725	0.409267	0.646370
	H367	H	0.441821	0.417666	0.642437
	H368	H	0.429848	0.406344	0.652879
	O369	O	0.414340	0.620373	0.381232
	H370	H	0.393460	0.639266	0.370158
	H371	H	0.434179	0.627179	0.383402
	O372	O	0.595606	0.648985	0.447606
	H373	H	0.615890	0.631435	0.447955
	H374	H	0.600000	0.638442	0.454199
	O375	O	0.364768	0.416342	0.584728
	H376	H	0.362387	0.425259	0.591671
	H377	H	0.380310	0.416263	0.583232
	O378	O	0.458920	0.393611	0.374163
	H379	H	0.441813	0.398569	0.385564
	H380	H	0.456194	0.395388	0.384451
	O381	O	0.351190	0.422104	0.555951
	H382	H	0.353499	0.412442	0.561503
	H383	H	0.357378	0.421725	0.570306
	O384	O	0.083894	1.037747	-0.009486
	H385	H	0.089623	1.040204	-0.000177
	H386	H	0.085389	1.039357	-0.019060
	O387	O	0.993545	-0.033437	0.932646
	H388	H	0.989072	-0.044709	0.929729
	H389	H	0.989318	-0.027924	0.921275
	O390	O	-0.005482	1.021179	0.006564
	H391	H	-0.006429	1.009442	0.002700
	H392	H	-0.009832	1.011978	0.011661
	O393	O	0.929508	0.932548	0.076846
	H394	H	0.924025	0.938261	0.085281
	H395	H	0.929809	0.921382	0.077774
	O396	O	0.434164	0.414284	0.641158
	H397	H	0.444668	0.418542	0.638154
	H398	H	0.436064	0.412510	0.651476
	O399	O	0.048972	0.964365	0.963139
	H400	H	0.044920	0.960194	0.957090
	H401	H	0.047575	0.973675	0.961845
	O402	O	0.840331	1.132771	0.907269
	H403	H	0.821816	1.140447	0.893105
	H404	H	0.853872	1.135999	0.898252
	O405	O	0.415422	0.632602	0.385927
	H406	H	0.424905	0.638727	0.396565
	H407	H	0.421022	0.624847	0.380203
