data_Molecule from HDF5

_cell_length_a		16.341511
_cell_length_b		16.148668
_cell_length_c		16.293216
_cell_angle_alpha	89.983573
_cell_angle_beta	89.975977
_cell_angle_gamma	90.016729
_symmetry_space_group_name_H-M	'P 1'
_symmetry_Int_Tables_number		1

loop_
	_symmetry_equiv_pos_as_xyz
	x,y,z

loop_
	_atom_site_label
	_atom_site_type_symbol
	_atom_site_fract_x
	_atom_site_fract_y
	_atom_site_fract_z
	H0	H	0.397129	0.833157	0.714161
	H1	H	0.592578	0.162566	0.714780
	H2	H	0.591932	0.833377	0.289002
	H3	H	0.397865	0.163471	0.289089
	H4	H	0.709983	0.398227	0.838925
	H5	H	0.709211	0.598358	0.165736
	H6	H	0.279474	0.597867	0.838733
	H7	H	0.278994	0.398252	0.165303
	H8	H	0.831099	0.711272	0.405411
	H9	H	0.158261	0.712857	0.599229
	H10	H	0.831125	0.285435	0.598870
	H11	H	0.158799	0.286266	0.405513
	H12	H	0.831609	0.399497	0.717435
	H13	H	0.157948	0.598887	0.717389
	H14	H	0.831818	0.597660	0.287314
	H15	H	0.157876	0.399137	0.286436
	H16	H	0.397865	0.711800	0.837248
	H17	H	0.590160	0.711010	0.166540
	H18	H	0.590857	0.285971	0.837798
	H19	H	0.398336	0.284889	0.165901
	H20	H	0.708614	0.834057	0.403022
	H21	H	0.708158	0.163361	0.600572
	H22	H	0.280745	0.833599	0.600718
	H23	H	0.281029	0.163234	0.402495
	H24	H	0.896721	0.333064	0.215347
	H25	H	0.091746	0.663359	0.214446
	H26	H	0.092436	0.333772	0.789175
	H27	H	0.897649	0.663805	0.789977
	H28	H	0.209685	0.899439	0.338609
	H29	H	0.211653	0.099675	0.665010
	H30	H	0.779270	0.098742	0.338782
	H31	H	0.779874	0.899499	0.664601
	H32	H	0.330749	0.211733	0.905076
	H33	H	0.658587	0.211779	0.098494
	H34	H	0.331552	0.785131	0.098232
	H35	H	0.659145	0.785240	0.905337
	H36	H	0.332434	0.897268	0.218137
	H37	H	0.657990	0.098085	0.216885
	H38	H	0.331947	0.097033	0.786331
	H39	H	0.657918	0.899192	0.786522
	H40	H	0.899765	0.210672	0.337286
	H41	H	0.091062	0.211702	0.666876
	H42	H	0.091436	0.786248	0.337782
	H43	H	0.898480	0.786542	0.665672
	H44	H	0.207985	0.333981	0.903768
	H45	H	0.209150	0.662897	0.100663
	H46	H	0.780415	0.334150	0.100909
	H47	H	0.781536	0.663501	0.904326
	H48	H	0.400259	0.114797	0.588620
	H49	H	0.586808	0.881916	0.589298
	H50	H	0.588819	0.113207	0.417486
	H51	H	0.410249	0.882701	0.408133
	H52	H	0.591576	0.402744	0.120793
	H53	H	0.581770	0.593848	0.887011
	H54	H	0.395898	0.597904	0.122308
	H55	H	0.402919	0.404596	0.885661
	H56	H	0.109578	0.586590	0.408331
	H57	H	0.884359	0.579033	0.591629
	H58	H	0.111329	0.408606	0.600611
	H59	H	0.878753	0.407223	0.406590
	H60	H	0.112947	0.400943	0.595583
	H61	H	0.874498	0.593204	0.610493
	H62	H	0.113225	0.593066	0.401486
	H63	H	0.877123	0.403502	0.406134
	H64	H	0.396670	0.583210	0.116749
	H65	H	0.595322	0.596279	0.881611
	H66	H	0.589746	0.409152	0.118162
	H67	H	0.398167	0.404131	0.884204
	H68	H	0.595981	0.120432	0.404762
	H69	H	0.593346	0.878839	0.595432
	H70	H	0.397642	0.118860	0.597527
	H71	H	0.397058	0.882023	0.417800
	H72	H	0.905727	0.615171	0.095209
	H73	H	0.081376	0.383763	0.090640
	H74	H	0.085223	0.618280	0.901487
	H75	H	0.913453	0.381560	0.900242
	H76	H	0.087685	0.906443	0.618520
	H77	H	0.093520	0.082667	0.386600
	H78	H	0.901356	0.089513	0.617738
	H79	H	0.893729	0.908359	0.383984
	H80	H	0.611489	0.095631	0.909940
	H81	H	0.378231	0.093760	0.095002
	H82	H	0.615915	0.890586	0.096024
	H83	H	0.379582	0.913473	0.902592
	H84	H	0.605776	0.911420	0.083673
	H85	H	0.379800	0.089321	0.093420
	H86	H	0.609345	0.086193	0.908777
	H87	H	0.375459	0.897430	0.901940
	H88	H	0.901979	0.093135	0.618396
	H89	H	0.079487	0.092759	0.389076
	H90	H	0.088700	0.905606	0.618816
	H91	H	0.905149	0.908996	0.386317
	H92	H	0.082385	0.613042	0.914925
	H93	H	0.095253	0.379817	0.091271
	H94	H	0.899885	0.615508	0.090966
	H95	H	0.902973	0.384854	0.923945
	H96	H	0.406710	0.115312	0.595917
	H97	H	0.584511	0.879724	0.597963
	H98	H	0.580136	0.115772	0.404241
	H99	H	0.396307	0.877140	0.401469
	H100	H	0.584890	0.404324	0.118254
	H101	H	0.591526	0.583249	0.886828
	H102	H	0.409011	0.592614	0.116334
	H103	H	0.399862	0.409059	0.886195
	H104	H	0.111496	0.596371	0.411311
	H105	H	0.877624	0.603472	0.587035
	H106	H	0.108851	0.408508	0.591949
	H107	H	0.878839	0.404702	0.409707
	H108	H	0.898996	0.617614	0.097976
	H109	H	0.086662	0.378306	0.103292
	H110	H	0.095808	0.618297	0.911637
	H111	H	0.888782	0.375644	0.904433
	H112	H	0.089006	0.907316	0.618364
	H113	H	0.093810	0.099391	0.382162
	H114	H	0.898065	0.091627	0.619695
	H115	H	0.900868	0.899156	0.382570
	H116	H	0.612469	0.091505	0.901784
	H117	H	0.378091	0.090298	0.098287
	H118	H	0.612973	0.913616	0.108842
	H119	H	0.381059	0.903867	0.916133
	C120	C	0.373617	0.007058	0.622398
	C121	C	0.616322	0.989447	0.622845
	C122	C	0.616163	0.007143	0.380688
	C123	C	0.373358	0.989913	0.380594
	C124	C	0.616865	0.376698	0.010652
	C125	C	0.616986	0.619783	0.993935
	C126	C	0.372905	0.619852	0.010147
	C127	C	0.372716	0.377025	0.993673
	C128	C	0.003093	0.620344	0.379584
	C129	C	0.986738	0.620742	0.624519
	C130	C	0.003297	0.377213	0.624094
	C131	C	0.986522	0.376776	0.379527
	C132	C	0.873095	0.507133	0.123574
	C133	C	0.115839	0.489425	0.123120
	C134	C	0.115640	0.507375	0.881123
	C135	C	0.873299	0.489821	0.880980
	C136	C	0.116522	0.877495	0.510274
	C137	C	0.117072	0.120433	0.493911
	C138	C	0.872914	0.119986	0.510181
	C139	C	0.872644	0.877480	0.492680
	C140	C	0.502956	0.119941	0.878972
	C141	C	0.486569	0.119714	0.123771
	C142	C	0.503645	0.876491	0.124174
	C143	C	0.486913	0.876371	0.879209
	C144	C	0.376361	0.882491	0.677007
	C145	C	0.613380	0.113452	0.677701
	C146	C	0.612950	0.882761	0.326302
	C147	C	0.377001	0.114137	0.326455
	C148	C	0.671761	0.378776	0.887582
	C149	C	0.671073	0.617751	0.117044
	C150	C	0.317502	0.618257	0.887343
	C151	C	0.317493	0.378532	0.116725
	C152	C	0.880000	0.674137	0.384225
	C153	C	0.109584	0.675289	0.620529
	C154	C	0.879742	0.323126	0.620192
	C155	C	0.109781	0.322949	0.383821
	C156	C	0.880369	0.379309	0.679326
	C157	C	0.109398	0.618390	0.679433
	C158	C	0.880555	0.618000	0.325033
	C159	C	0.109323	0.379325	0.324923
	C160	C	0.376759	0.674312	0.886460
	C161	C	0.612177	0.674207	0.117425
	C162	C	0.612581	0.323056	0.886827
	C163	C	0.376654	0.322077	0.116882
	C164	C	0.670892	0.883171	0.382980
	C165	C	0.670499	0.113915	0.620391
	C166	C	0.318957	0.882565	0.620375
	C167	C	0.318609	0.113884	0.382576
	C168	C	0.875826	0.382815	0.178308
	C169	C	0.112937	0.614162	0.177219
	C170	C	0.112695	0.382975	0.826612
	C171	C	0.876530	0.614187	0.826946
	C172	C	0.171627	0.879500	0.387404
	C173	C	0.172705	0.118987	0.616689
	C174	C	0.817978	0.118190	0.387220
	C175	C	0.818155	0.879627	0.616176
	C176	C	0.379901	0.174348	0.883556
	C177	C	0.609793	0.174342	0.119771
	C178	C	0.380183	0.822403	0.119959
	C179	C	0.610011	0.822158	0.883335
	C180	C	0.380855	0.878084	0.179487
	C181	C	0.609359	0.117924	0.178727
	C182	C	0.380403	0.117927	0.824030
	C183	C	0.609332	0.878696	0.824186
	C184	C	0.877827	0.173802	0.386395
	C185	C	0.113040	0.174878	0.617523
	C186	C	0.112960	0.823284	0.386789
	C187	C	0.876914	0.823334	0.616493
	C188	C	0.170192	0.383120	0.883664
	C189	C	0.171098	0.613819	0.120879
	C190	C	0.818341	0.383059	0.121350
	C191	C	0.818876	0.613961	0.883873
	C192	C	0.395246	0.093772	0.600499
	C193	C	0.594704	0.902571	0.600734
	C194	C	0.594512	0.094039	0.402385
	C195	C	0.394879	0.902974	0.402644
	C196	C	0.595196	0.398743	0.096871
	C197	C	0.596032	0.597686	0.907509
	C198	C	0.394155	0.597798	0.096088
	C199	C	0.393889	0.399356	0.907702
	C200	C	0.089435	0.598523	0.400800
	C201	C	0.900862	0.598402	0.602751
	C202	C	0.088715	0.399279	0.602479
	C203	C	0.900405	0.398634	0.401108
	C204	C	0.894986	0.593707	0.101263
	C205	C	0.094016	0.403062	0.101488
	C206	C	0.094060	0.594309	0.902901
	C207	C	0.895285	0.402930	0.902908
	C208	C	0.094845	0.899833	0.596372
	C209	C	0.095359	0.098145	0.407866
	C210	C	0.894283	0.098188	0.596373
	C211	C	0.893646	0.899122	0.406504
	C212	C	0.588935	0.097553	0.900367
	C213	C	0.400915	0.097668	0.101989
	C214	C	0.589491	0.898608	0.102664
	C215	C	0.400886	0.898446	0.900669
	Zn216	Zn	0.494789	-0.001989	0.749771
	Zn217	Zn	0.494957	-0.001644	0.252764
	Zn218	Zn	0.745505	0.498341	0.002220
	Zn219	Zn	0.243601	0.498613	0.002055
	Zn220	Zn	-0.005261	0.749134	0.501625
	Zn221	Zn	-0.005333	0.249089	0.502052
	Zn222	Zn	-0.005277	0.498528	0.753213
	Zn223	Zn	-0.005344	0.498365	0.250726
	Zn224	Zn	0.495127	0.748333	0.001720
	Zn225	Zn	0.494974	0.248266	0.001794
	Zn226	Zn	0.744183	-0.001301	0.501797
	Zn227	Zn	0.245421	-0.001817	0.502313
	N228	N	0.409550	0.960788	0.678485
	N229	N	0.580460	0.035185	0.679101
	N230	N	0.579502	0.960826	0.325052
	N231	N	0.409886	0.035849	0.324715
	N232	N	0.674425	0.411440	0.965607
	N233	N	0.674019	0.584769	0.039144
	N234	N	0.314973	0.585165	0.965153
	N235	N	0.314780	0.411928	0.039006
	N236	N	0.957420	0.675673	0.417405
	N237	N	0.032293	0.676763	0.587198
	N238	N	0.956931	0.321638	0.586393
	N239	N	0.032510	0.321539	0.417390
	N240	N	0.957920	0.412392	0.681576
	N241	N	0.031889	0.585088	0.681859
	N242	N	0.958129	0.585198	0.322215
	N243	N	0.031577	0.412017	0.322253
	N244	N	0.410549	0.675556	0.963773
	N245	N	0.578930	0.675406	0.039891
	N246	N	0.579031	0.321583	0.964297
	N247	N	0.410469	0.321287	0.039661
	N248	N	0.673086	0.961571	0.416061
	N249	N	0.672459	0.035609	0.586984
	N250	N	0.316955	0.960865	0.587105
	N251	N	0.316249	0.035507	0.415762
	N252	N	0.909235	0.461070	0.179617
	N253	N	0.079334	0.536151	0.178713
	N254	N	0.079685	0.461418	0.824714
	N255	N	0.909791	0.535951	0.825212
	N256	N	0.173853	0.912616	0.465354
	N257	N	0.175186	0.085811	0.538920
	N258	N	0.814978	0.085504	0.465286
	N259	N	0.815316	0.912386	0.538372
	N260	N	0.457244	0.175605	0.916922
	N261	N	0.532479	0.175668	0.086359
	N262	N	0.457369	0.821250	0.086199
	N263	N	0.532811	0.820701	0.916780
	N264	N	0.458498	0.911310	0.181876
	N265	N	0.531904	0.084704	0.181325
	N266	N	0.457877	0.084648	0.821456
	N267	N	0.531614	0.911632	0.821632
	N268	N	0.911183	0.175164	0.463807
	N269	N	0.079147	0.175893	0.540174
	N270	N	0.079467	0.821855	0.464164
	N271	N	0.910123	0.821822	0.538737
	N272	N	0.172083	0.461439	0.916614
	N273	N	0.173037	0.535421	0.087801
	N274	N	0.816387	0.461281	0.088173
	N275	N	0.817000	0.535552	0.916933
	O276	O	1.255583	0.239447	0.790149
	H277	H	1.253366	0.237777	0.789631
	H278	H	1.258914	0.241009	0.792942
	O279	O	0.496891	0.452821	0.517473
	H280	H	0.494806	0.448340	0.521263
	H281	H	0.504596	0.454963	0.517025
	O282	O	1.038163	1.002950	0.028767
	H283	H	1.041698	1.002203	0.030346
	H284	H	1.040139	1.007153	0.031544
	O285	O	0.509271	0.481168	0.524949
	H286	H	0.513543	0.481985	0.522337
	H287	H	0.507450	0.484520	0.523226
