data_Molecule from HDF5

_cell_length_a		16.315732
_cell_length_b		16.222674
_cell_length_c		16.209416
_cell_angle_alpha	89.977040
_cell_angle_beta	89.871442
_cell_angle_gamma	89.852746
_symmetry_space_group_name_H-M	'P 1'
_symmetry_Int_Tables_number		1

loop_
	_symmetry_equiv_pos_as_xyz
	x,y,z

loop_
	_atom_site_label
	_atom_site_type_symbol
	_atom_site_fract_x
	_atom_site_fract_y
	_atom_site_fract_z
	H0	H	0.393347	0.828972	0.721437
	H1	H	0.587117	0.158054	0.721125
	H2	H	0.587908	0.828906	0.296949
	H3	H	0.392538	0.158078	0.294978
	H4	H	0.705559	0.395074	0.844139
	H5	H	0.703634	0.591851	0.172885
	H6	H	0.276824	0.593907	0.844393
	H7	H	0.277012	0.395477	0.172646
	H8	H	0.827277	0.709525	0.410765
	H9	H	0.154314	0.708392	0.607236
	H10	H	0.826369	0.281498	0.607099
	H11	H	0.154400	0.279777	0.410272
	H12	H	0.827286	0.396820	0.723987
	H13	H	0.155249	0.590272	0.721149
	H14	H	0.826887	0.592873	0.295170
	H15	H	0.153949	0.395952	0.293819
	H16	H	0.393298	0.708129	0.843636
	H17	H	0.587117	0.706154	0.173501
	H18	H	0.589957	0.279724	0.843493
	H19	H	0.394353	0.281835	0.173808
	H20	H	0.706630	0.830867	0.408530
	H21	H	0.704771	0.157612	0.608073
	H22	H	0.274716	0.830498	0.608835
	H23	H	0.276015	0.158036	0.409373
	H24	H	0.893353	0.329654	0.222012
	H25	H	0.086808	0.659429	0.221109
	H26	H	0.088689	0.329412	0.794854
	H27	H	0.893829	0.658878	0.796601
	H28	H	0.205808	0.894890	0.344728
	H29	H	0.204399	0.093491	0.672710
	H30	H	0.775992	0.093871	0.344800
	H31	H	0.775565	0.895607	0.672397
	H32	H	0.327821	0.208716	0.910121
	H33	H	0.654986	0.207147	0.106301
	H34	H	0.326455	0.780719	0.106084
	H35	H	0.654568	0.779403	0.911296
	H36	H	0.326774	0.895893	0.223756
	H37	H	0.654929	0.090274	0.222585
	H38	H	0.326729	0.091340	0.795251
	H39	H	0.654557	0.894436	0.793373
	H40	H	0.893131	0.208047	0.344222
	H41	H	0.086326	0.206152	0.673619
	H42	H	0.089593	0.780248	0.344492
	H43	H	0.892976	0.781562	0.673726
	H44	H	0.206282	0.330100	0.909600
	H45	H	0.204866	0.658595	0.106776
	H46	H	0.776612	0.329845	0.107918
	H47	H	0.775503	0.657534	0.909903
	H48	H	0.393423	0.114642	0.609961
	H49	H	0.583077	0.876479	0.600169
	H50	H	0.588328	0.111402	0.419757
	H51	H	0.396178	0.877433	0.418944
	H52	H	0.580860	0.406554	0.123004
	H53	H	0.581905	0.583843	0.892891
	H54	H	0.388132	0.572635	0.123788
	H55	H	0.394306	0.405325	0.891218
	H56	H	0.105341	0.584325	0.417899
	H57	H	0.875461	0.590531	0.597549
	H58	H	0.110026	0.391548	0.604857
	H59	H	0.873723	0.398531	0.416911
	H60	H	0.105010	0.400061	0.593277
	H61	H	0.875465	0.582954	0.604162
	H62	H	0.107753	0.586790	0.411455
	H63	H	0.874912	0.403809	0.416042
	H64	H	0.413399	0.588170	0.121224
	H65	H	0.583018	0.591792	0.889595
	H66	H	0.580998	0.394430	0.125758
	H67	H	0.403698	0.402795	0.893491
	H68	H	0.584514	0.113555	0.410376
	H69	H	0.584846	0.876294	0.599561
	H70	H	0.404589	0.108414	0.600579
	H71	H	0.395694	0.875921	0.414904
	H72	H	0.897661	0.613594	0.109469
	H73	H	0.089471	0.379098	0.090966
	H74	H	0.096656	0.614006	0.918634
	H75	H	0.893865	0.374869	0.913454
	H76	H	0.083380	0.906614	0.624329
	H77	H	0.085643	0.087788	0.390477
	H78	H	0.895270	0.088031	0.627153
	H79	H	0.893185	0.903250	0.390437
	H80	H	0.605961	0.085435	0.917722
	H81	H	0.375184	0.088733	0.100129
	H82	H	0.605189	0.904598	0.101837
	H83	H	0.373531	0.902555	0.911996
	H84	H	0.609419	0.897531	0.108206
	H85	H	0.375200	0.085207	0.103707
	H86	H	0.608160	0.084673	0.909974
	H87	H	0.373500	0.896913	0.915796
	H88	H	0.895731	0.086562	0.626306
	H89	H	0.084429	0.086271	0.392066
	H90	H	0.078793	0.898502	0.625440
	H91	H	0.901362	0.904897	0.393017
	H92	H	0.081748	0.614119	0.903892
	H93	H	0.089629	0.373269	0.109545
	H94	H	0.901379	0.608384	0.096233
	H95	H	0.901878	0.376840	0.913622
	H96	H	0.390139	0.111237	0.594726
	H97	H	0.584252	0.876419	0.601643
	H98	H	0.578244	0.109738	0.417180
	H99	H	0.399546	0.876658	0.416352
	H100	H	0.590553	0.400743	0.127538
	H101	H	0.589005	0.585548	0.889137
	H102	H	0.388260	0.601160	0.131894
	H103	H	0.397262	0.396059	0.889265
	H104	H	0.107532	0.590754	0.417366
	H105	H	0.871514	0.591202	0.606679
	H106	H	0.106950	0.406289	0.607471
	H107	H	0.872941	0.400291	0.411798
	H108	H	0.887825	0.613244	0.099075
	H109	H	0.073455	0.380346	0.101483
	H110	H	0.077130	0.607238	0.923496
	H111	H	0.897117	0.377750	0.921217
	H112	H	0.088156	0.899682	0.628409
	H113	H	0.083163	0.087981	0.391361
	H114	H	0.896366	0.087860	0.626271
	H115	H	0.899756	0.896710	0.390913
	H116	H	0.608668	0.091101	0.914169
	H117	H	0.373249	0.089668	0.104996
	H118	H	0.606773	0.895184	0.098931
	H119	H	0.376388	0.902992	0.917405
	C120	C	0.368432	0.002258	0.630018
	C121	C	0.611833	0.985171	0.629121
	C122	C	0.612416	0.002612	0.387273
	C123	C	0.369084	0.985358	0.388010
	C124	C	0.612609	0.372321	0.016512
	C125	C	0.612064	0.615015	0.999961
	C126	C	0.369209	0.616031	0.016704
	C127	C	0.369659	0.372404	0.999982
	C128	C	-0.000959	0.616245	0.386887
	C129	C	0.982518	0.615839	0.630797
	C130	C	-0.001237	0.372177	0.630405
	C131	C	0.982252	0.372495	0.386637
	C132	C	0.868633	0.502598	0.129843
	C133	C	0.112203	0.486189	0.129495
	C134	C	0.113101	0.503022	0.886847
	C135	C	0.869520	0.485244	0.887975
	C136	C	0.112121	0.873182	0.517284
	C137	C	0.111958	0.115390	0.500221
	C138	C	0.868395	0.115785	0.517621
	C139	C	0.869230	0.873212	0.500060
	C140	C	0.499268	0.114980	0.886408
	C141	C	0.483085	0.115167	0.130426
	C142	C	0.498770	0.871433	0.131167
	C143	C	0.482320	0.871944	0.886606
	C144	C	0.371972	0.878371	0.684534
	C145	C	0.608163	0.108888	0.683777
	C146	C	0.609331	0.878474	0.333263
	C147	C	0.371877	0.109161	0.332781
	C148	C	0.667766	0.374865	0.892956
	C149	C	0.666049	0.612151	0.123825
	C150	C	0.315011	0.613842	0.893028
	C151	C	0.314810	0.375258	0.123757
	C152	C	0.875939	0.671457	0.390046
	C153	C	0.105588	0.670472	0.627584
	C154	C	0.875500	0.318481	0.627991
	C155	C	0.105466	0.317710	0.389951
	C156	C	0.875808	0.376099	0.685820
	C157	C	0.105893	0.612269	0.684663
	C158	C	0.875828	0.613405	0.332442
	C159	C	0.105339	0.375472	0.331935
	C160	C	0.372583	0.670755	0.892893
	C161	C	0.608442	0.669427	0.123895
	C162	C	0.609998	0.317784	0.892556
	C163	C	0.373222	0.318513	0.124148
	C164	C	0.668403	0.879462	0.388684
	C165	C	0.666714	0.108587	0.627633
	C166	C	0.313039	0.879099	0.628468
	C167	C	0.314223	0.109149	0.389704
	C168	C	0.872494	0.378636	0.184353
	C169	C	0.108399	0.610070	0.183979
	C170	C	0.109733	0.378781	0.832238
	C171	C	0.872914	0.609781	0.834012
	C172	C	0.167644	0.874961	0.393637
	C173	C	0.166363	0.113082	0.623912
	C174	C	0.813922	0.114005	0.393675
	C175	C	0.814030	0.875876	0.623725
	C176	C	0.376180	0.170364	0.889358
	C177	C	0.606218	0.169191	0.126858
	C178	C	0.375410	0.817915	0.127267
	C179	C	0.605883	0.817207	0.890117
	C180	C	0.375719	0.875169	0.185768
	C181	C	0.606147	0.111171	0.184625
	C182	C	0.375743	0.112148	0.832226
	C183	C	0.605741	0.874087	0.831472
	C184	C	0.872085	0.170628	0.393459
	C185	C	0.107889	0.169323	0.624444
	C186	C	0.109886	0.817951	0.393488
	C187	C	0.872147	0.819040	0.624345
	C188	C	0.168452	0.379228	0.888685
	C189	C	0.166998	0.609686	0.127103
	C190	C	0.814366	0.378729	0.127743
	C191	C	0.814128	0.609058	0.890033
	C192	C	0.389741	0.088969	0.608261
	C193	C	0.590336	0.898702	0.606881
	C194	C	0.590274	0.089077	0.409159
	C195	C	0.390809	0.899235	0.410081
	C196	C	0.590729	0.394172	0.103097
	C197	C	0.590941	0.593355	0.913010
	C198	C	0.390242	0.593992	0.103251
	C199	C	0.391846	0.394836	0.913605
	C200	C	0.084866	0.593890	0.409097
	C201	C	0.896331	0.594491	0.609281
	C202	C	0.085119	0.393158	0.608431
	C203	C	0.896132	0.394411	0.408463
	C204	C	0.889513	0.589182	0.108130
	C205	C	0.090520	0.399932	0.107259
	C206	C	0.091377	0.589285	0.908802
	C207	C	0.891351	0.398914	0.909492
	C208	C	0.090065	0.895052	0.603784
	C209	C	0.090601	0.093727	0.413659
	C210	C	0.889537	0.093921	0.604136
	C211	C	0.891415	0.895085	0.413674
	C212	C	0.585200	0.093474	0.907684
	C213	C	0.396821	0.094145	0.109156
	C214	C	0.585089	0.892754	0.109382
	C215	C	0.396618	0.894195	0.908495
	Zn216	Zn	0.490932	-0.006318	0.757374
	Zn217	Zn	0.490550	-0.006612	0.260144
	Zn218	Zn	0.740497	0.493861	0.008289
	Zn219	Zn	0.241627	0.494497	0.007848
	Zn220	Zn	-0.009396	0.744917	0.509250
	Zn221	Zn	-0.009455	0.243092	0.508761
	Zn222	Zn	-0.009321	0.494024	0.759416
	Zn223	Zn	-0.009968	0.494605	0.257845
	Zn224	Zn	0.490641	0.743220	0.008545
	Zn225	Zn	0.491488	0.244011	0.008133
	Zn226	Zn	0.740237	-0.006030	0.508131
	Zn227	Zn	0.240385	-0.005815	0.508741
	N228	N	0.405541	0.956045	0.685706
	N229	N	0.574809	0.031096	0.684814
	N230	N	0.575186	0.956039	0.332497
	N231	N	0.405357	0.031327	0.331573
	N232	N	0.669297	0.408197	0.970990
	N233	N	0.668402	0.579168	0.045659
	N234	N	0.312860	0.580416	0.970983
	N235	N	0.312808	0.408384	0.045605
	N236	N	0.953442	0.673360	0.423301
	N237	N	0.027786	0.672737	0.594667
	N238	N	0.952911	0.316005	0.594357
	N239	N	0.027902	0.315760	0.423400
	N240	N	0.953717	0.408652	0.687581
	N241	N	0.028315	0.579091	0.686753
	N242	N	0.953394	0.579818	0.330577
	N243	N	0.027735	0.408856	0.329975
	N244	N	0.405753	0.671883	0.970762
	N245	N	0.575507	0.671059	0.045794
	N246	N	0.576344	0.316279	0.970419
	N247	N	0.406509	0.316725	0.046056
	N248	N	0.670341	0.957678	0.421642
	N249	N	0.668963	0.030573	0.594243
	N250	N	0.310749	0.957275	0.595444
	N251	N	0.312218	0.031227	0.423347
	N252	N	0.905500	0.456515	0.185702
	N253	N	0.075109	0.532282	0.185479
	N254	N	0.076089	0.456540	0.830999
	N255	N	0.906632	0.531932	0.832513
	N256	N	0.169200	0.908419	0.471573
	N257	N	0.168853	0.080107	0.545757
	N258	N	0.811617	0.080462	0.471677
	N259	N	0.812306	0.908881	0.545483
	N260	N	0.453768	0.172329	0.922324
	N261	N	0.528594	0.171924	0.094091
	N262	N	0.453109	0.815488	0.094120
	N263	N	0.528278	0.815659	0.923567
	N264	N	0.453506	0.907456	0.188265
	N265	N	0.528510	0.078234	0.186883
	N266	N	0.453358	0.078557	0.830011
	N267	N	0.528112	0.907542	0.829108
	N268	N	0.904999	0.171975	0.471518
	N269	N	0.074804	0.170732	0.546633
	N270	N	0.075930	0.816679	0.471450
	N271	N	0.905953	0.817377	0.546466
	N272	N	0.170754	0.457476	0.921779
	N273	N	0.169378	0.531673	0.093777
	N274	N	0.811709	0.456962	0.094597
	N275	N	0.811880	0.530847	0.922856
	O276	O	1.489738	0.434176	0.483973
	H277	H	1.482227	0.440412	0.480691
	H278	H	1.494486	0.435770	0.489938
	O279	O	0.466793	0.502358	0.451852
	H280	H	0.466953	0.497304	0.448312
	H281	H	0.468526	0.509727	0.447407
	O282	O	1.476663	1.483656	-0.545360
	H283	H	1.473282	1.482489	-0.549632
	H284	H	1.476675	1.489179	-0.551923
	O285	O	0.488705	0.436014	0.455057
	H286	H	0.484868	0.423724	0.456131
	H287	H	0.493898	0.430449	0.462082
