data_Molecule from HDF5

_cell_length_a		16.317038
_cell_length_b		16.245619
_cell_length_c		16.041145
_cell_angle_alpha	89.599277
_cell_angle_beta	89.328723
_cell_angle_gamma	89.644221
_symmetry_space_group_name_H-M	'P 1'
_symmetry_Int_Tables_number		1

loop_
	_symmetry_equiv_pos_as_xyz
	x,y,z

loop_
	_atom_site_label
	_atom_site_type_symbol
	_atom_site_fract_x
	_atom_site_fract_y
	_atom_site_fract_z
	H0	H	0.408929	0.831760	0.706253
	H1	H	0.598084	0.161917	0.700411
	H2	H	0.603976	0.831034	0.278882
	H3	H	0.410182	0.161013	0.279546
	H4	H	0.724335	0.395447	0.825752
	H5	H	0.716923	0.593008	0.156832
	H6	H	0.294396	0.598621	0.825893
	H7	H	0.291000	0.395381	0.155329
	H8	H	0.843612	0.715014	0.391841
	H9	H	0.169084	0.710536	0.589166
	H10	H	0.842615	0.281632	0.594496
	H11	H	0.168662	0.278868	0.389751
	H12	H	0.842930	0.399327	0.709542
	H13	H	0.171628	0.589945	0.699740
	H14	H	0.842005	0.595676	0.279356
	H15	H	0.171224	0.399827	0.276451
	H16	H	0.407258	0.712734	0.826340
	H17	H	0.602468	0.707155	0.156792
	H18	H	0.607907	0.283250	0.824467
	H19	H	0.407124	0.283313	0.156249
	H20	H	0.725350	0.833933	0.388935
	H21	H	0.718905	0.160689	0.589694
	H22	H	0.289063	0.832884	0.595137
	H23	H	0.289231	0.158933	0.389897
	H24	H	0.910389	0.331859	0.206626
	H25	H	0.100894	0.662146	0.200652
	H26	H	0.106155	0.331139	0.778988
	H27	H	0.912502	0.661523	0.780010
	H28	H	0.222745	0.895754	0.327595
	H29	H	0.215026	0.093466	0.657702
	H30	H	0.793652	0.099430	0.325958
	H31	H	0.790169	0.896975	0.656720
	H32	H	0.343368	0.214887	0.891581
	H33	H	0.669365	0.209374	0.088551
	H34	H	0.342301	0.780446	0.094182
	H35	H	0.668738	0.779098	0.887532
	H36	H	0.341646	0.899124	0.207545
	H37	H	0.670168	0.090767	0.200778
	H38	H	0.340954	0.095184	0.779496
	H39	H	0.669490	0.899599	0.775339
	H40	H	0.906841	0.213546	0.327224
	H41	H	0.100511	0.206269	0.657914
	H42	H	0.106674	0.783891	0.326104
	H43	H	0.904743	0.782466	0.656864
	H44	H	0.226761	0.334019	0.888768
	H45	H	0.221044	0.659565	0.089631
	H46	H	0.791028	0.332530	0.095304
	H47	H	0.789147	0.658573	0.888314
	H48	H	0.402967	0.113939	0.577521
	H49	H	0.595647	0.879412	0.585003
	H50	H	0.597716	0.116026	0.384544
	H51	H	0.407415	0.878012	0.404767
	H52	H	0.599337	0.403850	0.108159
	H53	H	0.595166	0.587589	0.873251
	H54	H	0.421371	0.587976	0.107311
	H55	H	0.423996	0.405900	0.873947
	H56	H	0.124700	0.594896	0.395156
	H57	H	0.891925	0.583782	0.582926
	H58	H	0.124133	0.406845	0.593637
	H59	H	0.888700	0.404069	0.398511
	H60	H	0.127415	0.386150	0.585520
	H61	H	0.887464	0.591538	0.593359
	H62	H	0.121163	0.589382	0.400129
	H63	H	0.891133	0.402881	0.404373
	H64	H	0.406959	0.596936	0.115399
	H65	H	0.601526	0.590497	0.870800
	H66	H	0.596055	0.400286	0.109500
	H67	H	0.413874	0.399992	0.868439
	H68	H	0.590972	0.109452	0.404386
	H69	H	0.598772	0.881508	0.579046
	H70	H	0.405605	0.117111	0.590454
	H71	H	0.412698	0.876281	0.395750
	H72	H	0.911683	0.612882	0.082073
	H73	H	0.104600	0.378155	0.084959
	H74	H	0.091739	0.608551	0.902812
	H75	H	0.917402	0.379636	0.901972
	H76	H	0.095385	0.894891	0.612959
	H77	H	0.103661	0.092464	0.370104
	H78	H	0.906231	0.088658	0.612150
	H79	H	0.914844	0.916307	0.375327
	H80	H	0.623450	0.085148	0.887115
	H81	H	0.387103	0.093228	0.087946
	H82	H	0.620695	0.903798	0.084478
	H83	H	0.392345	0.901673	0.912169
	H84	H	0.623671	0.897214	0.084686
	H85	H	0.389037	0.093562	0.081191
	H86	H	0.625197	0.099378	0.897025
	H87	H	0.390086	0.913677	0.895864
	H88	H	0.910576	0.085311	0.609835
	H89	H	0.098927	0.081266	0.374642
	H90	H	0.103589	0.906677	0.611844
	H91	H	0.924720	0.901662	0.374089
	H92	H	0.112609	0.615554	0.901927
	H93	H	0.097064	0.379518	0.085012
	H94	H	0.907794	0.613799	0.081470
	H95	H	0.912161	0.378055	0.903095
	H96	H	0.415639	0.112269	0.582734
	H97	H	0.602617	0.878082	0.583472
	H98	H	0.611389	0.115226	0.401003
	H99	H	0.418141	0.880980	0.403977
	H100	H	0.600498	0.399022	0.110817
	H101	H	0.601130	0.583708	0.873370
	H102	H	0.405657	0.578218	0.108747
	H103	H	0.413028	0.411817	0.871796
	H104	H	0.123169	0.587662	0.392883
	H105	H	0.888699	0.597122	0.580502
	H106	H	0.119301	0.403686	0.572385
	H107	H	0.890997	0.408071	0.401447
	H108	H	0.909989	0.614304	0.085795
	H109	H	0.101275	0.381302	0.078291
	H110	H	0.100942	0.617675	0.883488
	H111	H	0.913923	0.377631	0.898280
	H112	H	0.089846	0.906207	0.608413
	H113	H	0.091930	0.091418	0.374108
	H114	H	0.911796	0.090374	0.611599
	H115	H	0.908000	0.901168	0.369372
	H116	H	0.618397	0.084735	0.903582
	H117	H	0.389944	0.086932	0.085622
	H118	H	0.622326	0.899273	0.079531
	H119	H	0.384840	0.894682	0.895295
	C120	C	0.381407	0.005500	0.613808
	C121	C	0.625990	0.988350	0.610993
	C122	C	0.629411	0.005116	0.367962
	C123	C	0.384066	0.987179	0.371315
	C124	C	0.628659	0.373317	-0.000417
	C125	C	0.626875	0.615847	0.982078
	C126	C	0.384619	0.617449	0.000721
	C127	C	0.386748	0.376358	0.981421
	C128	C	0.014781	0.619820	0.368536
	C129	C	0.997779	0.617777	0.612445
	C130	C	0.015126	0.372599	0.614266
	C131	C	0.997888	0.375044	0.370597
	C132	C	0.883099	0.505129	0.113657
	C133	C	0.128198	0.488078	0.111464
	C134	C	0.130644	0.505072	0.868327
	C135	C	0.885829	0.486993	0.870721
	C136	C	0.126486	0.874431	0.501565
	C137	C	0.125643	0.116420	0.482767
	C138	C	0.882817	0.117974	0.501058
	C139	C	0.884639	0.876187	0.482079
	C140	C	0.514386	0.119234	0.868130
	C141	C	0.497001	0.117815	0.112280
	C142	C	0.513893	0.872777	0.113623
	C143	C	0.497206	0.874597	0.870111
	C144	C	0.386793	0.881305	0.669143
	C145	C	0.620894	0.112527	0.664538
	C146	C	0.625993	0.880913	0.314783
	C147	C	0.388072	0.111338	0.316146
	C148	C	0.685900	0.375602	0.875315
	C149	C	0.679860	0.612922	0.107373
	C150	C	0.331344	0.617418	0.875321
	C151	C	0.329540	0.376707	0.105958
	C152	C	0.892254	0.676492	0.371581
	C153	C	0.120499	0.672340	0.609291
	C154	C	0.891489	0.319060	0.614193
	C155	C	0.120607	0.318311	0.370875
	C156	C	0.891707	0.377499	0.671211
	C157	C	0.121963	0.611953	0.663840
	C158	C	0.891359	0.616957	0.315762
	C159	C	0.121827	0.378455	0.314519
	C160	C	0.387559	0.674181	0.875626
	C161	C	0.622967	0.669773	0.107302
	C162	C	0.627875	0.319932	0.874508
	C163	C	0.387316	0.320779	0.106494
	C164	C	0.686238	0.882329	0.369558
	C165	C	0.680559	0.111805	0.609175
	C166	C	0.326971	0.881792	0.614349
	C167	C	0.328127	0.110231	0.371162
	C168	C	0.887990	0.381393	0.169619
	C169	C	0.122670	0.612494	0.164503
	C170	C	0.127286	0.380924	0.815244
	C171	C	0.889983	0.611476	0.816240
	C172	C	0.184099	0.876222	0.376880
	C173	C	0.178486	0.113448	0.608065
	C174	C	0.829782	0.118391	0.375991
	C175	C	0.827331	0.876714	0.606726
	C176	C	0.391667	0.175879	0.871130
	C177	C	0.620302	0.171587	0.108791
	C178	C	0.391086	0.818550	0.113264
	C179	C	0.619871	0.817831	0.868965
	C180	C	0.390740	0.877358	0.169925
	C181	C	0.620997	0.112673	0.164661
	C182	C	0.390435	0.116422	0.815645
	C183	C	0.620227	0.877385	0.812938
	C184	C	0.886241	0.175002	0.376505
	C185	C	0.121647	0.169685	0.608094
	C186	C	0.126320	0.820763	0.376086
	C187	C	0.884754	0.820014	0.607141
	C188	C	0.187132	0.382213	0.870064
	C189	C	0.182415	0.611313	0.109342
	C190	C	0.829226	0.381422	0.113707
	C191	C	0.828941	0.610014	0.870206
	C192	C	0.401933	0.091879	0.590446
	C193	C	0.605250	0.902107	0.588995
	C194	C	0.606732	0.091374	0.390035
	C195	C	0.406257	0.900781	0.394583
	C196	C	0.605321	0.394749	0.087076
	C197	C	0.605709	0.593860	0.895032
	C198	C	0.405182	0.594358	0.087923
	C199	C	0.410108	0.399082	0.893997
	C200	C	0.100957	0.597282	0.389925
	C201	C	0.911705	0.597017	0.591710
	C202	C	0.101140	0.392828	0.590750
	C203	C	0.912384	0.398036	0.394447
	C204	C	0.903769	0.591341	0.090044
	C205	C	0.107358	0.401839	0.089282
	C206	C	0.108412	0.591553	0.889744
	C207	C	0.908109	0.400742	0.894019
	C208	C	0.102948	0.896116	0.588682
	C209	C	0.104470	0.094712	0.395444
	C210	C	0.903453	0.094864	0.588646
	C211	C	0.908762	0.899386	0.395373
	C212	C	0.600181	0.096414	0.889513
	C213	C	0.411069	0.097318	0.091320
	C214	C	0.600056	0.893897	0.089876
	C215	C	0.411311	0.896876	0.894066
	Zn216	Zn	0.504663	-0.003085	0.740421
	Zn217	Zn	0.505814	-0.004347	0.241637
	Zn218	Zn	0.755393	0.495447	-0.008484
	Zn219	Zn	0.258230	0.497007	-0.009868
	Zn220	Zn	0.006053	0.748109	0.491935
	Zn221	Zn	0.005171	0.243931	0.492257
	Zn222	Zn	0.007593	0.495880	0.741709
	Zn223	Zn	0.006251	0.497448	0.240340
	Zn224	Zn	0.505725	0.743498	-0.008819
	Zn225	Zn	0.506222	0.247038	-0.009737
	Zn226	Zn	0.756818	-0.002693	0.490449
	Zn227	Zn	0.253450	-0.004167	0.492473
	N228	N	0.419657	0.959133	0.669331
	N229	N	0.587711	0.034809	0.665856
	N230	N	0.591296	0.958383	0.313666
	N231	N	0.422243	0.033455	0.316059
	N232	N	0.686463	0.408071	0.954332
	N233	N	0.682444	0.580109	0.028517
	N234	N	0.329370	0.582768	0.953951
	N235	N	0.329237	0.410748	0.027160
	N236	N	0.970225	0.678398	0.403728
	N237	N	0.042273	0.676160	0.578222
	N238	N	0.969021	0.316098	0.579365
	N239	N	0.042581	0.315971	0.404888
	N240	N	0.969435	0.409810	0.671624
	N241	N	0.044529	0.578865	0.666337
	N242	N	0.968574	0.582520	0.313765
	N243	N	0.044632	0.413057	0.314297
	N244	N	0.419729	0.674489	0.954385
	N245	N	0.590843	0.671842	0.028332
	N246	N	0.592985	0.318263	0.952984
	N247	N	0.422306	0.320495	0.027984
	N248	N	0.688353	0.960586	0.401745
	N249	N	0.683907	0.033630	0.576548
	N250	N	0.323640	0.959889	0.580408
	N251	N	0.325475	0.032081	0.404664
	N252	N	0.920840	0.459163	0.169631
	N253	N	0.089455	0.534878	0.165621
	N254	N	0.092827	0.458364	0.814023
	N255	N	0.924833	0.533967	0.816492
	N256	N	0.184323	0.908941	0.455881
	N257	N	0.181014	0.080909	0.529067
	N258	N	0.827541	0.083738	0.454497
	N259	N	0.827211	0.910990	0.527992
	N260	N	0.469679	0.177903	0.902837
	N261	N	0.542312	0.175112	0.076943
	N262	N	0.468822	0.815461	0.078861
	N263	N	0.542227	0.815901	0.903948
	N264	N	0.468251	0.910315	0.170154
	N265	N	0.543301	0.080003	0.167276
	N266	N	0.467673	0.081912	0.813566
	N267	N	0.543003	0.911891	0.813485
	N268	N	0.918466	0.175082	0.455328
	N269	N	0.089496	0.171603	0.529137
	N270	N	0.091077	0.819532	0.454460
	N271	N	0.919760	0.819470	0.528712
	N272	N	0.189465	0.460568	0.902156
	N273	N	0.185911	0.533107	0.076758
	N274	N	0.825712	0.459466	0.079631
	N275	N	0.826270	0.531601	0.903321
	O276	O	0.936487	1.116673	0.012649
	H277	H	0.937901	1.121456	0.007585
	H278	H	0.941232	1.119939	-0.000158
	O279	O	-0.028966	-0.136848	0.969874
	H280	H	-0.027594	-0.133408	0.990924
	H281	H	-0.040622	-0.153752	0.976842
	O282	O	0.069744	-0.038168	0.063817
	H283	H	0.057077	-0.027415	0.052796
	H284	H	0.074531	-0.030668	0.061682
	O285	O	0.497915	0.462925	0.437983
	H286	H	0.500021	0.464230	0.437843
	H287	H	0.496053	0.459836	0.442212
	O288	O	0.006210	0.025591	-0.078952
	H289	H	-0.001180	0.014499	-0.089783
	H290	H	0.011014	0.027007	-0.079780
	O291	O	0.018444	0.983099	-0.044063
	H292	H	0.020741	0.980621	-0.054496
	H293	H	0.008765	0.980291	-0.036198
	O294	O	0.050623	0.938360	-0.032098
	H295	H	0.037241	0.940476	-0.041110
	H296	H	0.047047	0.931502	-0.030276
	O297	O	0.558805	0.531679	0.525445
	H298	H	0.576486	0.531378	0.525500
	H299	H	0.559656	0.538865	0.513681
	O300	O	0.511899	0.513374	0.507474
	H301	H	0.519985	0.513561	0.497028
	H302	H	0.514115	0.519346	0.510281
	O303	O	0.923670	-0.007839	1.018432
	H304	H	0.922983	0.003840	1.023522
	H305	H	0.930344	-0.010804	1.020143
	O306	O	-0.001356	0.886157	1.010373
	H307	H	0.005498	0.888116	1.010483
	H308	H	0.003694	0.891097	1.025347
	O309	O	-0.039375	0.949542	0.995204
	H310	H	-0.043865	0.946486	0.991577
	H311	H	-0.047462	0.938287	1.006354
	O312	O	0.011317	0.036800	1.081575
	H313	H	0.010777	0.044928	1.075098
	H314	H	0.016383	0.037500	1.084927
	O315	O	0.497840	0.456006	0.501515
	H316	H	0.498200	0.454185	0.511888
	H317	H	0.493927	0.457207	0.505384
	O318	O	0.015538	0.118648	0.995450
	H319	H	0.005932	0.124548	0.983888
	H320	H	0.011175	0.117191	0.981826
	O321	O	-0.107508	0.995772	0.973931
	H322	H	-0.110280	0.989189	0.981931
	H323	H	-0.099530	0.998096	0.976914
	O324	O	0.977812	-0.023223	1.099512
	H325	H	0.979937	-0.026217	1.101757
	H326	H	0.992250	-0.019135	1.097490
	O327	O	0.934824	1.037589	1.085918
	H328	H	0.943240	1.039668	1.088575
	H329	H	0.933603	1.039666	1.088814
	O330	O	0.512842	0.537704	0.482520
	H331	H	0.513984	0.546481	0.483688
	H332	H	0.514596	0.536820	0.482413
	O333	O	0.497875	0.542210	0.452100
	H334	H	0.492984	0.539293	0.449140
	H335	H	0.496290	0.529623	0.461339
	O336	O	0.595035	0.420970	0.454846
	H337	H	0.601866	0.416932	0.461962
	H338	H	0.589674	0.421649	0.461410
	O339	O	0.551707	0.451884	0.505213
	H340	H	0.557669	0.451266	0.504224
	H341	H	0.553544	0.454289	0.491699
	O342	O	0.588619	0.460565	0.438222
	H343	H	0.592258	0.462296	0.433510
	H344	H	0.577443	0.458494	0.439340
	O345	O	0.541639	0.476892	0.470281
	H346	H	0.545839	0.478885	0.466882
	H347	H	0.529837	0.479500	0.471907
