data_Molecule from HDF5

_cell_length_a		16.278794
_cell_length_b		16.242488
_cell_length_c		16.270678
_cell_angle_alpha	90.056961
_cell_angle_beta	90.029900
_cell_angle_gamma	90.001805
_symmetry_space_group_name_H-M	'P 1'
_symmetry_Int_Tables_number		1

loop_
	_symmetry_equiv_pos_as_xyz
	x,y,z

loop_
	_atom_site_label
	_atom_site_type_symbol
	_atom_site_fract_x
	_atom_site_fract_y
	_atom_site_fract_z
	H0	H	0.402473	0.835165	0.713075
	H1	H	0.597088	0.163634	0.713171
	H2	H	0.598552	0.836047	0.285895
	H3	H	0.401656	0.164060	0.286433
	H4	H	0.714723	0.400668	0.836303
	H5	H	0.714599	0.597879	0.163727
	H6	H	0.285740	0.598755	0.836772
	H7	H	0.285889	0.401430	0.163678
	H8	H	0.835884	0.714174	0.401438
	H9	H	0.164025	0.714388	0.597263
	H10	H	0.835260	0.287016	0.597103
	H11	H	0.164070	0.285968	0.402183
	H12	H	0.836727	0.401210	0.714435
	H13	H	0.163372	0.599341	0.714466
	H14	H	0.835846	0.597734	0.286550
	H15	H	0.164073	0.403218	0.286641
	H16	H	0.401801	0.714436	0.836257
	H17	H	0.599148	0.714462	0.163457
	H18	H	0.597422	0.285973	0.836178
	H19	H	0.402682	0.286943	0.163871
	H20	H	0.713999	0.835464	0.401812
	H21	H	0.714011	0.163506	0.598426
	H22	H	0.286099	0.835660	0.597989
	H23	H	0.286079	0.163918	0.402682
	H24	H	0.902947	0.336253	0.213019
	H25	H	0.097646	0.664751	0.213468
	H26	H	0.098453	0.336627	0.785330
	H27	H	0.901786	0.664407	0.786234
	H28	H	0.213917	0.901538	0.336266
	H29	H	0.213202	0.098152	0.664087
	H30	H	0.783720	0.099626	0.336591
	H31	H	0.786244	0.902232	0.664145
	H32	H	0.335873	0.213775	0.902517
	H33	H	0.663816	0.213277	0.097368
	H34	H	0.336195	0.785589	0.097010
	H35	H	0.664508	0.786459	0.902833
	H36	H	0.336184	0.900967	0.214054
	H37	H	0.663379	0.098402	0.214948
	H38	H	0.335360	0.096686	0.786453
	H39	H	0.664302	0.901380	0.786206
	H40	H	0.902556	0.212496	0.335151
	H41	H	0.097102	0.213814	0.663941
	H42	H	0.097835	0.785870	0.336052
	H43	H	0.902842	0.787124	0.664165
	H44	H	0.213967	0.336081	0.901746
	H45	H	0.214483	0.664619	0.098796
	H46	H	0.786481	0.335976	0.097639
	H47	H	0.786074	0.664454	0.902390
	H48	H	0.402898	0.119189	0.598138
	H49	H	0.600809	0.882031	0.586635
	H50	H	0.593819	0.118665	0.403803
	H51	H	0.411359	0.885214	0.411368
	H52	H	0.585795	0.395859	0.117614
	H53	H	0.588144	0.585736	0.886732
	H54	H	0.401564	0.600450	0.121230
	H55	H	0.413806	0.410101	0.886369
	H56	H	0.117124	0.596521	0.407286
	H57	H	0.883273	0.601188	0.585340
	H58	H	0.116665	0.409125	0.593641
	H59	H	0.883917	0.406306	0.407880
	H60	H	0.117589	0.405681	0.593420
	H61	H	0.886783	0.582214	0.591363
	H62	H	0.115997	0.592468	0.408105
	H63	H	0.882447	0.408243	0.404803
	H64	H	0.403059	0.584099	0.115255
	H65	H	0.589938	0.602711	0.880800
	H66	H	0.607084	0.405080	0.121051
	H67	H	0.405772	0.397934	0.880306
	H68	H	0.588162	0.114591	0.408625
	H69	H	0.595893	0.878866	0.601833
	H70	H	0.410784	0.116206	0.595111
	H71	H	0.398574	0.880225	0.408077
	H72	H	0.901648	0.620117	0.097533
	H73	H	0.092829	0.382445	0.097625
	H74	H	0.087725	0.615341	0.906696
	H75	H	0.905775	0.382477	0.905560
	H76	H	0.089585	0.913740	0.614004
	H77	H	0.085438	0.086061	0.387968
	H78	H	0.905710	0.097359	0.617708
	H79	H	0.903512	0.911557	0.383286
	H80	H	0.616129	0.087890	0.903343
	H81	H	0.382527	0.080805	0.107823
	H82	H	0.620996	0.892650	0.095537
	H83	H	0.378879	0.898538	0.897045
	H84	H	0.611038	0.911443	0.079321
	H85	H	0.377308	0.110131	0.095712
	H86	H	0.619258	0.098066	0.903084
	H87	H	0.385450	0.901424	0.918263
	H88	H	0.902741	0.092106	0.617148
	H89	H	0.090932	0.104272	0.380010
	H90	H	0.089529	0.900453	0.618742
	H91	H	0.911842	0.906664	0.385242
	H92	H	0.096066	0.616493	0.911744
	H93	H	0.091225	0.384293	0.091560
	H94	H	0.912280	0.616420	0.096089
	H95	H	0.907475	0.383093	0.905580
	H96	H	0.403495	0.116782	0.589647
	H97	H	0.585419	0.885248	0.591720
	H98	H	0.595543	0.116732	0.411661
	H99	H	0.408871	0.880871	0.398301
	H100	H	0.589239	0.418274	0.112177
	H101	H	0.603455	0.592146	0.880660
	H102	H	0.416777	0.595127	0.115044
	H103	H	0.399253	0.411634	0.882451
	H104	H	0.117040	0.593139	0.404123
	H105	H	0.879157	0.596147	0.604422
	H106	H	0.115639	0.407519	0.590258
	H107	H	0.882063	0.404385	0.404928
	H108	H	0.904805	0.616171	0.087416
	H109	H	0.096658	0.382520	0.093065
	H110	H	0.095808	0.619509	0.902209
	H111	H	0.906495	0.383290	0.907474
	H112	H	0.101108	0.908120	0.618705
	H113	H	0.104000	0.089251	0.381389
	H114	H	0.908654	0.092392	0.616023
	H115	H	0.904221	0.902331	0.380270
	H116	H	0.615775	0.094453	0.912136
	H117	H	0.389488	0.086595	0.076969
	H118	H	0.617523	0.917174	0.103683
	H119	H	0.386163	0.918710	0.903382
	C120	C	0.378191	0.008332	0.622019
	C121	C	0.621859	0.990790	0.621533
	C122	C	0.621223	0.008127	0.378985
	C123	C	0.378137	0.991149	0.378346
	C124	C	0.621896	0.378299	0.008528
	C125	C	0.622303	0.621761	0.991150
	C126	C	0.378713	0.621654	0.008939
	C127	C	0.378649	0.378493	0.991534
	C128	C	0.008221	0.621764	0.378497
	C129	C	0.991455	0.621863	0.621833
	C130	C	0.008397	0.378686	0.621093
	C131	C	0.991661	0.378489	0.378264
	C132	C	0.878133	0.509002	0.121641
	C133	C	0.121821	0.491681	0.121960
	C134	C	0.121379	0.508658	0.878700
	C135	C	0.878310	0.491699	0.878181
	C136	C	0.121563	0.878808	0.508443
	C137	C	0.121768	0.122069	0.491300
	C138	C	0.877672	0.121911	0.508295
	C139	C	0.878470	0.878966	0.491571
	C140	C	0.508306	0.121369	0.878261
	C141	C	0.491368	0.120804	0.121625
	C142	C	0.508414	0.878474	0.121477
	C143	C	0.491977	0.878080	0.878089
	C144	C	0.381901	0.884197	0.675538
	C145	C	0.618390	0.114406	0.676171
	C146	C	0.618587	0.884774	0.323748
	C147	C	0.380759	0.114936	0.324056
	C148	C	0.676558	0.380687	0.885076
	C149	C	0.676689	0.618713	0.114773
	C150	C	0.323874	0.618841	0.885474
	C151	C	0.323689	0.381164	0.114800
	C152	C	0.884793	0.676546	0.380859
	C153	C	0.115066	0.676613	0.618303
	C154	C	0.884709	0.323976	0.618152
	C155	C	0.115054	0.323891	0.381388
	C156	C	0.885215	0.380844	0.676302
	C157	C	0.114984	0.619438	0.676245
	C158	C	0.884737	0.618494	0.324025
	C159	C	0.115104	0.382003	0.323958
	C160	C	0.381502	0.676245	0.885110
	C161	C	0.619382	0.676364	0.114877
	C162	C	0.618503	0.323603	0.884893
	C163	C	0.381850	0.324261	0.115102
	C164	C	0.675976	0.884567	0.381257
	C165	C	0.676200	0.114501	0.618870
	C166	C	0.324062	0.884412	0.618653
	C167	C	0.323568	0.114878	0.381923
	C168	C	0.881305	0.385398	0.176153
	C169	C	0.118779	0.615713	0.176179
	C170	C	0.118922	0.385338	0.823337
	C171	C	0.881140	0.615421	0.823848
	C172	C	0.176306	0.881143	0.385059
	C173	C	0.176074	0.119356	0.614873
	C174	C	0.822577	0.119178	0.384992
	C175	C	0.824138	0.882072	0.615236
	C176	C	0.384605	0.175947	0.881449
	C177	C	0.614732	0.175888	0.118724
	C178	C	0.385180	0.823378	0.118378
	C179	C	0.615682	0.824017	0.881993
	C180	C	0.385191	0.880826	0.176360
	C181	C	0.614756	0.118702	0.176876
	C182	C	0.384559	0.117930	0.823936
	C183	C	0.615269	0.880994	0.823962
	C184	C	0.881230	0.175667	0.384554
	C185	C	0.118468	0.176718	0.614816
	C186	C	0.118509	0.823830	0.385048
	C187	C	0.881380	0.824322	0.615221
	C188	C	0.176106	0.385092	0.881370
	C189	C	0.176526	0.615464	0.118879
	C190	C	0.824138	0.385175	0.118315
	C191	C	0.823715	0.615390	0.881554
	C192	C	0.399463	0.094964	0.600599
	C193	C	0.600465	0.904240	0.599827
	C194	C	0.599044	0.094394	0.401435
	C195	C	0.399756	0.904610	0.399664
	C196	C	0.600451	0.399897	0.094545
	C197	C	0.600374	0.599949	0.905070
	C198	C	0.400696	0.599892	0.094893
	C199	C	0.400036	0.400039	0.905286
	C200	C	0.094377	0.600304	0.400149
	C201	C	0.905403	0.599703	0.600240
	C202	C	0.094451	0.400948	0.599120
	C203	C	0.905236	0.400000	0.399740
	C204	C	0.899891	0.595406	0.100147
	C205	C	0.100081	0.405389	0.100461
	C206	C	0.099639	0.594864	0.900565
	C207	C	0.900288	0.405225	0.899822
	C208	C	0.099783	0.900847	0.594776
	C209	C	0.099962	0.099606	0.405231
	C210	C	0.899264	0.100343	0.594868
	C211	C	0.900171	0.900538	0.405159
	C212	C	0.594752	0.099841	0.899946
	C213	C	0.405382	0.098936	0.099766
	C214	C	0.594347	0.900548	0.099233
	C215	C	0.405741	0.899635	0.899907
	Zn216	Zn	0.499925	-0.000670	0.749645
	Zn217	Zn	0.499994	-0.000129	0.250511
	Zn218	Zn	0.750230	0.500028	-0.000112
	Zn219	Zn	0.250219	0.500131	0.000140
	Zn220	Zn	-0.000427	0.750449	0.500208
	Zn221	Zn	-0.000278	0.249808	0.499904
	Zn222	Zn	0.000074	0.500286	0.749939
	Zn223	Zn	-0.000123	0.500702	0.249698
	Zn224	Zn	0.500412	0.749487	-0.000184
	Zn225	Zn	0.499834	0.249765	0.000021
	Zn226	Zn	0.749875	-0.000323	0.499431
	Zn227	Zn	0.250194	-0.000213	0.500296
	N228	N	0.414763	0.962265	0.677801
	N229	N	0.585102	0.036585	0.677569
	N230	N	0.585138	0.962660	0.322384
	N231	N	0.414084	0.037062	0.321829
	N232	N	0.678769	0.414120	0.962868
	N233	N	0.678643	0.585561	0.036917
	N234	N	0.322249	0.585516	0.963165
	N235	N	0.321711	0.414145	0.036996
	N236	N	0.962495	0.678430	0.414392
	N237	N	0.037310	0.678277	0.585085
	N238	N	0.962369	0.322345	0.584621
	N239	N	0.037266	0.321647	0.414383
	N240	N	0.963040	0.414100	0.678281
	N241	N	0.037240	0.586052	0.678426
	N242	N	0.962506	0.585370	0.322173
	N243	N	0.037224	0.415100	0.321722
	N244	N	0.415202	0.678048	0.962933
	N245	N	0.586201	0.678510	0.037005
	N246	N	0.585183	0.321752	0.962573
	N247	N	0.415326	0.322464	0.037408
	N248	N	0.677499	0.962217	0.415075
	N249	N	0.678597	0.036534	0.585631
	N250	N	0.321801	0.962520	0.585963
	N251	N	0.322090	0.036975	0.415014
	N252	N	0.914547	0.463391	0.178012
	N253	N	0.085386	0.537866	0.178084
	N254	N	0.085610	0.463273	0.821716
	N255	N	0.914260	0.537374	0.821726
	N256	N	0.178030	0.914709	0.462714
	N257	N	0.178408	0.086085	0.537111
	N258	N	0.820239	0.086533	0.463096
	N259	N	0.822163	0.915109	0.537236
	N260	N	0.462324	0.178058	0.914703
	N261	N	0.537225	0.177368	0.084978
	N262	N	0.462709	0.821811	0.084763
	N263	N	0.537854	0.822067	0.915139
	N264	N	0.463076	0.914158	0.178494
	N265	N	0.537061	0.085353	0.178819
	N266	N	0.462579	0.084912	0.821765
	N267	N	0.537461	0.913910	0.821591
	N268	N	0.914845	0.177374	0.462130
	N269	N	0.085190	0.178289	0.536999
	N270	N	0.085261	0.822086	0.462951
	N271	N	0.914659	0.822439	0.537461
	N272	N	0.177709	0.462632	0.915222
	N273	N	0.178674	0.537277	0.086054
	N274	N	0.822166	0.463086	0.085436
	N275	N	0.822044	0.537525	0.914759
