data_Molecule from HDF5

_cell_length_a		16.473530
_cell_length_b		16.565084
_cell_length_c		16.521702
_cell_angle_alpha	89.992947
_cell_angle_beta	89.806594
_cell_angle_gamma	89.923595
_symmetry_space_group_name_H-M	'P 1'
_symmetry_Int_Tables_number		1

loop_
	_symmetry_equiv_pos_as_xyz
	x,y,z

loop_
	_atom_site_label
	_atom_site_type_symbol
	_atom_site_fract_x
	_atom_site_fract_y
	_atom_site_fract_z
	H0	H	0.406045	0.868837	0.733610
	H1	H	0.619180	0.180571	0.734589
	H2	H	0.613672	0.867925	0.291498
	H3	H	0.408062	0.182154	0.291372
	H4	H	0.739261	0.412779	0.856537
	H5	H	0.732846	0.629079	0.166615
	H6	H	0.291086	0.630270	0.851948
	H7	H	0.291700	0.423234	0.167422
	H8	H	0.853912	0.746879	0.406032
	H9	H	0.168799	0.746308	0.615562
	H10	H	0.855553	0.300368	0.620343
	H11	H	0.168056	0.303327	0.405878
	H12	H	0.855064	0.419220	0.735114
	H13	H	0.169095	0.630345	0.730700
	H14	H	0.853714	0.629776	0.289856
	H15	H	0.169961	0.423055	0.292009
	H16	H	0.404416	0.749356	0.853606
	H17	H	0.616530	0.746434	0.166432
	H18	H	0.621717	0.298489	0.855389
	H19	H	0.404447	0.302322	0.165234
	H20	H	0.731756	0.868009	0.406514
	H21	H	0.735406	0.180655	0.616808
	H22	H	0.289993	0.868213	0.616462
	H23	H	0.291600	0.182523	0.408978
	H24	H	0.904404	0.369130	0.234914
	H25	H	0.115399	0.681993	0.231169
	H26	H	0.116244	0.369280	0.788915
	H27	H	0.901070	0.680415	0.786029
	H28	H	0.230710	0.922770	0.352717
	H29	H	0.233421	0.130947	0.667781
	H30	H	0.790445	0.130461	0.352590
	H31	H	0.788019	0.919889	0.666946
	H32	H	0.354941	0.244643	0.906366
	H33	H	0.667446	0.248011	0.118515
	H34	H	0.354198	0.803907	0.115892
	H35	H	0.669110	0.801713	0.903797
	H36	H	0.353640	0.921582	0.231364
	H37	H	0.669739	0.129542	0.230767
	H38	H	0.355360	0.130344	0.789091
	H39	H	0.668718	0.916806	0.786605
	H40	H	0.904359	0.249190	0.353877
	H41	H	0.118981	0.249006	0.666256
	H42	H	0.114672	0.805991	0.353006
	H43	H	0.904034	0.803221	0.667408
	H44	H	0.231133	0.368180	0.907035
	H45	H	0.230639	0.683036	0.112256
	H46	H	0.787454	0.368506	0.119818
	H47	H	0.783928	0.678500	0.901608
	H48	H	0.428795	0.133436	0.596289
	H49	H	0.597717	0.914858	0.598543
	H50	H	0.605657	0.140145	0.416944
	H51	H	0.421409	0.913222	0.423574
	H52	H	0.599916	0.442549	0.119494
	H53	H	0.590631	0.615614	0.900087
	H54	H	0.429988	0.611092	0.117877
	H55	H	0.426016	0.434183	0.897207
	H56	H	0.122574	0.613883	0.425678
	H57	H	0.899517	0.611526	0.599838
	H58	H	0.124172	0.433180	0.597681
	H59	H	0.896640	0.431478	0.421988
	H60	H	0.121178	0.438321	0.593675
	H61	H	0.898050	0.615532	0.599601
	H62	H	0.125209	0.611605	0.415948
	H63	H	0.900575	0.439444	0.428673
	H64	H	0.421066	0.625322	0.125487
	H65	H	0.603234	0.614427	0.895870
	H66	H	0.591205	0.434576	0.119437
	H67	H	0.421141	0.432085	0.895317
	H68	H	0.596660	0.137361	0.418554
	H69	H	0.599396	0.913941	0.597185
	H70	H	0.416736	0.137228	0.596249
	H71	H	0.420618	0.910957	0.418697
	H72	H	0.927405	0.632592	0.095272
	H73	H	0.099676	0.413119	0.100591
	H74	H	0.098967	0.636586	0.922711
	H75	H	0.933227	0.417022	0.922793
	H76	H	0.098033	0.931404	0.623728
	H77	H	0.106760	0.114169	0.396420
	H78	H	0.918140	0.109046	0.622251
	H79	H	0.921718	0.941479	0.399917
	H80	H	0.624997	0.113988	0.925065
	H81	H	0.401256	0.117638	0.092282
	H82	H	0.622619	0.941634	0.099885
	H83	H	0.404007	0.942035	0.928375
	H84	H	0.627109	0.932172	0.106104
	H85	H	0.401682	0.105421	0.102304
	H86	H	0.622487	0.108592	0.926055
	H87	H	0.397740	0.940390	0.914472
	H88	H	0.928522	0.110120	0.618394
	H89	H	0.097432	0.107531	0.401792
	H90	H	0.104395	0.934345	0.625746
	H91	H	0.929135	0.931118	0.398825
	H92	H	0.104636	0.638770	0.920928
	H93	H	0.104133	0.412975	0.099008
	H94	H	0.917960	0.636212	0.095842
	H95	H	0.923538	0.415704	0.930117
	H96	H	0.424047	0.138785	0.606891
	H97	H	0.599429	0.913005	0.598743
	H98	H	0.602866	0.137606	0.425827
	H99	H	0.425515	0.912922	0.419912
	H100	H	0.601597	0.431770	0.123982
	H101	H	0.597183	0.604110	0.901555
	H102	H	0.412580	0.609464	0.123122
	H103	H	0.421294	0.437011	0.897585
	H104	H	0.126583	0.621028	0.418884
	H105	H	0.900360	0.613759	0.596498
	H106	H	0.122704	0.439776	0.600297
	H107	H	0.898208	0.441562	0.418586
	H108	H	0.924671	0.637182	0.103929
	H109	H	0.103160	0.410612	0.103553
	H110	H	0.099839	0.639880	0.917111
	H111	H	0.923108	0.411404	0.918733
	H112	H	0.099255	0.938590	0.622665
	H113	H	0.095824	0.119215	0.398348
	H114	H	0.923503	0.118554	0.623081
	H115	H	0.917287	0.930993	0.394557
	H116	H	0.625188	0.109704	0.920844
	H117	H	0.394605	0.119216	0.106823
	H118	H	0.624729	0.930863	0.094002
	H119	H	0.398057	0.928845	0.924028
	C120	C	0.390365	0.033130	0.632373
	C121	C	0.632598	1.016873	0.631391
	C122	C	0.632988	0.033942	0.389154
	C123	C	0.390587	1.016471	0.389722
	C124	C	0.632821	0.401947	0.018821
	C125	C	0.630873	0.644398	1.002012
	C126	C	0.389144	0.647563	0.018094
	C127	C	0.390428	0.403719	1.000948
	C128	C	0.020086	0.647130	0.388684
	C129	C	1.002868	0.646276	0.631630
	C130	C	0.019538	0.403840	0.631684
	C131	C	1.002674	0.405319	0.390584
	C132	C	0.890222	0.532594	0.132032
	C133	C	0.133527	0.516339	0.132138
	C134	C	0.133163	0.534658	0.888364
	C135	C	0.890535	0.516665	0.889426
	C136	C	0.132457	0.903407	0.519679
	C137	C	0.132520	0.146259	0.502206
	C138	C	0.890039	0.146358	0.518204
	C139	C	0.889737	0.903097	0.501644
	C140	C	0.520800	0.144423	0.890310
	C141	C	0.502996	0.146284	0.132456
	C142	C	0.520070	0.903407	0.132042
	C143	C	0.503376	0.903407	0.888988
	C144	C	0.387837	0.915435	0.693170
	C145	C	0.636773	0.133964	0.693464
	C146	C	0.633234	0.915065	0.330798
	C147	C	0.389118	0.135204	0.331099
	C148	C	0.697275	0.396321	0.902891
	C149	C	0.692043	0.647273	0.119776
	C150	C	0.330081	0.649235	0.899613
	C151	C	0.330875	0.403333	0.119657
	C152	C	0.901023	0.706538	0.387383
	C153	C	0.121285	0.706473	0.633903
	C154	C	0.902136	0.341748	0.637261
	C155	C	0.121307	0.344547	0.387949
	C156	C	0.901895	0.400685	0.694321
	C157	C	0.121581	0.648620	0.691201
	C158	C	0.901181	0.648589	0.329544
	C159	C	0.122219	0.403769	0.331322
	C160	C	0.386896	0.708154	0.900184
	C161	C	0.634356	0.705522	0.119603
	C162	C	0.638963	0.339184	0.902390
	C163	C	0.387111	0.343629	0.118776
	C164	C	0.691830	0.915155	0.387823
	C165	C	0.694242	0.134116	0.634724
	C166	C	0.330279	0.914955	0.634864
	C167	C	0.331313	0.135303	0.389351
	C168	C	0.886660	0.415659	0.194255
	C169	C	0.134316	0.635111	0.190975
	C170	C	0.134882	0.416157	0.828895
	C171	C	0.884376	0.633378	0.826767
	C172	C	0.191656	0.903061	0.400567
	C173	C	0.193159	0.149193	0.620246
	C174	C	0.830041	0.149197	0.399978
	C175	C	0.828482	0.901115	0.619825
	C176	C	0.402125	0.204744	0.887952
	C177	C	0.620747	0.207184	0.135980
	C178	C	0.401414	0.844030	0.134141
	C179	C	0.621807	0.842165	0.885983
	C180	C	0.401196	0.902291	0.191764
	C181	C	0.621899	0.148371	0.192200
	C182	C	0.402666	0.147959	0.829401
	C183	C	0.621645	0.899229	0.827499
	C184	C	0.886601	0.208349	0.400709
	C185	C	0.136023	0.207770	0.619726
	C186	C	0.133766	0.845149	0.400589
	C187	C	0.886191	0.843056	0.619994
	C188	C	0.191893	0.415619	0.887504
	C189	C	0.191390	0.635656	0.131972
	C190	C	0.828504	0.415533	0.136842
	C191	C	0.825741	0.632275	0.884180
	C192	C	0.415786	0.115136	0.606907
	C193	C	0.606370	0.935282	0.605616
	C194	C	0.608834	0.116770	0.413461
	C195	C	0.415165	0.933902	0.413847
	C196	C	0.605205	0.428780	0.099857
	C197	C	0.604678	0.618544	0.920439
	C198	C	0.414014	0.622520	0.100810
	C199	C	0.415685	0.427809	0.918280
	C200	C	0.103272	0.622666	0.413207
	C201	C	0.920582	0.620807	0.605996
	C202	C	0.101374	0.429763	0.604987
	C203	C	0.920185	0.430318	0.415834
	C204	C	0.915880	0.614081	0.105702
	C205	C	0.109263	0.433839	0.108185
	C206	C	0.108359	0.616912	0.913024
	C207	C	0.918630	0.435904	0.916136
	C208	C	0.107697	0.927792	0.602525
	C209	C	0.107312	0.120725	0.420404
	C210	C	0.916060	0.120169	0.599697
	C211	C	0.915283	0.927763	0.419120
	C212	C	0.602761	0.118204	0.916329
	C213	C	0.420645	0.121250	0.107501
	C214	C	0.603182	0.927839	0.107201
	C215	C	0.421298	0.929617	0.914902
	Zn216	Zn	0.512373	0.024307	0.761166
	Zn217	Zn	0.511731	0.024957	0.260372
	Zn218	Zn	0.761011	0.523308	0.010570
	Zn219	Zn	0.261597	0.525583	0.009204
	Zn220	Zn	0.011233	0.774759	0.510851
	Zn221	Zn	0.010620	0.275052	0.510693
	Zn222	Zn	0.011449	0.525653	0.760405
	Zn223	Zn	0.011066	0.525031	0.260630
	Zn224	Zn	0.511291	0.775287	0.009555
	Zn225	Zn	0.511861	0.273701	0.010212
	Zn226	Zn	0.761869	0.025082	0.509854
	Zn227	Zn	0.261525	0.024571	0.511566
	N228	N	0.424543	0.989904	0.691810
	N229	N	0.599105	0.060083	0.691300
	N230	N	0.597661	0.990089	0.331240
	N231	N	0.425004	0.060339	0.331030
	N232	N	0.693478	0.434900	0.976174
	N233	N	0.690267	0.609983	0.045562
	N234	N	0.331584	0.612165	0.973974
	N235	N	0.332571	0.439814	0.045160
	N236	N	0.976153	0.705803	0.423293
	N237	N	0.046318	0.705382	0.597749
	N238	N	0.976160	0.343831	0.599000
	N239	N	0.045943	0.345242	0.423834
	N240	N	0.976003	0.438635	0.690903
	N241	N	0.046668	0.612172	0.690225
	N242	N	0.976203	0.612555	0.330229
	N243	N	0.047494	0.440633	0.332769
	N244	N	0.422674	0.707368	0.975110
	N245	N	0.596870	0.703626	0.045409
	N246	N	0.599636	0.342626	0.975574
	N247	N	0.423390	0.343611	0.043963
	N248	N	0.691822	0.990193	0.423138
	N249	N	0.691860	0.060287	0.596971
	N250	N	0.331729	0.989157	0.597939
	N251	N	0.332060	0.060392	0.424931
	N252	N	0.924369	0.489544	0.191383
	N253	N	0.099055	0.560002	0.191238
	N254	N	0.099209	0.491029	0.829223
	N255	N	0.923896	0.560378	0.829985
	N256	N	0.191253	0.938348	0.475838
	N257	N	0.191357	0.111636	0.546275
	N258	N	0.831997	0.111430	0.473915
	N259	N	0.830407	0.937498	0.545132
	N260	N	0.476659	0.202727	0.925097
	N261	N	0.545846	0.206261	0.099565
	N262	N	0.476422	0.844495	0.097954
	N263	N	0.547088	0.844597	0.923520
	N264	N	0.476192	0.938522	0.190536
	N265	N	0.547476	0.111426	0.190444
	N266	N	0.477478	0.111404	0.830631
	N267	N	0.547234	0.936579	0.829301
	N268	N	0.922772	0.207111	0.475598
	N269	N	0.099042	0.206326	0.545312
	N270	N	0.098331	0.844957	0.475908
	N271	N	0.923428	0.844081	0.545524
	N272	N	0.191023	0.490388	0.923539
	N273	N	0.190968	0.560938	0.095978
	N274	N	0.830621	0.489241	0.098666
	N275	N	0.829382	0.558727	0.922404
	O276	O	1.154095	0.885266	0.213531
	H277	H	1.129337	0.903373	0.212990
	H278	H	1.151901	0.892331	0.220448
	O279	O	-0.185639	0.223224	0.809539
	H280	H	-0.179199	0.226910	0.851717
	H281	H	-0.179840	0.184937	0.806246
	O282	O	0.578887	0.386460	0.565223
	H283	H	0.562229	0.392944	0.580441
	H284	H	0.564856	0.372387	0.557488
	O285	O	0.311050	0.319120	0.711080
	H286	H	0.289619	0.319654	0.733236
	H287	H	0.317176	0.319439	0.720185
	O288	O	0.966908	-0.200258	0.966338
	H289	H	0.979185	-0.199944	0.949258
	H290	H	0.977321	-0.196926	0.987745
	O291	O	0.695590	0.332628	0.322951
	H292	H	0.703544	0.337978	0.348666
	H293	H	0.701971	0.352664	0.332190
	O294	O	-0.009624	-0.045664	0.020202
	H295	H	-0.010297	-0.046394	0.023957
	H296	H	-0.007263	-0.036330	0.026063
	O297	O	1.186945	0.123896	-0.044199
	H298	H	1.181238	0.115590	-0.041996
	H299	H	1.185154	0.120607	-0.042054
	O300	O	0.221571	0.001152	-0.203302
	H301	H	0.226159	0.000600	-0.197596
	H302	H	0.235160	-0.003940	-0.214288
	O303	O	-0.021939	0.042175	0.148189
	H304	H	-0.035422	0.039779	0.159556
	H305	H	-0.040944	0.034874	0.128481
	O306	O	1.200419	0.136005	-0.097888
	H307	H	1.179128	0.132801	-0.070973
	H308	H	1.192155	0.112091	-0.087801
	O309	O	0.451975	0.465624	0.285123
	H310	H	0.457705	0.456028	0.300420
	H311	H	0.454945	0.468441	0.275628
	O312	O	-0.188108	0.029582	0.808763
	H313	H	-0.178103	0.011658	0.808042
	H314	H	-0.203026	0.023149	0.796358
	O315	O	0.729340	0.481614	0.564502
	H316	H	0.729682	0.490628	0.577771
	H317	H	0.713367	0.482230	0.569418
	O318	O	0.854331	0.865254	0.004894
	H319	H	0.869584	0.858533	0.001522
	H320	H	0.843121	0.850466	-0.001578
	O321	O	0.078274	0.854448	1.104928
	H322	H	0.087325	0.861754	1.119007
	H323	H	0.077148	0.859974	1.120047
	O324	O	0.873459	0.001268	0.908748
	H325	H	0.869996	-0.025364	0.905980
	H326	H	0.874262	-0.000217	0.924802
	O327	O	0.345447	0.476208	0.590164
	H328	H	0.342082	0.484917	0.592274
	H329	H	0.330515	0.466377	0.586321
	O330	O	0.515356	0.537871	0.608579
	H331	H	0.517413	0.532855	0.603902
	H332	H	0.519426	0.541171	0.619151
	O333	O	0.453271	0.304797	0.468101
	H334	H	0.442501	0.303680	0.459881
	H335	H	0.430617	0.295872	0.466356
	O336	O	0.728738	0.742245	0.533450
	H337	H	0.712772	0.730410	0.573008
	H338	H	0.759148	0.775566	0.548774
	O339	O	0.316032	0.727836	0.312682
	H340	H	0.344253	0.741075	0.298369
	H341	H	0.298604	0.710114	0.293713
	O342	O	-0.283707	0.728482	-0.285050
	H343	H	-0.272743	0.687397	-0.275571
	H344	H	-0.332750	0.732572	-0.279387
	O345	O	0.487614	0.734716	0.301141
	H346	H	0.483869	0.722070	0.285602
	H347	H	0.497344	0.731259	0.298561
	O348	O	0.529545	0.504982	0.728018
	H349	H	0.524459	0.474669	0.728793
	H350	H	0.509070	0.508304	0.726174
	O351	O	-0.199385	0.021942	1.211327
	H352	H	-0.222063	0.008463	1.229562
	H353	H	-0.194818	-0.006820	1.200363
	O354	O	0.903252	0.044572	0.967874
	H355	H	0.895371	0.044337	0.984896
	H356	H	0.904589	0.045915	0.972545
	O357	O	0.299785	0.493537	0.723975
	H358	H	0.283005	0.493110	0.735473
	H359	H	0.294906	0.493528	0.721704
	O360	O	0.378932	0.502019	0.408311
	H361	H	0.372558	0.499381	0.399561
	H362	H	0.393971	0.486626	0.409015
	O363	O	1.225619	0.068661	0.162409
	H364	H	1.241433	0.064250	0.193443
	H365	H	1.223581	0.095826	0.163971
	O366	O	0.486391	0.312669	0.723927
	H367	H	0.479359	0.285866	0.746625
	H368	H	0.483116	0.311131	0.707563
	O369	O	0.216036	0.236387	1.044643
	H370	H	0.212621	0.242507	1.047388
	H371	H	0.227634	0.242544	1.050395
	O372	O	0.009503	1.192695	0.792394
	H373	H	-0.008186	1.202143	0.773983
	H374	H	0.007900	1.177145	0.801272
	O375	O	1.217575	-0.077432	0.096414
	H376	H	1.217211	-0.064903	0.096001
	H377	H	1.205485	-0.065122	0.110492
	O378	O	0.563940	0.698106	0.498516
	H379	H	0.561225	0.704993	0.504795
	H380	H	0.563772	0.701711	0.490657
	O381	O	-0.147877	0.994771	0.140990
	H382	H	-0.146145	0.994545	0.135238
	H383	H	-0.160425	0.994441	0.140531
	O384	O	0.524613	0.614884	0.503276
	H385	H	0.517231	0.615493	0.497932
	H386	H	0.531437	0.612044	0.508629
	O387	O	0.200613	0.834276	0.816780
	H388	H	0.209114	0.848384	0.848396
	H389	H	0.190028	0.832550	0.808161
	O390	O	0.057294	1.187271	1.034727
	H391	H	0.043118	1.183805	1.048054
	H392	H	0.055106	1.181042	1.033616
	O393	O	0.962740	-0.194801	0.161120
	H394	H	0.939829	-0.201832	0.166019
	H395	H	0.951800	-0.198757	0.173216
	O396	O	0.567859	0.579217	0.287052
	H397	H	0.574129	0.562181	0.293466
	H398	H	0.572849	0.561874	0.283364
	O399	O	0.481459	0.555039	0.594172
	H400	H	0.468189	0.558492	0.599056
	H401	H	0.477763	0.547112	0.604675
	O402	O	0.975560	-0.002089	0.831826
	H403	H	0.972610	-0.016743	0.833407
	H404	H	1.000020	-0.012064	0.828208
	O405	O	0.955131	0.197776	0.005609
	H406	H	0.976172	0.194753	0.016802
	H407	H	0.958074	0.203560	-0.004704
	O408	O	0.806948	0.819636	1.218125
	H409	H	0.772923	0.789112	1.246397
	H410	H	0.800025	0.825995	1.180446
	O411	O	0.698477	0.715357	0.320024
	H412	H	0.684628	0.692947	0.339995
	H413	H	0.680227	0.697896	0.338676
	O414	O	0.002721	0.120441	0.029690
	H415	H	-0.011362	0.116024	0.041301
	H416	H	0.001457	0.119781	0.027775
	O417	O	0.533143	0.312025	0.295547
	H418	H	0.543637	0.300328	0.279536
	H419	H	0.556411	0.306177	0.300039
	O420	O	1.216886	-0.181324	0.983737
	H421	H	1.214102	-0.179256	0.993353
	H422	H	1.228985	-0.190703	0.988623
	O423	O	1.037606	0.803752	-0.208141
	H424	H	1.035649	0.776805	-0.224369
	H425	H	1.061116	0.805484	-0.204865
	O426	O	0.436196	0.654774	0.588116
	H427	H	0.439793	0.661947	0.575797
	H428	H	0.437745	0.650854	0.579429
	O429	O	0.639557	0.320980	0.643727
	H430	H	0.665566	0.301769	0.653111
	H431	H	0.627670	0.317227	0.620511
	O432	O	0.798280	0.167354	0.989719
	H433	H	0.817885	0.169204	0.989603
	H434	H	0.785493	0.178305	0.988337
	O435	O	0.313324	0.581902	0.369270
	H436	H	0.305506	0.576903	0.357733
	H437	H	0.312132	0.595644	0.365010
	O438	O	0.715656	0.496368	0.301640
	H439	H	0.727312	0.503158	0.311076
	H440	H	0.735822	0.497564	0.305357
	O441	O	0.290247	0.747415	0.480369
	H442	H	0.283134	0.754091	0.448444
	H443	H	0.271576	0.764974	0.460591
	O444	O	0.301641	0.385023	0.489253
	H445	H	0.299881	0.393958	0.504607
	H446	H	0.300763	0.389642	0.516943
	O447	O	0.327441	0.634725	0.630547
	H448	H	0.319499	0.640587	0.619242
	H449	H	0.331079	0.648756	0.636053
	O450	O	1.052376	0.201228	0.186339
	H451	H	1.072339	0.196137	0.185082
	H452	H	1.070660	0.212940	0.201848
	O453	O	0.324931	0.337122	0.321698
	H454	H	0.343342	0.360038	0.335017
	H455	H	0.340979	0.355360	0.344403
	O456	O	-0.435206	0.732533	0.716703
	H457	H	-0.451630	0.749641	0.737036
	H458	H	-0.455608	0.721610	0.690941
	O459	O	0.648456	0.584511	0.451921
	H460	H	0.660338	0.617880	0.473178
	H461	H	0.627795	0.569878	0.469969
	O462	O	0.719065	0.548754	0.722828
	H463	H	0.742084	0.540189	0.752526
	H464	H	0.692945	0.526464	0.722321
	O465	O	0.218363	0.232208	0.220923
	H466	H	0.251012	0.264851	0.251320
	H467	H	0.205855	0.224040	0.200862
	O468	O	0.044363	0.003378	0.148194
	H469	H	0.029069	0.005291	0.151719
	H470	H	0.042617	0.009156	0.148762
	O471	O	0.014019	0.080248	-0.146833
	H472	H	0.013020	0.088184	-0.152817
	H473	H	0.008042	0.094656	-0.143717
	O474	O	0.844834	1.221772	0.110277
	H475	H	0.837506	1.228902	0.107712
	H476	H	0.850397	1.222900	0.116049
	O477	O	0.726455	0.315784	0.488551
	H478	H	0.744373	0.334855	0.500534
	H479	H	0.727460	0.296181	0.501123
