data_Molecule from HDF5

_cell_length_a		16.083198
_cell_length_b		16.227570
_cell_length_c		16.358237
_cell_angle_alpha	90.005400
_cell_angle_beta	89.752994
_cell_angle_gamma	89.939267
_symmetry_space_group_name_H-M	'P 1'
_symmetry_Int_Tables_number		1

loop_
	_symmetry_equiv_pos_as_xyz
	x,y,z

loop_
	_atom_site_label
	_atom_site_type_symbol
	_atom_site_fract_x
	_atom_site_fract_y
	_atom_site_fract_z
	H0	H	0.400752	0.831528	0.720790
	H1	H	0.603171	0.157997	0.721242
	H2	H	0.603939	0.831447	0.289091
	H3	H	0.402188	0.158529	0.289442
	H4	H	0.717784	0.397425	0.840545
	H5	H	0.715479	0.591439	0.168514
	H6	H	0.290470	0.592231	0.840999
	H7	H	0.288355	0.397807	0.167848
	H8	H	0.836404	0.707034	0.407063
	H9	H	0.168023	0.708386	0.600892
	H10	H	0.836928	0.282182	0.603459
	H11	H	0.168240	0.282794	0.406976
	H12	H	0.838682	0.393250	0.721545
	H13	H	0.168275	0.594780	0.717726
	H14	H	0.838434	0.595844	0.288952
	H15	H	0.168076	0.394153	0.289371
	H16	H	0.402455	0.711804	0.842862
	H17	H	0.601542	0.710168	0.167591
	H18	H	0.604856	0.277393	0.842124
	H19	H	0.402561	0.278772	0.166647
	H20	H	0.715400	0.830677	0.407824
	H21	H	0.713178	0.160296	0.599894
	H22	H	0.289093	0.830447	0.601203
	H23	H	0.290375	0.160543	0.410180
	H24	H	0.900687	0.332120	0.221701
	H25	H	0.104755	0.657526	0.220304
	H26	H	0.105218	0.331748	0.786611
	H27	H	0.902623	0.658292	0.788902
	H28	H	0.216580	0.898390	0.340662
	H29	H	0.214922	0.094578	0.667725
	H30	H	0.788822	0.093061	0.340401
	H31	H	0.787495	0.898154	0.667730
	H32	H	0.337344	0.207576	0.907699
	H33	H	0.668887	0.206357	0.101557
	H34	H	0.337241	0.782885	0.103871
	H35	H	0.667527	0.781841	0.907066
	H36	H	0.337825	0.895437	0.220039
	H37	H	0.667299	0.095299	0.219810
	H38	H	0.338005	0.095524	0.791730
	H39	H	0.666182	0.893427	0.788935
	H40	H	0.901758	0.213172	0.342405
	H41	H	0.100170	0.211070	0.666750
	H42	H	0.102705	0.779351	0.341563
	H43	H	0.899635	0.778378	0.666782
	H44	H	0.217088	0.329898	0.905782
	H45	H	0.213556	0.659397	0.098896
	H46	H	0.789530	0.330058	0.101563
	H47	H	0.790643	0.660191	0.908499
	H48	H	0.414643	0.110372	0.598686
	H49	H	0.592698	0.876161	0.605687
	H50	H	0.591972	0.110326	0.414019
	H51	H	0.411774	0.876042	0.406468
	H52	H	0.597904	0.399307	0.121484
	H53	H	0.601784	0.581464	0.889051
	H54	H	0.406437	0.585118	0.121407
	H55	H	0.415936	0.404745	0.890627
	H56	H	0.121545	0.586843	0.409116
	H57	H	0.883992	0.583570	0.602675
	H58	H	0.121334	0.400451	0.594490
	H59	H	0.882035	0.400647	0.408184
	H60	H	0.119742	0.404549	0.595284
	H61	H	0.883355	0.590973	0.596844
	H62	H	0.120085	0.588217	0.412716
	H63	H	0.885486	0.402335	0.416513
	H64	H	0.412196	0.589209	0.120376
	H65	H	0.585914	0.588672	0.891405
	H66	H	0.595202	0.401009	0.119580
	H67	H	0.412333	0.395324	0.886548
	H68	H	0.599050	0.114001	0.410410
	H69	H	0.587129	0.880764	0.594533
	H70	H	0.405276	0.112889	0.595487
	H71	H	0.413481	0.879480	0.414817
	H72	H	0.911069	0.611919	0.098757
	H73	H	0.088319	0.378265	0.099962
	H74	H	0.096616	0.610536	0.915737
	H75	H	0.908953	0.376612	0.907488
	H76	H	0.096857	0.895488	0.622746
	H77	H	0.084145	0.082691	0.392571
	H78	H	0.908586	0.093651	0.621737
	H79	H	0.907577	0.901565	0.387585
	H80	H	0.621914	0.087736	0.911056
	H81	H	0.385625	0.086368	0.095724
	H82	H	0.619815	0.903895	0.094064
	H83	H	0.383363	0.898668	0.916689
	H84	H	0.622125	0.904676	0.101580
	H85	H	0.384336	0.083948	0.100085
	H86	H	0.620482	0.084252	0.914467
	H87	H	0.385456	0.907867	0.914508
	H88	H	0.904515	0.087482	0.621232
	H89	H	0.094971	0.102656	0.383775
	H90	H	0.097658	0.907829	0.619988
	H91	H	0.911116	0.901731	0.389235
	H92	H	0.099876	0.613646	0.906483
	H93	H	0.096412	0.377317	0.091647
	H94	H	0.910550	0.611526	0.096630
	H95	H	0.916453	0.380333	0.910237
	H96	H	0.407187	0.114584	0.605930
	H97	H	0.600473	0.876722	0.594404
	H98	H	0.591951	0.113642	0.406420
	H99	H	0.405463	0.876582	0.413241
	H100	H	0.594717	0.398014	0.121023
	H101	H	0.599083	0.598705	0.884985
	H102	H	0.405809	0.593507	0.122814
	H103	H	0.405498	0.403398	0.887040
	H104	H	0.119787	0.583980	0.411826
	H105	H	0.886636	0.582607	0.593643
	H106	H	0.121554	0.402732	0.598459
	H107	H	0.885805	0.408862	0.410708
	H108	H	0.909294	0.612872	0.098485
	H109	H	0.099014	0.374192	0.101880
	H110	H	0.089841	0.611269	0.907187
	H111	H	0.909897	0.378740	0.916491
	H112	H	0.086492	0.901371	0.618369
	H113	H	0.107474	0.082729	0.386427
	H114	H	0.910783	0.086942	0.618428
	H115	H	0.910090	0.898661	0.386649
	H116	H	0.620614	0.083294	0.910649
	H117	H	0.383527	0.089124	0.099552
	H118	H	0.623130	0.898128	0.097643
	H119	H	0.381747	0.902212	0.907707
	C120	C	0.379520	0.004263	0.628035
	C121	C	0.622709	0.986759	0.626229
	C122	C	0.623446	0.003988	0.382555
	C123	C	0.381578	0.986325	0.383840
	C124	C	0.625293	0.371729	0.012748
	C125	C	0.624341	0.617237	0.996345
	C126	C	0.380447	0.617272	0.013332
	C127	C	0.381470	0.372598	0.995735
	C128	C	0.011261	0.615934	0.382876
	C129	C	0.993989	0.615524	0.625677
	C130	C	0.011550	0.373774	0.625486
	C131	C	0.993863	0.374495	0.383166
	C132	C	0.881297	0.503422	0.126271
	C133	C	0.123183	0.485648	0.125344
	C134	C	0.124802	0.503278	0.881429
	C135	C	0.881839	0.486434	0.882799
	C136	C	0.123721	0.872904	0.512584
	C137	C	0.123614	0.117687	0.495467
	C138	C	0.879366	0.118191	0.512980
	C139	C	0.879996	0.872670	0.495685
	C140	C	0.511778	0.114910	0.883980
	C141	C	0.494000	0.115393	0.126336
	C142	C	0.511856	0.873793	0.126552
	C143	C	0.492816	0.873598	0.883980
	C144	C	0.381441	0.880451	0.682391
	C145	C	0.621911	0.109725	0.681958
	C146	C	0.622951	0.880259	0.327479
	C147	C	0.382715	0.109727	0.328093
	C148	C	0.680713	0.375570	0.889802
	C149	C	0.678345	0.612952	0.119548
	C150	C	0.327320	0.613606	0.890161
	C151	C	0.325634	0.376012	0.118760
	C152	C	0.886478	0.670580	0.385820
	C153	C	0.118622	0.670931	0.622168
	C154	C	0.886470	0.319378	0.623710
	C155	C	0.118664	0.319722	0.386052
	C156	C	0.887546	0.374577	0.682523
	C157	C	0.118742	0.614428	0.680010
	C158	C	0.887381	0.614986	0.327345
	C159	C	0.118511	0.374873	0.327461
	C160	C	0.382864	0.673150	0.891162
	C161	C	0.621830	0.672017	0.119177
	C162	C	0.624106	0.316390	0.890155
	C163	C	0.382446	0.317095	0.118228
	C164	C	0.678312	0.879860	0.386317
	C165	C	0.676763	0.110751	0.621680
	C166	C	0.325574	0.879844	0.623194
	C167	C	0.327100	0.110895	0.387866
	C168	C	0.881951	0.380381	0.182261
	C169	C	0.122816	0.608868	0.181066
	C170	C	0.124189	0.380143	0.825613
	C171	C	0.882835	0.609683	0.827110
	C172	C	0.179369	0.876592	0.389694
	C173	C	0.177495	0.114962	0.618652
	C174	C	0.825392	0.114791	0.389644
	C175	C	0.824617	0.876450	0.618764
	C176	C	0.386926	0.170432	0.887027
	C177	C	0.618978	0.169728	0.122950
	C178	C	0.386883	0.819364	0.124541
	C179	C	0.617715	0.818683	0.886031
	C180	C	0.387112	0.875482	0.182008
	C181	C	0.618234	0.114012	0.181288
	C182	C	0.387203	0.114465	0.829452
	C183	C	0.617024	0.874415	0.827475
	C184	C	0.881729	0.174068	0.390525
	C185	C	0.120523	0.172885	0.618260
	C186	C	0.122620	0.817568	0.390141
	C187	C	0.880410	0.816870	0.618241
	C188	C	0.180022	0.379404	0.884459
	C189	C	0.177229	0.609824	0.120953
	C190	C	0.826474	0.379696	0.122680
	C191	C	0.827447	0.610699	0.886975
	C192	C	0.402162	0.090462	0.606473
	C193	C	0.600005	0.900327	0.604624
	C194	C	0.600973	0.090405	0.403974
	C195	C	0.403842	0.899800	0.405319
	C196	C	0.602522	0.393130	0.098510
	C197	C	0.602214	0.595861	0.910645
	C198	C	0.401837	0.595649	0.099367
	C199	C	0.404544	0.394519	0.910199
	C200	C	0.098229	0.593156	0.404953
	C201	C	0.907002	0.592476	0.604037
	C202	C	0.098408	0.396014	0.602777
	C203	C	0.906844	0.397216	0.405331
	C204	C	0.903846	0.589815	0.104533
	C205	C	0.100957	0.399033	0.104279
	C206	C	0.102143	0.589485	0.903382
	C207	C	0.904919	0.400651	0.904915
	C208	C	0.100545	0.895088	0.598192
	C209	C	0.101851	0.095773	0.409686
	C210	C	0.901444	0.095937	0.598378
	C211	C	0.902864	0.894273	0.409921
	C212	C	0.598582	0.091866	0.905600
	C213	C	0.407006	0.093220	0.104735
	C214	C	0.599162	0.895770	0.104252
	C215	C	0.406102	0.896261	0.906383
	Zn216	Zn	0.501666	-0.005072	0.756116
	Zn217	Zn	0.502672	-0.005558	0.254148
	Zn218	Zn	0.753119	0.495189	0.004457
	Zn219	Zn	0.251917	0.494715	0.004196
	Zn220	Zn	0.002109	0.743537	0.504459
	Zn221	Zn	0.001904	0.246843	0.504045
	Zn222	Zn	0.003202	0.494558	0.753548
	Zn223	Zn	0.002880	0.494601	0.255208
	Zn224	Zn	0.501889	0.746644	0.005464
	Zn225	Zn	0.503046	0.242665	0.004205
	Zn226	Zn	0.751225	-0.004671	0.503948
	Zn227	Zn	0.252149	-0.004465	0.505008
	N228	N	0.414222	0.958732	0.685519
	N229	N	0.589102	0.031460	0.684936
	N230	N	0.589416	0.958466	0.324986
	N231	N	0.415723	0.031349	0.325649
	N232	N	0.681381	0.409235	0.966881
	N233	N	0.679943	0.579697	0.042116
	N234	N	0.325560	0.579668	0.967160
	N235	N	0.324809	0.409914	0.041541
	N236	N	0.964594	0.671195	0.419687
	N237	N	0.040091	0.671574	0.589007
	N238	N	0.964618	0.318672	0.589030
	N239	N	0.040159	0.319302	0.420113
	N240	N	0.966285	0.407556	0.683814
	N241	N	0.040251	0.580747	0.682266
	N242	N	0.966029	0.581587	0.325551
	N243	N	0.039887	0.408180	0.325492
	N244	N	0.415110	0.675506	0.968974
	N245	N	0.588766	0.674887	0.041656
	N246	N	0.590414	0.313837	0.967662
	N247	N	0.416582	0.314964	0.040955
	N248	N	0.678759	0.957710	0.419810
	N249	N	0.677426	0.033144	0.587960
	N250	N	0.324144	0.957783	0.590153
	N251	N	0.326313	0.033206	0.421787
	N252	N	0.915311	0.458465	0.184745
	N253	N	0.090054	0.530521	0.183935
	N254	N	0.090636	0.458131	0.823431
	N255	N	0.915902	0.531382	0.824284
	N256	N	0.179917	0.910440	0.466910
	N257	N	0.179450	0.081322	0.541481
	N258	N	0.823988	0.080780	0.466596
	N259	N	0.824014	0.910330	0.541610
	N260	N	0.465259	0.170683	0.920340
	N261	N	0.540584	0.170861	0.089426
	N262	N	0.465435	0.818189	0.090545
	N263	N	0.539613	0.818057	0.920684
	N264	N	0.465891	0.908347	0.183393
	N265	N	0.539530	0.080834	0.183437
	N266	N	0.465830	0.080678	0.827429
	N267	N	0.538254	0.907610	0.826009
	N268	N	0.914341	0.176575	0.468144
	N269	N	0.087566	0.174726	0.540652
	N270	N	0.088638	0.815296	0.467537
	N271	N	0.914325	0.814410	0.540700
	N272	N	0.180392	0.456973	0.918599
	N273	N	0.177488	0.532220	0.086918
	N274	N	0.826137	0.457127	0.088622
	N275	N	0.826710	0.533174	0.920896
	O276	O	1.068779	0.979147	0.011105
	H277	H	1.066783	0.982893	0.020254
	H278	H	1.064663	0.971093	-0.004934
	O279	O	0.049121	-0.030154	-0.068257
	H280	H	0.051005	-0.034839	-0.072371
	H281	H	0.049394	-0.039601	-0.067636
	O282	O	-0.078727	0.027326	0.987686
	H283	H	-0.075555	0.028486	0.987812
	H284	H	-0.073455	0.028192	0.988083
	O285	O	0.571302	0.520284	0.527366
	H286	H	0.569849	0.519766	0.524088
	H287	H	0.577041	0.526044	0.530038
	O288	O	0.488430	0.472119	0.527968
	H289	H	0.489028	0.471998	0.527065
	H290	H	0.493408	0.476245	0.531986
	O291	O	0.592074	0.508038	0.501489
	H292	H	0.592938	0.499136	0.495742
	H293	H	0.595250	0.510441	0.498510
	O294	O	0.015380	0.002541	-0.047141
	H295	H	0.022619	-0.000881	-0.049508
	H296	H	0.017643	-0.011461	-0.054250
	O297	O	0.558996	0.495142	0.537203
	H298	H	0.564801	0.489628	0.540067
	H299	H	0.544895	0.481510	0.538289
	O300	O	-0.053956	1.025171	0.923597
	H301	H	-0.049433	1.028121	0.923187
	H302	H	-0.049034	1.024525	0.923980
	O303	O	0.541654	0.473022	0.488052
	H304	H	0.543227	0.473017	0.486229
	H305	H	0.540544	0.476232	0.492362
	O306	O	-0.001017	-0.063328	0.953067
	H307	H	-0.008195	-0.054041	0.958544
	H308	H	0.002611	-0.056951	0.949535
	O309	O	1.004101	0.999327	0.987214
	H310	H	0.995100	1.006201	0.992676
	H311	H	1.010861	1.005563	0.979471
	O312	O	0.534372	0.488811	0.515422
	H313	H	0.533655	0.487245	0.520160
	H314	H	0.535027	0.496783	0.512634
	O315	O	-0.041492	1.039689	-0.023874
	H316	H	-0.055951	1.039606	-0.030754
	H317	H	-0.033972	1.056267	-0.015549
	O318	O	0.023094	1.015045	-0.009044
	H319	H	0.014754	1.015716	-0.004960
	H320	H	0.021450	1.017031	-0.012629
	O321	O	1.027452	0.963674	-0.052226
	H322	H	1.023107	0.963826	-0.042855
	H323	H	1.024059	0.962296	-0.053080
