data_Molecule from HDF5

_cell_length_a		16.299895
_cell_length_b		16.304370
_cell_length_c		16.162642
_cell_angle_alpha	89.976961
_cell_angle_beta	89.725871
_cell_angle_gamma	90.097548
_symmetry_space_group_name_H-M	'P 1'
_symmetry_Int_Tables_number		1

loop_
	_symmetry_equiv_pos_as_xyz
	x,y,z

loop_
	_atom_site_label
	_atom_site_type_symbol
	_atom_site_fract_x
	_atom_site_fract_y
	_atom_site_fract_z
	H0	H	0.405929	0.839909	0.710247
	H1	H	0.600280	0.167745	0.709113
	H2	H	0.600809	0.839496	0.283480
	H3	H	0.409074	0.168194	0.284623
	H4	H	0.718282	0.405662	0.832027
	H5	H	0.717219	0.602982	0.160481
	H6	H	0.290278	0.603253	0.831978
	H7	H	0.287789	0.404462	0.161273
	H8	H	0.840113	0.718879	0.396791
	H9	H	0.166166	0.719977	0.595035
	H10	H	0.839338	0.288460	0.595990
	H11	H	0.167062	0.288259	0.395142
	H12	H	0.839087	0.405993	0.710711
	H13	H	0.167762	0.601459	0.708572
	H14	H	0.839445	0.600267	0.283943
	H15	H	0.167674	0.407154	0.281695
	H16	H	0.407060	0.717368	0.831809
	H17	H	0.601459	0.717284	0.160675
	H18	H	0.604803	0.289299	0.832103
	H19	H	0.403069	0.288472	0.160861
	H20	H	0.718940	0.840469	0.397363
	H21	H	0.718767	0.167046	0.595107
	H22	H	0.287209	0.840617	0.597226
	H23	H	0.289677	0.166961	0.397347
	H24	H	0.906224	0.339631	0.209749
	H25	H	0.099596	0.668103	0.208673
	H26	H	0.101267	0.339721	0.781973
	H27	H	0.907412	0.667468	0.783855
	H28	H	0.217339	0.906213	0.331698
	H29	H	0.215702	0.101624	0.662266
	H30	H	0.792207	0.101470	0.331365
	H31	H	0.788760	0.904516	0.660541
	H32	H	0.341009	0.220658	0.896700
	H33	H	0.667509	0.218497	0.094700
	H34	H	0.340322	0.788508	0.096247
	H35	H	0.666989	0.790016	0.896861
	H36	H	0.340030	0.906455	0.210892
	H37	H	0.668400	0.100839	0.208974
	H38	H	0.339245	0.101156	0.783842
	H39	H	0.667063	0.907005	0.782062
	H40	H	0.906875	0.216314	0.331028
	H41	H	0.101192	0.218056	0.661552
	H42	H	0.101956	0.791041	0.331228
	H43	H	0.904200	0.789287	0.660663
	H44	H	0.218640	0.339998	0.897568
	H45	H	0.218882	0.667045	0.096154
	H46	H	0.787457	0.340840	0.096082
	H47	H	0.789782	0.666792	0.897810
	H48	H	0.402072	0.121010	0.584422
	H49	H	0.603806	0.884202	0.591895
	H50	H	0.595094	0.117745	0.411001
	H51	H	0.409349	0.883864	0.396038
	H52	H	0.592194	0.405400	0.114731
	H53	H	0.599816	0.599986	0.876739
	H54	H	0.411311	0.604779	0.116134
	H55	H	0.416229	0.412266	0.880965
	H56	H	0.122246	0.599212	0.398906
	H57	H	0.886450	0.596579	0.591533
	H58	H	0.117050	0.414553	0.584520
	H59	H	0.886459	0.409128	0.400202
	H60	H	0.121299	0.411462	0.592888
	H61	H	0.886257	0.598859	0.590480
	H62	H	0.119609	0.602011	0.406280
	H63	H	0.886226	0.405918	0.404730
	H64	H	0.402440	0.592016	0.114947
	H65	H	0.599058	0.593578	0.878417
	H66	H	0.602349	0.409994	0.116188
	H67	H	0.410597	0.406620	0.877808
	H68	H	0.608842	0.123391	0.402766
	H69	H	0.590675	0.888553	0.592812
	H70	H	0.410095	0.122027	0.597354
	H71	H	0.416101	0.890144	0.406812
	H72	H	0.919275	0.616908	0.086534
	H73	H	0.105736	0.382833	0.095222
	H74	H	0.090940	0.621814	0.891926
	H75	H	0.910740	0.390261	0.914489
	H76	H	0.088802	0.917937	0.609841
	H77	H	0.099249	0.100790	0.377491
	H78	H	0.913814	0.095515	0.612569
	H79	H	0.912447	0.906742	0.377776
	H80	H	0.617543	0.088660	0.903619
	H81	H	0.390354	0.095247	0.082210
	H82	H	0.623739	0.904335	0.095141
	H83	H	0.384809	0.908270	0.900816
	H84	H	0.619566	0.906531	0.081948
	H85	H	0.388240	0.090374	0.095683
	H86	H	0.623054	0.100702	0.894599
	H87	H	0.386994	0.907709	0.908915
	H88	H	0.910005	0.100389	0.615140
	H89	H	0.100385	0.093789	0.378807
	H90	H	0.091588	0.902354	0.615914
	H91	H	0.907248	0.912428	0.377044
	H92	H	0.093924	0.615619	0.913466
	H93	H	0.084291	0.389393	0.093838
	H94	H	0.900902	0.621201	0.082568
	H95	H	0.900242	0.382541	0.899573
	H96	H	0.416472	0.116819	0.584586
	H97	H	0.596932	0.888937	0.580779
	H98	H	0.594022	0.121058	0.394606
	H99	H	0.402829	0.885786	0.408321
	H100	H	0.593708	0.416447	0.112380
	H101	H	0.594234	0.597676	0.879708
	H102	H	0.417583	0.591057	0.110525
	H103	H	0.407975	0.415130	0.879202
	H104	H	0.118779	0.594081	0.403855
	H105	H	0.887022	0.596910	0.588962
	H106	H	0.119573	0.405019	0.585487
	H107	H	0.887850	0.411431	0.405805
	H108	H	0.907844	0.623435	0.100431
	H109	H	0.097366	0.391221	0.075835
	H110	H	0.111074	0.624031	0.901437
	H111	H	0.918820	0.387674	0.897021
	H112	H	0.104121	0.913622	0.616313
	H113	H	0.093377	0.097389	0.381155
	H114	H	0.907899	0.094244	0.614420
	H115	H	0.914435	0.914499	0.380105
	H116	H	0.619624	0.103474	0.910401
	H117	H	0.384310	0.103676	0.092200
	H118	H	0.619592	0.916814	0.091591
	H119	H	0.388032	0.914612	0.904644
	C120	C	0.380990	0.011995	0.618145
	C121	C	0.625222	0.995422	0.617206
	C122	C	0.626574	0.012192	0.374814
	C123	C	0.382178	0.995226	0.375428
	C124	C	0.624915	0.382569	0.005185
	C125	C	0.625090	0.625245	0.987459
	C126	C	0.382319	0.624937	0.005192
	C127	C	0.382195	0.382516	0.988273
	C128	C	0.012019	0.625743	0.374843
	C129	C	0.994868	0.625741	0.618093
	C130	C	0.010902	0.382068	0.617141
	C131	C	0.995223	0.381508	0.374275
	C132	C	0.881029	0.512293	0.118519
	C133	C	0.124609	0.495707	0.117365
	C134	C	0.126374	0.511907	0.874001
	C135	C	0.882034	0.494844	0.875161
	C136	C	0.123701	0.883083	0.504929
	C137	C	0.125479	0.125820	0.488421
	C138	C	0.883010	0.124636	0.504698
	C139	C	0.882138	0.882304	0.487340
	C140	C	0.512027	0.126170	0.874581
	C141	C	0.495799	0.124724	0.117878
	C142	C	0.512714	0.881175	0.118553
	C143	C	0.494821	0.882272	0.875332
	C144	C	0.384564	0.888669	0.672756
	C145	C	0.621546	0.118825	0.671705
	C146	C	0.622193	0.888482	0.320889
	C147	C	0.387269	0.118929	0.321387
	C148	C	0.680454	0.385156	0.881220
	C149	C	0.679149	0.622469	0.111628
	C150	C	0.328234	0.623148	0.880965
	C151	C	0.325869	0.384219	0.111996
	C152	C	0.888602	0.680334	0.377036
	C153	C	0.117813	0.681314	0.615160
	C154	C	0.888092	0.326603	0.615862
	C155	C	0.118303	0.326365	0.375628
	C156	C	0.887837	0.385413	0.672556
	C157	C	0.118365	0.622674	0.671883
	C158	C	0.888426	0.621434	0.320998
	C159	C	0.118790	0.385699	0.319499
	C160	C	0.385918	0.679910	0.881084
	C161	C	0.622135	0.679823	0.111589
	C162	C	0.623686	0.327685	0.881266
	C163	C	0.383538	0.326930	0.111995
	C164	C	0.680982	0.889112	0.377099
	C165	C	0.680609	0.118259	0.615298
	C166	C	0.325452	0.889280	0.616768
	C167	C	0.328125	0.118404	0.377649
	C168	C	0.884460	0.388897	0.173021
	C169	C	0.121296	0.618971	0.171877
	C170	C	0.122545	0.388619	0.819453
	C171	C	0.886204	0.618500	0.821161
	C172	C	0.179422	0.885802	0.380803
	C173	C	0.178895	0.122639	0.612722
	C174	C	0.829172	0.121918	0.380759
	C175	C	0.826622	0.884406	0.611351
	C176	C	0.389349	0.181875	0.876760
	C177	C	0.618612	0.180382	0.114986
	C178	C	0.389450	0.826366	0.116601
	C179	C	0.618090	0.827933	0.877051
	C180	C	0.389151	0.884965	0.173474
	C181	C	0.619394	0.121764	0.171653
	C182	C	0.388472	0.122514	0.820583
	C183	C	0.618122	0.886043	0.819913
	C184	C	0.886166	0.178942	0.380426
	C185	C	0.121932	0.180380	0.612398
	C186	C	0.122394	0.828216	0.380715
	C187	C	0.883870	0.827132	0.611424
	C188	C	0.180976	0.388768	0.876668
	C189	C	0.180358	0.618507	0.115667
	C190	C	0.825641	0.389385	0.116364
	C191	C	0.827392	0.617975	0.877442
	C192	C	0.403052	0.097667	0.595448
	C193	C	0.603435	0.909459	0.595082
	C194	C	0.605622	0.098362	0.396379
	C195	C	0.403247	0.908963	0.397289
	C196	C	0.602648	0.404360	0.091945
	C197	C	0.603899	0.603462	0.900650
	C198	C	0.403951	0.602432	0.091469
	C199	C	0.404826	0.405007	0.901704
	C200	C	0.098080	0.604491	0.396569
	C201	C	0.908787	0.603882	0.596584
	C202	C	0.097073	0.404004	0.594222
	C203	C	0.909030	0.402486	0.396666
	C204	C	0.902856	0.598158	0.096344
	C205	C	0.102340	0.409874	0.094764
	C206	C	0.105170	0.598230	0.895766
	C207	C	0.903567	0.408998	0.897157
	C208	C	0.101400	0.904768	0.591616
	C209	C	0.104169	0.103729	0.401521
	C210	C	0.904304	0.103168	0.591641
	C211	C	0.904830	0.904619	0.400581
	C212	C	0.597853	0.104157	0.896451
	C213	C	0.409893	0.102796	0.096477
	C214	C	0.598660	0.902842	0.096210
	C215	C	0.408791	0.903822	0.898002
	Zn216	Zn	0.502966	0.003785	0.746053
	Zn217	Zn	0.504611	0.003398	0.247216
	Zn218	Zn	0.752858	0.503856	-0.003512
	Zn219	Zn	0.254455	0.504081	-0.003722
	Zn220	Zn	0.003013	0.754436	0.495983
	Zn221	Zn	0.003417	0.252771	0.495930
	Zn222	Zn	0.003473	0.503493	0.746181
	Zn223	Zn	0.003313	0.504030	0.246511
	Zn224	Zn	0.503858	0.752653	-0.003698
	Zn225	Zn	0.503942	0.254765	-0.003247
	Zn226	Zn	0.754964	0.003501	0.496044
	Zn227	Zn	0.252543	0.003557	0.496588
	N228	N	0.418378	0.965979	0.673808
	N229	N	0.587785	0.041437	0.672999
	N230	N	0.589204	0.966087	0.319200
	N231	N	0.420123	0.041133	0.319803
	N232	N	0.681309	0.418615	0.959273
	N233	N	0.681284	0.589341	0.033414
	N234	N	0.325869	0.589708	0.959013
	N235	N	0.325304	0.418397	0.034049
	N236	N	0.966472	0.683194	0.409556
	N237	N	0.039878	0.683710	0.582720
	N238	N	0.965909	0.324525	0.582071
	N239	N	0.040562	0.324091	0.409419
	N240	N	0.965300	0.419036	0.673539
	N241	N	0.041038	0.588923	0.673919
	N242	N	0.965963	0.587988	0.319639
	N243	N	0.041454	0.419281	0.318616
	N244	N	0.418804	0.681276	0.959356
	N245	N	0.589086	0.681402	0.033429
	N246	N	0.589575	0.326291	0.959350
	N247	N	0.417657	0.325763	0.034068
	N248	N	0.683854	0.967007	0.409584
	N249	N	0.682962	0.040473	0.582148
	N250	N	0.322988	0.967050	0.583749
	N251	N	0.324803	0.040639	0.410436
	N252	N	0.918233	0.466220	0.174303
	N253	N	0.087339	0.541645	0.173002
	N254	N	0.089383	0.466153	0.817756
	N255	N	0.919369	0.541002	0.819627
	N256	N	0.180732	0.918825	0.459170
	N257	N	0.181329	0.089487	0.534401
	N258	N	0.827155	0.088720	0.459184
	N259	N	0.825462	0.917931	0.533182
	N260	N	0.466945	0.184123	0.909550
	N261	N	0.540789	0.182393	0.082430
	N262	N	0.467199	0.823863	0.083159
	N263	N	0.540449	0.825448	0.910673
	N264	N	0.466711	0.918448	0.174882
	N265	N	0.542074	0.087782	0.173689
	N266	N	0.465896	0.088771	0.818719
	N267	N	0.540497	0.919404	0.818947
	N268	N	0.919070	0.180587	0.458572
	N269	N	0.089694	0.182470	0.533896
	N270	N	0.088340	0.826615	0.458769
	N271	N	0.917606	0.825837	0.533310
	N272	N	0.183433	0.466542	0.909703
	N273	N	0.182399	0.540807	0.082483
	N274	N	0.823605	0.466998	0.083034
	N275	N	0.824771	0.540274	0.910537
	O276	O	0.037228	0.016488	1.016365
	H277	H	0.034857	0.016923	1.020305
	H278	H	0.042514	0.016141	1.020688
	O279	O	0.411963	0.419398	0.546046
	H280	H	0.408447	0.415821	0.537425
	H281	H	0.408700	0.431702	0.539402
	O282	O	0.400877	0.410574	0.581707
	H283	H	0.405022	0.404275	0.588387
	H284	H	0.400441	0.406132	0.579446
	O285	O	0.392398	0.457277	0.556729
	H286	H	0.385098	0.456090	0.556160
	H287	H	0.380515	0.464643	0.562110
	O288	O	0.400038	0.439598	0.578744
	H289	H	0.409202	0.432257	0.579724
	H290	H	0.394109	0.433361	0.585967
	O291	O	0.043653	1.009912	0.993960
	H292	H	0.045313	1.010229	0.995249
	H293	H	0.050150	1.011301	0.994704
	O294	O	0.387134	0.486724	0.571275
	H295	H	0.384819	0.480481	0.575974
	H296	H	0.382491	0.488383	0.580041
	O297	O	1.042723	0.004982	0.000754
	H298	H	1.035754	0.003152	0.001897
	H299	H	1.044193	0.007924	0.005631
