data_Molecule from HDF5

_cell_length_a		16.249540
_cell_length_b		16.316642
_cell_length_c		16.187842
_cell_angle_alpha	89.847731
_cell_angle_beta	90.078132
_cell_angle_gamma	90.124243
_symmetry_space_group_name_H-M	'P 1'
_symmetry_Int_Tables_number		1

loop_
	_symmetry_equiv_pos_as_xyz
	x,y,z

loop_
	_atom_site_label
	_atom_site_type_symbol
	_atom_site_fract_x
	_atom_site_fract_y
	_atom_site_fract_z
	H0	H	0.392628	0.828340	0.719556
	H1	H	0.588442	0.156632	0.718434
	H2	H	0.587423	0.827863	0.292833
	H3	H	0.393835	0.155802	0.290688
	H4	H	0.702383	0.394388	0.840876
	H5	H	0.703496	0.587792	0.171171
	H6	H	0.278048	0.588264	0.839700
	H7	H	0.276124	0.392884	0.170210
	H8	H	0.826258	0.706406	0.404920
	H9	H	0.153644	0.707444	0.605559
	H10	H	0.826407	0.274437	0.605518
	H11	H	0.153391	0.277569	0.406415
	H12	H	0.825478	0.393155	0.718559
	H13	H	0.154139	0.588516	0.718251
	H14	H	0.825687	0.586797	0.293014
	H15	H	0.153886	0.394745	0.292068
	H16	H	0.390414	0.706617	0.841858
	H17	H	0.589330	0.706172	0.170582
	H18	H	0.587307	0.279452	0.840997
	H19	H	0.391824	0.276976	0.170412
	H20	H	0.705258	0.828991	0.406866
	H21	H	0.706468	0.155632	0.603429
	H22	H	0.276648	0.828560	0.603904
	H23	H	0.276132	0.155816	0.405687
	H24	H	0.891752	0.328288	0.219291
	H25	H	0.087750	0.655488	0.218505
	H26	H	0.086337	0.327579	0.792711
	H27	H	0.892648	0.655842	0.791856
	H28	H	0.203628	0.895141	0.340920
	H29	H	0.204471	0.089976	0.670173
	H30	H	0.777175	0.089760	0.341133
	H31	H	0.777350	0.893403	0.670392
	H32	H	0.325330	0.205532	0.906920
	H33	H	0.654235	0.205845	0.103215
	H34	H	0.325576	0.776317	0.104790
	H35	H	0.653467	0.777116	0.906977
	H36	H	0.325882	0.894320	0.219737
	H37	H	0.655274	0.088589	0.218148
	H38	H	0.325464	0.088272	0.792047
	H39	H	0.654939	0.895639	0.793012
	H40	H	0.891616	0.205754	0.341268
	H41	H	0.089324	0.206500	0.669202
	H42	H	0.087463	0.779483	0.340561
	H43	H	0.890751	0.775016	0.668928
	H44	H	0.203564	0.328159	0.908120
	H45	H	0.205435	0.654998	0.103444
	H46	H	0.775594	0.328179	0.103282
	H47	H	0.773801	0.654767	0.905503
	H48	H	0.394091	0.107443	0.591791
	H49	H	0.582342	0.877104	0.595891
	H50	H	0.575872	0.108133	0.406066
	H51	H	0.391909	0.870256	0.400463
	H52	H	0.589748	0.400811	0.124972
	H53	H	0.574256	0.593860	0.888563
	H54	H	0.404353	0.577239	0.118453
	H55	H	0.404418	0.399240	0.890624
	H56	H	0.108974	0.591268	0.410971
	H57	H	0.876187	0.572662	0.599258
	H58	H	0.109131	0.392104	0.600129
	H59	H	0.873146	0.403463	0.408759
	H60	H	0.104575	0.399289	0.590827
	H61	H	0.867842	0.592270	0.606593
	H62	H	0.105696	0.585289	0.416795
	H63	H	0.870029	0.391417	0.409806
	H64	H	0.399619	0.593563	0.125195
	H65	H	0.592534	0.587041	0.885030
	H66	H	0.577738	0.401321	0.120759
	H67	H	0.394036	0.390045	0.885304
	H68	H	0.582958	0.106096	0.421186
	H69	H	0.587238	0.874781	0.599649
	H70	H	0.392615	0.111641	0.603977
	H71	H	0.410215	0.880021	0.414280
	H72	H	0.894443	0.608280	0.093267
	H73	H	0.073203	0.378667	0.097650
	H74	H	0.078377	0.607487	0.907064
	H75	H	0.892207	0.374092	0.910971
	H76	H	0.085040	0.896323	0.623745
	H77	H	0.082224	0.086216	0.387930
	H78	H	0.902524	0.082303	0.621457
	H79	H	0.895927	0.901105	0.388175
	H80	H	0.608579	0.088485	0.909881
	H81	H	0.373056	0.084105	0.098389
	H82	H	0.605518	0.898002	0.094723
	H83	H	0.370836	0.892790	0.911450
	H84	H	0.606625	0.900309	0.100236
	H85	H	0.372513	0.084803	0.098451
	H86	H	0.606627	0.087982	0.915921
	H87	H	0.374920	0.899186	0.918652
	H88	H	0.898043	0.088025	0.624377
	H89	H	0.084286	0.085823	0.388209
	H90	H	0.084086	0.901792	0.622636
	H91	H	0.899658	0.897022	0.388056
	H92	H	0.084345	0.606612	0.918258
	H93	H	0.089468	0.375563	0.089766
	H94	H	0.892319	0.610695	0.101671
	H95	H	0.897900	0.375637	0.909564
	H96	H	0.403801	0.107284	0.600018
	H97	H	0.581616	0.876116	0.602131
	H98	H	0.592390	0.111373	0.408402
	H99	H	0.387462	0.877296	0.424530
	H100	H	0.582199	0.390467	0.125349
	H101	H	0.578372	0.575234	0.893259
	H102	H	0.387417	0.580109	0.124710
	H103	H	0.390715	0.404467	0.887432
	H104	H	0.107345	0.583386	0.409041
	H105	H	0.875410	0.589746	0.584527
	H106	H	0.105894	0.404521	0.602418
	H107	H	0.874243	0.397250	0.419777
	H108	H	0.900946	0.607428	0.100538
	H109	H	0.087132	0.371131	0.107475
	H110	H	0.090538	0.611069	0.907604
	H111	H	0.896045	0.375666	0.915579
	H112	H	0.080424	0.898146	0.622002
	H113	H	0.083334	0.084799	0.387963
	H114	H	0.894843	0.081509	0.623369
	H115	H	0.894133	0.895832	0.386035
	H116	H	0.606165	0.083621	0.912175
	H117	H	0.373184	0.084775	0.097795
	H118	H	0.608026	0.894728	0.099206
	H119	H	0.373226	0.902831	0.908714
	C120	C	0.368705	0.000522	0.627107
	C121	C	0.612473	0.984026	0.627282
	C122	C	0.612054	0.000313	0.384004
	C123	C	0.368470	0.983867	0.383660
	C124	C	0.610838	0.370378	0.014311
	C125	C	0.611053	0.613147	0.997697
	C126	C	0.368728	0.612439	0.013943
	C127	C	0.368383	0.369788	0.997106
	C128	C	-0.001336	0.613925	0.383429
	C129	C	0.981678	0.613232	0.626002
	C130	C	-0.001712	0.369998	0.626668
	C131	C	0.980995	0.369938	0.383927
	C132	C	0.867943	0.500444	0.126698
	C133	C	0.112108	0.483207	0.127045
	C134	C	0.111842	0.500088	0.883295
	C135	C	0.867479	0.483412	0.883682
	C136	C	0.111749	0.870477	0.513970
	C137	C	0.112384	0.114112	0.496624
	C138	C	0.869768	0.112377	0.514440
	C139	C	0.868640	0.869531	0.496305
	C140	C	0.498416	0.114212	0.883769
	C141	C	0.481579	0.112849	0.126517
	C142	C	0.498259	0.869445	0.127119
	C143	C	0.481536	0.870190	0.884375
	C144	C	0.371693	0.877167	0.681962
	C145	C	0.609563	0.107533	0.681556
	C146	C	0.608487	0.876871	0.330031
	C147	C	0.372082	0.106908	0.328153
	C148	C	0.664919	0.374012	0.890084
	C149	C	0.665749	0.609382	0.122037
	C150	C	0.314194	0.609895	0.889635
	C151	C	0.313872	0.372358	0.121016
	C152	C	0.875180	0.668561	0.385291
	C153	C	0.104954	0.668642	0.624866
	C154	C	0.875161	0.313436	0.625107
	C155	C	0.104670	0.315773	0.386242
	C156	C	0.874702	0.372416	0.681237
	C157	C	0.105150	0.609667	0.680960
	C158	C	0.874776	0.609289	0.329563
	C159	C	0.104669	0.373909	0.329224
	C160	C	0.370521	0.668150	0.890315
	C161	C	0.608703	0.667678	0.121815
	C162	C	0.607912	0.316710	0.890158
	C163	C	0.371052	0.314658	0.121008
	C164	C	0.666764	0.877396	0.387044
	C165	C	0.668242	0.107209	0.624493
	C166	C	0.314109	0.877369	0.624479
	C167	C	0.314037	0.106917	0.385555
	C168	C	0.871010	0.377087	0.181526
	C169	C	0.108851	0.606517	0.181157
	C170	C	0.107756	0.376693	0.829754
	C171	C	0.870970	0.606782	0.828918
	C172	C	0.166133	0.874060	0.389965
	C173	C	0.167007	0.110645	0.620706
	C174	C	0.814741	0.110299	0.390159
	C175	C	0.814517	0.872586	0.620848
	C176	C	0.374557	0.168253	0.886128
	C177	C	0.605307	0.167986	0.124089
	C178	C	0.374621	0.814127	0.125524
	C179	C	0.604927	0.815669	0.886962
	C180	C	0.374681	0.872877	0.182152
	C181	C	0.605927	0.109491	0.180714
	C182	C	0.374504	0.109798	0.829291
	C183	C	0.605502	0.874509	0.830412
	C184	C	0.871864	0.167452	0.390204
	C185	C	0.110025	0.168590	0.620455
	C186	C	0.108642	0.816357	0.389955
	C187	C	0.871265	0.814246	0.620402
	C188	C	0.166044	0.376928	0.886937
	C189	C	0.167090	0.606188	0.123898
	C190	C	0.813591	0.376976	0.123584
	C191	C	0.812240	0.606363	0.885570
	C192	C	0.390409	0.086346	0.605188
	C193	C	0.590267	0.898338	0.605655
	C194	C	0.590274	0.086346	0.405460
	C195	C	0.390164	0.898063	0.406272
	C196	C	0.589556	0.391488	0.101330
	C197	C	0.588490	0.591627	0.911203
	C198	C	0.390690	0.590122	0.100327
	C199	C	0.390121	0.391386	0.910221
	C200	C	0.085042	0.592829	0.405540
	C201	C	0.895398	0.591316	0.603343
	C202	C	0.084329	0.392077	0.604239
	C203	C	0.894671	0.391019	0.406188
	C204	C	0.889590	0.586603	0.104880
	C205	C	0.089736	0.397300	0.105054
	C206	C	0.090707	0.586335	0.904694
	C207	C	0.888898	0.397271	0.905525
	C208	C	0.089678	0.892219	0.600583
	C209	C	0.089829	0.092410	0.410259
	C210	C	0.891934	0.090474	0.600719
	C211	C	0.890164	0.891442	0.409891
	C212	C	0.584823	0.092984	0.906144
	C213	C	0.395285	0.090855	0.104734
	C214	C	0.584509	0.891313	0.104816
	C215	C	0.395278	0.891801	0.906493
	Zn216	Zn	0.490503	-0.007691	0.755751
	Zn217	Zn	0.490784	-0.008374	0.255110
	Zn218	Zn	0.738943	0.491650	0.005415
	Zn219	Zn	0.240580	0.491404	0.005227
	Zn220	Zn	-0.009555	0.741933	0.505094
	Zn221	Zn	-0.010115	0.241079	0.505250
	Zn222	Zn	-0.010789	0.491772	0.754656
	Zn223	Zn	-0.010095	0.491779	0.255630
	Zn224	Zn	0.489328	0.741168	0.005990
	Zn225	Zn	0.490049	0.241908	0.005679
	Zn226	Zn	0.741181	-0.007801	0.505462
	Zn227	Zn	0.240130	-0.007970	0.505732
	N228	N	0.404954	0.954629	0.683685
	N229	N	0.575754	0.030159	0.683219
	N230	N	0.575225	0.954219	0.328085
	N231	N	0.405427	0.029445	0.326991
	N232	N	0.666706	0.406844	0.968388
	N233	N	0.667388	0.576580	0.043985
	N234	N	0.313039	0.575731	0.967469
	N235	N	0.311896	0.405709	0.042932
	N236	N	0.953382	0.671477	0.418057
	N237	N	0.027237	0.670705	0.591331
	N238	N	0.953043	0.311834	0.591811
	N239	N	0.026936	0.313430	0.419726
	N240	N	0.952055	0.406735	0.682416
	N241	N	0.027338	0.575994	0.681746
	N242	N	0.952399	0.576107	0.328353
	N243	N	0.026773	0.406893	0.327820
	N244	N	0.403577	0.669820	0.968534
	N245	N	0.575593	0.670200	0.043398
	N246	N	0.575085	0.314289	0.968367
	N247	N	0.404443	0.313110	0.042865
	N248	N	0.668983	0.955125	0.419854
	N249	N	0.670266	0.029563	0.591476
	N250	N	0.312090	0.955010	0.591056
	N251	N	0.311642	0.029373	0.419224
	N252	N	0.904205	0.454716	0.183420
	N253	N	0.075326	0.529018	0.183080
	N254	N	0.074694	0.454123	0.827505
	N255	N	0.904485	0.529391	0.827461
	N256	N	0.167953	0.906990	0.467917
	N257	N	0.168639	0.077569	0.542685
	N258	N	0.813456	0.076571	0.468142
	N259	N	0.812769	0.906494	0.542769
	N260	N	0.452498	0.170927	0.919418
	N261	N	0.527112	0.170014	0.091114
	N262	N	0.452293	0.812236	0.091988
	N263	N	0.526781	0.812857	0.919770
	N264	N	0.452433	0.906652	0.183199
	N265	N	0.528237	0.075873	0.182326
	N266	N	0.452539	0.077045	0.827831
	N267	N	0.527742	0.907807	0.828785
	N268	N	0.905377	0.168844	0.468341
	N269	N	0.076735	0.170853	0.542390
	N270	N	0.075694	0.814020	0.468336
	N271	N	0.903904	0.812232	0.542277
	N272	N	0.168632	0.454649	0.919547
	N273	N	0.169160	0.528470	0.091069
	N274	N	0.811557	0.454664	0.090264
	N275	N	0.810090	0.528687	0.918884
	O276	O	1.530003	0.534961	0.579641
	H277	H	1.536201	0.530728	0.583846
	H278	H	1.530648	0.545400	0.573135
	O279	O	0.526612	0.553638	0.575737
	H280	H	0.528668	0.556667	0.581775
	H281	H	0.527265	0.552516	0.582051
	O282	O	1.468730	1.552835	-0.419130
	H283	H	1.475840	1.544656	-0.425407
	H284	H	1.465526	1.560261	-0.412810
	O285	O	0.492331	0.560638	0.589734
	H286	H	0.481505	0.559483	0.588869
	H287	H	0.490954	0.565106	0.590916
