data_Molecule from HDF5

_cell_length_a		16.525525
_cell_length_b		16.700911
_cell_length_c		16.671797
_cell_angle_alpha	89.978729
_cell_angle_beta	90.021814
_cell_angle_gamma	90.053085
_symmetry_space_group_name_H-M	'P 1'
_symmetry_Int_Tables_number		1

loop_
	_symmetry_equiv_pos_as_xyz
	x,y,z

loop_
	_atom_site_label
	_atom_site_type_symbol
	_atom_site_fract_x
	_atom_site_fract_y
	_atom_site_fract_z
	H0	H	0.390297	0.857787	0.722347
	H1	H	0.599969	0.168015	0.725726
	H2	H	0.602410	0.860052	0.278953
	H3	H	0.386970	0.166667	0.279707
	H4	H	0.716779	0.406988	0.849945
	H5	H	0.713215	0.617670	0.158455
	H6	H	0.275431	0.614085	0.845722
	H7	H	0.271083	0.407971	0.157503
	H8	H	0.836960	0.733291	0.398961
	H9	H	0.147025	0.738504	0.612658
	H10	H	0.836541	0.294877	0.606026
	H11	H	0.151094	0.295486	0.400075
	H12	H	0.836166	0.411658	0.721240
	H13	H	0.147673	0.620729	0.727113
	H14	H	0.837945	0.618374	0.282663
	H15	H	0.149979	0.410179	0.282894
	H16	H	0.389565	0.732916	0.846318
	H17	H	0.599657	0.735869	0.157250
	H18	H	0.601021	0.289280	0.850010
	H19	H	0.382694	0.287242	0.154419
	H20	H	0.717751	0.860440	0.396057
	H21	H	0.712543	0.170421	0.605482
	H22	H	0.273185	0.858229	0.605971
	H23	H	0.273323	0.168554	0.398133
	H24	H	0.888198	0.359400	0.224662
	H25	H	0.099795	0.668315	0.224820
	H26	H	0.100129	0.359882	0.779720
	H27	H	0.883660	0.665962	0.778137
	H28	H	0.215435	0.908031	0.348548
	H29	H	0.213375	0.116464	0.659531
	H30	H	0.776487	0.113883	0.345832
	H31	H	0.771355	0.908995	0.657544
	H32	H	0.336924	0.233833	0.896667
	H33	H	0.647830	0.235617	0.110091
	H34	H	0.336874	0.792364	0.107763
	H35	H	0.650190	0.794770	0.900685
	H36	H	0.338494	0.906167	0.225263
	H37	H	0.649454	0.117539	0.223948
	H38	H	0.337163	0.118104	0.781159
	H39	H	0.650470	0.910625	0.784280
	H40	H	0.891337	0.233184	0.346794
	H41	H	0.097739	0.233744	0.659442
	H42	H	0.101166	0.789274	0.350437
	H43	H	0.883725	0.789422	0.656355
	H44	H	0.217056	0.360264	0.895916
	H45	H	0.212325	0.670417	0.105242
	H46	H	0.771747	0.359323	0.108140
	H47	H	0.769218	0.666632	0.895837
	H48	H	0.401176	0.126726	0.594870
	H49	H	0.581431	0.903058	0.592602
	H50	H	0.579157	0.123099	0.413357
	H51	H	0.404511	0.901826	0.412122
	H52	H	0.575495	0.412054	0.117132
	H53	H	0.583035	0.606101	0.889103
	H54	H	0.400315	0.597776	0.113362
	H55	H	0.411502	0.425587	0.894094
	H56	H	0.105281	0.602320	0.416282
	H57	H	0.881558	0.605409	0.589467
	H58	H	0.105753	0.425987	0.592536
	H59	H	0.881925	0.428532	0.411297
	H60	H	0.106572	0.423950	0.593135
	H61	H	0.884568	0.597749	0.587024
	H62	H	0.106311	0.601946	0.414292
	H63	H	0.878357	0.419796	0.410068
	H64	H	0.410969	0.606487	0.112505
	H65	H	0.583996	0.600180	0.892401
	H66	H	0.592263	0.428974	0.116463
	H67	H	0.404777	0.419716	0.890591
	H68	H	0.582797	0.123713	0.415728
	H69	H	0.584054	0.902381	0.591886
	H70	H	0.406953	0.124949	0.595193
	H71	H	0.407788	0.903035	0.415251
	H72	H	0.909741	0.624466	0.097039
	H73	H	0.078870	0.403495	0.096538
	H74	H	0.082417	0.625213	0.913628
	H75	H	0.906625	0.405316	0.918963
	H76	H	0.082731	0.925305	0.614669
	H77	H	0.082016	0.107580	0.391103
	H78	H	0.905288	0.097830	0.612662
	H79	H	0.906921	0.922417	0.391994
	H80	H	0.603625	0.099847	0.915709
	H81	H	0.382379	0.093761	0.095363
	H82	H	0.603892	0.924166	0.088501
	H83	H	0.380338	0.924740	0.910953
	H84	H	0.605801	0.927024	0.093355
	H85	H	0.379706	0.105813	0.090800
	H86	H	0.606037	0.102033	0.912002
	H87	H	0.378948	0.920766	0.910709
	H88	H	0.908819	0.113385	0.615738
	H89	H	0.085461	0.105783	0.390711
	H90	H	0.080524	0.928058	0.612995
	H91	H	0.904456	0.927257	0.392758
	H92	H	0.080008	0.623702	0.913611
	H93	H	0.081190	0.404786	0.088829
	H94	H	0.905162	0.622387	0.086498
	H95	H	0.901326	0.401439	0.913701
	H96	H	0.403750	0.124032	0.590363
	H97	H	0.583313	0.902279	0.594290
	H98	H	0.582568	0.124237	0.411622
	H99	H	0.403298	0.902633	0.416639
	H100	H	0.570232	0.432671	0.107284
	H101	H	0.577892	0.603297	0.892643
	H102	H	0.398901	0.610483	0.117843
	H103	H	0.402456	0.427919	0.892795
	H104	H	0.106631	0.603827	0.415067
	H105	H	0.881211	0.598612	0.594538
	H106	H	0.105544	0.424050	0.590579
	H107	H	0.882242	0.422011	0.418246
	H108	H	0.898636	0.627622	0.094728
	H109	H	0.086393	0.401023	0.094080
	H110	H	0.081892	0.623301	0.915438
	H111	H	0.909686	0.403081	0.911360
	H112	H	0.079381	0.924008	0.613380
	H113	H	0.082987	0.103357	0.392588
	H114	H	0.894314	0.107862	0.618673
	H115	H	0.909708	0.926317	0.394725
	H116	H	0.605306	0.104677	0.916566
	H117	H	0.384868	0.096690	0.082648
	H118	H	0.607304	0.921475	0.092617
	H119	H	0.380476	0.922280	0.914284
	C120	C	0.372691	0.022134	0.624355
	C121	C	0.615009	1.005524	0.624340
	C122	C	0.615043	0.021857	0.380983
	C123	C	0.372022	1.004348	0.381414
	C124	C	0.614007	0.391351	0.012014
	C125	C	0.614251	0.635134	0.994221
	C126	C	0.372149	0.635413	0.011016
	C127	C	0.372051	0.391771	0.994356
	C128	C	0.002428	0.634803	0.382814
	C129	C	0.984479	0.634580	0.624676
	C130	C	0.002137	0.392945	0.623943
	C131	C	0.984996	0.392524	0.381902
	C132	C	0.872336	0.522408	0.124757
	C133	C	0.114648	0.505601	0.124677
	C134	C	0.114294	0.522091	0.881477
	C135	C	0.871589	0.504670	0.881646
	C136	C	0.114213	0.892489	0.511824
	C137	C	0.115074	0.135698	0.494939
	C138	C	0.872193	0.136326	0.511827
	C139	C	0.872690	0.892624	0.494844
	C140	C	0.501610	0.134403	0.881734
	C141	C	0.484876	0.132464	0.122767
	C142	C	0.502431	0.891470	0.124102
	C143	C	0.484438	0.892352	0.881781
	C144	C	0.371380	0.904530	0.682747
	C145	C	0.617537	0.122001	0.684593
	C146	C	0.619660	0.906294	0.319808
	C147	C	0.368980	0.120433	0.320233
	C148	C	0.676059	0.388544	0.896302
	C149	C	0.673734	0.636518	0.111506
	C150	C	0.314299	0.634367	0.892880
	C151	C	0.310877	0.389178	0.110402
	C152	C	0.884320	0.693724	0.380662
	C153	C	0.100837	0.696852	0.629598
	C154	C	0.883663	0.334318	0.624996
	C155	C	0.103550	0.334388	0.380970
	C156	C	0.883485	0.392199	0.682233
	C157	C	0.101020	0.638664	0.686608
	C158	C	0.884749	0.636656	0.322758
	C159	C	0.103106	0.391293	0.322783
	C160	C	0.370802	0.693504	0.893282
	C161	C	0.617361	0.695499	0.110833
	C162	C	0.618809	0.330010	0.896240
	C163	C	0.366367	0.329127	0.109197
	C164	C	0.676849	0.906350	0.378237
	C165	C	0.673589	0.123096	0.624972
	C166	C	0.313086	0.904914	0.625119
	C167	C	0.312413	0.121281	0.379167
	C168	C	0.869916	0.405868	0.184370
	C169	C	0.117503	0.622033	0.184396
	C170	C	0.117845	0.406077	0.820457
	C171	C	0.866713	0.619986	0.819480
	C172	C	0.175160	0.889648	0.395206
	C173	C	0.173826	0.135707	0.612570
	C174	C	0.815148	0.134756	0.393082
	C175	C	0.811400	0.890400	0.610986
	C176	C	0.384032	0.194141	0.878723
	C177	C	0.601552	0.194271	0.127072
	C178	C	0.384441	0.831724	0.126463
	C179	C	0.603232	0.834429	0.881665
	C180	C	0.385047	0.888432	0.184704
	C181	C	0.602371	0.135859	0.183735
	C182	C	0.384141	0.136639	0.821221
	C183	C	0.603353	0.892011	0.824032
	C184	C	0.872209	0.193498	0.393465
	C185	C	0.116417	0.194084	0.612563
	C186	C	0.118611	0.830562	0.396063
	C187	C	0.867602	0.831119	0.610438
	C188	C	0.176023	0.406318	0.878146
	C189	C	0.173552	0.622864	0.124973
	C190	C	0.812229	0.405579	0.126367
	C191	C	0.809706	0.620344	0.877968
	C192	C	0.397096	0.103970	0.600379
	C193	C	0.590150	0.923871	0.599777
	C194	C	0.588804	0.102898	0.406315
	C195	C	0.397692	0.923435	0.407228
	C196	C	0.586927	0.417039	0.092711
	C197	C	0.588883	0.610220	0.912859
	C198	C	0.396555	0.611779	0.093204
	C199	C	0.398761	0.417221	0.913534
	C200	C	0.084581	0.609879	0.408201
	C201	C	0.903445	0.608130	0.597785
	C202	C	0.084691	0.417551	0.599300
	C203	C	0.902328	0.416593	0.406052
	C204	C	0.897290	0.603529	0.099760
	C205	C	0.089292	0.424213	0.100243
	C206	C	0.088669	0.603042	0.907076
	C207	C	0.898090	0.424151	0.907597
	C208	C	0.088177	0.918372	0.592679
	C209	C	0.090674	0.112137	0.412920
	C210	C	0.895990	0.113059	0.594224
	C211	C	0.899416	0.918094	0.414129
	C212	C	0.583702	0.109283	0.907396
	C213	C	0.403452	0.106206	0.096883
	C214	C	0.584416	0.916959	0.098753
	C215	C	0.401479	0.915683	0.905105
	Zn216	Zn	0.493623	0.013411	0.753895
	Zn217	Zn	0.493244	0.012645	0.252370
	Zn218	Zn	0.742653	0.513323	0.003724
	Zn219	Zn	0.243378	0.513839	0.002875
	Zn220	Zn	-0.006703	0.762882	0.503683
	Zn221	Zn	-0.006170	0.264767	0.503084
	Zn222	Zn	-0.006988	0.513489	0.752576
	Zn223	Zn	-0.006244	0.514045	0.254154
	Zn224	Zn	0.493263	0.764136	0.002794
	Zn225	Zn	0.492695	0.262254	0.003450
	Zn226	Zn	0.743782	0.014458	0.502561
	Zn227	Zn	0.243504	0.013604	0.503042
	N228	N	0.407334	0.978638	0.682806
	N229	N	0.582117	0.047597	0.684812
	N230	N	0.581773	0.979228	0.321463
	N231	N	0.405143	0.046594	0.321241
	N232	N	0.673168	0.425993	0.969370
	N233	N	0.672172	0.599808	0.037927
	N234	N	0.314734	0.599036	0.967227
	N235	N	0.314059	0.427232	0.037702
	N236	N	0.958800	0.692937	0.417036
	N237	N	0.027253	0.694554	0.591824
	N238	N	0.958792	0.334204	0.589760
	N239	N	0.028951	0.334808	0.416760
	N240	N	0.958280	0.427880	0.681638
	N241	N	0.027546	0.600631	0.683559
	N242	N	0.959457	0.600896	0.323653
	N243	N	0.028312	0.426867	0.323136
	N244	N	0.405883	0.694347	0.968082
	N245	N	0.581031	0.694822	0.036758
	N246	N	0.580938	0.331562	0.969457
	N247	N	0.403776	0.330636	0.035907
	N248	N	0.673906	0.979282	0.415889
	N249	N	0.672550	0.049410	0.588601
	N250	N	0.313624	0.979055	0.589797
	N251	N	0.314066	0.048005	0.416535
	N252	N	0.906505	0.479515	0.183724
	N253	N	0.081670	0.547951	0.184394
	N254	N	0.080418	0.479276	0.822276
	N255	N	0.904674	0.547003	0.821475
	N256	N	0.172634	0.927500	0.468163
	N257	N	0.173397	0.100414	0.538305
	N258	N	0.814860	0.100005	0.467850
	N259	N	0.814271	0.927933	0.538025
	N260	N	0.458389	0.193026	0.915602
	N261	N	0.527430	0.192307	0.089832
	N262	N	0.458447	0.833468	0.089476
	N263	N	0.528303	0.834429	0.916856
	N264	N	0.459541	0.924905	0.183393
	N265	N	0.528633	0.098244	0.181435
	N266	N	0.458449	0.100131	0.823112
	N267	N	0.528396	0.927245	0.823834
	N268	N	0.906624	0.194806	0.468357
	N269	N	0.080700	0.194409	0.538218
	N270	N	0.081452	0.831980	0.469628
	N271	N	0.905013	0.832196	0.537090
	N272	N	0.173847	0.479356	0.915508
	N273	N	0.172273	0.549208	0.088507
	N274	N	0.813444	0.479164	0.090102
	N275	N	0.812370	0.547441	0.915868
	O276	O	0.212684	1.031835	-0.014493
	H277	H	0.221846	1.034263	0.002659
	H278	H	0.201522	1.019614	-0.026164
	O279	O	0.285030	0.302310	0.712564
	H280	H	0.306650	0.309908	0.700602
	H281	H	0.253644	0.273159	0.737490
	O282	O	0.783760	0.225506	0.793225
	H283	H	0.805831	0.242377	0.788545
	H284	H	0.766966	0.252281	0.777667
	O285	O	0.699195	0.535767	0.719111
	H286	H	0.706418	0.538636	0.721838
	H287	H	0.703377	0.544708	0.719200
	O288	O	0.274282	0.544662	0.282422
	H289	H	0.261378	0.553049	0.272820
	H290	H	0.270381	0.557083	0.274697
	O291	O	0.388089	0.631802	0.486798
	H292	H	0.398964	0.624828	0.492470
	H293	H	0.376786	0.640250	0.486373
	O294	O	0.834450	0.000448	0.930026
	H295	H	0.839320	-0.002149	0.932185
	H296	H	0.824535	0.004403	0.920829
	O297	O	0.224648	0.778881	0.241490
	H298	H	0.229380	0.779221	0.239210
	H299	H	0.228145	0.773836	0.246639
	O300	O	0.467054	0.291207	0.727823
	H301	H	0.463913	0.269116	0.741206
	H302	H	0.455670	0.290162	0.721611
	O303	O	0.469188	0.733283	0.283235
	H304	H	0.468344	0.755721	0.267684
	H305	H	0.466098	0.720159	0.286175
	O306	O	0.645233	0.621598	0.349201
	H307	H	0.664834	0.645451	0.334808
	H308	H	0.638764	0.625708	0.342176
	O309	O	0.635423	0.565383	0.430996
	H310	H	0.631196	0.570517	0.413693
	H311	H	0.639024	0.577371	0.419721
	O312	O	0.276022	0.457901	0.445475
	H313	H	0.271683	0.455798	0.439992
	H314	H	0.284064	0.451678	0.445538
	O315	O	1.126145	1.012300	1.063541
	H316	H	1.125987	1.017511	1.087693
	H317	H	1.113888	1.030405	1.057856
	O318	O	0.274027	0.287313	0.537277
	H319	H	0.264262	0.279951	0.553523
	H320	H	0.265849	0.274997	0.539152
	O321	O	0.485244	0.550090	0.602036
	H322	H	0.473456	0.551401	0.595449
	H323	H	0.483251	0.541319	0.594640
	O324	O	1.369300	1.380971	-0.702983
	H325	H	1.370042	1.389233	-0.712065
	H326	H	1.370680	1.382879	-0.715198
	O327	O	-0.005511	0.038049	1.014709
	H328	H	0.007149	0.035113	0.998010
	H329	H	-0.023999	0.042536	1.009609
	O330	O	1.179782	0.203944	0.816507
	H331	H	1.164969	0.187025	0.833005
	H332	H	1.164339	0.184302	0.834098
	O333	O	0.794496	0.215112	0.205362
	H334	H	0.803917	0.199375	0.191053
	H335	H	0.805814	0.211678	0.196378
	O336	O	0.261659	0.573667	0.560573
	H337	H	0.262667	0.555935	0.564072
	H338	H	0.257651	0.571428	0.570869
	O339	O	1.079585	0.053347	0.828818
	H340	H	1.075645	0.042634	0.825816
	H341	H	1.080839	0.041980	0.830886
	O342	O	0.297352	-0.289658	-0.299687
	H343	H	0.311944	-0.288254	-0.313757
	H344	H	0.301662	-0.323265	-0.311237
	O345	O	-0.199124	0.997573	1.164205
	H346	H	-0.189975	1.011414	1.165496
	H347	H	-0.205980	1.002388	1.146536
	O348	O	-0.140243	0.133955	0.017726
	H349	H	-0.142024	0.142955	0.005442
	H350	H	-0.127650	0.133271	0.005369
	O351	O	0.955052	0.236364	0.785314
	H352	H	0.971607	0.229543	0.772206
	H353	H	0.952627	0.245039	0.777935
	O354	O	0.017470	-0.208508	0.780361
	H355	H	0.025755	-0.211365	0.768401
	H356	H	0.030333	-0.225032	0.774086
	O357	O	0.561532	0.643088	0.631233
	H358	H	0.568187	0.641166	0.629735
	H359	H	0.571524	0.646699	0.644277
	O360	O	0.505287	0.290415	0.512412
	H361	H	0.519821	0.288903	0.499528
	H362	H	0.498580	0.290499	0.523507
	O363	O	-0.004392	-0.131670	0.235052
	H364	H	-0.006815	-0.158788	0.256648
	H365	H	-0.009758	-0.130457	0.221218
	O366	O	0.519292	0.302965	0.281236
	H367	H	0.515509	0.303062	0.290977
	H368	H	0.527065	0.290249	0.258027
	O369	O	1.213001	0.118740	0.219714
	H370	H	1.211859	0.138927	0.236100
	H371	H	1.224511	0.127435	0.227939
	O372	O	0.526001	0.385034	0.531870
	H373	H	0.531796	0.383538	0.524404
	H374	H	0.533354	0.392134	0.524351
	O375	O	1.066905	0.189662	0.003460
	H376	H	1.082933	0.188189	0.014464
	H377	H	1.065721	0.185466	-0.011438
	O378	O	0.942714	0.060135	0.086075
	H379	H	0.957887	0.065883	0.079655
	H380	H	0.941829	0.073075	0.086946
	O381	O	0.105066	1.018313	1.223746
	H382	H	0.111428	1.008775	1.234262
	H383	H	0.114648	1.027516	1.221664
	O384	O	0.906229	-0.198588	0.902170
	H385	H	0.917662	-0.191090	0.898186
	H386	H	0.910212	-0.199625	0.911691
	O387	O	1.122157	1.228723	0.211166
	H388	H	1.126964	1.228712	0.197197
	H389	H	1.091208	1.228825	0.212179
	O390	O	0.444920	0.550277	0.348717
	H391	H	0.456045	0.538090	0.342463
	H392	H	0.457537	0.557159	0.349073
	O393	O	0.392863	0.309151	0.386307
	H394	H	0.384931	0.326195	0.396634
	H395	H	0.419070	0.318344	0.403069
	O396	O	0.218065	0.978648	0.779482
	H397	H	0.217354	0.941933	0.779993
	H398	H	0.237944	0.965663	0.752396
	O399	O	0.096612	0.010726	0.920801
	H400	H	0.090112	0.007914	0.910601
	H401	H	0.089640	0.010378	0.926712
	O402	O	0.681248	0.431231	0.576031
	H403	H	0.672383	0.425669	0.557606
	H404	H	0.701564	0.467772	0.567969
	O405	O	1.004579	-0.168388	1.136348
	H406	H	0.997006	-0.184209	1.146833
	H407	H	0.997928	-0.168972	1.142716
	O408	O	-0.031468	-0.003128	-0.231374
	H409	H	-0.042226	-0.023250	-0.228412
	H410	H	-0.043524	-0.008749	-0.233021
	O411	O	0.706819	0.724905	0.715670
	H412	H	0.732135	0.750097	0.728832
	H413	H	0.675556	0.708812	0.722131
	O414	O	0.561895	0.731804	0.606111
	H415	H	0.567475	0.725991	0.609526
	H416	H	0.570625	0.737826	0.628629
	O417	O	0.349689	0.706864	0.520241
	H418	H	0.346845	0.699960	0.518933
	H419	H	0.348470	0.707827	0.517441
	O420	O	0.470961	0.485354	0.579993
	H421	H	0.456394	0.483273	0.581356
	H422	H	0.468507	0.484767	0.558899
	O423	O	-0.173736	-0.140435	1.032980
	H424	H	-0.175000	-0.127230	1.037568
	H425	H	-0.185393	-0.153332	1.030003
	O426	O	0.711959	0.291256	0.467660
	H427	H	0.714141	0.308018	0.464151
	H428	H	0.737159	0.275157	0.465578
	O429	O	0.788066	0.808355	1.209610
	H430	H	0.802308	0.819569	1.191807
	H431	H	0.777073	0.824997	1.200984
	O432	O	0.349337	0.730290	0.390485
	H433	H	0.331263	0.737033	0.401044
	H434	H	0.355472	0.726122	0.396828
	O435	O	0.034540	1.230333	0.108451
	H436	H	0.024320	1.222895	0.120924
	H437	H	0.034536	1.231954	0.107000
	O438	O	-0.228400	0.046720	-0.220307
	H439	H	-0.250818	0.068592	-0.239529
	H440	H	-0.230830	0.078604	-0.219948
	O441	O	-0.028480	0.103366	-0.051590
	H442	H	-0.022897	0.108876	-0.061758
	H443	H	-0.028365	0.105788	-0.063357
	O444	O	0.687115	0.310447	0.299972
	H445	H	0.701236	0.282504	0.282004
	H446	H	0.668441	0.312302	0.318109
	O447	O	0.197769	0.807183	0.801780
	H448	H	0.192609	0.790366	0.802407
	H449	H	0.215098	0.790890	0.819876
	O450	O	-0.148524	0.851274	0.830973
	H451	H	-0.148147	0.858586	0.840459
	H452	H	-0.137006	0.850566	0.846374
	O453	O	0.700853	0.635237	0.477764
	H454	H	0.688455	0.645608	0.471291
	H455	H	0.705986	0.649865	0.483672
	O456	O	0.091780	-0.179938	1.126774
	H457	H	0.083986	-0.178526	1.126961
	H458	H	0.112750	-0.185768	1.137344
	O459	O	0.682779	0.325759	0.694944
	H460	H	0.668355	0.351205	0.680605
	H461	H	0.665216	0.344070	0.675280
	O462	O	0.275714	0.486798	0.716606
	H463	H	0.280023	0.463661	0.724230
	H464	H	0.267015	0.475731	0.731402
	O465	O	0.725495	-0.257078	0.195691
	H466	H	0.719904	-0.261249	0.193502
	H467	H	0.719014	-0.248646	0.191365
	O468	O	0.564853	0.740578	0.444323
	H469	H	0.567358	0.738961	0.455013
	H470	H	0.554847	0.746130	0.443181
	O471	O	0.479477	0.625364	0.491003
	H472	H	0.469537	0.610874	0.495038
	H473	H	0.477011	0.622865	0.489064
	O474	O	0.488543	0.552764	0.522539
	H475	H	0.496340	0.540441	0.522015
	H476	H	0.496783	0.551776	0.518486
	O477	O	0.468900	0.456465	1.494814
	H478	H	0.466942	0.461054	1.500460
	H479	H	0.468828	0.449629	1.478161
	O480	O	0.209504	0.235453	0.031553
	H481	H	0.232521	0.256737	0.028515
	H482	H	0.211500	0.221908	0.041392
	O483	O	0.524021	0.468117	0.741641
	H484	H	0.510972	0.468687	0.739743
	H485	H	0.535252	0.461610	0.742750
	O486	O	1.016203	-0.134520	0.952247
	H487	H	1.011535	-0.138131	0.948157
	H488	H	1.026414	-0.132601	0.947718
	O489	O	1.214720	0.796826	-0.033828
	H490	H	1.227426	0.796663	-0.030029
	H491	H	1.235650	0.803296	-0.018442
	O492	O	-0.224499	0.232285	-0.026161
	H493	H	-0.222353	0.226928	-0.045852
	H494	H	-0.244995	0.248636	-0.029912
	O495	O	-0.129661	1.040612	1.217383
	H496	H	-0.124581	1.043662	1.214609
	H497	H	-0.123610	1.027367	1.222873
	O498	O	0.853375	0.998356	1.088178
	H499	H	0.846996	0.987558	1.087282
	H500	H	0.867098	0.987253	1.081557
	O501	O	0.708619	0.485828	0.276500
	H502	H	0.728480	0.464334	0.259737
	H503	H	0.712596	0.464294	0.279370
