data_Molecule from HDF5

_cell_length_a		16.545580
_cell_length_b		16.758339
_cell_length_c		16.594576
_cell_angle_alpha	89.800386
_cell_angle_beta	90.039898
_cell_angle_gamma	89.927312
_symmetry_space_group_name_H-M	'P 1'
_symmetry_Int_Tables_number		1

loop_
	_symmetry_equiv_pos_as_xyz
	x,y,z

loop_
	_atom_site_label
	_atom_site_type_symbol
	_atom_site_fract_x
	_atom_site_fract_y
	_atom_site_fract_z
	H0	H	0.392239	0.849968	0.720445
	H1	H	0.615013	0.150866	0.721616
	H2	H	0.606600	0.846608	0.271168
	H3	H	0.393236	0.153414	0.269803
	H4	H	0.721959	0.396249	0.838656
	H5	H	0.720411	0.603658	0.149734
	H6	H	0.277560	0.608765	0.838726
	H7	H	0.279546	0.396969	0.149283
	H8	H	0.848105	0.727321	0.383232
	H9	H	0.150373	0.727322	0.607834
	H10	H	0.842475	0.281337	0.597427
	H11	H	0.157550	0.282494	0.391853
	H12	H	0.842793	0.396081	0.713692
	H13	H	0.153851	0.607216	0.718569
	H14	H	0.845965	0.610235	0.270284
	H15	H	0.157209	0.399836	0.276797
	H16	H	0.390908	0.726037	0.839578
	H17	H	0.606810	0.722158	0.148842
	H18	H	0.608467	0.278077	0.840172
	H19	H	0.392674	0.277788	0.147612
	H20	H	0.726431	0.848569	0.384690
	H21	H	0.726161	0.153756	0.600869
	H22	H	0.276600	0.848930	0.602876
	H23	H	0.277425	0.154833	0.387814
	H24	H	0.894938	0.346185	0.217096
	H25	H	0.107826	0.654717	0.218034
	H26	H	0.105996	0.345143	0.775308
	H27	H	0.897097	0.654273	0.773567
	H28	H	0.221376	0.894800	0.338561
	H29	H	0.218430	0.101359	0.650846
	H30	H	0.781130	0.103798	0.335923
	H31	H	0.773012	0.890706	0.646264
	H32	H	0.346312	0.226100	0.884738
	H33	H	0.656024	0.221738	0.100167
	H34	H	0.343327	0.781187	0.097927
	H35	H	0.656685	0.781904	0.889800
	H36	H	0.342087	0.898865	0.211123
	H37	H	0.656050	0.103994	0.213689
	H38	H	0.346420	0.109696	0.769459
	H39	H	0.657137	0.899041	0.774755
	H40	H	0.894673	0.222569	0.337610
	H41	H	0.101101	0.216777	0.651347
	H42	H	0.108974	0.776392	0.341409
	H43	H	0.887381	0.773260	0.645879
	H44	H	0.223388	0.347139	0.891597
	H45	H	0.222358	0.656345	0.099874
	H46	H	0.777556	0.347173	0.100873
	H47	H	0.781371	0.655521	0.890804
	H48	H	0.418192	0.109283	0.580329
	H49	H	0.585644	0.890744	0.586818
	H50	H	0.587987	0.110284	0.402906
	H51	H	0.415026	0.891667	0.405620
	H52	H	0.592050	0.416939	0.104521
	H53	H	0.589192	0.592385	0.881697
	H54	H	0.412046	0.591603	0.105717
	H55	H	0.408868	0.417270	0.882228
	H56	H	0.108427	0.579427	0.405450
	H57	H	0.889724	0.584241	0.583013
	H58	H	0.114636	0.401886	0.583538
	H59	H	0.887542	0.408133	0.409489
	H60	H	0.110792	0.411377	0.582083
	H61	H	0.887763	0.588804	0.580543
	H62	H	0.113802	0.592535	0.406110
	H63	H	0.887417	0.413626	0.402693
	H64	H	0.411829	0.589947	0.104983
	H65	H	0.588726	0.592160	0.881015
	H66	H	0.581394	0.411806	0.102665
	H67	H	0.418705	0.416909	0.884657
	H68	H	0.589515	0.110756	0.404122
	H69	H	0.580579	0.896853	0.578188
	H70	H	0.410630	0.110745	0.575578
	H71	H	0.407457	0.889913	0.407794
	H72	H	0.912208	0.614849	0.092574
	H73	H	0.090026	0.391166	0.084257
	H74	H	0.085953	0.612304	0.898487
	H75	H	0.910415	0.387839	0.903259
	H76	H	0.083458	0.914452	0.603733
	H77	H	0.086638	0.093631	0.381269
	H78	H	0.910747	0.090801	0.605240
	H79	H	0.912683	0.914256	0.382743
	H80	H	0.611097	0.090740	0.910703
	H81	H	0.386500	0.093220	0.081025
	H82	H	0.611687	0.912309	0.084057
	H83	H	0.388443	0.913742	0.906777
	H84	H	0.614600	0.908482	0.085830
	H85	H	0.389890	0.089268	0.077269
	H86	H	0.609755	0.086778	0.907008
	H87	H	0.388691	0.913515	0.906438
	H88	H	0.911102	0.089864	0.605272
	H89	H	0.091771	0.094179	0.379687
	H90	H	0.086519	0.909612	0.606202
	H91	H	0.917085	0.918172	0.386836
	H92	H	0.085163	0.607787	0.908599
	H93	H	0.087517	0.392321	0.084708
	H94	H	0.920396	0.606261	0.078599
	H95	H	0.912355	0.388964	0.905791
	H96	H	0.410442	0.112994	0.584406
	H97	H	0.591886	0.892550	0.576459
	H98	H	0.589177	0.110894	0.401955
	H99	H	0.409700	0.888785	0.399872
	H100	H	0.590292	0.405673	0.108982
	H101	H	0.589028	0.592472	0.881486
	H102	H	0.413259	0.590593	0.104332
	H103	H	0.413837	0.408548	0.881455
	H104	H	0.107385	0.586856	0.417534
	H105	H	0.891061	0.585592	0.577817
	H106	H	0.115009	0.408991	0.591470
	H107	H	0.884993	0.406229	0.401522
	H108	H	0.902649	0.611471	0.076877
	H109	H	0.088959	0.392393	0.082284
	H110	H	0.094752	0.613248	0.905714
	H111	H	0.909059	0.389087	0.906493
	H112	H	0.089739	0.915493	0.606008
	H113	H	0.090479	0.089500	0.381722
	H114	H	0.911524	0.090823	0.605740
	H115	H	0.919285	0.912141	0.384145
	H116	H	0.612685	0.091237	0.905841
	H117	H	0.388077	0.087713	0.083111
	H118	H	0.612789	0.908681	0.081209
	H119	H	0.388784	0.913616	0.907081
	C120	C	0.379449	0.010161	0.614929
	C121	C	0.622302	0.993098	0.614668
	C122	C	0.622115	0.009211	0.370559
	C123	C	0.377402	0.991689	0.371184
	C124	C	0.621670	0.379374	0.002952
	C125	C	0.621189	0.622553	0.985010
	C126	C	0.378918	0.623374	0.002214
	C127	C	0.380204	0.381339	0.985329
	C128	C	0.008651	0.621157	0.374257
	C129	C	0.990897	0.620455	0.615360
	C130	C	0.008958	0.377388	0.616286
	C131	C	0.990655	0.378922	0.373273
	C132	C	0.879001	0.509053	0.116092
	C133	C	0.121820	0.493459	0.116169
	C134	C	0.121593	0.509053	0.872719
	C135	C	0.879072	0.491338	0.873118
	C136	C	0.121192	0.879114	0.503457
	C137	C	0.120825	0.122009	0.484915
	C138	C	0.879198	0.122045	0.501733
	C139	C	0.879867	0.880045	0.485487
	C140	C	0.509126	0.123402	0.872942
	C141	C	0.491335	0.121949	0.113608
	C142	C	0.508946	0.878792	0.115114
	C143	C	0.492210	0.881702	0.874433
	C144	C	0.375102	0.895516	0.678399
	C145	C	0.630209	0.106014	0.679034
	C146	C	0.625014	0.893267	0.310609
	C147	C	0.374939	0.107493	0.310379
	C148	C	0.682253	0.377497	0.885803
	C149	C	0.680662	0.622756	0.102752
	C150	C	0.317395	0.626837	0.885769
	C151	C	0.319412	0.378238	0.102139
	C152	C	0.893783	0.685325	0.367329
	C153	C	0.105270	0.684956	0.623117
	C154	C	0.890189	0.320068	0.616677
	C155	C	0.110051	0.321511	0.372803
	C156	C	0.890370	0.376969	0.674671
	C157	C	0.106520	0.625368	0.678486
	C158	C	0.892764	0.626945	0.311057
	C159	C	0.109980	0.379790	0.315710
	C160	C	0.374028	0.685300	0.886157
	C161	C	0.624299	0.681786	0.102212
	C162	C	0.625665	0.318952	0.886360
	C163	C	0.375935	0.319335	0.101639
	C164	C	0.684373	0.893944	0.367170
	C165	C	0.685846	0.107242	0.618999
	C166	C	0.317605	0.894908	0.620023
	C167	C	0.317362	0.107973	0.368937
	C168	C	0.876440	0.392868	0.176845
	C169	C	0.124799	0.608919	0.176746
	C170	C	0.124412	0.392036	0.814559
	C171	C	0.878146	0.607814	0.813470
	C172	C	0.182119	0.876165	0.386340
	C173	C	0.179011	0.121068	0.603561
	C174	C	0.820450	0.122884	0.383169
	C175	C	0.815266	0.874211	0.600366
	C176	C	0.392798	0.185401	0.867554
	C177	C	0.608902	0.181611	0.117214
	C178	C	0.390510	0.820648	0.116395
	C179	C	0.609876	0.822050	0.871847
	C180	C	0.389975	0.879120	0.172783
	C181	C	0.609102	0.123041	0.173819
	C182	C	0.392883	0.127374	0.810500
	C183	C	0.610137	0.880398	0.814843
	C184	C	0.876516	0.182149	0.384261
	C185	C	0.120898	0.178555	0.603796
	C186	C	0.126140	0.817063	0.387653
	C187	C	0.872139	0.815701	0.600219
	C188	C	0.182701	0.392857	0.872242
	C189	C	0.181914	0.609785	0.118030
	C190	C	0.818268	0.393066	0.118946
	C191	C	0.820541	0.608453	0.871693
	C192	C	0.405729	0.090168	0.587723
	C193	C	0.594004	0.914029	0.587824
	C194	C	0.596232	0.089670	0.395990
	C195	C	0.403271	0.910798	0.397013
	C196	C	0.595452	0.404382	0.084191
	C197	C	0.596175	0.599001	0.902972
	C198	C	0.405096	0.597773	0.083906
	C199	C	0.406329	0.407014	0.904036
	C200	C	0.089047	0.593906	0.401945
	C201	C	0.910319	0.593843	0.588013
	C202	C	0.091841	0.400758	0.592477
	C203	C	0.908147	0.402498	0.397582
	C204	C	0.904545	0.589763	0.090197
	C205	C	0.096169	0.412940	0.090743
	C206	C	0.096038	0.589954	0.897026
	C207	C	0.903470	0.409770	0.898173
	C208	C	0.094117	0.905632	0.584205
	C209	C	0.096587	0.098860	0.402323
	C210	C	0.903888	0.097399	0.583806
	C211	C	0.908300	0.907071	0.405437
	C212	C	0.589990	0.097056	0.900113
	C213	C	0.409528	0.097031	0.087848
	C214	C	0.591457	0.902687	0.090782
	C215	C	0.410020	0.906634	0.899631
	Zn216	Zn	0.501310	0.002200	0.744431
	Zn217	Zn	0.499911	0.000378	0.241885
	Zn218	Zn	0.749474	0.500502	-0.005814
	Zn219	Zn	0.250657	0.502370	-0.005511
	Zn220	Zn	0.000012	0.750030	0.494618
	Zn221	Zn	-0.000282	0.250749	0.493969
	Zn222	Zn	0.000016	0.498650	0.743270
	Zn223	Zn	0.000283	0.501414	0.245613
	Zn224	Zn	0.500008	0.751347	-0.006083
	Zn225	Zn	0.500219	0.251495	-0.006292
	Zn226	Zn	0.751062	0.000766	0.492590
	Zn227	Zn	0.249484	0.000265	0.493644
	N228	N	0.413021	0.968218	0.675612
	N229	N	0.590993	0.034170	0.676184
	N230	N	0.586968	0.965959	0.312401
	N231	N	0.411774	0.033982	0.311648
	N232	N	0.679892	0.414378	0.959399
	N233	N	0.679078	0.586743	0.028672
	N234	N	0.320363	0.588879	0.959101
	N235	N	0.321966	0.416128	0.028863
	N236	N	0.966937	0.682057	0.406096
	N237	N	0.032228	0.682083	0.584360
	N238	N	0.965223	0.319727	0.581544
	N239	N	0.034773	0.320630	0.407655
	N240	N	0.965499	0.411814	0.674810
	N241	N	0.034282	0.585763	0.673889
	N242	N	0.965286	0.587571	0.315249
	N243	N	0.034843	0.414652	0.315646
	N244	N	0.411741	0.683279	0.959806
	N245	N	0.588025	0.681968	0.027936
	N246	N	0.588709	0.319799	0.960365
	N247	N	0.413034	0.320950	0.027691
	N248	N	0.682643	0.967061	0.403865
	N249	N	0.681224	0.035707	0.579554
	N250	N	0.320293	0.967162	0.581166
	N251	N	0.318912	0.034826	0.405986
	N252	N	0.913095	0.466264	0.175442
	N253	N	0.088227	0.535581	0.175950
	N254	N	0.087292	0.465212	0.814603
	N255	N	0.913691	0.533885	0.814117
	N256	N	0.179478	0.913992	0.459657
	N257	N	0.179496	0.086954	0.528466
	N258	N	0.821657	0.086471	0.457526
	N259	N	0.819987	0.913690	0.527911
	N260	N	0.466213	0.182973	0.905797
	N261	N	0.534520	0.181323	0.080759
	N262	N	0.465610	0.820143	0.081538
	N263	N	0.535367	0.822665	0.907951
	N264	N	0.464866	0.914497	0.172397
	N265	N	0.534787	0.086676	0.171982
	N266	N	0.466281	0.089511	0.813549
	N267	N	0.535677	0.916687	0.816012
	N268	N	0.912075	0.181883	0.459030
	N269	N	0.085662	0.179618	0.528850
	N270	N	0.089149	0.818581	0.461641
	N271	N	0.911890	0.819311	0.527784
	N272	N	0.181282	0.466714	0.907534
	N273	N	0.180384	0.536791	0.081109
	N274	N	0.819415	0.466394	0.082003
	N275	N	0.820673	0.534636	0.907828
	O276	O	0.019985	1.184929	0.209493
	H277	H	0.027918	1.169783	0.200467
	H278	H	0.026765	1.217192	0.229992
	O279	O	0.727656	0.499848	0.319287
	H280	H	0.741613	0.484115	0.309640
	H281	H	0.738410	0.483790	0.322829
	O282	O	0.780721	0.209645	1.209907
	H283	H	0.775951	0.207553	1.189703
	H284	H	0.788188	0.188391	1.205809
	O285	O	0.548273	0.575330	0.359306
	H286	H	0.565661	0.568391	0.370389
	H287	H	0.538094	0.558351	0.363256
	O288	O	0.381258	0.545095	0.555068
	H289	H	0.381229	0.532257	0.574283
	H290	H	0.366210	0.571771	0.540184
	O291	O	0.359722	0.713303	0.639391
	H292	H	0.363748	0.703968	0.635772
	H293	H	0.367508	0.710852	0.634211
	O294	O	0.981260	-0.221130	1.207463
	H295	H	0.949977	-0.205479	1.208647
	H296	H	0.977843	-0.242467	1.234849
	O297	O	0.287773	0.710657	0.282653
	H298	H	0.310708	0.715932	0.303426
	H299	H	0.273111	0.741137	0.255706
	O300	O	0.331827	0.296448	0.700122
	H301	H	0.338650	0.302199	0.663849
	H302	H	0.342451	0.319721	0.711499
	O303	O	0.470168	0.726400	0.269592
	H304	H	0.477002	0.715223	0.272744
	H305	H	0.470752	0.749081	0.243758
	O306	O	0.443598	0.675078	0.413913
	H307	H	0.465585	0.679302	0.409297
	H308	H	0.460967	0.667309	0.414319
	O309	O	0.438559	0.451810	0.491795
	H310	H	0.432938	0.449686	0.471504
	H311	H	0.428231	0.456224	0.495285
	O312	O	0.517901	0.496633	0.294852
	H313	H	0.528885	0.486381	0.294527
	H314	H	0.504805	0.504156	0.295447
	O315	O	0.789793	1.206866	0.786849
	H316	H	0.807280	1.192418	0.805557
	H317	H	0.792385	1.193307	0.802773
	O318	O	0.288842	0.327063	0.464817
	H319	H	0.276928	0.312557	0.468411
	H320	H	0.290957	0.347476	0.484790
	O321	O	0.243860	0.753153	0.747556
	H322	H	0.261081	0.728575	0.716079
	H323	H	0.243339	0.760790	0.768221
	O324	O	1.215646	1.221190	-0.231105
	H325	H	1.251760	1.238667	-0.249735
	H326	H	1.203485	1.204664	-0.204434
	O327	O	-0.213111	0.220533	0.964868
	H328	H	-0.209082	0.224896	0.972840
	H329	H	-0.223582	0.233121	0.977965
	O330	O	1.001162	0.096344	1.161477
	H331	H	1.003903	0.096449	1.161047
	H332	H	1.013589	0.095647	1.148742
	O333	O	0.703000	0.501011	0.686464
	H334	H	0.720700	0.479148	0.707324
	H335	H	0.671998	0.484380	0.683528
	O336	O	0.509819	0.276997	0.690169
	H337	H	0.485474	0.283448	0.686954
	H338	H	0.492758	0.254674	0.696457
	O339	O	0.911806	-0.018557	1.001791
	H340	H	0.913806	-0.014177	1.006447
	H341	H	0.915818	-0.015080	0.995454
	O342	O	0.205138	-0.213387	-0.038002
	H343	H	0.209336	-0.220271	-0.033739
	H344	H	0.216915	-0.209951	-0.038919
	O345	O	-0.130459	1.033813	0.776501
	H346	H	-0.100789	1.019181	0.769959
	H347	H	-0.148975	1.030769	0.763036
	O348	O	0.110321	0.033598	-0.225777
	H349	H	0.103670	0.047063	-0.225401
	H350	H	0.135162	0.018902	-0.235931
	O351	O	0.690310	0.307714	0.685812
	H352	H	0.655702	0.305882	0.676531
	H353	H	0.710477	0.277892	0.714160
	O354	O	-0.053061	-0.220118	0.934321
	H355	H	-0.034737	-0.222664	0.944080
	H356	H	-0.069495	-0.226234	0.954511
	O357	O	0.712910	0.717477	0.506482
	H358	H	0.732170	0.727876	0.522676
	H359	H	0.710326	0.713513	0.533428
	O360	O	0.439264	0.462602	0.537437
	H361	H	0.425427	0.465387	0.534097
	H362	H	0.443657	0.472096	0.538625
	O363	O	-0.016360	-0.002063	-0.049892
	H364	H	-0.010441	-0.005070	-0.051156
	H365	H	-0.018244	-0.004982	-0.064233
	O366	O	0.333446	0.376466	0.532800
	H367	H	0.348411	0.385113	0.526775
	H368	H	0.334638	0.371453	0.530397
	O369	O	1.191760	0.196189	0.176871
	H370	H	1.214708	0.224233	0.202460
	H371	H	1.175664	0.193861	0.155142
	O372	O	0.744251	0.744086	0.245510
	H373	H	0.736680	0.738306	0.236520
	H374	H	0.729559	0.722210	0.280173
	O375	O	1.022794	-0.212133	-0.224033
	H376	H	1.024467	-0.241893	-0.241327
	H377	H	1.029940	-0.207098	-0.214481
	O378	O	0.526782	0.505149	0.731740
	H379	H	0.522601	0.492629	0.725523
	H380	H	0.505973	0.505581	0.718998
	O381	O	-0.215070	0.973191	1.204935
	H382	H	-0.204283	0.962836	1.197196
	H383	H	-0.238337	0.969385	1.226382
	O384	O	0.815084	-0.187957	0.811905
	H385	H	0.832170	-0.184647	0.848545
	H386	H	0.836715	-0.156095	0.809793
	O387	O	1.218662	1.032725	0.211680
	H388	H	1.226780	1.044727	0.232547
	H389	H	1.221653	1.061850	0.222605
	O390	O	0.708932	0.352770	0.284227
	H391	H	0.707493	0.359833	0.284345
	H392	H	0.724137	0.333112	0.276643
	O393	O	0.423743	0.274699	0.433533
	H394	H	0.424078	0.276775	0.435375
	H395	H	0.440568	0.283067	0.449322
	O396	O	0.205505	1.113500	0.899014
	H397	H	0.202862	1.117806	0.898795
	H398	H	0.193339	1.105895	0.898139
	O399	O	0.204922	-0.052151	0.898751
	H400	H	0.214712	-0.037999	0.895362
	H401	H	0.209343	-0.057625	0.894553
	O402	O	0.527501	0.276802	0.274985
	H403	H	0.526547	0.290238	0.272757
	H404	H	0.528143	0.254999	0.255239
	O405	O	1.047181	-0.026070	1.012402
	H406	H	1.051388	-0.024550	1.015725
	H407	H	1.061046	-0.032650	1.007778
	O408	O	-0.035518	-0.057327	-0.222714
	H409	H	-0.025797	-0.074611	-0.222525
	H410	H	-0.017113	-0.056537	-0.223228
	O411	O	0.711947	0.718518	0.713074
	H412	H	0.717271	0.672698	0.709314
	H413	H	0.747214	0.746546	0.744964
	O414	O	0.524079	0.733380	0.717258
	H415	H	0.553594	0.741339	0.730348
	H416	H	0.538772	0.738423	0.737549
	O417	O	0.716068	0.275173	0.457792
	H418	H	0.726707	0.273837	0.432174
	H419	H	0.735278	0.271439	0.464040
	O420	O	0.383014	0.443784	0.350293
	H421	H	0.366053	0.453633	0.340174
	H422	H	0.385997	0.438740	0.362122
	O423	O	-0.207619	0.010951	1.046534
	H424	H	-0.210544	-0.012046	1.039313
	H425	H	-0.209223	0.008101	1.037072
	O426	O	0.644985	0.496389	0.393809
	H427	H	0.645807	0.511377	0.402039
	H428	H	0.646712	0.508207	0.388777
	O429	O	1.188646	0.826665	1.163843
	H430	H	1.181560	0.852141	1.154893
	H431	H	1.164853	0.842069	1.153281
	O432	O	0.380466	0.515374	0.629849
	H433	H	0.381374	0.537576	0.620923
	H434	H	0.394640	0.511783	0.622939
	O435	O	0.183439	0.910591	-0.082875
	H436	H	0.177100	0.909391	-0.055192
	H437	H	0.182054	0.894743	-0.104448
	O438	O	0.092971	0.030203	0.130275
	H439	H	0.085667	0.027795	0.125715
	H440	H	0.096228	0.038439	0.128751
	O441	O	0.219513	0.206919	0.022773
	H442	H	0.216216	0.210592	0.029061
	H443	H	0.235766	0.212177	0.021181
	O444	O	0.671528	0.430931	0.528285
	H445	H	0.668331	0.434081	0.544357
	H446	H	0.669495	0.422586	0.534351
	O447	O	-0.052161	1.230723	1.038911
	H448	H	-0.050182	1.232378	1.043015
	H449	H	-0.044324	1.219826	1.044654
	O450	O	-0.151607	0.850320	1.072735
	H451	H	-0.157682	0.854667	1.080450
	H452	H	-0.148296	0.865222	1.068450
	O453	O	0.638973	0.572938	0.628769
	H454	H	0.628955	0.557718	0.627252
	H455	H	0.647941	0.569221	0.637429
	O456	O	-0.102682	0.110259	1.084842
	H457	H	-0.094417	0.106781	1.077263
	H458	H	-0.097387	0.109335	1.085467
	O459	O	0.696597	0.602551	0.381596
	H460	H	0.696118	0.591231	0.400983
	H461	H	0.670243	0.590570	0.392212
	O462	O	0.487703	0.505233	0.513601
	H463	H	0.504869	0.507916	0.503621
	H464	H	0.489778	0.511871	0.518480
	O465	O	0.790504	-0.216632	0.109794
	H466	H	0.754857	-0.246208	0.117656
	H467	H	0.790094	-0.187146	0.120142
	O468	O	0.283429	0.539701	0.278407
	H469	H	0.288129	0.565946	0.280313
	H470	H	0.259601	0.559334	0.260622
	O471	O	0.574396	0.734158	0.493219
	H472	H	0.572993	0.736906	0.493212
	H473	H	0.588404	0.736997	0.509968
	O474	O	0.271201	0.721265	0.485004
	H475	H	0.273956	0.719513	0.465815
	H476	H	0.264206	0.745800	0.473304
	O477	O	0.553568	0.258277	1.523692
	H478	H	0.550041	0.260770	1.521322
	H479	H	0.574281	0.254089	1.518625
	O480	O	0.291434	0.287618	0.284715
	H481	H	0.307702	0.299109	0.306566
	H482	H	0.305738	0.312931	0.297102
	O483	O	0.278176	0.470138	0.648682
	H484	H	0.289627	0.463348	0.650567
	H485	H	0.270720	0.466193	0.666412
	O486	O	1.032073	0.220772	0.900284
	H487	H	1.031480	0.223790	0.895928
	H488	H	1.030014	0.218743	0.902352
	O489	O	1.052894	0.763749	0.044500
	H490	H	1.054029	0.765334	0.064428
	H491	H	1.061644	0.761358	0.048643
	O492	O	0.088078	0.014983	0.052286
	H493	H	0.102037	0.015547	0.059997
	H494	H	0.085302	0.012475	0.061207
	O495	O	-0.043141	1.217609	0.820712
	H496	H	-0.047687	1.218220	0.828251
	H497	H	-0.039750	1.238678	0.804203
	O498	O	0.784291	0.992944	0.873053
	H499	H	0.789100	1.004966	0.882805
	H500	H	0.776015	0.998417	0.854650
	O501	O	0.440394	0.662341	0.626530
	H502	H	0.459752	0.673414	0.599495
	H503	H	0.453301	0.675312	0.652052
