data_Molecule from HDF5

_cell_length_a		16.202938
_cell_length_b		16.311019
_cell_length_c		16.071591
_cell_angle_alpha	90.591951
_cell_angle_beta	89.781393
_cell_angle_gamma	89.402262
_symmetry_space_group_name_H-M	'P 1'
_symmetry_Int_Tables_number		1

loop_
	_symmetry_equiv_pos_as_xyz
	x,y,z

loop_
	_atom_site_label
	_atom_site_type_symbol
	_atom_site_fract_x
	_atom_site_fract_y
	_atom_site_fract_z
	H0	H	0.405824	0.837053	0.715447
	H1	H	0.596088	0.164977	0.717862
	H2	H	0.604693	0.838237	0.283914
	H3	H	0.401782	0.165428	0.291700
	H4	H	0.718940	0.398515	0.836741
	H5	H	0.714131	0.600298	0.166804
	H6	H	0.289380	0.598832	0.836063
	H7	H	0.289663	0.404637	0.167702
	H8	H	0.839095	0.719293	0.400696
	H9	H	0.164324	0.718020	0.605063
	H10	H	0.836899	0.291593	0.600546
	H11	H	0.163061	0.280429	0.394154
	H12	H	0.838209	0.407357	0.715226
	H13	H	0.167292	0.598462	0.713690
	H14	H	0.837382	0.599290	0.290287
	H15	H	0.166389	0.400679	0.287808
	H16	H	0.402550	0.714608	0.835922
	H17	H	0.604079	0.717876	0.165013
	H18	H	0.604764	0.284037	0.836491
	H19	H	0.404502	0.290540	0.167165
	H20	H	0.721735	0.839253	0.400449
	H21	H	0.713176	0.165253	0.605027
	H22	H	0.286465	0.837717	0.603061
	H23	H	0.282180	0.162809	0.402492
	H24	H	0.906560	0.337436	0.213047
	H25	H	0.098467	0.663830	0.218049
	H26	H	0.103557	0.338393	0.784261
	H27	H	0.904198	0.666325	0.792330
	H28	H	0.218308	0.897753	0.338404
	H29	H	0.211741	0.100389	0.668149
	H30	H	0.786809	0.099571	0.337085
	H31	H	0.790584	0.908514	0.669323
	H32	H	0.339700	0.218818	0.901351
	H33	H	0.666677	0.215847	0.103292
	H34	H	0.338332	0.789271	0.100836
	H35	H	0.666290	0.782323	0.897675
	H36	H	0.337319	0.907602	0.213804
	H37	H	0.666723	0.098807	0.216407
	H38	H	0.337277	0.097569	0.793273
	H39	H	0.667368	0.901162	0.787716
	H40	H	0.900568	0.214710	0.335919
	H41	H	0.099484	0.218716	0.665975
	H42	H	0.105304	0.781854	0.339029
	H43	H	0.900602	0.790081	0.667910
	H44	H	0.219830	0.338363	0.900862
	H45	H	0.215157	0.664514	0.102713
	H46	H	0.788698	0.338001	0.100839
	H47	H	0.784544	0.664180	0.904525
	H48	H	0.402965	0.117342	0.597818
	H49	H	0.598008	0.882522	0.598634
	H50	H	0.593071	0.118410	0.406317
	H51	H	0.406459	0.886638	0.421049
	H52	H	0.599339	0.413425	0.120813
	H53	H	0.587970	0.591080	0.884121
	H54	H	0.415860	0.585964	0.115525
	H55	H	0.421706	0.421464	0.890010
	H56	H	0.120875	0.596511	0.409310
	H57	H	0.883314	0.598273	0.596215
	H58	H	0.118897	0.409087	0.590777
	H59	H	0.885611	0.408649	0.414749
	H60	H	0.120138	0.405778	0.591667
	H61	H	0.883742	0.597344	0.595691
	H62	H	0.117406	0.590840	0.416070
	H63	H	0.883599	0.414908	0.403061
	H64	H	0.414709	0.607704	0.121520
	H65	H	0.598391	0.597260	0.880031
	H66	H	0.589447	0.408389	0.118609
	H67	H	0.418929	0.390413	0.880163
	H68	H	0.590635	0.115481	0.414031
	H69	H	0.593799	0.886992	0.592513
	H70	H	0.407100	0.117929	0.598604
	H71	H	0.403280	0.879631	0.400119
	H72	H	0.904692	0.616699	0.089744
	H73	H	0.092687	0.386735	0.090152
	H74	H	0.093444	0.617031	0.913009
	H75	H	0.922085	0.390864	0.919599
	H76	H	0.084821	0.904058	0.620557
	H77	H	0.085539	0.083133	0.387928
	H78	H	0.899221	0.099566	0.624231
	H79	H	0.909299	0.913675	0.384429
	H80	H	0.617531	0.086798	0.915084
	H81	H	0.383106	0.098876	0.101249
	H82	H	0.622214	0.909902	0.103843
	H83	H	0.388341	0.906118	0.924334
	H84	H	0.622554	0.896516	0.086175
	H85	H	0.385143	0.102399	0.091745
	H86	H	0.622529	0.091324	0.901721
	H87	H	0.386001	0.920516	0.902437
	H88	H	0.910832	0.091440	0.618163
	H89	H	0.088916	0.100550	0.382149
	H90	H	0.101952	0.905190	0.626081
	H91	H	0.916019	0.907583	0.385382
	H92	H	0.102326	0.620474	0.909797
	H93	H	0.105934	0.382557	0.089991
	H94	H	0.904141	0.621287	0.099724
	H95	H	0.895960	0.381616	0.911314
	H96	H	0.405853	0.117174	0.595714
	H97	H	0.602418	0.883959	0.591460
	H98	H	0.598407	0.118620	0.413337
	H99	H	0.423438	0.886911	0.405140
	H100	H	0.599113	0.402667	0.122403
	H101	H	0.598496	0.585838	0.882297
	H102	H	0.397414	0.595000	0.122758
	H103	H	0.393299	0.410312	0.878104
	H104	H	0.119092	0.587608	0.407039
	H105	H	0.883894	0.596671	0.596786
	H106	H	0.118959	0.407519	0.588309
	H107	H	0.880112	0.402509	0.404344
	H108	H	0.913893	0.616114	0.097920
	H109	H	0.098057	0.380814	0.100992
	H110	H	0.094564	0.620242	0.902825
	H111	H	0.917870	0.382242	0.892253
	H112	H	0.091892	0.919825	0.618141
	H113	H	0.102219	0.088738	0.381237
	H114	H	0.911522	0.107081	0.621564
	H115	H	0.908357	0.905310	0.382171
	H116	H	0.621407	0.100676	0.913207
	H117	H	0.386529	0.093099	0.092993
	H118	H	0.614933	0.917056	0.085220
	H119	H	0.378987	0.895016	0.901808
	C120	C	0.378511	0.009430	0.625456
	C121	C	0.624063	0.992680	0.624680
	C122	C	0.624612	0.010066	0.380360
	C123	C	0.380164	0.992277	0.380853
	C124	C	0.625127	0.378313	0.010954
	C125	C	0.623133	0.621074	0.991838
	C126	C	0.381090	0.623427	0.010137
	C127	C	0.382379	0.380453	0.992701
	C128	C	0.010790	0.621740	0.381252
	C129	C	0.992623	0.624928	0.624613
	C130	C	0.010558	0.380948	0.620637
	C131	C	0.991745	0.378313	0.377621
	C132	C	0.880585	0.509783	0.123593
	C133	C	0.125349	0.491716	0.123472
	C134	C	0.126101	0.510991	0.878883
	C135	C	0.881529	0.492780	0.880141
	C136	C	0.123230	0.878922	0.512166
	C137	C	0.121191	0.121614	0.492857
	C138	C	0.878568	0.125397	0.511396
	C139	C	0.881748	0.881859	0.493702
	C140	C	0.511763	0.121680	0.881806
	C141	C	0.493919	0.124871	0.124257
	C142	C	0.511041	0.880497	0.121695
	C143	C	0.493592	0.878177	0.879568
	C144	C	0.383628	0.886282	0.678916
	C145	C	0.617783	0.115953	0.680363
	C146	C	0.624406	0.887219	0.322741
	C147	C	0.381524	0.115732	0.327742
	C148	C	0.681237	0.379052	0.886485
	C149	C	0.677327	0.619957	0.116996
	C150	C	0.326342	0.620008	0.885729
	C151	C	0.327197	0.384365	0.117776
	C152	C	0.887772	0.679913	0.381585
	C153	C	0.115840	0.679851	0.623683
	C154	C	0.886391	0.328428	0.619892
	C155	C	0.114529	0.319945	0.376759
	C156	C	0.887088	0.386050	0.677221
	C157	C	0.117365	0.620196	0.677917
	C158	C	0.886893	0.620141	0.326620
	C159	C	0.116428	0.379745	0.323577
	C160	C	0.382981	0.677423	0.885553
	C161	C	0.622755	0.678819	0.116026
	C162	C	0.624361	0.322091	0.886206
	C163	C	0.384166	0.327395	0.117565
	C164	C	0.682569	0.887730	0.380729
	C165	C	0.676327	0.116070	0.624211
	C166	C	0.324190	0.886526	0.622892
	C167	C	0.321954	0.114531	0.383035
	C168	C	0.885246	0.386369	0.176544
	C169	C	0.119995	0.615218	0.179651
	C170	C	0.124157	0.387297	0.822650
	C171	C	0.883221	0.616670	0.827943
	C172	C	0.180211	0.878724	0.387910
	C173	C	0.174961	0.120531	0.617976
	C174	C	0.823784	0.120809	0.386553
	C175	C	0.827302	0.886654	0.619546
	C176	C	0.388229	0.179218	0.882655
	C177	C	0.617190	0.178891	0.123125
	C178	C	0.387602	0.826442	0.120541
	C179	C	0.617401	0.821344	0.879102
	C180	C	0.386856	0.885489	0.176639
	C181	C	0.617336	0.120621	0.179464
	C182	C	0.386944	0.118850	0.829078
	C183	C	0.617710	0.880501	0.824398
	C184	C	0.880545	0.177896	0.385854
	C185	C	0.119259	0.179509	0.616841
	C186	C	0.124247	0.820788	0.388234
	C187	C	0.881973	0.827565	0.618650
	C188	C	0.181919	0.387351	0.880340
	C189	C	0.178131	0.615506	0.122629
	C190	C	0.826648	0.386749	0.120641
	C191	C	0.823651	0.615581	0.883829
	C192	C	0.399091	0.095399	0.603696
	C193	C	0.604038	0.906567	0.601074
	C194	C	0.600946	0.095478	0.404259
	C195	C	0.403981	0.906611	0.402359
	C196	C	0.602456	0.401366	0.098119
	C197	C	0.601171	0.598072	0.904752
	C198	C	0.403090	0.602480	0.097459
	C199	C	0.404643	0.401242	0.905349
	C200	C	0.096790	0.598488	0.404160
	C201	C	0.906227	0.603736	0.602724
	C202	C	0.097101	0.401376	0.597081
	C203	C	0.905456	0.401840	0.400570
	C204	C	0.901459	0.595701	0.102282
	C205	C	0.105155	0.405843	0.100604
	C206	C	0.103547	0.596811	0.901784
	C207	C	0.905046	0.407151	0.901389
	C208	C	0.099813	0.902930	0.599039
	C209	C	0.098751	0.097863	0.406001
	C210	C	0.900572	0.105172	0.598590
	C211	C	0.904334	0.902557	0.406737
	C212	C	0.597881	0.099442	0.903620
	C213	C	0.407427	0.104224	0.101954
	C214	C	0.597686	0.901568	0.098475
	C215	C	0.407010	0.900615	0.902818
	Zn216	Zn	0.502237	0.000301	0.753252
	Zn217	Zn	0.501727	0.001849	0.251425
	Zn218	Zn	0.751237	0.500348	0.002304
	Zn219	Zn	0.253955	0.501619	0.001832
	Zn220	Zn	0.001437	0.752031	0.502753
	Zn221	Zn	0.000352	0.251606	0.499765
	Zn222	Zn	0.003107	0.502186	0.750539
	Zn223	Zn	0.002512	0.500696	0.251975
	Zn224	Zn	0.503129	0.749967	0.000746
	Zn225	Zn	0.503205	0.252031	0.001553
	Zn226	Zn	0.753101	0.002332	0.503922
	Zn227	Zn	0.250212	0.000520	0.502797
	N228	N	0.416594	0.963730	0.680700
	N229	N	0.586096	0.038071	0.680750
	N230	N	0.589095	0.964349	0.322345
	N231	N	0.417132	0.038697	0.326112
	N232	N	0.681818	0.413342	0.965166
	N233	N	0.677566	0.584504	0.038840
	N234	N	0.325024	0.587275	0.964308
	N235	N	0.326000	0.416695	0.038964
	N236	N	0.965752	0.681039	0.414814
	N237	N	0.037376	0.682866	0.591193
	N238	N	0.964276	0.325392	0.585366
	N239	N	0.035990	0.318951	0.409941
	N240	N	0.965253	0.418191	0.677651
	N241	N	0.039582	0.586906	0.678948
	N242	N	0.964368	0.584549	0.326210
	N243	N	0.039139	0.415381	0.323689
	N244	N	0.416287	0.679876	0.964246
	N245	N	0.589712	0.679690	0.037239
	N246	N	0.590283	0.321344	0.964757
	N247	N	0.417843	0.324730	0.038779
	N248	N	0.682763	0.964954	0.415886
	N249	N	0.680185	0.038494	0.590104
	N250	N	0.321158	0.964140	0.590158
	N251	N	0.320865	0.036716	0.415291
	N252	N	0.918059	0.463763	0.178722
	N253	N	0.087967	0.537427	0.180519
	N254	N	0.090292	0.465004	0.821461
	N255	N	0.918387	0.539419	0.825346
	N256	N	0.179790	0.914157	0.466227
	N257	N	0.176419	0.085167	0.539731
	N258	N	0.822305	0.088828	0.465523
	N259	N	0.826611	0.919692	0.541022
	N260	N	0.466792	0.181284	0.914701
	N261	N	0.539274	0.181680	0.089551
	N262	N	0.466135	0.823238	0.087045
	N263	N	0.539151	0.819509	0.912656
	N264	N	0.464692	0.918199	0.177454
	N265	N	0.539537	0.087772	0.180433
	N266	N	0.464482	0.083677	0.828178
	N267	N	0.539682	0.914925	0.824336
	N268	N	0.913656	0.181260	0.464371
	N269	N	0.086748	0.180478	0.537864
	N270	N	0.089303	0.821019	0.466412
	N271	N	0.915109	0.824474	0.539520
	N272	N	0.183518	0.465084	0.914427
	N273	N	0.181489	0.537897	0.088468
	N274	N	0.823443	0.464458	0.088502
	N275	N	0.822315	0.537545	0.915595
	O276	O	0.015277	0.005383	0.071748
	H277	H	0.027274	0.001292	0.070896
	H278	H	0.016423	0.015335	0.076979
	O279	O	0.453677	0.351337	0.597958
	H280	H	0.458123	0.343100	0.601738
	H281	H	0.464699	0.349810	0.597763
	O282	O	0.422319	0.474598	0.420560
	H283	H	0.415960	0.488652	0.422324
	H284	H	0.405384	0.476086	0.427852
	O285	O	-0.038853	0.988971	1.039128
	H286	H	-0.041023	0.975290	1.039527
	H287	H	-0.028205	0.997220	1.048597
	O288	O	0.993192	-0.030051	0.004421
	H289	H	0.999921	-0.031100	-0.000493
	H290	H	0.987464	-0.044203	0.006383
	O291	O	1.036829	1.036556	0.965957
	H292	H	1.040210	1.041881	0.965347
	H293	H	1.042081	1.040872	0.962307
	O294	O	0.569688	1.416950	0.519821
	H295	H	0.566500	1.402945	0.515011
	H296	H	0.576230	1.416798	0.507300
	O297	O	1.033568	0.075239	0.950262
	H298	H	1.033895	0.067206	0.955693
	H299	H	1.032595	0.081910	0.950118
	O300	O	0.476426	0.517325	0.531436
	H301	H	0.468206	0.510097	0.535536
	H302	H	0.474539	0.512230	0.526355
	O303	O	0.986670	-0.048728	0.010093
	H304	H	0.985136	-0.047375	0.013313
	H305	H	0.989118	-0.046069	0.004097
	O306	O	0.025452	1.028624	0.968443
	H307	H	0.020440	1.030455	0.973374
	H308	H	0.031656	1.023083	0.959171
	O309	O	0.480443	0.466573	0.448751
	H310	H	0.480396	0.470237	0.447181
	H311	H	0.470632	0.469864	0.450005
	O312	O	1.600813	0.397301	0.462242
	H313	H	1.605926	0.385732	0.452748
	H314	H	1.604445	0.401168	0.452762
	O315	O	0.397415	0.633261	0.450750
	H316	H	0.393377	0.625212	0.444116
	H317	H	0.386630	0.635765	0.455327
	O318	O	0.516899	0.418196	0.462189
	H319	H	0.520741	0.406828	0.445237
	H320	H	0.511969	0.432799	0.472684
	O321	O	0.925095	0.973746	1.020080
	H322	H	0.927607	0.974421	1.008160
	H323	H	0.922211	0.969114	1.013628
	O324	O	0.623424	0.460042	0.462251
	H325	H	0.621604	0.462198	0.450286
	H326	H	0.624551	0.453839	0.459042
	O327	O	0.377149	0.491737	0.474421
	H328	H	0.364203	0.493641	0.489169
	H329	H	0.368095	0.487109	0.477486
	O330	O	1.000260	0.039928	0.993321
	H331	H	0.989298	0.033972	0.993960
	H332	H	0.995533	0.043472	0.998333
	O333	O	0.936525	1.021779	0.072837
	H334	H	0.932091	1.014574	0.068787
	H335	H	0.933834	1.026866	0.079853
	O336	O	0.531444	0.591797	0.557756
	H337	H	0.542707	0.594806	0.551919
	H338	H	0.520536	0.585070	0.568330
	O339	O	0.519290	0.614327	0.547463
	H340	H	0.519784	0.619094	0.541921
	H341	H	0.524060	0.621728	0.553377
	O342	O	0.060145	0.970888	0.014364
	H343	H	0.057733	0.966807	0.016150
	H344	H	0.063250	0.976921	0.017005
	O345	O	0.135368	0.006058	-0.022151
	H346	H	0.139131	0.001086	-0.020406
	H347	H	0.140234	0.006766	-0.032783
	O348	O	-0.590979	0.579702	0.493031
	H349	H	-0.577969	0.584344	0.492218
	H350	H	-0.596821	0.564949	0.491183
	O351	O	0.418385	0.549049	0.459031
	H352	H	0.423368	0.548444	0.450470
	H353	H	0.422516	0.553892	0.469446
	O354	O	0.432209	0.594659	0.427175
	H355	H	0.437172	0.602104	0.447109
	H356	H	0.422747	0.602451	0.422206
	O357	O	0.558772	0.551265	0.538110
	H358	H	0.564234	0.567897	0.530257
	H359	H	0.570585	0.554221	0.550666
	O360	O	0.012510	-0.037051	0.099638
	H361	H	0.004925	-0.042323	0.096139
	H362	H	0.008764	-0.021890	0.110388
	O363	O	0.573140	0.423112	0.466394
	H364	H	0.575639	0.417945	0.465486
	H365	H	0.573424	0.424637	0.458464
	O366	O	-0.348953	-0.466873	1.474165
	H367	H	-0.344265	-0.478899	1.461323
	H368	H	-0.350877	-0.473608	1.472521
	O369	O	0.508728	0.533555	0.607081
	H370	H	0.525196	0.536963	0.608862
	H371	H	0.494170	0.531042	0.606437
