data_Molecule from HDF5

_cell_length_a		16.338155
_cell_length_b		16.078331
_cell_length_c		16.277213
_cell_angle_alpha	89.716484
_cell_angle_beta	90.117648
_cell_angle_gamma	90.102493
_symmetry_space_group_name_H-M	'P 1'
_symmetry_Int_Tables_number		1

loop_
	_symmetry_equiv_pos_as_xyz
	x,y,z

loop_
	_atom_site_label
	_atom_site_type_symbol
	_atom_site_fract_x
	_atom_site_fract_y
	_atom_site_fract_z
	H0	H	0.388545	0.839075	0.711857
	H1	H	0.591060	0.167702	0.710747
	H2	H	0.587925	0.837652	0.284524
	H3	H	0.388949	0.166602	0.278450
	H4	H	0.712158	0.400289	0.835064
	H5	H	0.713228	0.605688	0.159209
	H6	H	0.275261	0.608462	0.834889
	H7	H	0.274615	0.398231	0.158682
	H8	H	0.829089	0.715586	0.395304
	H9	H	0.153845	0.721159	0.594811
	H10	H	0.828323	0.290041	0.593069
	H11	H	0.155971	0.289188	0.399838
	H12	H	0.831683	0.400132	0.714170
	H13	H	0.154585	0.606576	0.712602
	H14	H	0.832328	0.604833	0.275865
	H15	H	0.156244	0.401797	0.280982
	H16	H	0.395788	0.718586	0.833828
	H17	H	0.591693	0.716473	0.161346
	H18	H	0.591287	0.288339	0.834249
	H19	H	0.396276	0.288472	0.161359
	H20	H	0.705115	0.839272	0.395514
	H21	H	0.706051	0.167945	0.594744
	H22	H	0.273199	0.841003	0.599622
	H23	H	0.276474	0.168419	0.394575
	H24	H	0.896626	0.339367	0.210480
	H25	H	0.096965	0.667992	0.210155
	H26	H	0.094917	0.338208	0.780778
	H27	H	0.893946	0.667115	0.779392
	H28	H	0.209060	0.902479	0.334140
	H29	H	0.209943	0.107997	0.657525
	H30	H	0.772903	0.105862	0.332217
	H31	H	0.771905	0.900356	0.657091
	H32	H	0.328959	0.219882	0.898581
	H33	H	0.655418	0.216921	0.097215
	H34	H	0.329382	0.786451	0.096258
	H35	H	0.656075	0.791336	0.899907
	H36	H	0.328895	0.900570	0.213161
	H37	H	0.652478	0.104810	0.215827
	H38	H	0.328102	0.105655	0.779625
	H39	H	0.652415	0.900764	0.778695
	H40	H	0.893478	0.218687	0.330615
	H41	H	0.087238	0.215209	0.659567
	H42	H	0.086866	0.792762	0.330552
	H43	H	0.890029	0.785896	0.658187
	H44	H	0.208038	0.338078	0.897309
	H45	H	0.210018	0.667340	0.095436
	H46	H	0.778758	0.340275	0.100503
	H47	H	0.779068	0.667630	0.893941
	H48	H	0.392010	0.122358	0.580409
	H49	H	0.578339	0.886345	0.587931
	H50	H	0.583891	0.122953	0.402821
	H51	H	0.395868	0.882778	0.400552
	H52	H	0.584059	0.408287	0.113265
	H53	H	0.592640	0.590025	0.882367
	H54	H	0.403199	0.597271	0.114177
	H55	H	0.389668	0.415765	0.879436
	H56	H	0.112138	0.598338	0.395013
	H57	H	0.878970	0.584543	0.592941
	H58	H	0.112125	0.404527	0.592659
	H59	H	0.878917	0.411763	0.407832
	H60	H	0.106357	0.408991	0.581234
	H61	H	0.872998	0.600583	0.592006
	H62	H	0.110126	0.603409	0.407653
	H63	H	0.877467	0.418628	0.397138
	H64	H	0.395517	0.592055	0.114663
	H65	H	0.580683	0.593550	0.882707
	H66	H	0.592178	0.408998	0.115504
	H67	H	0.408317	0.422072	0.885743
	H68	H	0.577523	0.120100	0.402939
	H69	H	0.585092	0.885579	0.585829
	H70	H	0.399737	0.124400	0.596786
	H71	H	0.403077	0.887496	0.407020
	H72	H	0.912994	0.616632	0.077936
	H73	H	0.087180	0.383881	0.093633
	H74	H	0.089463	0.621856	0.902672
	H75	H	0.904419	0.384291	0.902292
	H76	H	0.085413	0.917072	0.610985
	H77	H	0.083464	0.094739	0.379915
	H78	H	0.890353	0.101247	0.615204
	H79	H	0.899841	0.911128	0.379725
	H80	H	0.606209	0.091067	0.899628
	H81	H	0.374562	0.096616	0.090798
	H82	H	0.610692	0.907416	0.097693
	H83	H	0.375332	0.910922	0.903984
	H84	H	0.607487	0.907099	0.086593
	H85	H	0.376816	0.096099	0.084981
	H86	H	0.608016	0.098919	0.903210
	H87	H	0.375461	0.910063	0.904839
	H88	H	0.894447	0.087017	0.609566
	H89	H	0.083424	0.096649	0.378767
	H90	H	0.077753	0.913252	0.609423
	H91	H	0.892641	0.907199	0.376500
	H92	H	0.083294	0.621155	0.900694
	H93	H	0.082944	0.385819	0.088040
	H94	H	0.893048	0.623949	0.081396
	H95	H	0.903851	0.386455	0.909242
	H96	H	0.409844	0.117272	0.583227
	H97	H	0.583256	0.884409	0.592381
	H98	H	0.581940	0.120638	0.408169
	H99	H	0.393685	0.885082	0.409715
	H100	H	0.588563	0.416505	0.112093
	H101	H	0.589849	0.602147	0.878577
	H102	H	0.403288	0.588690	0.110805
	H103	H	0.405434	0.402625	0.878729
	H104	H	0.106731	0.590031	0.405114
	H105	H	0.879616	0.593039	0.578650
	H106	H	0.107514	0.417473	0.591323
	H107	H	0.874471	0.406862	0.398099
	H108	H	0.907345	0.625084	0.096964
	H109	H	0.090234	0.384365	0.086771
	H110	H	0.084833	0.619887	0.908136
	H111	H	0.898648	0.384563	0.905127
	H112	H	0.083755	0.908932	0.613511
	H113	H	0.085158	0.095453	0.378250
	H114	H	0.904919	0.098174	0.610110
	H115	H	0.892874	0.916006	0.379061
	H116	H	0.604467	0.092311	0.907698
	H117	H	0.376007	0.091375	0.089360
	H118	H	0.606664	0.917177	0.092406
	H119	H	0.375673	0.911029	0.905087
	C120	C	0.369615	0.013137	0.617439
	C121	C	0.612320	0.994113	0.617806
	C122	C	0.610072	0.012134	0.375904
	C123	C	0.368677	0.994229	0.374944
	C124	C	0.616648	0.381371	0.006059
	C125	C	0.616789	0.625011	0.988781
	C126	C	0.371763	0.624093	0.005774
	C127	C	0.371544	0.382031	0.988770
	C128	C	0.002034	0.625853	0.372953
	C129	C	0.983780	0.624350	0.617166
	C130	C	0.001208	0.381065	0.617807
	C131	C	0.984749	0.382357	0.373645
	C132	C	0.874624	0.512983	0.116405
	C133	C	0.116358	0.493993	0.117877
	C134	C	0.115182	0.511733	0.874753
	C135	C	0.872699	0.493970	0.874961
	C136	C	0.111683	0.883215	0.503908
	C137	C	0.112739	0.125312	0.486985
	C138	C	0.868026	0.125921	0.503528
	C139	C	0.867103	0.881200	0.486298
	C140	C	0.499418	0.125227	0.874281
	C141	C	0.483139	0.123903	0.118648
	C142	C	0.500466	0.880515	0.120302
	C143	C	0.483141	0.881588	0.875553
	C144	C	0.369293	0.888937	0.674167
	C145	C	0.611152	0.118229	0.673306
	C146	C	0.608241	0.887367	0.321508
	C147	C	0.369703	0.117785	0.317437
	C148	C	0.672737	0.381779	0.883672
	C149	C	0.673778	0.624475	0.110745
	C150	C	0.314691	0.625855	0.883383
	C151	C	0.314047	0.380278	0.110615
	C152	C	0.878591	0.679435	0.374687
	C153	C	0.105582	0.682577	0.615391
	C154	C	0.877994	0.326465	0.614722
	C155	C	0.107124	0.326137	0.377753
	C156	C	0.879659	0.381218	0.675084
	C157	C	0.105877	0.625446	0.673827
	C158	C	0.880366	0.624345	0.315076
	C159	C	0.107472	0.382543	0.318990
	C160	C	0.374671	0.680988	0.882775
	C161	C	0.613170	0.679565	0.111953
	C162	C	0.612806	0.325749	0.883135
	C163	C	0.374344	0.325526	0.111976
	C164	C	0.666579	0.888172	0.376746
	C165	C	0.668272	0.118388	0.615579
	C166	C	0.311853	0.889843	0.618275
	C167	C	0.313888	0.118761	0.375254
	C168	C	0.875995	0.388974	0.173101
	C169	C	0.115621	0.618570	0.172529
	C170	C	0.114396	0.387693	0.818882
	C171	C	0.874095	0.618072	0.817774
	C172	C	0.169451	0.883786	0.381923
	C173	C	0.170011	0.126015	0.609097
	C174	C	0.811944	0.125108	0.380690
	C175	C	0.810612	0.881115	0.608564
	C176	C	0.377384	0.182273	0.877150
	C177	C	0.606188	0.179326	0.117207
	C178	C	0.378223	0.823977	0.117307
	C179	C	0.606297	0.827549	0.878455
	C180	C	0.377842	0.881086	0.175207
	C181	C	0.604679	0.123423	0.176234
	C182	C	0.377046	0.125347	0.818140
	C183	C	0.604679	0.882322	0.818295
	C184	C	0.871700	0.181279	0.379958
	C185	C	0.108961	0.179628	0.610418
	C186	C	0.108781	0.828921	0.380336
	C187	C	0.869255	0.824007	0.608937
	C188	C	0.170449	0.387454	0.877063
	C189	C	0.171891	0.618339	0.115264
	C190	C	0.817490	0.389284	0.118170
	C191	C	0.817238	0.618232	0.875038
	C192	C	0.393610	0.099062	0.593743
	C193	C	0.589062	0.907760	0.595401
	C194	C	0.587653	0.098840	0.398076
	C195	C	0.391138	0.907502	0.398809
	C196	C	0.594649	0.404475	0.091624
	C197	C	0.594268	0.601955	0.903195
	C198	C	0.394064	0.599732	0.091133
	C199	C	0.394534	0.406541	0.903668
	C200	C	0.087433	0.603642	0.395930
	C201	C	0.899007	0.599947	0.594413
	C202	C	0.086602	0.403885	0.595093
	C203	C	0.899197	0.405777	0.394763
	C204	C	0.897700	0.599418	0.092501
	C205	C	0.093515	0.407321	0.095966
	C206	C	0.092709	0.598385	0.897217
	C207	C	0.895473	0.407726	0.898599
	C208	C	0.088926	0.906287	0.589140
	C209	C	0.090572	0.102416	0.401297
	C210	C	0.890105	0.102523	0.589315
	C211	C	0.888906	0.904639	0.400664
	C212	C	0.584346	0.101222	0.896911
	C213	C	0.398009	0.101295	0.095239
	C214	C	0.586133	0.903743	0.098625
	C215	C	0.397765	0.904049	0.898069
	Zn216	Zn	0.490004	0.002855	0.745390
	Zn217	Zn	0.490141	0.002757	0.248292
	Zn218	Zn	0.746207	0.503378	-0.003059
	Zn219	Zn	0.242291	0.503187	-0.003728
	Zn220	Zn	-0.009000	0.753819	0.495131
	Zn221	Zn	-0.008329	0.253510	0.494765
	Zn222	Zn	-0.006349	0.502403	0.746958
	Zn223	Zn	-0.004588	0.504319	0.244315
	Zn224	Zn	0.492998	0.752826	-0.002425
	Zn225	Zn	0.493015	0.253449	-0.002177
	Zn226	Zn	0.738856	0.003986	0.494649
	Zn227	Zn	0.241948	0.004500	0.496199
	N228	N	0.404859	0.966487	0.673610
	N229	N	0.576980	0.039858	0.674900
	N230	N	0.573747	0.965285	0.320932
	N231	N	0.403101	0.039338	0.317171
	N232	N	0.675235	0.415515	0.961173
	N233	N	0.675953	0.591307	0.033183
	N234	N	0.312963	0.591041	0.960694
	N235	N	0.312028	0.414658	0.032873
	N236	N	0.955123	0.680518	0.409963
	N237	N	0.028649	0.681988	0.580633
	N238	N	0.954595	0.326190	0.579887
	N239	N	0.029664	0.325931	0.410755
	N240	N	0.957306	0.414653	0.676949
	N241	N	0.029305	0.590077	0.675073
	N242	N	0.958125	0.591840	0.313804
	N243	N	0.030351	0.416733	0.316162
	N244	N	0.409613	0.679919	0.959745
	N245	N	0.578078	0.679860	0.035000
	N246	N	0.578818	0.325281	0.960322
	N247	N	0.409591	0.326601	0.035396
	N248	N	0.667647	0.966763	0.409903
	N249	N	0.669171	0.040235	0.582021
	N250	N	0.311864	0.967978	0.583602
	N251	N	0.313178	0.040779	0.410368
	N252	N	0.910902	0.466784	0.172176
	N253	N	0.081810	0.540132	0.174334
	N254	N	0.080710	0.465981	0.817399
	N255	N	0.907968	0.539770	0.817673
	N256	N	0.171680	0.916710	0.459836
	N257	N	0.172413	0.092769	0.531374
	N258	N	0.809524	0.091544	0.458544
	N259	N	0.809172	0.916120	0.531389
	N260	N	0.454710	0.182563	0.911164
	N261	N	0.529686	0.179800	0.081861
	N262	N	0.455578	0.823619	0.083871
	N263	N	0.529641	0.826958	0.913309
	N264	N	0.454900	0.915637	0.177134
	N265	N	0.527271	0.089836	0.177174
	N266	N	0.453824	0.090617	0.816248
	N267	N	0.527009	0.915011	0.816048
	N268	N	0.905667	0.182040	0.457327
	N269	N	0.074051	0.179186	0.533484
	N270	N	0.073484	0.828672	0.457029
	N271	N	0.903499	0.823899	0.531954
	N272	N	0.171148	0.465641	0.910955
	N273	N	0.172513	0.539926	0.082168
	N274	N	0.816530	0.467582	0.083585
	N275	N	0.816026	0.540027	0.909662
	O276	O	0.923237	0.109451	0.911389
	H277	H	0.923070	0.103498	0.903419
	H278	H	0.922278	0.101878	0.908102
	O279	O	0.517811	0.484175	0.500423
	H280	H	0.508407	0.492757	0.490288
	H281	H	0.527884	0.486642	0.507977
	O282	O	0.530898	0.328918	0.527518
	H283	H	0.528974	0.320542	0.531906
	H284	H	0.522058	0.330586	0.525351
	O285	O	0.579082	0.603549	0.434961
	H286	H	0.586660	0.594109	0.439008
	H287	H	0.580149	0.599620	0.438146
	O288	O	0.564450	0.357616	0.365334
	H289	H	0.565418	0.353833	0.370053
	H290	H	0.565444	0.354128	0.369424
	O291	O	0.033786	0.003341	0.958740
	H292	H	0.035167	0.026335	0.965185
	H293	H	0.040650	0.005141	0.949690
	O294	O	1.034604	0.897542	-0.120118
	H295	H	1.028469	0.899666	-0.111060
	H296	H	1.022249	0.887531	-0.112756
	O297	O	0.920644	0.993850	0.052650
	H298	H	0.927314	0.990670	0.051962
	H299	H	0.931079	0.992965	0.047289
	O300	O	0.493350	0.494060	0.573827
	H301	H	0.489084	0.499302	0.569992
	H302	H	0.483296	0.493637	0.579923
	O303	O	0.390814	0.442920	0.446470
	H304	H	0.397180	0.433084	0.450029
	H305	H	0.387291	0.447833	0.449664
	O306	O	0.746535	0.817068	0.763120
	H307	H	0.744376	0.824600	0.758597
	H308	H	0.754098	0.816637	0.776248
	O309	O	0.557883	0.561399	0.578875
	H310	H	0.566100	0.549399	0.578462
	H311	H	0.554580	0.566387	0.574155
	O312	O	0.835298	0.960647	0.990115
	H313	H	0.848517	0.949582	0.997980
	H314	H	0.828330	0.957850	0.987426
	O315	O	1.030889	1.007948	0.096607
	H316	H	1.038677	1.007325	0.106394
	H317	H	1.036581	1.018155	0.091591
	O318	O	0.358113	0.574844	0.396235
	H319	H	0.368302	0.571856	0.393315
	H320	H	0.345417	0.577872	0.387815
	O321	O	0.400805	0.602274	0.469657
	H322	H	0.390860	0.597425	0.456259
	H323	H	0.412661	0.607319	0.467736
	O324	O	0.005911	0.955723	0.990840
	H325	H	0.011502	0.969282	0.985262
	H326	H	0.007681	0.952174	0.996959
	O327	O	-0.156814	1.049353	0.973031
	H328	H	-0.164086	1.059231	0.982196
	H329	H	-0.181583	1.041438	0.946127
	O330	O	0.137842	-0.073430	-0.062993
	H331	H	0.139170	-0.078564	-0.054361
	H332	H	0.125002	-0.070870	-0.063983
	O333	O	0.429972	0.475013	0.595662
	H334	H	0.418838	0.481165	0.587150
	H335	H	0.429930	0.465499	0.598302
	O336	O	-0.072301	0.021818	-0.044126
	H337	H	-0.083986	0.027792	-0.050987
	H338	H	-0.084537	0.028463	-0.044403
	O339	O	0.110639	0.013499	0.043839
	H340	H	0.103882	0.012960	0.043573
	H341	H	0.113220	0.030862	0.048377
	O342	O	0.402249	0.416114	0.631674
	H343	H	0.413660	0.419323	0.624280
	H344	H	0.401330	0.420818	0.640245
	O345	O	-0.029681	1.121892	0.957354
	H346	H	-0.039909	1.118934	0.955286
	H347	H	-0.035336	1.131367	0.942210
	O348	O	0.443624	0.610493	0.475854
	H349	H	0.442430	0.618349	0.470078
	H350	H	0.452869	0.606204	0.457954
	O351	O	0.404812	0.397622	0.507021
	H352	H	0.392930	0.408744	0.510266
	H353	H	0.411465	0.393988	0.513579
	O354	O	0.629918	0.482775	0.573588
	H355	H	0.643989	0.487642	0.583969
	H356	H	0.614968	0.487730	0.580814
	O357	O	0.574731	0.664524	0.517147
	H358	H	0.583520	0.670081	0.509167
	H359	H	0.571758	0.668869	0.546091
	O360	O	0.894674	-0.050663	1.001880
	H361	H	0.894728	-0.043772	0.988359
	H362	H	0.880771	-0.053469	1.000385
	O363	O	0.634486	0.562084	0.527619
	H364	H	0.635842	0.547073	0.534188
	H365	H	0.629136	0.572198	0.546438
	O366	O	0.378599	0.633959	0.436567
	H367	H	0.386686	0.639089	0.420132
	H368	H	0.373225	0.623163	0.432294
	O369	O	1.069082	0.033462	0.072848
	H370	H	1.071181	0.038295	0.080766
	H371	H	1.069222	0.039941	0.062694
	O372	O	0.558235	0.404223	0.459458
	H373	H	0.559595	0.410700	0.469750
	H374	H	0.564395	0.400159	0.457921
	O375	O	0.951808	-0.065991	1.083560
	H376	H	0.958308	-0.071866	1.074780
	H377	H	0.929372	-0.070967	1.091559
	O378	O	0.024793	1.053010	0.075329
	H379	H	0.022426	1.046232	0.082384
	H380	H	0.026510	1.054336	0.069321
	O381	O	0.437724	0.407832	0.566929
	H382	H	0.434449	0.410143	0.560895
	H383	H	0.439104	0.406927	0.572292
	O384	O	1.043459	1.040912	-0.092030
	H385	H	1.053518	1.020775	-0.090881
	H386	H	1.041902	1.034120	-0.094344
	O387	O	1.118400	0.014212	0.927983
	H388	H	1.115817	-0.001688	0.937004
	H389	H	1.126765	0.018794	0.920928
	O390	O	0.857076	0.936706	-0.016685
	H391	H	0.864965	0.937392	-0.005514
	H392	H	0.846580	0.944721	-0.016998
	O393	O	0.577765	0.539589	0.466605
	H394	H	0.577142	0.546283	0.480704
	H395	H	0.573475	0.540829	0.450048
