data_Molecule from HDF5

_cell_length_a		16.220599
_cell_length_b		16.148726
_cell_length_c		16.181569
_cell_angle_alpha	89.530770
_cell_angle_beta	90.772510
_cell_angle_gamma	89.245818
_symmetry_space_group_name_H-M	'P 1'
_symmetry_Int_Tables_number		1

loop_
	_symmetry_equiv_pos_as_xyz
	x,y,z

loop_
	_atom_site_label
	_atom_site_type_symbol
	_atom_site_fract_x
	_atom_site_fract_y
	_atom_site_fract_z
	H0	H	0.424635	0.829630	0.715543
	H1	H	0.616096	0.159785	0.714230
	H2	H	0.618139	0.828278	0.292277
	H3	H	0.416843	0.159040	0.283777
	H4	H	0.734329	0.392686	0.834329
	H5	H	0.737516	0.590874	0.162674
	H6	H	0.300306	0.597724	0.835254
	H7	H	0.310216	0.395820	0.165287
	H8	H	0.855709	0.711302	0.394883
	H9	H	0.184625	0.703618	0.597838
	H10	H	0.854282	0.282374	0.594960
	H11	H	0.182786	0.277079	0.402992
	H12	H	0.856231	0.393375	0.713401
	H13	H	0.184088	0.588400	0.714504
	H14	H	0.857005	0.596453	0.279252
	H15	H	0.185620	0.395066	0.291512
	H16	H	0.417510	0.711037	0.834936
	H17	H	0.618398	0.704056	0.165518
	H18	H	0.617675	0.278779	0.834286
	H19	H	0.426393	0.281275	0.164727
	H20	H	0.733963	0.829543	0.405656
	H21	H	0.732950	0.159115	0.600523
	H22	H	0.310755	0.828382	0.598335
	H23	H	0.300308	0.158261	0.397113
	H24	H	0.926390	0.329416	0.213147
	H25	H	0.117954	0.658514	0.213399
	H26	H	0.119773	0.328514	0.789671
	H27	H	0.915823	0.657824	0.779188
	H28	H	0.233897	0.894655	0.335172
	H29	H	0.233754	0.089816	0.664576
	H30	H	0.798608	0.097725	0.335603
	H31	H	0.810857	0.894754	0.664885
	H32	H	0.355243	0.211003	0.899332
	H33	H	0.684870	0.204939	0.101172
	H34	H	0.353771	0.782346	0.096028
	H35	H	0.681967	0.777228	0.903731
	H36	H	0.354107	0.896116	0.213249
	H37	H	0.684002	0.087961	0.217375
	H38	H	0.355840	0.098582	0.781696
	H39	H	0.683343	0.893466	0.790283
	H40	H	0.916548	0.209452	0.334205
	H41	H	0.116329	0.203529	0.664743
	H42	H	0.116357	0.781365	0.333481
	H43	H	0.924791	0.778465	0.662754
	H44	H	0.235559	0.330165	0.903592
	H45	H	0.231058	0.660277	0.097865
	H46	H	0.811682	0.328115	0.097277
	H47	H	0.799558	0.657318	0.893517
	H48	H	0.430832	0.113108	0.600096
	H49	H	0.608406	0.879177	0.594530
	H50	H	0.607528	0.115471	0.398420
	H51	H	0.433300	0.878163	0.410992
	H52	H	0.626421	0.403902	0.117943
	H53	H	0.613949	0.593452	0.878463
	H54	H	0.428861	0.588952	0.117624
	H55	H	0.427657	0.401047	0.881515
	H56	H	0.137452	0.583537	0.407225
	H57	H	0.906193	0.573863	0.588212
	H58	H	0.139803	0.395892	0.602754
	H59	H	0.903189	0.411527	0.399615
	H60	H	0.138218	0.390811	0.589886
	H61	H	0.897208	0.593592	0.598828
	H62	H	0.139273	0.587603	0.402726
	H63	H	0.897953	0.397330	0.397526
	H64	H	0.423417	0.590506	0.118990
	H65	H	0.612357	0.578837	0.883477
	H66	H	0.608757	0.405799	0.111961
	H67	H	0.422545	0.403344	0.880272
	H68	H	0.600092	0.108522	0.412420
	H69	H	0.621875	0.876244	0.591492
	H70	H	0.429713	0.108344	0.581440
	H71	H	0.418338	0.875347	0.411511
	H72	H	0.926414	0.611079	0.082825
	H73	H	0.126798	0.370546	0.104262
	H74	H	0.115159	0.612629	0.910027
	H75	H	0.924451	0.375389	0.908630
	H76	H	0.115127	0.886810	0.619963
	H77	H	0.104907	0.082554	0.383887
	H78	H	0.928699	0.092093	0.618227
	H79	H	0.927990	0.895799	0.378883
	H80	H	0.634031	0.082630	0.913637
	H81	H	0.400227	0.089330	0.096780
	H82	H	0.640604	0.884210	0.097897
	H83	H	0.400923	0.900689	0.910474
	H84	H	0.631148	0.905378	0.085839
	H85	H	0.401435	0.094850	0.088542
	H86	H	0.637626	0.082246	0.903834
	H87	H	0.402239	0.909970	0.906370
	H88	H	0.920797	0.089087	0.619214
	H89	H	0.107975	0.092130	0.380125
	H90	H	0.125957	0.902386	0.619033
	H91	H	0.915389	0.905581	0.378774
	H92	H	0.109937	0.615130	0.897500
	H93	H	0.105552	0.378248	0.098563
	H94	H	0.923226	0.614420	0.090621
	H95	H	0.928198	0.374542	0.902083
	H96	H	0.414534	0.116216	0.590892
	H97	H	0.618449	0.873237	0.604016
	H98	H	0.616329	0.113404	0.412831
	H99	H	0.426675	0.872238	0.398527
	H100	H	0.615213	0.389871	0.118883
	H101	H	0.600137	0.588818	0.883524
	H102	H	0.424285	0.584539	0.117384
	H103	H	0.425251	0.407155	0.883116
	H104	H	0.137204	0.589143	0.409056
	H105	H	0.903731	0.594564	0.575105
	H106	H	0.134139	0.404325	0.592874
	H107	H	0.902818	0.401115	0.411042
	H108	H	0.930596	0.610707	0.090378
	H109	H	0.120747	0.376926	0.082713
	H110	H	0.102274	0.610241	0.907301
	H111	H	0.931829	0.377879	0.908155
	H112	H	0.106922	0.904048	0.613397
	H113	H	0.114849	0.083990	0.380310
	H114	H	0.926998	0.083557	0.616104
	H115	H	0.928456	0.910777	0.384301
	H116	H	0.639445	0.091114	0.909288
	H117	H	0.404421	0.083850	0.087910
	H118	H	0.638684	0.905187	0.110426
	H119	H	0.398247	0.902552	0.900273
	C120	C	0.398814	0.003244	0.620404
	C121	C	0.643152	0.985316	0.624725
	C122	C	0.638617	0.003097	0.380575
	C123	C	0.395816	0.984751	0.377204
	C124	C	0.643303	0.371144	0.007473
	C125	C	0.639663	0.614677	0.990591
	C126	C	0.396060	0.617625	0.008753
	C127	C	0.399019	0.374457	0.991008
	C128	C	0.029447	0.616899	0.375377
	C129	C	1.011054	0.614051	0.618472
	C130	C	0.028504	0.370438	0.621648
	C131	C	1.010289	0.372916	0.376928
	C132	C	0.900381	0.502781	0.118251
	C133	C	0.143288	0.485156	0.122425
	C134	C	0.139839	0.503400	0.878376
	C135	C	0.896903	0.484728	0.875106
	C136	C	0.142656	0.870843	0.507984
	C137	C	0.139182	0.114033	0.490704
	C138	C	0.895220	0.117354	0.508356
	C139	C	0.898057	0.873754	0.490158
	C140	C	0.528314	0.116273	0.878358
	C141	C	0.511135	0.115775	0.121875
	C142	C	0.527681	0.870991	0.124037
	C143	C	0.509576	0.874134	0.879625
	C144	C	0.403529	0.878920	0.677047
	C145	C	0.637836	0.109929	0.677730
	C146	C	0.637616	0.877937	0.328407
	C147	C	0.396515	0.109379	0.321206
	C148	C	0.696865	0.372640	0.883471
	C149	C	0.698129	0.611480	0.114070
	C150	C	0.339150	0.616751	0.884585
	C151	C	0.346627	0.375980	0.115662
	C152	C	0.905264	0.673491	0.375071
	C153	C	0.135223	0.667173	0.618070
	C154	C	0.903937	0.318301	0.616425
	C155	C	0.134136	0.316157	0.382411
	C156	C	0.904964	0.373655	0.675466
	C157	C	0.134924	0.609663	0.675849
	C158	C	0.905839	0.616502	0.317496
	C159	C	0.135577	0.374604	0.326661
	C160	C	0.397311	0.673383	0.884326
	C161	C	0.638824	0.667596	0.115503
	C162	C	0.638771	0.316094	0.883553
	C163	C	0.404638	0.319213	0.115583
	C164	C	0.695498	0.878648	0.384606
	C165	C	0.695961	0.109694	0.621191
	C166	C	0.346767	0.878320	0.618898
	C167	C	0.338770	0.109041	0.377621
	C168	C	0.905231	0.378557	0.174745
	C169	C	0.138984	0.609512	0.176319
	C170	C	0.139239	0.378189	0.826389
	C171	C	0.896401	0.608409	0.817598
	C172	C	0.196093	0.874282	0.384032
	C173	C	0.195576	0.110582	0.614957
	C174	C	0.837469	0.116730	0.384882
	C175	C	0.846787	0.875049	0.614890
	C176	C	0.404455	0.173406	0.879047
	C177	C	0.635224	0.168256	0.121316
	C178	C	0.403195	0.818490	0.118290
	C179	C	0.633306	0.816559	0.883345
	C180	C	0.403247	0.875118	0.176429
	C181	C	0.634678	0.110185	0.179135
	C182	C	0.404783	0.117221	0.820789
	C183	C	0.633785	0.873939	0.826718
	C184	C	0.896095	0.172558	0.384079
	C185	C	0.137321	0.167365	0.615000
	C186	C	0.137541	0.818049	0.383213
	C187	C	0.903372	0.817084	0.613959
	C188	C	0.196902	0.379081	0.882931
	C189	C	0.195159	0.610347	0.118805
	C190	C	0.847916	0.377937	0.117088
	C191	C	0.838519	0.608189	0.874418
	C192	C	0.419032	0.090073	0.597431
	C193	C	0.622560	0.898601	0.603099
	C194	C	0.615003	0.089935	0.401623
	C195	C	0.419251	0.897903	0.400215
	C196	C	0.622866	0.393399	0.093878
	C197	C	0.615842	0.593432	0.904244
	C198	C	0.418876	0.594777	0.095673
	C199	C	0.419063	0.397137	0.904106
	C200	C	0.115546	0.593566	0.399197
	C201	C	0.924584	0.593423	0.594475
	C202	C	0.114997	0.390968	0.601366
	C203	C	0.923762	0.396545	0.396675
	C204	C	0.920766	0.589680	0.094824
	C205	C	0.123469	0.397926	0.101491
	C206	C	0.116201	0.590276	0.898881
	C207	C	0.921191	0.398089	0.899220
	C208	C	0.122186	0.891607	0.595102
	C209	C	0.116064	0.092495	0.403830
	C210	C	0.918538	0.094860	0.595365
	C211	C	0.917981	0.897247	0.403278
	C212	C	0.614683	0.092219	0.902105
	C213	C	0.424389	0.095362	0.098035
	C214	C	0.614205	0.891904	0.103989
	C215	C	0.423097	0.897553	0.899666
	Zn216	Zn	0.519622	-0.005331	0.751014
	Zn217	Zn	0.518730	-0.007026	0.251396
	Zn218	Zn	0.770260	0.493395	-0.002053
	Zn219	Zn	0.269056	0.495123	0.000368
	Zn220	Zn	0.019599	0.744353	0.497591
	Zn221	Zn	0.017904	0.243862	0.498996
	Zn222	Zn	0.019794	0.492835	0.748628
	Zn223	Zn	0.021005	0.494503	0.248529
	Zn224	Zn	0.518570	0.745028	0.000354
	Zn225	Zn	0.520162	0.244398	-0.000971
	Zn226	Zn	0.768697	-0.004949	0.500477
	Zn227	Zn	0.269743	-0.006149	0.499260
	N228	N	0.435114	0.957514	0.678143
	N229	N	0.605805	0.031544	0.680078
	N230	N	0.602883	0.956294	0.325681
	N231	N	0.431474	0.031085	0.320792
	N232	N	0.699799	0.406130	0.961348
	N233	N	0.698745	0.579409	0.035519
	N234	N	0.338231	0.582878	0.963093
	N235	N	0.343097	0.409789	0.037223
	N236	N	0.982980	0.673912	0.410464
	N237	N	0.057316	0.669974	0.582905
	N238	N	0.981770	0.315951	0.583643
	N239	N	0.055285	0.314725	0.412793
	N240	N	0.983300	0.405188	0.678842
	N241	N	0.056735	0.577325	0.676049
	N242	N	0.983988	0.582121	0.317426
	N243	N	0.057602	0.409392	0.323045
	N244	N	0.431887	0.674199	0.962602
	N245	N	0.603033	0.669812	0.037752
	N246	N	0.606204	0.314750	0.961739
	N247	N	0.436465	0.318196	0.037122
	N248	N	0.696215	0.957373	0.416236
	N249	N	0.699430	0.031119	0.588881
	N250	N	0.343542	0.956713	0.584517
	N251	N	0.338138	0.030527	0.411528
	N252	N	0.936976	0.457138	0.175639
	N253	N	0.107491	0.530708	0.178687
	N254	N	0.104564	0.456343	0.823282
	N255	N	0.932045	0.530435	0.817981
	N256	N	0.199475	0.906113	0.462606
	N257	N	0.196800	0.078189	0.536472
	N258	N	0.836837	0.083098	0.463375
	N259	N	0.843417	0.909687	0.536863
	N260	N	0.482400	0.172989	0.914146
	N261	N	0.557212	0.171869	0.086425
	N262	N	0.481481	0.815622	0.086697
	N263	N	0.555207	0.816680	0.915636
	N264	N	0.481604	0.907079	0.180264
	N265	N	0.556387	0.078224	0.179422
	N266	N	0.482819	0.082602	0.820122
	N267	N	0.555944	0.908969	0.824130
	N268	N	0.931388	0.173023	0.461921
	N269	N	0.102892	0.169698	0.536737
	N270	N	0.104923	0.815763	0.461452
	N271	N	0.934486	0.816222	0.535202
	N272	N	0.197463	0.458050	0.914739
	N273	N	0.198085	0.531999	0.086159
	N274	N	0.844877	0.456281	0.082532
	N275	N	0.838755	0.530183	0.909674
	O276	O	-0.448128	0.606174	-0.410206
	H277	H	-0.442377	0.595608	-0.412048
	H278	H	-0.444071	0.598361	-0.409666
	O279	O	-0.038449	0.977995	0.995888
	H280	H	-0.037462	0.967201	0.996625
	H281	H	-0.045687	0.981497	0.999092
	O282	O	0.491541	0.507096	0.524960
	H283	H	0.490403	0.517719	0.514585
	H284	H	0.495631	0.514874	0.526961
	O285	O	0.522991	-0.568531	1.567881
	H286	H	0.523161	-0.568151	1.568321
	H287	H	0.510594	-0.566169	1.569591
	O288	O	1.037287	-0.030312	-0.033493
	H289	H	1.022696	-0.037129	-0.036552
	H290	H	1.043006	-0.028740	-0.035927
	O291	O	0.470474	0.591945	0.423135
	H292	H	0.479651	0.595818	0.423703
	H293	H	0.467376	0.596551	0.413013
	O294	O	1.061042	-0.044032	1.010114
	H295	H	1.053873	-0.044488	1.017971
	H296	H	1.073834	-0.038222	1.008218
	O297	O	0.014654	0.019138	0.039796
	H298	H	0.011497	0.029033	0.048869
	H299	H	0.006260	0.023358	0.049039
	O300	O	0.607651	0.434807	0.567384
	H301	H	0.589414	0.429015	0.569850
	H302	H	0.605598	0.447804	0.586875
	O303	O	0.495394	0.497620	0.456736
	H304	H	0.499150	0.493210	0.447747
	H305	H	0.487868	0.499021	0.449864
	O306	O	0.986438	0.087815	-0.024489
	H307	H	0.981419	0.083178	-0.019255
	H308	H	0.982565	0.099109	-0.032513
	O309	O	0.027128	0.052760	1.000046
	H310	H	0.041417	0.052242	0.999623
	H311	H	0.024088	0.062955	0.996352
	O312	O	0.900475	1.018185	0.866886
	H313	H	0.900890	1.021988	0.861913
	H314	H	0.899323	1.003781	0.865171
	O315	O	0.529491	0.526685	0.500260
	H316	H	0.537426	0.530848	0.506903
	H317	H	0.540390	0.514399	0.496452
	O318	O	-0.045763	1.049635	0.004943
	H319	H	-0.042426	1.041386	0.015447
	H320	H	-0.055587	1.051446	-0.005311
	O321	O	-0.027793	1.014114	1.016078
	H322	H	-0.029549	1.010327	0.999702
	H323	H	-0.032063	1.016620	1.012914
	O324	O	0.486523	0.576238	0.539403
	H325	H	0.471028	0.572605	0.527049
	H326	H	0.480309	0.587597	0.540333
	O327	O	0.040300	0.974509	-0.018766
	H328	H	0.048656	0.964756	-0.025982
	H329	H	0.044913	0.973325	-0.026771
	O330	O	0.565571	0.438919	0.476898
	H331	H	0.555010	0.439698	0.471600
	H332	H	0.570936	0.428170	0.479419
	O333	O	0.536811	0.437365	0.502822
	H334	H	0.542060	0.437571	0.495879
	H335	H	0.543094	0.439884	0.506433
	O336	O	0.519234	0.434567	0.442329
	H337	H	0.517586	0.435195	0.443633
	H338	H	0.516471	0.439077	0.433162
	O339	O	0.982948	0.999305	0.001400
	H340	H	0.990068	0.996139	-0.002450
	H341	H	0.994451	1.010562	0.010319
	O342	O	0.552757	0.430983	0.452099
	H343	H	0.565316	0.427428	0.451296
	H344	H	0.553758	0.433393	0.465813
	O345	O	0.500516	0.535565	0.535197
	H346	H	0.491806	0.533633	0.540165
	H347	H	0.503723	0.530155	0.536175
	O348	O	0.001028	-0.065512	0.018997
	H349	H	0.000178	-0.057455	0.013182
	H350	H	-0.000241	-0.075234	0.026331
	O351	O	-0.016713	1.056519	1.031103
	H352	H	-0.030479	1.053163	1.021247
	H353	H	-0.021842	1.064343	1.025528
	O354	O	0.527718	0.600912	0.476299
	H355	H	0.530810	0.597836	0.484696
	H356	H	0.533935	0.613149	0.467379
	O357	O	0.131657	1.058338	1.066356
	H358	H	0.133988	1.066446	1.058890
	H359	H	0.135290	1.057985	1.077071
