data_Molecule from HDF5

_cell_length_a		16.055958
_cell_length_b		16.407150
_cell_length_c		16.164705
_cell_angle_alpha	90.136792
_cell_angle_beta	89.749872
_cell_angle_gamma	90.347722
_symmetry_space_group_name_H-M	'P 1'
_symmetry_Int_Tables_number		1

loop_
	_symmetry_equiv_pos_as_xyz
	x,y,z

loop_
	_atom_site_label
	_atom_site_type_symbol
	_atom_site_fract_x
	_atom_site_fract_y
	_atom_site_fract_z
	H0	H	0.405381	0.839680	0.707013
	H1	H	0.607126	0.165432	0.709138
	H2	H	0.605595	0.840765	0.275021
	H3	H	0.408264	0.164750	0.277734
	H4	H	0.717555	0.407077	0.824938
	H5	H	0.718125	0.598635	0.156495
	H6	H	0.297741	0.596786	0.824673
	H7	H	0.291180	0.404624	0.156186
	H8	H	0.841503	0.715569	0.391764
	H9	H	0.168795	0.722535	0.592637
	H10	H	0.842179	0.286564	0.594259
	H11	H	0.170139	0.288328	0.387943
	H12	H	0.840405	0.407240	0.703973
	H13	H	0.173636	0.602164	0.700919
	H14	H	0.841409	0.599831	0.280648
	H15	H	0.172882	0.407363	0.278395
	H16	H	0.405925	0.718978	0.828631
	H17	H	0.610137	0.719396	0.154360
	H18	H	0.608530	0.286382	0.828039
	H19	H	0.403583	0.287146	0.155963
	H20	H	0.718868	0.839473	0.394604
	H21	H	0.722955	0.165342	0.591561
	H22	H	0.288309	0.840265	0.590311
	H23	H	0.294245	0.166382	0.395670
	H24	H	0.904490	0.341361	0.207613
	H25	H	0.106528	0.666439	0.205337
	H26	H	0.106905	0.341501	0.773073
	H27	H	0.910290	0.667000	0.778207
	H28	H	0.215967	0.909662	0.325505
	H29	H	0.216112	0.100675	0.657536
	H30	H	0.794936	0.098101	0.326763
	H31	H	0.793410	0.905896	0.657176
	H32	H	0.341197	0.216247	0.892742
	H33	H	0.670918	0.219727	0.093482
	H34	H	0.343107	0.784312	0.095376
	H35	H	0.672178	0.789196	0.890304
	H36	H	0.339557	0.905111	0.204000
	H37	H	0.672039	0.100981	0.204260
	H38	H	0.339773	0.098811	0.781539
	H39	H	0.671870	0.905686	0.777687
	H40	H	0.903472	0.219880	0.328325
	H41	H	0.109046	0.222851	0.653763
	H42	H	0.107570	0.787701	0.327938
	H43	H	0.901960	0.786110	0.654448
	H44	H	0.219422	0.339694	0.892502
	H45	H	0.222408	0.665587	0.087506
	H46	H	0.791402	0.340050	0.088207
	H47	H	0.794263	0.666910	0.894766
	H48	H	0.412593	0.121304	0.596587
	H49	H	0.594957	0.888331	0.585698
	H50	H	0.601966	0.122591	0.386976
	H51	H	0.420121	0.888400	0.397617
	H52	H	0.587954	0.404372	0.107502
	H53	H	0.596805	0.592923	0.875552
	H54	H	0.405155	0.589528	0.110158
	H55	H	0.421779	0.404390	0.875287
	H56	H	0.128128	0.599239	0.395102
	H57	H	0.887381	0.596419	0.583605
	H58	H	0.125656	0.425150	0.597552
	H59	H	0.890268	0.414715	0.404729
	H60	H	0.130979	0.392573	0.583305
	H61	H	0.887924	0.594961	0.584861
	H62	H	0.125636	0.601927	0.402970
	H63	H	0.886805	0.412184	0.393953
	H64	H	0.425535	0.589368	0.104229
	H65	H	0.596916	0.603460	0.871711
	H66	H	0.606137	0.402019	0.113691
	H67	H	0.410304	0.404100	0.871283
	H68	H	0.589605	0.114502	0.402282
	H69	H	0.598915	0.888011	0.583038
	H70	H	0.419558	0.116256	0.583377
	H71	H	0.405759	0.887112	0.407597
	H72	H	0.914734	0.620018	0.091318
	H73	H	0.102140	0.388871	0.076602
	H74	H	0.107765	0.619802	0.901813
	H75	H	0.911863	0.387789	0.897837
	H76	H	0.101443	0.903699	0.613711
	H77	H	0.089196	0.088108	0.378184
	H78	H	0.923159	0.104363	0.609031
	H79	H	0.922717	0.914695	0.378060
	H80	H	0.623682	0.085944	0.895997
	H81	H	0.386077	0.094903	0.090949
	H82	H	0.624262	0.916457	0.084668
	H83	H	0.386218	0.904043	0.899886
	H84	H	0.627793	0.906313	0.087535
	H85	H	0.386941	0.101588	0.082465
	H86	H	0.628018	0.105137	0.895664
	H87	H	0.388997	0.907641	0.906830
	H88	H	0.905422	0.098471	0.613304
	H89	H	0.094217	0.112114	0.370705
	H90	H	0.097670	0.920726	0.607025
	H91	H	0.916514	0.895937	0.370189
	H92	H	0.106015	0.622601	0.889718
	H93	H	0.101331	0.384448	0.091368
	H94	H	0.917854	0.617045	0.083011
	H95	H	0.912735	0.386944	0.895497
	H96	H	0.404914	0.119275	0.583393
	H97	H	0.598956	0.886221	0.587528
	H98	H	0.609529	0.119551	0.405842
	H99	H	0.404775	0.882085	0.389409
	H100	H	0.601371	0.419204	0.107616
	H101	H	0.606014	0.596406	0.870313
	H102	H	0.416554	0.606851	0.111998
	H103	H	0.414811	0.413535	0.875562
	H104	H	0.125239	0.593547	0.400324
	H105	H	0.886104	0.596768	0.585834
	H106	H	0.116879	0.418407	0.562356
	H107	H	0.885949	0.404052	0.402585
	H108	H	0.909018	0.619952	0.084555
	H109	H	0.088912	0.389793	0.084764
	H110	H	0.096902	0.617853	0.897107
	H111	H	0.915208	0.388049	0.896559
	H112	H	0.084547	0.907944	0.606884
	H113	H	0.113591	0.094130	0.370626
	H114	H	0.919334	0.087529	0.604543
	H115	H	0.901994	0.912149	0.371468
	H116	H	0.621352	0.096861	0.912081
	H117	H	0.389232	0.091763	0.081219
	H118	H	0.623484	0.908526	0.077934
	H119	H	0.388029	0.912033	0.900405
	C120	C	0.382605	0.011278	0.615808
	C121	C	0.627650	0.994749	0.614434
	C122	C	0.628434	0.011356	0.369513
	C123	C	0.383387	0.993799	0.370355
	C124	C	0.627797	0.380736	0.000379
	C125	C	0.628672	0.625145	0.981915
	C126	C	0.386856	0.623424	0.000075
	C127	C	0.384829	0.379479	0.982741
	C128	C	0.016281	0.624881	0.371180
	C129	C	0.996834	0.625353	0.612806
	C130	C	0.015530	0.382498	0.612056
	C131	C	0.997352	0.382487	0.370296
	C132	C	0.883891	0.511671	0.114524
	C133	C	0.127889	0.495001	0.112732
	C134	C	0.130420	0.512153	0.867813
	C135	C	0.885417	0.495255	0.869177
	C136	C	0.124787	0.882720	0.500331
	C137	C	0.127841	0.126577	0.482352
	C138	C	0.886023	0.124536	0.500358
	C139	C	0.884018	0.880069	0.482357
	C140	C	0.514674	0.123332	0.872702
	C141	C	0.496910	0.124637	0.113734
	C142	C	0.515667	0.881251	0.112951
	C143	C	0.497734	0.880752	0.871908
	C144	C	0.384735	0.888466	0.669771
	C145	C	0.626818	0.116801	0.670710
	C146	C	0.625465	0.888924	0.313944
	C147	C	0.387567	0.116556	0.315996
	C148	C	0.681562	0.385156	0.875167
	C149	C	0.682469	0.620781	0.106527
	C150	C	0.333582	0.618791	0.874955
	C151	C	0.328913	0.383479	0.106954
	C152	C	0.890937	0.678144	0.372865
	C153	C	0.120499	0.683063	0.611805
	C154	C	0.891381	0.325672	0.612759
	C155	C	0.121435	0.327134	0.369598
	C156	C	0.890739	0.385063	0.667812
	C157	C	0.122836	0.623125	0.665546
	C158	C	0.890846	0.620811	0.317166
	C159	C	0.122528	0.386037	0.314752
	C160	C	0.387544	0.679490	0.876882
	C161	C	0.628602	0.680783	0.105538
	C162	C	0.627105	0.324931	0.876743
	C163	C	0.384672	0.324846	0.106638
	C164	C	0.681994	0.888380	0.373169
	C165	C	0.684674	0.116798	0.612190
	C166	C	0.326468	0.888755	0.611785
	C167	C	0.330716	0.117208	0.374531
	C168	C	0.884982	0.389786	0.169611
	C169	C	0.126616	0.617527	0.167580
	C170	C	0.127067	0.389703	0.811867
	C171	C	0.889177	0.618120	0.815375
	C172	C	0.179871	0.887181	0.375602
	C173	C	0.180735	0.122632	0.607384
	C174	C	0.831839	0.119986	0.376252
	C175	C	0.829630	0.884530	0.607186
	C176	C	0.390213	0.178138	0.873851
	C177	C	0.621791	0.180640	0.112512
	C178	C	0.391889	0.823878	0.113294
	C179	C	0.622575	0.826864	0.871621
	C180	C	0.389990	0.883963	0.167383
	C181	C	0.622314	0.121817	0.167831
	C182	C	0.389531	0.119953	0.818495
	C183	C	0.622481	0.884748	0.815616
	C184	C	0.886088	0.180191	0.376873
	C185	C	0.127537	0.183301	0.605414
	C186	C	0.125571	0.826909	0.376664
	C187	C	0.883643	0.824863	0.605819
	C188	C	0.183182	0.388722	0.871126
	C189	C	0.184296	0.617102	0.109032
	C190	C	0.828721	0.389108	0.110011
	C191	C	0.831627	0.618188	0.873463
	C192	C	0.405521	0.096756	0.594245
	C193	C	0.604277	0.909340	0.591981
	C194	C	0.606736	0.096605	0.391520
	C195	C	0.404070	0.908182	0.391666
	C196	C	0.605239	0.402168	0.087369
	C197	C	0.606473	0.603892	0.894896
	C198	C	0.409121	0.601501	0.086528
	C199	C	0.408476	0.400913	0.896443
	C200	C	0.103599	0.604230	0.392888
	C201	C	0.909625	0.602583	0.591165
	C202	C	0.102339	0.405373	0.588024
	C203	C	0.910251	0.403992	0.393572
	C204	C	0.906857	0.597177	0.092691
	C205	C	0.104384	0.409702	0.090814
	C206	C	0.109690	0.597852	0.889741
	C207	C	0.906884	0.409662	0.890366
	C208	C	0.101326	0.904467	0.586848
	C209	C	0.105660	0.104538	0.395715
	C210	C	0.909196	0.103230	0.586747
	C211	C	0.906881	0.901395	0.395701
	C212	C	0.601858	0.102122	0.894708
	C213	C	0.410028	0.102467	0.091507
	C214	C	0.602643	0.903891	0.090324
	C215	C	0.410386	0.901839	0.895284
	Zn216	Zn	0.505405	0.002720	0.745071
	Zn217	Zn	0.505789	0.002571	0.240643
	Zn218	Zn	0.755387	0.503249	-0.009118
	Zn219	Zn	0.258006	0.502016	-0.009174
	Zn220	Zn	0.004903	0.752403	0.491305
	Zn221	Zn	0.006284	0.254293	0.490745
	Zn222	Zn	0.007674	0.504139	0.739528
	Zn223	Zn	0.006612	0.503923	0.244236
	Zn224	Zn	0.507710	0.752645	-0.008196
	Zn225	Zn	0.506520	0.252260	-0.007666
	Zn226	Zn	0.757589	0.002649	0.491763
	Zn227	Zn	0.253533	0.003641	0.492091
	N228	N	0.418721	0.965577	0.672357
	N229	N	0.591933	0.039974	0.671985
	N230	N	0.592942	0.966351	0.311493
	N231	N	0.419624	0.038973	0.313161
	N232	N	0.681942	0.419134	0.953085
	N233	N	0.682431	0.586859	0.028712
	N234	N	0.332840	0.584562	0.952617
	N235	N	0.328707	0.416607	0.028971
	N236	N	0.969909	0.680780	0.405682
	N237	N	0.041290	0.684481	0.579556
	N238	N	0.970215	0.323789	0.578744
	N239	N	0.042586	0.324606	0.403212
	N240	N	0.968938	0.419638	0.667371
	N241	N	0.044948	0.587834	0.666123
	N242	N	0.969612	0.588279	0.315957
	N243	N	0.044213	0.419754	0.315307
	N244	N	0.419914	0.682466	0.955553
	N245	N	0.596055	0.683626	0.026910
	N246	N	0.594303	0.322175	0.955577
	N247	N	0.418938	0.322258	0.028475
	N248	N	0.683976	0.965329	0.407067
	N249	N	0.685302	0.039960	0.577900
	N250	N	0.324823	0.966150	0.578920
	N251	N	0.328020	0.040042	0.407725
	N252	N	0.918695	0.467027	0.172414
	N253	N	0.092015	0.540638	0.169854
	N254	N	0.095272	0.467410	0.809567
	N255	N	0.921793	0.540720	0.812511
	N256	N	0.179553	0.921201	0.453466
	N257	N	0.181082	0.088084	0.529817
	N258	N	0.831840	0.086106	0.453888
	N259	N	0.829859	0.918465	0.529393
	N260	N	0.469185	0.180678	0.906784
	N261	N	0.542914	0.182721	0.079656
	N262	N	0.470981	0.822038	0.080137
	N263	N	0.544022	0.824594	0.906084
	N264	N	0.467915	0.919277	0.167185
	N265	N	0.543781	0.087756	0.168732
	N266	N	0.467893	0.086945	0.817475
	N267	N	0.543663	0.917435	0.815521
	N268	N	0.919300	0.183184	0.455362
	N269	N	0.095611	0.186241	0.526592
	N270	N	0.092144	0.823996	0.455261
	N271	N	0.916737	0.821971	0.527213
	N272	N	0.185387	0.465718	0.905159
	N273	N	0.185092	0.539799	0.075654
	N274	N	0.827967	0.466090	0.076358
	N275	N	0.829101	0.540889	0.906246
	O276	O	1.023235	1.051506	0.000737
	H277	H	1.022590	1.051897	0.005279
	H278	H	1.026959	1.054795	-0.005138
	O279	O	-0.031541	0.009659	1.021841
	H280	H	-0.039276	0.007506	1.014218
	H281	H	-0.032499	0.018147	1.028358
	O282	O	0.064398	-0.056795	-0.068379
	H283	H	0.058526	-0.059567	-0.070518
	H284	H	0.068923	-0.067413	-0.078519
	O285	O	0.455397	0.432652	0.477562
	H286	H	0.447108	0.439734	0.486324
	H287	H	0.463723	0.430147	0.481013
	O288	O	0.022935	-0.037477	0.005506
	H289	H	0.019658	-0.028830	0.013308
	H290	H	0.026283	-0.038847	0.001640
	O291	O	0.009379	0.982552	-0.032178
	H292	H	0.000742	0.982600	-0.020818
	H293	H	0.011003	0.975747	-0.045893
	O294	O	0.095555	0.949747	-0.082324
	H295	H	0.086007	0.939893	-0.089997
	H296	H	0.095674	0.944857	-0.084687
	O297	O	0.486303	0.507645	0.477829
	H298	H	0.485975	0.503999	0.476208
	H299	H	0.492460	0.508367	0.465989
	O300	O	0.501459	0.458264	0.522333
	H301	H	0.504832	0.467138	0.534252
	H302	H	0.494609	0.458796	0.530239
	O303	O	1.068902	0.066055	1.032765
	H304	H	1.073210	0.074256	1.045998
	H305	H	1.078225	0.069693	1.037398
	O306	O	0.044858	0.985381	1.048299
	H307	H	0.049894	0.983122	1.052374
	H308	H	0.043858	0.983537	1.041991
	O309	O	0.009482	0.953069	0.970832
	H310	H	0.006127	0.943246	0.969857
	H311	H	0.010565	0.957352	0.982363
	O312	O	-0.009552	0.051911	1.004761
	H313	H	-0.006986	0.059155	0.996956
	H314	H	-0.009101	0.051504	0.999893
	O315	O	0.531644	0.461906	0.473165
	H316	H	0.539252	0.455866	0.472199
	H317	H	0.537223	0.452061	0.466758
	O318	O	-0.040281	0.011849	0.912525
	H319	H	-0.043069	0.008328	0.909250
	H320	H	-0.042774	0.013089	0.913816
	O321	O	-0.531985	0.489446	0.561160
	H322	H	-0.532548	0.489320	0.551101
	H323	H	-0.533493	0.483505	0.563487
	O324	O	0.966227	0.049424	0.984310
	H325	H	0.967350	0.051894	0.986390
	H326	H	0.963836	0.047180	0.976139
	O327	O	0.998552	0.972477	1.047282
	H328	H	1.004062	0.971250	1.046113
	H329	H	1.002606	0.973708	1.051133
	O330	O	0.976462	0.058072	0.986571
	H331	H	0.982271	0.054767	0.986675
	H332	H	0.973524	0.060913	0.995392
	O333	O	0.522447	0.441771	0.467253
	H334	H	0.527796	0.439520	0.474117
	H335	H	0.522596	0.443134	0.473010
	O336	O	0.509140	0.462856	0.459192
	H337	H	0.504209	0.463806	0.460575
	H338	H	0.502023	0.444239	0.456598
	O339	O	0.466735	0.435544	0.513199
	H340	H	0.459827	0.441754	0.510831
	H341	H	0.473982	0.432588	0.518729
	O342	O	0.438745	0.468979	0.597481
	H343	H	0.444907	0.466351	0.607107
	H344	H	0.435769	0.477134	0.594680
	O345	O	0.489055	0.493533	0.465211
	H346	H	0.484773	0.498145	0.453993
	H347	H	0.479855	0.490327	0.460978
