data_Molecule from HDF5

_cell_length_a		16.547914
_cell_length_b		16.436560
_cell_length_c		16.591830
_cell_angle_alpha	89.929177
_cell_angle_beta	90.021117
_cell_angle_gamma	90.079454
_symmetry_space_group_name_H-M	'P 1'
_symmetry_Int_Tables_number		1

loop_
	_symmetry_equiv_pos_as_xyz
	x,y,z

loop_
	_atom_site_label
	_atom_site_type_symbol
	_atom_site_fract_x
	_atom_site_fract_y
	_atom_site_fract_z
	H0	H	0.395770	0.851714	0.723502
	H1	H	0.603570	0.168003	0.722781
	H2	H	0.603704	0.851591	0.283351
	H3	H	0.392440	0.166489	0.280018
	H4	H	0.723443	0.404407	0.847749
	H5	H	0.722631	0.615437	0.159599
	H6	H	0.278746	0.616979	0.847318
	H7	H	0.275081	0.399446	0.156645
	H8	H	0.843502	0.728069	0.401310
	H9	H	0.158695	0.731517	0.607042
	H10	H	0.843787	0.289116	0.607027
	H11	H	0.157975	0.288534	0.399055
	H12	H	0.844670	0.405131	0.724915
	H13	H	0.158200	0.616673	0.725216
	H14	H	0.845141	0.614751	0.282364
	H15	H	0.157124	0.402063	0.280180
	H16	H	0.396274	0.731543	0.847357
	H17	H	0.601082	0.726378	0.162866
	H18	H	0.607877	0.286814	0.848708
	H19	H	0.393556	0.285188	0.158947
	H20	H	0.718875	0.851390	0.400780
	H21	H	0.720905	0.167927	0.607986
	H22	H	0.280033	0.852326	0.607334
	H23	H	0.280225	0.168097	0.399704
	H24	H	0.895522	0.352442	0.225180
	H25	H	0.109362	0.667693	0.226339
	H26	H	0.105297	0.351175	0.783440
	H27	H	0.900041	0.668803	0.784990
	H28	H	0.221574	0.906974	0.346046
	H29	H	0.222552	0.117177	0.658783
	H30	H	0.778174	0.115754	0.345328
	H31	H	0.781195	0.906618	0.659777
	H32	H	0.344619	0.233119	0.898986
	H33	H	0.658172	0.230884	0.110147
	H34	H	0.341890	0.788920	0.108213
	H35	H	0.659160	0.794413	0.905950
	H36	H	0.342785	0.901240	0.227644
	H37	H	0.655891	0.116078	0.227572
	H38	H	0.344662	0.117984	0.781447
	H39	H	0.657419	0.907764	0.785637
	H40	H	0.897251	0.229978	0.343863
	H41	H	0.104352	0.231448	0.659650
	H42	H	0.104335	0.791614	0.344439
	H43	H	0.899843	0.791600	0.660325
	H44	H	0.221002	0.351232	0.900174
	H45	H	0.222754	0.668955	0.108134
	H46	H	0.780039	0.352943	0.109382
	H47	H	0.784712	0.669493	0.902171
	H48	H	0.416998	0.120151	0.589651
	H49	H	0.593266	0.896934	0.589638
	H50	H	0.588704	0.123569	0.412520
	H51	H	0.410097	0.898985	0.419664
	H52	H	0.584528	0.427448	0.111032
	H53	H	0.590739	0.606862	0.889443
	H54	H	0.413603	0.605835	0.117545
	H55	H	0.410926	0.430405	0.894273
	H56	H	0.114313	0.599389	0.414740
	H57	H	0.888676	0.602347	0.592085
	H58	H	0.113224	0.422459	0.591862
	H59	H	0.889946	0.424883	0.411343
	H60	H	0.113308	0.421718	0.593761
	H61	H	0.889891	0.597275	0.592664
	H62	H	0.113808	0.598180	0.413583
	H63	H	0.888148	0.419414	0.413071
	H64	H	0.402956	0.595282	0.116903
	H65	H	0.598693	0.601721	0.888805
	H66	H	0.588830	0.412558	0.118244
	H67	H	0.422386	0.421876	0.895525
	H68	H	0.585039	0.121362	0.415929
	H69	H	0.592897	0.894119	0.599100
	H70	H	0.404055	0.124905	0.589954
	H71	H	0.409157	0.895319	0.413591
	H72	H	0.918111	0.622214	0.094493
	H73	H	0.087953	0.400105	0.089400
	H74	H	0.086016	0.621993	0.912325
	H75	H	0.913224	0.394225	0.907339
	H76	H	0.085212	0.922132	0.612889
	H77	H	0.083503	0.102118	0.391511
	H78	H	0.917901	0.097206	0.610358
	H79	H	0.908228	0.918318	0.388818
	H80	H	0.612016	0.098739	0.916460
	H81	H	0.389375	0.096646	0.093511
	H82	H	0.611802	0.922134	0.096286
	H83	H	0.386341	0.925243	0.905611
	H84	H	0.612467	0.919232	0.096516
	H85	H	0.388818	0.098593	0.090200
	H86	H	0.612402	0.096086	0.913151
	H87	H	0.382882	0.911066	0.912009
	H88	H	0.908777	0.106386	0.616561
	H89	H	0.094901	0.101178	0.389295
	H90	H	0.091862	0.917283	0.616444
	H91	H	0.909218	0.921743	0.390117
	H92	H	0.090305	0.621731	0.918541
	H93	H	0.091185	0.397321	0.091602
	H94	H	0.912079	0.622655	0.088305
	H95	H	0.915310	0.398869	0.917750
	H96	H	0.412466	0.125555	0.600969
	H97	H	0.584322	0.897699	0.595118
	H98	H	0.590147	0.121811	0.417724
	H99	H	0.415704	0.898322	0.415517
	H100	H	0.599739	0.425691	0.117244
	H101	H	0.590852	0.597149	0.893362
	H102	H	0.416543	0.592398	0.111728
	H103	H	0.410302	0.416875	0.889863
	H104	H	0.115215	0.600068	0.413355
	H105	H	0.888399	0.600030	0.596583
	H106	H	0.113144	0.420845	0.592289
	H107	H	0.890731	0.423294	0.417165
	H108	H	0.909751	0.624918	0.096697
	H109	H	0.086550	0.398995	0.093740
	H110	H	0.093361	0.624066	0.912220
	H111	H	0.905050	0.394503	0.915112
	H112	H	0.093225	0.925838	0.613893
	H113	H	0.089395	0.092341	0.393604
	H114	H	0.904367	0.093499	0.613691
	H115	H	0.911685	0.919073	0.390640
	H116	H	0.613593	0.100018	0.913078
	H117	H	0.390040	0.095338	0.090138
	H118	H	0.611483	0.920438	0.093944
	H119	H	0.390209	0.921833	0.920877
	C120	C	0.378892	0.019421	0.625400
	C121	C	0.621766	1.001001	0.625616
	C122	C	0.619707	0.017998	0.383266
	C123	C	0.379210	1.001491	0.383104
	C124	C	0.623605	0.388730	0.012736
	C125	C	0.622736	0.631922	0.995288
	C126	C	0.379284	0.630747	0.012263
	C127	C	0.380673	0.388854	0.995652
	C128	C	0.010696	0.631069	0.382087
	C129	C	0.992790	0.632054	0.625128
	C130	C	0.009676	0.388936	0.624650
	C131	C	0.992825	0.389370	0.381837
	C132	C	0.880763	0.518729	0.124608
	C133	C	0.122477	0.502303	0.124434
	C134	C	0.122181	0.518137	0.882544
	C135	C	0.880601	0.501425	0.882481
	C136	C	0.122164	0.889511	0.510831
	C137	C	0.121702	0.131722	0.494610
	C138	C	0.878370	0.131501	0.509939
	C139	C	0.879047	0.888460	0.493971
	C140	C	0.509253	0.131591	0.882241
	C141	C	0.492116	0.130343	0.125126
	C142	C	0.507753	0.887956	0.126771
	C143	C	0.491361	0.888884	0.883075
	C144	C	0.377470	0.899677	0.683930
	C145	C	0.623138	0.120280	0.684073
	C146	C	0.621907	0.898952	0.323588
	C147	C	0.375426	0.119708	0.321359
	C148	C	0.683764	0.385982	0.894928
	C149	C	0.681671	0.633040	0.113260
	C150	C	0.319153	0.634225	0.894245
	C151	C	0.317244	0.383321	0.111163
	C152	C	0.891370	0.689520	0.381474
	C153	C	0.111388	0.691740	0.626089
	C154	C	0.891188	0.329027	0.626044
	C155	C	0.110834	0.328671	0.380079
	C156	C	0.891570	0.386502	0.684702
	C157	C	0.110963	0.634820	0.685181
	C158	C	0.892210	0.633111	0.322399
	C159	C	0.110258	0.385228	0.320926
	C160	C	0.377584	0.691496	0.894467
	C161	C	0.621415	0.688438	0.114739
	C162	C	0.626333	0.327406	0.895448
	C163	C	0.376122	0.326251	0.112120
	C164	C	0.679170	0.898805	0.381840
	C165	C	0.681319	0.120047	0.626869
	C166	C	0.319643	0.899861	0.626441
	C167	C	0.319536	0.120491	0.380733
	C168	C	0.877823	0.399925	0.184808
	C169	C	0.126542	0.620713	0.185275
	C170	C	0.124248	0.399040	0.822721
	C171	C	0.880536	0.621061	0.824210
	C172	C	0.182062	0.887936	0.393021
	C173	C	0.182147	0.134818	0.612112
	C174	C	0.818474	0.133769	0.392215
	C175	C	0.820834	0.887696	0.612624
	C176	C	0.391693	0.192759	0.880387
	C177	C	0.610358	0.191083	0.128413
	C178	C	0.389549	0.827821	0.127807
	C179	C	0.611115	0.832223	0.884785
	C180	C	0.390018	0.884121	0.187164
	C181	C	0.609433	0.133960	0.186858
	C182	C	0.391541	0.135360	0.822095
	C183	C	0.610236	0.888589	0.825199
	C184	C	0.877849	0.190671	0.391489
	C185	C	0.123681	0.192088	0.612361
	C186	C	0.123371	0.830846	0.392186
	C187	C	0.879541	0.830388	0.612888
	C188	C	0.181320	0.398672	0.881043
	C189	C	0.183220	0.621115	0.126513
	C190	C	0.820234	0.400148	0.127177
	C191	C	0.823623	0.621613	0.882778
	C192	C	0.403818	0.102109	0.600523
	C193	C	0.597120	0.917882	0.601494
	C194	C	0.594974	0.100691	0.408239
	C195	C	0.404515	0.919148	0.408624
	C196	C	0.598166	0.414648	0.094467
	C197	C	0.599961	0.608558	0.912191
	C198	C	0.403840	0.605226	0.094120
	C199	C	0.407182	0.415626	0.914153
	C200	C	0.093074	0.606380	0.406856
	C201	C	0.910391	0.606963	0.600770
	C202	C	0.091868	0.414310	0.599908
	C203	C	0.910844	0.415042	0.406907
	C204	C	0.906110	0.601618	0.100059
	C205	C	0.096058	0.420230	0.098974
	C206	C	0.097100	0.600951	0.907337
	C207	C	0.904268	0.417428	0.906571
	C208	C	0.097182	0.914615	0.593132
	C209	C	0.096396	0.105942	0.412771
	C210	C	0.903155	0.106351	0.592131
	C211	C	0.902845	0.912902	0.411377
	C212	C	0.591463	0.105569	0.907171
	C213	C	0.410774	0.104314	0.098943
	C214	C	0.590483	0.913391	0.102424
	C215	C	0.407927	0.912567	0.906272
	Zn216	Zn	0.500136	0.010409	0.753533
	Zn217	Zn	0.499202	0.009474	0.254390
	Zn218	Zn	0.752173	0.510375	0.003763
	Zn219	Zn	0.250699	0.509390	0.003140
	Zn220	Zn	0.001900	0.760315	0.502491
	Zn221	Zn	0.000485	0.260365	0.502872
	Zn222	Zn	0.001705	0.509971	0.753789
	Zn223	Zn	0.001846	0.510636	0.253131
	Zn224	Zn	0.500067	0.760216	0.005032
	Zn225	Zn	0.501724	0.259501	0.004150
	Zn226	Zn	0.749236	0.009903	0.503022
	Zn227	Zn	0.250658	0.010271	0.503527
	N228	N	0.413420	0.975007	0.683728
	N229	N	0.586983	0.045134	0.683461
	N230	N	0.585805	0.974089	0.324267
	N231	N	0.411853	0.044718	0.322892
	N232	N	0.682326	0.423215	0.968986
	N233	N	0.683044	0.598852	0.037918
	N234	N	0.319929	0.597161	0.968409
	N235	N	0.320335	0.421877	0.037781
	N236	N	0.966061	0.688439	0.417853
	N237	N	0.036908	0.690369	0.589655
	N238	N	0.965639	0.330414	0.589521
	N239	N	0.036960	0.331250	0.417411
	N240	N	0.966348	0.423000	0.683970
	N241	N	0.036240	0.598390	0.684775
	N242	N	0.967280	0.597614	0.322596
	N243	N	0.035872	0.422296	0.321949
	N244	N	0.414013	0.689767	0.968845
	N245	N	0.585779	0.688205	0.040159
	N246	N	0.589638	0.328865	0.969702
	N247	N	0.415143	0.329896	0.039212
	N248	N	0.677985	0.973838	0.418101
	N249	N	0.680926	0.044695	0.591413
	N250	N	0.320297	0.975264	0.590654
	N251	N	0.321852	0.046200	0.418495
	N252	N	0.914793	0.474861	0.183457
	N253	N	0.089773	0.545847	0.184406
	N254	N	0.088447	0.474465	0.823340
	N255	N	0.914892	0.545143	0.823987
	N256	N	0.181352	0.923610	0.467835
	N257	N	0.181173	0.098096	0.537737
	N258	N	0.818506	0.097932	0.467008
	N259	N	0.820154	0.922821	0.537592
	N260	N	0.466165	0.190534	0.917028
	N261	N	0.536527	0.188981	0.090587
	N262	N	0.463861	0.830202	0.090824
	N263	N	0.535928	0.832080	0.919782
	N264	N	0.464748	0.920580	0.186778
	N265	N	0.534918	0.097164	0.185342
	N266	N	0.465677	0.097900	0.823322
	N267	N	0.534528	0.922862	0.823848
	N268	N	0.914273	0.189450	0.465919
	N269	N	0.086864	0.190101	0.538311
	N270	N	0.087241	0.831432	0.466814
	N271	N	0.914940	0.830589	0.538067
	N272	N	0.180143	0.473749	0.917215
	N273	N	0.180905	0.546355	0.089283
	N274	N	0.821706	0.475134	0.090724
	N275	N	0.823216	0.545853	0.918044
	O276	O	1.019125	0.797287	0.104546
	H277	H	1.020596	0.798643	0.114035
	H278	H	1.023562	0.790886	0.105815
	O279	O	0.102860	0.132914	0.906611
	H280	H	0.099909	0.131000	0.906367
	H281	H	0.104467	0.144538	0.895059
	O282	O	0.497211	0.531137	0.534421
	H283	H	0.500177	0.534853	0.525860
	H284	H	0.496383	0.534031	0.535223
	O285	O	0.416476	0.410217	0.522616
	H286	H	0.416538	0.423796	0.530220
	H287	H	0.416312	0.396901	0.503891
	O288	O	0.935159	-0.194929	0.951629
	H289	H	0.952782	-0.186444	0.935205
	H290	H	0.929792	-0.188336	0.958756
	O291	O	0.722833	0.688799	0.509835
	H292	H	0.739369	0.703706	0.534923
	H293	H	0.737689	0.683005	0.520519
	O294	O	0.026753	-0.196327	-0.207717
	H295	H	0.039370	-0.197909	-0.205159
	H296	H	0.039799	-0.199499	-0.223886
	O297	O	1.152275	0.182427	0.009299
	H298	H	1.157745	0.174795	-0.007026
	H299	H	1.145547	0.183582	-0.001620
	O300	O	0.217993	-0.018968	-0.214045
	H301	H	0.228790	-0.042365	-0.224505
	H302	H	0.227122	-0.042004	-0.228294
	O303	O	-0.189922	-0.179276	-0.187711
	H304	H	-0.173680	-0.150659	-0.175135
	H305	H	-0.169930	-0.167283	-0.164372
	O306	O	1.014848	0.017970	0.035232
	H307	H	1.010209	0.014784	0.028959
	H308	H	1.005637	0.023675	0.042125
	O309	O	0.667037	0.488970	0.291405
	H310	H	0.668518	0.469908	0.288497
	H311	H	0.677346	0.487319	0.295965
	O312	O	0.291131	0.299774	0.712503
	H313	H	0.316495	0.299786	0.705316
	H314	H	0.295802	0.319658	0.691012
	O315	O	0.542504	0.730325	0.724456
	H316	H	0.536165	0.740328	0.742984
	H317	H	0.540032	0.728405	0.731501
	O318	O	1.150686	0.937447	0.010580
	H319	H	1.129276	0.929158	-0.003296
	H320	H	1.143103	0.951034	-0.004343
	O321	O	0.158475	1.060015	1.119184
	H322	H	0.163908	1.054717	1.129201
	H323	H	0.167590	1.074388	1.114854
	O324	O	0.828426	0.014838	0.787091
	H325	H	0.826666	0.010695	0.779113
	H326	H	0.821672	0.044128	0.783019
	O327	O	0.709328	0.716688	0.711339
	H328	H	0.740591	0.749870	0.744580
	H329	H	0.678955	0.706007	0.714610
	O330	O	0.522776	0.716949	0.398806
	H331	H	0.513355	0.722417	0.392257
	H332	H	0.538825	0.724179	0.426938
	O333	O	0.296494	0.308370	0.535565
	H334	H	0.289734	0.288031	0.530473
	H335	H	0.287321	0.329072	0.516168
	O336	O	0.546686	0.622585	0.512518
	H337	H	0.556999	0.616494	0.516815
	H338	H	0.555688	0.619307	0.507820
	O339	O	0.302471	0.701248	0.421982
	H340	H	0.323422	0.693678	0.414260
	H341	H	0.294028	0.696376	0.430142
	O342	O	-0.201235	0.887621	-0.012647
	H343	H	-0.198929	0.874772	-0.035724
	H344	H	-0.200062	0.892368	-0.024235
	O345	O	0.689399	0.693773	0.313924
	H346	H	0.673601	0.677174	0.337754
	H347	H	0.674043	0.668508	0.327286
	O348	O	0.477643	0.304069	0.711517
	H349	H	0.487823	0.323041	0.731926
	H350	H	0.471158	0.301019	0.709791
	O351	O	-0.224649	0.041078	1.043096
	H352	H	-0.223759	0.038748	1.047327
	H353	H	-0.224678	0.043188	1.040568
	O354	O	1.120483	0.011454	1.114301
	H355	H	1.140991	0.005464	1.125771
	H356	H	1.123420	0.002192	1.116005
	O357	O	0.353720	0.361572	0.301454
	H358	H	0.353249	0.362629	0.292616
	H359	H	0.350745	0.348587	0.288593
	O360	O	0.379166	0.474216	0.448567
	H361	H	0.385839	0.472658	0.435538
	H362	H	0.389283	0.467469	0.444733
	O363	O	1.035788	0.161451	0.056637
	H364	H	1.025238	0.162087	0.052541
	H365	H	1.048173	0.157002	0.063624
	O366	O	0.691606	0.320744	0.692799
	H367	H	0.663359	0.340125	0.697266
	H368	H	0.699683	0.318010	0.698226
	O369	O	-0.209942	-0.111030	0.978571
	H370	H	-0.206562	-0.108225	0.993212
	H371	H	-0.227165	-0.107116	0.980057
	O372	O	0.001786	1.156335	0.802303
	H373	H	0.025182	1.139563	0.793860
	H374	H	0.001810	1.168385	0.800105
	O375	O	0.812342	-0.035049	0.201282
	H376	H	0.793912	-0.043404	0.204306
	H377	H	0.807754	-0.052012	0.206534
	O378	O	0.725538	0.456014	0.570280
	H379	H	0.727805	0.457221	0.573210
	H380	H	0.730767	0.430605	0.564848
	O381	O	-0.096564	0.946318	0.191687
	H382	H	-0.096042	0.936743	0.193188
	H383	H	-0.108139	0.936745	0.190667
	O384	O	0.281723	0.482268	0.725111
	H385	H	0.252575	0.484261	0.755899
	H386	H	0.278096	0.475250	0.697523
	O387	O	0.194122	0.813432	0.801734
	H388	H	0.220016	0.790315	0.804241
	H389	H	0.184125	0.808249	0.829651
	O390	O	0.158124	1.164664	0.874697
	H391	H	0.171906	1.176224	0.849946
	H392	H	0.138056	1.149528	0.873291
	O393	O	1.212947	-0.196859	-0.035302
	H394	H	1.229027	-0.212352	-0.025001
	H395	H	1.206737	-0.180996	-0.006411
	O396	O	0.497602	0.427035	0.346372
	H397	H	0.495110	0.425620	0.350301
	H398	H	0.498556	0.442429	0.349353
	O399	O	0.564998	0.457204	0.733829
	H400	H	0.559270	0.472771	0.728908
	H401	H	0.582714	0.484354	0.738212
	O402	O	0.926124	0.110473	1.089189
	H403	H	0.921715	0.103940	1.087811
	H404	H	0.934460	0.117376	1.095536
	O405	O	0.697204	0.353149	0.307352
	H406	H	0.661042	0.335092	0.297715
	H407	H	0.714339	0.357675	0.314416
	O408	O	1.028167	0.967859	0.966910
	H409	H	1.024313	0.971357	0.975045
	H410	H	1.036706	0.958056	0.960680
	O411	O	0.793464	0.801494	0.218306
	H412	H	0.760509	0.768060	0.248776
	H413	H	0.793557	0.814930	0.192061
	O414	O	0.178915	-0.080858	0.118208
	H415	H	0.170660	-0.080567	0.126038
	H416	H	0.174948	-0.077105	0.110907
	O417	O	0.544717	0.298677	0.289892
	H418	H	0.529764	0.289765	0.296156
	H419	H	0.545603	0.285599	0.269040
	O420	O	0.899578	0.074005	1.068748
	H421	H	0.894438	0.065781	1.076491
	H422	H	0.894505	0.072761	1.078480
	O423	O	0.801353	1.210663	-0.014083
	H424	H	0.801764	1.208302	-0.012243
	H425	H	0.800326	1.217713	-0.013614
	O426	O	0.279992	0.547898	0.568693
	H427	H	0.294363	0.543003	0.552139
	H428	H	0.278494	0.539976	0.567004
	O429	O	0.562975	0.295950	0.553402
	H430	H	0.566377	0.295875	0.545534
	H431	H	0.557791	0.291615	0.574951
	O432	O	0.795501	0.216816	0.798018
	H433	H	0.796738	0.220730	0.794306
	H434	H	0.816466	0.224685	0.814635
	O435	O	0.439336	0.559681	0.727435
	H436	H	0.432827	0.554622	0.721611
	H437	H	0.426657	0.546881	0.721567
	O438	O	0.533453	0.613154	0.333743
	H439	H	0.544473	0.624096	0.343892
	H440	H	0.534759	0.609373	0.336361
	O441	O	0.375900	0.715853	0.542306
	H442	H	0.387046	0.732897	0.531636
	H443	H	0.376744	0.718518	0.528071
	O444	O	0.515826	0.609535	0.386876
	H445	H	0.527030	0.608604	0.378718
	H446	H	0.530612	0.592102	0.400848
	O447	O	0.668970	0.560584	0.473761
	H448	H	0.665434	0.548834	0.493025
	H449	H	0.673055	0.549034	0.474265
	O450	O	0.977683	0.039733	0.203952
	H451	H	0.989639	0.030138	0.202068
	H452	H	0.976940	0.027168	0.211434
	O453	O	0.438534	0.292847	0.450213
	H454	H	0.433851	0.292441	0.453330
	H455	H	0.427414	0.291778	0.450439
	O456	O	0.002880	1.022759	0.777041
	H457	H	0.011181	1.012299	0.779220
	H458	H	-0.001600	1.017445	0.779936
	O459	O	0.348805	0.698108	0.674536
	H460	H	0.348936	0.692578	0.649164
	H461	H	0.360887	0.671313	0.668990
	O462	O	0.721567	0.545507	0.725169
	H463	H	0.741268	0.551863	0.732824
	H464	H	0.734530	0.564810	0.722506
	O465	O	0.284473	0.528349	0.284935
	H466	H	0.275447	0.528077	0.262813
	H467	H	0.281810	0.544435	0.288986
	O468	O	0.369662	0.709250	0.303662
	H469	H	0.402004	0.715135	0.303178
	H470	H	0.372288	0.709977	0.318573
	O471	O	0.196781	0.213035	0.196102
	H472	H	0.187760	0.190749	0.191955
	H473	H	0.187117	0.214031	0.159507
	O474	O	1.029858	1.214706	0.211801
	H475	H	1.033137	1.212861	0.206921
	H476	H	1.025009	1.221064	0.226786
	O477	O	0.720887	0.290839	0.470326
	H478	H	0.725103	0.278776	0.446447
	H479	H	0.721156	0.267945	0.477385
