data_Molecule from HDF5

_cell_length_a		16.021937
_cell_length_b		16.339105
_cell_length_c		16.291606
_cell_angle_alpha	89.935368
_cell_angle_beta	90.074601
_cell_angle_gamma	89.528560
_symmetry_space_group_name_H-M	'P 1'
_symmetry_Int_Tables_number		1

loop_
	_symmetry_equiv_pos_as_xyz
	x,y,z

loop_
	_atom_site_label
	_atom_site_type_symbol
	_atom_site_fract_x
	_atom_site_fract_y
	_atom_site_fract_z
	H0	H	0.397789	0.834196	0.720571
	H1	H	0.601802	0.157090	0.719779
	H2	H	0.604050	0.834318	0.285469
	H3	H	0.397078	0.157849	0.285083
	H4	H	0.713539	0.400405	0.838743
	H5	H	0.713048	0.593103	0.167753
	H6	H	0.285499	0.594967	0.840268
	H7	H	0.290060	0.401008	0.168829
	H8	H	0.836453	0.713929	0.401330
	H9	H	0.167032	0.707155	0.602169
	H10	H	0.834510	0.285708	0.602393
	H11	H	0.164960	0.279763	0.403394
	H12	H	0.834996	0.397909	0.716686
	H13	H	0.165703	0.593881	0.717300
	H14	H	0.835860	0.598210	0.287457
	H15	H	0.166746	0.396609	0.290825
	H16	H	0.394357	0.715224	0.841929
	H17	H	0.602512	0.715647	0.164696
	H18	H	0.604501	0.278549	0.840691
	H19	H	0.399789	0.279249	0.165379
	H20	H	0.717469	0.833246	0.403838
	H21	H	0.711246	0.160164	0.599039
	H22	H	0.288781	0.831340	0.598842
	H23	H	0.283580	0.158928	0.403682
	H24	H	0.898511	0.335033	0.221409
	H25	H	0.105547	0.656569	0.222959
	H26	H	0.102856	0.333388	0.786510
	H27	H	0.893900	0.657356	0.783325
	H28	H	0.212819	0.899414	0.338019
	H29	H	0.212977	0.090294	0.667490
	H30	H	0.786711	0.094400	0.339555
	H31	H	0.788065	0.900156	0.667292
	H32	H	0.335208	0.213419	0.901766
	H33	H	0.666476	0.208238	0.102597
	H34	H	0.334632	0.783661	0.103714
	H35	H	0.662677	0.777697	0.899578
	H36	H	0.335340	0.897558	0.218171
	H37	H	0.665087	0.096495	0.218396
	H38	H	0.335158	0.098226	0.785682
	H39	H	0.665181	0.895724	0.790137
	H40	H	0.895104	0.216333	0.343087
	H41	H	0.101911	0.211126	0.666574
	H42	H	0.106252	0.775983	0.341801
	H43	H	0.898482	0.778848	0.665197
	H44	H	0.216833	0.332947	0.906835
	H45	H	0.212256	0.660568	0.101712
	H46	H	0.786883	0.333870	0.102245
	H47	H	0.782409	0.658679	0.903366
	H48	H	0.404028	0.111931	0.591785
	H49	H	0.588676	0.881741	0.593597
	H50	H	0.590750	0.111342	0.409192
	H51	H	0.409334	0.878410	0.403727
	H52	H	0.600234	0.397268	0.122575
	H53	H	0.592861	0.594590	0.884596
	H54	H	0.408970	0.600647	0.123575
	H55	H	0.418377	0.404570	0.890134
	H56	H	0.115903	0.584196	0.419801
	H57	H	0.879466	0.589092	0.599338
	H58	H	0.120064	0.409773	0.605229
	H59	H	0.879024	0.408649	0.400776
	H60	H	0.123819	0.391575	0.596999
	H61	H	0.882219	0.594181	0.590232
	H62	H	0.119150	0.580232	0.407779
	H63	H	0.879996	0.395931	0.414786
	H64	H	0.399645	0.588957	0.121292
	H65	H	0.591424	0.582175	0.888821
	H66	H	0.592187	0.409514	0.116949
	H67	H	0.405947	0.397334	0.884191
	H68	H	0.592767	0.112571	0.408957
	H69	H	0.600195	0.878491	0.593360
	H70	H	0.408212	0.112824	0.599799
	H71	H	0.411582	0.881228	0.410257
	H72	H	0.909349	0.611708	0.093632
	H73	H	0.092145	0.382649	0.091141
	H74	H	0.102875	0.614902	0.911261
	H75	H	0.899843	0.377810	0.910995
	H76	H	0.097534	0.908895	0.619135
	H77	H	0.079968	0.084106	0.392009
	H78	H	0.905659	0.098554	0.623376
	H79	H	0.917880	0.901699	0.388207
	H80	H	0.616845	0.086219	0.914360
	H81	H	0.382334	0.087021	0.094513
	H82	H	0.618571	0.902435	0.092196
	H83	H	0.376503	0.894926	0.908230
	H84	H	0.616796	0.906958	0.090758
	H85	H	0.381204	0.092214	0.094193
	H86	H	0.618873	0.083829	0.906293
	H87	H	0.386183	0.910451	0.923021
	H88	H	0.902405	0.086017	0.620737
	H89	H	0.088452	0.100415	0.384096
	H90	H	0.084434	0.899949	0.616797
	H91	H	0.905946	0.899564	0.384613
	H92	H	0.086236	0.613979	0.897369
	H93	H	0.100549	0.378137	0.097515
	H94	H	0.906069	0.612747	0.095004
	H95	H	0.913989	0.378222	0.900370
	H96	H	0.412486	0.108750	0.592132
	H97	H	0.593682	0.876900	0.603389
	H98	H	0.591057	0.113258	0.407451
	H99	H	0.404967	0.878645	0.409240
	H100	H	0.584870	0.395602	0.118866
	H101	H	0.582250	0.590136	0.889633
	H102	H	0.414988	0.587476	0.117658
	H103	H	0.404704	0.411585	0.887461
	H104	H	0.121010	0.591797	0.411130
	H105	H	0.884574	0.584370	0.591155
	H106	H	0.115460	0.406359	0.584715
	H107	H	0.886306	0.414173	0.417922
	H108	H	0.909281	0.612942	0.097165
	H109	H	0.090027	0.379236	0.102255
	H110	H	0.083990	0.606964	0.917645
	H111	H	0.915453	0.383635	0.916714
	H112	H	0.097303	0.893494	0.622742
	H113	H	0.099488	0.084013	0.386102
	H114	H	0.913854	0.090832	0.618783
	H115	H	0.909424	0.911209	0.389190
	H116	H	0.620292	0.092360	0.908985
	H117	H	0.383164	0.089253	0.091084
	H118	H	0.618432	0.905297	0.095644
	H119	H	0.380778	0.916549	0.900929
	C120	C	0.378919	0.003836	0.623930
	C121	C	0.622618	0.986907	0.624719
	C122	C	0.622557	0.004967	0.379819
	C123	C	0.378007	0.987081	0.379380
	C124	C	0.622798	0.373017	0.011558
	C125	C	0.620044	0.618413	0.994982
	C126	C	0.377510	0.620441	0.012912
	C127	C	0.379985	0.375427	0.995085
	C128	C	0.009826	0.616969	0.382175
	C129	C	0.991612	0.617181	0.623177
	C130	C	0.009492	0.375184	0.624099
	C131	C	0.991436	0.375566	0.382053
	C132	C	0.879049	0.505209	0.125139
	C133	C	0.122451	0.487887	0.125549
	C134	C	0.122434	0.504736	0.880447
	C135	C	0.878714	0.487596	0.880386
	C136	C	0.123035	0.872621	0.511783
	C137	C	0.120351	0.117457	0.495149
	C138	C	0.877604	0.119848	0.512968
	C139	C	0.880754	0.875047	0.494923
	C140	C	0.509096	0.117839	0.880537
	C141	C	0.491634	0.117583	0.123244
	C142	C	0.508897	0.875947	0.123026
	C143	C	0.490148	0.876231	0.881400
	C144	C	0.379204	0.882233	0.681241
	C145	C	0.621000	0.109025	0.680784
	C146	C	0.623071	0.882676	0.323959
	C147	C	0.377983	0.109380	0.323839
	C148	C	0.677338	0.378017	0.888206
	C149	C	0.675801	0.614851	0.118328
	C150	C	0.321947	0.616501	0.889703
	C151	C	0.326161	0.378984	0.119039
	C152	C	0.885605	0.674865	0.382479
	C153	C	0.116877	0.670504	0.621888
	C154	C	0.884262	0.322127	0.622098
	C155	C	0.115726	0.318297	0.383764
	C156	C	0.884468	0.378202	0.678914
	C157	C	0.116256	0.614554	0.679612
	C158	C	0.885499	0.617494	0.325506
	C159	C	0.116541	0.376502	0.327765
	C160	C	0.376197	0.676390	0.890365
	C161	C	0.620809	0.675697	0.116814
	C162	C	0.622798	0.317446	0.888934
	C163	C	0.380821	0.318506	0.117302
	C164	C	0.679524	0.882242	0.382960
	C165	C	0.675526	0.110512	0.620778
	C166	C	0.324880	0.880913	0.620645
	C167	C	0.321242	0.109764	0.382755
	C168	C	0.879713	0.383356	0.182397
	C169	C	0.122667	0.609100	0.182996
	C170	C	0.122334	0.382249	0.824998
	C171	C	0.876646	0.609200	0.823083
	C172	C	0.177337	0.876854	0.387881
	C173	C	0.175959	0.112618	0.618413
	C174	C	0.822965	0.116215	0.389361
	C175	C	0.825070	0.878226	0.618133
	C176	C	0.384572	0.175014	0.881976
	C177	C	0.616558	0.171287	0.122288
	C178	C	0.384367	0.820989	0.122836
	C179	C	0.613824	0.817260	0.881293
	C180	C	0.384673	0.877871	0.179735
	C181	C	0.615896	0.115676	0.180032
	C182	C	0.384607	0.117744	0.824396
	C183	C	0.615201	0.876034	0.826832
	C184	C	0.876995	0.176756	0.391010
	C185	C	0.120585	0.172510	0.617986
	C186	C	0.124174	0.815522	0.389753
	C187	C	0.880125	0.818173	0.617036
	C188	C	0.179145	0.381976	0.884715
	C189	C	0.176006	0.611141	0.122413
	C190	C	0.824085	0.382637	0.123044
	C191	C	0.820689	0.610032	0.882514
	C192	C	0.401580	0.089063	0.601333
	C193	C	0.600793	0.901298	0.603045
	C194	C	0.598461	0.090265	0.401899
	C195	C	0.401724	0.901589	0.401240
	C196	C	0.599405	0.394439	0.097219
	C197	C	0.595962	0.595713	0.909863
	C198	C	0.401048	0.598686	0.098527
	C199	C	0.403017	0.397713	0.909574
	C200	C	0.096401	0.592532	0.405962
	C201	C	0.904568	0.595806	0.600352
	C202	C	0.097169	0.396283	0.602031
	C203	C	0.904402	0.399298	0.404377
	C204	C	0.901705	0.590236	0.102200
	C205	C	0.100552	0.402379	0.103448
	C206	C	0.098231	0.589862	0.902266
	C207	C	0.902806	0.402292	0.902783
	C208	C	0.099861	0.894450	0.597409
	C209	C	0.096362	0.095820	0.409583
	C210	C	0.900530	0.098115	0.598771
	C211	C	0.904220	0.897400	0.409593
	C212	C	0.595988	0.094425	0.903272
	C213	C	0.404821	0.095966	0.100057
	C214	C	0.595248	0.898256	0.099665
	C215	C	0.403515	0.900424	0.904147
	Zn216	Zn	0.500417	-0.004393	0.753049
	Zn217	Zn	0.500870	-0.003731	0.250676
	Zn218	Zn	0.750223	0.496209	0.003496
	Zn219	Zn	0.251087	0.497413	0.004787
	Zn220	Zn	0.001516	0.744759	0.502931
	Zn221	Zn	-0.000364	0.248029	0.504457
	Zn222	Zn	-0.000009	0.495880	0.750597
	Zn223	Zn	0.001125	0.496553	0.253812
	Zn224	Zn	0.498966	0.748848	0.002123
	Zn225	Zn	0.501173	0.245212	0.002728
	Zn226	Zn	0.750873	-0.003538	0.503234
	Zn227	Zn	0.249563	-0.004570	0.502612
	N228	N	0.412253	0.959788	0.683483
	N229	N	0.588888	0.031182	0.683631
	N230	N	0.588001	0.959876	0.322215
	N231	N	0.412690	0.032164	0.321643
	N232	N	0.677356	0.411998	0.965430
	N233	N	0.675601	0.579862	0.041522
	N234	N	0.322380	0.582584	0.967076
	N235	N	0.325318	0.413556	0.042040
	N236	N	0.964129	0.674599	0.416868
	N237	N	0.038299	0.672417	0.587810
	N238	N	0.963136	0.320332	0.588674
	N239	N	0.036811	0.317591	0.417038
	N240	N	0.963432	0.410345	0.680437
	N241	N	0.037322	0.581828	0.680674
	N242	N	0.963695	0.582344	0.325293
	N243	N	0.038142	0.411274	0.326599
	N244	N	0.409846	0.679211	0.967923
	N245	N	0.586964	0.678035	0.039170
	N246	N	0.589891	0.314124	0.966761
	N247	N	0.413495	0.316008	0.039136
	N248	N	0.679463	0.959246	0.416947
	N249	N	0.676660	0.033648	0.586620
	N250	N	0.324595	0.957431	0.585759
	N251	N	0.321218	0.032665	0.416510
	N252	N	0.913317	0.460630	0.183776
	N253	N	0.090139	0.531363	0.185231
	N254	N	0.087792	0.459523	0.822203
	N255	N	0.911814	0.532063	0.821538
	N256	N	0.176937	0.911544	0.464809
	N257	N	0.175910	0.079202	0.540905
	N258	N	0.823182	0.081374	0.466209
	N259	N	0.825246	0.913030	0.541233
	N260	N	0.463210	0.175201	0.916183
	N261	N	0.538340	0.172606	0.087450
	N262	N	0.462513	0.819783	0.088130
	N263	N	0.535099	0.817340	0.914508
	N264	N	0.463077	0.911322	0.180093
	N265	N	0.537277	0.082704	0.180638
	N266	N	0.462992	0.082962	0.823434
	N267	N	0.537352	0.912083	0.826556
	N268	N	0.910187	0.179207	0.468828
	N269	N	0.086692	0.175705	0.540278
	N270	N	0.091158	0.812764	0.467715
	N271	N	0.914075	0.816163	0.539492
	N272	N	0.179364	0.459021	0.918509
	N273	N	0.175927	0.534813	0.087109
	N274	N	0.823423	0.459380	0.088196
	N275	N	0.821721	0.533300	0.917464
	O276	O	0.983693	0.939180	-0.026470
	H277	H	0.977039	0.936701	-0.032644
	H278	H	0.986551	0.942587	-0.036805
	O279	O	0.543053	0.533482	0.475097
	H280	H	0.542385	0.531607	0.464968
	H281	H	0.541547	0.527891	0.477875
	O282	O	0.922070	1.060121	-0.044246
	H283	H	0.923345	1.064787	-0.055345
	H284	H	0.919516	1.064829	-0.047072
	O285	O	1.074679	-0.076919	1.106718
	H286	H	1.055955	-0.075702	1.103430
	H287	H	1.065028	-0.088508	1.118639
	O288	O	0.523991	0.481185	0.496863
	H289	H	0.532330	0.476936	0.502213
	H290	H	0.525836	0.473917	0.499908
	O291	O	0.518768	0.512041	0.505987
	H292	H	0.520630	0.509191	0.512943
	H293	H	0.508218	0.508202	0.503512
	O294	O	0.512430	0.441319	0.543007
	H295	H	0.515046	0.439110	0.535873
	H296	H	0.510768	0.441886	0.546103
	O297	O	-0.055982	0.025710	1.010814
	H298	H	-0.056431	0.020880	1.007217
	H299	H	-0.052265	0.023704	1.018507
	O300	O	0.532722	0.555964	0.491080
	H301	H	0.535389	0.559759	0.490529
	H302	H	0.533759	0.558034	0.494938
	O303	O	0.882335	0.931421	-0.032124
	H304	H	0.865650	0.923427	-0.030470
	H305	H	0.892612	0.919946	-0.023386
	O306	O	0.005569	1.042583	1.071497
	H307	H	0.000591	1.048898	1.086539
	H308	H	0.006106	1.043428	1.064309
	O309	O	0.527261	0.482468	0.538151
	H310	H	0.526831	0.490422	0.547814
	H311	H	0.521475	0.482908	0.543074
	O312	O	-0.114061	0.018417	0.072539
	H313	H	-0.103712	0.032167	0.073946
	H314	H	-0.118124	0.036761	0.072857
	O315	O	1.047269	0.156021	0.116935
	H316	H	1.043851	0.162774	0.108310
	H317	H	1.047840	0.163588	0.118582
	O318	O	0.891064	0.892934	0.985053
	H319	H	0.904464	0.901411	0.988444
	H320	H	0.893919	0.884822	0.992190
	O321	O	0.006650	0.137174	1.039691
	H322	H	0.008428	0.125961	1.034954
	H323	H	-0.001111	0.134015	1.041538
	O324	O	0.525993	0.439403	0.467977
	H325	H	0.526836	0.436178	0.461770
	H326	H	0.519058	0.437849	0.474616
	O327	O	-0.001661	-0.001660	-0.035886
	H328	H	-0.004537	-0.003321	-0.028701
	H329	H	-0.004186	-0.009794	-0.033408
	O330	O	0.417543	0.450752	0.592358
	H331	H	0.419066	0.441469	0.603484
	H332	H	0.415832	0.464191	0.585730
	O333	O	-0.031303	1.016851	0.971794
	H334	H	-0.035434	1.012183	0.970754
	H335	H	-0.028364	1.010428	0.969574
	O336	O	0.087598	0.091871	0.091641
	H337	H	0.094391	0.092098	0.090801
	H338	H	0.065951	0.100409	0.081941
	O339	O	0.553194	0.513059	0.568913
	H340	H	0.556023	0.512337	0.571436
	H341	H	0.554892	0.505227	0.563997
	O342	O	1.091555	0.969550	0.970803
	H343	H	1.092853	0.966746	0.964313
	H344	H	1.103079	0.962052	0.971266
	O345	O	1.016474	1.084168	-0.097195
	H346	H	1.021315	1.081323	-0.095189
	H347	H	1.029515	1.093140	-0.104962
	O348	O	0.505452	0.373550	0.518308
	H349	H	0.500279	0.364022	0.525477
	H350	H	0.508993	0.366717	0.510854
	O351	O	0.024560	0.854151	-0.024831
	H352	H	0.026271	0.838173	-0.028435
	H353	H	0.022070	0.858448	-0.012986
	O354	O	0.460477	0.548017	0.447098
	H355	H	0.454805	0.554140	0.444484
	H356	H	0.470582	0.537811	0.438120
	O357	O	1.090525	-0.159855	0.881018
	H358	H	1.089053	-0.156177	0.888613
	H359	H	1.093562	-0.165638	0.874427
	O360	O	0.492128	0.455949	0.502957
	H361	H	0.493151	0.462107	0.491444
	H362	H	0.493994	0.463315	0.518616
	O363	O	0.482778	0.409558	0.626776
	H364	H	0.478318	0.417765	0.610990
	H365	H	0.489366	0.402977	0.653784
	O366	O	1.036956	0.928631	0.983860
	H367	H	1.043074	0.921931	0.987336
	H368	H	1.043203	0.918365	0.974744
	O369	O	1.122549	0.070107	0.996872
	H370	H	1.126443	0.065115	0.999373
	H371	H	1.114442	0.070901	1.002412
	O372	O	0.006231	-0.105735	0.129006
	H373	H	0.009910	-0.097867	0.130178
	H374	H	0.020293	-0.099854	0.136665
	O375	O	0.898114	0.020567	0.032065
	H376	H	0.903844	0.023872	0.025655
	H377	H	0.905273	0.019743	0.034123
	O378	O	0.488291	0.521318	0.510056
	H379	H	0.490725	0.523068	0.506792
	H380	H	0.492823	0.514017	0.516004
	O381	O	0.476851	0.564709	0.491835
	H382	H	0.482645	0.562142	0.478418
	H383	H	0.477572	0.574139	0.483570
