data_Molecule from HDF5

_cell_length_a		16.538865
_cell_length_b		16.484783
_cell_length_c		16.560527
_cell_angle_alpha	90.098465
_cell_angle_beta	89.815915
_cell_angle_gamma	90.024642
_symmetry_space_group_name_H-M	'P 1'
_symmetry_Int_Tables_number		1

loop_
	_symmetry_equiv_pos_as_xyz
	x,y,z

loop_
	_atom_site_label
	_atom_site_type_symbol
	_atom_site_fract_x
	_atom_site_fract_y
	_atom_site_fract_z
	H0	H	0.402304	0.857673	0.721852
	H1	H	0.611598	0.173167	0.723323
	H2	H	0.609375	0.858764	0.280067
	H3	H	0.398127	0.172768	0.279753
	H4	H	0.729334	0.407414	0.844043
	H5	H	0.724554	0.617906	0.157397
	H6	H	0.282649	0.621473	0.846222
	H7	H	0.281522	0.406566	0.157266
	H8	H	0.847356	0.732559	0.398980
	H9	H	0.161166	0.739177	0.607460
	H10	H	0.849091	0.292790	0.607642
	H11	H	0.161490	0.289215	0.391776
	H12	H	0.849458	0.408298	0.724607
	H13	H	0.160576	0.624315	0.725458
	H14	H	0.848008	0.616045	0.283048
	H15	H	0.161817	0.405604	0.276589
	H16	H	0.400772	0.736284	0.844775
	H17	H	0.608745	0.735364	0.157273
	H18	H	0.613557	0.290761	0.844690
	H19	H	0.400150	0.292894	0.158302
	H20	H	0.724758	0.857935	0.397067
	H21	H	0.727270	0.173335	0.606990
	H22	H	0.285011	0.857607	0.605330
	H23	H	0.281700	0.171600	0.395123
	H24	H	0.900703	0.355920	0.221318
	H25	H	0.108959	0.670542	0.221806
	H26	H	0.114556	0.359083	0.775815
	H27	H	0.903297	0.672433	0.782748
	H28	H	0.227576	0.908860	0.345545
	H29	H	0.228463	0.122865	0.657674
	H30	H	0.782876	0.121334	0.345358
	H31	H	0.782758	0.910887	0.658205
	H32	H	0.348337	0.237857	0.895697
	H33	H	0.662106	0.236162	0.106083
	H34	H	0.349073	0.792818	0.106605
	H35	H	0.664250	0.797533	0.899553
	H36	H	0.349042	0.909309	0.223972
	H37	H	0.661150	0.121369	0.222855
	H38	H	0.348812	0.121763	0.779410
	H39	H	0.663915	0.912231	0.781304
	H40	H	0.899145	0.237944	0.345677
	H41	H	0.111995	0.238665	0.656768
	H42	H	0.108037	0.796147	0.343564
	H43	H	0.898870	0.793610	0.658667
	H44	H	0.230378	0.358639	0.892545
	H45	H	0.226365	0.670395	0.106273
	H46	H	0.785105	0.356553	0.104408
	H47	H	0.784728	0.671514	0.897215
	H48	H	0.415333	0.128248	0.589786
	H49	H	0.595243	0.904666	0.586487
	H50	H	0.593527	0.128401	0.412671
	H51	H	0.418298	0.906176	0.419411
	H52	H	0.596064	0.426643	0.112212
	H53	H	0.600169	0.606928	0.885287
	H54	H	0.413849	0.598013	0.112391
	H55	H	0.421697	0.425080	0.891470
	H56	H	0.118534	0.603373	0.409335
	H57	H	0.895569	0.596938	0.591707
	H58	H	0.115949	0.430347	0.587901
	H59	H	0.896986	0.432570	0.413637
	H60	H	0.117194	0.427802	0.588780
	H61	H	0.890857	0.605255	0.595609
	H62	H	0.119919	0.606899	0.410196
	H63	H	0.891924	0.423745	0.406656
	H64	H	0.423006	0.604189	0.111155
	H65	H	0.597329	0.601073	0.888476
	H66	H	0.594385	0.425593	0.112063
	H67	H	0.415992	0.427269	0.889395
	H68	H	0.595258	0.128870	0.413057
	H69	H	0.598218	0.901422	0.593423
	H70	H	0.416443	0.128797	0.592188
	H71	H	0.412037	0.901272	0.412043
	H72	H	0.912511	0.629170	0.094360
	H73	H	0.091403	0.401857	0.089128
	H74	H	0.092393	0.625595	0.911862
	H75	H	0.921683	0.403972	0.915072
	H76	H	0.090908	0.925693	0.613140
	H77	H	0.093157	0.103687	0.389486
	H78	H	0.912033	0.095178	0.612069
	H79	H	0.916887	0.924133	0.390061
	H80	H	0.616419	0.096143	0.907764
	H81	H	0.390424	0.109009	0.091734
	H82	H	0.615533	0.924129	0.082944
	H83	H	0.393432	0.927460	0.908889
	H84	H	0.616182	0.934627	0.093481
	H85	H	0.394947	0.101836	0.085066
	H86	H	0.619990	0.110427	0.909045
	H87	H	0.392237	0.922666	0.910571
	H88	H	0.925171	0.103005	0.609869
	H89	H	0.096024	0.099078	0.390550
	H90	H	0.096183	0.924525	0.615172
	H91	H	0.913524	0.920273	0.387977
	H92	H	0.093707	0.625429	0.916609
	H93	H	0.094895	0.401312	0.086490
	H94	H	0.918153	0.626565	0.093826
	H95	H	0.915305	0.401408	0.915404
	H96	H	0.418009	0.127469	0.590260
	H97	H	0.590331	0.903658	0.593657
	H98	H	0.594688	0.129014	0.411453
	H99	H	0.421940	0.903620	0.409169
	H100	H	0.596106	0.424966	0.112854
	H101	H	0.593124	0.607340	0.887486
	H102	H	0.413922	0.608097	0.115893
	H103	H	0.420296	0.431212	0.892435
	H104	H	0.118333	0.604516	0.412989
	H105	H	0.894771	0.605458	0.585877
	H106	H	0.116116	0.427979	0.586011
	H107	H	0.894441	0.420993	0.418826
	H108	H	0.914614	0.626881	0.088667
	H109	H	0.094731	0.399325	0.090574
	H110	H	0.096387	0.627665	0.913315
	H111	H	0.918743	0.401363	0.909729
	H112	H	0.094723	0.929399	0.613587
	H113	H	0.091007	0.099317	0.392095
	H114	H	0.912307	0.109698	0.617015
	H115	H	0.912462	0.926544	0.388012
	H116	H	0.614141	0.103125	0.920129
	H117	H	0.392597	0.099092	0.094933
	H118	H	0.621860	0.920614	0.096388
	H119	H	0.393541	0.926763	0.914092
	C120	C	0.384726	0.024028	0.622719
	C121	C	0.626843	1.007440	0.622658
	C122	C	0.626268	0.024427	0.380294
	C123	C	0.384373	1.007505	0.380885
	C124	C	0.628098	0.392731	0.009041
	C125	C	0.627525	0.636208	0.991390
	C126	C	0.384311	0.636189	0.009994
	C127	C	0.385149	0.393795	0.993712
	C128	C	0.014096	0.635430	0.380180
	C129	C	0.996860	0.636319	0.623481
	C130	C	0.013578	0.394634	0.621626
	C131	C	0.997330	0.391698	0.378989
	C132	C	0.883776	0.522817	0.123022
	C133	C	0.126040	0.504864	0.121672
	C134	C	0.127960	0.523177	0.879478
	C135	C	0.886108	0.506167	0.881520
	C136	C	0.125996	0.894167	0.510232
	C137	C	0.127023	0.135707	0.493092
	C138	C	0.883979	0.135899	0.509841
	C139	C	0.882702	0.892809	0.492674
	C140	C	0.513318	0.136327	0.880204
	C141	C	0.496245	0.136230	0.122637
	C142	C	0.514105	0.893615	0.123279
	C143	C	0.497558	0.894399	0.880051
	C144	C	0.383028	0.904968	0.682248
	C145	C	0.629644	0.125963	0.683040
	C146	C	0.627785	0.905727	0.320337
	C147	C	0.380405	0.125237	0.319921
	C148	C	0.688966	0.389607	0.891253
	C149	C	0.685392	0.637263	0.110209
	C150	C	0.323195	0.639441	0.892972
	C151	C	0.322722	0.389393	0.110644
	C152	C	0.895049	0.693586	0.380061
	C153	C	0.114276	0.698377	0.626083
	C154	C	0.896000	0.333479	0.625448
	C155	C	0.114584	0.329949	0.374763
	C156	C	0.896315	0.390964	0.683796
	C157	C	0.114128	0.641175	0.684583
	C158	C	0.895273	0.635474	0.322315
	C159	C	0.114774	0.388043	0.317334
	C160	C	0.381774	0.696774	0.892350
	C161	C	0.627875	0.695463	0.110190
	C162	C	0.631109	0.331611	0.891539
	C163	C	0.381860	0.332879	0.111288
	C164	C	0.685042	0.905303	0.378505
	C165	C	0.686823	0.126113	0.624721
	C166	C	0.325282	0.904773	0.624273
	C167	C	0.322716	0.124898	0.377845
	C168	C	0.882174	0.403574	0.181718
	C169	C	0.128104	0.623431	0.181878
	C170	C	0.132507	0.406175	0.816475
	C171	C	0.884162	0.625241	0.822361
	C172	C	0.186725	0.891332	0.392338
	C173	C	0.188080	0.140463	0.610581
	C174	C	0.823509	0.139023	0.392135
	C175	C	0.822942	0.891822	0.611254
	C176	C	0.395436	0.197371	0.877694
	C177	C	0.614479	0.196448	0.124716
	C178	C	0.396116	0.833259	0.125107
	C179	C	0.616769	0.836363	0.879766
	C180	C	0.396134	0.890759	0.183752
	C181	C	0.614165	0.139430	0.182940
	C182	C	0.395707	0.139570	0.819835
	C183	C	0.616509	0.893569	0.821155
	C184	C	0.881360	0.196976	0.392298
	C185	C	0.130123	0.198054	0.610219
	C186	C	0.127206	0.835158	0.391390
	C187	C	0.880678	0.833587	0.611443
	C188	C	0.189829	0.405717	0.874731
	C189	C	0.186627	0.623069	0.124774
	C190	C	0.824722	0.403906	0.123659
	C191	C	0.825541	0.624632	0.879193
	C192	C	0.409440	0.106532	0.597952
	C193	C	0.601715	0.924842	0.598111
	C194	C	0.601537	0.107220	0.405138
	C195	C	0.410173	0.925004	0.406346
	C196	C	0.602606	0.418455	0.091021
	C197	C	0.603836	0.611959	0.908758
	C198	C	0.409662	0.610548	0.091887
	C199	C	0.411704	0.420151	0.912210
	C200	C	0.097241	0.611638	0.403811
	C201	C	0.915139	0.609938	0.598243
	C202	C	0.095136	0.421013	0.594981
	C203	C	0.915695	0.418294	0.405415
	C204	C	0.908157	0.605707	0.099213
	C205	C	0.100900	0.422311	0.096177
	C206	C	0.101751	0.604999	0.906257
	C207	C	0.911344	0.423957	0.906281
	C208	C	0.100955	0.919331	0.592521
	C209	C	0.100853	0.108545	0.411967
	C210	C	0.909324	0.109976	0.591573
	C211	C	0.907280	0.916823	0.410379
	C212	C	0.595450	0.110607	0.905373
	C213	C	0.414112	0.110657	0.097681
	C214	C	0.596452	0.919184	0.098154
	C215	C	0.414697	0.918665	0.904253
	Zn216	Zn	0.505918	0.015510	0.751013
	Zn217	Zn	0.504946	0.016055	0.251870
	Zn218	Zn	0.756147	0.514477	0.000653
	Zn219	Zn	0.255474	0.513841	0.001652
	Zn220	Zn	0.005124	0.764708	0.501617
	Zn221	Zn	0.005733	0.264379	0.501527
	Zn222	Zn	0.005890	0.514661	0.751881
	Zn223	Zn	0.005447	0.513402	0.250804
	Zn224	Zn	0.505712	0.765071	0.000895
	Zn225	Zn	0.505370	0.264461	0.001200
	Zn226	Zn	0.754740	0.015224	0.501049
	Zn227	Zn	0.255417	0.015084	0.502164
	N228	N	0.419060	0.980090	0.681643
	N229	N	0.593069	0.051325	0.681849
	N230	N	0.592223	0.980938	0.321186
	N231	N	0.418036	0.051043	0.321716
	N232	N	0.687152	0.426911	0.965410
	N233	N	0.685638	0.601446	0.035263
	N234	N	0.324423	0.602576	0.967262
	N235	N	0.324753	0.426659	0.036567
	N236	N	0.970105	0.693874	0.415197
	N237	N	0.040142	0.695764	0.589004
	N238	N	0.969834	0.335800	0.587398
	N239	N	0.040461	0.332160	0.412513
	N240	N	0.970686	0.428343	0.681623
	N241	N	0.040149	0.603466	0.683232
	N242	N	0.970486	0.600068	0.322154
	N243	N	0.040636	0.425422	0.319625
	N244	N	0.418958	0.695077	0.966222
	N245	N	0.592618	0.695074	0.035269
	N246	N	0.593883	0.333310	0.965783
	N247	N	0.419827	0.335367	0.037460
	N248	N	0.684473	0.980225	0.414800
	N249	N	0.685452	0.051148	0.588122
	N250	N	0.325996	0.979814	0.588253
	N251	N	0.325056	0.050496	0.414956
	N252	N	0.918233	0.478556	0.181502
	N253	N	0.091265	0.548792	0.180143
	N254	N	0.095076	0.480455	0.819143
	N255	N	0.921130	0.550657	0.823628
	N256	N	0.186323	0.926981	0.467332
	N257	N	0.186504	0.102636	0.536762
	N258	N	0.825149	0.101697	0.466191
	N259	N	0.823850	0.927830	0.536500
	N260	N	0.469716	0.195467	0.914334
	N261	N	0.540109	0.194817	0.088055
	N262	N	0.470556	0.834937	0.088319
	N263	N	0.541808	0.836584	0.915557
	N264	N	0.470654	0.927456	0.182849
	N265	N	0.539609	0.102561	0.181759
	N266	N	0.469985	0.102322	0.821239
	N267	N	0.541300	0.928754	0.821033
	N268	N	0.918025	0.195216	0.466459
	N269	N	0.093070	0.195386	0.536041
	N270	N	0.090159	0.836603	0.465897
	N271	N	0.916660	0.833674	0.536788
	N272	N	0.187087	0.479524	0.913222
	N273	N	0.185299	0.548361	0.087976
	N274	N	0.825516	0.479020	0.087878
	N275	N	0.826787	0.549699	0.915314
	O276	O	0.988043	0.800949	0.186388
	H277	H	0.955949	0.805246	0.185853
	H278	H	0.979328	0.779434	0.203683
	O279	O	-0.090466	0.216083	0.803170
	H280	H	-0.086523	0.218693	0.814656
	H281	H	-0.081818	0.203191	0.805046
	O282	O	0.711225	0.536320	0.699613
	H283	H	0.690893	0.527145	0.708124
	H284	H	0.719382	0.529435	0.708307
	O285	O	0.312406	0.319178	0.700091
	H286	H	0.305380	0.340050	0.685855
	H287	H	0.307935	0.340573	0.679603
	O288	O	0.990391	-0.205702	0.983328
	H289	H	0.981445	-0.201072	0.989241
	H290	H	0.992370	-0.204528	0.973472
	O291	O	0.708962	0.438886	0.293023
	H292	H	0.716922	0.410292	0.302396
	H293	H	0.725723	0.444361	0.280712
	O294	O	0.014325	-0.163482	-0.217623
	H295	H	0.018757	-0.152141	-0.220671
	H296	H	0.016449	-0.183664	-0.228686
	O297	O	1.217811	0.200155	0.007743
	H298	H	1.232230	0.208233	0.023432
	H299	H	1.209946	0.205287	0.020072
	O300	O	0.220973	-0.016019	-0.216043
	H301	H	0.232890	-0.006392	-0.220473
	H302	H	0.233367	-0.018348	-0.221700
	O303	O	-0.178464	-0.125866	-0.130272
	H304	H	-0.188321	-0.128578	-0.135955
	H305	H	-0.164706	-0.112095	-0.125851
	O306	O	1.211761	-0.184965	0.048929
	H307	H	1.193500	-0.182852	0.038714
	H308	H	1.214703	-0.197422	0.038619
	O309	O	0.521115	0.332314	0.284628
	H310	H	0.518157	0.303601	0.278886
	H311	H	0.499272	0.335268	0.287583
	O312	O	0.090881	0.091481	0.868772
	H313	H	0.083410	0.079497	0.870720
	H314	H	0.103716	0.095877	0.869561
	O315	O	0.453389	0.570370	0.689228
	H316	H	0.429671	0.574786	0.686419
	H317	H	0.465009	0.556434	0.668091
	O318	O	0.998784	0.964480	0.051701
	H319	H	0.997525	0.971420	0.053610
	H320	H	1.020460	0.966307	0.052308
	O321	O	0.051322	1.079042	1.111526
	H322	H	0.051720	1.068284	1.123293
	H323	H	0.074585	1.091346	1.117431
	O324	O	0.793681	0.056548	0.918123
	H325	H	0.807448	0.062028	0.919536
	H326	H	0.786551	0.054984	0.913232
	O327	O	0.547273	0.723900	0.716344
	H328	H	0.540208	0.730803	0.719398
	H329	H	0.532864	0.723264	0.723154
	O330	O	0.689554	0.700653	0.497005
	H331	H	0.695209	0.706466	0.535920
	H332	H	0.687674	0.720625	0.504548
	O333	O	0.290037	0.303098	0.515415
	H334	H	0.281868	0.297385	0.511346
	H335	H	0.283873	0.298219	0.500058
	O336	O	0.620912	0.635434	0.529409
	H337	H	0.634332	0.635593	0.535826
	H338	H	0.629787	0.643353	0.537209
	O339	O	0.301670	0.714499	0.301066
	H340	H	0.279557	0.743804	0.269547
	H341	H	0.316436	0.692531	0.305199
	O342	O	-0.186961	0.801123	0.015500
	H343	H	-0.200338	0.802011	0.015861
	H344	H	-0.179854	0.798559	0.006342
	O345	O	0.520543	0.720333	0.297761
	H346	H	0.509400	0.724846	0.298495
	H347	H	0.521265	0.722650	0.298433
	O348	O	0.513888	0.376881	0.720939
	H349	H	0.482279	0.357016	0.725699
	H350	H	0.494570	0.373119	0.721269
	O351	O	-0.209087	-0.010922	1.221538
	H352	H	-0.215251	-0.029604	1.220321
	H353	H	-0.221798	-0.020539	1.232086
	O354	O	1.147713	0.203165	1.167950
	H355	H	1.147439	0.177359	1.163810
	H356	H	1.110429	0.217990	1.181055
	O357	O	0.308241	0.535922	0.496683
	H358	H	0.319210	0.543552	0.486832
	H359	H	0.301027	0.553629	0.490065
	O360	O	0.295285	0.523729	0.345303
	H361	H	0.292012	0.525968	0.332166
	H362	H	0.292916	0.522975	0.341434
	O363	O	1.214180	0.031704	0.210680
	H364	H	1.217161	0.041492	0.202371
	H365	H	1.219368	0.034604	0.225711
	O366	O	0.597137	0.322844	0.695765
	H367	H	0.579564	0.323385	0.681437
	H368	H	0.583248	0.313797	0.708446
	O369	O	-0.054413	0.211924	0.971816
	H370	H	-0.069369	0.218609	0.959397
	H371	H	-0.065727	0.212225	0.973241
	O372	O	0.051738	1.175212	0.816762
	H373	H	0.048022	1.181158	0.816611
	H374	H	0.045092	1.179598	0.818302
	O375	O	1.135123	-0.128698	0.189557
	H376	H	1.105971	-0.119946	0.171217
	H377	H	1.122480	-0.124959	0.184876
	O378	O	0.725099	0.454944	0.541194
	H379	H	0.728311	0.468781	0.563885
	H380	H	0.727244	0.459998	0.519396
	O381	O	-0.173034	0.805965	0.193054
	H382	H	-0.184998	0.819530	0.164987
	H383	H	-0.202540	0.773163	0.218032
	O384	O	0.287942	0.491940	0.719688
	H385	H	0.264321	0.506157	0.731137
	H386	H	0.274767	0.507708	0.713021
	O387	O	0.210713	0.812104	0.798266
	H388	H	0.189191	0.819191	0.813528
	H389	H	0.209650	0.821001	0.784423
	O390	O	-0.008410	1.084413	1.082434
	H391	H	-0.006873	1.078500	1.069021
	H392	H	-0.016386	1.073089	1.093969
	O393	O	1.174720	-0.124163	-0.012259
	H394	H	1.172634	-0.145465	-0.018626
	H395	H	1.179057	-0.105841	-0.032874
	O396	O	0.585959	0.559272	0.308299
	H397	H	0.592499	0.542533	0.312540
	H398	H	0.579000	0.550489	0.294528
	O399	O	0.556653	0.509312	0.626825
	H400	H	0.558651	0.492604	0.612875
	H401	H	0.549589	0.513104	0.629281
	O402	O	0.871645	0.018059	0.818443
	H403	H	0.889978	0.007327	0.814611
	H404	H	0.861319	0.030128	0.799423
	O405	O	0.751823	0.273446	0.276172
	H406	H	0.735177	0.266241	0.288144
	H407	H	0.731705	0.262921	0.267101
	O408	O	0.990169	0.921065	1.159533
	H409	H	0.965917	0.909297	1.160067
	H410	H	0.981884	0.918904	1.148383
	O411	O	0.713775	0.724366	0.292481
	H412	H	0.684079	0.701293	0.303756
	H413	H	0.703792	0.712783	0.309843
	O414	O	0.149103	0.058611	-0.062935
	H415	H	0.160539	0.073281	-0.065856
	H416	H	0.143024	0.068231	-0.056453
	O417	O	0.447303	0.298923	0.418889
	H418	H	0.463040	0.301030	0.426652
	H419	H	0.441974	0.296470	0.436153
	O420	O	0.947077	-0.008387	1.030345
	H421	H	0.957953	-0.014053	1.040171
	H422	H	0.944026	-0.020533	1.036673
	O423	O	0.952750	1.015992	-0.062468
	H424	H	0.955721	1.022645	-0.068361
	H425	H	0.956544	0.996642	-0.057509
	O426	O	0.428853	0.486833	0.530709
	H427	H	0.436892	0.490681	0.509773
	H428	H	0.442332	0.487375	0.532216
	O429	O	0.539658	0.306876	0.570512
	H430	H	0.543409	0.319369	0.565848
	H431	H	0.543572	0.308915	0.595891
	O432	O	0.803357	0.217086	0.881965
	H433	H	0.807989	0.225482	0.874786
	H434	H	0.813274	0.206862	0.895243
	O435	O	0.496200	0.660702	0.506915
	H436	H	0.496170	0.661373	0.515224
	H437	H	0.508755	0.671397	0.509792
	O438	O	0.697174	0.574294	0.410423
	H439	H	0.707688	0.592862	0.419837
	H440	H	0.702028	0.571339	0.400887
	O441	O	0.288651	0.728779	0.475724
	H442	H	0.288912	0.733837	0.458101
	H443	H	0.278828	0.747347	0.455182
	O444	O	0.341150	0.462873	0.399939
	H445	H	0.354788	0.461981	0.404918
	H446	H	0.342009	0.466666	0.397958
	O447	O	0.419613	0.721418	0.572615
	H448	H	0.416871	0.718403	0.584878
	H449	H	0.419642	0.727318	0.559189
	O450	O	0.875905	0.189522	0.178641
	H451	H	0.878454	0.176764	0.175851
	H452	H	0.873740	0.186842	0.181202
	O453	O	0.485040	0.407978	0.420862
	H454	H	0.485870	0.406498	0.428251
	H455	H	0.493996	0.413826	0.428035
	O456	O	-0.066649	0.932177	0.794605
	H457	H	-0.068301	0.938939	0.791266
	H458	H	-0.059405	0.938140	0.802301
	O459	O	0.379815	0.697195	0.622936
	H460	H	0.373760	0.690353	0.616297
	H461	H	0.390537	0.690237	0.616082
	O462	O	0.709698	0.705418	0.706550
	H463	H	0.683633	0.685782	0.712550
	H464	H	0.708832	0.698229	0.715745
	O465	O	0.340811	0.409526	0.276452
	H466	H	0.349087	0.420795	0.278652
	H467	H	0.316793	0.409617	0.267701
	O468	O	0.346630	0.452064	0.284978
	H469	H	0.339853	0.456166	0.273274
	H470	H	0.340355	0.449665	0.277703
	O471	O	0.055872	0.132597	-0.052008
	H472	H	0.063071	0.145889	-0.052885
	H473	H	0.058758	0.139837	-0.051508
	O474	O	1.002292	1.226510	0.154848
	H475	H	0.992447	1.233566	0.169930
	H476	H	0.987714	1.214771	0.154536
	O477	O	0.718473	0.304988	0.470662
	H478	H	0.723866	0.289391	0.464480
	H479	H	0.737206	0.316563	0.481800
