data_Molecule from HDF5

_cell_length_a		16.399920
_cell_length_b		16.332873
_cell_length_c		16.542825
_cell_angle_alpha	89.934254
_cell_angle_beta	89.830816
_cell_angle_gamma	90.272241
_symmetry_space_group_name_H-M	'P 1'
_symmetry_Int_Tables_number		1

loop_
	_symmetry_equiv_pos_as_xyz
	x,y,z

loop_
	_atom_site_label
	_atom_site_type_symbol
	_atom_site_fract_x
	_atom_site_fract_y
	_atom_site_fract_z
	H0	H	0.391952	0.842582	0.724063
	H1	H	0.609239	0.158457	0.720492
	H2	H	0.610864	0.840868	0.276633
	H3	H	0.397009	0.157590	0.276085
	H4	H	0.726789	0.396538	0.843010
	H5	H	0.726027	0.605938	0.158169
	H6	H	0.279906	0.608626	0.844596
	H7	H	0.279706	0.390793	0.156205
	H8	H	0.845751	0.719907	0.398267
	H9	H	0.162592	0.723816	0.605973
	H10	H	0.845530	0.278964	0.606587
	H11	H	0.164285	0.282362	0.398174
	H12	H	0.846915	0.392950	0.724022
	H13	H	0.161740	0.610512	0.723802
	H14	H	0.846479	0.606644	0.280694
	H15	H	0.161916	0.392663	0.276763
	H16	H	0.398204	0.722014	0.842858
	H17	H	0.612929	0.724596	0.156119
	H18	H	0.610097	0.279956	0.841015
	H19	H	0.398809	0.277533	0.157220
	H20	H	0.727363	0.841572	0.392090
	H21	H	0.723058	0.160150	0.603562
	H22	H	0.281183	0.841851	0.604073
	H23	H	0.285896	0.159933	0.394229
	H24	H	0.897780	0.343226	0.222732
	H25	H	0.116017	0.657737	0.225809
	H26	H	0.113639	0.346633	0.774726
	H27	H	0.894002	0.656816	0.775117
	H28	H	0.227851	0.894171	0.343151
	H29	H	0.229048	0.108167	0.654613
	H30	H	0.780024	0.109330	0.345062
	H31	H	0.778001	0.890561	0.654712
	H32	H	0.346510	0.219451	0.894816
	H33	H	0.662079	0.221136	0.103891
	H34	H	0.347591	0.773298	0.107007
	H35	H	0.662568	0.778112	0.892738
	H36	H	0.347515	0.885790	0.225603
	H37	H	0.661145	0.105724	0.221010
	H38	H	0.347980	0.104689	0.777632
	H39	H	0.659597	0.888050	0.771606
	H40	H	0.896996	0.226505	0.345574
	H41	H	0.110032	0.221164	0.657466
	H42	H	0.114538	0.775697	0.343861
	H43	H	0.896102	0.775974	0.656300
	H44	H	0.225950	0.343707	0.893920
	H45	H	0.230206	0.657604	0.109302
	H46	H	0.785980	0.341203	0.103924
	H47	H	0.782939	0.658925	0.894632
	H48	H	0.409988	0.116652	0.589081
	H49	H	0.584359	0.888333	0.586410
	H50	H	0.590414	0.113648	0.406064
	H51	H	0.412057	0.883548	0.409189
	H52	H	0.598750	0.417819	0.111978
	H53	H	0.593573	0.589949	0.888029
	H54	H	0.427142	0.589897	0.109292
	H55	H	0.408853	0.415550	0.886113
	H56	H	0.118982	0.590491	0.410970
	H57	H	0.890969	0.587532	0.590037
	H58	H	0.118233	0.412790	0.590272
	H59	H	0.891108	0.415208	0.410091
	H60	H	0.117715	0.413145	0.589238
	H61	H	0.891455	0.588233	0.588680
	H62	H	0.117865	0.588409	0.414619
	H63	H	0.890857	0.411298	0.411965
	H64	H	0.410958	0.589504	0.114482
	H65	H	0.597231	0.588345	0.886901
	H66	H	0.585806	0.408430	0.109811
	H67	H	0.421278	0.413012	0.890490
	H68	H	0.588824	0.110580	0.412564
	H69	H	0.594173	0.886580	0.580915
	H70	H	0.423733	0.114077	0.595697
	H71	H	0.422175	0.887221	0.409199
	H72	H	0.913866	0.616901	0.090849
	H73	H	0.084617	0.390718	0.087407
	H74	H	0.087562	0.612438	0.917347
	H75	H	0.911448	0.384614	0.911456
	H76	H	0.097298	0.918045	0.611393
	H77	H	0.095672	0.089801	0.386599
	H78	H	0.911123	0.087710	0.613409
	H79	H	0.919429	0.910585	0.388808
	H80	H	0.618054	0.086170	0.908509
	H81	H	0.389687	0.088673	0.088563
	H82	H	0.614436	0.915987	0.083606
	H83	H	0.392626	0.918235	0.906046
	H84	H	0.616530	0.916943	0.090734
	H85	H	0.390232	0.086334	0.087700
	H86	H	0.619733	0.089137	0.909591
	H87	H	0.388034	0.904754	0.908982
	H88	H	0.916809	0.086087	0.611397
	H89	H	0.091789	0.090572	0.387496
	H90	H	0.087329	0.916199	0.607872
	H91	H	0.913808	0.911167	0.386950
	H92	H	0.094972	0.615363	0.914057
	H93	H	0.095973	0.387118	0.084642
	H94	H	0.918558	0.616608	0.092675
	H95	H	0.920153	0.387130	0.906980
	H96	H	0.421303	0.109782	0.580954
	H97	H	0.593514	0.883791	0.591526
	H98	H	0.595232	0.114184	0.410829
	H99	H	0.416287	0.889019	0.417788
	H100	H	0.598557	0.402480	0.116268
	H101	H	0.594779	0.585993	0.888655
	H102	H	0.417965	0.576028	0.107639
	H103	H	0.414442	0.403372	0.884435
	H104	H	0.117759	0.585984	0.410536
	H105	H	0.892768	0.586981	0.589407
	H106	H	0.117460	0.414141	0.589782
	H107	H	0.892496	0.415043	0.413944
	H108	H	0.917808	0.614535	0.087722
	H109	H	0.091019	0.384837	0.095718
	H110	H	0.088270	0.615734	0.909649
	H111	H	0.918299	0.389148	0.916873
	H112	H	0.092603	0.908401	0.613732
	H113	H	0.093787	0.093271	0.385527
	H114	H	0.916288	0.092088	0.614118
	H115	H	0.916728	0.915846	0.388995
	H116	H	0.617128	0.087167	0.911576
	H117	H	0.389735	0.086648	0.090644
	H118	H	0.617237	0.909753	0.087055
	H119	H	0.394868	0.913259	0.919316
	C120	C	0.383179	0.009130	0.621039
	C121	C	0.624164	0.991107	0.620019
	C122	C	0.625398	0.008223	0.377122
	C123	C	0.383668	0.991164	0.378231
	C124	C	0.626467	0.377969	0.008380
	C125	C	0.627872	0.622008	0.991564
	C126	C	0.384225	0.619705	0.007747
	C127	C	0.381864	0.377421	0.991108
	C128	C	0.013754	0.621686	0.379818
	C129	C	0.995635	0.622583	0.622445
	C130	C	0.013173	0.379800	0.622489
	C131	C	0.995941	0.380370	0.379535
	C132	C	0.884132	0.510500	0.122150
	C133	C	0.126071	0.491436	0.122908
	C134	C	0.124325	0.510384	0.880045
	C135	C	0.883581	0.491875	0.879299
	C136	C	0.125972	0.879826	0.507837
	C137	C	0.126492	0.122956	0.490494
	C138	C	0.882307	0.122451	0.509553
	C139	C	0.882743	0.878902	0.491645
	C140	C	0.513371	0.119525	0.878368
	C141	C	0.494568	0.120905	0.121108
	C142	C	0.512639	0.878109	0.121012
	C143	C	0.495503	0.877893	0.877356
	C144	C	0.376352	0.890131	0.682690
	C145	C	0.627205	0.110788	0.680435
	C146	C	0.628672	0.888677	0.316758
	C147	C	0.379838	0.110183	0.316617
	C148	C	0.686897	0.376950	0.889899
	C149	C	0.687151	0.624663	0.110257
	C150	C	0.321058	0.625450	0.891239
	C151	C	0.320478	0.373656	0.108955
	C152	C	0.893675	0.680778	0.378981
	C153	C	0.114737	0.684310	0.624950
	C154	C	0.893636	0.318655	0.625222
	C155	C	0.116011	0.321135	0.378550
	C156	C	0.894241	0.375802	0.683553
	C157	C	0.114216	0.627674	0.683496
	C158	C	0.894358	0.624631	0.320056
	C159	C	0.114864	0.376179	0.318166
	C160	C	0.380531	0.681749	0.890294
	C161	C	0.630666	0.683941	0.109045
	C162	C	0.628416	0.319218	0.889039
	C163	C	0.379832	0.316977	0.109382
	C164	C	0.686894	0.889181	0.374065
	C165	C	0.683891	0.111579	0.622061
	C166	C	0.321303	0.889557	0.622758
	C167	C	0.324536	0.111557	0.375791
	C168	C	0.880410	0.390824	0.182516
	C169	C	0.132437	0.610141	0.184820
	C170	C	0.129867	0.392678	0.816820
	C171	C	0.878189	0.610205	0.817118
	C172	C	0.187480	0.876034	0.390134
	C173	C	0.188012	0.125954	0.608016
	C174	C	0.820642	0.126984	0.392078
	C175	C	0.819759	0.873900	0.608457
	C176	C	0.394113	0.179580	0.876483
	C177	C	0.614213	0.181356	0.122714
	C178	C	0.394730	0.814184	0.125004
	C179	C	0.614521	0.817258	0.873987
	C180	C	0.394886	0.870200	0.184245
	C181	C	0.613671	0.123874	0.180983
	C182	C	0.394758	0.122627	0.818072
	C183	C	0.613176	0.872247	0.813775
	C184	C	0.878829	0.185469	0.392299
	C185	C	0.128743	0.182340	0.609444
	C186	C	0.130774	0.816984	0.390767
	C187	C	0.878775	0.817018	0.609226
	C188	C	0.185784	0.391520	0.875951
	C189	C	0.189593	0.610057	0.126668
	C190	C	0.824615	0.389695	0.123462
	C191	C	0.823320	0.611355	0.877127
	C192	C	0.410473	0.091965	0.595866
	C193	C	0.598117	0.907931	0.593993
	C194	C	0.599181	0.091091	0.402642
	C195	C	0.409250	0.908222	0.404436
	C196	C	0.601455	0.402382	0.091179
	C197	C	0.602486	0.595856	0.909260
	C198	C	0.410924	0.592818	0.089349
	C199	C	0.407249	0.403177	0.908669
	C200	C	0.096593	0.595971	0.404774
	C201	C	0.913321	0.595528	0.596824
	C202	C	0.096057	0.405840	0.597077
	C203	C	0.913215	0.406189	0.404788
	C204	C	0.909663	0.594098	0.097460
	C205	C	0.098408	0.409079	0.096669
	C206	C	0.097901	0.592986	0.906308
	C207	C	0.909320	0.408580	0.904600
	C208	C	0.099608	0.906433	0.589629
	C209	C	0.101083	0.098045	0.408103
	C210	C	0.907570	0.096236	0.591469
	C211	C	0.909256	0.905080	0.409616
	C212	C	0.596668	0.094614	0.903039
	C213	C	0.411502	0.094686	0.096317
	C214	C	0.594672	0.905974	0.094507
	C215	C	0.413297	0.904471	0.903866
	Zn216	Zn	0.504306	-0.001225	0.748587
	Zn217	Zn	0.502886	-0.001165	0.249175
	Zn218	Zn	0.756095	0.500164	0.000529
	Zn219	Zn	0.253527	0.500262	0.000232
	Zn220	Zn	0.004814	0.750214	0.500523
	Zn221	Zn	0.004848	0.251617	0.501006
	Zn222	Zn	0.004253	0.501752	0.750854
	Zn223	Zn	0.004491	0.501296	0.250729
	Zn224	Zn	0.505091	0.749978	-0.000550
	Zn225	Zn	0.504435	0.249035	-0.001418
	Zn226	Zn	0.752965	-0.000173	0.499698
	Zn227	Zn	0.255946	0.001120	0.498784
	N228	N	0.414259	0.965353	0.681647
	N229	N	0.591282	0.034521	0.679511
	N230	N	0.591233	0.963834	0.318303
	N231	N	0.415601	0.034244	0.317768
	N232	N	0.685766	0.412799	0.964989
	N233	N	0.685584	0.587006	0.035942
	N234	N	0.323093	0.587986	0.965520
	N235	N	0.321315	0.410264	0.034114
	N236	N	0.969000	0.679503	0.415056
	N237	N	0.039970	0.681415	0.587828
	N238	N	0.968592	0.320657	0.588206
	N239	N	0.041011	0.323430	0.415869
	N240	N	0.969792	0.412710	0.682352
	N241	N	0.039159	0.590166	0.682051
	N242	N	0.970079	0.588775	0.320385
	N243	N	0.039109	0.411847	0.318327
	N244	N	0.419390	0.678158	0.963733
	N245	N	0.594583	0.682517	0.034153
	N246	N	0.591644	0.319793	0.963885
	N247	N	0.416972	0.318949	0.034857
	N248	N	0.685228	0.964666	0.410584
	N249	N	0.682303	0.035930	0.585405
	N250	N	0.325270	0.964508	0.585049
	N251	N	0.326912	0.036566	0.413294
	N252	N	0.916382	0.466836	0.182117
	N253	N	0.093612	0.535553	0.182663
	N254	N	0.092416	0.467688	0.819247
	N255	N	0.915284	0.535081	0.818674
	N256	N	0.184706	0.914557	0.463858
	N257	N	0.186991	0.089794	0.533097
	N258	N	0.822997	0.088452	0.465803
	N259	N	0.822089	0.911673	0.534310
	N260	N	0.468902	0.177551	0.913346
	N261	N	0.539123	0.179577	0.086385
	N262	N	0.468854	0.818909	0.086342
	N263	N	0.540543	0.820540	0.912787
	N264	N	0.469158	0.909151	0.181838
	N265	N	0.538152	0.087008	0.180064
	N266	N	0.469942	0.085939	0.819044
	N267	N	0.537819	0.908880	0.815387
	N268	N	0.916438	0.182754	0.466281
	N269	N	0.091037	0.180443	0.535491
	N270	N	0.093083	0.819337	0.465044
	N271	N	0.917256	0.820105	0.535421
	N272	N	0.182303	0.465622	0.914749
	N273	N	0.185855	0.535094	0.088962
	N274	N	0.826420	0.465264	0.086816
	N275	N	0.826654	0.536520	0.915077
	O276	O	0.445815	0.354121	0.684051
	H277	H	0.435970	0.344667	0.678820
	H278	H	0.442379	0.356290	0.687935
	O279	O	0.820896	0.178004	0.820371
	H280	H	0.812357	0.191226	0.870673
	H281	H	0.870299	0.193143	0.809274
	O282	O	0.699695	0.304221	0.377769
	H283	H	0.695690	0.287426	0.382234
	H284	H	0.702851	0.308252	0.402129
	O285	O	0.589079	0.291440	0.464329
	H286	H	0.596926	0.298587	0.465741
	H287	H	0.596886	0.284812	0.455949
	O288	O	0.301640	0.383790	0.609322
	H289	H	0.304132	0.376103	0.618697
	H290	H	0.299809	0.381740	0.614340
	O291	O	0.405186	0.653655	0.601315
	H292	H	0.380947	0.665010	0.589760
	H293	H	0.419393	0.657818	0.594269
	O294	O	0.077334	-0.148609	1.067608
	H295	H	0.057472	-0.145555	1.076420
	H296	H	0.053383	-0.155369	1.075847
	O297	O	0.656082	0.510872	0.695939
	H298	H	0.649588	0.501781	0.690858
	H299	H	0.662692	0.507924	0.698627
	O300	O	0.503427	0.705714	0.689546
	H301	H	0.520126	0.713887	0.676560
	H302	H	0.500482	0.725616	0.697394
	O303	O	0.529412	0.516640	0.487469
	H304	H	0.512390	0.514174	0.465311
	H305	H	0.515340	0.497614	0.505834
	O306	O	0.715757	0.477073	0.325585
	H307	H	0.717363	0.450324	0.324180
	H308	H	0.726251	0.463204	0.305368
	O309	O	0.787022	0.773478	0.196819
	H310	H	0.772608	0.808971	0.206456
	H311	H	0.775546	0.766685	0.164145
	O312	O	-0.010746	0.787373	0.962336
	H313	H	-0.028578	0.783473	0.947670
	H314	H	-0.027656	0.789253	0.958551
	O315	O	0.222860	0.218734	0.784949
	H316	H	0.208729	0.224061	0.798450
	H317	H	0.220827	0.201512	0.788292
	O318	O	1.034194	-0.050091	0.141257
	H319	H	1.040368	-0.071811	0.128610
	H320	H	1.060421	-0.041125	0.145092
	O321	O	-0.055958	-0.012753	0.004787
	H322	H	-0.042101	-0.008302	0.013891
	H323	H	-0.054454	-0.028899	0.022854
	O324	O	0.528896	0.292047	0.294395
	H325	H	0.534093	0.274671	0.273158
	H326	H	0.552228	0.294042	0.295183
	O327	O	0.645661	0.452706	0.301859
	H328	H	0.655321	0.448562	0.285345
	H329	H	0.662518	0.443068	0.315582
	O330	O	-0.198071	1.004179	-0.004630
	H331	H	-0.202192	0.984997	-0.010550
	H332	H	-0.188878	0.994076	0.001363
	O333	O	0.354489	0.467802	0.396597
	H334	H	0.355199	0.460362	0.378796
	H335	H	0.343764	0.446881	0.408073
	O336	O	-0.107977	0.146832	0.081964
	H337	H	-0.106052	0.150058	0.104865
	H338	H	-0.099622	0.111821	0.086405
	O339	O	0.198093	0.994979	0.788069
	H340	H	0.204389	0.954594	0.786946
	H341	H	0.199638	0.987307	0.780830
	O342	O	0.214289	1.019481	1.212803
	H343	H	0.228018	0.997188	1.190769
	H344	H	0.231756	1.013895	1.229049
	O345	O	1.184416	1.182461	0.188616
	H346	H	1.196075	1.132452	0.198180
	H347	H	1.196505	1.192288	0.139555
	O348	O	0.487866	0.536452	0.679730
	H349	H	0.498136	0.527316	0.669347
	H350	H	0.500880	0.560181	0.683191
	O351	O	0.212963	1.196122	1.019470
	H352	H	0.190636	1.196215	1.001484
	H353	H	0.236808	1.224613	1.007959
	O354	O	0.221883	0.944803	0.056851
	H355	H	0.217141	0.967032	0.037398
	H356	H	0.215925	0.910021	0.043752
	O357	O	-0.146921	0.142176	1.196918
	H358	H	-0.128441	0.143538	1.183483
	H359	H	-0.130430	0.126360	1.180929
	O360	O	0.583306	0.637509	0.376569
	H361	H	0.587829	0.646635	0.354111
	H362	H	0.562485	0.636263	0.386747
	O363	O	-0.307052	0.648878	0.684918
	H364	H	-0.324439	0.629389	0.692347
	H365	H	-0.303322	0.642824	0.661499
	O366	O	-0.020050	1.211418	-0.209908
	H367	H	-0.009850	1.214221	-0.227844
	H368	H	-0.001256	1.206145	-0.219790
	O369	O	0.332575	0.692142	0.472639
	H370	H	0.335940	0.682907	0.475620
	H371	H	0.328023	0.693231	0.474244
	O372	O	1.196504	-0.209504	0.985212
	H373	H	1.206893	-0.227637	1.000971
	H374	H	1.176894	-0.222918	1.004511
	O375	O	0.497635	0.589595	0.399708
	H376	H	0.483713	0.598932	0.415763
	H377	H	0.511372	0.600252	0.401424
	O378	O	0.792216	0.805955	1.017000
	H379	H	0.779650	0.816289	0.998937
	H380	H	0.769245	0.796424	1.031495
	O381	O	0.457945	0.432415	0.426443
	H382	H	0.454747	0.433140	0.426159
	H383	H	0.466716	0.443173	0.413000
	O384	O	1.172931	0.053851	-0.033556
	H385	H	1.172102	0.057927	-0.054787
	H386	H	1.179508	0.071851	-0.040404
	O387	O	-0.021016	-0.219601	1.220836
	H388	H	-0.027042	-0.253247	1.255337
	H389	H	-0.054662	-0.203168	1.210670
	O390	O	0.071107	0.222333	-0.045197
	H391	H	0.058249	0.221496	-0.025737
	H392	H	0.051704	0.216114	-0.059167
	O393	O	0.939038	0.901309	0.845165
	H394	H	0.915010	0.899070	0.848771
	H395	H	0.930547	0.911788	0.843796
	O396	O	0.790116	-0.031201	0.206157
	H397	H	0.766877	-0.032574	0.238778
	H398	H	0.823720	-0.019356	0.214277
	O399	O	0.554520	0.434442	0.421999
	H400	H	0.556146	0.434809	0.411572
	H401	H	0.558681	0.427801	0.430893
	O402	O	1.042651	0.787936	0.793098
	H403	H	1.043498	0.772944	0.772305
	H404	H	1.026686	0.796064	0.780208
	O405	O	0.840269	0.923089	-0.127396
	H406	H	0.843673	0.941448	-0.141971
	H407	H	0.850267	0.941826	-0.126562
	O408	O	1.176575	-0.158667	-0.154743
	H409	H	1.143619	-0.172661	-0.163714
	H410	H	1.190585	-0.169684	-0.114131
	O411	O	1.579684	1.625911	0.556325
	H412	H	1.595552	1.617569	0.571933
	H413	H	1.583483	1.642434	0.544939
	O414	O	0.609573	0.416047	0.517245
	H415	H	0.601356	0.426210	0.522928
	H416	H	0.602398	0.410674	0.513585
	O417	O	0.078118	0.088329	-0.215074
	H418	H	0.095520	0.083162	-0.216544
	H419	H	0.077252	0.061780	-0.213325
	O420	O	0.699430	0.703249	0.552201
	H421	H	0.702965	0.700634	0.553034
	H422	H	0.703327	0.715043	0.550652
	O423	O	0.656512	0.436074	0.594985
	H424	H	0.651406	0.426352	0.586948
	H425	H	0.645334	0.454409	0.583628
	O426	O	0.385878	0.677173	0.354078
	H427	H	0.385481	0.667427	0.342177
	H428	H	0.377881	0.674371	0.376026
	O429	O	0.366227	0.336714	0.506868
	H430	H	0.384419	0.320667	0.513466
	H431	H	0.356789	0.342278	0.526733
	O432	O	0.301420	0.345861	0.697806
	H433	H	0.286280	0.340385	0.706013
	H434	H	0.303787	0.353209	0.703475
	O435	O	-0.200306	0.204096	0.983505
	H436	H	-0.198568	0.175151	1.003999
	H437	H	-0.221639	0.213570	0.990821
	O438	O	0.020444	0.036488	-0.009627
	H439	H	0.026969	0.035898	0.002679
	H440	H	0.039358	0.024243	-0.024945
	O441	O	0.781454	0.021400	-0.221616
	H442	H	0.792541	0.070812	-0.208475
	H443	H	0.745581	0.030953	-0.256472
	O444	O	-0.015920	1.012938	1.222539
	H445	H	-0.004421	1.006779	1.217505
	H446	H	-0.005578	1.024291	1.230708
	O447	O	1.020837	0.210686	1.220248
	H448	H	1.045311	0.227122	1.225666
	H449	H	1.052143	0.219464	1.227762
	O450	O	0.302407	0.580445	0.300824
	H451	H	0.303441	0.583744	0.294047
	H452	H	0.293634	0.564858	0.295870
	O453	O	0.347577	0.515647	0.480294
	H454	H	0.350272	0.503263	0.478987
	H455	H	0.347960	0.490722	0.482422
