data_Molecule from HDF5

_cell_length_a		16.610623
_cell_length_b		16.574292
_cell_length_c		16.551826
_cell_angle_alpha	89.951601
_cell_angle_beta	90.065758
_cell_angle_gamma	90.089074
_symmetry_space_group_name_H-M	'P 1'
_symmetry_Int_Tables_number		1

loop_
	_symmetry_equiv_pos_as_xyz
	x,y,z

loop_
	_atom_site_label
	_atom_site_type_symbol
	_atom_site_fract_x
	_atom_site_fract_y
	_atom_site_fract_z
	H0	H	0.393601	0.847074	0.720903
	H1	H	0.601867	0.161204	0.722391
	H2	H	0.603873	0.849734	0.279335
	H3	H	0.392667	0.160905	0.277993
	H4	H	0.717676	0.402397	0.843617
	H5	H	0.717161	0.607709	0.158220
	H6	H	0.274600	0.611287	0.845839
	H7	H	0.273275	0.395472	0.155450
	H8	H	0.841754	0.726143	0.398226
	H9	H	0.153445	0.729068	0.609595
	H10	H	0.840765	0.286181	0.604459
	H11	H	0.155268	0.287301	0.400580
	H12	H	0.839885	0.404121	0.719041
	H13	H	0.153259	0.611459	0.725016
	H14	H	0.841792	0.609243	0.281177
	H15	H	0.154404	0.401876	0.281916
	H16	H	0.393063	0.725608	0.844329
	H17	H	0.601327	0.724992	0.157501
	H18	H	0.600038	0.287027	0.842938
	H19	H	0.391554	0.282278	0.156547
	H20	H	0.719817	0.849533	0.396218
	H21	H	0.718826	0.161704	0.605933
	H22	H	0.275874	0.848240	0.606144
	H23	H	0.275669	0.160740	0.393039
	H24	H	0.895475	0.348619	0.221280
	H25	H	0.104815	0.660905	0.223991
	H26	H	0.102531	0.348807	0.780270
	H27	H	0.893626	0.662343	0.780721
	H28	H	0.217839	0.900857	0.344649
	H29	H	0.220384	0.110520	0.658045
	H30	H	0.779810	0.108097	0.344949
	H31	H	0.777071	0.901008	0.658273
	H32	H	0.342323	0.229957	0.891700
	H33	H	0.653704	0.225269	0.103838
	H34	H	0.343233	0.781123	0.107939
	H35	H	0.653142	0.782773	0.894856
	H36	H	0.342613	0.898294	0.223568
	H37	H	0.653027	0.108557	0.220402
	H38	H	0.341163	0.110883	0.777973
	H39	H	0.655074	0.902999	0.782217
	H40	H	0.897611	0.223264	0.344611
	H41	H	0.102518	0.225062	0.659262
	H42	H	0.102560	0.783781	0.345873
	H43	H	0.893069	0.784218	0.658872
	H44	H	0.219971	0.349900	0.894572
	H45	H	0.223103	0.659556	0.109959
	H46	H	0.779649	0.347489	0.103953
	H47	H	0.778348	0.662750	0.897666
	H48	H	0.408248	0.116334	0.589168
	H49	H	0.588717	0.892139	0.592138
	H50	H	0.588255	0.116708	0.413923
	H51	H	0.409877	0.892025	0.409078
	H52	H	0.585469	0.409119	0.114555
	H53	H	0.590027	0.594353	0.887603
	H54	H	0.411936	0.589088	0.111285
	H55	H	0.414007	0.415271	0.890448
	H56	H	0.110251	0.597936	0.415348
	H57	H	0.883997	0.598785	0.593682
	H58	H	0.112851	0.412498	0.596940
	H59	H	0.885285	0.413572	0.410619
	H60	H	0.109513	0.412338	0.587809
	H61	H	0.887538	0.595923	0.586112
	H62	H	0.107475	0.591979	0.415425
	H63	H	0.886418	0.413801	0.413702
	H64	H	0.412469	0.594622	0.112782
	H65	H	0.587443	0.592349	0.889704
	H66	H	0.594204	0.414488	0.115832
	H67	H	0.405796	0.417559	0.887938
	H68	H	0.589551	0.118647	0.410091
	H69	H	0.585418	0.893763	0.591300
	H70	H	0.410627	0.115638	0.590375
	H71	H	0.412227	0.895628	0.414033
	H72	H	0.908972	0.618169	0.091826
	H73	H	0.079958	0.396619	0.086646
	H74	H	0.087107	0.616985	0.913393
	H75	H	0.907389	0.394353	0.915307
	H76	H	0.087807	0.920642	0.612437
	H77	H	0.087211	0.101912	0.387868
	H78	H	0.907108	0.097387	0.616392
	H79	H	0.904855	0.922240	0.390809
	H80	H	0.608279	0.097087	0.913272
	H81	H	0.385063	0.092290	0.092092
	H82	H	0.610253	0.915824	0.091877
	H83	H	0.386648	0.914397	0.915393
	H84	H	0.608368	0.913915	0.085747
	H85	H	0.383942	0.097352	0.087094
	H86	H	0.607624	0.093475	0.912352
	H87	H	0.386458	0.919102	0.910141
	H88	H	0.906681	0.093968	0.615607
	H89	H	0.093023	0.092724	0.387918
	H90	H	0.083709	0.918081	0.612772
	H91	H	0.915515	0.916293	0.391636
	H92	H	0.083546	0.615006	0.914165
	H93	H	0.090580	0.393703	0.085949
	H94	H	0.906402	0.617482	0.090009
	H95	H	0.903361	0.391123	0.909241
	H96	H	0.410140	0.115591	0.587400
	H97	H	0.588316	0.893878	0.588539
	H98	H	0.585188	0.116641	0.410585
	H99	H	0.406065	0.893079	0.414635
	H100	H	0.585892	0.419022	0.111821
	H101	H	0.586475	0.596258	0.888260
	H102	H	0.407551	0.592150	0.112947
	H103	H	0.410857	0.423775	0.892385
	H104	H	0.109964	0.594013	0.410129
	H105	H	0.887649	0.590712	0.592972
	H106	H	0.109022	0.420359	0.592802
	H107	H	0.886477	0.416765	0.411735
	H108	H	0.906206	0.619189	0.092680
	H109	H	0.085446	0.392253	0.095916
	H110	H	0.086806	0.615154	0.916322
	H111	H	0.910815	0.393605	0.907997
	H112	H	0.087962	0.916683	0.614462
	H113	H	0.083050	0.092912	0.392610
	H114	H	0.909578	0.095404	0.614834
	H115	H	0.906049	0.910516	0.386712
	H116	H	0.608948	0.095767	0.909667
	H117	H	0.387314	0.091508	0.085427
	H118	H	0.607319	0.920314	0.088273
	H119	H	0.384408	0.912768	0.909517
	C120	C	0.376984	0.012546	0.621788
	C121	C	0.618958	0.996616	0.622434
	C122	C	0.619758	0.014153	0.379295
	C123	C	0.377090	0.996802	0.379644
	C124	C	0.619504	0.383622	0.009560
	C125	C	0.619635	0.626361	0.992182
	C126	C	0.377221	0.625453	0.009509
	C127	C	0.376687	0.384393	0.992667
	C128	C	0.005988	0.626560	0.381429
	C129	C	0.989512	0.627585	0.623937
	C130	C	0.006227	0.384338	0.622807
	C131	C	0.989763	0.383768	0.380714
	C132	C	0.876487	0.514201	0.123034
	C133	C	0.119333	0.496806	0.122775
	C134	C	0.118265	0.513093	0.881113
	C135	C	0.875991	0.496934	0.879637
	C136	C	0.118833	0.885055	0.510258
	C137	C	0.120357	0.127558	0.493062
	C138	C	0.877060	0.126612	0.511335
	C139	C	0.876478	0.884044	0.493455
	C140	C	0.505559	0.127624	0.878226
	C141	C	0.488474	0.125921	0.120886
	C142	C	0.506159	0.883528	0.121949
	C143	C	0.489522	0.883986	0.879882
	C144	C	0.374880	0.894491	0.681534
	C145	C	0.620503	0.114606	0.682112
	C146	C	0.621984	0.896576	0.319589
	C147	C	0.374460	0.114146	0.318471
	C148	C	0.677983	0.383399	0.890836
	C149	C	0.678029	0.627057	0.110879
	C150	C	0.315874	0.628791	0.892261
	C151	C	0.314584	0.378803	0.109188
	C152	C	0.888458	0.686077	0.379465
	C153	C	0.106560	0.688643	0.627455
	C154	C	0.887792	0.325802	0.623196
	C155	C	0.107973	0.325907	0.380474
	C156	C	0.887340	0.384320	0.680194
	C157	C	0.106850	0.629987	0.684635
	C158	C	0.888453	0.628021	0.321516
	C159	C	0.107653	0.383380	0.322048
	C160	C	0.374665	0.685596	0.891386
	C161	C	0.620536	0.685170	0.110550
	C162	C	0.619564	0.326117	0.890437
	C163	C	0.373356	0.322512	0.109745
	C164	C	0.679530	0.896473	0.377783
	C165	C	0.678794	0.114701	0.624709
	C166	C	0.316426	0.895125	0.624278
	C167	C	0.316325	0.113930	0.375731
	C168	C	0.876338	0.395555	0.181579
	C169	C	0.122836	0.613777	0.183952
	C170	C	0.120821	0.395856	0.820371
	C171	C	0.874918	0.615308	0.820643
	C172	C	0.178332	0.882256	0.392056
	C173	C	0.180540	0.129225	0.611078
	C174	C	0.819262	0.127032	0.392144
	C175	C	0.817123	0.882403	0.611548
	C176	C	0.388732	0.188608	0.874458
	C177	C	0.606608	0.185371	0.122594
	C178	C	0.389592	0.821956	0.125563
	C179	C	0.606609	0.823669	0.877061
	C180	C	0.389293	0.880192	0.183054
	C181	C	0.606448	0.127335	0.180338
	C182	C	0.388123	0.129546	0.817713
	C183	C	0.607523	0.883181	0.820825
	C184	C	0.877542	0.184313	0.392086
	C185	C	0.121972	0.186045	0.611653
	C186	C	0.120962	0.824186	0.392683
	C187	C	0.874749	0.824489	0.611721
	C188	C	0.179170	0.396231	0.877231
	C189	C	0.181603	0.613195	0.127093
	C190	C	0.818767	0.395190	0.123409
	C191	C	0.817571	0.615440	0.878689
	C192	C	0.402466	0.094660	0.596189
	C193	C	0.594531	0.914795	0.597613
	C194	C	0.594786	0.096153	0.404483
	C195	C	0.402207	0.914965	0.405216
	C196	C	0.595345	0.407193	0.092420
	C197	C	0.594947	0.601535	0.909870
	C198	C	0.403197	0.599503	0.091044
	C199	C	0.402697	0.411470	0.911469
	C200	C	0.087934	0.601802	0.406405
	C201	C	0.907747	0.602346	0.598440
	C202	C	0.088921	0.408280	0.599410
	C203	C	0.907328	0.407930	0.405035
	C204	C	0.900393	0.596791	0.098755
	C205	C	0.093036	0.415274	0.096751
	C206	C	0.093095	0.594447	0.907290
	C207	C	0.900325	0.414409	0.903973
	C208	C	0.093676	0.910859	0.591925
	C209	C	0.095093	0.102877	0.411028
	C210	C	0.901037	0.102535	0.594203
	C211	C	0.901495	0.909099	0.411065
	C212	C	0.587091	0.102474	0.904306
	C213	C	0.406696	0.100936	0.095524
	C214	C	0.587464	0.909337	0.096100
	C215	C	0.407408	0.908508	0.904824
	Zn216	Zn	0.496984	0.004483	0.750739
	Zn217	Zn	0.497763	0.004725	0.250504
	Zn218	Zn	0.748076	0.505129	0.001397
	Zn219	Zn	0.247953	0.504357	0.001485
	Zn220	Zn	-0.002097	0.756330	0.502472
	Zn221	Zn	-0.001808	0.255077	0.502445
	Zn222	Zn	-0.002268	0.505387	0.751760
	Zn223	Zn	-0.001836	0.505612	0.251688
	Zn224	Zn	0.497920	0.754447	0.000658
	Zn225	Zn	0.496696	0.255820	0.000080
	Zn226	Zn	0.748114	0.005651	0.501942
	Zn227	Zn	0.247862	0.005437	0.500883
	N228	N	0.411676	0.968775	0.680070
	N229	N	0.584209	0.040224	0.681200
	N230	N	0.585360	0.970746	0.320545
	N231	N	0.411756	0.040275	0.320780
	N232	N	0.678338	0.418284	0.966051
	N233	N	0.677857	0.591652	0.036047
	N234	N	0.317106	0.592292	0.966691
	N235	N	0.316703	0.416838	0.035498
	N236	N	0.962656	0.685260	0.416109
	N237	N	0.032645	0.687284	0.590488
	N238	N	0.962874	0.325572	0.588546
	N239	N	0.033556	0.326087	0.416303
	N240	N	0.962102	0.419876	0.680452
	N241	N	0.032827	0.592994	0.682758
	N242	N	0.962734	0.591986	0.322465
	N243	N	0.032874	0.418403	0.321893
	N244	N	0.411934	0.683758	0.965422
	N245	N	0.585029	0.685032	0.035556
	N246	N	0.584040	0.326017	0.965302
	N247	N	0.411371	0.325874	0.036172
	N248	N	0.678417	0.970757	0.414311
	N249	N	0.677914	0.040410	0.588245
	N250	N	0.317708	0.969570	0.587792
	N251	N	0.317755	0.040036	0.413203
	N252	N	0.911348	0.470616	0.181501
	N253	N	0.084839	0.540264	0.181440
	N254	N	0.083548	0.469666	0.822565
	N255	N	0.910273	0.540480	0.820865
	N256	N	0.177222	0.919377	0.466149
	N257	N	0.180010	0.093943	0.535977
	N258	N	0.818583	0.092193	0.467414
	N259	N	0.817938	0.918520	0.536804
	N260	N	0.462735	0.187479	0.911437
	N261	N	0.532205	0.184704	0.086232
	N262	N	0.463349	0.823804	0.088241
	N263	N	0.532166	0.823954	0.913007
	N264	N	0.462913	0.917741	0.180968
	N265	N	0.532072	0.091238	0.179465
	N266	N	0.461813	0.092228	0.819968
	N267	N	0.533487	0.919948	0.822491
	N268	N	0.912545	0.184331	0.467359
	N269	N	0.085477	0.185501	0.537278
	N270	N	0.084948	0.825474	0.467254
	N271	N	0.910828	0.825378	0.537178
	N272	N	0.177862	0.470240	0.914327
	N273	N	0.179437	0.539441	0.089671
	N274	N	0.818497	0.470041	0.087818
	N275	N	0.817550	0.540466	0.914177
	O276	O	-0.196679	0.748363	-0.195317
	H277	H	-0.214742	0.754694	-0.216106
	H278	H	-0.206464	0.758199	-0.196358
	O279	O	0.504072	0.723262	0.663573
	H280	H	0.497347	0.731152	0.667074
	H281	H	0.485209	0.709064	0.683120
	O282	O	0.803983	0.160547	1.193255
	H283	H	0.824528	0.151220	1.174863
	H284	H	0.815353	0.144796	1.177044
	O285	O	-0.005558	0.078276	0.003280
	H286	H	0.000531	0.075923	0.003610
	H287	H	-0.001592	0.080638	0.002036
	O288	O	0.280746	0.715937	0.462510
	H289	H	0.293397	0.709496	0.487953
	H290	H	0.257692	0.737258	0.469870
	O291	O	0.284003	0.287967	0.535129
	H292	H	0.274896	0.269830	0.523481
	H293	H	0.289654	0.278220	0.530258
	O294	O	1.210943	-0.205415	0.904483
	H295	H	1.193518	-0.213926	0.882195
	H296	H	1.224940	-0.220500	0.924778
	O297	O	0.617278	0.472859	0.409948
	H298	H	0.615973	0.474908	0.410244
	H299	H	0.615979	0.465630	0.401925
	O300	O	0.067899	0.054889	0.790249
	H301	H	0.055611	0.079882	0.800941
	H302	H	0.053697	0.061864	0.783809
	O303	O	0.496338	0.634720	0.347107
	H304	H	0.490245	0.663458	0.334059
	H305	H	0.481115	0.630229	0.367537
	O306	O	0.723145	0.280877	0.280024
	H307	H	0.679918	0.286963	0.279014
	H308	H	0.750371	0.248787	0.249699
	O309	O	0.691473	0.698285	0.544571
	H310	H	0.707293	0.706548	0.534239
	H311	H	0.693406	0.692021	0.537476
	O312	O	0.718218	0.542955	0.719059
	H313	H	0.724877	0.567461	0.725333
	H314	H	0.731178	0.555154	0.734444
	O315	O	1.007086	0.862628	1.079783
	H316	H	0.985171	0.876222	1.069710
	H317	H	1.012001	0.845548	1.085932
	O318	O	0.497681	0.285235	0.469411
	H319	H	0.508799	0.290523	0.469913
	H320	H	0.499363	0.291661	0.450789
	O321	O	0.185081	0.703264	0.685571
	H322	H	0.181825	0.691310	0.683814
	H323	H	0.177566	0.699705	0.689838
	O324	O	0.800386	0.962342	0.202570
	H325	H	0.794516	0.936809	0.195581
	H326	H	0.780722	0.949705	0.219706
	O327	O	-0.043640	0.123633	1.046092
	H328	H	-0.028623	0.131603	1.039314
	H329	H	-0.036260	0.125769	1.046658
	O330	O	0.719141	0.281185	0.464979
	H331	H	0.713303	0.287844	0.419458
	H332	H	0.750265	0.249809	0.458399
	O333	O	0.465576	0.292342	0.712781
	H334	H	0.479791	0.285200	0.718109
	H335	H	0.467757	0.280539	0.712841
	O336	O	0.529294	0.728265	0.473209
	H337	H	0.537515	0.721325	0.482481
	H338	H	0.528639	0.725934	0.480396
	O339	O	1.081022	-0.083582	0.786875
	H340	H	1.082576	-0.055699	0.780472
	H341	H	1.081867	-0.074965	0.787651
	O342	O	0.046928	0.223856	-0.040289
	H343	H	0.045567	0.215583	-0.058716
	H344	H	0.057556	0.227356	-0.032281
	O345	O	0.121699	0.776841	1.019785
	H346	H	0.141239	0.766886	1.024109
	H347	H	0.120091	0.776424	1.041290
	O348	O	0.291677	-0.282663	0.291916
	H349	H	0.270603	-0.265656	0.302890
	H350	H	0.300494	-0.295735	0.309878
	O351	O	0.786196	0.795644	0.210130
	H352	H	0.755390	0.762240	0.242866
	H353	H	0.808720	0.798143	0.194957
	O354	O	0.216669	-0.033403	1.042053
	H355	H	0.221615	-0.029123	1.016425
	H356	H	0.223388	-0.038613	1.053480
	O357	O	0.719480	0.465744	0.280972
	H358	H	0.723775	0.449593	0.272794
	H359	H	0.738935	0.456713	0.267241
	O360	O	0.301259	0.312086	0.699844
	H361	H	0.318227	0.301001	0.693293
	H362	H	0.311843	0.316737	0.682127
	O363	O	-0.027412	-0.077772	0.218072
	H364	H	-0.032971	-0.087495	0.220977
	H365	H	-0.014375	-0.083746	0.210698
	O366	O	0.686931	0.693152	0.312669
	H367	H	0.664912	0.678376	0.331762
	H368	H	0.669088	0.673834	0.329069
	O369	O	0.347391	0.440164	0.378885
	H370	H	0.337635	0.420310	0.373367
	H371	H	0.333982	0.445151	0.369884
	O372	O	0.777865	0.938476	-0.049384
	H373	H	0.783403	0.938481	-0.044966
	H374	H	0.775636	0.921821	-0.031310
	O375	O	0.779030	0.066383	0.052785
	H376	H	0.779552	0.081731	0.041436
	H377	H	0.785563	0.050681	0.050960
	O378	O	0.576893	0.302020	0.370768
	H379	H	0.567977	0.298831	0.358603
	H380	H	0.564417	0.320442	0.350095
	O381	O	0.169965	1.159715	0.824140
	H382	H	0.156726	1.161487	0.844108
	H383	H	0.163809	1.168387	0.809454
	O384	O	1.129273	-0.137225	1.198471
	H385	H	1.112650	-0.144500	1.187188
	H386	H	1.128237	-0.129796	1.195684
	O387	O	0.785048	1.046124	-0.199318
	H388	H	0.770532	1.020212	-0.187531
	H389	H	0.787698	1.031211	-0.202657
	O390	O	0.573923	0.601446	0.680729
	H391	H	0.567044	0.599137	0.671850
	H392	H	0.547483	0.604131	0.671780
	O393	O	0.353231	0.368241	0.282581
	H394	H	0.348640	0.354243	0.270922
	H395	H	0.353273	0.374813	0.285559
	O396	O	-0.071179	0.937395	1.036424
	H397	H	-0.070281	0.948351	1.041791
	H398	H	-0.071928	0.940023	1.042930
	O399	O	-0.223975	-0.210721	1.030549
	H400	H	-0.232772	-0.224646	1.056078
	H401	H	-0.217350	-0.226284	1.024556
	O402	O	0.549595	0.464682	0.508597
	H403	H	0.561871	0.449285	0.504143
	H404	H	0.535053	0.474140	0.505687
	O405	O	1.082507	0.028199	1.059079
	H406	H	1.082638	0.035300	1.048021
	H407	H	1.071392	0.029523	1.069154
	O408	O	0.213931	-0.013505	0.116081
	H409	H	0.227179	-0.025737	0.112267
	H410	H	0.205780	-0.017773	0.106421
	O411	O	0.389553	0.575369	0.601324
	H412	H	0.388250	0.590107	0.620389
	H413	H	0.393852	0.557017	0.604040
	O414	O	0.682018	0.326129	0.683028
	H415	H	0.673464	0.343310	0.661556
	H416	H	0.666442	0.323618	0.678616
	O417	O	0.347382	0.478761	0.501417
	H418	H	0.342390	0.466265	0.510789
	H419	H	0.353991	0.491772	0.508934
	O420	O	0.283227	0.485926	0.685135
	H421	H	0.267854	0.475273	0.689034
	H422	H	0.284233	0.452443	0.682400
	O423	O	0.393547	-0.346128	0.548129
	H424	H	0.397365	-0.339449	0.535238
	H425	H	0.389399	-0.364756	0.552113
	O426	O	0.205583	0.208761	0.118906
	H427	H	0.205429	0.200559	0.132906
	H428	H	0.203868	0.220395	0.117354
	O429	O	0.960889	1.226990	0.781234
	H430	H	0.927398	1.235047	0.779636
	H431	H	0.944435	1.242279	0.760806
	O432	O	0.672382	0.587310	0.397325
	H433	H	0.666125	0.579569	0.415463
	H434	H	0.676432	0.564407	0.389099
	O435	O	-0.040258	0.902013	-0.124233
	H436	H	-0.048396	0.884684	-0.128862
	H437	H	-0.022054	0.917261	-0.123024
	O438	O	-0.011115	0.068773	0.117013
	H439	H	0.002970	0.077310	0.111650
	H440	H	-0.024221	0.075093	0.105636
	O441	O	0.063349	-0.026825	0.096349
	H442	H	0.065497	-0.026796	0.075390
	H443	H	0.052460	-0.035710	0.091744
	O444	O	0.706129	0.467127	0.553465
	H445	H	0.712029	0.459480	0.568229
	H446	H	0.712079	0.471205	0.555019
	O447	O	0.041541	1.221527	1.219904
	H448	H	0.044945	1.232999	1.235733
	H449	H	0.030891	1.212147	1.223164
	O450	O	0.154821	1.121547	0.985072
	H451	H	0.145973	1.107038	0.972882
	H452	H	0.174451	1.131398	0.994912
	O453	O	0.399485	0.593406	0.713658
	H454	H	0.404888	0.569819	0.708034
	H455	H	0.386260	0.583954	0.711578
	O456	O	0.180598	-0.129585	0.787593
	H457	H	0.173597	-0.146778	0.805656
	H458	H	0.192219	-0.130127	0.758201
	O459	O	0.943647	0.793462	-0.053470
	H460	H	0.947115	0.800661	-0.046126
	H461	H	0.943778	0.797231	-0.063995
	O462	O	0.531185	0.574261	0.338965
	H463	H	0.514220	0.597174	0.326511
	H464	H	0.544167	0.565737	0.349108
	O465	O	1.196171	0.089475	0.190858
	H466	H	1.200222	0.073463	0.194985
	H467	H	1.186690	0.087272	0.194776
	O468	O	0.288081	0.525083	0.281480
	H469	H	0.278057	0.546151	0.275228
	H470	H	0.280256	0.532599	0.281527
	O471	O	0.458342	0.415406	0.459747
	H472	H	0.478156	0.410321	0.455441
	H473	H	0.457764	0.414398	0.460908
	O474	O	0.423034	0.430461	0.350414
	H475	H	0.402531	0.427537	0.339538
	H476	H	0.442544	0.451793	0.356074
	O477	O	0.493633	0.521085	1.450968
	H478	H	0.489340	0.520291	1.436395
	H479	H	0.482734	0.513362	1.462430
	O480	O	0.542037	0.461035	0.721511
	H481	H	0.545310	0.462457	0.723927
	H482	H	0.550338	0.459018	0.717244
	O483	O	0.903176	0.940159	0.804423
	H484	H	0.880194	0.924641	0.788779
	H485	H	0.913795	0.948947	0.802386
	O486	O	0.790778	0.215817	0.794361
	H487	H	0.768827	0.214021	0.774131
	H488	H	0.782682	0.187480	0.806907
	O489	O	0.777668	1.224589	-0.037157
	H490	H	0.753449	1.247006	-0.047264
	H491	H	0.782194	1.220002	-0.044707
