data_Molecule from HDF5

_cell_length_a		16.560726
_cell_length_b		16.745541
_cell_length_c		16.607657
_cell_angle_alpha	90.033811
_cell_angle_beta	89.897065
_cell_angle_gamma	90.056503
_symmetry_space_group_name_H-M	'P 1'
_symmetry_Int_Tables_number		1

loop_
	_symmetry_equiv_pos_as_xyz
	x,y,z

loop_
	_atom_site_label
	_atom_site_type_symbol
	_atom_site_fract_x
	_atom_site_fract_y
	_atom_site_fract_z
	H0	H	0.395905	0.844721	0.716849
	H1	H	0.612701	0.150163	0.720164
	H2	H	0.613400	0.846957	0.269094
	H3	H	0.398182	0.153081	0.272057
	H4	H	0.723570	0.395463	0.837466
	H5	H	0.720382	0.599040	0.152562
	H6	H	0.284168	0.602716	0.839246
	H7	H	0.282318	0.394511	0.150183
	H8	H	0.847564	0.716875	0.391875
	H9	H	0.160045	0.718997	0.598075
	H10	H	0.848764	0.276243	0.602003
	H11	H	0.158947	0.277349	0.388141
	H12	H	0.847037	0.395689	0.713153
	H13	H	0.161454	0.601744	0.712626
	H14	H	0.846134	0.600061	0.277879
	H15	H	0.158489	0.391801	0.272213
	H16	H	0.397330	0.721764	0.840954
	H17	H	0.607733	0.718103	0.151553
	H18	H	0.609821	0.276736	0.838902
	H19	H	0.396826	0.276412	0.149507
	H20	H	0.729118	0.846922	0.385810
	H21	H	0.731780	0.148681	0.605986
	H22	H	0.280442	0.845250	0.599978
	H23	H	0.281401	0.152855	0.388965
	H24	H	0.899316	0.342954	0.214794
	H25	H	0.109964	0.651502	0.217587
	H26	H	0.111939	0.345252	0.771071
	H27	H	0.902784	0.654481	0.777065
	H28	H	0.224853	0.894646	0.338794
	H29	H	0.224427	0.103268	0.649996
	H30	H	0.780640	0.105609	0.340970
	H31	H	0.780628	0.891171	0.648905
	H32	H	0.348465	0.220356	0.887125
	H33	H	0.658871	0.221313	0.101116
	H34	H	0.348570	0.777283	0.102381
	H35	H	0.659552	0.777495	0.888449
	H36	H	0.348265	0.894691	0.216440
	H37	H	0.660085	0.103326	0.214290
	H38	H	0.347283	0.102144	0.773882
	H39	H	0.657327	0.891327	0.770035
	H40	H	0.893528	0.224403	0.342435
	H41	H	0.111402	0.221131	0.649444
	H42	H	0.111629	0.776036	0.339914
	H43	H	0.894776	0.773233	0.647974
	H44	H	0.226411	0.344500	0.888623
	H45	H	0.225523	0.651709	0.100796
	H46	H	0.783941	0.342290	0.097690
	H47	H	0.785902	0.654323	0.894177
	H48	H	0.421170	0.107339	0.584507
	H49	H	0.589049	0.889019	0.582121
	H50	H	0.594487	0.111230	0.404897
	H51	H	0.416184	0.889543	0.407149
	H52	H	0.585346	0.409067	0.103053
	H53	H	0.598542	0.587577	0.881257
	H54	H	0.416722	0.590494	0.106236
	H55	H	0.419254	0.406112	0.882688
	H56	H	0.113950	0.584230	0.408043
	H57	H	0.890543	0.593193	0.581507
	H58	H	0.115088	0.411286	0.581001
	H59	H	0.892593	0.408363	0.412665
	H60	H	0.116227	0.409832	0.584450
	H61	H	0.894715	0.582868	0.581493
	H62	H	0.118037	0.586667	0.401205
	H63	H	0.892738	0.414434	0.404552
	H64	H	0.412902	0.588312	0.107817
	H65	H	0.590176	0.587619	0.884801
	H66	H	0.593494	0.402014	0.108611
	H67	H	0.411264	0.408251	0.880974
	H68	H	0.586581	0.106682	0.406024
	H69	H	0.589488	0.889546	0.579301
	H70	H	0.410629	0.109130	0.579327
	H71	H	0.412927	0.888090	0.404913
	H72	H	0.915229	0.608788	0.087298
	H73	H	0.091297	0.387796	0.084365
	H74	H	0.095864	0.609221	0.904313
	H75	H	0.914327	0.386013	0.900911
	H76	H	0.094303	0.911440	0.606088
	H77	H	0.093582	0.087275	0.383028
	H78	H	0.920562	0.085242	0.603684
	H79	H	0.914448	0.909341	0.382703
	H80	H	0.615618	0.087000	0.904651
	H81	H	0.390828	0.090825	0.084014
	H82	H	0.616578	0.909072	0.084095
	H83	H	0.391621	0.908460	0.907287
	H84	H	0.616588	0.907745	0.082266
	H85	H	0.392656	0.087101	0.079949
	H86	H	0.614744	0.088423	0.909009
	H87	H	0.392948	0.910075	0.910070
	H88	H	0.918191	0.087377	0.605166
	H89	H	0.090372	0.088306	0.384000
	H90	H	0.087989	0.909952	0.604746
	H91	H	0.918858	0.912131	0.384248
	H92	H	0.093167	0.610727	0.902306
	H93	H	0.089630	0.389170	0.081855
	H94	H	0.910025	0.609902	0.084048
	H95	H	0.913210	0.386841	0.905010
	H96	H	0.412257	0.112234	0.590781
	H97	H	0.591829	0.887958	0.580936
	H98	H	0.592609	0.107059	0.412488
	H99	H	0.416665	0.888197	0.403342
	H100	H	0.596131	0.413921	0.105845
	H101	H	0.593332	0.594524	0.881151
	H102	H	0.416366	0.585764	0.105709
	H103	H	0.416112	0.413409	0.885355
	H104	H	0.116682	0.591938	0.407197
	H105	H	0.889927	0.587008	0.590970
	H106	H	0.116619	0.407211	0.581639
	H107	H	0.889088	0.404910	0.403807
	H108	H	0.909938	0.610411	0.089908
	H109	H	0.093239	0.388333	0.081606
	H110	H	0.092626	0.608393	0.905216
	H111	H	0.910624	0.385181	0.902726
	H112	H	0.092002	0.904920	0.607373
	H113	H	0.092405	0.090514	0.381423
	H114	H	0.917465	0.083651	0.604717
	H115	H	0.918913	0.906420	0.384001
	H116	H	0.613366	0.084030	0.907494
	H117	H	0.391953	0.085457	0.085050
	H118	H	0.615903	0.909876	0.082285
	H119	H	0.392843	0.911563	0.906646
	C120	C	0.381739	0.007414	0.616363
	C121	C	0.625004	0.989436	0.615742
	C122	C	0.625364	0.007675	0.373718
	C123	C	0.382527	0.990586	0.372797
	C124	C	0.624596	0.376817	0.002629
	C125	C	0.625043	0.620219	0.986318
	C126	C	0.382967	0.619779	0.003773
	C127	C	0.382558	0.377126	0.985867
	C128	C	0.012714	0.618980	0.373957
	C129	C	0.995447	0.619458	0.615628
	C130	C	0.012794	0.377350	0.615547
	C131	C	0.994375	0.376754	0.373664
	C132	C	0.881238	0.506334	0.116986
	C133	C	0.124683	0.489572	0.116168
	C134	C	0.126451	0.507304	0.871748
	C135	C	0.882415	0.489618	0.873121
	C136	C	0.124655	0.877235	0.503151
	C137	C	0.124719	0.120428	0.485633
	C138	C	0.883806	0.119240	0.503086
	C139	C	0.883177	0.876156	0.485925
	C140	C	0.511713	0.118934	0.873844
	C141	C	0.494917	0.120115	0.115359
	C142	C	0.513043	0.877439	0.116308
	C143	C	0.495095	0.877603	0.874486
	C144	C	0.378357	0.891211	0.676527
	C145	C	0.630288	0.104058	0.679061
	C146	C	0.630277	0.892996	0.310620
	C147	C	0.379816	0.106745	0.312440
	C148	C	0.684158	0.376011	0.884703
	C149	C	0.681874	0.618959	0.105207
	C150	C	0.323482	0.621624	0.886421
	C151	C	0.322376	0.375750	0.103309
	C152	C	0.894579	0.677535	0.373064
	C153	C	0.113187	0.678860	0.616765
	C154	C	0.895333	0.317308	0.618880
	C155	C	0.111800	0.317025	0.370457
	C156	C	0.894558	0.376310	0.674740
	C157	C	0.114053	0.620519	0.673628
	C158	C	0.893880	0.619099	0.316616
	C159	C	0.111615	0.374209	0.312722
	C160	C	0.379977	0.680516	0.887140
	C161	C	0.625998	0.678290	0.104485
	C162	C	0.627458	0.317126	0.885301
	C163	C	0.378783	0.316686	0.102722
	C164	C	0.688017	0.892807	0.368421
	C165	C	0.689087	0.103635	0.622078
	C166	C	0.320987	0.891330	0.618451
	C167	C	0.321945	0.106614	0.370458
	C168	C	0.880785	0.389346	0.175045
	C169	C	0.127738	0.605244	0.177155
	C170	C	0.129544	0.391281	0.811659
	C171	C	0.883030	0.607529	0.815894
	C172	C	0.184916	0.875909	0.385701
	C173	C	0.184718	0.121958	0.603151
	C174	C	0.821487	0.123232	0.387506
	C175	C	0.821513	0.873184	0.602301
	C176	C	0.394925	0.179602	0.870171
	C177	C	0.612183	0.180635	0.118206
	C178	C	0.395555	0.817883	0.119607
	C179	C	0.612482	0.817293	0.870364
	C180	C	0.395396	0.875982	0.176652
	C181	C	0.613011	0.122133	0.174691
	C182	C	0.394394	0.120968	0.813668
	C183	C	0.611656	0.874249	0.812083
	C184	C	0.877391	0.182605	0.388181
	C185	C	0.128299	0.180604	0.602665
	C186	C	0.128969	0.816743	0.386254
	C187	C	0.878039	0.814414	0.601835
	C188	C	0.186761	0.391228	0.869941
	C189	C	0.185463	0.605348	0.119099
	C190	C	0.823553	0.389077	0.116574
	C191	C	0.825040	0.607468	0.874010
	C192	C	0.407198	0.088493	0.591663
	C193	C	0.597836	0.909573	0.588369
	C194	C	0.598772	0.087530	0.400530
	C195	C	0.408041	0.909665	0.397892
	C196	C	0.599189	0.401397	0.084387
	C197	C	0.601016	0.596628	0.903768
	C198	C	0.408092	0.595122	0.085591
	C199	C	0.408367	0.402142	0.904193
	C200	C	0.094826	0.594583	0.398363
	C201	C	0.913131	0.594802	0.591584
	C202	C	0.094623	0.402251	0.589771
	C203	C	0.912614	0.402065	0.399462
	C204	C	0.905052	0.588315	0.093895
	C205	C	0.098654	0.409218	0.090129
	C206	C	0.100947	0.588109	0.896708
	C207	C	0.906000	0.407488	0.896262
	C208	C	0.098725	0.901749	0.584658
	C209	C	0.099302	0.095583	0.403969
	C210	C	0.911048	0.092966	0.583504
	C211	C	0.909956	0.901945	0.404680
	C212	C	0.593357	0.093662	0.899693
	C213	C	0.413179	0.095000	0.090365
	C214	C	0.594987	0.902118	0.090525
	C215	C	0.413710	0.902840	0.900653
	Zn216	Zn	0.503191	-0.002424	0.744945
	Zn217	Zn	0.504279	-0.000364	0.244004
	Zn218	Zn	0.752764	0.498168	-0.005114
	Zn219	Zn	0.253906	0.498686	-0.005339
	Zn220	Zn	0.004300	0.747862	0.494337
	Zn221	Zn	0.004064	0.249113	0.494838
	Zn222	Zn	0.004259	0.498476	0.743419
	Zn223	Zn	0.002988	0.497734	0.245811
	Zn224	Zn	0.504061	0.748824	-0.005033
	Zn225	Zn	0.503032	0.248188	-0.006084
	Zn226	Zn	0.755056	-0.002306	0.495047
	Zn227	Zn	0.253002	-0.001178	0.494472
	N228	N	0.415477	0.964418	0.675438
	N229	N	0.591038	0.031828	0.675368
	N230	N	0.591844	0.965525	0.313655
	N231	N	0.416687	0.033473	0.313651
	N232	N	0.682517	0.412421	0.958724
	N233	N	0.681813	0.583729	0.030533
	N234	N	0.325237	0.584676	0.960103
	N235	N	0.324460	0.412448	0.029597
	N236	N	0.969759	0.677921	0.407722
	N237	N	0.038410	0.678400	0.581416
	N238	N	0.969981	0.317596	0.582991
	N239	N	0.037756	0.318423	0.407705
	N240	N	0.968807	0.412938	0.673063
	N241	N	0.039687	0.584312	0.673179
	N242	N	0.968490	0.583593	0.316639
	N243	N	0.037513	0.410692	0.314512
	N244	N	0.416250	0.679820	0.961374
	N245	N	0.591634	0.679444	0.029365
	N246	N	0.591185	0.317376	0.959698
	N247	N	0.415440	0.317249	0.028462
	N248	N	0.685311	0.965066	0.407011
	N249	N	0.686104	0.031285	0.583516
	N250	N	0.322840	0.964607	0.581707
	N251	N	0.323317	0.033230	0.407192
	N252	N	0.915598	0.463615	0.175751
	N253	N	0.090432	0.532215	0.175616
	N254	N	0.092539	0.464481	0.812640
	N255	N	0.917975	0.533136	0.815104
	N256	N	0.182601	0.912663	0.459414
	N257	N	0.182917	0.085268	0.529142
	N258	N	0.825204	0.084462	0.460088
	N259	N	0.824717	0.911055	0.529135
	N260	N	0.469167	0.178708	0.906611
	N261	N	0.537776	0.179739	0.082121
	N262	N	0.469918	0.818297	0.082990
	N263	N	0.538838	0.819020	0.908433
	N264	N	0.469725	0.912370	0.174852
	N265	N	0.539019	0.085103	0.173212
	N266	N	0.468210	0.083850	0.815626
	N267	N	0.537736	0.910981	0.814430
	N268	N	0.915600	0.180247	0.461142
	N269	N	0.091833	0.180078	0.528562
	N270	N	0.092247	0.817150	0.460424
	N271	N	0.915949	0.816367	0.528292
	N272	N	0.184958	0.464325	0.906770
	N273	N	0.183628	0.532393	0.081803
	N274	N	0.823497	0.463034	0.081328
	N275	N	0.824233	0.533046	0.908638
	O276	O	0.100894	0.837096	-0.122119
	H277	H	0.090762	0.832636	-0.133592
	H278	H	0.084400	0.839995	-0.104880
	O279	O	0.316682	0.373469	0.336331
	H280	H	0.323133	0.364880	0.334367
	H281	H	0.311600	0.361717	0.332695
	O282	O	1.064422	0.195392	0.966065
	H283	H	1.069076	0.191385	0.970392
	H284	H	1.053386	0.194050	0.976990
	O285	O	0.451627	0.566500	0.727500
	H286	H	0.458760	0.576291	0.732691
	H287	H	0.440554	0.554539	0.722450
	O288	O	0.464077	0.719144	0.528063
	H289	H	0.452831	0.718155	0.527534
	H290	H	0.458377	0.712711	0.547734
	O291	O	0.287222	0.274635	0.523662
	H292	H	0.275689	0.254226	0.530475
	H293	H	0.282309	0.275665	0.550812
	O294	O	0.782575	0.218074	0.961384
	H295	H	0.764742	0.228806	0.966126
	H296	H	0.770659	0.208915	0.960195
	O297	O	0.471168	0.724342	0.275087
	H298	H	0.477342	0.744041	0.274191
	H299	H	0.471854	0.741777	0.280390
	O300	O	0.089850	0.154217	0.806417
	H301	H	0.076463	0.145155	0.825077
	H302	H	0.085939	0.148817	0.791851
	O303	O	0.710029	0.709590	0.523167
	H304	H	0.729142	0.706554	0.522276
	H305	H	0.713336	0.695081	0.523523
	O306	O	0.609420	0.258224	0.536567
	H307	H	0.627260	0.262653	0.530405
	H308	H	0.607230	0.257952	0.538510
	O309	O	0.344657	0.673848	0.662403
	H310	H	0.334165	0.684311	0.684752
	H311	H	0.345417	0.657401	0.640053
	O312	O	0.309514	0.722368	0.473165
	H313	H	0.296620	0.707118	0.480802
	H314	H	0.303610	0.735298	0.475617
	O315	O	0.820429	1.030328	1.035671
	H316	H	0.826186	1.039890	1.031426
	H317	H	0.811509	1.025763	1.045890
	O318	O	0.690367	0.583730	0.463182
	H319	H	0.710605	0.558731	0.457451
	H320	H	0.680631	0.562533	0.477262
	O321	O	0.236971	0.758280	0.759555
	H322	H	0.220215	0.755102	0.762525
	H323	H	0.243090	0.763437	0.792102
	O324	O	0.973423	0.769079	0.221258
	H325	H	0.964069	0.747997	0.236529
	H326	H	0.957488	0.767239	0.221919
	O327	O	-0.014193	0.064607	0.816880
	H328	H	-0.016687	0.065680	0.815858
	H329	H	-0.022292	0.066858	0.828989
	O330	O	0.690582	0.470719	0.500012
	H331	H	0.686517	0.460094	0.510819
	H332	H	0.678264	0.467432	0.503718
	O333	O	0.470972	0.278784	0.712480
	H334	H	0.466703	0.277855	0.721121
	H335	H	0.482139	0.262727	0.709491
	O336	O	0.709171	0.294245	0.423647
	H337	H	0.715099	0.291433	0.432223
	H338	H	0.699170	0.300424	0.447694
	O339	O	0.800317	-0.034239	1.160154
	H340	H	0.812337	-0.024357	1.168140
	H341	H	0.790301	-0.033928	1.156404
	O342	O	-0.067764	-0.018776	-0.004449
	H343	H	-0.075301	-0.011074	-0.010732
	H344	H	-0.062698	-0.025731	-0.003565
	O345	O	-0.156186	0.836469	0.832755
	H346	H	-0.166600	0.815797	0.821068
	H347	H	-0.165669	0.845420	0.857379
	O348	O	0.176507	0.119581	0.155228
	H349	H	0.150441	0.127937	0.141605
	H350	H	0.180505	0.081051	0.156333
	O351	O	0.695931	0.651505	0.335371
	H352	H	0.671108	0.645809	0.356615
	H353	H	0.699838	0.615409	0.339558
	O354	O	0.092901	0.088057	0.995359
	H355	H	0.094260	0.085475	0.989283
	H356	H	0.100828	0.091394	0.992258
	O357	O	0.533830	0.715705	0.707645
	H358	H	0.520832	0.712785	0.714668
	H359	H	0.539971	0.730946	0.713277
	O360	O	0.303404	0.295595	0.696226
	H361	H	0.310587	0.303513	0.710267
	H362	H	0.307540	0.278277	0.703990
	O363	O	-0.051312	0.214732	0.064563
	H364	H	-0.052720	0.209735	0.083098
	H365	H	-0.071736	0.211700	0.045853
	O366	O	0.559553	0.437657	0.722835
	H367	H	0.568419	0.436162	0.715601
	H368	H	0.550353	0.436262	0.730610
	O369	O	0.725929	0.266346	0.268260
	H370	H	0.714899	0.265047	0.286249
	H371	H	0.703668	0.266406	0.290959
	O372	O	0.792480	0.777543	0.084329
	H373	H	0.767549	0.752856	0.104246
	H374	H	0.807186	0.781559	0.104584
	O375	O	0.903557	-0.102839	0.087335
	H376	H	0.896246	-0.101572	0.103113
	H377	H	0.897261	-0.104814	0.078815
	O378	O	0.500147	0.413946	0.305833
	H379	H	0.497876	0.435521	0.309749
	H380	H	0.480626	0.428535	0.306824
	O381	O	0.038301	0.780769	0.773887
	H382	H	0.035796	0.779755	0.789922
	H383	H	0.033769	0.768814	0.748014
	O384	O	0.815231	0.013654	0.891548
	H385	H	0.815130	0.017198	0.884527
	H386	H	0.811948	0.013987	0.897160
	O387	O	1.058925	0.843719	0.142560
	H388	H	1.068940	0.830387	0.151430
	H389	H	1.062099	0.838673	0.155430
	O390	O	0.531802	0.274059	0.280926
	H391	H	0.518851	0.304305	0.272926
	H392	H	0.524966	0.259094	0.258315
	O393	O	0.290171	0.490817	0.661797
	H394	H	0.282539	0.488382	0.681660
	H395	H	0.291919	0.480931	0.657522
	O396	O	0.213999	0.969253	0.780663
	H397	H	0.213875	0.959423	0.775031
	H398	H	0.223248	0.948806	0.768317
	O399	O	-0.144160	0.024791	0.778361
	H400	H	-0.134941	0.020019	0.791859
	H401	H	-0.163290	0.020956	0.769913
	O402	O	0.473736	0.440924	0.459456
	H403	H	0.461671	0.440712	0.457281
	H404	H	0.456346	0.435567	0.452141
	O405	O	1.024895	0.059037	0.909311
	H406	H	1.015311	0.064658	0.908438
	H407	H	1.032182	0.051563	0.911563
	O408	O	0.222407	0.220150	0.019208
	H409	H	0.235078	0.237554	0.028611
	H410	H	0.230716	0.216058	0.035092
	O411	O	0.719276	0.721148	0.716140
	H412	H	0.700115	0.718388	0.728464
	H413	H	0.718023	0.720593	0.682557
	O414	O	0.691872	0.305439	0.677980
	H415	H	0.665696	0.311402	0.669354
	H416	H	0.722825	0.275491	0.711859
	O417	O	0.670920	0.430670	0.557901
	H418	H	0.673253	0.433819	0.585636
	H419	H	0.661674	0.419886	0.556250
	O420	O	0.432762	0.464626	0.534716
	H421	H	0.440815	0.460662	0.541682
	H422	H	0.428639	0.461157	0.522311
	O423	O	0.228451	-0.060141	1.060260
	H424	H	0.225804	-0.056950	1.051013
	H425	H	0.227205	-0.050780	1.065434
	O426	O	0.286665	0.591583	0.503279
	H427	H	0.282071	0.567919	0.483709
	H428	H	0.287162	0.582075	0.530542
	O429	O	0.795991	0.853729	0.944439
	H430	H	0.792934	0.839829	0.969084
	H431	H	0.786988	0.855857	0.956760
	O432	O	0.566973	0.726851	0.422895
	H433	H	0.562823	0.721900	0.446692
	H434	H	0.568239	0.722892	0.438807
	O435	O	0.189500	0.810631	0.180697
	H436	H	0.175565	0.817393	0.163388
	H437	H	0.219950	0.785501	0.205349
	O438	O	-0.024134	0.035532	0.192094
	H439	H	-0.009538	0.042490	0.192734
	H440	H	-0.009448	0.030472	0.194973
	O441	O	0.041765	0.215642	0.216102
	H442	H	0.039630	0.227391	0.227603
	H443	H	0.036090	0.221744	0.206795
	O444	O	0.326359	0.266204	0.311560
	H445	H	0.335631	0.251795	0.302980
	H446	H	0.300081	0.254173	0.301043
	O447	O	-0.001319	1.195745	0.828423
	H448	H	-0.006512	1.210275	0.819591
	H449	H	0.010011	1.189726	0.844016
	O450	O	0.219594	0.780054	0.963228
	H451	H	0.216316	0.798218	0.975821
	H452	H	0.233492	0.761935	0.971007
	O453	O	0.322859	0.438566	0.522326
	H454	H	0.336936	0.425607	0.512878
	H455	H	0.305140	0.435643	0.529756
	O456	O	0.217420	0.107912	0.884813
	H457	H	0.214696	0.092377	0.880889
	H458	H	0.196007	0.105167	0.886253
	O459	O	0.764823	0.758915	0.231500
	H460	H	0.731355	0.737748	0.261181
	H461	H	0.762935	0.779527	0.238436
	O462	O	0.722875	0.469503	0.272785
	H463	H	0.729676	0.442473	0.271034
	H464	H	0.735073	0.450554	0.256398
	O465	O	0.813794	0.163077	0.148068
	H466	H	0.800628	0.174606	0.172511
	H467	H	0.829004	0.143628	0.147132
	O468	O	0.288430	0.531170	0.274503
	H469	H	0.279419	0.530863	0.261501
	H470	H	0.281898	0.533867	0.274941
	O471	O	0.449743	0.529374	0.465977
	H472	H	0.431452	0.524893	0.468690
	H473	H	0.452755	0.530965	0.464103
	O474	O	0.300171	0.708309	0.284947
	H475	H	0.328630	0.711520	0.298306
	H476	H	0.300779	0.684604	0.310492
	O477	O	0.525525	0.562321	1.272631
	H478	H	0.533665	0.578517	1.277086
	H479	H	0.537716	0.576633	1.274678
	O480	O	0.475907	0.266492	0.476959
	H481	H	0.462812	0.263717	0.475656
	H482	H	0.479433	0.264116	0.469805
	O483	O	0.723778	0.542324	0.716844
	H484	H	0.724845	0.557449	0.725103
	H485	H	0.737091	0.538916	0.727066
	O486	O	0.792440	0.212077	0.782054
	H487	H	0.810213	0.200333	0.800497
	H488	H	0.818962	0.197674	0.793597
	O489	O	1.051067	0.957796	0.090238
	H490	H	1.039827	0.934096	0.089690
	H491	H	1.045105	0.959563	0.069473
	O492	O	0.218263	0.040108	0.209309
	H493	H	0.213681	0.018191	0.207600
	H494	H	0.223144	0.023166	0.226093
	O495	O	0.009473	0.769532	0.999178
	H496	H	0.015021	0.769568	1.012788
	H497	H	-0.012046	0.770694	0.999982
	O498	O	1.045816	1.032561	0.909649
	H499	H	1.050929	1.008794	0.910747
	H500	H	1.030959	1.029104	0.915300
	O501	O	0.558881	0.552061	0.549113
	H502	H	0.551979	0.544555	0.554170
	H503	H	0.558428	0.538987	0.544951
