data_Molecule from HDF5

_cell_length_a		16.273174
_cell_length_b		16.211008
_cell_length_c		16.276395
_cell_angle_alpha	89.864563
_cell_angle_beta	90.007574
_cell_angle_gamma	89.939241
_symmetry_space_group_name_H-M	'P 1'
_symmetry_Int_Tables_number		1

loop_
	_symmetry_equiv_pos_as_xyz
	x,y,z

loop_
	_atom_site_label
	_atom_site_type_symbol
	_atom_site_fract_x
	_atom_site_fract_y
	_atom_site_fract_z
	H0	H	0.393417	0.828636	0.722707
	H1	H	0.589094	0.157272	0.722032
	H2	H	0.590319	0.828666	0.293523
	H3	H	0.392417	0.157097	0.293753
	H4	H	0.706023	0.392418	0.844663
	H5	H	0.704849	0.590190	0.171771
	H6	H	0.275403	0.592640	0.844737
	H7	H	0.276931	0.393332	0.172521
	H8	H	0.826579	0.708456	0.410014
	H9	H	0.154638	0.707541	0.606346
	H10	H	0.826527	0.279834	0.606458
	H11	H	0.155024	0.280910	0.412720
	H12	H	0.827141	0.394527	0.722986
	H13	H	0.154691	0.592113	0.723151
	H14	H	0.826705	0.592262	0.293789
	H15	H	0.154456	0.394278	0.294694
	H16	H	0.392790	0.706625	0.843957
	H17	H	0.587468	0.705239	0.172323
	H18	H	0.588618	0.278293	0.844507
	H19	H	0.393483	0.278827	0.172565
	H20	H	0.704279	0.828395	0.410099
	H21	H	0.703375	0.157744	0.605830
	H22	H	0.276714	0.828944	0.608370
	H23	H	0.277105	0.157168	0.409673
	H24	H	0.892515	0.328217	0.223019
	H25	H	0.088212	0.657876	0.221452
	H26	H	0.089808	0.328558	0.795091
	H27	H	0.892490	0.656755	0.794548
	H28	H	0.205528	0.894455	0.345451
	H29	H	0.204651	0.090694	0.672685
	H30	H	0.775207	0.093162	0.344890
	H31	H	0.775930	0.894634	0.671485
	H32	H	0.326565	0.206095	0.911820
	H33	H	0.654905	0.206550	0.106206
	H34	H	0.326430	0.778057	0.105355
	H35	H	0.654999	0.778318	0.910981
	H36	H	0.326614	0.892954	0.223386
	H37	H	0.654700	0.089821	0.222091
	H38	H	0.326739	0.090540	0.794870
	H39	H	0.655010	0.894484	0.794496
	H40	H	0.893559	0.207115	0.344274
	H41	H	0.086397	0.204625	0.673585
	H42	H	0.087994	0.780300	0.344542
	H43	H	0.892718	0.780109	0.672395
	H44	H	0.203556	0.328164	0.912253
	H45	H	0.205655	0.656841	0.106797
	H46	H	0.778254	0.327578	0.105072
	H47	H	0.777167	0.656998	0.910337
	H48	H	0.397423	0.111308	0.603751
	H49	H	0.585188	0.875609	0.599755
	H50	H	0.581748	0.112738	0.403608
	H51	H	0.398481	0.876156	0.415823
	H52	H	0.578714	0.406275	0.120219
	H53	H	0.584039	0.580800	0.892682
	H54	H	0.389130	0.587324	0.128180
	H55	H	0.390212	0.405309	0.891855
	H56	H	0.105774	0.586493	0.419058
	H57	H	0.869258	0.591990	0.612551
	H58	H	0.107553	0.397618	0.600229
	H59	H	0.875378	0.409645	0.412353
	H60	H	0.107400	0.402104	0.604894
	H61	H	0.874753	0.593342	0.591604
	H62	H	0.107258	0.583187	0.412474
	H63	H	0.870420	0.394061	0.410437
	H64	H	0.399123	0.575757	0.121967
	H65	H	0.580880	0.588177	0.890975
	H66	H	0.580804	0.389856	0.126350
	H67	H	0.404202	0.401644	0.893803
	H68	H	0.574508	0.105732	0.420330
	H69	H	0.584074	0.875509	0.603833
	H70	H	0.399480	0.110040	0.600947
	H71	H	0.398358	0.875690	0.415335
	H72	H	0.898897	0.609201	0.100261
	H73	H	0.079548	0.376888	0.103836
	H74	H	0.092134	0.609218	0.925940
	H75	H	0.897010	0.376342	0.920248
	H76	H	0.084859	0.887732	0.629023
	H77	H	0.085777	0.095807	0.389047
	H78	H	0.900100	0.085216	0.624452
	H79	H	0.899389	0.890187	0.388703
	H80	H	0.605850	0.081413	0.916474
	H81	H	0.371020	0.090040	0.108044
	H82	H	0.606440	0.903239	0.102604
	H83	H	0.370332	0.893514	0.909884
	H84	H	0.608876	0.896326	0.105269
	H85	H	0.375325	0.089975	0.093851
	H86	H	0.609262	0.087080	0.909417
	H87	H	0.376300	0.897655	0.922806
	H88	H	0.896409	0.089632	0.626339
	H89	H	0.092458	0.082482	0.390348
	H90	H	0.094795	0.907372	0.626391
	H91	H	0.887273	0.904475	0.389899
	H92	H	0.087734	0.615130	0.902701
	H93	H	0.084765	0.376479	0.097893
	H94	H	0.894902	0.610162	0.100765
	H95	H	0.894286	0.373234	0.913323
	H96	H	0.395913	0.110684	0.600400
	H97	H	0.580886	0.876652	0.601253
	H98	H	0.593125	0.111242	0.419422
	H99	H	0.399100	0.875766	0.415699
	H100	H	0.594428	0.401779	0.127345
	H101	H	0.588103	0.586652	0.889935
	H102	H	0.404594	0.590797	0.124084
	H103	H	0.394720	0.391262	0.888188
	H104	H	0.108271	0.590659	0.414383
	H105	H	0.877757	0.574748	0.602131
	H106	H	0.109755	0.396455	0.605996
	H107	H	0.875973	0.398967	0.424876
	H108	H	0.897017	0.610264	0.103346
	H109	H	0.086384	0.374007	0.105205
	H110	H	0.069625	0.605874	0.916593
	H111	H	0.901860	0.375439	0.914458
	H112	H	0.073585	0.905249	0.620778
	H113	H	0.077645	0.084030	0.394741
	H114	H	0.893234	0.084742	0.625270
	H115	H	0.905156	0.907028	0.395059
	H116	H	0.608405	0.089458	0.917808
	H117	H	0.375672	0.077817	0.102198
	H118	H	0.606211	0.897048	0.098113
	H119	H	0.374887	0.906929	0.911861
	C120	C	0.369800	0.001751	0.630221
	C121	C	0.611896	0.984562	0.629866
	C122	C	0.611879	0.001222	0.386459
	C123	C	0.369889	0.984387	0.386962
	C124	C	0.612750	0.370818	0.016537
	C125	C	0.612091	0.613626	0.999623
	C126	C	0.368957	0.613812	0.016384
	C127	C	0.368638	0.370773	0.999905
	C128	C	-0.001199	0.615305	0.387075
	C129	C	0.982506	0.614653	0.630144
	C130	C	-0.000543	0.370964	0.631318
	C131	C	0.982470	0.372340	0.387809
	C132	C	0.868843	0.500895	0.129697
	C133	C	0.112364	0.484358	0.130419
	C134	C	0.111695	0.501368	0.887608
	C135	C	0.869434	0.483668	0.887060
	C136	C	0.112826	0.871389	0.517425
	C137	C	0.112993	0.115031	0.500053
	C138	C	0.868248	0.115308	0.516891
	C139	C	0.869155	0.872427	0.499725
	C140	C	0.499457	0.114547	0.886640
	C141	C	0.482156	0.114218	0.129742
	C142	C	0.499043	0.870258	0.130179
	C143	C	0.482427	0.870943	0.886596
	C144	C	0.372638	0.877757	0.685048
	C145	C	0.609300	0.108311	0.684436
	C146	C	0.610089	0.877709	0.331513
	C147	C	0.371688	0.108037	0.331190
	C148	C	0.667659	0.372834	0.893354
	C149	C	0.667135	0.611011	0.123016
	C150	C	0.313953	0.612015	0.893294
	C151	C	0.314278	0.372977	0.123323
	C152	C	0.875480	0.670258	0.390072
	C153	C	0.105811	0.669658	0.627164
	C154	C	0.875775	0.316846	0.627472
	C155	C	0.105981	0.317976	0.391412
	C156	C	0.875969	0.373898	0.685476
	C157	C	0.105778	0.612245	0.685142
	C158	C	0.875539	0.612766	0.332027
	C159	C	0.105666	0.374573	0.332738
	C160	C	0.371917	0.668865	0.893010
	C161	C	0.608645	0.667930	0.123339
	C162	C	0.609372	0.316032	0.893399
	C163	C	0.372307	0.316017	0.123407
	C164	C	0.666873	0.877608	0.389372
	C165	C	0.666237	0.108431	0.626843
	C166	C	0.314683	0.877887	0.628273
	C167	C	0.314921	0.108259	0.389248
	C168	C	0.871631	0.377165	0.185041
	C169	C	0.109609	0.608471	0.184427
	C170	C	0.109479	0.377378	0.833013
	C171	C	0.872164	0.607786	0.832302
	C172	C	0.167863	0.873674	0.394242
	C173	C	0.166824	0.111424	0.623743
	C174	C	0.813313	0.113173	0.393561
	C175	C	0.813947	0.874519	0.622881
	C176	C	0.375712	0.169040	0.890121
	C177	C	0.605882	0.168907	0.126858
	C178	C	0.375356	0.815556	0.126753
	C179	C	0.606042	0.816142	0.890087
	C180	C	0.375554	0.872567	0.185273
	C181	C	0.605982	0.110933	0.184215
	C182	C	0.375685	0.111615	0.832259
	C183	C	0.605968	0.873724	0.832177
	C184	C	0.871898	0.170220	0.393412
	C185	C	0.108315	0.168151	0.624134
	C186	C	0.109110	0.817443	0.393668
	C187	C	0.871880	0.817372	0.623335
	C188	C	0.166325	0.377263	0.891025
	C189	C	0.167817	0.607901	0.127401
	C190	C	0.815032	0.376832	0.126581
	C191	C	0.815039	0.607899	0.889846
	C192	C	0.391349	0.088358	0.608141
	C193	C	0.589834	0.898065	0.607940
	C194	C	0.589622	0.087654	0.407993
	C195	C	0.392035	0.898364	0.409183
	C196	C	0.591042	0.392931	0.102480
	C197	C	0.590601	0.591882	0.913303
	C198	C	0.391142	0.591168	0.102439
	C199	C	0.390094	0.392962	0.913571
	C200	C	0.084883	0.593253	0.408720
	C201	C	0.896098	0.593042	0.608426
	C202	C	0.085923	0.392472	0.610110
	C203	C	0.895972	0.394503	0.409362
	C204	C	0.890524	0.587507	0.107901
	C205	C	0.090041	0.398017	0.108641
	C206	C	0.089475	0.587656	0.908760
	C207	C	0.891486	0.397338	0.909153
	C208	C	0.090988	0.893569	0.603300
	C209	C	0.091836	0.093706	0.413671
	C210	C	0.890182	0.093167	0.603133
	C211	C	0.890840	0.894128	0.413619
	C212	C	0.585452	0.092382	0.908167
	C213	C	0.396348	0.092222	0.107878
	C214	C	0.585100	0.892262	0.108370
	C215	C	0.396122	0.892923	0.908428
	Zn216	Zn	0.490993	-0.007066	0.758368
	Zn217	Zn	0.490732	-0.007322	0.258071
	Zn218	Zn	0.741130	0.492043	0.007755
	Zn219	Zn	0.240518	0.492715	0.008445
	Zn220	Zn	-0.009148	0.743920	0.509066
	Zn221	Zn	-0.009373	0.243650	0.509080
	Zn222	Zn	-0.009147	0.492839	0.759119
	Zn223	Zn	-0.009708	0.493323	0.258407
	Zn224	Zn	0.490352	0.742150	0.008171
	Zn225	Zn	0.490891	0.242875	0.008601
	Zn226	Zn	0.739986	-0.006884	0.508221
	Zn227	Zn	0.241758	-0.006822	0.509000
	N228	N	0.405993	0.955646	0.686259
	N229	N	0.576044	0.030334	0.686308
	N230	N	0.576554	0.955568	0.329734
	N231	N	0.405121	0.030133	0.329544
	N232	N	0.669638	0.406430	0.970912
	N233	N	0.669367	0.578041	0.045076
	N234	N	0.312030	0.578439	0.971038
	N235	N	0.311833	0.406304	0.045472
	N236	N	0.953176	0.671876	0.423567
	N237	N	0.028077	0.671171	0.593828
	N238	N	0.953592	0.314935	0.594512
	N239	N	0.028404	0.316526	0.424807
	N240	N	0.953769	0.406888	0.687833
	N241	N	0.028180	0.578631	0.687075
	N242	N	0.953228	0.579319	0.330040
	N243	N	0.027693	0.407715	0.330610
	N244	N	0.405210	0.670165	0.970722
	N245	N	0.575231	0.669767	0.045767
	N246	N	0.575968	0.314678	0.970998
	N247	N	0.405360	0.314559	0.045672
	N248	N	0.668053	0.955489	0.423015
	N249	N	0.668114	0.030404	0.593727
	N250	N	0.312749	0.956012	0.594748
	N251	N	0.313375	0.030448	0.423070
	N252	N	0.904533	0.455303	0.187076
	N253	N	0.076068	0.530622	0.186629
	N254	N	0.076372	0.455561	0.830526
	N255	N	0.905254	0.529614	0.830545
	N256	N	0.170116	0.906849	0.472091
	N257	N	0.169768	0.078996	0.545692
	N258	N	0.810944	0.079852	0.471350
	N259	N	0.812138	0.907846	0.545161
	N260	N	0.453397	0.170902	0.923199
	N261	N	0.528098	0.171015	0.093810
	N262	N	0.452897	0.814237	0.093087
	N263	N	0.528094	0.814380	0.923193
	N264	N	0.453260	0.905941	0.187301
	N265	N	0.528201	0.077452	0.185860
	N266	N	0.453602	0.078322	0.830027
	N267	N	0.528228	0.906999	0.829969
	N268	N	0.905281	0.171590	0.471100
	N269	N	0.075312	0.170351	0.546306
	N270	N	0.075626	0.815939	0.471209
	N271	N	0.905552	0.815955	0.545721
	N272	N	0.167734	0.455118	0.924184
	N273	N	0.169525	0.529689	0.094613
	N274	N	0.813324	0.454730	0.092924
	N275	N	0.813010	0.529668	0.923010
	O276	O	1.483600	0.486866	0.476397
	H277	H	1.483051	0.488371	0.480740
	H278	H	1.493170	0.490315	0.474499
	O279	O	0.493134	0.516298	0.460285
	H280	H	0.488218	0.518984	0.456311
	H281	H	0.489646	0.521323	0.460469
	O282	O	1.463108	1.523820	-0.537406
	H283	H	1.470130	1.516050	-0.537942
	H284	H	1.450868	1.523148	-0.544737
	O285	O	0.478482	0.502725	0.456582
	H286	H	0.473784	0.499884	0.453523
	H287	H	0.485592	0.502992	0.457577
