data_Molecule from HDF5

_cell_length_a		16.258588
_cell_length_b		16.575931
_cell_length_c		16.145554
_cell_angle_alpha	89.862498
_cell_angle_beta	89.485281
_cell_angle_gamma	90.137685
_symmetry_space_group_name_H-M	'P 1'
_symmetry_Int_Tables_number		1

loop_
	_symmetry_equiv_pos_as_xyz
	x,y,z

loop_
	_atom_site_label
	_atom_site_type_symbol
	_atom_site_fract_x
	_atom_site_fract_y
	_atom_site_fract_z
	H0	H	0.398757	0.833062	0.710674
	H1	H	0.603712	0.151078	0.708935
	H2	H	0.609362	0.834901	0.266103
	H3	H	0.397759	0.150839	0.269721
	H4	H	0.717874	0.394792	0.825481
	H5	H	0.721231	0.599113	0.150868
	H6	H	0.291545	0.591193	0.823938
	H7	H	0.279068	0.389098	0.150709
	H8	H	0.843526	0.716068	0.378627
	H9	H	0.160094	0.712788	0.595136
	H10	H	0.842839	0.267953	0.601202
	H11	H	0.160746	0.268839	0.379563
	H12	H	0.839842	0.390176	0.708607
	H13	H	0.165234	0.588542	0.699934
	H14	H	0.839908	0.593735	0.271036
	H15	H	0.162295	0.389755	0.268244
	H16	H	0.397905	0.714216	0.829622
	H17	H	0.609459	0.715632	0.150001
	H18	H	0.609923	0.272042	0.829321
	H19	H	0.389335	0.269420	0.150158
	H20	H	0.723253	0.833216	0.384490
	H21	H	0.723924	0.149351	0.596678
	H22	H	0.277438	0.834417	0.599136
	H23	H	0.279800	0.149559	0.385301
	H24	H	0.893819	0.333899	0.210985
	H25	H	0.105963	0.650580	0.208742
	H26	H	0.106515	0.333717	0.767652
	H27	H	0.904659	0.652375	0.770498
	H28	H	0.221990	0.890540	0.327655
	H29	H	0.215889	0.091988	0.653677
	H30	H	0.786202	0.092971	0.328221
	H31	H	0.784112	0.888862	0.653204
	H32	H	0.341145	0.214048	0.883464
	H33	H	0.658604	0.220240	0.101282
	H34	H	0.341945	0.770265	0.101806
	H35	H	0.660912	0.772167	0.882083
	H36	H	0.339396	0.893170	0.209900
	H37	H	0.663677	0.096993	0.207776
	H38	H	0.338718	0.091732	0.775700
	H39	H	0.663270	0.893675	0.772785
	H40	H	0.895379	0.212671	0.330647
	H41	H	0.109211	0.213773	0.649596
	H42	H	0.112867	0.769181	0.329438
	H43	H	0.894297	0.769625	0.650510
	H44	H	0.225523	0.334689	0.880983
	H45	H	0.223990	0.649909	0.093487
	H46	H	0.774563	0.336970	0.098059
	H47	H	0.782910	0.651536	0.882946
	H48	H	0.411037	0.107055	0.588091
	H49	H	0.597624	0.875712	0.584742
	H50	H	0.591994	0.100255	0.408418
	H51	H	0.417269	0.882121	0.402231
	H52	H	0.584397	0.406407	0.103350
	H53	H	0.593562	0.584837	0.872821
	H54	H	0.417504	0.582977	0.104103
	H55	H	0.425820	0.403551	0.878357
	H56	H	0.112459	0.573827	0.401766
	H57	H	0.884458	0.582183	0.581166
	H58	H	0.116488	0.395577	0.571546
	H59	H	0.886925	0.393755	0.407042
	H60	H	0.115034	0.404791	0.576084
	H61	H	0.885750	0.583660	0.574982
	H62	H	0.119052	0.583739	0.393884
	H63	H	0.889448	0.404826	0.406021
	H64	H	0.409646	0.585952	0.107738
	H65	H	0.589382	0.581435	0.876259
	H66	H	0.585398	0.404102	0.103912
	H67	H	0.413080	0.391913	0.870019
	H68	H	0.602574	0.107391	0.399751
	H69	H	0.583978	0.880168	0.584728
	H70	H	0.412412	0.102895	0.577077
	H71	H	0.411088	0.881190	0.406839
	H72	H	0.916318	0.606541	0.087687
	H73	H	0.093558	0.382620	0.067206
	H74	H	0.095331	0.604097	0.899502
	H75	H	0.905714	0.378992	0.900581
	H76	H	0.093042	0.895332	0.608845
	H77	H	0.093486	0.086283	0.371578
	H78	H	0.912162	0.079323	0.607153
	H79	H	0.914495	0.897867	0.372916
	H80	H	0.618175	0.088869	0.898007
	H81	H	0.387928	0.081720	0.078361
	H82	H	0.619350	0.899756	0.083788
	H83	H	0.387389	0.904746	0.904772
	H84	H	0.615159	0.897254	0.068991
	H85	H	0.388253	0.082016	0.078938
	H86	H	0.615106	0.085641	0.907063
	H87	H	0.384290	0.901212	0.900186
	H88	H	0.914437	0.079880	0.605901
	H89	H	0.093630	0.073499	0.374965
	H90	H	0.088844	0.908547	0.602864
	H91	H	0.911701	0.904185	0.374029
	H92	H	0.100049	0.607588	0.894576
	H93	H	0.095892	0.376021	0.082492
	H94	H	0.918265	0.599466	0.071015
	H95	H	0.911492	0.378687	0.896243
	H96	H	0.401530	0.106531	0.581151
	H97	H	0.592517	0.882353	0.572926
	H98	H	0.588401	0.105021	0.393589
	H99	H	0.411688	0.879153	0.398931
	H100	H	0.586711	0.405892	0.105007
	H101	H	0.587467	0.587287	0.874149
	H102	H	0.410519	0.577797	0.105154
	H103	H	0.407666	0.409551	0.874515
	H104	H	0.114838	0.586416	0.407108
	H105	H	0.887087	0.577504	0.577530
	H106	H	0.119747	0.397615	0.581591
	H107	H	0.884758	0.399831	0.397381
	H108	H	0.902279	0.607139	0.075523
	H109	H	0.081155	0.382574	0.078552
	H110	H	0.092823	0.605468	0.892245
	H111	H	0.912077	0.382347	0.902943
	H112	H	0.079061	0.897073	0.603106
	H113	H	0.082222	0.080968	0.377240
	H114	H	0.912976	0.081609	0.607621
	H115	H	0.918098	0.902842	0.375512
	H116	H	0.615499	0.079807	0.899406
	H117	H	0.386897	0.082573	0.078498
	H118	H	0.613072	0.911777	0.075319
	H119	H	0.385923	0.898523	0.906043
	C120	C	0.377390	0.000744	0.614313
	C121	C	0.623138	0.983674	0.612597
	C122	C	0.625905	0.000111	0.367677
	C123	C	0.380913	0.984622	0.370057
	C124	C	0.620171	0.373632	-0.002009
	C125	C	0.622715	0.616039	0.980668
	C126	C	0.381770	0.613230	-0.001741
	C127	C	0.380443	0.369797	0.980921
	C128	C	0.010098	0.613271	0.367673
	C129	C	0.992783	0.611292	0.608415
	C130	C	0.010886	0.368430	0.611026
	C131	C	0.992828	0.368918	0.368873
	C132	C	0.878170	0.500947	0.111703
	C133	C	0.122721	0.484385	0.108927
	C134	C	0.126454	0.500700	0.864344
	C135	C	0.880661	0.484854	0.867539
	C136	C	0.121974	0.869598	0.498271
	C137	C	0.121793	0.111893	0.481288
	C138	C	0.881770	0.111594	0.499925
	C139	C	0.881056	0.869513	0.481046
	C140	C	0.509516	0.114608	0.869770
	C141	C	0.493094	0.115028	0.111410
	C142	C	0.510161	0.871342	0.111321
	C143	C	0.492309	0.871317	0.870319
	C144	C	0.378188	0.881104	0.672541
	C145	C	0.623252	0.103178	0.670523
	C146	C	0.627774	0.882111	0.306440
	C147	C	0.379538	0.103526	0.309995
	C148	C	0.679370	0.374217	0.875127
	C149	C	0.682207	0.617454	0.102092
	C150	C	0.327462	0.611887	0.874307
	C151	C	0.319047	0.369426	0.102285
	C152	C	0.890722	0.674653	0.362726
	C153	C	0.113018	0.671560	0.611461
	C154	C	0.890366	0.308882	0.616560
	C155	C	0.113103	0.309357	0.363227
	C156	C	0.889250	0.369436	0.670822
	C157	C	0.115637	0.609789	0.663716
	C158	C	0.888779	0.613574	0.309124
	C159	C	0.113951	0.369524	0.307820
	C160	C	0.379978	0.673568	0.877244
	C161	C	0.625974	0.675484	0.101938
	C162	C	0.625760	0.313131	0.876973
	C163	C	0.373890	0.309457	0.101896
	C164	C	0.684584	0.881286	0.365667
	C165	C	0.683080	0.102293	0.614148
	C166	C	0.318101	0.881758	0.616578
	C167	C	0.320134	0.102510	0.367136
	C168	C	0.875111	0.382090	0.171942
	C169	C	0.124561	0.602681	0.169255
	C170	C	0.126292	0.381408	0.806568
	C171	C	0.883026	0.604632	0.808738
	C172	C	0.182664	0.870470	0.376477
	C173	C	0.178957	0.112046	0.604059
	C174	C	0.823767	0.112688	0.377397
	C175	C	0.821871	0.868799	0.603608
	C176	C	0.388932	0.173781	0.866751
	C177	C	0.611952	0.177833	0.116679
	C178	C	0.389639	0.811201	0.117433
	C179	C	0.613067	0.812479	0.865688
	C180	C	0.388318	0.872026	0.171493
	C181	C	0.614659	0.116490	0.169874
	C182	C	0.387696	0.113127	0.812792
	C183	C	0.614272	0.872882	0.811076
	C184	C	0.878438	0.171976	0.378643
	C185	C	0.125759	0.172704	0.602017
	C186	C	0.127906	0.810249	0.377187
	C187	C	0.877016	0.809551	0.602320
	C188	C	0.185800	0.381964	0.863098
	C189	C	0.183508	0.602893	0.111461
	C190	C	0.815355	0.383617	0.115726
	C191	C	0.823122	0.604334	0.865337
	C192	C	0.401277	0.083848	0.589304
	C193	C	0.598451	0.900889	0.587857
	C194	C	0.601291	0.082780	0.393053
	C195	C	0.406216	0.902292	0.395408
	C196	C	0.593364	0.398203	0.082139
	C197	C	0.597460	0.591696	0.896299
	C198	C	0.405619	0.589160	0.083542
	C199	C	0.407694	0.394354	0.896322
	C200	C	0.093723	0.588490	0.393591
	C201	C	0.907970	0.587882	0.584779
	C202	C	0.095220	0.392405	0.584116
	C203	C	0.908968	0.392564	0.395793
	C204	C	0.904751	0.583008	0.085768
	C205	C	0.097503	0.401865	0.083393
	C206	C	0.102750	0.584009	0.888416
	C207	C	0.903389	0.401765	0.892561
	C208	C	0.094714	0.893558	0.583099
	C209	C	0.096970	0.087542	0.396774
	C210	C	0.906213	0.087247	0.584565
	C211	C	0.907092	0.894273	0.396223
	C212	C	0.593893	0.091517	0.894345
	C213	C	0.409622	0.089508	0.086107
	C214	C	0.593963	0.895724	0.083989
	C215	C	0.407729	0.894716	0.896329
	Zn216	Zn	0.500990	-0.007087	0.742454
	Zn217	Zn	0.502421	-0.007058	0.238924
	Zn218	Zn	0.749507	0.494188	-0.011137
	Zn219	Zn	0.254110	0.492527	-0.012147
	Zn220	Zn	0.001391	0.741391	0.489226
	Zn221	Zn	0.001538	0.239718	0.490418
	Zn222	Zn	0.002181	0.491904	0.736965
	Zn223	Zn	0.000677	0.491521	0.240403
	Zn224	Zn	0.501147	0.742675	-0.009189
	Zn225	Zn	0.501507	0.242998	-0.009811
	Zn226	Zn	0.754330	-0.008599	0.491117
	Zn227	Zn	0.249162	-0.008539	0.490708
	N228	N	0.414294	0.956247	0.671453
	N229	N	0.586528	0.028507	0.669591
	N230	N	0.592253	0.957201	0.307116
	N231	N	0.416866	0.029253	0.311815
	N232	N	0.676179	0.410986	0.951284
	N233	N	0.680244	0.581001	0.025797
	N234	N	0.328286	0.575257	0.950741
	N235	N	0.322857	0.406070	0.026031
	N236	N	0.967203	0.674687	0.398533
	N237	N	0.035726	0.672651	0.577663
	N238	N	0.967053	0.308072	0.580298
	N239	N	0.036784	0.308922	0.400545
	N240	N	0.965328	0.405847	0.667447
	N241	N	0.039867	0.572861	0.661767
	N242	N	0.963961	0.576121	0.312059
	N243	N	0.038201	0.405814	0.311082
	N244	N	0.412919	0.674522	0.955391
	N245	N	0.589679	0.674751	0.025430
	N246	N	0.589854	0.312378	0.954512
	N247	N	0.411467	0.309911	0.025140
	N248	N	0.683522	0.955759	0.403109
	N249	N	0.683160	0.026927	0.578707
	N250	N	0.317538	0.957042	0.580987
	N251	N	0.321037	0.027764	0.403839
	N252	N	0.913310	0.456171	0.169815
	N253	N	0.087588	0.527906	0.167872
	N254	N	0.090161	0.456061	0.807188
	N255	N	0.918282	0.529312	0.810105
	N256	N	0.178982	0.906562	0.452946
	N257	N	0.176752	0.074967	0.528083
	N258	N	0.825538	0.075986	0.453752
	N259	N	0.824094	0.905234	0.527060
	N260	N	0.465865	0.174904	0.901428
	N261	N	0.535380	0.177384	0.081369
	N262	N	0.466544	0.810450	0.080934
	N263	N	0.536148	0.811445	0.901828
	N264	N	0.464194	0.908661	0.167909
	N265	N	0.539612	0.078225	0.166997
	N266	N	0.463705	0.077177	0.814513
	N267	N	0.538165	0.908879	0.813876
	N268	N	0.913812	0.171517	0.455732
	N269	N	0.090798	0.172675	0.524759
	N270	N	0.091047	0.809543	0.454138
	N271	N	0.913011	0.809934	0.524978
	N272	N	0.185947	0.457462	0.898383
	N273	N	0.182593	0.528222	0.074779
	N274	N	0.816795	0.458614	0.079239
	N275	N	0.821545	0.529050	0.901216
	O276	O	0.484625	0.468688	0.358024
	H277	H	0.484921	0.457865	0.363222
	H278	H	0.485934	0.454746	0.346930
	O279	O	0.389729	0.282544	0.468781
	H280	H	0.403041	0.281359	0.490242
	H281	H	0.370242	0.273812	0.480196
	O282	O	0.570368	0.640995	0.598820
	H283	H	0.567175	0.650707	0.571751
	H284	H	0.568492	0.630203	0.600628
	O285	O	1.393827	0.391794	0.576950
	H286	H	1.388997	0.392685	0.582609
	H287	H	1.395425	0.396923	0.567895
	O288	O	0.164070	0.084058	1.167837
	H289	H	0.148390	0.083683	1.161757
	H290	H	0.142479	0.074261	1.179577
	O291	O	0.509624	0.394093	0.502774
	H292	H	0.505327	0.391608	0.498096
	H293	H	0.514018	0.401597	0.520143
	O294	O	0.795834	1.202844	0.916099
	H295	H	0.773097	1.213217	0.910185
	H296	H	0.795814	1.193136	0.891630
	O297	O	0.963116	0.992266	0.984322
	H298	H	0.956397	0.998753	0.993509
	H299	H	0.975900	0.969327	0.979270
	O300	O	-0.007190	-0.087359	0.069981
	H301	H	-0.017006	-0.065636	0.062107
	H302	H	-0.018184	-0.084747	0.064623
	O303	O	0.111257	1.205622	0.969754
	H304	H	0.123627	1.206693	0.986432
	H305	H	0.125740	1.211327	0.996057
	O306	O	0.845587	-0.205688	0.035215
	H307	H	0.858953	-0.201803	0.056474
	H308	H	0.829404	-0.211945	0.045093
	O309	O	0.429330	0.581711	0.524265
	H310	H	0.430906	0.592595	0.517816
	H311	H	0.436901	0.593345	0.522323
	O312	O	0.882826	1.017884	-0.113707
	H313	H	0.884250	1.004277	-0.107244
	H314	H	0.892416	1.011699	-0.117772
	O315	O	0.479243	0.518004	0.368129
	H316	H	0.497909	0.502924	0.353165
	H317	H	0.479828	0.524784	0.349016
	O318	O	0.346456	0.679755	0.534090
	H319	H	0.353971	0.676116	0.527686
	H320	H	0.328488	0.681576	0.534857
	O321	O	1.175936	-0.172182	0.977008
	H322	H	1.185876	-0.178257	0.960275
	H323	H	1.186550	-0.178878	0.963557
	O324	O	-0.015965	-0.138469	1.089835
	H325	H	0.003649	-0.126871	1.091031
	H326	H	-0.008750	-0.153996	1.085977
	O327	O	0.186157	1.184033	1.093774
	H328	H	0.202202	1.193998	1.105481
	H329	H	0.174763	1.166632	1.122674
	O330	O	0.402474	0.560162	0.303104
	H331	H	0.389460	0.549769	0.322856
	H332	H	0.437548	0.586253	0.295074
	O333	O	1.162014	0.800749	0.822504
	H334	H	1.158122	0.816061	0.815252
	H335	H	1.154067	0.800742	0.816642
	O336	O	0.396146	0.323505	0.646175
	H337	H	0.379677	0.330247	0.646332
	H338	H	0.423064	0.331079	0.655440
	O339	O	0.398820	0.351160	0.586686
	H340	H	0.396680	0.361545	0.565482
	H341	H	0.404108	0.336082	0.584581
	O342	O	0.006976	1.015281	1.149245
	H343	H	-0.004512	1.020330	1.144742
	H344	H	0.014661	1.013875	1.142416
	O345	O	-0.015202	1.112300	1.090115
	H346	H	-0.021097	1.104779	1.073212
	H347	H	-0.024890	1.120603	1.093550
	O348	O	0.685034	0.318626	0.318463
	H349	H	0.680620	0.328659	0.326232
	H350	H	0.646671	0.305334	0.321220
	O351	O	-0.191430	-0.116824	0.181923
	H352	H	-0.198664	-0.102260	0.188969
	H353	H	-0.175403	-0.119712	0.189849
	O354	O	0.590532	0.603457	-0.415031
	H355	H	0.595210	0.620990	-0.413205
	H356	H	0.572717	0.591676	-0.410002
	O357	O	-0.064417	0.840918	0.185935
	H358	H	-0.052562	0.831553	0.190283
	H359	H	-0.045513	0.822284	0.182323
	O360	O	0.302730	0.557175	0.354711
	H361	H	0.291733	0.554105	0.330544
	H362	H	0.312035	0.561907	0.372068
	O363	O	0.333696	0.559195	0.653143
	H364	H	0.342537	0.565769	0.650274
	H365	H	0.335097	0.542377	0.666724
	O366	O	0.693707	0.362471	0.485354
	H367	H	0.715826	0.340618	0.485160
	H368	H	0.677747	0.373707	0.470954
	O369	O	0.461491	0.366595	0.608737
	H370	H	0.467056	0.349916	0.620956
	H371	H	0.458738	0.365508	0.589356
	O372	O	0.601209	0.440813	0.615139
	H373	H	0.605694	0.430660	0.591389
	H374	H	0.615094	0.445093	0.610749
	O375	O	0.510368	0.555866	0.457720
	H376	H	0.513228	0.556516	0.472071
	H377	H	0.518488	0.544430	0.477039
	O378	O	0.561411	0.565581	0.297910
	H379	H	0.565485	0.555061	0.313435
	H380	H	0.565763	0.575964	0.305629
	O381	O	0.524555	0.280863	0.282793
	H382	H	0.522469	0.248188	0.251460
	H383	H	0.498287	0.299466	0.296769
	O384	O	0.506233	0.456681	1.639318
	H385	H	0.528892	0.453586	1.630674
	H386	H	0.508080	0.462497	1.628454
	O387	O	1.016468	1.063324	0.033429
	H388	H	1.010856	1.065817	0.035924
	H389	H	1.008257	1.064911	0.023873
	O390	O	0.700066	0.576377	0.521231
	H391	H	0.708461	0.574327	0.508199
	H392	H	0.692469	0.579810	0.499345
	O393	O	1.201279	-0.110214	0.846839
	H394	H	1.188284	-0.114506	0.840340
	H395	H	1.223088	-0.116529	0.823961
	O396	O	0.015316	0.924104	1.052394
	H397	H	0.032445	0.910188	1.047304
	H398	H	0.014070	0.920935	1.056149
	O399	O	0.677642	0.608322	0.574658
	H400	H	0.710627	0.622898	0.589338
	H401	H	0.675329	0.606378	0.575518
	O402	O	0.985460	-0.162377	0.862708
	H403	H	0.989853	-0.159347	0.865365
	H404	H	0.977386	-0.155834	0.870322
	O405	O	-0.192843	0.011805	0.123828
	H406	H	-0.186711	0.017767	0.109141
	H407	H	-0.196695	0.022596	0.137505
	O408	O	0.919239	0.963560	0.802307
	H409	H	0.924608	0.980927	0.801210
	H410	H	0.923566	0.952690	0.812424
	O411	O	1.090502	1.005339	-0.197685
	H412	H	1.086649	1.018427	-0.187059
	H413	H	1.099584	1.025044	-0.198054
	O414	O	0.174343	0.090879	0.942285
	H415	H	0.190426	0.111249	0.949842
	H416	H	0.168477	0.088707	0.937834
	O417	O	0.706355	0.533531	0.344010
	H418	H	0.700470	0.523778	0.335396
	H419	H	0.712156	0.538334	0.326965
	O420	O	-0.127832	1.176168	-0.192009
	H421	H	-0.109132	1.177213	-0.199608
	H422	H	-0.131627	1.155732	-0.203739
	O423	O	1.041199	0.160113	-0.174856
	H424	H	1.040676	0.181018	-0.173131
	H425	H	1.053770	0.173074	-0.161895
	O426	O	-0.156586	0.039897	0.994569
	H427	H	-0.156281	0.042556	0.992636
	H428	H	-0.160184	0.031551	0.989595
	O429	O	0.481980	0.706437	0.386198
	H430	H	0.469472	0.726272	0.370016
	H431	H	0.479250	0.708792	0.402732
