data_Molecule from HDF5

_cell_length_a		16.137448
_cell_length_b		16.398591
_cell_length_c		16.358868
_cell_angle_alpha	89.723428
_cell_angle_beta	90.139980
_cell_angle_gamma	89.670582
_symmetry_space_group_name_H-M	'P 1'
_symmetry_Int_Tables_number		1

loop_
	_symmetry_equiv_pos_as_xyz
	x,y,z

loop_
	_atom_site_label
	_atom_site_type_symbol
	_atom_site_fract_x
	_atom_site_fract_y
	_atom_site_fract_z
	H0	H	0.389928	0.820018	0.733365
	H1	H	0.595917	0.140215	0.730396
	H2	H	0.600429	0.821106	0.290950
	H3	H	0.385129	0.139831	0.289848
	H4	H	0.709512	0.379951	0.850353
	H5	H	0.708588	0.578460	0.174258
	H6	H	0.272963	0.582761	0.851058
	H7	H	0.277841	0.378523	0.174786
	H8	H	0.831606	0.701639	0.406677
	H9	H	0.154891	0.696871	0.618543
	H10	H	0.829854	0.262186	0.616264
	H11	H	0.156914	0.263939	0.414944
	H12	H	0.827696	0.379294	0.728442
	H13	H	0.154477	0.579911	0.732636
	H14	H	0.829070	0.581415	0.296505
	H15	H	0.155407	0.375809	0.297728
	H16	H	0.385136	0.702460	0.852692
	H17	H	0.601155	0.701026	0.170347
	H18	H	0.596124	0.262055	0.850426
	H19	H	0.387984	0.257674	0.171309
	H20	H	0.713273	0.819816	0.410153
	H21	H	0.707496	0.142116	0.610664
	H22	H	0.277079	0.818268	0.614809
	H23	H	0.274894	0.141679	0.412105
	H24	H	0.890141	0.318098	0.232819
	H25	H	0.096652	0.638947	0.234562
	H26	H	0.096096	0.318258	0.796073
	H27	H	0.884823	0.638970	0.791522
	H28	H	0.210541	0.879506	0.351607
	H29	H	0.208287	0.076093	0.676455
	H30	H	0.775322	0.083576	0.352028
	H31	H	0.779012	0.881515	0.675591
	H32	H	0.328895	0.197487	0.908469
	H33	H	0.657179	0.193737	0.110533
	H34	H	0.331819	0.760436	0.116492
	H35	H	0.654951	0.759782	0.907406
	H36	H	0.330814	0.876775	0.230845
	H37	H	0.655279	0.083612	0.230245
	H38	H	0.329324	0.081215	0.794618
	H39	H	0.657181	0.879379	0.797125
	H40	H	0.889704	0.200059	0.353969
	H41	H	0.096900	0.195664	0.675372
	H42	H	0.101315	0.758027	0.354954
	H43	H	0.889498	0.760421	0.673068
	H44	H	0.211456	0.318781	0.913208
	H45	H	0.209186	0.640961	0.114444
	H46	H	0.778754	0.316645	0.111278
	H47	H	0.774352	0.640612	0.912411
	H48	H	0.398691	0.093348	0.595649
	H49	H	0.577895	0.869638	0.598455
	H50	H	0.583374	0.094865	0.421572
	H51	H	0.401068	0.866046	0.424796
	H52	H	0.584100	0.380653	0.128982
	H53	H	0.580220	0.558705	0.901775
	H54	H	0.403549	0.574650	0.128523
	H55	H	0.396751	0.384149	0.894225
	H56	H	0.110635	0.569818	0.421054
	H57	H	0.876039	0.581431	0.593684
	H58	H	0.108466	0.390367	0.607921
	H59	H	0.877634	0.387959	0.428307
	H60	H	0.111169	0.384383	0.608695
	H61	H	0.882627	0.558483	0.595938
	H62	H	0.107089	0.570507	0.428929
	H63	H	0.876966	0.393464	0.422109
	H64	H	0.400233	0.568785	0.126848
	H65	H	0.571089	0.577993	0.898554
	H66	H	0.588389	0.386857	0.127782
	H67	H	0.400700	0.397298	0.899318
	H68	H	0.581659	0.094634	0.418737
	H69	H	0.596788	0.862495	0.601836
	H70	H	0.397116	0.097939	0.608767
	H71	H	0.403133	0.864291	0.416668
	H72	H	0.895507	0.594747	0.102776
	H73	H	0.074089	0.367287	0.110255
	H74	H	0.084511	0.593117	0.927992
	H75	H	0.908903	0.366048	0.918347
	H76	H	0.077916	0.870516	0.631952
	H77	H	0.082176	0.076446	0.397599
	H78	H	0.910248	0.071081	0.625940
	H79	H	0.909378	0.889755	0.400149
	H80	H	0.611322	0.076430	0.921555
	H81	H	0.379528	0.063960	0.097460
	H82	H	0.612092	0.884245	0.102639
	H83	H	0.376101	0.891785	0.919052
	H84	H	0.605258	0.891706	0.092770
	H85	H	0.373954	0.069774	0.106954
	H86	H	0.607921	0.069630	0.923573
	H87	H	0.376694	0.888260	0.924035
	H88	H	0.898338	0.078774	0.632712
	H89	H	0.087221	0.070672	0.397875
	H90	H	0.102093	0.890756	0.632886
	H91	H	0.903476	0.884852	0.395847
	H92	H	0.083276	0.596842	0.915076
	H93	H	0.086131	0.367828	0.095481
	H94	H	0.902073	0.595506	0.111886
	H95	H	0.901051	0.366817	0.928622
	H96	H	0.409344	0.092374	0.604837
	H97	H	0.582533	0.861686	0.616415
	H98	H	0.580473	0.092755	0.421026
	H99	H	0.409618	0.869040	0.421806
	H100	H	0.580783	0.387000	0.126086
	H101	H	0.592126	0.574304	0.893230
	H102	H	0.406877	0.569088	0.124411
	H103	H	0.410091	0.386660	0.899189
	H104	H	0.106510	0.562700	0.424742
	H105	H	0.872420	0.570182	0.614542
	H106	H	0.108720	0.386749	0.602720
	H107	H	0.873837	0.385539	0.421689
	H108	H	0.906536	0.591018	0.102980
	H109	H	0.092233	0.359961	0.112740
	H110	H	0.073046	0.590742	0.921939
	H111	H	0.896601	0.361250	0.917660
	H112	H	0.073448	0.899356	0.620358
	H113	H	0.080180	0.069775	0.400363
	H114	H	0.896107	0.064388	0.627909
	H115	H	0.900876	0.893361	0.398860
	H116	H	0.610795	0.070782	0.915724
	H117	H	0.376457	0.075405	0.096581
	H118	H	0.607681	0.897075	0.105792
	H119	H	0.378705	0.894019	0.924101
	C120	C	0.371760	-0.011687	0.634141
	C121	C	0.614981	0.971335	0.634099
	C122	C	0.614992	-0.011412	0.389877
	C123	C	0.371326	0.971935	0.389985
	C124	C	0.614615	0.356324	0.020464
	C125	C	0.613723	0.600996	1.003677
	C126	C	0.370826	0.602531	0.020630
	C127	C	0.371658	0.358161	1.003619
	C128	C	0.001244	0.600264	0.392641
	C129	C	0.983862	0.600212	0.634078
	C130	C	0.001395	0.357102	0.635980
	C131	C	0.984032	0.358097	0.394021
	C132	C	0.871323	0.487278	0.135171
	C133	C	0.114770	0.470997	0.136190
	C134	C	0.112699	0.487437	0.891983
	C135	C	0.869859	0.470480	0.890679
	C136	C	0.115774	0.856854	0.522209
	C137	C	0.114194	0.101103	0.505602
	C138	C	0.870889	0.102369	0.522548
	C139	C	0.873031	0.859271	0.504516
	C140	C	0.501796	0.102441	0.889494
	C141	C	0.484246	0.100376	0.131222
	C142	C	0.501634	0.859169	0.132312
	C143	C	0.484682	0.859930	0.891499
	C144	C	0.371530	0.867544	0.693332
	C145	C	0.614805	0.092492	0.691023
	C146	C	0.617879	0.868640	0.331087
	C147	C	0.368130	0.092236	0.330603
	C148	C	0.671514	0.359067	0.898843
	C149	C	0.671384	0.599519	0.125277
	C150	C	0.311492	0.602836	0.899834
	C151	C	0.314985	0.358713	0.125581
	C152	C	0.879859	0.661040	0.389378
	C153	C	0.106231	0.657673	0.636307
	C154	C	0.878652	0.300245	0.635761
	C155	C	0.107314	0.301383	0.395140
	C156	C	0.877605	0.358591	0.691561
	C157	C	0.105997	0.599528	0.693320
	C158	C	0.878564	0.601324	0.334357
	C159	C	0.106666	0.357374	0.336751
	C160	C	0.367516	0.662198	0.900471
	C161	C	0.617836	0.660503	0.123227
	C162	C	0.614883	0.300586	0.898835
	C163	C	0.369891	0.298160	0.123857
	C164	C	0.674389	0.868031	0.390230
	C165	C	0.670269	0.093414	0.631358
	C166	C	0.315422	0.866801	0.634175
	C167	C	0.312831	0.093016	0.391237
	C168	C	0.871292	0.366061	0.193128
	C169	C	0.115046	0.591277	0.194659
	C170	C	0.114722	0.366586	0.834802
	C171	C	0.867347	0.591047	0.831691
	C172	C	0.173137	0.858444	0.400836
	C173	C	0.170741	0.097524	0.627689
	C174	C	0.813675	0.102464	0.400740
	C175	C	0.816398	0.860716	0.626488
	C176	C	0.378173	0.159190	0.889311
	C177	C	0.607671	0.156527	0.130639
	C178	C	0.380132	0.800086	0.134575
	C179	C	0.606851	0.800179	0.889886
	C180	C	0.379858	0.857679	0.191928
	C181	C	0.606858	0.101469	0.190076
	C182	C	0.378416	0.101564	0.832467
	C183	C	0.607973	0.859574	0.834896
	C184	C	0.870472	0.160889	0.401650
	C185	C	0.115278	0.157101	0.627106
	C186	C	0.118039	0.798487	0.402186
	C187	C	0.871185	0.800424	0.625471
	C188	C	0.172087	0.366723	0.893167
	C189	C	0.171144	0.592338	0.134810
	C190	C	0.815847	0.365326	0.132634
	C191	C	0.812527	0.592202	0.891996
	C192	C	0.395001	0.072588	0.609955
	C193	C	0.592326	0.886673	0.612012
	C194	C	0.589183	0.072375	0.413456
	C195	C	0.397182	0.888143	0.414030
	C196	C	0.591259	0.378501	0.105494
	C197	C	0.588594	0.577014	0.919793
	C198	C	0.396271	0.577968	0.104682
	C199	C	0.395636	0.382368	0.919275
	C200	C	0.086109	0.575121	0.417500
	C201	C	0.898960	0.576776	0.608739
	C202	C	0.087298	0.380281	0.613080
	C203	C	0.898199	0.381943	0.417394
	C204	C	0.894459	0.571796	0.112422
	C205	C	0.091064	0.386783	0.113035
	C206	C	0.087565	0.571583	0.915030
	C207	C	0.894810	0.386432	0.914688
	C208	C	0.091564	0.880181	0.606595
	C209	C	0.090090	0.078865	0.420659
	C210	C	0.894700	0.078393	0.606821
	C211	C	0.897495	0.882589	0.420379
	C212	C	0.587613	0.079060	0.913321
	C213	C	0.398930	0.076572	0.107344
	C214	C	0.586384	0.883864	0.107644
	C215	C	0.399462	0.884367	0.915353
	Zn216	Zn	0.493247	-0.019856	0.763158
	Zn217	Zn	0.493045	-0.019575	0.260461
	Zn218	Zn	0.741856	0.479181	0.013111
	Zn219	Zn	0.242688	0.480157	0.012632
	Zn220	Zn	-0.006818	0.729060	0.513002
	Zn221	Zn	-0.006808	0.230255	0.515016
	Zn222	Zn	-0.008488	0.478806	0.762426
	Zn223	Zn	-0.007435	0.478395	0.264958
	Zn224	Zn	0.493730	0.730584	0.011335
	Zn225	Zn	0.492532	0.228872	0.011039
	Zn226	Zn	0.743090	-0.019859	0.512599
	Zn227	Zn	0.242839	-0.020126	0.513336
	N228	N	0.406105	0.944041	0.693310
	N229	N	0.581269	0.015675	0.693130
	N230	N	0.581923	0.944738	0.330521
	N231	N	0.403771	0.015805	0.329617
	N232	N	0.671712	0.392966	0.975656
	N233	N	0.669306	0.563292	0.049709
	N234	N	0.313186	0.566532	0.975731
	N235	N	0.315807	0.395367	0.049634
	N236	N	0.957211	0.660487	0.425056
	N237	N	0.029182	0.658347	0.600241
	N238	N	0.956669	0.299004	0.602153
	N239	N	0.029839	0.301891	0.430282
	N240	N	0.955072	0.393197	0.691899
	N241	N	0.028903	0.564627	0.692221
	N242	N	0.954941	0.564158	0.336129
	N243	N	0.028942	0.391800	0.335740
	N244	N	0.403648	0.662221	0.976766
	N245	N	0.582422	0.661117	0.046840
	N246	N	0.580475	0.298717	0.975638
	N247	N	0.404107	0.297657	0.047073
	N248	N	0.672775	0.943669	0.426043
	N249	N	0.670689	0.017030	0.596889
	N250	N	0.315593	0.942549	0.597973
	N251	N	0.314457	0.017141	0.427156
	N252	N	0.904860	0.442839	0.194865
	N253	N	0.080836	0.514559	0.195644
	N254	N	0.078387	0.442681	0.833955
	N255	N	0.902322	0.514464	0.830860
	N256	N	0.171996	0.894023	0.476657
	N257	N	0.170163	0.063370	0.551041
	N258	N	0.813806	0.066778	0.476826
	N259	N	0.816986	0.896235	0.550174
	N260	N	0.455959	0.160056	0.923741
	N261	N	0.530312	0.156205	0.095050
	N262	N	0.457032	0.800597	0.098542
	N263	N	0.529072	0.800117	0.924150
	N264	N	0.456648	0.893596	0.190797
	N265	N	0.529093	0.067525	0.190945
	N266	N	0.456377	0.067282	0.832229
	N267	N	0.531148	0.896120	0.835736
	N268	N	0.905271	0.161138	0.478239
	N269	N	0.080884	0.159296	0.550030
	N270	N	0.083293	0.797317	0.478783
	N271	N	0.905644	0.799292	0.548764
	N272	N	0.170851	0.442805	0.927916
	N273	N	0.171053	0.516763	0.099057
	N274	N	0.815495	0.441759	0.097460
	N275	N	0.813821	0.516257	0.928051
	O276	O	0.508123	0.407248	0.469963
	H277	H	0.507695	0.401115	0.448962
	H278	H	0.512855	0.399035	0.462346
	O279	O	0.384258	0.656509	0.467996
	H280	H	0.367095	0.674976	0.462079
	H281	H	0.387180	0.668465	0.487617
	O282	O	0.912775	-0.150933	0.998868
	H283	H	0.914902	-0.153239	0.992291
	H284	H	0.916373	-0.152523	1.006221
	O285	O	0.634926	0.473972	0.546080
	H286	H	0.626313	0.489720	0.544243
	H287	H	0.616653	0.485452	0.542569
	O288	O	0.851902	0.973152	0.955313
	H289	H	0.846584	0.970285	0.940290
	H290	H	0.851273	0.981330	0.944042
	O291	O	0.675364	1.573354	-0.299080
	H292	H	0.689188	1.552614	-0.284771
	H293	H	0.682942	1.563500	-0.337290
	O294	O	0.328891	0.374514	0.626053
	H295	H	0.321704	0.384331	0.622296
	H296	H	0.326297	0.377739	0.624119
	O297	O	0.586527	0.322338	0.632984
	H298	H	0.559310	0.320873	0.643259
	H299	H	0.576195	0.327572	0.627270
	O300	O	0.468267	0.583240	0.581202
	H301	H	0.467688	0.582837	0.597462
	H302	H	0.453785	0.568721	0.563129
	O303	O	1.021921	1.128504	0.176427
	H304	H	1.011961	1.117930	0.177083
	H305	H	1.015278	1.132549	0.162287
	O306	O	0.697551	0.368503	0.424429
	H307	H	0.726609	0.352509	0.417251
	H308	H	0.686134	0.372535	0.460829
	O309	O	0.352321	0.457991	0.545877
	H310	H	0.349965	0.460450	0.551875
	H311	H	0.362714	0.468084	0.535889
	O312	O	0.017568	0.000708	0.001996
	H313	H	0.010660	-0.005596	-0.000850
	H314	H	0.022858	0.001318	-0.013369
	O315	O	0.511080	0.610031	0.311750
	H316	H	0.488124	0.597889	0.318406
	H317	H	0.507577	0.634033	0.289216
	O318	O	-0.127907	1.088832	0.971221
	H319	H	-0.122542	1.090230	0.957366
	H320	H	-0.127977	1.098332	0.963158
	O321	O	0.497140	0.286336	0.381590
	H322	H	0.525106	0.285024	0.367547
	H323	H	0.501841	0.288684	0.376561
	O324	O	0.060403	1.146453	-0.036513
	H325	H	0.060342	1.144740	-0.040811
	H326	H	0.056075	1.157663	-0.041149
	O327	O	-0.072143	-0.117091	-0.053298
	H328	H	-0.068069	-0.112765	-0.063201
	H329	H	-0.081515	-0.129702	-0.044568
	O330	O	0.131626	-0.188962	0.928564
	H331	H	0.129862	-0.176098	0.921611
	H332	H	0.150854	-0.199760	0.914644
	O333	O	-0.076498	-0.120244	1.175093
	H334	H	-0.071872	-0.128362	1.164714
	H335	H	-0.081620	-0.114608	1.175831
	O336	O	0.372546	0.570165	0.575910
	H337	H	0.371249	0.578888	0.581222
	H338	H	0.383359	0.554312	0.587036
	O339	O	1.058651	0.015779	0.109036
	H340	H	1.080876	0.024416	0.128034
	H341	H	1.058362	0.022255	0.117039
	O342	O	0.009661	-0.118908	-0.019287
	H343	H	-0.001530	-0.128158	-0.012692
	H344	H	0.004285	-0.116204	-0.031986
	O345	O	0.966479	-0.086596	1.047284
	H346	H	0.970896	-0.078597	1.047743
	H347	H	0.967899	-0.085432	1.057677
	O348	O	0.909132	1.045759	0.022391
	H349	H	0.908329	1.051547	0.017913
	H350	H	0.890866	1.050050	0.022453
	O351	O	0.384148	0.632167	0.401288
	H352	H	0.365112	0.627412	0.410228
	H353	H	0.384086	0.607487	0.411736
	O354	O	1.093009	0.061292	1.042527
	H355	H	1.091605	0.075097	1.035569
	H356	H	1.089381	0.067442	1.042667
	O357	O	0.615628	0.666994	0.517041
	H358	H	0.603864	0.677819	0.504578
	H359	H	0.604538	0.668782	0.517462
	O360	O	1.166740	1.062967	1.113327
	H361	H	1.155446	1.074336	1.112515
	H362	H	1.158870	1.069605	1.122238
	O363	O	0.024213	0.941957	0.919363
	H364	H	0.027979	0.945673	0.915431
	H365	H	0.032133	0.936771	0.935455
	O366	O	0.645109	0.433616	0.315956
	H367	H	0.648243	0.433960	0.317188
	H368	H	0.660804	0.417714	0.316362
	O369	O	-0.027565	1.054010	-0.132542
	H370	H	-0.034088	1.053224	-0.126693
	H371	H	-0.032176	1.059764	-0.139262
	O372	O	0.376689	0.409760	0.455767
	H373	H	0.386120	0.404566	0.438746
	H374	H	0.382128	0.400120	0.454525
	O375	O	0.545296	0.421007	0.382410
	H376	H	0.551138	0.436011	0.370691
	H377	H	0.567396	0.422096	0.373500
	O378	O	0.905346	1.111174	0.029148
	H379	H	0.906954	1.121460	0.021229
	H380	H	0.897907	1.091510	0.037123
	O381	O	0.561482	0.368623	-0.419899
	H382	H	0.549698	0.363055	-0.414180
	H383	H	0.549856	0.376639	-0.409651
	O384	O	1.494076	1.378429	-0.574460
	H385	H	1.482224	1.380147	-0.569933
	H386	H	1.507790	1.369160	-0.583422
	O387	O	0.006122	-0.050466	0.093355
	H388	H	-0.001905	-0.060513	0.086833
	H389	H	0.017126	-0.050718	0.113985
	O390	O	-0.109927	0.921177	-0.076318
	H391	H	-0.118447	0.921705	-0.072763
	H392	H	-0.109279	0.915864	-0.067375
	O393	O	0.363471	0.540497	0.620200
	H394	H	0.373142	0.557329	0.609742
	H395	H	0.364575	0.544586	0.625607
	O396	O	0.528416	0.649602	0.686480
	H397	H	0.551539	0.645977	0.697484
	H398	H	0.540157	0.646901	0.694070
	O399	O	0.480085	1.355934	1.717205
	H400	H	0.449560	1.356718	1.708912
	H401	H	0.478292	1.336759	1.736293
	O402	O	0.560091	0.657422	0.469799
	H403	H	0.557770	0.660940	0.479565
	H404	H	0.541274	0.665918	0.452553
	O405	O	1.106194	0.931504	0.001156
	H406	H	1.100317	0.936385	0.008553
	H407	H	1.111385	0.910631	-0.003608
	O408	O	0.929654	0.961870	0.116137
	H409	H	0.929475	0.949752	0.118680
	H410	H	0.920848	0.953226	0.122688
	O411	O	1.117130	-0.104118	1.099530
	H412	H	1.114051	-0.107553	1.090731
	H413	H	1.124272	-0.097016	1.103816
	O414	O	0.319091	0.406550	0.504308
	H415	H	0.326479	0.387810	0.496614
	H416	H	0.333376	0.412193	0.500112
	O417	O	0.481226	0.519567	0.372218
	H418	H	0.475137	0.543021	0.367152
	H419	H	0.498122	0.524339	0.364077
