data_Molecule from HDF5

_cell_length_a		16.209192
_cell_length_b		16.280917
_cell_length_c		16.178486
_cell_angle_alpha	90.166737
_cell_angle_beta	90.024002
_cell_angle_gamma	89.614136
_symmetry_space_group_name_H-M	'P 1'
_symmetry_Int_Tables_number		1

loop_
	_symmetry_equiv_pos_as_xyz
	x,y,z

loop_
	_atom_site_label
	_atom_site_type_symbol
	_atom_site_fract_x
	_atom_site_fract_y
	_atom_site_fract_z
	H0	H	0.402746	0.851635	0.715847
	H1	H	0.598325	0.178655	0.715931
	H2	H	0.601577	0.851171	0.285703
	H3	H	0.402026	0.178767	0.287227
	H4	H	0.716550	0.415129	0.838485
	H5	H	0.713978	0.613406	0.167695
	H6	H	0.288149	0.611864	0.837308
	H7	H	0.290062	0.418680	0.167462
	H8	H	0.838334	0.730021	0.403195
	H9	H	0.165931	0.728996	0.603116
	H10	H	0.837926	0.301180	0.601747
	H11	H	0.166067	0.298473	0.402417
	H12	H	0.838399	0.417200	0.717139
	H13	H	0.167058	0.611539	0.715157
	H14	H	0.837413	0.612717	0.289633
	H15	H	0.167106	0.416517	0.289495
	H16	H	0.400069	0.729620	0.837903
	H17	H	0.599937	0.730402	0.166035
	H18	H	0.602477	0.298776	0.838854
	H19	H	0.403978	0.302412	0.167046
	H20	H	0.718925	0.851289	0.400341
	H21	H	0.715488	0.178481	0.600566
	H22	H	0.289172	0.851298	0.599477
	H23	H	0.284472	0.178031	0.400808
	H24	H	0.906319	0.350612	0.215610
	H25	H	0.099229	0.678858	0.217188
	H26	H	0.102802	0.351412	0.786989
	H27	H	0.903168	0.679762	0.789140
	H28	H	0.216292	0.915327	0.337160
	H29	H	0.214771	0.112304	0.666634
	H30	H	0.787023	0.113803	0.337304
	H31	H	0.789011	0.917515	0.665613
	H32	H	0.337683	0.230774	0.903599
	H33	H	0.665230	0.228991	0.103392
	H34	H	0.336766	0.801980	0.100850
	H35	H	0.664233	0.798007	0.902210
	H36	H	0.336779	0.919710	0.214207
	H37	H	0.665945	0.111141	0.215824
	H38	H	0.336789	0.112827	0.789313
	H39	H	0.666330	0.915286	0.789281
	H40	H	0.901369	0.229898	0.337441
	H41	H	0.102445	0.230051	0.665442
	H42	H	0.103336	0.797572	0.338305
	H43	H	0.904606	0.803298	0.666729
	H44	H	0.218917	0.351619	0.903365
	H45	H	0.214848	0.679361	0.101115
	H46	H	0.788984	0.351171	0.102052
	H47	H	0.785751	0.678516	0.904875
	H48	H	0.419927	0.127108	0.588633
	H49	H	0.598351	0.898855	0.588790
	H50	H	0.597591	0.133440	0.404999
	H51	H	0.418128	0.901958	0.410372
	H52	H	0.583650	0.436188	0.112541
	H53	H	0.592042	0.596812	0.888617
	H54	H	0.416214	0.623510	0.122010
	H55	H	0.412478	0.421967	0.885438
	H56	H	0.119800	0.614233	0.417900
	H57	H	0.884736	0.605656	0.598571
	H58	H	0.118421	0.421149	0.592327
	H59	H	0.882861	0.418983	0.405434
	H60	H	0.119637	0.422531	0.595734
	H61	H	0.883684	0.614109	0.595601
	H62	H	0.116352	0.596485	0.410872
	H63	H	0.885815	0.419260	0.413737
	H64	H	0.392600	0.607041	0.124433
	H65	H	0.585752	0.613078	0.885083
	H66	H	0.587612	0.402149	0.124038
	H67	H	0.408479	0.419733	0.883661
	H68	H	0.589389	0.130032	0.408582
	H69	H	0.600895	0.895107	0.598166
	H70	H	0.394886	0.133957	0.587102
	H71	H	0.402708	0.897997	0.413692
	H72	H	0.908820	0.631086	0.092567
	H73	H	0.095924	0.398996	0.092827
	H74	H	0.092525	0.628237	0.917417
	H75	H	0.917811	0.399335	0.903351
	H76	H	0.096879	0.908179	0.624637
	H77	H	0.098238	0.102936	0.383692
	H78	H	0.912545	0.105228	0.616755
	H79	H	0.912630	0.914388	0.382162
	H80	H	0.616294	0.099697	0.911728
	H81	H	0.382744	0.107405	0.101329
	H82	H	0.616981	0.924609	0.092145
	H83	H	0.382331	0.909591	0.916423
	H84	H	0.620356	0.920680	0.097549
	H85	H	0.382193	0.117231	0.092765
	H86	H	0.621724	0.108788	0.902296
	H87	H	0.388606	0.933815	0.914399
	H88	H	0.910750	0.112152	0.620198
	H89	H	0.088410	0.104943	0.386393
	H90	H	0.107473	0.929937	0.619750
	H91	H	0.904148	0.921757	0.381425
	H92	H	0.105645	0.636024	0.907121
	H93	H	0.100840	0.395979	0.095704
	H94	H	0.903825	0.632553	0.096546
	H95	H	0.911567	0.401658	0.917687
	H96	H	0.408804	0.136226	0.608902
	H97	H	0.591691	0.898555	0.597218
	H98	H	0.597536	0.130963	0.414335
	H99	H	0.408359	0.895335	0.399519
	H100	H	0.615446	0.424368	0.125595
	H101	H	0.603130	0.609084	0.881703
	H102	H	0.417592	0.596472	0.113291
	H103	H	0.408618	0.424007	0.884685
	H104	H	0.124065	0.609094	0.399255
	H105	H	0.886615	0.608067	0.590752
	H106	H	0.120322	0.419111	0.594586
	H107	H	0.885377	0.426216	0.408839
	H108	H	0.910345	0.632231	0.099104
	H109	H	0.095998	0.397876	0.098981
	H110	H	0.088943	0.633250	0.900205
	H111	H	0.903287	0.395567	0.906676
	H112	H	0.082857	0.925952	0.614232
	H113	H	0.094458	0.111609	0.382393
	H114	H	0.906085	0.106639	0.619949
	H115	H	0.914108	0.925433	0.385900
	H116	H	0.619246	0.112752	0.914811
	H117	H	0.386533	0.105641	0.089484
	H118	H	0.618541	0.917894	0.091160
	H119	H	0.378772	0.921888	0.894503
	C120	C	0.380061	0.023913	0.623191
	C121	C	0.624483	1.005764	0.623666
	C122	C	0.623887	0.023144	0.379739
	C123	C	0.380351	1.006652	0.379695
	C124	C	0.624227	0.392422	0.011911
	C125	C	0.622167	0.635600	0.993868
	C126	C	0.379521	0.636804	0.010966
	C127	C	0.381584	0.394183	0.993603
	C128	C	0.011142	0.635964	0.381165
	C129	C	0.993701	0.636892	0.624081
	C130	C	0.010956	0.393127	0.623101
	C131	C	0.993378	0.392787	0.380565
	C132	C	0.880276	0.523382	0.124675
	C133	C	0.124613	0.506422	0.124338
	C134	C	0.124516	0.523993	0.880435
	C135	C	0.880779	0.506969	0.880726
	C136	C	0.124835	0.891998	0.510905
	C137	C	0.122872	0.135267	0.492652
	C138	C	0.880861	0.136410	0.510063
	C139	C	0.881398	0.892975	0.492581
	C140	C	0.510458	0.136427	0.880860
	C141	C	0.492765	0.137079	0.123557
	C142	C	0.510143	0.893580	0.122744
	C143	C	0.491941	0.892676	0.879732
	C144	C	0.382764	0.900590	0.678214
	C145	C	0.620105	0.129523	0.678495
	C146	C	0.622195	0.900104	0.323608
	C147	C	0.381867	0.129978	0.325000
	C148	C	0.678951	0.394997	0.887761
	C149	C	0.676667	0.633592	0.118184
	C150	C	0.324958	0.633284	0.886797
	C151	C	0.327017	0.397456	0.118100
	C152	C	0.887343	0.691742	0.383385
	C153	C	0.117368	0.690914	0.622438
	C154	C	0.887217	0.338866	0.621599
	C155	C	0.117035	0.336782	0.382372
	C156	C	0.887300	0.396589	0.678896
	C157	C	0.117668	0.632691	0.678567
	C158	C	0.886899	0.633937	0.326383
	C159	C	0.117593	0.395420	0.326206
	C160	C	0.381096	0.691284	0.886941
	C161	C	0.620537	0.692248	0.117175
	C162	C	0.622496	0.337072	0.887968
	C163	C	0.383749	0.339835	0.117942
	C164	C	0.680361	0.900029	0.380642
	C165	C	0.678140	0.129376	0.620992
	C166	C	0.326377	0.900357	0.619928
	C167	C	0.323251	0.129330	0.381282
	C168	C	0.884489	0.399804	0.178920
	C169	C	0.120282	0.630084	0.179063
	C170	C	0.122883	0.400361	0.825051
	C171	C	0.882392	0.630279	0.826334
	C172	C	0.179092	0.894609	0.386610
	C173	C	0.178065	0.133189	0.617011
	C174	C	0.825293	0.133884	0.386226
	C175	C	0.826517	0.896719	0.616572
	C176	C	0.386663	0.192364	0.883185
	C177	C	0.616412	0.191019	0.122562
	C178	C	0.385914	0.839529	0.120734
	C179	C	0.615437	0.836060	0.881593
	C180	C	0.385942	0.897580	0.177350
	C181	C	0.616788	0.132465	0.178485
	C182	C	0.386228	0.133989	0.826255
	C183	C	0.616461	0.894815	0.825695
	C184	C	0.881910	0.191809	0.386386
	C185	C	0.122115	0.191533	0.616550
	C186	C	0.122962	0.836198	0.387248
	C187	C	0.884231	0.840180	0.617142
	C188	C	0.180310	0.400489	0.882821
	C189	C	0.177831	0.630245	0.121600
	C190	C	0.826297	0.400154	0.122200
	C191	C	0.824353	0.629974	0.884083
	C192	C	0.401551	0.110149	0.601361
	C193	C	0.603213	0.919874	0.601322
	C194	C	0.601474	0.109169	0.402641
	C195	C	0.403242	0.920640	0.401391
	C196	C	0.602104	0.414279	0.098454
	C197	C	0.600118	0.612911	0.907468
	C198	C	0.402110	0.615340	0.097667
	C199	C	0.403275	0.415504	0.906850
	C200	C	0.097685	0.613307	0.403009
	C201	C	0.907169	0.615674	0.601681
	C202	C	0.097219	0.414478	0.600714
	C203	C	0.906860	0.415080	0.402803
	C204	C	0.901579	0.609703	0.102673
	C205	C	0.103838	0.420071	0.102370
	C206	C	0.102264	0.610173	0.902057
	C207	C	0.904054	0.420905	0.902674
	C208	C	0.102371	0.914565	0.597338
	C209	C	0.100301	0.112928	0.406595
	C210	C	0.903261	0.114445	0.596518
	C211	C	0.903648	0.914246	0.405797
	C212	C	0.596708	0.113837	0.903157
	C213	C	0.406095	0.116154	0.101243
	C214	C	0.596390	0.914751	0.100387
	C215	C	0.405473	0.915135	0.901884
	Zn216	Zn	0.501656	0.014795	0.751862
	Zn217	Zn	0.501487	0.015050	0.251012
	Zn218	Zn	0.751359	0.514486	0.003446
	Zn219	Zn	0.252677	0.515196	0.002729
	Zn220	Zn	0.002676	0.764616	0.502469
	Zn221	Zn	0.002148	0.264075	0.501576
	Zn222	Zn	0.002649	0.515339	0.751441
	Zn223	Zn	0.001999	0.514858	0.252823
	Zn224	Zn	0.500525	0.764610	0.001707
	Zn225	Zn	0.502064	0.265475	0.002617
	Zn226	Zn	0.753262	0.014393	0.500869
	Zn227	Zn	0.251778	0.014496	0.501540
	N228	N	0.415586	0.978390	0.680267
	N229	N	0.587482	0.051841	0.680145
	N230	N	0.587887	0.977824	0.322669
	N231	N	0.416730	0.052671	0.323837
	N232	N	0.680353	0.428616	0.965917
	N233	N	0.677766	0.599177	0.040520
	N234	N	0.324044	0.600019	0.964804
	N235	N	0.325333	0.430440	0.039822
	N236	N	0.965673	0.693263	0.416466
	N237	N	0.039298	0.693477	0.589074
	N238	N	0.965232	0.336407	0.587725
	N239	N	0.038726	0.334913	0.415189
	N240	N	0.965244	0.429506	0.680165
	N241	N	0.039688	0.599776	0.679511
	N242	N	0.964791	0.599909	0.325013
	N243	N	0.039687	0.429546	0.325020
	N244	N	0.414316	0.693619	0.965288
	N245	N	0.587313	0.693708	0.038918
	N246	N	0.589287	0.335252	0.966057
	N247	N	0.417149	0.337775	0.039724
	N248	N	0.681426	0.977468	0.414910
	N249	N	0.681167	0.051337	0.587726
	N250	N	0.324405	0.978111	0.586767
	N251	N	0.322414	0.051724	0.414787
	N252	N	0.917057	0.477667	0.180620
	N253	N	0.087987	0.552075	0.181202
	N254	N	0.088896	0.478093	0.823368
	N255	N	0.916677	0.552809	0.824214
	N256	N	0.180534	0.928481	0.464568
	N257	N	0.178636	0.098736	0.539158
	N258	N	0.824421	0.100278	0.464081
	N259	N	0.824843	0.929121	0.538091
	N260	N	0.465018	0.194331	0.916168
	N261	N	0.538342	0.193889	0.089200
	N262	N	0.464102	0.836910	0.087482
	N263	N	0.537174	0.834710	0.914521
	N264	N	0.463995	0.930477	0.178629
	N265	N	0.538844	0.099535	0.179133
	N266	N	0.464106	0.099990	0.824705
	N267	N	0.538672	0.929392	0.824310
	N268	N	0.915597	0.193707	0.464564
	N269	N	0.088677	0.193108	0.538493
	N270	N	0.090125	0.834215	0.465664
	N271	N	0.917604	0.837691	0.538994
	N272	N	0.181605	0.478211	0.916391
	N273	N	0.180414	0.552492	0.088168
	N274	N	0.823646	0.478018	0.089169
	N275	N	0.823125	0.552090	0.917203
	O276	O	0.508551	0.528470	0.485331
	H277	H	0.508123	0.535402	0.476744
	H278	H	0.509689	0.524614	0.488130
	O279	O	0.520092	0.420464	0.492379
	H280	H	0.509297	0.403360	0.492501
	H281	H	0.508292	0.413652	0.492776
	O282	O	0.551276	0.518614	0.442912
	H283	H	0.555509	0.514196	0.442396
	H284	H	0.548253	0.504982	0.445091
	O285	O	-0.010707	1.057501	0.956113
	H286	H	-0.009651	1.062507	0.950049
	H287	H	-0.009930	1.070174	0.955515
	O288	O	0.485424	0.534966	0.468486
	H289	H	0.484023	0.538399	0.486226
	H290	H	0.473266	0.543553	0.472835
	O291	O	-0.073453	0.094311	0.990371
	H292	H	-0.071118	0.105330	0.988700
	H293	H	-0.066505	0.099621	0.989825
	O294	O	0.485706	0.617987	0.516860
	H295	H	0.488364	0.623516	0.513257
	H296	H	0.493667	0.622322	0.516604
	O297	O	0.475319	0.460278	0.534760
	H298	H	0.476157	0.461632	0.531157
	H299	H	0.462356	0.456663	0.534845
	O300	O	0.531222	0.507432	0.570056
	H301	H	0.533970	0.502652	0.573571
	H302	H	0.541038	0.525590	0.566656
	O303	O	0.506167	0.527369	0.519480
	H304	H	0.505968	0.532855	0.512927
	H305	H	0.517159	0.537532	0.524159
	O306	O	0.967168	0.037702	1.018000
	H307	H	0.972222	0.037833	1.017635
	H308	H	0.960704	0.036578	1.029658
	O309	O	-0.064481	0.030538	-0.027536
	H310	H	-0.071132	0.032864	-0.024638
	H311	H	-0.066781	0.041715	-0.024095
	O312	O	0.489998	0.600129	0.540356
	H313	H	0.484726	0.610230	0.554095
	H314	H	0.495487	0.595340	0.538806
	O315	O	0.926420	0.068758	0.962418
	H316	H	0.922386	0.060544	0.972907
	H317	H	0.922840	0.069723	0.957570
	O318	O	-0.032869	0.072100	0.007628
	H319	H	-0.035583	0.068927	0.009184
	H320	H	-0.036067	0.077165	-0.007557
	O321	O	0.488812	0.553617	0.415345
	H322	H	0.491579	0.546721	0.415629
	H323	H	0.484910	0.551058	0.423591
	O324	O	1.418363	-0.426127	-0.543792
	H325	H	1.427543	-0.429203	-0.545075
	H326	H	1.418565	-0.417109	-0.540402
	O327	O	0.466622	0.503081	0.515975
	H328	H	0.463080	0.509980	0.498974
	H329	H	0.466662	0.505546	0.517475
	O330	O	0.540609	0.472521	0.551983
	H331	H	0.536612	0.475996	0.554880
	H332	H	0.542992	0.467913	0.551734
	O333	O	0.566569	-0.553637	0.528331
	H334	H	0.577701	-0.541671	0.523332
	H335	H	0.568372	-0.557804	0.520576
