data_Molecule from HDF5

_cell_length_a		16.229610
_cell_length_b		16.326050
_cell_length_c		16.339467
_cell_angle_alpha	89.978867
_cell_angle_beta	89.828300
_cell_angle_gamma	89.878551
_symmetry_space_group_name_H-M	'P 1'
_symmetry_Int_Tables_number		1

loop_
	_symmetry_equiv_pos_as_xyz
	x,y,z

loop_
	_atom_site_label
	_atom_site_type_symbol
	_atom_site_fract_x
	_atom_site_fract_y
	_atom_site_fract_z
	H0	H	0.385611	0.815891	0.734714
	H1	H	0.588997	0.137695	0.734390
	H2	H	0.591180	0.815492	0.298247
	H3	H	0.382386	0.136901	0.295841
	H4	H	0.708693	0.375864	0.852604
	H5	H	0.708064	0.576889	0.177178
	H6	H	0.275166	0.577076	0.852302
	H7	H	0.272844	0.376890	0.177383
	H8	H	0.826853	0.695163	0.412616
	H9	H	0.152362	0.693262	0.614166
	H10	H	0.827632	0.259929	0.618975
	H11	H	0.151520	0.258259	0.411740
	H12	H	0.829639	0.371715	0.735128
	H13	H	0.152730	0.577283	0.729816
	H14	H	0.828644	0.580895	0.295347
	H15	H	0.153473	0.376862	0.298685
	H16	H	0.390101	0.695790	0.853570
	H17	H	0.593963	0.695042	0.177480
	H18	H	0.593535	0.257962	0.852989
	H19	H	0.389149	0.260165	0.177811
	H20	H	0.705779	0.815305	0.414645
	H21	H	0.705021	0.138188	0.619241
	H22	H	0.272584	0.814791	0.615654
	H23	H	0.271797	0.139878	0.416295
	H24	H	0.888421	0.316695	0.233601
	H25	H	0.094965	0.637104	0.232487
	H26	H	0.093820	0.314716	0.796478
	H27	H	0.888594	0.637731	0.796238
	H28	H	0.204920	0.878963	0.353413
	H29	H	0.202962	0.078178	0.678144
	H30	H	0.770211	0.077893	0.354657
	H31	H	0.771036	0.875649	0.678283
	H32	H	0.327571	0.195758	0.915236
	H33	H	0.652530	0.192853	0.117147
	H34	H	0.327928	0.758864	0.118336
	H35	H	0.653364	0.762385	0.914221
	H36	H	0.326032	0.875414	0.232875
	H37	H	0.651050	0.077853	0.234021
	H38	H	0.325195	0.080213	0.801258
	H39	H	0.650146	0.875505	0.797251
	H40	H	0.885490	0.196387	0.354904
	H41	H	0.089725	0.195559	0.676988
	H42	H	0.090512	0.761550	0.353016
	H43	H	0.886474	0.758230	0.676618
	H44	H	0.207777	0.314273	0.913735
	H45	H	0.204399	0.639054	0.113035
	H46	H	0.773958	0.315320	0.116357
	H47	H	0.772803	0.638187	0.911384
	H48	H	0.399787	0.090372	0.604833
	H49	H	0.583522	0.856984	0.616008
	H50	H	0.579655	0.095572	0.415365
	H51	H	0.400168	0.862508	0.425219
	H52	H	0.581469	0.386560	0.128327
	H53	H	0.581692	0.575664	0.898440
	H54	H	0.393644	0.566108	0.130487
	H55	H	0.399302	0.381230	0.899140
	H56	H	0.108747	0.571422	0.416065
	H57	H	0.871710	0.566711	0.612657
	H58	H	0.105393	0.387121	0.605771
	H59	H	0.879111	0.397330	0.428415
	H60	H	0.105813	0.384354	0.603798
	H61	H	0.873444	0.573601	0.601890
	H62	H	0.105502	0.574842	0.428054
	H63	H	0.870635	0.387398	0.412916
	H64	H	0.402658	0.563575	0.127351
	H65	H	0.587132	0.565189	0.900288
	H66	H	0.580888	0.382872	0.129449
	H67	H	0.397141	0.390812	0.900905
	H68	H	0.567032	0.087643	0.428819
	H69	H	0.567189	0.865448	0.608395
	H70	H	0.388583	0.094644	0.608633
	H71	H	0.394596	0.861954	0.426848
	H72	H	0.898682	0.593813	0.109737
	H73	H	0.080095	0.362171	0.103823
	H74	H	0.078019	0.590108	0.921131
	H75	H	0.896156	0.360967	0.925761
	H76	H	0.078871	0.884123	0.631484
	H77	H	0.091233	0.063900	0.398488
	H78	H	0.901977	0.066216	0.628514
	H79	H	0.884787	0.895776	0.399691
	H80	H	0.608145	0.069912	0.917328
	H81	H	0.373087	0.072824	0.102257
	H82	H	0.606329	0.884165	0.110457
	H83	H	0.371353	0.881869	0.926235
	H84	H	0.604504	0.884431	0.104908
	H85	H	0.375465	0.062421	0.105027
	H86	H	0.605092	0.071750	0.930857
	H87	H	0.375070	0.887419	0.930369
	H88	H	0.897524	0.073839	0.633002
	H89	H	0.070177	0.060306	0.405577
	H90	H	0.080063	0.882389	0.631695
	H91	H	0.910875	0.893446	0.407814
	H92	H	0.085846	0.591922	0.925282
	H93	H	0.085754	0.359583	0.104973
	H94	H	0.905565	0.589699	0.103810
	H95	H	0.901782	0.361341	0.919546
	H96	H	0.398416	0.093446	0.616486
	H97	H	0.583564	0.862810	0.597846
	H98	H	0.585838	0.091683	0.433716
	H99	H	0.395926	0.860539	0.422339
	H100	H	0.583593	0.385017	0.130594
	H101	H	0.575637	0.566519	0.903647
	H102	H	0.400624	0.572742	0.130912
	H103	H	0.406117	0.386636	0.903215
	H104	H	0.103216	0.562445	0.424108
	H105	H	0.877185	0.561716	0.601842
	H106	H	0.104947	0.387385	0.602187
	H107	H	0.873443	0.378253	0.430943
	H108	H	0.896338	0.592010	0.100010
	H109	H	0.081056	0.359821	0.109312
	H110	H	0.084794	0.594662	0.916427
	H111	H	0.903965	0.363098	0.927576
	H112	H	0.081380	0.884650	0.631813
	H113	H	0.075564	0.080298	0.398145
	H114	H	0.892178	0.065861	0.631084
	H115	H	0.897860	0.872209	0.396160
	H116	H	0.602330	0.059524	0.923519
	H117	H	0.371676	0.069350	0.111862
	H118	H	0.604606	0.889094	0.108247
	H119	H	0.372543	0.888611	0.923508
	C120	C	0.365493	-0.013800	0.639371
	C121	C	0.608429	0.968318	0.637907
	C122	C	0.609067	-0.014673	0.395085
	C123	C	0.366209	0.968578	0.394731
	C124	C	0.612745	0.354440	0.022876
	C125	C	0.612416	0.598821	1.007472
	C126	C	0.369067	0.598485	0.023293
	C127	C	0.369362	0.355521	1.007376
	C128	C	-0.001346	0.599788	0.391830
	C129	C	0.981357	0.597568	0.635441
	C130	C	-0.001489	0.355692	0.635712
	C131	C	0.981724	0.356664	0.393514
	C132	C	0.869576	0.485530	0.135635
	C133	C	0.112134	0.467671	0.135418
	C134	C	0.113225	0.485298	0.891487
	C135	C	0.869653	0.468220	0.893040
	C136	C	0.110492	0.855367	0.524186
	C137	C	0.109209	0.098679	0.507537
	C138	C	0.866411	0.099360	0.524392
	C139	C	0.867195	0.855941	0.507660
	C140	C	0.497625	0.098125	0.894386
	C141	C	0.480850	0.098144	0.137242
	C142	C	0.497972	0.855029	0.138519
	C143	C	0.480634	0.856200	0.895615
	C144	C	0.366147	0.864071	0.695819
	C145	C	0.608430	0.089752	0.695374
	C146	C	0.610011	0.863975	0.337001
	C147	C	0.365008	0.089471	0.336243
	C148	C	0.669658	0.355765	0.900927
	C149	C	0.669587	0.597253	0.128935
	C150	C	0.313033	0.597386	0.901114
	C151	C	0.311459	0.356691	0.128933
	C152	C	0.875937	0.656528	0.392631
	C153	C	0.103761	0.654691	0.634153
	C154	C	0.876441	0.298234	0.637527
	C155	C	0.103247	0.297635	0.392831
	C156	C	0.877493	0.354103	0.695389
	C157	C	0.104109	0.596703	0.691304
	C158	C	0.876873	0.599711	0.334269
	C159	C	0.104384	0.356702	0.336720
	C160	C	0.370105	0.656493	0.901818
	C161	C	0.612973	0.656056	0.128810
	C162	C	0.612684	0.296964	0.901171
	C163	C	0.369435	0.298623	0.129225
	C164	C	0.667120	0.863866	0.394946
	C165	C	0.666064	0.089966	0.638061
	C166	C	0.309769	0.863742	0.636986
	C167	C	0.309719	0.090873	0.396248
	C168	C	0.869342	0.364517	0.194046
	C169	C	0.113090	0.588987	0.193124
	C170	C	0.113113	0.363178	0.835059
	C171	C	0.869648	0.589491	0.835077
	C172	C	0.166919	0.858260	0.401902
	C173	C	0.165452	0.098025	0.629327
	C174	C	0.808983	0.098230	0.402981
	C175	C	0.809424	0.855541	0.629259
	C176	C	0.375571	0.156471	0.895776
	C177	C	0.603493	0.154601	0.136786
	C178	C	0.376044	0.797816	0.137726
	C179	C	0.603726	0.799933	0.894927
	C180	C	0.375187	0.855828	0.194770
	C181	C	0.602459	0.097665	0.195188
	C182	C	0.374632	0.098840	0.838918
	C183	C	0.602405	0.856565	0.836963
	C184	C	0.866375	0.157101	0.403250
	C185	C	0.109044	0.156669	0.628765
	C186	C	0.110069	0.799869	0.401613
	C187	C	0.866846	0.797333	0.628530
	C188	C	0.169898	0.363017	0.893308
	C189	C	0.167710	0.590160	0.133735
	C190	C	0.812279	0.363910	0.135802
	C191	C	0.811944	0.589860	0.892535
	C192	C	0.388724	0.070897	0.616668
	C193	C	0.584984	0.883794	0.614267
	C194	C	0.584462	0.069744	0.419148
	C195	C	0.389954	0.883665	0.418186
	C196	C	0.588828	0.377763	0.107499
	C197	C	0.588369	0.575789	0.922842
	C198	C	0.392251	0.574565	0.107737
	C199	C	0.393859	0.379108	0.923027
	C200	C	0.083731	0.576423	0.415518
	C201	C	0.896265	0.574123	0.612315
	C202	C	0.083306	0.379573	0.610999
	C203	C	0.896487	0.380744	0.417095
	C204	C	0.893332	0.569934	0.111450
	C205	C	0.089047	0.382673	0.112691
	C206	C	0.089951	0.570161	0.914258
	C207	C	0.893639	0.383753	0.917056
	C208	C	0.087098	0.877304	0.609483
	C209	C	0.085819	0.074983	0.422700
	C210	C	0.890164	0.075455	0.609098
	C211	C	0.890934	0.880115	0.423190
	C212	C	0.583043	0.074093	0.917224
	C213	C	0.395511	0.074839	0.113295
	C214	C	0.583085	0.878827	0.114930
	C215	C	0.395117	0.879386	0.919865
	Zn216	Zn	0.487692	-0.023195	0.766912
	Zn217	Zn	0.488242	-0.022563	0.266343
	Zn218	Zn	0.740834	0.476928	0.014348
	Zn219	Zn	0.239485	0.476770	0.014568
	Zn220	Zn	-0.011039	0.726644	0.514756
	Zn221	Zn	-0.011072	0.228091	0.515410
	Zn222	Zn	-0.009058	0.475862	0.764243
	Zn223	Zn	-0.008768	0.477303	0.263779
	Zn224	Zn	0.490885	0.727971	0.016223
	Zn225	Zn	0.490497	0.225844	0.015320
	Zn226	Zn	0.737304	-0.023117	0.517147
	Zn227	Zn	0.238265	-0.022576	0.516525
	N228	N	0.399958	0.941157	0.697610
	N229	N	0.573296	0.013276	0.695402
	N230	N	0.574399	0.940595	0.337071
	N231	N	0.399304	0.012430	0.335096
	N232	N	0.670030	0.390415	0.977377
	N233	N	0.669563	0.562426	0.052314
	N234	N	0.312165	0.562069	0.977585
	N235	N	0.311311	0.391214	0.052204
	N236	N	0.952700	0.656877	0.427558
	N237	N	0.026521	0.655275	0.600090
	N238	N	0.952679	0.299185	0.601016
	N239	N	0.025914	0.297385	0.427403
	N240	N	0.954430	0.389142	0.694467
	N241	N	0.026963	0.562020	0.692417
	N242	N	0.954372	0.565325	0.333373
	N243	N	0.027822	0.392929	0.337109
	N244	N	0.404090	0.657268	0.978762
	N245	N	0.577901	0.656864	0.052286
	N246	N	0.578106	0.295794	0.978249
	N247	N	0.405014	0.298024	0.052760
	N248	N	0.666819	0.940339	0.430278
	N249	N	0.666151	0.013535	0.602954
	N250	N	0.309085	0.940629	0.602814
	N251	N	0.310525	0.014634	0.431908
	N252	N	0.904083	0.441183	0.194242
	N253	N	0.079163	0.512001	0.194208
	N254	N	0.078684	0.440100	0.833709
	N255	N	0.904712	0.512799	0.835254
	N256	N	0.167456	0.891858	0.479099
	N257	N	0.165801	0.062736	0.552948
	N258	N	0.808841	0.063165	0.479442
	N259	N	0.809662	0.891476	0.553174
	N260	N	0.453041	0.156211	0.929554
	N261	N	0.526724	0.154806	0.101297
	N262	N	0.453480	0.797197	0.103638
	N263	N	0.527008	0.799752	0.930895
	N264	N	0.452192	0.890607	0.195401
	N265	N	0.525213	0.063251	0.195320
	N266	N	0.451646	0.063227	0.838084
	N267	N	0.524832	0.890562	0.837145
	N268	N	0.901219	0.157890	0.479898
	N269	N	0.074843	0.157164	0.551944
	N270	N	0.075541	0.797920	0.478541
	N271	N	0.901966	0.797287	0.551808
	N272	N	0.170076	0.439932	0.927741
	N273	N	0.167329	0.513669	0.098425
	N274	N	0.812423	0.440235	0.100192
	N275	N	0.811775	0.513429	0.927763
	O276	O	0.460405	0.636445	0.348872
	H277	H	0.447507	0.634197	0.343566
	H278	H	0.453014	0.643449	0.340713
	O279	O	0.507473	0.288339	0.496021
	H280	H	0.525438	0.292194	0.485131
	H281	H	0.513282	0.280459	0.489264
	O282	O	0.845995	-0.011527	0.909489
	H283	H	0.836392	-0.009571	0.898679
	H284	H	0.853216	-0.012274	0.899785
	O285	O	0.502509	0.406944	0.411704
	H286	H	0.498952	0.423252	0.410030
	H287	H	0.510112	0.410720	0.412484
	O288	O	1.090453	0.849887	0.924824
	H289	H	1.095276	0.838375	0.917527
	H290	H	1.080511	0.862447	0.926480
	O291	O	0.466510	1.630107	-0.554377
	H292	H	0.475948	1.622136	-0.555190
	H293	H	0.473971	1.646136	-0.560181
	O294	O	0.536343	0.607600	0.674819
	H295	H	0.546211	0.602259	0.666835
	H296	H	0.551247	0.605114	0.673713
	O297	O	0.653767	0.283506	0.387200
	H298	H	0.651549	0.278822	0.369693
	H299	H	0.651834	0.286168	0.378001
	O300	O	0.489580	0.383031	0.403913
	H301	H	0.482431	0.386948	0.399140
	H302	H	0.498019	0.387855	0.407018
	O303	O	1.006083	1.105530	-0.098896
	H304	H	0.996170	1.116928	-0.110219
	H305	H	0.994328	1.102415	-0.096856
	O306	O	0.315491	0.352032	0.670070
	H307	H	0.313807	0.340102	0.673758
	H308	H	0.326935	0.339093	0.680983
	O309	O	0.511274	0.295460	0.484333
	H310	H	0.510150	0.296251	0.466864
	H311	H	0.492956	0.293321	0.483444
	O312	O	0.369420	0.357116	-0.329146
	H313	H	0.361317	0.343454	-0.327502
	H314	H	0.368358	0.333988	-0.322124
	O315	O	0.506226	0.534931	0.511914
	H316	H	0.509448	0.555821	0.524007
	H317	H	0.503466	0.524750	0.512831
	O318	O	0.107286	0.879392	0.977037
	H319	H	0.120161	0.880224	0.974099
	H320	H	0.114400	0.874413	0.976405
	O321	O	0.369901	0.612114	0.518798
	H322	H	0.362779	0.612461	0.514189
	H323	H	0.375351	0.613069	0.532166
	O324	O	0.067521	0.988731	-0.068466
	H325	H	0.073667	0.992823	-0.069651
	H326	H	0.064126	0.988032	-0.069504
	O327	O	-0.069511	-0.179620	0.164375
	H328	H	-0.074483	-0.178956	0.173414
	H329	H	-0.063319	-0.194097	0.173230
	O330	O	-0.021521	0.041825	0.988195
	H331	H	-0.004538	0.028941	0.981747
	H332	H	-0.026892	0.054239	0.998252
	O333	O	-0.110637	0.077473	1.037856
	H334	H	-0.106261	0.069939	1.031209
	H335	H	-0.113583	0.075470	1.031659
	O336	O	0.650139	0.454377	0.597925
	H337	H	0.642622	0.450523	0.586650
	H338	H	0.665978	0.455086	0.596551
	O339	O	1.035239	-0.146686	-0.045801
	H340	H	1.041711	-0.156025	-0.046890
	H341	H	1.025719	-0.147758	-0.044625
	O342	O	0.104133	0.092767	0.101132
	H343	H	0.113739	0.078646	0.102670
	H344	H	0.112798	0.104847	0.090200
	O345	O	1.129503	-0.115811	0.908584
	H346	H	1.128317	-0.121679	0.894471
	H347	H	1.116333	-0.119462	0.909720
	O348	O	0.851212	0.959601	0.096734
	H349	H	0.855392	0.961557	0.103424
	H350	H	0.861344	0.971154	0.105188
	O351	O	0.315307	0.438824	0.525293
	H352	H	0.308963	0.430896	0.534775
	H353	H	0.299466	0.433709	0.527503
	O354	O	1.004535	-0.012429	1.160570
	H355	H	1.012404	-0.017654	1.165691
	H356	H	0.993456	-0.006436	1.150819
	O357	O	0.601165	0.435299	0.566359
	H358	H	0.610062	0.430783	0.563206
	H359	H	0.583644	0.436596	0.552873
	O360	O	1.080799	1.067288	0.981739
	H361	H	1.065693	1.067246	0.976528
	H362	H	1.089018	1.052635	0.984615
	O363	O	-0.166805	0.871301	1.001582
	H364	H	-0.170753	0.867636	1.007851
	H365	H	-0.177879	0.881646	1.001476
	O366	O	0.308953	0.589546	0.342844
	H367	H	0.296124	0.596230	0.343975
	H368	H	0.298863	0.595081	0.344320
	O369	O	-0.006859	0.972665	0.006548
	H370	H	-0.008233	0.956279	-0.010015
	H371	H	-0.021725	0.981831	-0.005492
	O372	O	0.532849	0.451573	0.441113
	H373	H	0.531351	0.448618	0.441298
	H374	H	0.529822	0.441235	0.444078
	O375	O	0.701855	0.687118	0.234866
	H376	H	0.701356	0.682060	0.241560
	H377	H	0.702409	0.686957	0.247288
	O378	O	0.892650	1.108412	-0.043568
	H379	H	0.883870	1.114143	-0.032537
	H380	H	0.883237	1.103202	-0.050414
	O381	O	0.562189	0.508370	-0.378957
	H382	H	0.543004	0.492764	-0.379417
	H383	H	0.577099	0.505732	-0.388172
	O384	O	1.541611	1.444179	-0.526049
	H385	H	1.538594	1.458886	-0.541179
	H386	H	1.546977	1.457280	-0.515719
	O387	O	-0.023854	0.119042	0.056350
	H388	H	-0.018681	0.130162	0.061075
	H389	H	-0.029689	0.112040	0.063196
	O390	O	0.091165	0.985406	0.127645
	H391	H	0.102753	0.974389	0.116702
	H392	H	0.094252	0.987509	0.122383
	O393	O	0.595040	0.542082	0.461704
	H394	H	0.601603	0.533143	0.458128
	H395	H	0.592706	0.539020	0.462703
	O396	O	0.393184	0.393508	0.598718
	H397	H	0.402619	0.396651	0.597273
	H398	H	0.391788	0.399138	0.610664
	O399	O	0.422856	1.565412	1.380915
	H400	H	0.416324	1.576420	1.379329
	H401	H	0.421306	1.568592	1.384418
	O402	O	0.476742	0.565898	0.693321
	H403	H	0.487085	0.563787	0.694164
	H404	H	0.484423	0.546912	0.698800
	O405	O	1.096074	1.064961	0.139386
	H406	H	1.102445	1.066384	0.141177
	H407	H	1.110437	1.071173	0.132206
	O408	O	0.945068	0.860044	-0.059668
	H409	H	0.948874	0.865160	-0.059673
	H410	H	0.949469	0.844618	-0.044036
	O411	O	0.825998	-0.075240	1.171785
	H412	H	0.821217	-0.076408	1.166810
	H413	H	0.837899	-0.073814	1.171215
	O414	O	0.655719	0.700208	0.715278
	H415	H	0.658861	0.683447	0.718590
	H416	H	0.647228	0.707448	0.709751
	O417	O	0.533754	0.373625	0.687033
	H418	H	0.538951	0.363733	0.666581
	H419	H	0.540466	0.355732	0.684858
