data_Molecule from HDF5

_cell_length_a		16.210189
_cell_length_b		16.531417
_cell_length_c		16.279636
_cell_angle_alpha	90.065310
_cell_angle_beta	90.361351
_cell_angle_gamma	90.011503
_symmetry_space_group_name_H-M	'P 1'
_symmetry_Int_Tables_number		1

loop_
	_symmetry_equiv_pos_as_xyz
	x,y,z

loop_
	_atom_site_label
	_atom_site_type_symbol
	_atom_site_fract_x
	_atom_site_fract_y
	_atom_site_fract_z
	H0	H	0.400582	0.841373	0.715977
	H1	H	0.609080	0.159183	0.713412
	H2	H	0.612377	0.840710	0.273026
	H3	H	0.404614	0.158722	0.273691
	H4	H	0.720996	0.398589	0.830235
	H5	H	0.722792	0.595874	0.156240
	H6	H	0.288159	0.600090	0.831556
	H7	H	0.289231	0.396269	0.154316
	H8	H	0.845344	0.720763	0.384750
	H9	H	0.166321	0.723248	0.601179
	H10	H	0.846484	0.279231	0.596442
	H11	H	0.165882	0.278220	0.385982
	H12	H	0.844179	0.398691	0.706382
	H13	H	0.167422	0.603763	0.714188
	H14	H	0.842796	0.599125	0.275567
	H15	H	0.168363	0.398893	0.277121
	H16	H	0.398234	0.721237	0.835193
	H17	H	0.614071	0.717670	0.154481
	H18	H	0.609662	0.279731	0.832009
	H19	H	0.402739	0.279836	0.153488
	H20	H	0.725703	0.840418	0.392477
	H21	H	0.723467	0.160370	0.594374
	H22	H	0.282932	0.842448	0.600716
	H23	H	0.288918	0.160052	0.391380
	H24	H	0.903021	0.340551	0.213057
	H25	H	0.112478	0.657399	0.216154
	H26	H	0.111568	0.342010	0.769126
	H27	H	0.898534	0.657004	0.769947
	H28	H	0.227015	0.895666	0.332415
	H29	H	0.226356	0.103505	0.654531
	H30	H	0.788705	0.100805	0.330960
	H31	H	0.792368	0.899879	0.654471
	H32	H	0.346752	0.223120	0.882948
	H33	H	0.667767	0.219243	0.099145
	H34	H	0.347526	0.774368	0.104049
	H35	H	0.667027	0.778313	0.890431
	H36	H	0.345162	0.895575	0.212509
	H37	H	0.669676	0.099850	0.210914
	H38	H	0.344845	0.104220	0.771510
	H39	H	0.669457	0.898843	0.779493
	H40	H	0.898351	0.221094	0.332787
	H41	H	0.114404	0.222811	0.652122
	H42	H	0.113843	0.778659	0.333339
	H43	H	0.897256	0.775346	0.648714
	H44	H	0.228224	0.341554	0.886324
	H45	H	0.230065	0.656819	0.101192
	H46	H	0.789522	0.338407	0.094631
	H47	H	0.786002	0.657570	0.890778
	H48	H	0.420463	0.109855	0.579192
	H49	H	0.596212	0.886957	0.585668
	H50	H	0.594296	0.112252	0.405885
	H51	H	0.414695	0.885450	0.401333
	H52	H	0.592546	0.402349	0.108309
	H53	H	0.590907	0.588744	0.879897
	H54	H	0.421421	0.586511	0.107374
	H55	H	0.412674	0.402948	0.875268
	H56	H	0.120731	0.592147	0.406910
	H57	H	0.893783	0.591433	0.571799
	H58	H	0.122388	0.403497	0.574358
	H59	H	0.888534	0.407038	0.401429
	H60	H	0.117548	0.419728	0.576633
	H61	H	0.893397	0.584194	0.579467
	H62	H	0.121154	0.589255	0.403184
	H63	H	0.890736	0.408606	0.405725
	H64	H	0.419317	0.589433	0.108903
	H65	H	0.594421	0.592804	0.877040
	H66	H	0.602449	0.404207	0.111730
	H67	H	0.414148	0.416844	0.878847
	H68	H	0.603540	0.114235	0.402965
	H69	H	0.602921	0.885474	0.584206
	H70	H	0.415588	0.111996	0.582581
	H71	H	0.421537	0.888194	0.401957
	H72	H	0.922607	0.611228	0.087303
	H73	H	0.099259	0.384704	0.086203
	H74	H	0.097201	0.612231	0.904201
	H75	H	0.914295	0.385061	0.898783
	H76	H	0.092335	0.908849	0.607193
	H77	H	0.098060	0.086023	0.378645
	H78	H	0.920566	0.093940	0.608154
	H79	H	0.922314	0.911628	0.379011
	H80	H	0.621017	0.092855	0.906719
	H81	H	0.393771	0.086973	0.078083
	H82	H	0.621852	0.910222	0.086410
	H83	H	0.392419	0.914584	0.902715
	H84	H	0.622613	0.903555	0.082185
	H85	H	0.391154	0.088096	0.085743
	H86	H	0.619693	0.087678	0.906727
	H87	H	0.389971	0.905884	0.905090
	H88	H	0.916114	0.093421	0.609243
	H89	H	0.089243	0.089554	0.380202
	H90	H	0.096558	0.912435	0.606568
	H91	H	0.917099	0.906634	0.375606
	H92	H	0.093282	0.612041	0.901818
	H93	H	0.091909	0.387557	0.085860
	H94	H	0.915864	0.609361	0.075597
	H95	H	0.916674	0.385565	0.898456
	H96	H	0.421731	0.111495	0.585347
	H97	H	0.600516	0.883859	0.591038
	H98	H	0.595987	0.114565	0.396426
	H99	H	0.417152	0.888214	0.407634
	H100	H	0.596510	0.412109	0.106967
	H101	H	0.596592	0.587565	0.878341
	H102	H	0.417836	0.585946	0.107584
	H103	H	0.425191	0.408149	0.881050
	H104	H	0.123258	0.593712	0.403097
	H105	H	0.889978	0.593548	0.581874
	H106	H	0.125813	0.410712	0.589440
	H107	H	0.891379	0.411629	0.401033
	H108	H	0.909247	0.615001	0.086458
	H109	H	0.096615	0.387951	0.079412
	H110	H	0.093612	0.609890	0.906297
	H111	H	0.914575	0.386067	0.900586
	H112	H	0.091324	0.913139	0.604757
	H113	H	0.096632	0.095683	0.376716
	H114	H	0.918608	0.090305	0.607544
	H115	H	0.914192	0.914689	0.376845
	H116	H	0.622184	0.089813	0.902227
	H117	H	0.390814	0.094249	0.079780
	H118	H	0.619723	0.909582	0.078712
	H119	H	0.393954	0.911225	0.911298
	C120	C	0.385604	0.007428	0.615524
	C121	C	0.629946	0.990968	0.616817
	C122	C	0.628963	0.008320	0.371416
	C123	C	0.385655	0.991880	0.371822
	C124	C	0.627906	0.376679	0.002027
	C125	C	0.627030	0.619325	0.985168
	C126	C	0.385435	0.619881	0.002414
	C127	C	0.385361	0.377541	0.984162
	C128	C	0.014681	0.621696	0.371592
	C129	C	0.997931	0.622003	0.612507
	C130	C	0.015315	0.379632	0.611921
	C131	C	0.997001	0.378201	0.371483
	C132	C	0.885503	0.506714	0.113961
	C133	C	0.128780	0.491256	0.116115
	C134	C	0.127134	0.507387	0.871148
	C135	C	0.882693	0.490118	0.868856
	C136	C	0.127675	0.878709	0.501209
	C137	C	0.127479	0.122025	0.484549
	C138	C	0.885774	0.122351	0.501478
	C139	C	0.886001	0.879300	0.483138
	C140	C	0.514917	0.121695	0.871806
	C141	C	0.498704	0.120238	0.113358
	C142	C	0.515588	0.876303	0.115632
	C143	C	0.498389	0.878502	0.874451
	C144	C	0.382404	0.889069	0.676112
	C145	C	0.628826	0.111382	0.674348
	C146	C	0.630780	0.888516	0.312634
	C147	C	0.385340	0.111280	0.313004
	C148	C	0.683873	0.378309	0.879382
	C149	C	0.684925	0.616906	0.107380
	C150	C	0.326226	0.620125	0.880820
	C151	C	0.327530	0.376894	0.105544
	C152	C	0.893243	0.680192	0.368025
	C153	C	0.118461	0.682443	0.617562
	C154	C	0.894321	0.319665	0.613911
	C155	C	0.117924	0.318500	0.368757
	C156	C	0.892917	0.379267	0.668489
	C157	C	0.118913	0.623314	0.674246
	C158	C	0.892138	0.619909	0.313334
	C159	C	0.119298	0.378957	0.314788
	C160	C	0.380582	0.680706	0.882618
	C161	C	0.630607	0.677361	0.106601
	C162	C	0.628564	0.318982	0.880279
	C163	C	0.384324	0.318967	0.105291
	C164	C	0.687183	0.888312	0.372333
	C165	C	0.686036	0.111993	0.615358
	C166	C	0.323872	0.889488	0.618353
	C167	C	0.327829	0.111977	0.371790
	C168	C	0.884623	0.387665	0.172980
	C169	C	0.131001	0.609872	0.176176
	C170	C	0.129712	0.389037	0.809866
	C171	C	0.880467	0.609471	0.809944
	C172	C	0.187635	0.876960	0.380767
	C173	C	0.187055	0.122894	0.605799
	C174	C	0.826678	0.121260	0.380002
	C175	C	0.829310	0.879289	0.605083
	C176	C	0.394405	0.182189	0.866814
	C177	C	0.619618	0.179265	0.116612
	C178	C	0.394999	0.815451	0.119898
	C179	C	0.619122	0.818635	0.872385
	C180	C	0.394242	0.875707	0.174645
	C181	C	0.620584	0.119912	0.172320
	C182	C	0.393527	0.122849	0.811099
	C183	C	0.620287	0.878580	0.817129
	C184	C	0.881794	0.180861	0.380692
	C185	C	0.131485	0.182460	0.604460
	C186	C	0.131413	0.818486	0.381142
	C187	C	0.881974	0.817768	0.602362
	C188	C	0.187673	0.388897	0.868464
	C189	C	0.189634	0.609466	0.118595
	C190	C	0.827507	0.386867	0.114153
	C191	C	0.824280	0.609687	0.869961
	C192	C	0.411854	0.089800	0.589867
	C193	C	0.606722	0.907438	0.593775
	C194	C	0.604875	0.091842	0.394835
	C195	C	0.410444	0.908844	0.396574
	C196	C	0.604176	0.399591	0.086830
	C197	C	0.601212	0.596396	0.900567
	C198	C	0.411789	0.594658	0.086130
	C199	C	0.410209	0.402034	0.900215
	C200	C	0.099571	0.598458	0.397210
	C201	C	0.914181	0.596865	0.585632
	C202	C	0.099763	0.404146	0.587421
	C203	C	0.912173	0.402209	0.395882
	C204	C	0.909112	0.590349	0.090000
	C205	C	0.103268	0.408239	0.090974
	C206	C	0.101890	0.589812	0.896653
	C207	C	0.908094	0.407045	0.892223
	C208	C	0.101252	0.904142	0.584421
	C209	C	0.101901	0.097396	0.400546
	C210	C	0.911174	0.099287	0.586317
	C211	C	0.910900	0.903952	0.398953
	C212	C	0.599119	0.097010	0.897639
	C213	C	0.413811	0.096384	0.088275
	C214	C	0.599627	0.900573	0.089908
	C215	C	0.414026	0.903179	0.899230
	Zn216	Zn	0.507223	-0.000850	0.745081
	Zn217	Zn	0.507140	-0.000605	0.241676
	Zn218	Zn	0.754747	0.498103	-0.006872
	Zn219	Zn	0.257456	0.498896	-0.006896
	Zn220	Zn	0.006372	0.751085	0.491412
	Zn221	Zn	0.006700	0.250685	0.492100
	Zn222	Zn	0.005578	0.499659	0.740431
	Zn223	Zn	0.006157	0.499514	0.244293
	Zn224	Zn	0.506279	0.748097	-0.005245
	Zn225	Zn	0.506354	0.249059	-0.006952
	Zn226	Zn	0.758572	0.000472	0.493577
	Zn227	Zn	0.255559	0.000184	0.493055
	N228	N	0.420119	0.963480	0.674250
	N229	N	0.594947	0.035162	0.675642
	N230	N	0.595323	0.964031	0.311945
	N231	N	0.420078	0.035462	0.312563
	N232	N	0.684012	0.413003	0.956197
	N233	N	0.683102	0.581892	0.030793
	N234	N	0.329008	0.583421	0.956566
	N235	N	0.327718	0.412276	0.029335
	N236	N	0.970460	0.681553	0.403336
	N237	N	0.042160	0.681875	0.580108
	N238	N	0.971544	0.319854	0.579348
	N239	N	0.040580	0.317650	0.402921
	N240	N	0.969049	0.415744	0.667453
	N241	N	0.042907	0.586521	0.671197
	N242	N	0.968716	0.584203	0.315525
	N243	N	0.043118	0.415217	0.316300
	N244	N	0.416469	0.680796	0.959281
	N245	N	0.595300	0.679158	0.029575
	N246	N	0.594580	0.317764	0.957284
	N247	N	0.419323	0.319099	0.028530
	N248	N	0.686220	0.963743	0.408110
	N249	N	0.686977	0.036343	0.580344
	N250	N	0.325992	0.964044	0.581147
	N251	N	0.327668	0.036514	0.407277
	N252	N	0.919736	0.463281	0.172925
	N253	N	0.094184	0.535110	0.174849
	N254	N	0.092531	0.463719	0.811420
	N255	N	0.915909	0.533987	0.808902
	N256	N	0.185657	0.913543	0.456558
	N257	N	0.184866	0.086121	0.530053
	N258	N	0.828985	0.085671	0.456257
	N259	N	0.831493	0.916803	0.529880
	N260	N	0.470729	0.181435	0.903780
	N261	N	0.542656	0.179453	0.080528
	N262	N	0.471560	0.815563	0.083998
	N263	N	0.542012	0.818182	0.907151
	N264	N	0.470089	0.912652	0.172064
	N265	N	0.544335	0.083793	0.170328
	N266	N	0.469403	0.085595	0.814203
	N267	N	0.544132	0.914905	0.818036
	N268	N	0.917857	0.181621	0.457321
	N269	N	0.095069	0.181892	0.528005
	N270	N	0.095014	0.819328	0.457138
	N271	N	0.916539	0.817907	0.525438
	N272	N	0.185920	0.463224	0.906005
	N273	N	0.187899	0.534610	0.081531
	N274	N	0.828091	0.461889	0.077771
	N275	N	0.825297	0.534442	0.905621
	O276	O	0.577091	0.352907	0.572742
	H277	H	0.582320	0.350181	0.580907
	H278	H	0.581538	0.364367	0.563506
	O279	O	0.339735	0.412050	0.461884
	H280	H	0.347395	0.416681	0.478462
	H281	H	0.341487	0.418847	0.469263
	O282	O	0.657948	0.504592	0.398297
	H283	H	0.652039	0.515128	0.405909
	H284	H	0.656929	0.483008	0.392039
	O285	O	1.506420	0.482565	0.430072
	H286	H	1.500266	0.490139	0.418268
	H287	H	1.504342	0.487367	0.432348
	O288	O	-0.085709	0.194672	0.991749
	H289	H	-0.068079	0.177874	0.995534
	H290	H	-0.080069	0.200461	0.994886
	O291	O	0.351376	0.635376	0.315253
	H292	H	0.346519	0.594749	0.307992
	H293	H	0.339085	0.639667	0.353092
	O294	O	1.073063	1.052524	1.040633
	H295	H	1.078496	1.054954	1.048726
	H296	H	1.068791	1.061423	1.050173
	O297	O	0.885079	0.941042	0.856595
	H298	H	0.876358	0.939676	0.858589
	H299	H	0.886566	0.930350	0.859636
	O300	O	-0.193779	-0.023146	-0.111340
	H301	H	-0.209853	-0.021608	-0.102840
	H302	H	-0.183198	-0.007316	-0.108171
	O303	O	0.032395	0.998755	0.923317
	H304	H	0.029883	0.998491	0.920930
	H305	H	0.014780	0.983809	0.913212
	O306	O	1.172986	0.058351	-0.144070
	H307	H	1.187391	0.050641	-0.156655
	H308	H	1.180909	0.069231	-0.124537
	O309	O	0.692244	0.619268	0.482744
	H310	H	0.690599	0.631622	0.473014
	H311	H	0.687656	0.620394	0.463887
	O312	O	0.930127	1.207291	-0.212667
	H313	H	0.949313	1.217070	-0.223171
	H314	H	0.940360	1.198601	-0.231644
	O315	O	0.504889	0.533779	0.612975
	H316	H	0.517257	0.546091	0.618031
	H317	H	0.499775	0.547180	0.614757
	O318	O	0.489383	0.709647	0.288500
	H319	H	0.479633	0.729991	0.268872
	H320	H	0.453838	0.707417	0.282552
	O321	O	1.073120	-0.044660	1.019530
	H322	H	1.053831	-0.033102	1.013344
	H323	H	1.080779	-0.062266	1.020203
	O324	O	-0.004527	0.204956	1.083184
	H325	H	-0.006373	0.201144	1.083384
	H326	H	-0.003762	0.221686	1.055949
	O327	O	0.122603	0.998501	1.061368
	H328	H	0.103056	1.006506	1.051538
	H329	H	0.128094	1.008521	1.070476
	O330	O	0.665776	0.654780	0.680711
	H331	H	0.684056	0.670746	0.691382
	H332	H	0.667912	0.641665	0.652306
	O333	O	0.852257	1.043876	0.988489
	H334	H	0.863855	1.030986	0.981116
	H335	H	0.844869	1.062667	0.987997
	O336	O	0.541189	0.663170	0.680640
	H337	H	0.569689	0.660681	0.683167
	H338	H	0.551941	0.675088	0.697677
	O339	O	0.627046	0.650237	0.453767
	H340	H	0.626370	0.651024	0.461992
	H341	H	0.614448	0.657892	0.442911
	O342	O	-0.077868	1.009763	1.011160
	H343	H	-0.075679	1.001975	1.006577
	H344	H	-0.090320	1.012172	0.995826
	O345	O	0.216155	1.213943	1.011905
	H346	H	0.216247	1.238028	1.005473
	H347	H	0.214773	1.228331	1.028500
	O348	O	0.553604	0.404523	0.484943
	H349	H	0.563540	0.406703	0.489819
	H350	H	0.552535	0.408010	0.499703
	O351	O	-0.177221	-0.072856	-0.155193
	H352	H	-0.170774	-0.066314	-0.159833
	H353	H	-0.170131	-0.078205	-0.148907
	O354	O	0.336640	0.489097	-0.672355
	H355	H	0.353181	0.478232	-0.666153
	H356	H	0.318885	0.474068	-0.671141
	O357	O	0.203430	1.131787	0.188053
	H358	H	0.189486	1.131887	0.169822
	H359	H	0.194546	1.131656	0.206032
	O360	O	0.054772	-0.123306	0.038411
	H361	H	0.036343	-0.118996	0.046234
	H362	H	0.059487	-0.115100	0.047906
	O363	O	0.454566	0.702118	0.534669
	H364	H	0.477283	0.705390	0.534125
	H365	H	0.470555	0.708476	0.542540
	O366	O	0.324991	0.405009	0.651882
	H367	H	0.316634	0.417336	0.659956
	H368	H	0.314521	0.412037	0.645832
	O369	O	0.595895	0.432942	0.384769
	H370	H	0.606866	0.423171	0.381868
	H371	H	0.601766	0.422386	0.376330
	O372	O	0.479737	0.322729	0.564935
	H373	H	0.465290	0.322293	0.573817
	H374	H	0.474422	0.320626	0.577167
	O375	O	1.203687	-0.204842	-0.058366
	H376	H	1.212175	-0.223138	-0.040386
	H377	H	1.212355	-0.191718	-0.045698
	O378	O	0.345739	0.663385	0.447248
	H379	H	0.373612	0.667134	0.467248
	H380	H	0.333938	0.686255	0.450827
	O381	O	-0.036810	0.106947	0.204784
	H382	H	-0.034769	0.104910	0.220327
	H383	H	-0.064215	0.086618	0.209915
	O384	O	0.444325	0.553748	1.668294
	H385	H	0.443570	0.547598	1.671656
	H386	H	0.447794	0.566756	1.662816
	O387	O	0.946893	0.863797	-0.008736
	H388	H	0.967470	0.854098	-0.023941
	H389	H	0.950076	0.865181	-0.001076
	O390	O	0.416286	0.313939	0.603769
	H391	H	0.416191	0.317762	0.611567
	H392	H	0.416118	0.325371	0.619604
	O393	O	1.022673	-0.215776	0.776466
	H394	H	1.059994	-0.213230	0.777685
	H395	H	1.028125	-0.240987	0.760921
	O396	O	0.185547	0.854054	0.810004
	H397	H	0.185887	0.887090	0.798253
	H398	H	0.197069	0.848619	0.854636
	O399	O	0.558077	0.420931	0.575127
	H400	H	0.570842	0.418619	0.575377
	H401	H	0.557338	0.426038	0.575879
	O402	O	1.102203	0.097277	0.935995
	H403	H	1.112519	0.095625	0.935927
	H404	H	1.109621	0.111227	0.948412
	O405	O	-0.107436	0.047665	0.174943
	H406	H	-0.118658	0.035685	0.179893
	H407	H	-0.104838	0.052188	0.163834
	O408	O	1.008657	1.057986	0.874033
	H409	H	0.996785	1.045607	0.877221
	H410	H	1.000948	1.041485	0.860585
	O411	O	0.988407	0.874652	0.137227
	H412	H	0.974124	0.889772	0.124676
	H413	H	1.004373	0.868233	0.147298
	O414	O	0.210442	0.038186	1.088097
	H415	H	0.202195	0.059774	1.081994
	H416	H	0.235899	0.031931	1.118602
	O417	O	0.444642	0.456518	0.465501
	H418	H	0.444981	0.465813	0.463532
	H419	H	0.431995	0.466287	0.464869
	O420	O	-0.166506	0.961972	0.037865
	H421	H	-0.172837	0.977107	0.042348
	H422	H	-0.170759	0.969951	0.045862
	O423	O	0.438620	-0.546231	0.439220
	H424	H	0.434260	-0.554504	0.434036
	H425	H	0.450549	-0.557287	0.436148
	O426	O	-0.105083	-0.192193	1.126092
	H427	H	-0.127702	-0.194814	1.123759
	H428	H	-0.090303	-0.195868	1.118192
	O429	O	0.681995	0.544307	0.584858
	H430	H	0.683144	0.540364	0.583575
	H431	H	0.677866	0.544377	0.577297
