data_Molecule from HDF5

_cell_length_a		16.463961
_cell_length_b		16.384106
_cell_length_c		16.437568
_cell_angle_alpha	90.135657
_cell_angle_beta	90.052581
_cell_angle_gamma	89.853901
_symmetry_space_group_name_H-M	'P 1'
_symmetry_Int_Tables_number		1

loop_
	_symmetry_equiv_pos_as_xyz
	x,y,z

loop_
	_atom_site_label
	_atom_site_type_symbol
	_atom_site_fract_x
	_atom_site_fract_y
	_atom_site_fract_z
	H0	H	0.397927	0.844021	0.727104
	H1	H	0.608917	0.161008	0.724735
	H2	H	0.610915	0.843292	0.282476
	H3	H	0.399626	0.160558	0.283392
	H4	H	0.729054	0.397222	0.843215
	H5	H	0.729141	0.607663	0.160920
	H6	H	0.284602	0.610521	0.844120
	H7	H	0.286543	0.397646	0.159674
	H8	H	0.846629	0.723035	0.397014
	H9	H	0.162266	0.728939	0.610553
	H10	H	0.846229	0.286525	0.604132
	H11	H	0.164745	0.281885	0.397790
	H12	H	0.850779	0.396754	0.726533
	H13	H	0.163905	0.613124	0.726389
	H14	H	0.848575	0.607654	0.280651
	H15	H	0.166253	0.400960	0.284511
	H16	H	0.402501	0.725194	0.843421
	H17	H	0.614490	0.724606	0.160420
	H18	H	0.611376	0.282215	0.843115
	H19	H	0.408054	0.286646	0.162111
	H20	H	0.728658	0.844272	0.396128
	H21	H	0.724582	0.161549	0.607680
	H22	H	0.280406	0.844948	0.613405
	H23	H	0.284871	0.160982	0.400891
	H24	H	0.904461	0.345654	0.221245
	H25	H	0.113691	0.662264	0.223571
	H26	H	0.117766	0.347368	0.775924
	H27	H	0.899935	0.662221	0.778575
	H28	H	0.229663	0.893499	0.347201
	H29	H	0.227745	0.110702	0.661196
	H30	H	0.785043	0.104387	0.345039
	H31	H	0.783219	0.896724	0.661767
	H32	H	0.349321	0.226240	0.896599
	H33	H	0.667093	0.218187	0.104739
	H34	H	0.351197	0.778767	0.108064
	H35	H	0.664326	0.777988	0.893182
	H36	H	0.348482	0.895934	0.223589
	H37	H	0.663778	0.104040	0.224414
	H38	H	0.348498	0.109997	0.780216
	H39	H	0.662203	0.891746	0.776291
	H40	H	0.902188	0.219612	0.343385
	H41	H	0.110226	0.226214	0.660783
	H42	H	0.109305	0.781620	0.344963
	H43	H	0.895963	0.778041	0.660129
	H44	H	0.230695	0.345843	0.894014
	H45	H	0.230126	0.661063	0.108045
	H46	H	0.789700	0.345106	0.104366
	H47	H	0.782296	0.661143	0.892742
	H48	H	0.420993	0.111743	0.589597
	H49	H	0.597262	0.891907	0.580499
	H50	H	0.595691	0.115935	0.414256
	H51	H	0.414689	0.886591	0.411611
	H52	H	0.606993	0.417110	0.117229
	H53	H	0.595331	0.589222	0.890160
	H54	H	0.419313	0.596051	0.115522
	H55	H	0.412288	0.412288	0.885100
	H56	H	0.115619	0.585706	0.416608
	H57	H	0.895526	0.588975	0.587767
	H58	H	0.121084	0.411139	0.590487
	H59	H	0.889325	0.411520	0.402240
	H60	H	0.116283	0.415184	0.583776
	H61	H	0.895588	0.588151	0.590637
	H62	H	0.121830	0.593123	0.405815
	H63	H	0.891347	0.406279	0.413435
	H64	H	0.415364	0.585989	0.113987
	H65	H	0.595011	0.589777	0.890388
	H66	H	0.593529	0.413565	0.113830
	H67	H	0.420205	0.422066	0.891086
	H68	H	0.593935	0.115488	0.413271
	H69	H	0.599273	0.884569	0.597008
	H70	H	0.413251	0.114957	0.589533
	H71	H	0.419500	0.888725	0.414049
	H72	H	0.917349	0.618434	0.089731
	H73	H	0.098837	0.389097	0.091002
	H74	H	0.095758	0.614428	0.923001
	H75	H	0.923601	0.394410	0.919072
	H76	H	0.093035	0.919206	0.614950
	H77	H	0.096337	0.094624	0.388099
	H78	H	0.911441	0.088351	0.616811
	H79	H	0.914457	0.920157	0.392760
	H80	H	0.621089	0.095594	0.912996
	H81	H	0.391627	0.097022	0.092206
	H82	H	0.617522	0.920289	0.092501
	H83	H	0.397709	0.918094	0.918107
	H84	H	0.622605	0.913464	0.098165
	H85	H	0.392630	0.092819	0.093834
	H86	H	0.616665	0.088305	0.918593
	H87	H	0.395694	0.916507	0.914645
	H88	H	0.920898	0.095188	0.616431
	H89	H	0.098852	0.088791	0.389934
	H90	H	0.088406	0.918285	0.613761
	H91	H	0.921157	0.912439	0.391743
	H92	H	0.100618	0.618823	0.911011
	H93	H	0.096882	0.389198	0.092488
	H94	H	0.917881	0.619303	0.092558
	H95	H	0.915082	0.390357	0.914083
	H96	H	0.417338	0.115333	0.596270
	H97	H	0.583440	0.891910	0.592426
	H98	H	0.593554	0.115385	0.415283
	H99	H	0.414531	0.888713	0.417465
	H100	H	0.602418	0.403646	0.119916
	H101	H	0.595616	0.589554	0.889627
	H102	H	0.425908	0.588739	0.110889
	H103	H	0.425222	0.409142	0.888768
	H104	H	0.120274	0.599324	0.418795
	H105	H	0.895217	0.590520	0.589464
	H106	H	0.118316	0.419660	0.591721
	H107	H	0.894183	0.418540	0.411931
	H108	H	0.919816	0.618183	0.091044
	H109	H	0.096394	0.391036	0.090721
	H110	H	0.087839	0.615057	0.912285
	H111	H	0.923827	0.390748	0.908780
	H112	H	0.090666	0.915156	0.616353
	H113	H	0.092192	0.090032	0.391390
	H114	H	0.911248	0.099295	0.620552
	H115	H	0.911852	0.911369	0.388069
	H116	H	0.619033	0.086429	0.908898
	H117	H	0.391103	0.096285	0.096711
	H118	H	0.619142	0.911205	0.088660
	H119	H	0.395464	0.914183	0.918854
	C120	C	0.383411	0.010234	0.625751
	C121	C	0.625675	0.994045	0.623769
	C122	C	0.626639	0.010898	0.381893
	C123	C	0.384041	0.993074	0.382687
	C124	C	0.631495	0.380060	0.011272
	C125	C	0.628675	0.623264	0.993972
	C126	C	0.386560	0.624385	0.009760
	C127	C	0.387395	0.382245	0.992917
	C128	C	0.014534	0.624766	0.381205
	C129	C	0.998355	0.624809	0.623899
	C130	C	0.014921	0.382566	0.622697
	C131	C	0.997230	0.380809	0.379099
	C132	C	0.887331	0.513438	0.122677
	C133	C	0.129579	0.494693	0.123797
	C134	C	0.128677	0.512100	0.880849
	C135	C	0.887120	0.496008	0.880363
	C136	C	0.125168	0.882770	0.511468
	C137	C	0.127171	0.124372	0.494666
	C138	C	0.883740	0.124134	0.512346
	C139	C	0.882614	0.880726	0.494930
	C140	C	0.514950	0.123798	0.881074
	C141	C	0.497185	0.124988	0.125191
	C142	C	0.515564	0.881055	0.124847
	C143	C	0.499213	0.881497	0.881830
	C144	C	0.380042	0.891390	0.686686
	C145	C	0.627728	0.113484	0.684502
	C146	C	0.629196	0.891095	0.321920
	C147	C	0.381624	0.112934	0.323253
	C148	C	0.690110	0.378284	0.891345
	C149	C	0.689397	0.626189	0.113167
	C150	C	0.324856	0.628409	0.891394
	C151	C	0.327012	0.379835	0.112306
	C152	C	0.894673	0.683545	0.378898
	C153	C	0.115612	0.687861	0.627984
	C154	C	0.894971	0.324707	0.623996
	C155	C	0.117151	0.321888	0.379317
	C156	C	0.897098	0.379617	0.684746
	C157	C	0.116423	0.630029	0.685605
	C158	C	0.895696	0.626295	0.320599
	C159	C	0.117877	0.380776	0.322511
	C160	C	0.383726	0.685369	0.891143
	C161	C	0.631924	0.684266	0.112938
	C162	C	0.631244	0.321298	0.891170
	C163	C	0.387527	0.324751	0.113791
	C164	C	0.687902	0.891724	0.378642
	C165	C	0.685377	0.113580	0.626570
	C166	C	0.321470	0.891841	0.630013
	C167	C	0.324625	0.113140	0.381766
	C168	C	0.886205	0.393307	0.181407
	C169	C	0.132134	0.614118	0.183930
	C170	C	0.134087	0.394447	0.817512
	C171	C	0.882725	0.614833	0.818916
	C172	C	0.187811	0.877340	0.393906
	C173	C	0.187053	0.127985	0.613818
	C174	C	0.824726	0.124042	0.392335
	C175	C	0.822534	0.877908	0.613925
	C176	C	0.396524	0.185881	0.878455
	C177	C	0.618536	0.180373	0.124592
	C178	C	0.397609	0.819493	0.126436
	C179	C	0.616840	0.818536	0.876111
	C180	C	0.396405	0.877962	0.183657
	C181	C	0.616833	0.124062	0.184274
	C182	C	0.395936	0.127478	0.820832
	C183	C	0.615637	0.875317	0.817624
	C184	C	0.883266	0.181018	0.391569
	C185	C	0.128603	0.185510	0.613552
	C186	C	0.127970	0.821487	0.392592
	C187	C	0.878826	0.818884	0.613070
	C188	C	0.190758	0.393642	0.876115
	C189	C	0.189959	0.613601	0.126251
	C190	C	0.828906	0.393065	0.123431
	C191	C	0.824089	0.614213	0.875704
	C192	C	0.409663	0.092692	0.599347
	C193	C	0.600401	0.911080	0.597630
	C194	C	0.601507	0.094023	0.406963
	C195	C	0.408931	0.909900	0.407196
	C196	C	0.607690	0.404441	0.095053
	C197	C	0.602800	0.597066	0.911363
	C198	C	0.412593	0.597824	0.092124
	C199	C	0.412209	0.407024	0.910059
	C200	C	0.097505	0.599982	0.406587
	C201	C	0.916564	0.597121	0.596977
	C202	C	0.097001	0.408160	0.596379
	C203	C	0.913676	0.405123	0.402371
	C204	C	0.911410	0.596758	0.098275
	C205	C	0.104546	0.411339	0.098532
	C206	C	0.102118	0.594652	0.907838
	C207	C	0.913400	0.413574	0.906424
	C208	C	0.098578	0.909700	0.593671
	C209	C	0.102684	0.098610	0.411599
	C210	C	0.907615	0.100875	0.596198
	C211	C	0.908582	0.907020	0.412408
	C212	C	0.597402	0.097719	0.906253
	C213	C	0.413553	0.101902	0.101293
	C214	C	0.598321	0.907265	0.099948
	C215	C	0.417467	0.908586	0.909411
	Zn216	Zn	0.505512	0.001711	0.752716
	Zn217	Zn	0.505148	0.002064	0.253675
	Zn218	Zn	0.758389	0.504019	0.001463
	Zn219	Zn	0.257822	0.503308	0.001545
	Zn220	Zn	0.004649	0.753503	0.502883
	Zn221	Zn	0.005031	0.252981	0.501725
	Zn222	Zn	0.007881	0.504012	0.751906
	Zn223	Zn	0.007615	0.504390	0.251851
	Zn224	Zn	0.508310	0.752980	0.001945
	Zn225	Zn	0.508289	0.252994	0.002611
	Zn226	Zn	0.754862	0.002410	0.503352
	Zn227	Zn	0.255718	0.001938	0.504796
	N228	N	0.417710	0.965999	0.684268
	N229	N	0.591628	0.037918	0.682987
	N230	N	0.591317	0.965984	0.324021
	N231	N	0.417685	0.037236	0.323501
	N232	N	0.690440	0.414123	0.967117
	N233	N	0.687736	0.589324	0.038034
	N234	N	0.326626	0.591225	0.966208
	N235	N	0.326702	0.414757	0.036319
	N236	N	0.969500	0.682735	0.415764
	N237	N	0.041192	0.684499	0.590224
	N238	N	0.969366	0.326211	0.586307
	N239	N	0.040890	0.321456	0.413519
	N240	N	0.972837	0.414687	0.684275
	N241	N	0.042379	0.591523	0.682946
	N242	N	0.971422	0.590640	0.321849
	N243	N	0.042375	0.416488	0.322135
	N244	N	0.421297	0.682994	0.965890
	N245	N	0.595035	0.682555	0.037858
	N246	N	0.596058	0.321902	0.966912
	N247	N	0.424060	0.325783	0.038704
	N248	N	0.686297	0.966945	0.415475
	N249	N	0.684261	0.038335	0.589794
	N250	N	0.323694	0.966818	0.592749
	N251	N	0.325665	0.037630	0.417709
	N252	N	0.922048	0.468899	0.180846
	N253	N	0.095259	0.538871	0.182470
	N254	N	0.096315	0.469207	0.820354
	N255	N	0.921149	0.540298	0.821732
	N256	N	0.186284	0.914462	0.468947
	N257	N	0.186474	0.090678	0.538915
	N258	N	0.824679	0.089710	0.468549
	N259	N	0.824639	0.915467	0.539233
	N260	N	0.471423	0.183713	0.915176
	N261	N	0.543098	0.181168	0.088699
	N262	N	0.472935	0.821392	0.090633
	N263	N	0.543530	0.822614	0.915512
	N264	N	0.470930	0.915486	0.182723
	N265	N	0.540437	0.090583	0.185045
	N266	N	0.470426	0.089428	0.822390
	N267	N	0.541310	0.913859	0.821101
	N268	N	0.919097	0.181371	0.467134
	N269	N	0.092201	0.183409	0.538336
	N270	N	0.089848	0.824671	0.466826
	N271	N	0.915345	0.820491	0.537960
	N272	N	0.187620	0.467980	0.914775
	N273	N	0.188626	0.538240	0.089739
	N274	N	0.829488	0.468594	0.087378
	N275	N	0.826601	0.539429	0.913291
	O276	O	0.656327	0.347305	0.313306
	H277	H	0.662947	0.332199	0.301649
	H278	H	0.643008	0.339657	0.296472
	O279	O	1.119081	0.129636	0.941257
	H280	H	1.135575	0.105436	0.920460
	H281	H	1.116483	0.131220	0.968971
	O282	O	0.554561	0.545051	0.689672
	H283	H	0.550395	0.563614	0.680033
	H284	H	0.567223	0.554955	0.702178
	O285	O	0.613721	0.419157	0.373060
	H286	H	0.622409	0.412910	0.374540
	H287	H	0.619559	0.406075	0.367356
	O288	O	0.303894	0.603931	0.309075
	H289	H	0.322068	0.610450	0.300347
	H290	H	0.289486	0.593234	0.298850
	O291	O	0.575694	0.550257	0.370570
	H292	H	0.579356	0.544040	0.380446
	H293	H	0.571990	0.537100	0.358554
	O294	O	0.204020	-0.036581	1.043381
	H295	H	0.207287	-0.048245	1.052085
	H296	H	0.199978	-0.038247	1.054124
	O297	O	0.362784	0.365922	0.331221
	H298	H	0.363047	0.359181	0.352084
	H299	H	0.374279	0.362705	0.334691
	O300	O	0.554973	0.627538	0.473681
	H301	H	0.570677	0.638025	0.483709
	H302	H	0.545579	0.614294	0.478086
	O303	O	0.302880	0.344899	0.498659
	H304	H	0.294367	0.343327	0.514628
	H305	H	0.297979	0.338890	0.516085
	O306	O	0.470401	0.707647	0.304917
	H307	H	0.482273	0.722334	0.291401
	H308	H	0.491222	0.689334	0.300881
	O309	O	0.832287	0.966135	-0.140356
	H310	H	0.848474	0.981397	-0.124152
	H311	H	0.829890	0.937430	-0.124100
	O312	O	-0.019367	1.220118	0.790105
	H313	H	-0.027286	1.247200	0.761255
	H314	H	-0.048795	1.216352	0.803784
	O315	O	0.185354	-0.105427	0.846952
	H316	H	0.194366	-0.079761	0.833678
	H317	H	0.147780	-0.101316	0.838553
	O318	O	1.187961	0.202673	0.027982
	H319	H	1.204154	0.206678	0.014587
	H320	H	1.180779	0.214604	0.005410
	O321	O	-0.190436	0.200290	-0.115279
	H322	H	-0.205811	0.197538	-0.123996
	H323	H	-0.196922	0.199230	-0.113165
	O324	O	0.524559	0.465460	0.575204
	H325	H	0.519519	0.481247	0.563199
	H326	H	0.524925	0.466796	0.561198
	O327	O	0.656526	0.538938	0.529487
	H328	H	0.653124	0.542778	0.526429
	H329	H	0.668701	0.530059	0.530206
	O330	O	0.110703	0.799048	0.037842
	H331	H	0.098823	0.792907	0.019327
	H332	H	0.128849	0.802881	0.020870
	O333	O	0.482594	0.441037	0.590196
	H334	H	0.479393	0.448768	0.579252
	H335	H	0.470867	0.445517	0.598178
	O336	O	0.088628	0.148584	-0.021314
	H337	H	0.088402	0.147014	-0.010160
	H338	H	0.084728	0.138470	-0.021222
	O339	O	0.150701	0.868643	1.148823
	H340	H	0.148544	0.865558	1.154167
	H341	H	0.145937	0.865842	1.114447
	O342	O	-0.146518	1.191012	1.188288
	H343	H	-0.128119	1.186298	1.184540
	H344	H	-0.144152	1.162496	1.174108
	O345	O	0.903999	0.935786	-0.061109
	H346	H	0.928836	0.927685	-0.065796
	H347	H	0.891762	0.944922	-0.050506
	O348	O	0.670496	0.595532	0.447117
	H349	H	0.676148	0.599356	0.440657
	H350	H	0.687616	0.580432	0.440223
	O351	O	0.195893	1.189219	1.193226
	H352	H	0.206670	1.185378	1.199714
	H353	H	0.195153	1.200151	1.150905
	O354	O	0.037079	1.130688	-0.013541
	H355	H	0.035277	1.114904	-0.020993
	H356	H	0.043239	1.124253	-0.011427
	O357	O	-0.013991	0.035648	1.150331
	H358	H	0.000065	0.036312	1.146049
	H359	H	-0.003974	0.033629	1.146259
	O360	O	0.525519	0.461922	0.699344
	H361	H	0.526454	0.453143	0.712246
	H362	H	0.532721	0.465221	0.697006
	O363	O	-0.701897	0.704314	0.389008
	H364	H	-0.699014	0.704627	0.378491
	H365	H	-0.698998	0.711971	0.362920
	O366	O	-0.044678	0.874151	-0.027394
	H367	H	-0.071935	0.856875	-0.027581
	H368	H	-0.049712	0.873689	-0.032699
	O369	O	0.573258	0.660329	0.615306
	H370	H	0.560166	0.671426	0.613432
	H371	H	0.564201	0.670611	0.606837
	O372	O	0.988060	-0.006455	0.812402
	H373	H	0.995961	-0.011782	0.821481
	H374	H	0.980098	0.015048	0.812542
	O375	O	0.632019	0.405347	0.597317
	H376	H	0.636105	0.399815	0.617138
	H377	H	0.638173	0.389313	0.589925
	O378	O	0.793390	0.787451	1.049801
	H379	H	0.806641	0.801507	1.097174
	H380	H	0.761531	0.755385	1.056577
	O381	O	0.675175	0.484208	0.366822
	H382	H	0.682182	0.496201	0.367612
	H383	H	0.678021	0.471855	0.362800
	O384	O	0.816062	-0.146226	0.187050
	H385	H	0.857128	-0.158272	0.199539
	H386	H	0.818480	-0.096974	0.195575
	O387	O	-0.205606	0.098977	0.793650
	H388	H	-0.206729	0.090558	0.793323
	H389	H	-0.231090	0.083183	0.771071
	O390	O	0.019529	-0.047782	0.046135
	H391	H	0.025250	-0.027890	0.053176
	H392	H	0.030582	-0.028897	0.039736
	O393	O	1.215708	0.797194	0.933109
	H394	H	1.236967	0.774621	0.926869
	H395	H	1.214119	0.820898	0.902062
	O396	O	0.889805	0.181681	-0.013324
	H397	H	0.878232	0.202463	-0.019382
	H398	H	0.895824	0.187452	-0.000109
	O399	O	0.304932	0.607062	0.413926
	H400	H	0.308668	0.599292	0.399239
	H401	H	0.293891	0.612277	0.400187
	O402	O	1.225120	1.027541	1.221620
	H403	H	1.238694	1.051554	1.233538
	H404	H	1.230205	1.028910	1.234078
	O405	O	0.317974	1.313961	0.630812
	H406	H	0.313064	1.334266	0.645087
	H407	H	0.339888	1.317133	0.647493
	O408	O	1.985110	-0.198108	-0.788929
	H409	H	2.002157	-0.214836	-0.788451
	H410	H	2.005612	-0.195878	-0.781342
	O411	O	1.436242	1.557721	0.520234
	H412	H	1.446108	1.560054	0.520691
	H413	H	1.425313	1.558521	0.504069
	O414	O	0.711338	0.307917	0.481974
	H415	H	0.705929	0.310338	0.461598
	H416	H	0.726700	0.292921	0.461814
	O417	O	-0.175718	0.023408	0.185042
	H418	H	-0.140082	0.025498	0.185659
	H419	H	-0.186551	0.028246	0.146905
	O420	O	0.504645	0.305914	0.573691
	H421	H	0.512289	0.304565	0.586669
	H422	H	0.516740	0.305698	0.572434
	O423	O	0.073353	-0.025989	0.982885
	H424	H	0.069543	-0.027191	1.004417
	H425	H	0.070174	-0.032231	0.990351
	O426	O	0.541271	0.444877	0.660042
	H427	H	0.533648	0.472780	0.655090
	H428	H	0.557893	0.460528	0.661579
	O429	O	0.680797	0.637258	0.590535
	H430	H	0.658953	0.641661	0.578467
	H431	H	0.670503	0.649836	0.581581
	O432	O	0.544600	0.394534	0.291396
	H433	H	0.532434	0.382764	0.291855
	H434	H	0.547438	0.386091	0.294643
	O435	O	0.062494	0.220946	1.191420
	H436	H	0.073481	0.237489	1.204356
	H437	H	0.082271	0.234851	1.195771
	O438	O	-0.683426	-0.471209	-0.304277
	H439	H	-0.702835	-0.463971	-0.306510
	H440	H	-0.687045	-0.471843	-0.317900
	O441	O	1.121130	-0.001085	-0.204974
	H442	H	1.105597	0.004338	-0.204652
	H443	H	1.139591	0.005947	-0.206274
	O444	O	0.030326	0.790148	0.792059
	H445	H	0.022935	0.771630	0.774027
	H446	H	0.028332	0.796409	0.786678
	O447	O	0.889724	0.092162	0.994469
	H448	H	0.878659	0.089950	0.987984
	H449	H	0.880124	0.098521	0.970255
	O450	O	0.372655	0.405253	0.520597
	H451	H	0.353727	0.401975	0.531590
	H452	H	0.379863	0.401608	0.540513
	O453	O	0.526621	0.706655	0.545743
	H454	H	0.519890	0.704608	0.539750
	H455	H	0.523170	0.715460	0.532967
