data_Molecule from HDF5

_cell_length_a		16.472527
_cell_length_b		16.439647
_cell_length_c		16.544271
_cell_angle_alpha	89.884900
_cell_angle_beta	90.018086
_cell_angle_gamma	90.003777
_symmetry_space_group_name_H-M	'P 1'
_symmetry_Int_Tables_number		1

loop_
	_symmetry_equiv_pos_as_xyz
	x,y,z

loop_
	_atom_site_label
	_atom_site_type_symbol
	_atom_site_fract_x
	_atom_site_fract_y
	_atom_site_fract_z
	H0	H	0.386525	0.845582	0.729406
	H1	H	0.603352	0.158175	0.720294
	H2	H	0.604286	0.842441	0.279109
	H3	H	0.394566	0.156765	0.279267
	H4	H	0.725404	0.391658	0.843206
	H5	H	0.721463	0.606384	0.154779
	H6	H	0.272682	0.612386	0.843432
	H7	H	0.277407	0.395375	0.154419
	H8	H	0.841471	0.719981	0.397790
	H9	H	0.155831	0.727831	0.611535
	H10	H	0.841556	0.280144	0.604834
	H11	H	0.157124	0.278984	0.395663
	H12	H	0.843214	0.392670	0.723448
	H13	H	0.154834	0.613175	0.728670
	H14	H	0.842675	0.605713	0.279622
	H15	H	0.156355	0.393978	0.277394
	H16	H	0.388191	0.728779	0.843694
	H17	H	0.604008	0.722300	0.155028
	H18	H	0.608400	0.276756	0.842389
	H19	H	0.394661	0.278720	0.154713
	H20	H	0.719607	0.842023	0.396652
	H21	H	0.720958	0.157953	0.605935
	H22	H	0.271439	0.844923	0.613578
	H23	H	0.277770	0.156644	0.395215
	H24	H	0.896590	0.342163	0.218940
	H25	H	0.106049	0.658676	0.221036
	H26	H	0.107605	0.343633	0.776373
	H27	H	0.891852	0.657144	0.774370
	H28	H	0.220875	0.895010	0.343151
	H29	H	0.223633	0.106935	0.656729
	H30	H	0.781249	0.101553	0.342541
	H31	H	0.777706	0.894597	0.658480
	H32	H	0.341583	0.222179	0.894473
	H33	H	0.658100	0.218399	0.101317
	H34	H	0.340140	0.779120	0.104297
	H35	H	0.656722	0.779017	0.895416
	H36	H	0.340644	0.893510	0.222214
	H37	H	0.657982	0.101342	0.217796
	H38	H	0.342806	0.108531	0.776439
	H39	H	0.654802	0.890856	0.775166
	H40	H	0.896356	0.219491	0.342733
	H41	H	0.105324	0.222274	0.657852
	H42	H	0.104186	0.780202	0.342676
	H43	H	0.895790	0.779367	0.658958
	H44	H	0.221571	0.342943	0.894175
	H45	H	0.220706	0.659487	0.103599
	H46	H	0.780630	0.342084	0.101337
	H47	H	0.778022	0.658878	0.892972
	H48	H	0.414377	0.108228	0.582863
	H49	H	0.582857	0.887960	0.593805
	H50	H	0.590169	0.113740	0.409770
	H51	H	0.409363	0.883687	0.405153
	H52	H	0.598900	0.411840	0.113745
	H53	H	0.582037	0.588025	0.888952
	H54	H	0.410166	0.588766	0.109565
	H55	H	0.412254	0.414712	0.886873
	H56	H	0.113577	0.594407	0.415568
	H57	H	0.893480	0.584944	0.580843
	H58	H	0.110250	0.413204	0.584013
	H59	H	0.888103	0.413012	0.413042
	H60	H	0.111133	0.416580	0.589510
	H61	H	0.890499	0.581756	0.589825
	H62	H	0.109797	0.583557	0.412521
	H63	H	0.885201	0.412248	0.403631
	H64	H	0.410965	0.587116	0.108320
	H65	H	0.588741	0.593894	0.883993
	H66	H	0.584847	0.417975	0.105796
	H67	H	0.412523	0.408940	0.886067
	H68	H	0.591217	0.114847	0.408817
	H69	H	0.585943	0.890079	0.582747
	H70	H	0.410134	0.111636	0.585775
	H71	H	0.417835	0.888797	0.413346
	H72	H	0.907409	0.614994	0.087861
	H73	H	0.089434	0.388803	0.086583
	H74	H	0.084545	0.611151	0.914450
	H75	H	0.920834	0.389782	0.906150
	H76	H	0.082830	0.916584	0.609121
	H77	H	0.088542	0.091408	0.388086
	H78	H	0.914665	0.092037	0.613173
	H79	H	0.913152	0.909730	0.389978
	H80	H	0.613937	0.090468	0.906564
	H81	H	0.381059	0.098186	0.094406
	H82	H	0.613932	0.908302	0.094194
	H83	H	0.392595	0.922959	0.919063
	H84	H	0.609987	0.908915	0.085369
	H85	H	0.388382	0.090806	0.080359
	H86	H	0.611437	0.090556	0.913697
	H87	H	0.386329	0.918262	0.906198
	H88	H	0.905246	0.093946	0.616556
	H89	H	0.090619	0.086664	0.388606
	H90	H	0.084651	0.910357	0.612194
	H91	H	0.905547	0.906128	0.385713
	H92	H	0.086859	0.612456	0.913300
	H93	H	0.090161	0.386749	0.091119
	H94	H	0.910406	0.614856	0.093203
	H95	H	0.912567	0.391736	0.921706
	H96	H	0.415461	0.110855	0.588414
	H97	H	0.593877	0.885228	0.590228
	H98	H	0.589814	0.114215	0.408149
	H99	H	0.405867	0.886283	0.417231
	H100	H	0.585372	0.401784	0.111617
	H101	H	0.591121	0.584393	0.886892
	H102	H	0.412853	0.588947	0.109658
	H103	H	0.407323	0.412481	0.884545
	H104	H	0.116143	0.591034	0.404273
	H105	H	0.887959	0.590975	0.586678
	H106	H	0.112795	0.410468	0.588846
	H107	H	0.884389	0.404334	0.409220
	H108	H	0.913181	0.613943	0.088158
	H109	H	0.085899	0.388463	0.089954
	H110	H	0.084378	0.612411	0.911545
	H111	H	0.904178	0.384472	0.908050
	H112	H	0.089673	0.915687	0.612362
	H113	H	0.086070	0.088050	0.390017
	H114	H	0.907239	0.085154	0.613350
	H115	H	0.905795	0.915107	0.388489
	H116	H	0.610985	0.084728	0.909518
	H117	H	0.386800	0.081543	0.094886
	H118	H	0.609800	0.916624	0.090832
	H119	H	0.387275	0.908955	0.918424
	C120	C	0.377991	0.008046	0.621382
	C121	C	0.620210	0.991715	0.621443
	C122	C	0.621178	0.009216	0.378406
	C123	C	0.378450	0.990710	0.379565
	C124	C	0.622560	0.377837	0.007273
	C125	C	0.619766	0.621465	0.990074
	C126	C	0.377200	0.622964	0.006681
	C127	C	0.378505	0.379657	0.989494
	C128	C	0.008674	0.621683	0.379512
	C129	C	0.992682	0.621643	0.621403
	C130	C	0.007884	0.379779	0.620879
	C131	C	0.990506	0.378160	0.377652
	C132	C	0.878501	0.509567	0.120810
	C133	C	0.121245	0.492266	0.121309
	C134	C	0.119658	0.508562	0.879116
	C135	C	0.878686	0.492501	0.878180
	C136	C	0.119759	0.879988	0.508426
	C137	C	0.121374	0.121674	0.492317
	C138	C	0.878153	0.121196	0.509467
	C139	C	0.876485	0.877878	0.492060
	C140	C	0.507929	0.122063	0.877349
	C141	C	0.490355	0.121300	0.121114
	C142	C	0.506903	0.878496	0.121805
	C143	C	0.491188	0.881078	0.879911
	C144	C	0.370823	0.891922	0.686882
	C145	C	0.622337	0.110774	0.681041
	C146	C	0.622464	0.889662	0.319632
	C147	C	0.376289	0.109572	0.319453
	C148	C	0.684395	0.374322	0.890169
	C149	C	0.680971	0.624245	0.107829
	C150	C	0.314135	0.628825	0.889870
	C151	C	0.317878	0.376932	0.107508
	C152	C	0.889326	0.680848	0.378484
	C153	C	0.109125	0.686002	0.627933
	C154	C	0.889310	0.319463	0.623482
	C155	C	0.109462	0.318490	0.376525
	C156	C	0.890168	0.375864	0.682443
	C157	C	0.108667	0.628578	0.686230
	C158	C	0.889887	0.623792	0.319891
	C159	C	0.109201	0.375838	0.317824
	C160	C	0.371810	0.686847	0.890124
	C161	C	0.622446	0.681768	0.108061
	C162	C	0.626114	0.316762	0.889760
	C163	C	0.376079	0.319042	0.107660
	C164	C	0.679789	0.889499	0.377970
	C165	C	0.680713	0.110428	0.624040
	C166	C	0.313253	0.891532	0.629218
	C167	C	0.318148	0.109256	0.377018
	C168	C	0.877533	0.390027	0.179468
	C169	C	0.123805	0.611340	0.180945
	C170	C	0.124567	0.390694	0.817043
	C171	C	0.874562	0.610544	0.815838
	C172	C	0.181013	0.876617	0.390444
	C173	C	0.183099	0.125145	0.609859
	C174	C	0.820116	0.121320	0.390130
	C175	C	0.817824	0.876340	0.611093
	C176	C	0.389384	0.182563	0.875334
	C177	C	0.610270	0.179531	0.121144
	C178	C	0.387869	0.818366	0.123447
	C179	C	0.609255	0.818909	0.876617
	C180	C	0.387961	0.875611	0.181917
	C181	C	0.609982	0.121589	0.179309
	C182	C	0.389693	0.125616	0.816900
	C183	C	0.608411	0.874900	0.817087
	C184	C	0.877798	0.179541	0.390070
	C185	C	0.123955	0.182197	0.610507
	C186	C	0.122776	0.819571	0.390058
	C187	C	0.876241	0.818701	0.611301
	C188	C	0.181275	0.390254	0.875766
	C189	C	0.181058	0.611616	0.122610
	C190	C	0.819953	0.389843	0.121068
	C191	C	0.817618	0.611242	0.874338
	C192	C	0.405727	0.089059	0.593476
	C193	C	0.594663	0.909146	0.596285
	C194	C	0.597230	0.092405	0.402075
	C195	C	0.403727	0.907619	0.404758
	C196	C	0.596836	0.403259	0.089176
	C197	C	0.594362	0.596173	0.907947
	C198	C	0.403596	0.595737	0.087924
	C199	C	0.403540	0.404973	0.907242
	C200	C	0.091498	0.596891	0.403973
	C201	C	0.911945	0.593817	0.593707
	C202	C	0.090151	0.405956	0.594863
	C203	C	0.907515	0.402854	0.401710
	C204	C	0.903251	0.592846	0.096649
	C205	C	0.095837	0.409631	0.096457
	C206	C	0.092890	0.590472	0.905498
	C207	C	0.904981	0.410212	0.904566
	C208	C	0.093389	0.906543	0.589934
	C209	C	0.095822	0.096159	0.410452
	C210	C	0.902163	0.097403	0.592713
	C211	C	0.901216	0.902707	0.409522
	C212	C	0.590556	0.096004	0.902655
	C213	C	0.407143	0.097178	0.096916
	C214	C	0.589563	0.903730	0.097157
	C215	C	0.409939	0.908677	0.906816
	Zn216	Zn	0.498926	0.000416	0.749857
	Zn217	Zn	0.499042	-0.000398	0.250204
	Zn218	Zn	0.750290	0.501181	-0.001850
	Zn219	Zn	0.248871	0.501493	-0.001699
	Zn220	Zn	0.000113	0.750770	0.500823
	Zn221	Zn	-0.000898	0.250577	0.500845
	Zn222	Zn	-0.000263	0.500191	0.749982
	Zn223	Zn	-0.000001	0.501226	0.249866
	Zn224	Zn	0.498384	0.751134	-0.000872
	Zn225	Zn	0.499934	0.249698	-0.001469
	Zn226	Zn	0.748863	0.000208	0.501146
	Zn227	Zn	0.249629	-0.000789	0.501018
	N228	N	0.410686	0.965097	0.681872
	N229	N	0.585658	0.035652	0.679938
	N230	N	0.586661	0.964999	0.319596
	N231	N	0.412898	0.034439	0.320875
	N232	N	0.682497	0.411739	0.964191
	N233	N	0.679310	0.587211	0.033456
	N234	N	0.317313	0.589670	0.963266
	N235	N	0.319079	0.413893	0.033067
	N236	N	0.964231	0.679830	0.414807
	N237	N	0.036256	0.681676	0.588054
	N238	N	0.963553	0.321865	0.585832
	N239	N	0.034455	0.319500	0.412824
	N240	N	0.965173	0.412603	0.681014
	N241	N	0.035332	0.588858	0.682020
	N242	N	0.965036	0.587862	0.320311
	N243	N	0.034136	0.411927	0.318269
	N244	N	0.410385	0.683155	0.963688
	N245	N	0.585183	0.680111	0.033913
	N246	N	0.588278	0.318801	0.963732
	N247	N	0.412929	0.320455	0.033303
	N248	N	0.679189	0.964823	0.413806
	N249	N	0.679634	0.035333	0.588037
	N250	N	0.317699	0.964560	0.588931
	N251	N	0.319529	0.034285	0.413681
	N252	N	0.913071	0.465667	0.179597
	N253	N	0.087731	0.535934	0.180662
	N254	N	0.087368	0.465473	0.818837
	N255	N	0.911453	0.535672	0.817900
	N256	N	0.179426	0.913130	0.465157
	N257	N	0.181659	0.088438	0.535460
	N258	N	0.820110	0.086004	0.465493
	N259	N	0.817694	0.911978	0.535970
	N260	N	0.464065	0.180394	0.912266
	N261	N	0.534651	0.179732	0.085852
	N262	N	0.462815	0.819793	0.087069
	N263	N	0.535336	0.822734	0.914912
	N264	N	0.463101	0.912110	0.181276
	N265	N	0.534465	0.086314	0.179504
	N266	N	0.464577	0.088962	0.817996
	N267	N	0.534007	0.912681	0.818725
	N268	N	0.912899	0.179777	0.465470
	N269	N	0.086684	0.180701	0.536146
	N270	N	0.085732	0.821220	0.464546
	N271	N	0.911935	0.819386	0.536162
	N272	N	0.178607	0.464721	0.913241
	N273	N	0.179739	0.536561	0.086171
	N274	N	0.820327	0.465410	0.085468
	N275	N	0.820239	0.536858	0.912291
	O276	O	0.716580	0.467616	0.278977
	H277	H	0.725406	0.443453	0.282981
	H278	H	0.733871	0.450786	0.259763
	O279	O	0.579215	0.607678	0.566770
	H280	H	0.576762	0.607370	0.564065
	H281	H	0.565799	0.610902	0.562703
	O282	O	0.922381	1.083984	0.123206
	H283	H	0.913822	1.087868	0.124562
	H284	H	0.935205	1.101862	0.136539
	O285	O	0.283271	0.281965	0.525467
	H286	H	0.273340	0.265131	0.525553
	H287	H	0.276631	0.274784	0.557210
	O288	O	-0.214133	-0.011692	0.054689
	H289	H	-0.207970	-0.015957	0.070165
	H290	H	-0.219329	-0.004755	0.047210
	O291	O	1.040847	0.971270	0.105095
	H292	H	1.040770	0.971345	0.097355
	H293	H	1.028285	0.972963	0.108255
	O294	O	-0.093308	1.137587	0.182428
	H295	H	-0.085668	1.134337	0.184208
	H296	H	-0.080917	1.140910	0.186655
	O297	O	0.692129	0.644061	0.344568
	H298	H	0.681913	0.639714	0.362146
	H299	H	0.674825	0.628659	0.354628
	O300	O	0.397296	0.321286	0.447289
	H301	H	0.381116	0.327129	0.456109
	H302	H	0.418465	0.305670	0.472124
	O303	O	0.279435	0.479630	0.721157
	H304	H	0.257325	0.485186	0.718961
	H305	H	0.264878	0.448020	0.730652
	O306	O	-0.000354	0.876168	0.831558
	H307	H	0.016413	0.891834	0.832383
	H308	H	0.009110	0.857491	0.844877
	O309	O	0.717979	0.717375	0.532806
	H310	H	0.739313	0.733135	0.543240
	H311	H	0.712476	0.723940	0.531693
	O312	O	0.473990	0.711988	0.287022
	H313	H	0.491869	0.708277	0.276519
	H314	H	0.487423	0.719139	0.279150
	O315	O	0.268054	-0.240906	1.216926
	H316	H	0.294789	-0.236966	1.220407
	H317	H	0.266091	-0.273756	1.209200
	O318	O	0.100024	0.903401	-0.015526
	H319	H	0.083900	0.912165	0.000254
	H320	H	0.108570	0.916809	-0.018057
	O321	O	0.276867	0.724897	0.483802
	H322	H	0.256611	0.739515	0.460836
	H323	H	0.270420	0.724429	0.456630
	O324	O	0.806073	0.192728	0.811535
	H325	H	0.816532	0.177272	0.816163
	H326	H	0.814901	0.189569	0.829447
	O327	O	0.880510	0.181885	0.988103
	H328	H	0.888561	0.190323	1.004977
	H329	H	0.865453	0.179886	1.002644
	O330	O	0.905445	-0.007047	0.105664
	H331	H	0.902926	0.002184	0.117130
	H332	H	0.905301	0.012287	0.084068
	O333	O	0.968804	0.791659	1.185848
	H334	H	0.974679	0.767448	1.206821
	H335	H	0.957569	0.794504	1.170649
	O336	O	1.155132	-0.073867	0.816769
	H337	H	1.154705	-0.083489	0.810423
	H338	H	1.158009	-0.073104	0.840429
	O339	O	0.300473	0.353962	0.358251
	H340	H	0.311939	0.355213	0.385504
	H341	H	0.313465	0.378945	0.365207
	O342	O	0.579686	0.581059	0.284708
	H343	H	0.600007	0.564026	0.285238
	H344	H	0.588135	0.571920	0.295951
	O345	O	-0.181153	0.104892	-0.042777
	H346	H	-0.191409	0.118203	-0.046429
	H347	H	-0.182309	0.087794	-0.053513
	O348	O	0.985958	0.190064	0.792242
	H349	H	0.985405	0.205905	0.780069
	H350	H	0.986469	0.179199	0.799187
	O351	O	1.115346	0.871193	0.067635
	H352	H	1.104347	0.879448	0.078241
	H353	H	1.111850	0.876449	0.076148
	O354	O	0.713338	0.285329	0.468063
	H355	H	0.717392	0.298430	0.475298
	H356	H	0.722818	0.263334	0.470532
	O357	O	0.987706	0.785942	0.876402
	H358	H	0.982673	0.774503	0.877168
	H359	H	0.982604	0.779991	0.885224
	O360	O	0.327240	0.541119	0.504920
	H361	H	0.321056	0.533468	0.504746
	H362	H	0.339136	0.555698	0.494043
	O363	O	0.460713	0.718107	0.539777
	H364	H	0.451047	0.726295	0.534933
	H365	H	0.437702	0.717736	0.537664
	O366	O	0.815795	0.003066	0.788968
	H367	H	0.834395	0.002033	0.790809
	H368	H	0.795236	0.006156	0.768669
	O369	O	0.437461	0.565335	0.455573
	H370	H	0.426564	0.555125	0.459118
	H371	H	0.456572	0.588446	0.449507
	O372	O	0.559516	0.388127	0.642352
	H373	H	0.567871	0.403916	0.644021
	H374	H	0.571997	0.403685	0.648849
	O375	O	0.143385	0.888793	0.978690
	H376	H	0.121061	0.881747	0.970787
	H377	H	0.141166	0.877858	0.991457
	O378	O	0.529656	0.288082	0.286062
	H379	H	0.512420	0.285662	0.289093
	H380	H	0.516292	0.288997	0.272877
	O381	O	1.110715	0.134744	0.034117
	H382	H	1.120560	0.130580	0.036677
	H383	H	1.113738	0.135368	0.051130
	O384	O	0.140767	0.097686	0.857296
	H385	H	0.150100	0.075533	0.860798
	H386	H	0.129863	0.106449	0.863331
	O387	O	-0.205070	0.800037	1.204915
	H388	H	-0.211634	0.792665	1.221560
	H389	H	-0.199170	0.796971	1.194596
	O390	O	-0.151901	-0.171904	0.984723
	H391	H	-0.154340	-0.176591	1.000816
	H392	H	-0.158503	-0.161913	0.975216
	O393	O	0.786929	0.855756	-0.032049
	H394	H	0.783116	0.864143	-0.013400
	H395	H	0.778422	0.849236	-0.026223
	O396	O	0.617821	0.413170	0.556232
	H397	H	0.622666	0.424071	0.571191
	H398	H	0.612651	0.429321	0.563426
	O399	O	0.494032	0.523626	0.727761
	H400	H	0.461709	0.525802	0.734684
	H401	H	0.497971	0.537521	0.718119
	O402	O	0.159232	0.082276	0.906177
	H403	H	0.164236	0.080011	0.910258
	H404	H	0.156374	0.071545	0.914444
	O405	O	0.473907	0.296985	-0.295112
	H406	H	0.505691	0.326102	-0.292604
	H407	H	0.480508	0.279645	-0.270428
	O408	O	0.702831	0.707204	0.709529
	H409	H	0.696957	0.726273	0.695397
	H410	H	0.681481	0.700093	0.715569
	O411	O	0.286306	0.517481	0.287112
	H412	H	0.264147	0.521955	0.267445
	H413	H	0.286190	0.510722	0.312570
	O414	O	0.540768	0.434871	0.415302
	H415	H	0.555471	0.438492	0.407519
	H416	H	0.549794	0.436165	0.425861
	O417	O	0.406190	0.402786	0.280282
	H418	H	0.400105	0.420833	0.279699
	H419	H	0.411839	0.413483	0.299954
	O420	O	0.564654	0.477607	0.512439
	H421	H	0.566968	0.485668	0.525939
	H422	H	0.572908	0.463177	0.517517
	O423	O	0.197125	1.149224	-0.005136
	H424	H	0.209995	1.152928	-0.012864
	H425	H	0.193912	1.143977	-0.015785
	O426	O	1.021355	1.056150	0.816734
	H427	H	1.040992	1.051948	0.810442
	H428	H	1.022634	1.059432	0.819279
	O429	O	0.342807	0.502766	0.491311
	H430	H	0.346449	0.504319	0.496942
	H431	H	0.344616	0.491114	0.508235
	O432	O	0.311898	0.318018	0.685637
	H433	H	0.354536	0.306882	0.685955
	H434	H	0.305685	0.322241	0.698078
	O435	O	0.211990	0.030096	0.205704
	H436	H	0.215076	0.039103	0.221800
	H437	H	0.214071	0.049306	0.221515
	O438	O	1.044209	0.210074	0.196719
	H439	H	1.057777	0.223496	0.216755
	H440	H	1.059203	0.209773	0.204183
	O441	O	0.564993	0.334909	0.577525
	H442	H	0.577831	0.340354	0.584102
	H443	H	0.566439	0.338848	0.589714
	O444	O	0.092550	0.860628	1.042339
	H445	H	0.077872	0.850022	1.035017
	H446	H	0.087306	0.870728	1.053019
	O447	O	0.520521	0.715399	0.716787
	H448	H	0.503638	0.711630	0.724723
	H449	H	0.508854	0.738172	0.712620
	O450	O	0.193017	0.203772	0.201833
	H451	H	0.202470	0.206866	0.180177
	H452	H	0.210982	0.223515	0.219095
	O453	O	0.717111	0.521782	0.716933
	H454	H	0.729631	0.545657	0.724491
	H455	H	0.722932	0.533534	0.725047
	O456	O	0.696948	0.295403	0.295638
	H457	H	0.702461	0.281143	0.319858
	H458	H	0.650509	0.297681	0.289188
	O459	O	0.575961	0.686582	0.453351
	H460	H	0.565351	0.680806	0.460205
	H461	H	0.573337	0.686354	0.475738
	O462	O	0.549363	0.546783	0.576788
	H463	H	0.541680	0.537149	0.569785
	H464	H	0.538973	0.537023	0.577928
	O465	O	0.906925	0.076321	0.104472
	H466	H	0.900127	0.062478	0.118320
	H467	H	0.899861	0.073436	0.090831
