data_Molecule from HDF5

_cell_length_a		16.372553
_cell_length_b		16.155655
_cell_length_c		16.227767
_cell_angle_alpha	90.114354
_cell_angle_beta	89.931459
_cell_angle_gamma	90.028807
_symmetry_space_group_name_H-M	'P 1'
_symmetry_Int_Tables_number		1

loop_
	_symmetry_equiv_pos_as_xyz
	x,y,z

loop_
	_atom_site_label
	_atom_site_type_symbol
	_atom_site_fract_x
	_atom_site_fract_y
	_atom_site_fract_z
	H0	H	0.396936	0.831731	0.712816
	H1	H	0.590676	0.161848	0.713766
	H2	H	0.591375	0.831418	0.287832
	H3	H	0.395714	0.162181	0.288670
	H4	H	0.710691	0.395962	0.837575
	H5	H	0.709287	0.598566	0.164388
	H6	H	0.278964	0.597785	0.837214
	H7	H	0.278427	0.397058	0.164134
	H8	H	0.831043	0.710727	0.404304
	H9	H	0.157429	0.711852	0.599967
	H10	H	0.830780	0.282436	0.598842
	H11	H	0.158275	0.282604	0.403127
	H12	H	0.830888	0.398750	0.715927
	H13	H	0.157230	0.595769	0.716170
	H14	H	0.831676	0.596020	0.285927
	H15	H	0.156739	0.396726	0.284186
	H16	H	0.397722	0.709466	0.835647
	H17	H	0.589701	0.709226	0.166011
	H18	H	0.591083	0.283649	0.835979
	H19	H	0.397401	0.285905	0.165554
	H20	H	0.708454	0.831629	0.401433
	H21	H	0.709157	0.160436	0.601206
	H22	H	0.278871	0.833143	0.601347
	H23	H	0.279366	0.161086	0.402758
	H24	H	0.896547	0.331337	0.214080
	H25	H	0.091393	0.661887	0.214641
	H26	H	0.092093	0.332063	0.787159
	H27	H	0.897116	0.661567	0.788249
	H28	H	0.210031	0.896736	0.338434
	H29	H	0.208106	0.097058	0.664986
	H30	H	0.778553	0.095697	0.337966
	H31	H	0.778994	0.896245	0.664841
	H32	H	0.330495	0.210596	0.904474
	H33	H	0.656847	0.212151	0.099147
	H34	H	0.330998	0.782190	0.098364
	H35	H	0.657269	0.783322	0.902642
	H36	H	0.331316	0.897837	0.216086
	H37	H	0.656745	0.095880	0.215983
	H38	H	0.331101	0.095862	0.785998
	H39	H	0.656998	0.898455	0.785573
	H40	H	0.897974	0.208175	0.335732
	H41	H	0.089065	0.209029	0.666013
	H42	H	0.090748	0.784300	0.336586
	H43	H	0.898236	0.784637	0.665665
	H44	H	0.208340	0.332734	0.901048
	H45	H	0.209525	0.661444	0.101519
	H46	H	0.777475	0.333565	0.101558
	H47	H	0.780336	0.661452	0.901892
	H48	H	0.399038	0.115411	0.593949
	H49	H	0.581348	0.879056	0.596090
	H50	H	0.577920	0.110861	0.406599
	H51	H	0.400956	0.880775	0.413635
	H52	H	0.590634	0.394391	0.122093
	H53	H	0.579557	0.593033	0.885558
	H54	H	0.405636	0.584493	0.114494
	H55	H	0.395266	0.404154	0.881540
	H56	H	0.108810	0.589088	0.410915
	H57	H	0.874914	0.597707	0.598110
	H58	H	0.108119	0.406347	0.593092
	H59	H	0.876278	0.406603	0.398209
	H60	H	0.111358	0.403149	0.599627
	H61	H	0.880928	0.589406	0.586669
	H62	H	0.110016	0.587206	0.405752
	H63	H	0.877692	0.393849	0.411429
	H64	H	0.403259	0.596915	0.119464
	H65	H	0.596009	0.595856	0.878889
	H66	H	0.595838	0.415330	0.117234
	H67	H	0.402004	0.409592	0.885130
	H68	H	0.591728	0.112383	0.419780
	H69	H	0.588505	0.880419	0.586041
	H70	H	0.402041	0.114867	0.594722
	H71	H	0.396774	0.877365	0.406648
	H72	H	0.901211	0.614122	0.094761
	H73	H	0.082347	0.381966	0.089022
	H74	H	0.080565	0.611868	0.911388
	H75	H	0.902208	0.379560	0.908934
	H76	H	0.087151	0.908957	0.616642
	H77	H	0.078454	0.089688	0.386217
	H78	H	0.902778	0.085638	0.616303
	H79	H	0.909413	0.913788	0.389028
	H80	H	0.610039	0.091512	0.907989
	H81	H	0.377661	0.090787	0.095391
	H82	H	0.607889	0.903688	0.088127
	H83	H	0.378444	0.903328	0.908868
	H84	H	0.610082	0.908923	0.097934
	H85	H	0.377626	0.091717	0.095980
	H86	H	0.609074	0.089687	0.907307
	H87	H	0.378229	0.905967	0.905307
	H88	H	0.901938	0.093401	0.618861
	H89	H	0.094004	0.097212	0.379529
	H90	H	0.085557	0.901956	0.619018
	H91	H	0.904721	0.890541	0.381556
	H92	H	0.092075	0.614763	0.915251
	H93	H	0.092190	0.378865	0.089774
	H94	H	0.901103	0.614053	0.092821
	H95	H	0.901028	0.378757	0.909058
	H96	H	0.400661	0.114481	0.592008
	H97	H	0.592852	0.875801	0.596771
	H98	H	0.594538	0.118462	0.401242
	H99	H	0.404655	0.880030	0.405537
	H100	H	0.575445	0.407880	0.112985
	H101	H	0.591761	0.579383	0.885404
	H102	H	0.393779	0.587393	0.118577
	H103	H	0.403598	0.400656	0.882958
	H104	H	0.111390	0.592662	0.407083
	H105	H	0.878945	0.583401	0.600369
	H106	H	0.111224	0.398518	0.592925
	H107	H	0.883526	0.411403	0.415034
	H108	H	0.899589	0.615205	0.094541
	H109	H	0.086325	0.378251	0.097964
	H110	H	0.089184	0.617405	0.902405
	H111	H	0.901421	0.379272	0.908182
	H112	H	0.090660	0.905446	0.619572
	H113	H	0.093275	0.080012	0.384378
	H114	H	0.895298	0.088974	0.619848
	H115	H	0.887345	0.908741	0.380991
	H116	H	0.611020	0.090992	0.905980
	H117	H	0.377528	0.091780	0.095477
	H118	H	0.612289	0.898245	0.097113
	H119	H	0.377058	0.901221	0.905077
	C120	C	0.372466	0.005804	0.622247
	C121	C	0.615230	0.987517	0.621963
	C122	C	0.615992	0.004760	0.379972
	C123	C	0.372367	0.988282	0.380265
	C124	C	0.615854	0.375956	0.009166
	C125	C	0.616451	0.618500	0.992220
	C126	C	0.372626	0.618615	0.008997
	C127	C	0.372119	0.376092	0.992057
	C128	C	0.002595	0.618458	0.379566
	C129	C	0.986340	0.618748	0.623338
	C130	C	0.002717	0.374335	0.623471
	C131	C	0.986389	0.375285	0.379173
	C132	C	0.872019	0.505737	0.123074
	C133	C	0.115626	0.488359	0.121835
	C134	C	0.116078	0.505888	0.879926
	C135	C	0.873524	0.488264	0.880339
	C136	C	0.116027	0.876134	0.509993
	C137	C	0.115810	0.117933	0.492451
	C138	C	0.871948	0.118102	0.509715
	C139	C	0.872672	0.875731	0.492494
	C140	C	0.502332	0.119146	0.878949
	C141	C	0.485147	0.119858	0.123853
	C142	C	0.502190	0.875056	0.122674
	C143	C	0.485630	0.875118	0.878393
	C144	C	0.376245	0.881354	0.676049
	C145	C	0.612015	0.112227	0.676684
	C146	C	0.612623	0.880711	0.325055
	C147	C	0.375406	0.112675	0.326007
	C148	C	0.671791	0.376732	0.886083
	C149	C	0.670755	0.617375	0.115698
	C150	C	0.317106	0.617246	0.886008
	C151	C	0.316845	0.377947	0.115321
	C152	C	0.879796	0.673166	0.383096
	C153	C	0.108868	0.673775	0.620322
	C154	C	0.879346	0.320178	0.619863
	C155	C	0.109098	0.319894	0.382077
	C156	C	0.879556	0.377654	0.678161
	C157	C	0.108604	0.616265	0.678496
	C158	C	0.880087	0.616274	0.324336
	C159	C	0.108732	0.376817	0.323100
	C160	C	0.376238	0.672674	0.885066
	C161	C	0.611418	0.672592	0.116330
	C162	C	0.612154	0.321154	0.885333
	C163	C	0.375714	0.322358	0.116017
	C164	C	0.670735	0.880878	0.381616
	C165	C	0.670664	0.111658	0.620736
	C166	C	0.317325	0.882029	0.620609
	C167	C	0.317535	0.112189	0.382756
	C168	C	0.875238	0.381086	0.177243
	C169	C	0.112610	0.612841	0.177023
	C170	C	0.113299	0.381688	0.824424
	C171	C	0.875891	0.612330	0.825503
	C172	C	0.171248	0.877448	0.386836
	C173	C	0.170216	0.116440	0.616080
	C174	C	0.817179	0.115892	0.386420
	C175	C	0.817492	0.877089	0.616118
	C176	C	0.379192	0.173172	0.882918
	C177	C	0.607889	0.174954	0.120492
	C178	C	0.379387	0.820475	0.118959
	C179	C	0.608589	0.820887	0.881961
	C180	C	0.379804	0.877509	0.177751
	C181	C	0.608111	0.116726	0.178038
	C182	C	0.379630	0.116225	0.824251
	C183	C	0.608255	0.877916	0.823641
	C184	C	0.876434	0.171775	0.385462
	C185	C	0.111011	0.171949	0.616666
	C186	C	0.112038	0.821685	0.385884
	C187	C	0.876535	0.821479	0.616536
	C188	C	0.171077	0.382025	0.880931
	C189	C	0.171104	0.612409	0.120775
	C190	C	0.816170	0.382084	0.121459
	C191	C	0.818191	0.612243	0.882279
	C192	C	0.394172	0.092688	0.599933
	C193	C	0.593810	0.900803	0.599559
	C194	C	0.594339	0.091557	0.402451
	C195	C	0.394313	0.901593	0.402211
	C196	C	0.593928	0.399132	0.095261
	C197	C	0.595352	0.596045	0.905516
	C198	C	0.394582	0.596234	0.095323
	C199	C	0.393963	0.398192	0.905521
	C200	C	0.087974	0.596063	0.401517
	C201	C	0.900535	0.596597	0.601404
	C202	C	0.088119	0.396187	0.601699
	C203	C	0.901267	0.397815	0.401375
	C204	C	0.894110	0.592019	0.100664
	C205	C	0.093491	0.402168	0.098991
	C206	C	0.093770	0.592299	0.902851
	C207	C	0.895042	0.401523	0.902227
	C208	C	0.094193	0.898730	0.596359
	C209	C	0.094803	0.095600	0.405619
	C210	C	0.893568	0.096015	0.596133
	C211	C	0.893922	0.897898	0.406189
	C212	C	0.587930	0.097255	0.900718
	C213	C	0.399674	0.097836	0.102144
	C214	C	0.587914	0.897229	0.100961
	C215	C	0.399930	0.896894	0.900018
	Zn216	Zn	0.493740	-0.002813	0.749723
	Zn217	Zn	0.494085	-0.002920	0.252384
	Zn218	Zn	0.745007	0.497382	0.001161
	Zn219	Zn	0.244035	0.497493	0.000595
	Zn220	Zn	-0.005687	0.747800	0.501360
	Zn221	Zn	-0.005615	0.245628	0.500875
	Zn222	Zn	-0.005765	0.497084	0.752285
	Zn223	Zn	-0.005389	0.496973	0.249844
	Zn224	Zn	0.494374	0.745802	0.000396
	Zn225	Zn	0.493516	0.248372	0.000688
	Zn226	Zn	0.744098	-0.003690	0.501312
	Zn227	Zn	0.244599	-0.002803	0.501714
	N228	N	0.409607	0.959563	0.677303
	N229	N	0.578437	0.034211	0.677619
	N230	N	0.579350	0.958835	0.323958
	N231	N	0.408704	0.034597	0.324190
	N232	N	0.673974	0.410481	0.964078
	N233	N	0.673925	0.584372	0.037533
	N234	N	0.314844	0.584140	0.964017
	N235	N	0.314705	0.410789	0.037123
	N236	N	0.956913	0.674877	0.416495
	N237	N	0.031827	0.675187	0.586489
	N238	N	0.956643	0.317831	0.586672
	N239	N	0.032209	0.318842	0.416361
	N240	N	0.957057	0.410873	0.680453
	N241	N	0.031338	0.582852	0.680451
	N242	N	0.957491	0.582895	0.322034
	N243	N	0.031586	0.410477	0.321159
	N244	N	0.410173	0.673560	0.962563
	N245	N	0.578197	0.673297	0.038432
	N246	N	0.578241	0.320509	0.962871
	N247	N	0.409529	0.321370	0.038403
	N248	N	0.672850	0.959195	0.415167
	N249	N	0.672981	0.033110	0.587533
	N250	N	0.314895	0.960465	0.587986
	N251	N	0.315419	0.033769	0.415680
	N252	N	0.909253	0.459040	0.178339
	N253	N	0.078767	0.534934	0.177721
	N254	N	0.079580	0.459778	0.823750
	N255	N	0.909736	0.534412	0.824421
	N256	N	0.173795	0.910506	0.464938
	N257	N	0.173359	0.083913	0.537683
	N258	N	0.814255	0.083530	0.464653
	N259	N	0.815022	0.910230	0.537923
	N260	N	0.456376	0.174969	0.916300
	N261	N	0.530447	0.177085	0.087573
	N262	N	0.456691	0.818617	0.085546
	N263	N	0.531396	0.819086	0.915634
	N264	N	0.457122	0.910790	0.180095
	N265	N	0.530814	0.083248	0.180489
	N266	N	0.457214	0.083319	0.821758
	N267	N	0.530855	0.911001	0.821437
	N268	N	0.909817	0.173114	0.463223
	N269	N	0.077954	0.172941	0.538772
	N270	N	0.078452	0.820738	0.463693
	N271	N	0.910056	0.820499	0.538751
	N272	N	0.172879	0.460194	0.914662
	N273	N	0.172876	0.534187	0.087093
	N274	N	0.814172	0.460429	0.088635
	N275	N	0.816559	0.533963	0.915578
	O276	O	0.482479	0.480796	0.444381
	H277	H	0.476170	0.477374	0.440920
	H278	H	0.487361	0.480026	0.444254
	O279	O	0.503207	0.452378	0.438877
	H280	H	0.500251	0.463095	0.436924
	H281	H	0.502091	0.454763	0.436642
	O282	O	0.472585	0.426054	0.405904
	H283	H	0.474049	0.427721	0.399373
	H284	H	0.482996	0.413481	0.399820
	O285	O	0.508829	0.436232	0.452024
	H286	H	0.509451	0.426378	0.451777
	H287	H	0.503412	0.435411	0.455019
	O288	O	0.496004	0.481493	0.454844
	H289	H	0.501590	0.482471	0.452397
	H290	H	0.495521	0.482424	0.451879
	O291	O	0.004386	1.011849	1.030553
	H292	H	0.003584	1.011678	1.029696
	H293	H	0.003537	1.012008	1.031462
	O294	O	0.526263	0.462629	0.460214
	H295	H	0.524944	0.474839	0.452764
	H296	H	0.525265	0.461388	0.461573
	O297	O	1.555005	0.515314	0.448664
	H298	H	1.550469	0.512445	0.447371
	H299	H	1.558706	0.512263	0.451451
