data_Molecule from HDF5

_cell_length_a		16.246277
_cell_length_b		16.223896
_cell_length_c		16.141531
_cell_angle_alpha	89.921042
_cell_angle_beta	89.979728
_cell_angle_gamma	89.680387
_symmetry_space_group_name_H-M	'P 1'
_symmetry_Int_Tables_number		1

loop_
	_symmetry_equiv_pos_as_xyz
	x,y,z

loop_
	_atom_site_label
	_atom_site_type_symbol
	_atom_site_fract_x
	_atom_site_fract_y
	_atom_site_fract_z
	H0	H	0.405274	0.839317	0.712261
	H1	H	0.598674	0.168143	0.710098
	H2	H	0.601275	0.839760	0.284642
	H3	H	0.403066	0.168263	0.285194
	H4	H	0.718830	0.402612	0.832886
	H5	H	0.718338	0.603351	0.161543
	H6	H	0.289096	0.603897	0.832238
	H7	H	0.289837	0.406670	0.162085
	H8	H	0.839301	0.718708	0.395655
	H9	H	0.166948	0.716926	0.595057
	H10	H	0.838732	0.289326	0.597652
	H11	H	0.166546	0.285950	0.396569
	H12	H	0.839139	0.404449	0.712615
	H13	H	0.167336	0.599509	0.709774
	H14	H	0.839445	0.601684	0.282568
	H15	H	0.168063	0.404810	0.283701
	H16	H	0.404041	0.719246	0.832978
	H17	H	0.602022	0.717826	0.162359
	H18	H	0.602811	0.287971	0.833271
	H19	H	0.403661	0.290662	0.162965
	H20	H	0.719412	0.840520	0.395676
	H21	H	0.717152	0.166327	0.598478
	H22	H	0.288852	0.838647	0.597986
	H23	H	0.284281	0.165899	0.397311
	H24	H	0.907351	0.339407	0.211270
	H25	H	0.101303	0.668348	0.210611
	H26	H	0.102889	0.338761	0.783581
	H27	H	0.903984	0.667591	0.782646
	H28	H	0.217324	0.902125	0.333261
	H29	H	0.215610	0.100918	0.662378
	H30	H	0.786311	0.103861	0.333456
	H31	H	0.789519	0.904426	0.662221
	H32	H	0.338854	0.220216	0.897538
	H33	H	0.666428	0.217720	0.098113
	H34	H	0.338599	0.789879	0.096816
	H35	H	0.667003	0.788998	0.899622
	H36	H	0.337969	0.905830	0.212512
	H37	H	0.666321	0.100983	0.213347
	H38	H	0.338623	0.103897	0.782783
	H39	H	0.667027	0.905400	0.784163
	H40	H	0.901282	0.219905	0.332382
	H41	H	0.100075	0.216509	0.662047
	H42	H	0.099242	0.790736	0.331942
	H43	H	0.902472	0.788157	0.661179
	H44	H	0.220303	0.340893	0.896858
	H45	H	0.216939	0.668258	0.096845
	H46	H	0.789527	0.339476	0.098034
	H47	H	0.786523	0.666641	0.895862
	H48	H	0.407453	0.120116	0.587424
	H49	H	0.605218	0.882864	0.590997
	H50	H	0.600245	0.125791	0.396770
	H51	H	0.414093	0.887145	0.403868
	H52	H	0.601487	0.413155	0.116760
	H53	H	0.597733	0.591784	0.880048
	H54	H	0.407526	0.594800	0.115921
	H55	H	0.404595	0.409640	0.877293
	H56	H	0.121702	0.591799	0.396253
	H57	H	0.882457	0.605444	0.590587
	H58	H	0.118117	0.413628	0.589055
	H59	H	0.885071	0.407890	0.404675
	H60	H	0.121551	0.406400	0.594860
	H61	H	0.889366	0.593649	0.580564
	H62	H	0.123640	0.606481	0.403815
	H63	H	0.887904	0.413352	0.407201
	H64	H	0.412287	0.597197	0.115004
	H65	H	0.590078	0.596478	0.881605
	H66	H	0.592594	0.415876	0.112716
	H67	H	0.412828	0.417700	0.881987
	H68	H	0.583120	0.117683	0.406523
	H69	H	0.591346	0.885419	0.597712
	H70	H	0.405479	0.121672	0.590042
	H71	H	0.407512	0.886920	0.410590
	H72	H	0.914035	0.620681	0.093765
	H73	H	0.098850	0.386808	0.087952
	H74	H	0.100256	0.624660	0.896953
	H75	H	0.907842	0.383093	0.897352
	H76	H	0.099247	0.904343	0.618334
	H77	H	0.090526	0.095648	0.379689
	H78	H	0.912714	0.095395	0.613603
	H79	H	0.911140	0.913602	0.380014
	H80	H	0.617120	0.095693	0.913652
	H81	H	0.384745	0.096695	0.095473
	H82	H	0.619491	0.912042	0.093368
	H83	H	0.388315	0.925367	0.902222
	H84	H	0.620682	0.906912	0.092143
	H85	H	0.384883	0.102078	0.089845
	H86	H	0.619367	0.089497	0.899974
	H87	H	0.379495	0.904322	0.894286
	H88	H	0.908540	0.100869	0.615848
	H89	H	0.095528	0.096291	0.378974
	H90	H	0.097261	0.915094	0.614395
	H91	H	0.911238	0.907307	0.377994
	H92	H	0.088451	0.618869	0.901896
	H93	H	0.098773	0.386162	0.091429
	H94	H	0.908402	0.619486	0.083940
	H95	H	0.919836	0.388269	0.906300
	H96	H	0.408489	0.119983	0.589877
	H97	H	0.593601	0.888790	0.582579
	H98	H	0.600465	0.119350	0.417127
	H99	H	0.405624	0.882653	0.401399
	H100	H	0.593342	0.407241	0.115343
	H101	H	0.596762	0.600519	0.877232
	H102	H	0.408392	0.599875	0.116832
	H103	H	0.416233	0.406604	0.879342
	H104	H	0.117380	0.593094	0.411935
	H105	H	0.885716	0.590625	0.596309
	H106	H	0.120062	0.405178	0.585962
	H107	H	0.886419	0.413624	0.400121
	H108	H	0.903560	0.623841	0.092621
	H109	H	0.097026	0.386812	0.090287
	H110	H	0.098944	0.620485	0.909855
	H111	H	0.905039	0.385927	0.912176
	H112	H	0.088205	0.908005	0.614215
	H113	H	0.093857	0.091875	0.380473
	H114	H	0.905800	0.093896	0.615210
	H115	H	0.905012	0.911121	0.377418
	H116	H	0.623107	0.103945	0.901213
	H117	H	0.386925	0.095461	0.088042
	H118	H	0.618999	0.910020	0.087608
	H119	H	0.387958	0.905847	0.917477
	C120	C	0.380051	0.011927	0.618680
	C121	C	0.624455	0.994121	0.619208
	C122	C	0.623916	0.012507	0.376746
	C123	C	0.379830	0.994186	0.376019
	C124	C	0.625031	0.382024	0.006232
	C125	C	0.624035	0.624890	0.988744
	C126	C	0.380933	0.625945	0.006503
	C127	C	0.382278	0.383202	0.988588
	C128	C	0.012233	0.625722	0.375030
	C129	C	0.994305	0.624558	0.617814
	C130	C	0.011441	0.380928	0.618679
	C131	C	0.994969	0.381989	0.375391
	C132	C	0.881408	0.512405	0.118984
	C133	C	0.125367	0.495404	0.118261
	C134	C	0.125240	0.512631	0.874656
	C135	C	0.881453	0.494497	0.875818
	C136	C	0.123541	0.880755	0.506542
	C137	C	0.122432	0.123601	0.488711
	C138	C	0.879879	0.126076	0.506026
	C139	C	0.880576	0.881878	0.487789
	C140	C	0.511336	0.125878	0.875899
	C141	C	0.493863	0.125652	0.120095
	C142	C	0.510756	0.882041	0.119666
	C143	C	0.494033	0.882455	0.875925
	C144	C	0.384332	0.888262	0.674362
	C145	C	0.620601	0.118438	0.673808
	C146	C	0.621761	0.889001	0.321640
	C147	C	0.382403	0.118278	0.321729
	C148	C	0.680825	0.382870	0.882374
	C149	C	0.679841	0.623009	0.112594
	C150	C	0.326078	0.624306	0.881942
	C151	C	0.327253	0.386079	0.112961
	C152	C	0.888579	0.680872	0.376188
	C153	C	0.117789	0.679333	0.615516
	C154	C	0.887687	0.326981	0.617003
	C155	C	0.117828	0.325059	0.377251
	C156	C	0.887925	0.384220	0.674242
	C157	C	0.117986	0.621054	0.672675
	C158	C	0.888575	0.622831	0.319790
	C159	C	0.118654	0.383811	0.320829
	C160	C	0.383173	0.681598	0.882049
	C161	C	0.622150	0.680024	0.113042
	C162	C	0.623272	0.325850	0.882500
	C163	C	0.383873	0.328214	0.113254
	C164	C	0.680675	0.889394	0.376910
	C165	C	0.679035	0.117717	0.617848
	C166	C	0.325961	0.888079	0.617811
	C167	C	0.323060	0.117325	0.377352
	C168	C	0.885813	0.388569	0.173931
	C169	C	0.121762	0.619358	0.173143
	C170	C	0.123469	0.388469	0.820392
	C171	C	0.883411	0.618283	0.820191
	C172	C	0.179136	0.882338	0.382382
	C173	C	0.177826	0.121434	0.612851
	C174	C	0.824119	0.124305	0.382230
	C175	C	0.826528	0.884078	0.612537
	C176	C	0.388031	0.181763	0.877817
	C177	C	0.617571	0.180121	0.118213
	C178	C	0.387510	0.827377	0.117583
	C179	C	0.617695	0.826622	0.878599
	C180	C	0.387314	0.885217	0.174868
	C181	C	0.617540	0.122131	0.175552
	C182	C	0.387990	0.124278	0.820327
	C183	C	0.617733	0.884580	0.821198
	C184	C	0.881464	0.181850	0.381730
	C185	C	0.120618	0.179066	0.612590
	C186	C	0.120467	0.827143	0.381615
	C187	C	0.882963	0.826314	0.612004
	C188	C	0.181847	0.389463	0.876939
	C189	C	0.179126	0.619361	0.116349
	C190	C	0.827072	0.388804	0.117594
	C191	C	0.825056	0.617895	0.876557
	C192	C	0.401003	0.098313	0.595835
	C193	C	0.603103	0.908131	0.597127
	C194	C	0.601287	0.098632	0.399912
	C195	C	0.402484	0.907714	0.398534
	C196	C	0.602504	0.405182	0.092561
	C197	C	0.601564	0.602776	0.902014
	C198	C	0.402826	0.603734	0.093327
	C199	C	0.404566	0.404787	0.902072
	C200	C	0.098705	0.603557	0.397307
	C201	C	0.908083	0.602941	0.595713
	C202	C	0.097654	0.402158	0.596490
	C203	C	0.908765	0.404898	0.397505
	C204	C	0.902503	0.599047	0.096700
	C205	C	0.104421	0.409022	0.096298
	C206	C	0.102624	0.598944	0.896486
	C207	C	0.904287	0.408123	0.898616
	C208	C	0.101505	0.902741	0.593212
	C209	C	0.099966	0.101094	0.402055
	C210	C	0.902390	0.103487	0.592497
	C211	C	0.902622	0.904220	0.400926
	C212	C	0.597500	0.103131	0.898337
	C213	C	0.407689	0.104513	0.097571
	C214	C	0.597330	0.903320	0.097470
	C215	C	0.407474	0.905114	0.898229
	Zn216	Zn	0.502390	0.003721	0.746924
	Zn217	Zn	0.502331	0.003607	0.248699
	Zn218	Zn	0.753230	0.503543	-0.002975
	Zn219	Zn	0.253245	0.504612	-0.002531
	Zn220	Zn	0.001961	0.754027	0.496599
	Zn221	Zn	0.002127	0.252958	0.497075
	Zn222	Zn	0.002575	0.502950	0.747229
	Zn223	Zn	0.004436	0.504313	0.246852
	Zn224	Zn	0.502609	0.753399	-0.002509
	Zn225	Zn	0.502993	0.254362	-0.001911
	Zn226	Zn	0.752387	0.003538	0.497435
	Zn227	Zn	0.250863	0.002036	0.497406
	N228	N	0.417209	0.966319	0.675075
	N229	N	0.587019	0.040722	0.674724
	N230	N	0.587148	0.966597	0.321555
	N231	N	0.416845	0.040588	0.320771
	N232	N	0.682043	0.417185	0.960321
	N233	N	0.681109	0.589594	0.034336
	N234	N	0.324490	0.590560	0.960332
	N235	N	0.326102	0.419626	0.034578
	N236	N	0.966426	0.682921	0.409599
	N237	N	0.039819	0.681580	0.582071
	N238	N	0.965402	0.324790	0.583039
	N239	N	0.039707	0.323813	0.410149
	N240	N	0.965785	0.416974	0.675593
	N241	N	0.040189	0.587752	0.674171
	N242	N	0.966594	0.589025	0.318986
	N243	N	0.041212	0.418508	0.319491
	N244	N	0.416446	0.682961	0.960326
	N245	N	0.587859	0.681160	0.035045
	N246	N	0.589295	0.325189	0.960493
	N247	N	0.417496	0.326284	0.035179
	N248	N	0.682019	0.967346	0.410707
	N249	N	0.681563	0.039692	0.584774
	N250	N	0.323265	0.965890	0.583868
	N251	N	0.321601	0.039154	0.410648
	N252	N	0.918753	0.466470	0.175109
	N253	N	0.088978	0.541285	0.174558
	N254	N	0.088897	0.465987	0.818940
	N255	N	0.917929	0.540494	0.819639
	N256	N	0.181165	0.915089	0.461004
	N257	N	0.178925	0.087620	0.534583
	N258	N	0.823081	0.090310	0.460307
	N259	N	0.824989	0.918054	0.534303
	N260	N	0.465773	0.182809	0.911717
	N261	N	0.539675	0.182595	0.084600
	N262	N	0.465283	0.825291	0.083966
	N263	N	0.539650	0.825252	0.911783
	N264	N	0.465162	0.918397	0.176323
	N265	N	0.539741	0.089171	0.176956
	N266	N	0.465645	0.090025	0.818993
	N267	N	0.539770	0.918398	0.819546
	N268	N	0.915514	0.182976	0.459833
	N269	N	0.087012	0.180494	0.534428
	N270	N	0.086608	0.825986	0.459798
	N271	N	0.915736	0.824683	0.533365
	N272	N	0.183082	0.467613	0.909973
	N273	N	0.181358	0.541425	0.082975
	N274	N	0.824338	0.466948	0.084170
	N275	N	0.823911	0.539979	0.910345
	O276	O	0.011031	0.059619	0.005259
	H277	H	0.016419	0.052357	0.006623
	H278	H	0.013905	0.057375	0.005148
	O279	O	0.483491	0.487062	0.501670
	H280	H	0.468544	0.488309	0.502002
	H281	H	0.481643	0.488163	0.506338
	O282	O	0.589444	0.489289	0.547779
	H283	H	0.585025	0.500036	0.549034
	H284	H	0.603370	0.485586	0.551070
	O285	O	0.984027	0.001920	1.064738
	H286	H	0.982925	-0.009086	1.072870
	H287	H	0.976026	0.001219	1.062272
	O288	O	1.023358	-0.040124	-0.044092
	H289	H	1.025601	-0.040168	-0.045381
	H290	H	1.025932	-0.032086	-0.032794
	O291	O	0.439199	0.498761	0.456970
	H292	H	0.446736	0.502383	0.459546
	H293	H	0.440143	0.491973	0.452794
	O294	O	1.033373	0.014060	1.042876
	H295	H	1.024698	0.015424	1.034996
	H296	H	1.026879	0.010043	1.041384
	O297	O	0.015523	0.027883	0.062210
	H298	H	0.020523	0.030086	0.065929
	H299	H	0.021329	0.021387	0.059691
	O300	O	0.433565	0.544475	0.480805
	H301	H	0.429909	0.545205	0.476630
	H302	H	0.434242	0.554766	0.476580
	O303	O	0.529994	0.469572	0.579045
	H304	H	0.529326	0.467252	0.585560
	H305	H	0.538879	0.482231	0.573060
	O306	O	1.028034	0.031938	-0.015814
	H307	H	1.031936	0.027608	-0.013938
	H308	H	1.024140	0.035758	-0.022993
	O309	O	0.023745	0.048947	0.979309
	H310	H	0.023162	0.054224	0.980920
	H311	H	0.021991	0.056927	0.975408
	O312	O	1.073015	1.120042	0.980827
	H313	H	1.077514	1.116173	0.981244
	H314	H	1.071806	1.120533	0.980873
	O315	O	0.595930	0.519541	0.476687
	H316	H	0.608156	0.525751	0.487148
	H317	H	0.598426	0.520061	0.480980
	O318	O	0.520161	0.520601	0.464431
	H319	H	0.524396	0.508952	0.472821
	H320	H	0.519785	0.522496	0.458935
	O321	O	0.052320	1.019228	0.957316
	H322	H	0.053613	1.016611	0.957365
	H323	H	0.056330	1.027892	0.961465
	O324	O	0.540075	0.457671	0.432614
	H325	H	0.537428	0.451124	0.426030
	H326	H	0.538012	0.448217	0.431568
	O327	O	0.515931	0.515639	0.544937
	H328	H	0.508728	0.520284	0.548345
	H329	H	0.512020	0.513705	0.552238
	O330	O	0.507255	0.496389	0.458881
	H331	H	0.511874	0.495613	0.463081
	H332	H	0.513821	0.500920	0.456546
	O333	O	0.512945	0.588243	0.413305
	H334	H	0.503686	0.590813	0.410089
	H335	H	0.513642	0.587397	0.404209
	O336	O	0.512608	0.482992	0.468460
	H337	H	0.507924	0.473391	0.469443
	H338	H	0.514658	0.474251	0.463232
	O339	O	1.015224	0.918108	-0.004838
	H340	H	1.015133	0.919541	-0.000254
	H341	H	1.011428	0.923265	0.003548
	O342	O	0.550871	0.426797	0.511400
	H343	H	0.558260	0.432111	0.508128
	H344	H	0.545683	0.418487	0.506767
	O345	O	0.544882	0.544625	0.516748
	H346	H	0.543090	0.553166	0.521713
	H347	H	0.548988	0.533906	0.517036
	O348	O	-0.086009	0.021313	-0.002635
	H349	H	-0.086796	0.027019	-0.001198
	H350	H	-0.082418	0.017847	-0.019088
	O351	O	-0.018012	1.021772	0.996066
	H352	H	-0.019483	1.010894	0.998246
	H353	H	-0.020206	1.020342	0.997758
	O354	O	0.507240	0.481745	0.579837
	H355	H	0.498186	0.488200	0.586741
	H356	H	0.518709	0.475240	0.575939
	O357	O	0.013837	1.010634	0.899085
	H358	H	0.011740	1.016701	0.884877
	H359	H	0.024236	1.017539	0.913539
