data_Molecule from HDF5

_cell_length_a		16.698584
_cell_length_b		16.577937
_cell_length_c		16.618824
_cell_angle_alpha	89.789445
_cell_angle_beta	90.143044
_cell_angle_gamma	90.050679
_symmetry_space_group_name_H-M	'P 1'
_symmetry_Int_Tables_number		1

loop_
	_symmetry_equiv_pos_as_xyz
	x,y,z

loop_
	_atom_site_label
	_atom_site_type_symbol
	_atom_site_fract_x
	_atom_site_fract_y
	_atom_site_fract_z
	H0	H	0.396188	0.848385	0.713725
	H1	H	0.600878	0.163806	0.711382
	H2	H	0.601329	0.847917	0.276693
	H3	H	0.390603	0.159583	0.269626
	H4	H	0.720073	0.400325	0.838821
	H5	H	0.722604	0.611395	0.150352
	H6	H	0.279950	0.609520	0.838473
	H7	H	0.277453	0.398247	0.149702
	H8	H	0.843059	0.726772	0.387204
	H9	H	0.151385	0.730473	0.601750
	H10	H	0.844113	0.286135	0.597285
	H11	H	0.155119	0.284386	0.389807
	H12	H	0.843129	0.403006	0.712748
	H13	H	0.152271	0.614073	0.718110
	H14	H	0.845241	0.613179	0.268952
	H15	H	0.154671	0.400866	0.272897
	H16	H	0.398322	0.722956	0.837510
	H17	H	0.607748	0.728551	0.148860
	H18	H	0.600261	0.287246	0.837461
	H19	H	0.395066	0.283550	0.150615
	H20	H	0.718518	0.848991	0.390801
	H21	H	0.717730	0.163562	0.596003
	H22	H	0.277786	0.849892	0.600090
	H23	H	0.276011	0.160771	0.386662
	H24	H	0.893984	0.350093	0.216591
	H25	H	0.107092	0.659909	0.216794
	H26	H	0.102009	0.349264	0.774902
	H27	H	0.894745	0.661293	0.773751
	H28	H	0.221011	0.899749	0.339987
	H29	H	0.221776	0.111113	0.649711
	H30	H	0.779908	0.109358	0.337341
	H31	H	0.781269	0.903640	0.650571
	H32	H	0.343771	0.225676	0.888341
	H33	H	0.653585	0.224836	0.098161
	H34	H	0.344537	0.782954	0.098513
	H35	H	0.655470	0.785573	0.891847
	H36	H	0.345003	0.896390	0.217127
	H37	H	0.652922	0.109431	0.215993
	H38	H	0.343953	0.109554	0.772657
	H39	H	0.655972	0.903265	0.776113
	H40	H	0.896496	0.226084	0.337960
	H41	H	0.102228	0.224413	0.651507
	H42	H	0.104829	0.783974	0.339262
	H43	H	0.895907	0.786051	0.649381
	H44	H	0.221061	0.350125	0.887877
	H45	H	0.223260	0.659701	0.100865
	H46	H	0.779141	0.348569	0.099838
	H47	H	0.777850	0.661107	0.889075
	H48	H	0.414716	0.114405	0.579135
	H49	H	0.590962	0.893313	0.586167
	H50	H	0.584600	0.115452	0.408057
	H51	H	0.416796	0.899551	0.413090
	H52	H	0.586159	0.415135	0.105030
	H53	H	0.588668	0.597940	0.882543
	H54	H	0.415181	0.594740	0.106097
	H55	H	0.413144	0.420518	0.885665
	H56	H	0.111962	0.594851	0.397016
	H57	H	0.885604	0.596219	0.588580
	H58	H	0.111394	0.413903	0.585508
	H59	H	0.888448	0.413474	0.406959
	H60	H	0.110425	0.416313	0.584580
	H61	H	0.888255	0.598062	0.578927
	H62	H	0.109942	0.602868	0.412361
	H63	H	0.891459	0.420439	0.407203
	H64	H	0.407558	0.594064	0.107857
	H65	H	0.592577	0.591227	0.883072
	H66	H	0.590962	0.411787	0.107688
	H67	H	0.410083	0.410081	0.881938
	H68	H	0.591339	0.118138	0.405145
	H69	H	0.591422	0.893329	0.584880
	H70	H	0.404256	0.118346	0.579439
	H71	H	0.400982	0.892270	0.411358
	H72	H	0.915969	0.614227	0.081524
	H73	H	0.086163	0.394471	0.083252
	H74	H	0.088258	0.617076	0.905848
	H75	H	0.905366	0.392001	0.905915
	H76	H	0.093073	0.919949	0.606289
	H77	H	0.086346	0.094220	0.384591
	H78	H	0.902543	0.096763	0.608037
	H79	H	0.902895	0.913550	0.377976
	H80	H	0.609358	0.094445	0.906053
	H81	H	0.385421	0.101074	0.079993
	H82	H	0.610204	0.915219	0.084630
	H83	H	0.388534	0.915841	0.904751
	H84	H	0.610294	0.917668	0.083831
	H85	H	0.391053	0.088277	0.076661
	H86	H	0.611351	0.094917	0.899724
	H87	H	0.387782	0.915708	0.901607
	H88	H	0.909291	0.091678	0.603935
	H89	H	0.088209	0.096683	0.382918
	H90	H	0.083767	0.922185	0.601852
	H91	H	0.907397	0.922893	0.383032
	H92	H	0.089129	0.617111	0.906690
	H93	H	0.086786	0.395667	0.080585
	H94	H	0.908156	0.616392	0.075572
	H95	H	0.909154	0.391169	0.900434
	H96	H	0.411032	0.119068	0.588571
	H97	H	0.592294	0.892760	0.585762
	H98	H	0.585126	0.117805	0.400725
	H99	H	0.412370	0.891820	0.397905
	H100	H	0.592034	0.418260	0.106065
	H101	H	0.585235	0.591866	0.886166
	H102	H	0.411514	0.587655	0.104936
	H103	H	0.403276	0.418940	0.881177
	H104	H	0.104405	0.586394	0.410309
	H105	H	0.890131	0.589339	0.583152
	H106	H	0.112048	0.416151	0.587030
	H107	H	0.888084	0.417855	0.401134
	H108	H	0.908212	0.618739	0.085556
	H109	H	0.089118	0.394153	0.082414
	H110	H	0.089005	0.617561	0.905592
	H111	H	0.911696	0.394294	0.905612
	H112	H	0.084923	0.912812	0.606737
	H113	H	0.089021	0.093250	0.383114
	H114	H	0.911030	0.100226	0.607337
	H115	H	0.913881	0.913548	0.382040
	H116	H	0.611659	0.099835	0.903717
	H117	H	0.386377	0.090445	0.090346
	H118	H	0.610692	0.916576	0.086272
	H119	H	0.387377	0.913240	0.904309
	C120	C	0.378596	0.013599	0.614753
	C121	C	0.621495	0.997691	0.615867
	C122	C	0.618703	0.013593	0.373838
	C123	C	0.376985	0.996934	0.373403
	C124	C	0.620515	0.383997	0.002580
	C125	C	0.621589	0.626465	0.986424
	C126	C	0.379154	0.625326	0.003121
	C127	C	0.376991	0.383305	0.985899
	C128	C	0.006925	0.627523	0.372509
	C129	C	0.990103	0.627491	0.615702
	C130	C	0.007995	0.384380	0.616226
	C131	C	0.991867	0.384905	0.373238
	C132	C	0.878698	0.513498	0.114373
	C133	C	0.120628	0.497291	0.114709
	C134	C	0.120619	0.514301	0.873125
	C135	C	0.876907	0.496278	0.872314
	C136	C	0.119695	0.885189	0.502485
	C137	C	0.119946	0.126579	0.486567
	C138	C	0.877474	0.127424	0.502435
	C139	C	0.877298	0.885164	0.484730
	C140	C	0.507703	0.127233	0.872124
	C141	C	0.490119	0.125332	0.114784
	C142	C	0.507916	0.883231	0.116192
	C143	C	0.491138	0.884044	0.872849
	C144	C	0.377366	0.895749	0.674253
	C145	C	0.620612	0.116430	0.672594
	C146	C	0.620013	0.895325	0.315663
	C147	C	0.373128	0.113238	0.310781
	C148	C	0.679836	0.382073	0.885426
	C149	C	0.682292	0.629392	0.103483
	C150	C	0.319735	0.627686	0.885620
	C151	C	0.317431	0.380134	0.103097
	C152	C	0.890273	0.687448	0.368970
	C153	C	0.105510	0.689421	0.619407
	C154	C	0.890741	0.325676	0.616460
	C155	C	0.108319	0.324628	0.371456
	C156	C	0.890276	0.383854	0.673691
	C157	C	0.105916	0.631417	0.677138
	C158	C	0.891362	0.630596	0.310250
	C159	C	0.108302	0.382457	0.313285
	C160	C	0.378450	0.684398	0.884990
	C161	C	0.625143	0.687534	0.102876
	C162	C	0.620507	0.325836	0.884741
	C163	C	0.375710	0.323079	0.103449
	C164	C	0.678367	0.896063	0.372619
	C165	C	0.678832	0.116496	0.615417
	C166	C	0.318546	0.896388	0.617621
	C167	C	0.315942	0.113635	0.368865
	C168	C	0.876409	0.396531	0.175629
	C169	C	0.124728	0.613620	0.175919
	C170	C	0.121529	0.396493	0.813827
	C171	C	0.875745	0.614333	0.813304
	C172	C	0.180491	0.882013	0.386205
	C173	C	0.180489	0.129047	0.603424
	C174	C	0.819497	0.128375	0.384272
	C175	C	0.819877	0.884377	0.603139
	C176	C	0.390584	0.185994	0.870296
	C177	C	0.607025	0.184870	0.116628
	C178	C	0.391263	0.822695	0.117422
	C179	C	0.608824	0.825761	0.872885
	C180	C	0.391291	0.879416	0.176065
	C181	C	0.606592	0.127419	0.175097
	C182	C	0.390709	0.128383	0.812521
	C183	C	0.609051	0.884149	0.815351
	C184	C	0.877507	0.186128	0.384449
	C185	C	0.121484	0.185450	0.604231
	C186	C	0.122419	0.824623	0.385943
	C187	C	0.877037	0.826225	0.602735
	C188	C	0.180673	0.397036	0.870087
	C189	C	0.182448	0.613531	0.118471
	C190	C	0.819095	0.395927	0.117622
	C191	C	0.817693	0.613959	0.870522
	C192	C	0.402959	0.095856	0.589466
	C193	C	0.598160	0.914670	0.592403
	C194	C	0.594141	0.095768	0.397707
	C195	C	0.402714	0.915683	0.399902
	C196	C	0.596655	0.408223	0.084880
	C197	C	0.596042	0.600884	0.905238
	C198	C	0.404368	0.599535	0.085061
	C199	C	0.401739	0.409038	0.904098
	C200	C	0.087720	0.601952	0.399127
	C201	C	0.909033	0.601880	0.590457
	C202	C	0.089914	0.408410	0.592412
	C203	C	0.910606	0.410077	0.397942
	C204	C	0.903877	0.595314	0.088378
	C205	C	0.094748	0.415964	0.089260
	C206	C	0.095847	0.595968	0.898653
	C207	C	0.901623	0.413954	0.896972
	C208	C	0.094345	0.910994	0.583873
	C209	C	0.094911	0.101684	0.404861
	C210	C	0.901039	0.103220	0.584930
	C211	C	0.901182	0.909684	0.402433
	C212	C	0.589594	0.103227	0.896269
	C213	C	0.408534	0.100467	0.089336
	C214	C	0.589137	0.908983	0.091724
	C215	C	0.409261	0.908009	0.896778
	Zn216	Zn	0.499623	0.005839	0.743649
	Zn217	Zn	0.497858	0.004622	0.244706
	Zn218	Zn	0.749581	0.505273	-0.005243
	Zn219	Zn	0.249551	0.504860	-0.005547
	Zn220	Zn	-0.001760	0.756328	0.493196
	Zn221	Zn	-0.000519	0.255787	0.494721
	Zn222	Zn	-0.001063	0.505791	0.744882
	Zn223	Zn	-0.000390	0.505994	0.243261
	Zn224	Zn	0.500164	0.754507	-0.005251
	Zn225	Zn	0.498615	0.255724	-0.005798
	Zn226	Zn	0.748660	0.006572	0.493590
	Zn227	Zn	0.248948	0.005842	0.494754
	N228	N	0.414127	0.969852	0.672520
	N229	N	0.586098	0.041390	0.673262
	N230	N	0.583445	0.969566	0.316044
	N231	N	0.410437	0.039492	0.313286
	N232	N	0.680126	0.417220	0.959998
	N233	N	0.680356	0.592059	0.029927
	N234	N	0.319839	0.591990	0.960282
	N235	N	0.317868	0.416660	0.028817
	N236	N	0.963436	0.686029	0.406746
	N237	N	0.032379	0.687069	0.581769
	N238	N	0.965042	0.325624	0.581473
	N239	N	0.034738	0.325965	0.407884
	N240	N	0.964422	0.419437	0.673852
	N241	N	0.032909	0.593789	0.675302
	N242	N	0.965103	0.594089	0.312106
	N243	N	0.034695	0.419182	0.314095
	N244	N	0.414780	0.683019	0.959275
	N245	N	0.587969	0.685791	0.029195
	N246	N	0.584409	0.326735	0.958875
	N247	N	0.411797	0.324797	0.029369
	N248	N	0.677776	0.970660	0.407937
	N249	N	0.679681	0.041320	0.580926
	N250	N	0.318993	0.970937	0.581447
	N251	N	0.318122	0.040205	0.407014
	N252	N	0.912719	0.470907	0.173927
	N253	N	0.086979	0.540224	0.173882
	N254	N	0.084990	0.470584	0.815455
	N255	N	0.911768	0.540054	0.814143
	N256	N	0.178903	0.918993	0.459915
	N257	N	0.179977	0.093491	0.529014
	N258	N	0.819395	0.092767	0.458666
	N259	N	0.819645	0.920151	0.528587
	N260	N	0.464424	0.185551	0.906719
	N261	N	0.533292	0.183741	0.079853
	N262	N	0.464915	0.824652	0.081030
	N263	N	0.534431	0.825410	0.907838
	N264	N	0.464866	0.916199	0.175617
	N265	N	0.532719	0.091294	0.174252
	N266	N	0.464643	0.092523	0.813436
	N267	N	0.534737	0.919419	0.814859
	N268	N	0.912939	0.185667	0.458997
	N269	N	0.084609	0.184173	0.530355
	N270	N	0.085209	0.826614	0.459377
	N271	N	0.911995	0.826432	0.528025
	N272	N	0.180295	0.471298	0.906357
	N273	N	0.180222	0.540041	0.081259
	N274	N	0.820188	0.469845	0.080575
	N275	N	0.818076	0.539252	0.906277
	O276	O	0.001402	1.104923	-0.082699
	H277	H	-0.027109	1.101239	-0.085063
	H278	H	-0.003809	1.125273	-0.083420
	O279	O	0.635394	0.334771	0.389857
	H280	H	0.634864	0.324373	0.363053
	H281	H	0.664475	0.325574	0.379277
	O282	O	0.854796	-0.044441	1.042293
	H283	H	0.852020	-0.025678	1.042025
	H284	H	0.856412	-0.054534	1.049877
	O285	O	0.571313	0.471901	0.708120
	H286	H	0.564680	0.462279	0.709033
	H287	H	0.564855	0.482042	0.695443
	O288	O	0.265606	0.442301	0.447254
	H289	H	0.257998	0.443542	0.443719
	H290	H	0.263361	0.444011	0.460943
	O291	O	0.326669	0.679789	0.678021
	H292	H	0.348695	0.667712	0.666494
	H293	H	0.339899	0.661391	0.658717
	O294	O	0.988387	-0.212131	1.206729
	H295	H	0.978536	-0.237729	1.229221
	H296	H	0.978375	-0.195307	1.206676
	O297	O	0.280868	0.719003	0.284250
	H298	H	0.273760	0.712073	0.272074
	H299	H	0.291125	0.699658	0.299298
	O300	O	0.464886	0.289634	0.710485
	H301	H	0.443607	0.288485	0.714432
	H302	H	0.450916	0.273782	0.720671
	O303	O	0.474388	0.726294	0.273082
	H304	H	0.462133	0.731303	0.258516
	H305	H	0.460556	0.728197	0.262794
	O306	O	0.665008	0.687504	0.351419
	H307	H	0.688080	0.710073	0.332326
	H308	H	0.643259	0.692613	0.360722
	O309	O	0.517198	0.428194	0.499904
	H310	H	0.514949	0.426311	0.509096
	H311	H	0.519786	0.425045	0.498911
	O312	O	0.398890	0.537061	0.347741
	H313	H	0.415570	0.532758	0.348773
	H314	H	0.393740	0.528112	0.356206
	O315	O	1.064397	1.086692	0.957673
	H316	H	1.045753	1.087414	0.958038
	H317	H	1.059264	1.074439	0.946720
	O318	O	0.279939	0.287223	0.530253
	H319	H	0.283171	0.294647	0.542529
	H320	H	0.257068	0.266768	0.527885
	O321	O	0.225220	0.780654	0.766221
	H322	H	0.255672	0.747256	0.739482
	H323	H	0.232522	0.775504	0.804313
	O324	O	1.287055	1.296174	-0.296174
	H325	H	1.292806	1.312899	-0.314460
	H326	H	1.255089	1.263713	-0.263636
	O327	O	-0.223320	-0.004683	1.157306
	H328	H	-0.228226	0.009844	1.157408
	H329	H	-0.233995	0.011740	1.148500
	O330	O	1.032371	0.226815	1.191236
	H331	H	1.049380	0.233273	1.201485
	H332	H	1.048654	0.233381	1.199794
	O333	O	0.727787	0.481306	0.558031
	H334	H	0.730145	0.495448	0.551176
	H335	H	0.729317	0.488568	0.576799
	O336	O	0.694386	0.314034	0.689877
	H337	H	0.679393	0.331743	0.690040
	H338	H	0.676390	0.327964	0.662529
	O339	O	1.219697	0.060631	1.037573
	H340	H	1.241789	0.056120	1.049879
	H341	H	1.199898	0.062694	1.044919
	O342	O	0.222030	-0.216037	-0.044400
	H343	H	0.217352	-0.234762	-0.028856
	H344	H	0.230366	-0.223355	-0.034586
	O345	O	0.021350	1.020248	1.074026
	H346	H	0.027468	1.016429	1.069009
	H347	H	0.010055	1.029358	1.082520
	O348	O	-0.074081	0.216817	0.025699
	H349	H	-0.093722	0.212087	0.032101
	H350	H	-0.067938	0.215525	0.045745
	O351	O	0.792678	0.210018	0.790288
	H352	H	0.773563	0.231452	0.794249
	H353	H	0.817129	0.224981	0.778962
	O354	O	0.033105	-0.209765	0.778843
	H355	H	0.070086	-0.194195	0.789362
	H356	H	0.045798	-0.238057	0.747504
	O357	O	0.722639	0.725513	0.535945
	H358	H	0.706829	0.739306	0.530005
	H359	H	0.738938	0.748344	0.543200
	O360	O	0.431682	0.473636	0.271669
	H361	H	0.449336	0.480587	0.274347
	H362	H	0.424776	0.459907	0.293125
	O363	O	0.071655	-0.151767	-0.009981
	H364	H	0.061377	-0.150982	0.002831
	H365	H	0.064282	-0.144325	-0.010501
	O366	O	0.445274	0.512927	0.525757
	H367	H	0.448489	0.515026	0.532435
	H368	H	0.457274	0.498363	0.523923
	O369	O	0.955407	0.095158	0.221999
	H370	H	0.959059	0.111008	0.230047
	H371	H	0.957731	0.084657	0.224944
	O372	O	0.569940	0.589248	0.273653
	H373	H	0.588490	0.597112	0.288455
	H374	H	0.551230	0.589158	0.269413
	O375	O	0.979139	0.140791	-0.221579
	H376	H	0.989298	0.117947	-0.226507
	H377	H	0.994393	0.146399	-0.229321
	O378	O	0.709308	0.295073	0.281495
	H379	H	0.713325	0.348360	0.278963
	H380	H	0.672245	0.289731	0.297648
	O381	O	-0.175727	1.015188	1.128804
	H382	H	-0.164907	1.017888	1.116547
	H383	H	-0.189503	1.026516	1.126747
	O384	O	0.808825	-0.185153	0.799128
	H385	H	0.821799	-0.176568	0.828693
	H386	H	0.831111	-0.156304	0.807524
	O387	O	1.199993	1.209083	0.199292
	H388	H	1.205260	1.214310	0.195859
	H389	H	1.202455	1.186531	0.178993
	O390	O	0.733507	0.554543	0.415775
	H391	H	0.733011	0.564450	0.421522
	H392	H	0.731596	0.574295	0.419069
	O393	O	0.534957	0.720277	0.447061
	H394	H	0.524422	0.722355	0.421875
	H395	H	0.507993	0.720532	0.453498
	O396	O	0.190022	1.195251	0.804458
	H397	H	0.175816	1.174754	0.824087
	H398	H	0.173306	1.175843	0.824444
	O399	O	0.210312	-0.018621	0.777626
	H400	H	0.222297	-0.035797	0.775617
	H401	H	0.220255	-0.040504	0.778061
	O402	O	0.438149	0.274151	0.419288
	H403	H	0.424225	0.272318	0.421889
	H404	H	0.436889	0.272284	0.440521
	O405	O	0.985680	0.038781	0.957835
	H406	H	0.974754	0.042173	0.962811
	H407	H	0.995460	0.045385	0.970333
	O408	O	-0.227013	0.036973	-0.226523
	H409	H	-0.231468	0.073728	-0.232039
	H410	H	-0.242018	0.051390	-0.245762
	O411	O	0.706508	0.714978	0.703662
	H412	H	0.714541	0.691122	0.680067
	H413	H	0.741818	0.746288	0.734123
	O414	O	0.417511	0.680976	0.466265
	H415	H	0.401971	0.684737	0.478561
	H416	H	0.424382	0.672567	0.475576
	O417	O	0.469840	0.408829	0.621600
	H418	H	0.472345	0.409652	0.644202
	H419	H	0.497336	0.407671	0.620707
	O420	O	0.314454	0.325548	0.309962
	H421	H	0.317289	0.342622	0.325631
	H422	H	0.318270	0.330328	0.300648
	O423	O	0.072981	0.047775	1.088905
	H424	H	0.068577	0.050392	1.094350
	H425	H	0.077892	0.026375	1.083366
	O426	O	0.658027	0.317328	0.512340
	H427	H	0.668211	0.318912	0.508470
	H428	H	0.675460	0.323214	0.512287
	O429	O	1.188620	0.820330	1.180633
	H430	H	1.174180	0.836144	1.164030
	H431	H	1.188548	0.803853	1.191199
	O432	O	0.261928	0.564892	0.553350
	H433	H	0.267815	0.559244	0.564803
	H434	H	0.265081	0.572350	0.547833
	O435	O	-0.010312	0.898985	0.129974
	H436	H	-0.013236	0.910523	0.117708
	H437	H	-0.006794	0.904677	0.132568
	O438	O	-0.065604	-0.074595	-0.215337
	H439	H	-0.070115	-0.061236	-0.210359
	H440	H	-0.052994	-0.084897	-0.220764
	O441	O	0.217415	-0.081411	-0.001395
	H442	H	0.222786	-0.089883	-0.005914
	H443	H	0.200769	-0.071685	0.000769
	O444	O	0.713539	0.465671	0.272759
	H445	H	0.727439	0.485467	0.277619
	H446	H	0.715451	0.482275	0.262747
	O447	O	0.062026	1.071151	0.959307
	H448	H	0.064413	1.078664	0.950636
	H449	H	0.061692	1.065210	0.953171
	O450	O	-0.211876	0.799052	1.005246
	H451	H	-0.212334	0.815197	1.009822
	H452	H	-0.232483	0.799951	1.003306
	O453	O	0.721875	0.541018	0.716146
	H454	H	0.704487	0.537500	0.721132
	H455	H	0.742720	0.552345	0.740935
	O456	O	0.169319	-0.018689	1.179876
	H457	H	0.165655	-0.028001	1.174379
	H458	H	0.183466	-0.035383	1.186101
	O459	O	0.547246	0.455467	0.568544
	H460	H	0.534674	0.456782	0.560077
	H461	H	0.538644	0.449940	0.574604
	O462	O	0.285078	0.472746	0.708361
	H463	H	0.289809	0.464583	0.717122
	H464	H	0.274471	0.464957	0.710877
	O465	O	0.787907	-0.196987	0.206932
	H466	H	0.796539	-0.188217	0.182284
	H467	H	0.794426	-0.164211	0.193066
	O468	O	0.380368	0.467432	0.348414
	H469	H	0.383084	0.463340	0.339655
	H470	H	0.374958	0.463024	0.332268
	O471	O	0.537166	0.732194	0.721807
	H472	H	0.565659	0.744042	0.730740
	H473	H	0.560991	0.747269	0.738265
	O474	O	0.273589	0.722668	0.470770
	H475	H	0.260261	0.734163	0.463810
	H476	H	0.272849	0.721762	0.457701
	O477	O	0.543113	0.289216	1.279015
	H478	H	0.531890	0.256369	1.263842
	H479	H	0.544962	0.297175	1.304492
	O480	O	0.221792	0.226577	0.024392
	H481	H	0.239440	0.247447	0.021395
	H482	H	0.216534	0.224533	0.022938
	O483	O	0.491186	0.569848	0.670440
	H484	H	0.484556	0.580637	0.674382
	H485	H	0.496468	0.582924	0.661057
	O486	O	1.085175	0.065887	0.786646
	H487	H	1.086638	0.054685	0.775258
	H488	H	1.098706	0.047653	0.801455
	O489	O	0.987478	0.773467	-0.046038
	H490	H	0.982354	0.764153	-0.052710
	H491	H	0.975212	0.778581	-0.068442
	O492	O	-0.226009	0.226363	-0.040078
	H493	H	-0.220980	0.246413	-0.033657
	H494	H	-0.234814	0.243147	-0.057134
	O495	O	-0.170851	1.188020	1.169226
	H496	H	-0.177197	1.192287	1.186220
	H497	H	-0.169113	1.200947	1.184921
	O498	O	0.769455	0.988834	0.969935
	H499	H	0.763871	1.020506	0.954557
	H500	H	0.786259	1.003576	0.961796
	O501	O	0.491901	0.607533	0.542621
	H502	H	0.513496	0.619902	0.548136
	H503	H	0.502025	0.609037	0.532585
