data_Molecule from HDF5

_cell_length_a		16.524099
_cell_length_b		16.489122
_cell_length_c		16.434023
_cell_angle_alpha	89.974852
_cell_angle_beta	90.127106
_cell_angle_gamma	90.020305
_symmetry_space_group_name_H-M	'P 1'
_symmetry_Int_Tables_number		1

loop_
	_symmetry_equiv_pos_as_xyz
	x,y,z

loop_
	_atom_site_label
	_atom_site_type_symbol
	_atom_site_fract_x
	_atom_site_fract_y
	_atom_site_fract_z
	H0	H	0.412138	0.831422	0.713430
	H1	H	0.622075	0.146925	0.713217
	H2	H	0.625030	0.832711	0.267180
	H3	H	0.412314	0.146368	0.270413
	H4	H	0.735573	0.386173	0.833224
	H5	H	0.741727	0.599692	0.147026
	H6	H	0.292515	0.598259	0.832709
	H7	H	0.292988	0.383278	0.147157
	H8	H	0.861216	0.716835	0.380915
	H9	H	0.174371	0.712006	0.597932
	H10	H	0.858277	0.268655	0.594501
	H11	H	0.171642	0.268129	0.384635
	H12	H	0.856391	0.387394	0.708886
	H13	H	0.173620	0.595968	0.714370
	H14	H	0.860632	0.602356	0.263069
	H15	H	0.171908	0.385576	0.269802
	H16	H	0.408201	0.713858	0.833226
	H17	H	0.623498	0.713053	0.149255
	H18	H	0.620340	0.269607	0.832957
	H19	H	0.410028	0.266505	0.147872
	H20	H	0.742474	0.833441	0.381795
	H21	H	0.740163	0.146623	0.598102
	H22	H	0.292346	0.832293	0.600213
	H23	H	0.295435	0.146227	0.385943
	H24	H	0.905319	0.334226	0.217456
	H25	H	0.124304	0.646219	0.215062
	H26	H	0.119036	0.332755	0.770242
	H27	H	0.910766	0.646691	0.768990
	H28	H	0.241774	0.881400	0.334959
	H29	H	0.236827	0.094879	0.649303
	H30	H	0.790004	0.100277	0.334446
	H31	H	0.795840	0.884292	0.647684
	H32	H	0.359925	0.210240	0.886813
	H33	H	0.674261	0.212478	0.097833
	H34	H	0.360524	0.765544	0.100739
	H35	H	0.671697	0.767514	0.887079
	H36	H	0.360500	0.882434	0.215609
	H37	H	0.674599	0.096562	0.215218
	H38	H	0.360016	0.094405	0.769615
	H39	H	0.672081	0.884268	0.770538
	H40	H	0.905700	0.215403	0.333764
	H41	H	0.121226	0.211511	0.648331
	H42	H	0.126023	0.764895	0.334648
	H43	H	0.912918	0.769003	0.648133
	H44	H	0.236716	0.333509	0.886082
	H45	H	0.242134	0.645105	0.101009
	H46	H	0.791228	0.333488	0.099561
	H47	H	0.793429	0.646579	0.884174
	H48	H	0.424543	0.100317	0.574508
	H49	H	0.602658	0.876819	0.584792
	H50	H	0.606747	0.100909	0.405469
	H51	H	0.427556	0.873745	0.397252
	H52	H	0.602027	0.405520	0.102491
	H53	H	0.604803	0.577437	0.878985
	H54	H	0.427505	0.578967	0.103608
	H55	H	0.431918	0.395750	0.877902
	H56	H	0.126771	0.577362	0.404359
	H57	H	0.905537	0.583026	0.571057
	H58	H	0.129793	0.394902	0.577827
	H59	H	0.905315	0.407867	0.405344
	H60	H	0.126315	0.404477	0.577880
	H61	H	0.905880	0.572188	0.580138
	H62	H	0.126036	0.576365	0.403295
	H63	H	0.901994	0.403366	0.400699
	H64	H	0.427173	0.574083	0.101457
	H65	H	0.601639	0.577633	0.880111
	H66	H	0.601759	0.398274	0.104501
	H67	H	0.420274	0.398585	0.875299
	H68	H	0.604502	0.101170	0.401611
	H69	H	0.603761	0.880174	0.574473
	H70	H	0.423807	0.104838	0.584681
	H71	H	0.435862	0.880378	0.405915
	H72	H	0.930942	0.600873	0.078258
	H73	H	0.098186	0.378227	0.083882
	H74	H	0.109565	0.604066	0.905959
	H75	H	0.918685	0.373279	0.898962
	H76	H	0.097933	0.910194	0.598002
	H77	H	0.106565	0.076364	0.378063
	H78	H	0.926863	0.078458	0.603208
	H79	H	0.930801	0.898365	0.376892
	H80	H	0.628073	0.073258	0.904132
	H81	H	0.402355	0.085688	0.080223
	H82	H	0.625387	0.904688	0.076270
	H83	H	0.403774	0.902352	0.904086
	H84	H	0.629351	0.901936	0.083700
	H85	H	0.409182	0.074574	0.073943
	H86	H	0.632343	0.081573	0.895979
	H87	H	0.403388	0.902968	0.903822
	H88	H	0.930309	0.076104	0.601026
	H89	H	0.103184	0.079276	0.378088
	H90	H	0.099649	0.891125	0.605057
	H91	H	0.924594	0.906554	0.377535
	H92	H	0.104349	0.604904	0.895974
	H93	H	0.100109	0.381903	0.071131
	H94	H	0.930250	0.598736	0.073156
	H95	H	0.929555	0.376266	0.896523
	H96	H	0.433007	0.100285	0.581025
	H97	H	0.612658	0.875626	0.579251
	H98	H	0.602555	0.100292	0.405119
	H99	H	0.423497	0.876424	0.409677
	H100	H	0.608217	0.401860	0.105345
	H101	H	0.603261	0.580115	0.878821
	H102	H	0.431396	0.577491	0.100339
	H103	H	0.427938	0.406560	0.879894
	H104	H	0.127056	0.577304	0.402911
	H105	H	0.901734	0.584365	0.584793
	H106	H	0.130266	0.400093	0.587033
	H107	H	0.904132	0.400831	0.407393
	H108	H	0.925891	0.600802	0.076154
	H109	H	0.109565	0.375492	0.077945
	H110	H	0.099055	0.600880	0.904786
	H111	H	0.925442	0.378396	0.906803
	H112	H	0.115357	0.903958	0.606563
	H113	H	0.107191	0.080552	0.376468
	H114	H	0.930684	0.080357	0.602637
	H115	H	0.934481	0.907310	0.380590
	H116	H	0.629964	0.084330	0.907773
	H117	H	0.405660	0.074086	0.087573
	H118	H	0.629312	0.896553	0.076283
	H119	H	0.403425	0.902020	0.903313
	C120	C	0.394694	-0.002292	0.613275
	C121	C	0.638691	0.981297	0.612440
	C122	C	0.638567	-0.002229	0.369813
	C123	C	0.396306	0.980665	0.370991
	C124	C	0.636357	0.369432	-0.000364
	C125	C	0.636972	0.611644	0.983037
	C126	C	0.394762	0.611147	-0.001653
	C127	C	0.394304	0.367733	0.981935
	C128	C	0.024636	0.612232	0.368383
	C129	C	1.008578	0.611589	0.611761
	C130	C	0.024047	0.368066	0.612457
	C131	C	1.006731	0.370238	0.370210
	C132	C	0.893989	0.497944	0.111905
	C133	C	0.136964	0.481637	0.111938
	C134	C	0.136481	0.499260	0.869546
	C135	C	0.893324	0.480362	0.868632
	C136	C	0.138386	0.868013	0.499569
	C137	C	0.137701	0.111105	0.482064
	C138	C	0.895270	0.111403	0.498274
	C139	C	0.896925	0.870149	0.481900
	C140	C	0.525772	0.110798	0.870308
	C141	C	0.509205	0.111682	0.113737
	C142	C	0.524703	0.867790	0.112787
	C143	C	0.506742	0.869123	0.870800
	C144	C	0.393090	0.878733	0.673677
	C145	C	0.641164	0.099477	0.673406
	C146	C	0.642718	0.879875	0.307914
	C147	C	0.393889	0.099037	0.310406
	C148	C	0.696079	0.367122	0.880643
	C149	C	0.699934	0.616401	0.100616
	C150	C	0.333094	0.615361	0.880054
	C151	C	0.333325	0.365074	0.100092
	C152	C	0.907992	0.676178	0.363175
	C153	C	0.127022	0.671871	0.615474
	C154	C	0.905428	0.308623	0.613527
	C155	C	0.124527	0.309025	0.366723
	C156	C	0.904464	0.367965	0.670205
	C157	C	0.126631	0.614056	0.673565
	C158	C	0.907785	0.618921	0.304595
	C159	C	0.124814	0.367113	0.309300
	C160	C	0.390626	0.673151	0.880350
	C161	C	0.640994	0.672960	0.101544
	C162	C	0.638394	0.309641	0.880470
	C163	C	0.391622	0.307304	0.100598
	C164	C	0.701402	0.880410	0.364982
	C165	C	0.699759	0.099350	0.615967
	C166	C	0.333719	0.879315	0.617137
	C167	C	0.335551	0.098972	0.367940
	C168	C	0.888625	0.381184	0.175840
	C169	C	0.141233	0.599189	0.174120
	C170	C	0.138036	0.379927	0.809967
	C171	C	0.891915	0.599470	0.808775
	C172	C	0.200686	0.863841	0.381788
	C173	C	0.197295	0.113247	0.601317
	C174	C	0.831874	0.116540	0.381096
	C175	C	0.835853	0.866077	0.600330
	C176	C	0.406968	0.170188	0.868144
	C177	C	0.626976	0.172711	0.116761
	C178	C	0.407371	0.806399	0.117571
	C179	C	0.624705	0.807945	0.868247
	C180	C	0.407567	0.864556	0.174971
	C181	C	0.627192	0.114698	0.174841
	C182	C	0.407120	0.112833	0.809794
	C183	C	0.624869	0.865821	0.810408
	C184	C	0.889470	0.174276	0.380749
	C185	C	0.139700	0.171448	0.600846
	C186	C	0.142990	0.805972	0.381566
	C187	C	0.894214	0.808959	0.600536
	C188	C	0.196455	0.380361	0.867408
	C189	C	0.200254	0.598448	0.117283
	C190	C	0.831419	0.380758	0.117371
	C191	C	0.833775	0.599362	0.866479
	C192	C	0.420007	0.080150	0.587631
	C193	C	0.613425	0.899010	0.586801
	C194	C	0.611984	0.079472	0.396474
	C195	C	0.421708	0.898396	0.396828
	C196	C	0.611343	0.394655	0.082500
	C197	C	0.610744	0.585786	0.900872
	C198	C	0.421240	0.584530	0.080280
	C199	C	0.419602	0.393062	0.899205
	C200	C	0.105486	0.584751	0.395514
	C201	C	0.926103	0.586879	0.586017
	C202	C	0.107116	0.392694	0.587900
	C203	C	0.925090	0.396595	0.396704
	C204	C	0.921214	0.579037	0.083927
	C205	C	0.110266	0.399819	0.085274
	C206	C	0.111477	0.581683	0.894830
	C207	C	0.917548	0.397590	0.893651
	C208	C	0.112016	0.894171	0.581665
	C209	C	0.112762	0.085984	0.399090
	C210	C	0.921816	0.085472	0.580668
	C211	C	0.922687	0.896510	0.399707
	C212	C	0.608402	0.086599	0.895144
	C213	C	0.427076	0.085689	0.088003
	C214	C	0.606673	0.893656	0.086297
	C215	C	0.424727	0.895144	0.896408
	Zn216	Zn	0.516686	-0.010327	0.741297
	Zn217	Zn	0.517323	-0.010950	0.241228
	Zn218	Zn	0.765055	0.489628	-0.009170
	Zn219	Zn	0.266105	0.490304	-0.010004
	Zn220	Zn	0.017078	0.740079	0.490556
	Zn221	Zn	0.015406	0.239752	0.489953
	Zn222	Zn	0.015571	0.490198	0.740552
	Zn223	Zn	0.015142	0.490327	0.240349
	Zn224	Zn	0.515442	0.739568	-0.008865
	Zn225	Zn	0.517327	0.239823	-0.008975
	Zn226	Zn	0.767482	-0.010040	0.490700
	Zn227	Zn	0.266585	-0.011015	0.491566
	N228	N	0.430222	0.953409	0.671335
	N229	N	0.603842	0.025096	0.671253
	N230	N	0.604463	0.953704	0.310827
	N231	N	0.430723	0.024329	0.311965
	N232	N	0.694928	0.403775	0.955703
	N233	N	0.697640	0.578800	0.026000
	N234	N	0.335410	0.577416	0.954480
	N235	N	0.334908	0.401994	0.025177
	N236	N	0.981585	0.672248	0.402021
	N237	N	0.052539	0.670471	0.577925
	N238	N	0.981018	0.308494	0.578661
	N239	N	0.049991	0.310479	0.403504
	N240	N	0.979516	0.403885	0.669851
	N241	N	0.051920	0.577259	0.671504
	N242	N	0.981259	0.580088	0.307457
	N243	N	0.050515	0.404423	0.311340
	N244	N	0.428202	0.670570	0.954988
	N245	N	0.602719	0.670288	0.027390
	N246	N	0.602378	0.310811	0.955761
	N247	N	0.428665	0.308689	0.025927
	N248	N	0.698949	0.954834	0.402732
	N249	N	0.698486	0.024941	0.578864
	N250	N	0.334621	0.954212	0.580372
	N251	N	0.336777	0.024256	0.404825
	N252	N	0.926685	0.455201	0.172683
	N253	N	0.102518	0.525451	0.170756
	N254	N	0.101766	0.454835	0.811105
	N255	N	0.928146	0.524531	0.809835
	N256	N	0.197766	0.901729	0.456114
	N257	N	0.196543	0.076732	0.526195
	N258	N	0.835460	0.078071	0.455181
	N259	N	0.837511	0.903442	0.525718
	N260	N	0.481503	0.168898	0.905209
	N261	N	0.552459	0.170917	0.079509
	N262	N	0.481319	0.808224	0.079649
	N263	N	0.550132	0.809820	0.905054
	N264	N	0.481829	0.901806	0.172122
	N265	N	0.552767	0.077583	0.173042
	N266	N	0.481916	0.076650	0.810987
	N267	N	0.550671	0.903073	0.811970
	N268	N	0.928757	0.170658	0.454521
	N269	N	0.103067	0.170101	0.525791
	N270	N	0.104866	0.808676	0.455753
	N271	N	0.931100	0.810906	0.525645
	N272	N	0.195914	0.455466	0.903438
	N273	N	0.197650	0.524278	0.079208
	N274	N	0.834655	0.454461	0.078295
	N275	N	0.834475	0.524311	0.902833
	O276	O	0.718056	0.294179	0.477680
	H277	H	0.718158	0.269744	0.477273
	H278	H	0.710289	0.309475	0.484529
	O279	O	0.948538	1.041311	1.191574
	H280	H	0.965589	1.037377	1.193130
	H281	H	0.957027	1.051950	1.175757
	O282	O	0.833165	0.807753	0.170469
	H283	H	0.885689	0.797863	0.182577
	H284	H	0.824236	0.853259	0.173878
	O285	O	0.137019	0.037725	0.792066
	H286	H	0.118624	0.022636	0.794549
	H287	H	0.129412	0.034937	0.779308
	O288	O	-0.005722	-0.222335	0.205089
	H289	H	0.019362	-0.227672	0.177933
	H290	H	-0.002061	-0.254580	0.230780
	O291	O	1.070128	0.794345	-0.205352
	H292	H	1.058691	0.792425	-0.217856
	H293	H	1.056799	0.797065	-0.175559
	O294	O	0.201035	0.850331	-0.190299
	H295	H	0.210203	0.861394	-0.181454
	H296	H	0.154073	0.845450	-0.205736
	O297	O	0.358314	0.331980	0.641314
	H298	H	0.363001	0.309634	0.662114
	H299	H	0.351898	0.359260	0.644712
	O300	O	0.731921	0.707979	0.517584
	H301	H	0.756065	0.711896	0.509836
	H302	H	0.737457	0.708452	0.546537
	O303	O	0.808190	0.188359	-0.013674
	H304	H	0.801067	0.202734	-0.018039
	H305	H	0.837470	0.202648	0.008014
	O306	O	0.225905	0.956889	1.195719
	H307	H	0.225445	0.959753	1.211881
	H308	H	0.226593	0.968905	1.210316
	O309	O	0.486892	0.690609	0.292269
	H310	H	0.493979	0.712293	0.275023
	H311	H	0.510418	0.694125	0.300822
	O312	O	0.410407	0.483135	0.526613
	H313	H	0.415345	0.471691	0.514148
	H314	H	0.415614	0.490297	0.523199
	O315	O	0.308217	-0.305544	1.470783
	H316	H	0.321651	-0.320979	1.462412
	H317	H	0.282623	-0.283366	1.476762
	O318	O	-0.511571	0.288266	-0.306032
	H319	H	-0.516357	0.297185	-0.295425
	H320	H	-0.499478	0.281055	-0.305329
	O321	O	0.697867	0.315545	0.734352
	H322	H	0.669502	0.349592	0.719692
	H323	H	0.718212	0.331054	0.749063
	O324	O	0.485554	0.397811	0.269365
	H325	H	0.495920	0.388238	0.268351
	H326	H	0.485786	0.392541	0.265541
	O327	O	1.040552	0.160038	0.830391
	H328	H	1.036382	0.158065	0.806369
	H329	H	1.028541	0.164257	0.823675
	O330	O	0.205994	0.143228	-0.009277
	H331	H	0.206831	0.141178	-0.015283
	H332	H	0.204771	0.147655	-0.017550
	O333	O	0.821278	1.102890	0.796476
	H334	H	0.809723	1.090573	0.784481
	H335	H	0.816507	1.121616	0.804006
	O336	O	1.225611	-0.227255	0.974352
	H337	H	1.240289	-0.232749	0.960068
	H338	H	1.239679	-0.225391	0.980596
	O339	O	0.301400	0.457869	0.699494
	H340	H	0.295990	0.463595	0.702946
	H341	H	0.284386	0.474398	0.696085
	O342	O	0.667345	0.578624	0.351522
	H343	H	0.673089	0.548766	0.356402
	H344	H	0.676112	0.562580	0.355172
	O345	O	0.044970	0.093468	-0.005810
	H346	H	0.056080	0.096378	-0.004020
	H347	H	0.062472	0.098143	-0.020387
	O348	O	0.733216	0.470667	0.272500
	H349	H	0.765140	0.463693	0.244550
	H350	H	0.729612	0.483781	0.289118
	O351	O	1.095582	1.177278	-0.054750
	H352	H	1.088332	1.172415	-0.068426
	H353	H	1.093635	1.174452	-0.059861
	O354	O	0.736355	0.502825	0.480431
	H355	H	0.731592	0.509289	0.509217
	H356	H	0.735977	0.487033	0.490419
	O357	O	0.928962	1.007571	1.043385
	H358	H	0.949790	1.003772	1.058927
	H359	H	0.922552	1.035102	1.023894
	O360	O	0.070420	0.767974	1.059361
	H361	H	0.067296	0.777824	1.041373
	H362	H	0.096925	0.772860	1.052725
	O363	O	0.526845	0.323067	0.463541
	H364	H	0.528131	0.303171	0.469920
	H365	H	0.516702	0.330321	0.457997
	O366	O	0.914931	0.019970	0.821801
	H367	H	0.895225	0.032673	0.809744
	H368	H	0.901533	0.010495	0.819760
	O369	O	0.436514	0.547691	0.687489
	H370	H	0.430847	0.537378	0.690903
	H371	H	0.428476	0.549106	0.678885
	O372	O	0.259382	0.110629	0.764151
	H373	H	0.259499	0.130668	0.772482
	H374	H	0.277063	0.112226	0.768317
	O375	O	-0.116305	0.964642	0.845519
	H376	H	-0.122871	0.960806	0.856409
	H377	H	-0.109497	0.964714	0.855842
	O378	O	1.082727	1.017312	-0.001698
	H379	H	1.085640	1.013438	0.023091
	H380	H	1.084002	1.026437	0.005300
	O381	O	1.448037	-0.360048	0.643438
	H382	H	1.456364	-0.346692	0.642745
	H383	H	1.441786	-0.362507	0.614298
	O384	O	-0.039345	0.141172	1.029996
	H385	H	-0.023737	0.136957	1.021314
	H386	H	-0.028599	0.154843	1.048686
	O387	O	-0.497952	1.497755	1.436897
	H388	H	-0.476847	1.492330	1.420212
	H389	H	-0.494391	1.497424	1.449904
	O390	O	0.317032	0.319568	1.285506
	H391	H	0.327761	0.333369	1.295839
	H392	H	0.324945	0.344590	1.267148
	O393	O	0.098017	1.105001	-0.208266
	H394	H	0.091868	1.101110	-0.198067
	H395	H	0.097714	1.074011	-0.203075
	O396	O	0.728073	0.522500	0.702949
	H397	H	0.744913	0.542830	0.719230
	H398	H	0.734118	0.550678	0.708979
	O399	O	0.557553	0.672072	0.419064
	H400	H	0.564153	0.654062	0.409218
	H401	H	0.586590	0.678987	0.430335
	O402	O	0.200618	0.134040	1.188246
	H403	H	0.208881	0.139776	1.201013
	H404	H	0.205156	0.143850	1.165977
	O405	O	0.563048	0.578605	-0.610643
	H406	H	0.546606	0.595626	-0.605438
	H407	H	0.555454	0.581218	-0.608603
	O408	O	0.803794	0.968707	1.202036
	H409	H	0.800012	0.982636	1.211596
	H410	H	0.809869	0.976605	1.219727
	O411	O	0.559763	0.499726	0.651661
	H412	H	0.549990	0.511144	0.643551
	H413	H	0.539330	0.491987	0.655786
	O414	O	0.316290	0.392521	0.403279
	H415	H	0.333060	0.395985	0.385557
	H416	H	0.312776	0.386985	0.431735
	O417	O	0.701697	0.383923	0.606715
	H418	H	0.686933	0.403412	0.611336
	H419	H	0.687855	0.390856	0.605579
	O420	O	0.302930	0.278676	0.509498
	H421	H	0.297084	0.268574	0.542045
	H422	H	0.288599	0.280303	0.522278
	O423	O	-0.039418	0.773458	-0.116756
	H424	H	-0.028750	0.784188	-0.092035
	H425	H	-0.065973	0.763984	-0.109719
	O426	O	0.848031	0.819939	0.795575
	H427	H	0.854418	0.841264	0.810341
	H428	H	0.862086	0.836678	0.818001
	O429	O	0.493050	0.339273	0.546661
	H430	H	0.500100	0.358563	0.535809
	H431	H	0.468953	0.341732	0.561429
	O432	O	0.036492	0.208194	1.209690
	H433	H	0.042261	0.237004	1.243166
	H434	H	0.061506	0.190038	1.205945
	O435	O	-0.191309	-0.009260	0.009900
	H436	H	-0.188573	0.000602	0.041003
	H437	H	-0.192126	-0.012981	0.020496
	O438	O	0.804811	-0.220781	0.011754
	H439	H	0.779579	-0.233373	0.025448
	H440	H	0.803148	-0.214206	0.045440
	O441	O	0.329801	0.671783	0.307314
	H442	H	0.380554	0.683894	0.294972
	H443	H	0.324656	0.655801	0.335292
	O444	O	0.067736	0.936294	1.208135
	H445	H	0.075045	0.936493	1.201044
	H446	H	0.062480	0.925651	1.212746
	O447	O	0.526374	0.286967	0.316877
	H448	H	0.521442	0.260981	0.297459
	H449	H	0.533535	0.293175	0.329666
	O450	O	0.457443	0.705970	0.554908
	H451	H	0.443721	0.697759	0.540416
	H452	H	0.465815	0.715062	0.543279
	O453	O	0.226755	0.917264	0.063881
	H454	H	0.226830	0.908575	0.054393
	H455	H	0.227219	0.927544	0.091114
	O456	O	0.019465	1.022758	-0.061777
	H457	H	0.032224	1.017767	-0.063639
	H458	H	0.012833	1.023740	-0.069673
	O459	O	0.303104	0.510991	0.276643
	H460	H	0.272065	0.515434	0.246643
	H461	H	0.330026	0.527958	0.280271
	O462	O	0.717924	0.691500	0.690970
	H463	H	0.743821	0.723544	0.724090
	H464	H	0.681648	0.699424	0.679110
	O465	O	0.700241	0.310275	0.313098
	H466	H	0.676744	0.299678	0.327372
	H467	H	0.711442	0.346866	0.313740
