data_Molecule from HDF5

_cell_length_a		16.310441
_cell_length_b		16.151666
_cell_length_c		16.229276
_cell_angle_alpha	89.989349
_cell_angle_beta	90.284116
_cell_angle_gamma	90.052153
_symmetry_space_group_name_H-M	'P 1'
_symmetry_Int_Tables_number		1

loop_
	_symmetry_equiv_pos_as_xyz
	x,y,z

loop_
	_atom_site_label
	_atom_site_type_symbol
	_atom_site_fract_x
	_atom_site_fract_y
	_atom_site_fract_z
	H0	H	0.406205	0.830761	0.715813
	H1	H	0.602143	0.160867	0.716239
	H2	H	0.598573	0.830520	0.291564
	H3	H	0.404984	0.160198	0.289111
	H4	H	0.715603	0.395393	0.838433
	H5	H	0.719762	0.595220	0.165893
	H6	H	0.286292	0.595835	0.839650
	H7	H	0.289170	0.395469	0.167239
	H8	H	0.838879	0.707275	0.404217
	H9	H	0.167346	0.710248	0.601051
	H10	H	0.839775	0.282676	0.598018
	H11	H	0.167130	0.282270	0.405648
	H12	H	0.840037	0.395830	0.715857
	H13	H	0.166073	0.595955	0.720061
	H14	H	0.840763	0.593865	0.286538
	H15	H	0.167258	0.396998	0.288907
	H16	H	0.405780	0.707590	0.837861
	H17	H	0.600548	0.707586	0.167424
	H18	H	0.599660	0.281498	0.839236
	H19	H	0.406707	0.281931	0.167109
	H20	H	0.716582	0.831422	0.403524
	H21	H	0.718261	0.159798	0.602669
	H22	H	0.287962	0.831709	0.602183
	H23	H	0.288089	0.159878	0.401803
	H24	H	0.905505	0.330084	0.214735
	H25	H	0.102471	0.659511	0.215592
	H26	H	0.099641	0.329776	0.790662
	H27	H	0.904002	0.660184	0.787631
	H28	H	0.217948	0.895326	0.338335
	H29	H	0.219704	0.097028	0.664927
	H30	H	0.786027	0.095759	0.338896
	H31	H	0.789377	0.895501	0.666555
	H32	H	0.340200	0.210749	0.904297
	H33	H	0.667312	0.209136	0.101774
	H34	H	0.339480	0.781701	0.100259
	H35	H	0.666394	0.781470	0.905537
	H36	H	0.339888	0.897237	0.216702
	H37	H	0.666420	0.094421	0.219224
	H38	H	0.340507	0.096456	0.786516
	H39	H	0.666599	0.895777	0.788618
	H40	H	0.904883	0.207959	0.337123
	H41	H	0.100671	0.207644	0.666479
	H42	H	0.099565	0.783154	0.336573
	H43	H	0.906027	0.780553	0.665468
	H44	H	0.216582	0.331009	0.903501
	H45	H	0.218527	0.658972	0.103524
	H46	H	0.789530	0.330975	0.100036
	H47	H	0.788541	0.659676	0.902520
	H48	H	0.407773	0.114173	0.594763
	H49	H	0.587609	0.878530	0.602341
	H50	H	0.597233	0.116528	0.401480
	H51	H	0.419646	0.879486	0.406082
	H52	H	0.598750	0.405286	0.120543
	H53	H	0.594985	0.589875	0.886034
	H54	H	0.413291	0.595181	0.121143
	H55	H	0.409890	0.400686	0.885634
	H56	H	0.123593	0.597632	0.406661
	H57	H	0.889216	0.588937	0.588305
	H58	H	0.119268	0.404156	0.597276
	H59	H	0.886127	0.396084	0.412041
	H60	H	0.121746	0.401990	0.598504
	H61	H	0.888571	0.582203	0.596814
	H62	H	0.117115	0.587024	0.416878
	H63	H	0.888815	0.409306	0.409352
	H64	H	0.402129	0.587719	0.122155
	H65	H	0.598018	0.589274	0.884225
	H66	H	0.597004	0.403297	0.119303
	H67	H	0.405651	0.404630	0.885465
	H68	H	0.587170	0.110190	0.414836
	H69	H	0.595680	0.881177	0.585105
	H70	H	0.412462	0.113213	0.597516
	H71	H	0.406870	0.880262	0.420633
	H72	H	0.908447	0.613192	0.092113
	H73	H	0.101990	0.375914	0.092917
	H74	H	0.090351	0.612699	0.906527
	H75	H	0.909044	0.376285	0.907453
	H76	H	0.105959	0.906630	0.620335
	H77	H	0.099360	0.087696	0.383077
	H78	H	0.900299	0.092167	0.623276
	H79	H	0.903961	0.902207	0.383073
	H80	H	0.617363	0.087940	0.917439
	H81	H	0.387264	0.089194	0.093918
	H82	H	0.616571	0.908282	0.092771
	H83	H	0.387489	0.903654	0.910682
	H84	H	0.621780	0.904703	0.106166
	H85	H	0.387186	0.087282	0.095234
	H86	H	0.619985	0.082800	0.906247
	H87	H	0.386759	0.904653	0.907288
	H88	H	0.911513	0.078523	0.615463
	H89	H	0.094438	0.085997	0.385933
	H90	H	0.089415	0.911063	0.614176
	H91	H	0.908636	0.906695	0.385929
	H92	H	0.094416	0.611100	0.916577
	H93	H	0.096231	0.374837	0.101256
	H94	H	0.910240	0.614018	0.097534
	H95	H	0.910024	0.377853	0.909396
	H96	H	0.411626	0.112306	0.591414
	H97	H	0.605974	0.873356	0.600215
	H98	H	0.604259	0.114686	0.416929
	H99	H	0.401288	0.873207	0.403834
	H100	H	0.598773	0.402958	0.121127
	H101	H	0.595792	0.586301	0.885019
	H102	H	0.413947	0.582167	0.116808
	H103	H	0.410934	0.406148	0.887291
	H104	H	0.121659	0.582234	0.401686
	H105	H	0.884614	0.592706	0.597521
	H106	H	0.120512	0.401716	0.595442
	H107	H	0.884173	0.401311	0.399651
	H108	H	0.914088	0.612188	0.092964
	H109	H	0.092327	0.378549	0.092756
	H110	H	0.100435	0.615185	0.908851
	H111	H	0.907892	0.377462	0.909250
	H112	H	0.092314	0.894306	0.620349
	H113	H	0.094356	0.091315	0.384230
	H114	H	0.918087	0.096118	0.619764
	H115	H	0.910522	0.899732	0.383953
	H116	H	0.622151	0.094723	0.907997
	H117	H	0.386681	0.089647	0.096743
	H118	H	0.621742	0.893808	0.095218
	H119	H	0.386156	0.900924	0.907953
	C120	C	0.381759	0.004500	0.623804
	C121	C	0.625200	0.986769	0.624401
	C122	C	0.623841	0.004685	0.382239
	C123	C	0.381149	0.986763	0.381354
	C124	C	0.625338	0.374273	0.011810
	C125	C	0.625431	0.617424	0.993491
	C126	C	0.380915	0.617445	0.011555
	C127	C	0.381514	0.374472	0.994810
	C128	C	0.012212	0.617173	0.379771
	C129	C	0.995173	0.617495	0.623949
	C130	C	0.012187	0.374020	0.624192
	C131	C	0.994558	0.373659	0.379481
	C132	C	0.882537	0.504052	0.122813
	C133	C	0.124810	0.486028	0.123581
	C134	C	0.123913	0.503986	0.881595
	C135	C	0.880777	0.486291	0.880022
	C136	C	0.124344	0.874513	0.509989
	C137	C	0.124973	0.117306	0.492950
	C138	C	0.881235	0.117146	0.510807
	C139	C	0.880808	0.874108	0.493278
	C140	C	0.512197	0.117883	0.881056
	C141	C	0.495169	0.117156	0.124467
	C142	C	0.511931	0.873817	0.125478
	C143	C	0.494829	0.874214	0.880830
	C144	C	0.384593	0.880230	0.678799
	C145	C	0.622829	0.111294	0.679211
	C146	C	0.619792	0.880126	0.328241
	C147	C	0.383857	0.110932	0.326155
	C148	C	0.678766	0.375683	0.887858
	C149	C	0.681497	0.615360	0.116954
	C150	C	0.324819	0.615843	0.888484
	C151	C	0.326683	0.375530	0.117998
	C152	C	0.888456	0.670746	0.383135
	C153	C	0.118247	0.672636	0.621884
	C154	C	0.888801	0.319327	0.619891
	C155	C	0.118275	0.319641	0.384145
	C156	C	0.888734	0.376261	0.677913
	C157	C	0.117645	0.615816	0.680944
	C158	C	0.889261	0.614371	0.324556
	C159	C	0.118287	0.376569	0.326167
	C160	C	0.384268	0.671593	0.887601
	C161	C	0.622097	0.671101	0.117877
	C162	C	0.620933	0.319192	0.887998
	C163	C	0.385388	0.319317	0.118135
	C164	C	0.678348	0.880404	0.383863
	C165	C	0.680480	0.110669	0.622804
	C166	C	0.326274	0.880639	0.622021
	C167	C	0.326011	0.110821	0.382324
	C168	C	0.885081	0.379604	0.177424
	C169	C	0.122193	0.610211	0.178062
	C170	C	0.120788	0.379644	0.827181
	C171	C	0.883626	0.610658	0.825250
	C172	C	0.179651	0.875720	0.386937
	C173	C	0.181096	0.116162	0.616116
	C174	C	0.824780	0.115556	0.387527
	C175	C	0.826458	0.875505	0.616951
	C176	C	0.389141	0.173104	0.883405
	C177	C	0.618431	0.171568	0.122173
	C178	C	0.388441	0.819262	0.121426
	C179	C	0.617705	0.819091	0.884572
	C180	C	0.388694	0.876589	0.179189
	C181	C	0.617861	0.114645	0.180721
	C182	C	0.389238	0.116535	0.824876
	C183	C	0.617707	0.876081	0.826313
	C184	C	0.884194	0.171294	0.386683
	C185	C	0.121935	0.171322	0.617015
	C186	C	0.121049	0.819685	0.386343
	C187	C	0.884673	0.818673	0.616670
	C188	C	0.178816	0.380130	0.883451
	C189	C	0.180390	0.609785	0.122423
	C190	C	0.827638	0.379984	0.120303
	C191	C	0.826014	0.610415	0.882169
	C192	C	0.403897	0.090803	0.601218
	C193	C	0.602991	0.900241	0.602381
	C194	C	0.602514	0.091513	0.404576
	C195	C	0.402874	0.900049	0.403721
	C196	C	0.604388	0.396950	0.098029
	C197	C	0.602973	0.595141	0.907494
	C198	C	0.403285	0.595044	0.097777
	C199	C	0.402695	0.397252	0.908332
	C200	C	0.098503	0.595411	0.401916
	C201	C	0.909528	0.594662	0.600968
	C202	C	0.098080	0.396122	0.603204
	C203	C	0.908665	0.395682	0.400592
	C204	C	0.904628	0.590856	0.100838
	C205	C	0.103109	0.398789	0.102081
	C206	C	0.101682	0.590699	0.904102
	C207	C	0.902658	0.399688	0.902041
	C208	C	0.102357	0.897364	0.596141
	C209	C	0.102679	0.094984	0.406688
	C210	C	0.903300	0.095288	0.597163
	C211	C	0.901611	0.896352	0.406487
	C212	C	0.597840	0.095186	0.903882
	C213	C	0.409128	0.095281	0.101922
	C214	C	0.597890	0.895626	0.104244
	C215	C	0.408964	0.896542	0.902162
	Zn216	Zn	0.503909	-0.003992	0.751885
	Zn217	Zn	0.502744	-0.004166	0.254073
	Zn218	Zn	0.753695	0.494985	0.002134
	Zn219	Zn	0.252053	0.495108	0.003108
	Zn220	Zn	0.003419	0.746042	0.500952
	Zn221	Zn	0.003610	0.245821	0.501884
	Zn222	Zn	0.003099	0.495243	0.753136
	Zn223	Zn	0.004034	0.495427	0.251259
	Zn224	Zn	0.503064	0.745814	0.003169
	Zn225	Zn	0.504183	0.246670	0.003380
	Zn226	Zn	0.752586	-0.004275	0.502560
	Zn227	Zn	0.253074	-0.003997	0.501733
	N228	N	0.418308	0.958271	0.680135
	N229	N	0.588887	0.033218	0.680323
	N230	N	0.586809	0.958347	0.326983
	N231	N	0.417318	0.032876	0.325264
	N232	N	0.681440	0.409423	0.965616
	N233	N	0.683904	0.582845	0.038545
	N234	N	0.322392	0.583083	0.966584
	N235	N	0.324143	0.409088	0.040037
	N236	N	0.965939	0.672424	0.416876
	N237	N	0.041167	0.673806	0.587255
	N238	N	0.966450	0.317716	0.587224
	N239	N	0.040636	0.317824	0.416668
	N240	N	0.966465	0.409104	0.681080
	N241	N	0.040049	0.582050	0.682130
	N242	N	0.967229	0.582087	0.322161
	N243	N	0.040494	0.409527	0.323123
	N244	N	0.418466	0.672690	0.965312
	N245	N	0.587939	0.672626	0.040255
	N246	N	0.588356	0.318295	0.965852
	N247	N	0.418799	0.318528	0.040428
	N248	N	0.680898	0.958864	0.416998
	N249	N	0.682117	0.032392	0.589550
	N250	N	0.324472	0.958775	0.588430
	N251	N	0.324097	0.032577	0.415869
	N252	N	0.918698	0.457818	0.178924
	N253	N	0.088635	0.532169	0.179039
	N254	N	0.087217	0.457794	0.826035
	N255	N	0.916727	0.532400	0.823494
	N256	N	0.181955	0.909224	0.465015
	N257	N	0.183139	0.083241	0.537941
	N258	N	0.823019	0.082603	0.465719
	N259	N	0.824292	0.909540	0.539096
	N260	N	0.466486	0.174055	0.917638
	N261	N	0.541106	0.173262	0.087959
	N262	N	0.466137	0.817339	0.088786
	N263	N	0.540277	0.817928	0.917599
	N264	N	0.466315	0.909909	0.181700
	N265	N	0.540169	0.081582	0.182173
	N266	N	0.466738	0.082865	0.823107
	N267	N	0.540194	0.909742	0.823878
	N268	N	0.918728	0.172418	0.464223
	N269	N	0.087613	0.172144	0.539417
	N270	N	0.087155	0.819185	0.463709
	N271	N	0.917455	0.817519	0.538744
	N272	N	0.181158	0.458593	0.916334
	N273	N	0.181823	0.531500	0.089044
	N274	N	0.825863	0.458386	0.087276
	N275	N	0.824181	0.532092	0.915640
	O276	O	1.019463	0.980297	-0.090717
	H277	H	1.018170	0.984437	-0.093784
	H278	H	1.020341	0.976770	-0.085224
	O279	O	0.013280	0.017400	-0.073090
	H280	H	-0.003336	0.027972	-0.074588
	H281	H	0.007826	0.011522	-0.080653
	O282	O	-0.006471	-0.049545	0.973150
	H283	H	0.002009	-0.049881	0.977113
	H284	H	-0.006296	-0.036065	0.974019
	O285	O	0.482611	0.436432	0.579785
	H286	H	0.478090	0.428570	0.581774
	H287	H	0.476340	0.433132	0.581893
	O288	O	0.522357	0.568440	0.581411
	H289	H	0.510161	0.569254	0.585656
	H290	H	0.524380	0.576617	0.578459
	O291	O	0.529826	0.566883	0.558838
	H292	H	0.521479	0.566560	0.567114
	H293	H	0.532275	0.564139	0.559824
	O294	O	0.030114	-0.055796	-0.034047
	H295	H	0.035658	-0.061953	-0.034867
	H296	H	0.032483	-0.050106	-0.031484
	O297	O	0.508626	0.474654	0.576679
	H298	H	0.506489	0.470762	0.573161
	H299	H	0.517100	0.471412	0.569442
	O300	O	0.023076	0.918342	0.984787
	H301	H	0.020669	0.919409	0.982648
	H302	H	0.023734	0.922161	0.989626
	O303	O	0.518662	0.495697	0.522563
	H304	H	0.523799	0.501120	0.518902
	H305	H	0.526457	0.505553	0.528836
	O306	O	-0.011777	-0.020474	0.989460
	H307	H	-0.012009	-0.028022	0.982331
	H308	H	-0.007742	-0.013953	0.989658
	O309	O	1.011162	0.962454	0.978294
	H310	H	1.016673	0.957465	0.976722
	H311	H	1.017342	0.957202	0.982374
	O312	O	0.527685	0.493663	0.561908
	H313	H	0.530929	0.485791	0.567580
	H314	H	0.533504	0.501113	0.571992
	O315	O	-0.031628	1.019504	0.008043
	H316	H	-0.029618	1.009776	0.010484
	H317	H	-0.028627	1.023016	0.015443
	O318	O	-0.026874	1.036529	-0.035672
	H319	H	-0.029973	1.031384	-0.035491
	H320	H	-0.030110	1.038618	-0.037541
	O321	O	1.066563	0.962662	-0.000448
	H322	H	1.066090	0.956015	-0.001093
	H323	H	1.070094	0.959691	-0.006771
