data_Molecule from HDF5

_cell_length_a		16.290643
_cell_length_b		16.033301
_cell_length_c		16.258719
_cell_angle_alpha	90.225708
_cell_angle_beta	90.557750
_cell_angle_gamma	90.029859
_symmetry_space_group_name_H-M	'P 1'
_symmetry_Int_Tables_number		1

loop_
	_symmetry_equiv_pos_as_xyz
	x,y,z

loop_
	_atom_site_label
	_atom_site_type_symbol
	_atom_site_fract_x
	_atom_site_fract_y
	_atom_site_fract_z
	H0	H	0.421401	0.830972	0.710268
	H1	H	0.617870	0.163515	0.714684
	H2	H	0.615208	0.832197	0.286080
	H3	H	0.417465	0.163468	0.286308
	H4	H	0.731838	0.395790	0.835667
	H5	H	0.735410	0.599570	0.162719
	H6	H	0.299104	0.597185	0.836753
	H7	H	0.304573	0.398293	0.163613
	H8	H	0.853582	0.709073	0.400905
	H9	H	0.182213	0.710844	0.598254
	H10	H	0.853559	0.284644	0.594681
	H11	H	0.182639	0.283257	0.403670
	H12	H	0.854512	0.396727	0.713079
	H13	H	0.180898	0.598399	0.717831
	H14	H	0.855600	0.597865	0.281832
	H15	H	0.181726	0.396660	0.285995
	H16	H	0.419974	0.707648	0.834469
	H17	H	0.615467	0.710336	0.163681
	H18	H	0.610706	0.285361	0.833309
	H19	H	0.424056	0.286786	0.165091
	H20	H	0.729633	0.832019	0.400244
	H21	H	0.732417	0.163328	0.601180
	H22	H	0.304845	0.831254	0.596308
	H23	H	0.301795	0.162249	0.400252
	H24	H	0.921582	0.331497	0.210831
	H25	H	0.118557	0.662845	0.215576
	H26	H	0.114107	0.330577	0.787421
	H27	H	0.918093	0.662759	0.785920
	H28	H	0.231957	0.893969	0.336101
	H29	H	0.236077	0.099433	0.661867
	H30	H	0.799250	0.097900	0.337671
	H31	H	0.802286	0.897049	0.663566
	H32	H	0.352544	0.209494	0.900799
	H33	H	0.681870	0.209939	0.096631
	H34	H	0.352896	0.784826	0.093449
	H35	H	0.682253	0.783484	0.902211
	H36	H	0.353295	0.898399	0.211289
	H37	H	0.679319	0.100087	0.217767
	H38	H	0.354291	0.097706	0.781846
	H39	H	0.681113	0.897261	0.784892
	H40	H	0.918611	0.208980	0.335004
	H41	H	0.116334	0.210442	0.664335
	H42	H	0.111841	0.783932	0.334791
	H43	H	0.922725	0.785732	0.664982
	H44	H	0.228664	0.330970	0.901905
	H45	H	0.232153	0.663156	0.100068
	H46	H	0.804073	0.331634	0.098221
	H47	H	0.802995	0.663058	0.900406
	H48	H	0.426450	0.114423	0.587668
	H49	H	0.618079	0.875945	0.594495
	H50	H	0.614436	0.117573	0.408408
	H51	H	0.425786	0.880264	0.410635
	H52	H	0.608278	0.407518	0.114583
	H53	H	0.609111	0.584746	0.883685
	H54	H	0.424596	0.588335	0.116488
	H55	H	0.422962	0.407546	0.884189
	H56	H	0.134034	0.584541	0.406162
	H57	H	0.896125	0.605294	0.595374
	H58	H	0.131433	0.411929	0.589753
	H59	H	0.903588	0.415315	0.400247
	H60	H	0.136543	0.406680	0.605926
	H61	H	0.905670	0.585949	0.579680
	H62	H	0.137330	0.593860	0.403507
	H63	H	0.897142	0.396471	0.396109
	H64	H	0.426019	0.592893	0.117573
	H65	H	0.608156	0.593090	0.881342
	H66	H	0.612553	0.398863	0.118353
	H67	H	0.422277	0.399652	0.881705
	H68	H	0.604551	0.117052	0.403091
	H69	H	0.604013	0.879019	0.598150
	H70	H	0.422146	0.117694	0.591771
	H71	H	0.417561	0.875265	0.403858
	H72	H	0.924497	0.617113	0.090878
	H73	H	0.108366	0.378145	0.095293
	H74	H	0.110537	0.618994	0.899344
	H75	H	0.926497	0.379445	0.908710
	H76	H	0.104173	0.900435	0.615847
	H77	H	0.102251	0.096090	0.382422
	H78	H	0.909877	0.090398	0.621461
	H79	H	0.914414	0.901668	0.380408
	H80	H	0.633889	0.094565	0.912161
	H81	H	0.396768	0.093446	0.097164
	H82	H	0.635168	0.901706	0.094163
	H83	H	0.402457	0.905165	0.905304
	H84	H	0.631876	0.908380	0.091032
	H85	H	0.400091	0.094387	0.088353
	H86	H	0.632648	0.084017	0.906396
	H87	H	0.401305	0.905932	0.900961
	H88	H	0.930277	0.078434	0.612138
	H89	H	0.119905	0.092382	0.378800
	H90	H	0.120626	0.901686	0.621065
	H91	H	0.921927	0.911329	0.384718
	H92	H	0.099215	0.612344	0.911927
	H93	H	0.109771	0.379466	0.088875
	H94	H	0.926592	0.615831	0.093968
	H95	H	0.919217	0.376828	0.906740
	H96	H	0.429190	0.116518	0.593924
	H97	H	0.609219	0.881382	0.582856
	H98	H	0.605247	0.114902	0.414251
	H99	H	0.428084	0.877736	0.399263
	H100	H	0.617622	0.407365	0.116828
	H101	H	0.615981	0.589228	0.880281
	H102	H	0.421919	0.591874	0.118477
	H103	H	0.416457	0.405234	0.880242
	H104	H	0.133799	0.592226	0.412989
	H105	H	0.900249	0.581421	0.605272
	H106	H	0.136599	0.394195	0.592353
	H107	H	0.903182	0.400695	0.414336
	H108	H	0.927700	0.615128	0.090444
	H109	H	0.115377	0.377219	0.093923
	H110	H	0.116979	0.615845	0.916478
	H111	H	0.924799	0.377527	0.902664
	H112	H	0.111730	0.914846	0.613485
	H113	H	0.108341	0.078819	0.385085
	H114	H	0.931371	0.103435	0.618656
	H115	H	0.926247	0.898840	0.382534
	H116	H	0.637082	0.094757	0.900096
	H117	H	0.401205	0.086452	0.092539
	H118	H	0.635074	0.908038	0.097501
	H119	H	0.400137	0.902476	0.902976
	C120	C	0.397506	0.006373	0.619556
	C121	C	0.639352	0.988987	0.621281
	C122	C	0.637306	0.006939	0.379047
	C123	C	0.395047	0.987543	0.376856
	C124	C	0.639379	0.375632	0.007475
	C125	C	0.640307	0.619020	0.990103
	C126	C	0.395144	0.619216	0.008747
	C127	C	0.394450	0.375826	0.990841
	C128	C	0.026900	0.618962	0.377696
	C129	C	1.009095	0.619932	0.622752
	C130	C	0.026315	0.375773	0.621790
	C131	C	1.009729	0.374920	0.377050
	C132	C	0.897953	0.506130	0.119799
	C133	C	0.140334	0.488049	0.122292
	C134	C	0.137199	0.506044	0.880153
	C135	C	0.895351	0.488144	0.877815
	C136	C	0.138860	0.875646	0.508037
	C137	C	0.139289	0.118766	0.490666
	C138	C	0.895041	0.119304	0.508922
	C139	C	0.894172	0.875605	0.491303
	C140	C	0.525987	0.119442	0.877094
	C141	C	0.508017	0.120193	0.121437
	C142	C	0.525811	0.876497	0.120802
	C143	C	0.509313	0.875312	0.876036
	C144	C	0.400269	0.880837	0.673548
	C145	C	0.637577	0.113832	0.676954
	C146	C	0.634913	0.881822	0.323835
	C147	C	0.397018	0.113337	0.322978
	C148	C	0.693569	0.376747	0.884288
	C149	C	0.696520	0.618541	0.113780
	C150	C	0.337972	0.617178	0.885641
	C151	C	0.342040	0.378517	0.114801
	C152	C	0.903123	0.672885	0.379986
	C153	C	0.132723	0.674296	0.619699
	C154	C	0.902882	0.321523	0.616536
	C155	C	0.133213	0.320313	0.382101
	C156	C	0.903201	0.377427	0.675422
	C157	C	0.132027	0.618231	0.679154
	C158	C	0.904073	0.617640	0.320679
	C159	C	0.133043	0.376701	0.323397
	C160	C	0.397955	0.672155	0.884409
	C161	C	0.636805	0.673416	0.114357
	C162	C	0.633669	0.321313	0.883279
	C163	C	0.401254	0.322941	0.115433
	C164	C	0.692127	0.881852	0.380569
	C165	C	0.694582	0.113685	0.620375
	C166	C	0.342455	0.881022	0.617023
	C167	C	0.339633	0.112779	0.379646
	C168	C	0.900682	0.381150	0.174074
	C169	C	0.138516	0.613221	0.177623
	C170	C	0.134238	0.380450	0.825085
	C171	C	0.897698	0.613193	0.823118
	C172	C	0.193332	0.875796	0.384825
	C173	C	0.196702	0.118484	0.613424
	C174	C	0.838377	0.117352	0.385889
	C175	C	0.840232	0.877379	0.614689
	C176	C	0.401984	0.172862	0.880013
	C177	C	0.632067	0.173861	0.118252
	C178	C	0.402170	0.821722	0.115264
	C179	C	0.632831	0.820618	0.880877
	C180	C	0.402236	0.878339	0.173838
	C181	C	0.630804	0.119350	0.178698
	C182	C	0.402903	0.117533	0.820519
	C183	C	0.632555	0.877477	0.822595
	C184	C	0.897836	0.172577	0.384721
	C185	C	0.136787	0.173442	0.614701
	C186	C	0.133683	0.820797	0.384171
	C187	C	0.899778	0.821662	0.615295
	C188	C	0.191276	0.380656	0.881983
	C189	C	0.195037	0.613232	0.120471
	C190	C	0.842329	0.381327	0.117796
	C191	C	0.840634	0.613245	0.880176
	C192	C	0.419388	0.093551	0.597666
	C193	C	0.616939	0.901220	0.598517
	C194	C	0.614804	0.093948	0.402013
	C195	C	0.417076	0.900439	0.398331
	C196	C	0.618986	0.397958	0.094064
	C197	C	0.617663	0.595961	0.904064
	C198	C	0.417636	0.597484	0.095088
	C199	C	0.414667	0.397658	0.904483
	C200	C	0.112851	0.596655	0.400581
	C201	C	0.922860	0.597454	0.600066
	C202	C	0.112568	0.397830	0.601988
	C203	C	0.923557	0.397465	0.397302
	C204	C	0.920022	0.593477	0.098039
	C205	C	0.117887	0.400952	0.099509
	C206	C	0.115312	0.593156	0.902492
	C207	C	0.917138	0.400596	0.899512
	C208	C	0.118369	0.898900	0.594407
	C209	C	0.116787	0.095722	0.404442
	C210	C	0.917177	0.097310	0.595058
	C211	C	0.914624	0.897568	0.405026
	C212	C	0.612251	0.097490	0.899379
	C213	C	0.421714	0.097990	0.099104
	C214	C	0.611851	0.899364	0.100397
	C215	C	0.423364	0.897924	0.896840
	Zn216	Zn	0.518374	-0.002239	0.747953
	Zn217	Zn	0.516642	-0.002222	0.250398
	Zn218	Zn	0.768491	0.497226	-0.000611
	Zn219	Zn	0.266118	0.497022	0.000017
	Zn220	Zn	0.017136	0.747500	0.499581
	Zn221	Zn	0.017769	0.246923	0.499566
	Zn222	Zn	0.017410	0.497318	0.751290
	Zn223	Zn	0.018882	0.497643	0.249274
	Zn224	Zn	0.517815	0.747092	-0.001122
	Zn225	Zn	0.516472	0.247266	-0.000936
	Zn226	Zn	0.765564	-0.002323	0.500094
	Zn227	Zn	0.268067	-0.003201	0.498995
	N228	N	0.433765	0.959796	0.675124
	N229	N	0.603964	0.035094	0.677668
	N230	N	0.601436	0.960602	0.322790
	N231	N	0.430701	0.034648	0.321017
	N232	N	0.697306	0.409435	0.962687
	N233	N	0.698745	0.585270	0.035560
	N234	N	0.336121	0.584993	0.964003
	N235	N	0.337699	0.410532	0.036350
	N236	N	0.980340	0.673779	0.414789
	N237	N	0.055161	0.675411	0.585257
	N238	N	0.980478	0.320303	0.583911
	N239	N	0.055555	0.319152	0.414599
	N240	N	0.980989	0.410706	0.678764
	N241	N	0.054131	0.585121	0.680922
	N242	N	0.982039	0.584536	0.319323
	N243	N	0.055156	0.410124	0.320114
	N244	N	0.432846	0.673511	0.961763
	N245	N	0.602443	0.673771	0.036540
	N246	N	0.600661	0.320480	0.960979
	N247	N	0.433072	0.320793	0.037361
	N248	N	0.693494	0.960616	0.414491
	N249	N	0.695578	0.034793	0.586542
	N250	N	0.340687	0.959927	0.584013
	N251	N	0.338340	0.033809	0.412695
	N252	N	0.934529	0.459902	0.175614
	N253	N	0.105200	0.534350	0.179007
	N254	N	0.101307	0.459409	0.823769
	N255	N	0.930914	0.534295	0.821488
	N256	N	0.196609	0.909255	0.462953
	N257	N	0.198309	0.084962	0.535258
	N258	N	0.836168	0.085031	0.464023
	N259	N	0.836597	0.910054	0.536544
	N260	N	0.479563	0.174201	0.914246
	N261	N	0.554724	0.174489	0.083419
	N262	N	0.480003	0.820324	0.083154
	N263	N	0.555124	0.819239	0.913463
	N264	N	0.480135	0.911676	0.177477
	N265	N	0.552694	0.086482	0.180859
	N266	N	0.481037	0.085053	0.818597
	N267	N	0.554757	0.910733	0.819336
	N268	N	0.932382	0.173898	0.462224
	N269	N	0.102114	0.173680	0.537311
	N270	N	0.100623	0.820547	0.461816
	N271	N	0.932671	0.820333	0.537626
	N272	N	0.193314	0.459619	0.915518
	N273	N	0.196219	0.534465	0.086779
	N274	N	0.840572	0.460185	0.084848
	N275	N	0.838929	0.534370	0.913213
	O276	O	-0.468863	0.556434	-0.447859
	H277	H	-0.471897	0.555249	-0.446531
	H278	H	-0.483572	0.551882	-0.432315
	O279	O	-0.032034	0.965428	0.936580
	H280	H	-0.033264	0.970236	0.943707
	H281	H	-0.024862	0.962586	0.944757
	O282	O	0.565403	0.482194	0.532012
	H283	H	0.574304	0.486021	0.525872
	H284	H	0.562762	0.488133	0.532013
	O285	O	0.568428	-0.515446	1.528822
	H286	H	0.570365	-0.514599	1.532965
	H287	H	0.565030	-0.513296	1.522522
	O288	O	0.991904	-0.034576	-0.031959
	H289	H	0.984358	-0.038310	-0.032543
	H290	H	0.991969	-0.038889	-0.039670
	O291	O	0.524176	0.529089	0.542087
	H292	H	0.530159	0.528062	0.544845
	H293	H	0.523313	0.523499	0.538158
	O294	O	1.019272	0.033025	1.112769
	H295	H	1.022425	0.039081	1.111172
	H296	H	1.006890	0.032464	1.118875
	O297	O	-0.069561	-0.087831	0.049830
	H298	H	-0.075377	-0.102884	0.051669
	H299	H	-0.052932	-0.090378	0.054707
	O300	O	0.528572	0.391656	0.476352
	H301	H	0.530775	0.393100	0.472918
	H302	H	0.529375	0.384408	0.472978
	O303	O	0.559711	0.606095	0.473172
	H304	H	0.562589	0.608905	0.473820
	H305	H	0.559777	0.618890	0.476677
	O306	O	0.996772	-0.012751	-0.030094
	H307	H	0.992639	-0.016841	-0.035858
	H308	H	1.005602	-0.005237	-0.027389
	O309	O	0.028807	-0.021112	1.017470
	H310	H	0.027588	-0.011442	1.019251
	H311	H	0.024989	-0.027019	1.025736
	O312	O	1.009677	1.067599	1.029161
	H313	H	1.002187	1.057555	1.027151
	H314	H	0.993510	1.075172	1.024527
	O315	O	0.555871	0.512859	0.531010
	H316	H	0.556974	0.501304	0.537015
	H317	H	0.557135	0.517154	0.531708
	O318	O	-0.024607	0.966659	-0.009892
	H319	H	-0.027894	0.957029	-0.004474
	H320	H	-0.025940	0.965762	-0.003713
	O321	O	0.056192	1.012799	1.017477
	H322	H	0.054753	1.005373	1.010638
	H323	H	0.052751	1.017281	1.018249
	O324	O	0.549407	0.460506	0.500128
	H325	H	0.550054	0.449320	0.492024
	H326	H	0.552834	0.467579	0.504446
	O327	O	0.091851	0.970773	0.015523
	H328	H	0.103908	0.970996	0.009708
	H329	H	0.091845	0.981298	0.012623
	O330	O	0.556022	0.491417	0.438410
	H331	H	0.559799	0.494660	0.437918
	H332	H	0.552371	0.497787	0.435546
	O333	O	0.499425	0.518904	0.523716
	H334	H	0.498976	0.514767	0.520685
	H335	H	0.501230	0.519407	0.521206
	O336	O	0.542244	0.381445	0.477831
	H337	H	0.546139	0.388250	0.478157
	H338	H	0.542286	0.378757	0.476810
	O339	O	1.131546	1.022224	-0.046074
	H340	H	1.141695	1.026921	-0.042550
	H341	H	1.118915	1.017485	-0.048938
	O342	O	0.518312	0.482647	0.474927
	H343	H	0.517796	0.476335	0.471364
	H344	H	0.504500	0.478597	0.477739
	O345	O	0.465817	0.531116	0.371922
	H346	H	0.461198	0.536051	0.370900
	H347	H	0.474552	0.521175	0.371654
	O348	O	0.020922	-0.062716	0.009295
	H349	H	0.036368	-0.056078	0.015323
	H350	H	0.027093	-0.065560	0.007132
	O351	O	0.097099	1.045114	1.003542
	H352	H	0.090165	1.039783	0.997435
	H353	H	0.105180	1.050361	0.997946
	O354	O	0.404500	0.428315	0.531711
	H355	H	0.402558	0.432413	0.525829
	H356	H	0.408733	0.430698	0.530753
	O357	O	0.032006	0.996242	1.000625
	H358	H	0.034518	1.004209	1.001920
	H359	H	0.022948	1.003431	0.990319
