data_Molecule from HDF5

_cell_length_a		16.142880
_cell_length_b		16.087252
_cell_length_c		16.403363
_cell_angle_alpha	89.920223
_cell_angle_beta	89.690651
_cell_angle_gamma	89.715858
_symmetry_space_group_name_H-M	'P 1'
_symmetry_Int_Tables_number		1

loop_
	_symmetry_equiv_pos_as_xyz
	x,y,z

loop_
	_atom_site_label
	_atom_site_type_symbol
	_atom_site_fract_x
	_atom_site_fract_y
	_atom_site_fract_z
	H0	H	0.406248	0.831924	0.706821
	H1	H	0.607229	0.161504	0.706179
	H2	H	0.608512	0.832239	0.275971
	H3	H	0.405326	0.161608	0.275897
	H4	H	0.724353	0.397258	0.828935
	H5	H	0.721269	0.595420	0.154302
	H6	H	0.292951	0.598569	0.827854
	H7	H	0.292113	0.400974	0.153470
	H8	H	0.839966	0.709478	0.394806
	H9	H	0.172382	0.708266	0.584242
	H10	H	0.839673	0.288141	0.584215
	H11	H	0.172090	0.284106	0.391961
	H12	H	0.843541	0.394586	0.707979
	H13	H	0.171613	0.597235	0.703571
	H14	H	0.842998	0.599824	0.272804
	H15	H	0.170701	0.395568	0.272936
	H16	H	0.409596	0.713305	0.827844
	H17	H	0.602266	0.710483	0.154911
	H18	H	0.607753	0.280938	0.829058
	H19	H	0.409318	0.285148	0.154662
	H20	H	0.720028	0.831737	0.393540
	H21	H	0.715295	0.164723	0.584147
	H22	H	0.293470	0.831332	0.589305
	H23	H	0.295300	0.163443	0.395275
	H24	H	0.906999	0.332756	0.205223
	H25	H	0.108407	0.661138	0.205743
	H26	H	0.110077	0.331488	0.775039
	H27	H	0.904776	0.660692	0.774034
	H28	H	0.224558	0.897405	0.327941
	H29	H	0.219502	0.095333	0.653306
	H30	H	0.792466	0.096085	0.326245
	H31	H	0.791443	0.899951	0.652716
	H32	H	0.341571	0.211073	0.896704
	H33	H	0.672885	0.207801	0.088243
	H34	H	0.340252	0.788097	0.086995
	H35	H	0.672360	0.784332	0.893689
	H36	H	0.343336	0.895486	0.209025
	H37	H	0.670609	0.096516	0.206361
	H38	H	0.342601	0.100717	0.775453
	H39	H	0.670705	0.894956	0.774359
	H40	H	0.908874	0.212321	0.325767
	H41	H	0.102267	0.210911	0.653271
	H42	H	0.106116	0.782544	0.326229
	H43	H	0.906444	0.782808	0.652667
	H44	H	0.223180	0.331857	0.892025
	H45	H	0.215165	0.664378	0.083834
	H46	H	0.796493	0.330857	0.087851
	H47	H	0.794864	0.661879	0.893994
	H48	H	0.415196	0.116906	0.591318
	H49	H	0.594131	0.883627	0.577264
	H50	H	0.609800	0.120548	0.393774
	H51	H	0.420212	0.874894	0.381350
	H52	H	0.602759	0.400486	0.109389
	H53	H	0.601428	0.584469	0.877415
	H54	H	0.419981	0.599300	0.106704
	H55	H	0.414844	0.398341	0.872757
	H56	H	0.123057	0.589591	0.399737
	H57	H	0.888544	0.586147	0.588934
	H58	H	0.127215	0.404266	0.587143
	H59	H	0.887182	0.409737	0.388484
	H60	H	0.125001	0.400510	0.581657
	H61	H	0.887217	0.593979	0.583559
	H62	H	0.123278	0.584043	0.393957
	H63	H	0.886527	0.398466	0.397055
	H64	H	0.399804	0.596886	0.111491
	H65	H	0.596450	0.593538	0.876547
	H66	H	0.603736	0.403811	0.108184
	H67	H	0.410489	0.410273	0.874691
	H68	H	0.588908	0.115831	0.387358
	H69	H	0.606865	0.876744	0.581943
	H70	H	0.420101	0.111412	0.580099
	H71	H	0.429160	0.885715	0.408799
	H72	H	0.903938	0.618208	0.080422
	H73	H	0.101207	0.381301	0.072241
	H74	H	0.091820	0.612932	0.895539
	H75	H	0.911651	0.378892	0.903336
	H76	H	0.101894	0.897284	0.607535
	H77	H	0.105859	0.090818	0.372102
	H78	H	0.917281	0.086828	0.601957
	H79	H	0.921154	0.897844	0.374137
	H80	H	0.622174	0.080457	0.895549
	H81	H	0.386998	0.089809	0.092105
	H82	H	0.624244	0.909154	0.086242
	H83	H	0.386733	0.909536	0.890250
	H84	H	0.627020	0.901467	0.087755
	H85	H	0.388030	0.094496	0.081979
	H86	H	0.626639	0.090819	0.891046
	H87	H	0.387299	0.898652	0.900434
	H88	H	0.912160	0.101794	0.607857
	H89	H	0.100175	0.085970	0.375584
	H90	H	0.102588	0.909616	0.604743
	H91	H	0.904102	0.900248	0.369828
	H92	H	0.103847	0.615563	0.899709
	H93	H	0.108478	0.373984	0.089089
	H94	H	0.920118	0.617097	0.092907
	H95	H	0.914938	0.374346	0.889934
	H96	H	0.407576	0.115902	0.581703
	H97	H	0.595485	0.878211	0.592615
	H98	H	0.594708	0.111337	0.407958
	H99	H	0.399732	0.875880	0.405614
	H100	H	0.600207	0.402654	0.107167
	H101	H	0.606205	0.592495	0.873940
	H102	H	0.411397	0.582044	0.103918
	H103	H	0.422647	0.406588	0.877523
	H104	H	0.126074	0.590788	0.392463
	H105	H	0.890743	0.585898	0.579576
	H106	H	0.123532	0.407091	0.581311
	H107	H	0.891500	0.411064	0.401898
	H108	H	0.921702	0.610636	0.074179
	H109	H	0.089510	0.380322	0.087444
	H110	H	0.101311	0.618052	0.887414
	H111	H	0.925559	0.381539	0.898097
	H112	H	0.092116	0.904061	0.603614
	H113	H	0.097647	0.094209	0.374437
	H114	H	0.901398	0.089243	0.607037
	H115	H	0.913759	0.913137	0.376195
	H116	H	0.624095	0.090044	0.902046
	H117	H	0.390965	0.083871	0.083992
	H118	H	0.624135	0.903107	0.080185
	H119	H	0.392096	0.912005	0.903114
	C120	C	0.385173	0.005785	0.613027
	C121	C	0.627355	0.988749	0.611677
	C122	C	0.627652	0.006214	0.368595
	C123	C	0.386371	0.988114	0.370075
	C124	C	0.630754	0.373773	0.000126
	C125	C	0.629218	0.619014	0.983288
	C126	C	0.383603	0.621287	-0.000714
	C127	C	0.386308	0.376872	0.982651
	C128	C	0.014966	0.618506	0.367694
	C129	C	0.997929	0.617737	0.611458
	C130	C	0.015796	0.375560	0.611613
	C131	C	0.997881	0.376406	0.367772
	C132	C	0.886428	0.506024	0.111321
	C133	C	0.127621	0.488423	0.110508
	C134	C	0.129377	0.506013	0.866752
	C135	C	0.887049	0.487380	0.868897
	C136	C	0.128667	0.874790	0.497677
	C137	C	0.128701	0.119184	0.481800
	C138	C	0.883295	0.120425	0.497472
	C139	C	0.884018	0.875323	0.481375
	C140	C	0.515510	0.118223	0.869048
	C141	C	0.497705	0.117754	0.113587
	C142	C	0.515744	0.876369	0.112904
	C143	C	0.497857	0.876377	0.869375
	C144	C	0.386422	0.881194	0.668478
	C145	C	0.626317	0.112862	0.667351
	C146	C	0.627335	0.881579	0.313921
	C147	C	0.386484	0.112482	0.314576
	C148	C	0.686349	0.376585	0.877628
	C149	C	0.683706	0.616159	0.105689
	C150	C	0.330118	0.619060	0.876693
	C151	C	0.330139	0.379984	0.105115
	C152	C	0.890052	0.673286	0.372352
	C153	C	0.122707	0.672058	0.606612
	C154	C	0.890080	0.323439	0.606728
	C155	C	0.122560	0.321497	0.371135
	C156	C	0.891985	0.376335	0.668197
	C157	C	0.122140	0.616685	0.665918
	C158	C	0.891421	0.618631	0.312197
	C159	C	0.121852	0.376710	0.311941
	C160	C	0.388487	0.675856	0.876637
	C161	C	0.624244	0.673244	0.106114
	C162	C	0.628237	0.318970	0.877562
	C163	C	0.388336	0.322288	0.105754
	C164	C	0.682825	0.881174	0.372447
	C165	C	0.680031	0.114436	0.606640
	C166	C	0.330684	0.880904	0.609907
	C167	C	0.331483	0.113288	0.373603
	C168	C	0.887920	0.381852	0.166968
	C169	C	0.126775	0.612411	0.166520
	C170	C	0.128862	0.381008	0.812860
	C171	C	0.886487	0.611555	0.812953
	C172	C	0.185754	0.877064	0.376164
	C173	C	0.182152	0.116024	0.604528
	C174	C	0.829434	0.117103	0.374913
	C175	C	0.828913	0.878911	0.603952
	C176	C	0.390933	0.173780	0.874349
	C177	C	0.622690	0.171408	0.109441
	C178	C	0.390308	0.823762	0.108793
	C179	C	0.622468	0.821202	0.872484
	C180	C	0.391724	0.877318	0.169155
	C181	C	0.621766	0.116063	0.168261
	C182	C	0.391756	0.119027	0.813968
	C183	C	0.621687	0.875993	0.813046
	C184	C	0.887663	0.174347	0.374640
	C185	C	0.123709	0.173619	0.604413
	C186	C	0.126743	0.819902	0.375311
	C187	C	0.886013	0.820375	0.603818
	C188	C	0.185294	0.381193	0.870951
	C189	C	0.179692	0.614196	0.105619
	C190	C	0.832955	0.380913	0.108538
	C191	C	0.831658	0.612263	0.872363
	C192	C	0.407599	0.092444	0.590896
	C193	C	0.605422	0.902114	0.590287
	C194	C	0.604527	0.093382	0.390016
	C195	C	0.409597	0.901226	0.392204
	C196	C	0.608668	0.395769	0.086005
	C197	C	0.607772	0.596582	0.897949
	C198	C	0.404213	0.599292	0.085113
	C199	C	0.409213	0.398712	0.897120
	C200	C	0.101594	0.595147	0.388974
	C201	C	0.911405	0.595249	0.590241
	C202	C	0.102484	0.397388	0.589856
	C203	C	0.910905	0.399611	0.389494
	C204	C	0.908612	0.592884	0.089075
	C205	C	0.106087	0.401284	0.089334
	C206	C	0.106011	0.592986	0.887916
	C207	C	0.910425	0.400743	0.890738
	C208	C	0.105576	0.896947	0.583236
	C209	C	0.107570	0.096820	0.396115
	C210	C	0.903978	0.098918	0.583314
	C211	C	0.906395	0.897357	0.395456
	C212	C	0.601856	0.094262	0.890109
	C213	C	0.411175	0.095818	0.092375
	C214	C	0.602629	0.898086	0.091088
	C215	C	0.411200	0.899837	0.891354
	Zn216	Zn	0.506719	-0.003286	0.740610
	Zn217	Zn	0.506668	-0.003353	0.241111
	Zn218	Zn	0.759324	0.496543	-0.008744
	Zn219	Zn	0.255939	0.498086	-0.010288
	Zn220	Zn	0.006010	0.745659	0.489379
	Zn221	Zn	0.006128	0.248640	0.489352
	Zn222	Zn	0.007705	0.496363	0.739912
	Zn223	Zn	0.006828	0.497453	0.239165
	Zn224	Zn	0.506292	0.749130	-0.008602
	Zn225	Zn	0.507374	0.245730	-0.008074
	Zn226	Zn	0.754828	-0.002309	0.489652
	Zn227	Zn	0.258239	-0.002942	0.490600
	N228	N	0.419752	0.959637	0.670524
	N229	N	0.594030	0.033992	0.670378
	N230	N	0.593932	0.960423	0.311300
	N231	N	0.419886	0.033623	0.312275
	N232	N	0.688001	0.409817	0.954920
	N233	N	0.686771	0.583142	0.028324
	N234	N	0.327016	0.585530	0.953848
	N235	N	0.328779	0.413024	0.027691
	N236	N	0.967995	0.673194	0.406093
	N237	N	0.044599	0.672887	0.573288
	N238	N	0.967874	0.322625	0.572315
	N239	N	0.044397	0.321201	0.405041
	N240	N	0.971136	0.407978	0.671361
	N241	N	0.043622	0.583670	0.668899
	N242	N	0.970104	0.585395	0.309135
	N243	N	0.043347	0.410458	0.309942
	N244	N	0.420872	0.677368	0.954018
	N245	N	0.591222	0.675366	0.028943
	N246	N	0.594478	0.317042	0.954808
	N247	N	0.422645	0.320204	0.028649
	N248	N	0.682807	0.959484	0.406028
	N249	N	0.680947	0.036321	0.572653
	N250	N	0.329514	0.959397	0.576312
	N251	N	0.331350	0.034973	0.407532
	N252	N	0.920654	0.460815	0.168840
	N253	N	0.094790	0.533316	0.169488
	N254	N	0.095069	0.459660	0.810009
	N255	N	0.920202	0.533031	0.810811
	N256	N	0.187013	0.910335	0.453350
	N257	N	0.185312	0.083022	0.527311
	N258	N	0.826772	0.083982	0.452349
	N259	N	0.827619	0.912347	0.526698
	N260	N	0.468869	0.173469	0.907982
	N261	N	0.544629	0.172611	0.075831
	N262	N	0.468256	0.823156	0.074337
	N263	N	0.544568	0.821286	0.906847
	N264	N	0.470586	0.909235	0.171915
	N265	N	0.543247	0.083517	0.170936
	N266	N	0.470290	0.085354	0.810494
	N267	N	0.543152	0.909666	0.811031
	N268	N	0.920263	0.176672	0.451874
	N269	N	0.091222	0.175558	0.526948
	N270	N	0.091917	0.818525	0.452142
	N271	N	0.919576	0.818051	0.526601
	N272	N	0.185844	0.459898	0.903743
	N273	N	0.180541	0.536079	0.071487
	N274	N	0.832296	0.458933	0.074469
	N275	N	0.831543	0.533934	0.906386
	O276	O	1.005928	0.965260	0.011793
	H277	H	1.009958	0.963051	0.009340
	H278	H	1.009508	0.967224	0.012429
	O279	O	-0.048874	0.050178	0.954532
	H280	H	-0.046672	0.064471	0.946174
	H281	H	-0.055478	0.040229	0.965450
	O282	O	0.063295	-0.041148	-0.076799
	H283	H	0.059790	-0.046344	-0.075234
	H284	H	0.064781	-0.030683	-0.082419
	O285	O	0.517384	0.464881	0.619273
	H286	H	0.532728	0.460168	0.627769
	H287	H	0.511392	0.457855	0.609054
	O288	O	0.040915	0.048705	-0.023990
	H289	H	0.035461	0.041365	-0.025342
	H290	H	0.045246	0.042780	-0.021254
	O291	O	0.016416	0.983455	-0.066587
	H292	H	0.010488	0.978987	-0.064475
	H293	H	0.019322	0.981061	-0.064970
	O294	O	-0.059658	1.015999	-0.088926
	H295	H	-0.065900	1.022614	-0.080027
	H296	H	-0.063057	1.020112	-0.086176
	O297	O	0.563219	0.512600	0.493430
	H298	H	0.567544	0.513792	0.502441
	H299	H	0.555672	0.505915	0.495548
	O300	O	0.464039	0.426576	0.497204
	H301	H	0.470775	0.429440	0.495565
	H302	H	0.460095	0.430114	0.495142
	O303	O	0.973362	-0.068557	0.990922
	H304	H	0.981982	-0.067264	0.986524
	H305	H	0.972413	-0.072039	0.992457
	O306	O	-0.049906	0.921515	0.975400
	H307	H	-0.050206	0.913838	0.970508
	H308	H	-0.046740	0.927117	0.973945
	O309	O	-0.025565	1.071958	1.020426
	H310	H	-0.031918	1.074923	1.023632
	H311	H	-0.033567	1.074037	1.024454
	O312	O	-0.032878	0.030492	1.053178
	H313	H	-0.029027	0.022265	1.036691
	H314	H	-0.035827	0.029367	1.049901
	O315	O	0.454889	0.500205	0.538612
	H316	H	0.447391	0.499455	0.552391
	H317	H	0.464168	0.498272	0.538362
	O318	O	0.069294	-0.046599	0.910185
	H319	H	0.074947	-0.046752	0.910124
	H320	H	0.075855	-0.042254	0.912689
	O321	O	-0.022319	0.919732	0.936914
	H322	H	-0.020103	0.924895	0.942535
	H323	H	-0.019271	0.911222	0.922120
	O324	O	1.000985	0.014800	1.034258
	H325	H	0.995344	0.015707	1.030425
	H326	H	0.999675	0.009647	1.030866
	O327	O	1.004643	0.924275	0.976268
	H328	H	1.010634	0.919515	0.976064
	H329	H	1.002731	0.933797	0.980558
	O330	O	0.507400	0.520255	0.577091
	H331	H	0.503797	0.507395	0.581696
	H332	H	0.506675	0.511670	0.571490
	O333	O	0.506433	0.535070	0.504405
	H334	H	0.511692	0.535144	0.503163
	H335	H	0.505060	0.547516	0.500200
	O336	O	0.540723	0.460005	0.545550
	H337	H	0.537979	0.460663	0.550229
	H338	H	0.538582	0.458637	0.547731
	O339	O	0.495161	0.461204	0.559844
	H340	H	0.484276	0.462500	0.553083
	H341	H	0.498174	0.464948	0.572016
	O342	O	0.495042	0.451152	0.623454
	H343	H	0.493675	0.447708	0.623523
	H344	H	0.504778	0.436946	0.617645
	O345	O	0.507519	0.462900	0.492587
	H346	H	0.500771	0.471383	0.485237
	H347	H	0.508188	0.466358	0.498169
