data_Molecule from HDF5

_cell_length_a		16.213131
_cell_length_b		16.299413
_cell_length_c		16.252139
_cell_angle_alpha	90.117483
_cell_angle_beta	90.193364
_cell_angle_gamma	90.232829
_symmetry_space_group_name_H-M	'P 1'
_symmetry_Int_Tables_number		1

loop_
	_symmetry_equiv_pos_as_xyz
	x,y,z

loop_
	_atom_site_label
	_atom_site_type_symbol
	_atom_site_fract_x
	_atom_site_fract_y
	_atom_site_fract_z
	H0	H	0.398931	0.836551	0.708372
	H1	H	0.598281	0.163589	0.710100
	H2	H	0.594801	0.835719	0.279937
	H3	H	0.400914	0.163739	0.279900
	H4	H	0.710475	0.401647	0.830248
	H5	H	0.711040	0.598155	0.159190
	H6	H	0.283211	0.595662	0.831362
	H7	H	0.283831	0.401762	0.160342
	H8	H	0.832725	0.711782	0.399175
	H9	H	0.161539	0.715822	0.595106
	H10	H	0.833731	0.284647	0.594829
	H11	H	0.161300	0.286247	0.396900
	H12	H	0.833019	0.401694	0.708754
	H13	H	0.162501	0.598784	0.710017
	H14	H	0.833957	0.599063	0.281833
	H15	H	0.162114	0.404378	0.283494
	H16	H	0.398035	0.712523	0.831166
	H17	H	0.596281	0.715155	0.158279
	H18	H	0.594261	0.285561	0.830864
	H19	H	0.397854	0.284149	0.158790
	H20	H	0.709746	0.835046	0.397413
	H21	H	0.713167	0.163459	0.593496
	H22	H	0.283621	0.836438	0.591123
	H23	H	0.285264	0.164325	0.397537
	H24	H	0.899057	0.337201	0.210418
	H25	H	0.097261	0.663957	0.211064
	H26	H	0.095232	0.337769	0.781032
	H27	H	0.901098	0.663741	0.782851
	H28	H	0.208867	0.902661	0.330473
	H29	H	0.215231	0.100604	0.658852
	H30	H	0.783870	0.096719	0.330754
	H31	H	0.784395	0.902899	0.659555
	H32	H	0.333602	0.213456	0.893880
	H33	H	0.661457	0.215526	0.094033
	H34	H	0.333204	0.786230	0.091050
	H35	H	0.662268	0.785935	0.897065
	H36	H	0.332928	0.901682	0.206333
	H37	H	0.662409	0.097518	0.207657
	H38	H	0.333911	0.096659	0.780161
	H39	H	0.662951	0.902665	0.781816
	H40	H	0.896979	0.215886	0.332001
	H41	H	0.098497	0.216243	0.659194
	H42	H	0.095385	0.784635	0.332064
	H43	H	0.898896	0.786778	0.659775
	H44	H	0.208705	0.335926	0.898904
	H45	H	0.212192	0.663951	0.095138
	H46	H	0.782371	0.336721	0.093527
	H47	H	0.785611	0.664641	0.899300
	H48	H	0.404912	0.116422	0.586649
	H49	H	0.598243	0.881700	0.587379
	H50	H	0.588323	0.116353	0.396770
	H51	H	0.391335	0.882813	0.409870
	H52	H	0.597654	0.414975	0.111914
	H53	H	0.577095	0.589147	0.881894
	H54	H	0.396083	0.587542	0.113530
	H55	H	0.402766	0.395943	0.875227
	H56	H	0.115940	0.589079	0.397186
	H57	H	0.879765	0.590133	0.593729
	H58	H	0.114382	0.398875	0.578602
	H59	H	0.881414	0.403672	0.408333
	H60	H	0.109194	0.421581	0.585645
	H61	H	0.877962	0.599659	0.592443
	H62	H	0.117555	0.602621	0.404038
	H63	H	0.882365	0.413984	0.403452
	H64	H	0.414916	0.590627	0.108444
	H65	H	0.592763	0.608464	0.872526
	H66	H	0.579778	0.408854	0.107880
	H67	H	0.393273	0.413530	0.877781
	H68	H	0.588469	0.113931	0.405186
	H69	H	0.587668	0.882441	0.595336
	H70	H	0.405559	0.116919	0.589290
	H71	H	0.400565	0.878923	0.385408
	H72	H	0.907377	0.613859	0.082861
	H73	H	0.088388	0.382629	0.096773
	H74	H	0.094197	0.616931	0.905020
	H75	H	0.905357	0.382056	0.895229
	H76	H	0.087724	0.908353	0.611070
	H77	H	0.089036	0.086217	0.381267
	H78	H	0.907523	0.085438	0.609379
	H79	H	0.906985	0.903863	0.378096
	H80	H	0.615047	0.096286	0.902834
	H81	H	0.377121	0.094150	0.094293
	H82	H	0.617734	0.903111	0.090942
	H83	H	0.384244	0.915931	0.903089
	H84	H	0.614238	0.906454	0.082791
	H85	H	0.380711	0.098603	0.082116
	H86	H	0.614285	0.092916	0.905092
	H87	H	0.377288	0.903711	0.889325
	H88	H	0.910845	0.099398	0.611691
	H89	H	0.083838	0.100402	0.378870
	H90	H	0.092352	0.906354	0.613082
	H91	H	0.899794	0.901669	0.375858
	H92	H	0.091909	0.618536	0.900573
	H93	H	0.085084	0.386407	0.084854
	H94	H	0.895514	0.619876	0.089982
	H95	H	0.908661	0.386802	0.906927
	H96	H	0.407610	0.116165	0.587458
	H97	H	0.586438	0.886389	0.582683
	H98	H	0.595804	0.117290	0.401624
	H99	H	0.416908	0.888395	0.403605
	H100	H	0.592542	0.397311	0.115227
	H101	H	0.602810	0.584588	0.876795
	H102	H	0.404198	0.604672	0.115808
	H103	H	0.413052	0.411266	0.882981
	H104	H	0.111176	0.590596	0.411636
	H105	H	0.881577	0.593598	0.585305
	H106	H	0.119517	0.405970	0.601497
	H107	H	0.878082	0.405267	0.397234
	H108	H	0.908639	0.618343	0.097202
	H109	H	0.097094	0.382726	0.087409
	H110	H	0.088699	0.615839	0.904077
	H111	H	0.896749	0.381900	0.904440
	H112	H	0.092081	0.911490	0.611470
	H113	H	0.098153	0.097300	0.375534
	H114	H	0.897729	0.094410	0.614135
	H115	H	0.901666	0.908398	0.379201
	H116	H	0.615472	0.092509	0.900682
	H117	H	0.382997	0.086102	0.085544
	H118	H	0.614430	0.911075	0.090404
	H119	H	0.380296	0.896775	0.907964
	C120	C	0.376984	0.008480	0.616118
	C121	C	0.619730	0.991703	0.616958
	C122	C	0.618743	0.007583	0.373084
	C123	C	0.375424	0.991596	0.371553
	C124	C	0.618264	0.378906	0.003037
	C125	C	0.618995	0.621966	0.985884
	C126	C	0.376383	0.621234	0.004012
	C127	C	0.374867	0.378039	0.987138
	C128	C	0.006477	0.622274	0.375287
	C129	C	0.988894	0.622568	0.618398
	C130	C	0.005734	0.379314	0.617297
	C131	C	0.989134	0.379494	0.374844
	C132	C	0.875051	0.509101	0.118074
	C133	C	0.118983	0.492228	0.117967
	C134	C	0.119302	0.509097	0.874666
	C135	C	0.875662	0.491684	0.874146
	C136	C	0.118193	0.879563	0.503533
	C137	C	0.119936	0.123034	0.487054
	C138	C	0.876463	0.121296	0.503536
	C139	C	0.875265	0.877622	0.486616
	C140	C	0.506232	0.121387	0.873311
	C141	C	0.489103	0.121537	0.115889
	C142	C	0.506286	0.878644	0.115271
	C143	C	0.489615	0.877970	0.872745
	C144	C	0.379035	0.885224	0.670343
	C145	C	0.618267	0.114557	0.672232
	C146	C	0.615599	0.884376	0.317930
	C147	C	0.379198	0.114923	0.317217
	C148	C	0.672609	0.381654	0.879293
	C149	C	0.673627	0.619173	0.109837
	C150	C	0.320856	0.616869	0.880423
	C151	C	0.321207	0.381090	0.111115
	C152	C	0.882120	0.675327	0.378019
	C153	C	0.112560	0.677999	0.615747
	C154	C	0.882496	0.323024	0.615047
	C155	C	0.112459	0.324425	0.376932
	C156	C	0.882219	0.381303	0.671600
	C157	C	0.113146	0.620011	0.672838
	C158	C	0.882750	0.619074	0.319916
	C159	C	0.112893	0.382725	0.320246
	C160	C	0.377859	0.675021	0.880230
	C161	C	0.616746	0.677438	0.109404
	C162	C	0.614916	0.323906	0.879504
	C163	C	0.377681	0.322613	0.110246
	C164	C	0.672261	0.883986	0.376805
	C165	C	0.675139	0.114676	0.613919
	C166	C	0.321468	0.885217	0.612456
	C167	C	0.321853	0.115237	0.375723
	C168	C	0.877948	0.386053	0.172561
	C169	C	0.117251	0.615193	0.173098
	C170	C	0.115976	0.386046	0.819170
	C171	C	0.879546	0.615003	0.819918
	C172	C	0.171751	0.882125	0.379735
	C173	C	0.176479	0.120881	0.610163
	C174	C	0.821401	0.117981	0.379842
	C175	C	0.821680	0.881860	0.610712
	C176	C	0.382653	0.175788	0.874354
	C177	C	0.612696	0.177135	0.113847
	C178	C	0.382222	0.824292	0.111454
	C179	C	0.613389	0.823786	0.876026
	C180	C	0.381936	0.881491	0.168848
	C181	C	0.613168	0.118534	0.170417
	C182	C	0.382918	0.117843	0.817561
	C183	C	0.613651	0.881686	0.818976
	C184	C	0.877492	0.177341	0.380681
	C185	C	0.118752	0.178546	0.610254
	C186	C	0.115391	0.823388	0.380612
	C187	C	0.878668	0.824352	0.610700
	C188	C	0.172416	0.385297	0.877675
	C189	C	0.174897	0.615010	0.115812
	C190	C	0.820011	0.385839	0.114554
	C191	C	0.822412	0.615572	0.877902
	C192	C	0.399623	0.094362	0.594260
	C193	C	0.597393	0.905604	0.594989
	C194	C	0.597287	0.093562	0.394727
	C195	C	0.396695	0.905599	0.393052
	C196	C	0.596474	0.400802	0.089297
	C197	C	0.597233	0.600458	0.899334
	C198	C	0.398458	0.600608	0.090302
	C199	C	0.396696	0.400279	0.901017
	C200	C	0.092552	0.600566	0.397586
	C201	C	0.902171	0.600880	0.596880
	C202	C	0.092126	0.402087	0.595219
	C203	C	0.902808	0.401190	0.396705
	C204	C	0.897229	0.595297	0.096416
	C205	C	0.096684	0.406044	0.096115
	C206	C	0.098033	0.594838	0.896789
	C207	C	0.897222	0.405856	0.895743
	C208	C	0.096880	0.902122	0.589620
	C209	C	0.097164	0.100904	0.400783
	C210	C	0.898983	0.099466	0.589607
	C211	C	0.896293	0.898521	0.400128
	C212	C	0.592650	0.100109	0.896190
	C213	C	0.402578	0.099408	0.093893
	C214	C	0.592962	0.900462	0.094280
	C215	C	0.403028	0.899200	0.893759
	Zn216	Zn	0.498360	0.000012	0.745241
	Zn217	Zn	0.497683	-0.000589	0.243423
	Zn218	Zn	0.746815	0.500339	-0.005118
	Zn219	Zn	0.247253	0.499971	-0.003291
	Zn220	Zn	-0.002825	0.750110	0.496141
	Zn221	Zn	-0.002623	0.250800	0.496300
	Zn222	Zn	-0.001962	0.500234	0.745916
	Zn223	Zn	-0.002070	0.501074	0.246900
	Zn224	Zn	0.497812	0.750131	-0.005860
	Zn225	Zn	0.496662	0.249564	-0.005274
	Zn226	Zn	0.747924	-0.000533	0.494709
	Zn227	Zn	0.247554	0.000160	0.494556
	N228	N	0.412865	0.962748	0.672699
	N229	N	0.584503	0.037074	0.674067
	N230	N	0.583009	0.962100	0.315738
	N231	N	0.411638	0.037138	0.314587
	N232	N	0.674967	0.414748	0.957270
	N233	N	0.674952	0.585499	0.032159
	N234	N	0.319832	0.583944	0.958302
	N235	N	0.319137	0.414602	0.033579
	N236	N	0.959909	0.677360	0.411879
	N237	N	0.034396	0.679625	0.582733
	N238	N	0.960443	0.321799	0.582109
	N239	N	0.034472	0.322151	0.410082
	N240	N	0.959905	0.415753	0.672988
	N241	N	0.035317	0.586042	0.674507
	N242	N	0.960873	0.586323	0.318394
	N243	N	0.035281	0.416388	0.319097
	N244	N	0.411631	0.677851	0.957850
	N245	N	0.583429	0.679216	0.031312
	N246	N	0.581603	0.322114	0.957274
	N247	N	0.410360	0.320544	0.032150
	N248	N	0.674412	0.961581	0.410450
	N249	N	0.676225	0.037251	0.580223
	N250	N	0.320096	0.962788	0.579326
	N251	N	0.319361	0.037628	0.408720
	N252	N	0.911498	0.463809	0.174828
	N253	N	0.083401	0.537821	0.174603
	N254	N	0.083624	0.463881	0.817306
	N255	N	0.912000	0.537072	0.817389
	N256	N	0.173674	0.916386	0.457056
	N257	N	0.177702	0.087465	0.532253
	N258	N	0.820427	0.084076	0.457207
	N259	N	0.819397	0.914442	0.532656
	N260	N	0.460432	0.177888	0.908460
	N261	N	0.534449	0.179068	0.080861
	N262	N	0.460433	0.822493	0.078870
	N263	N	0.535395	0.821563	0.908829
	N264	N	0.460075	0.914705	0.171293
	N265	N	0.535267	0.084712	0.171706
	N266	N	0.460867	0.084847	0.816763
	N267	N	0.535705	0.914630	0.816841
	N268	N	0.911174	0.179198	0.458531
	N269	N	0.084273	0.179776	0.532725
	N270	N	0.082696	0.821854	0.458629
	N271	N	0.911355	0.821825	0.532765
	N272	N	0.174649	0.462644	0.911410
	N273	N	0.175876	0.537439	0.081993
	N274	N	0.818443	0.463377	0.081212
	N275	N	0.820206	0.538088	0.911017
	O276	O	0.021145	0.079538	1.028375
	H277	H	0.020324	0.078529	1.028691
	H278	H	0.022187	0.081369	1.027606
	O279	O	0.507805	0.444124	0.531159
	H280	H	0.508813	0.449436	0.526908
	H281	H	0.500814	0.438615	0.539869
	O282	O	0.543110	0.475512	0.497978
	H283	H	0.549450	0.476214	0.492383
	H284	H	0.542851	0.474533	0.495851
	O285	O	0.577632	0.433048	0.488682
	H286	H	0.579150	0.427257	0.491239
	H287	H	0.587221	0.431091	0.475080
	O288	O	0.483658	0.461377	0.537081
	H289	H	0.478906	0.462041	0.541620
	H290	H	0.500057	0.464528	0.524148
	O291	O	0.030040	1.079489	1.041655
	H292	H	0.029486	1.078209	1.044718
	H293	H	0.031473	1.083163	1.045456
	O294	O	0.490932	0.424690	0.525928
	H295	H	0.485468	0.426915	0.536335
	H296	H	0.489430	0.420078	0.534955
	O297	O	1.383031	0.382134	0.360947
	H298	H	1.375404	0.381659	0.361194
	H299	H	1.381240	0.379160	0.365938
