data_Molecule from HDF5

_cell_length_a		16.259579
_cell_length_b		16.073337
_cell_length_c		16.225458
_cell_angle_alpha	89.668559
_cell_angle_beta	90.948813
_cell_angle_gamma	90.197140
_symmetry_space_group_name_H-M	'P 1'
_symmetry_Int_Tables_number		1

loop_
	_symmetry_equiv_pos_as_xyz
	x,y,z

loop_
	_atom_site_label
	_atom_site_type_symbol
	_atom_site_fract_x
	_atom_site_fract_y
	_atom_site_fract_z
	H0	H	0.407918	0.837366	0.709735
	H1	H	0.607318	0.168784	0.712686
	H2	H	0.601448	0.837393	0.288221
	H3	H	0.402425	0.168277	0.278987
	H4	H	0.712463	0.403998	0.831681
	H5	H	0.723026	0.602376	0.159851
	H6	H	0.283996	0.605048	0.833439
	H7	H	0.288648	0.401417	0.161182
	H8	H	0.839832	0.718574	0.395627
	H9	H	0.169740	0.712636	0.594417
	H10	H	0.840774	0.285864	0.592503
	H11	H	0.169517	0.291323	0.400506
	H12	H	0.838551	0.402079	0.707125
	H13	H	0.165573	0.603772	0.715528
	H14	H	0.840034	0.604564	0.277656
	H15	H	0.167508	0.406512	0.283408
	H16	H	0.404237	0.716189	0.832192
	H17	H	0.602333	0.712746	0.162787
	H18	H	0.593320	0.292921	0.831257
	H19	H	0.405852	0.287011	0.160788
	H20	H	0.716578	0.838156	0.402491
	H21	H	0.721965	0.167889	0.598771
	H22	H	0.294295	0.837819	0.595503
	H23	H	0.290199	0.168671	0.395871
	H24	H	0.902975	0.338800	0.210941
	H25	H	0.102336	0.669938	0.208872
	H26	H	0.097376	0.337557	0.786300
	H27	H	0.901912	0.668887	0.779513
	H28	H	0.217127	0.905505	0.332822
	H29	H	0.224877	0.102398	0.661037
	H30	H	0.785475	0.106187	0.334391
	H31	H	0.793190	0.902035	0.661897
	H32	H	0.338291	0.213647	0.896078
	H33	H	0.667137	0.217432	0.097005
	H34	H	0.338902	0.787645	0.093093
	H35	H	0.668318	0.789673	0.904795
	H36	H	0.340912	0.899655	0.212621
	H37	H	0.667232	0.102577	0.213488
	H38	H	0.342174	0.103314	0.776643
	H39	H	0.670227	0.906020	0.789242
	H40	H	0.906992	0.215550	0.332355
	H41	H	0.107100	0.216055	0.662478
	H42	H	0.098093	0.792985	0.331870
	H43	H	0.911349	0.788642	0.662391
	H44	H	0.212716	0.337420	0.900675
	H45	H	0.219773	0.667835	0.097290
	H46	H	0.791005	0.337179	0.093704
	H47	H	0.787287	0.668330	0.894369
	H48	H	0.416748	0.121964	0.585866
	H49	H	0.595573	0.882336	0.603579
	H50	H	0.591172	0.121821	0.401001
	H51	H	0.413929	0.885663	0.405769
	H52	H	0.601297	0.408047	0.115639
	H53	H	0.587727	0.601898	0.879955
	H54	H	0.413784	0.594064	0.114337
	H55	H	0.404642	0.411413	0.879943
	H56	H	0.122158	0.598334	0.402656
	H57	H	0.887961	0.589225	0.584696
	H58	H	0.118021	0.414414	0.586934
	H59	H	0.888164	0.416959	0.396724
	H60	H	0.120962	0.416818	0.600578
	H61	H	0.882735	0.598008	0.595225
	H62	H	0.120847	0.599235	0.403128
	H63	H	0.884165	0.403207	0.399577
	H64	H	0.408265	0.596721	0.116104
	H65	H	0.601339	0.600262	0.875937
	H66	H	0.599968	0.413813	0.113704
	H67	H	0.404509	0.407712	0.878079
	H68	H	0.594939	0.120725	0.410442
	H69	H	0.595061	0.887935	0.586502
	H70	H	0.413065	0.122321	0.587647
	H71	H	0.409151	0.885598	0.407795
	H72	H	0.911843	0.621685	0.085084
	H73	H	0.093518	0.382772	0.099596
	H74	H	0.099956	0.621714	0.912978
	H75	H	0.909036	0.381172	0.889197
	H76	H	0.100329	0.915945	0.612679
	H77	H	0.096738	0.096006	0.380421
	H78	H	0.908777	0.087635	0.614555
	H79	H	0.912715	0.920075	0.384317
	H80	H	0.619190	0.089748	0.906796
	H81	H	0.386886	0.090847	0.087133
	H82	H	0.623661	0.909639	0.105687
	H83	H	0.383747	0.899442	0.900524
	H84	H	0.621976	0.899503	0.089586
	H85	H	0.385038	0.094096	0.092062
	H86	H	0.624719	0.102375	0.898530
	H87	H	0.390561	0.914250	0.909061
	H88	H	0.923034	0.094097	0.612427
	H89	H	0.097302	0.099963	0.379581
	H90	H	0.097251	0.902226	0.615459
	H91	H	0.913817	0.904491	0.378518
	H92	H	0.097106	0.626188	0.895778
	H93	H	0.087049	0.389293	0.086069
	H94	H	0.910776	0.623162	0.086777
	H95	H	0.914288	0.388243	0.908948
	H96	H	0.416661	0.122298	0.590155
	H97	H	0.610313	0.880985	0.593338
	H98	H	0.600630	0.125018	0.403100
	H99	H	0.410428	0.883889	0.401957
	H100	H	0.595301	0.408476	0.113416
	H101	H	0.593078	0.589284	0.882195
	H102	H	0.408793	0.590520	0.114532
	H103	H	0.401704	0.411179	0.877928
	H104	H	0.121353	0.597966	0.402691
	H105	H	0.885744	0.603996	0.581397
	H106	H	0.124105	0.403675	0.594285
	H107	H	0.890469	0.411377	0.410184
	H108	H	0.912735	0.622072	0.087511
	H109	H	0.102878	0.384181	0.086710
	H110	H	0.083942	0.619091	0.905452
	H111	H	0.894259	0.381461	0.904251
	H112	H	0.111805	0.906982	0.618376
	H113	H	0.100981	0.095872	0.379520
	H114	H	0.911113	0.102257	0.618312
	H115	H	0.899312	0.912963	0.377522
	H116	H	0.621114	0.102406	0.913156
	H117	H	0.386263	0.097055	0.085828
	H118	H	0.617461	0.918067	0.089253
	H119	H	0.385682	0.915587	0.892331
	C120	C	0.386729	0.012375	0.616887
	C121	C	0.628769	0.993710	0.621947
	C122	C	0.624307	0.012573	0.377768
	C123	C	0.381900	0.994368	0.374640
	C124	C	0.623940	0.381923	0.005224
	C125	C	0.624870	0.624728	0.988068
	C126	C	0.380524	0.624027	0.005873
	C127	C	0.378604	0.380809	0.988012
	C128	C	0.012486	0.627131	0.373339
	C129	C	0.994353	0.625011	0.617824
	C130	C	0.012633	0.381549	0.619447
	C131	C	0.996022	0.382516	0.375049
	C132	C	0.882684	0.512580	0.115737
	C133	C	0.124804	0.494487	0.119545
	C134	C	0.121403	0.512424	0.876988
	C135	C	0.878492	0.493711	0.871939
	C136	C	0.127982	0.881398	0.506177
	C137	C	0.128890	0.125797	0.488580
	C138	C	0.883912	0.124491	0.506379
	C139	C	0.883118	0.882648	0.489157
	C140	C	0.513072	0.125490	0.874967
	C141	C	0.494535	0.123702	0.118585
	C142	C	0.512455	0.879595	0.121148
	C143	C	0.495707	0.881511	0.875762
	C144	C	0.388469	0.887134	0.672055
	C145	C	0.627426	0.118867	0.675830
	C146	C	0.621772	0.887319	0.324738
	C147	C	0.383097	0.118712	0.317647
	C148	C	0.675639	0.384133	0.880946
	C149	C	0.683096	0.622171	0.111279
	C150	C	0.323274	0.623897	0.882354
	C151	C	0.326336	0.382392	0.112133
	C152	C	0.888833	0.681484	0.375335
	C153	C	0.119416	0.677391	0.615627
	C154	C	0.889293	0.324334	0.614014
	C155	C	0.119843	0.328502	0.379425
	C156	C	0.888199	0.382206	0.670872
	C157	C	0.117303	0.623122	0.675839
	C158	C	0.889030	0.625008	0.316397
	C159	C	0.118810	0.385448	0.320709
	C160	C	0.383201	0.679097	0.881651
	C161	C	0.623263	0.677251	0.112843
	C162	C	0.616301	0.329128	0.880657
	C163	C	0.383936	0.324804	0.111830
	C164	C	0.679097	0.887618	0.381652
	C165	C	0.684365	0.118578	0.619158
	C166	C	0.331487	0.887545	0.615467
	C167	C	0.327144	0.119072	0.375391
	C168	C	0.884065	0.387686	0.171856
	C169	C	0.122998	0.619874	0.172768
	C170	C	0.118120	0.387164	0.823280
	C171	C	0.881702	0.618924	0.817095
	C172	C	0.180118	0.884826	0.382015
	C173	C	0.185767	0.122768	0.612256
	C174	C	0.825145	0.124839	0.383166
	C175	C	0.830779	0.882656	0.612910
	C176	C	0.388501	0.178116	0.875568
	C177	C	0.617877	0.179990	0.117399
	C178	C	0.388423	0.824741	0.115324
	C179	C	0.619696	0.827286	0.882747
	C180	C	0.389318	0.880584	0.174589
	C181	C	0.618109	0.122725	0.175277
	C182	C	0.390358	0.122984	0.816072
	C183	C	0.620266	0.884843	0.824976
	C184	C	0.885651	0.179212	0.382018
	C185	C	0.127362	0.179442	0.612859
	C186	C	0.121039	0.828962	0.381469
	C187	C	0.889286	0.826329	0.612980
	C188	C	0.175360	0.387121	0.880254
	C189	C	0.181355	0.618779	0.117518
	C190	C	0.828473	0.387092	0.113513
	C191	C	0.824560	0.618791	0.874008
	C192	C	0.408841	0.099642	0.594382
	C193	C	0.606855	0.906365	0.600768
	C194	C	0.602105	0.099858	0.398607
	C195	C	0.404572	0.907588	0.398151
	C196	C	0.604592	0.403671	0.091948
	C197	C	0.601234	0.603384	0.901629
	C198	C	0.403547	0.600735	0.092566
	C199	C	0.397930	0.403352	0.901187
	C200	C	0.099086	0.604988	0.396040
	C201	C	0.907847	0.603331	0.594095
	C202	C	0.098627	0.404745	0.599693
	C203	C	0.909893	0.404145	0.395820
	C204	C	0.905060	0.599994	0.093116
	C205	C	0.101340	0.407672	0.097561
	C206	C	0.099896	0.599658	0.898456
	C207	C	0.899393	0.406243	0.894236
	C208	C	0.108886	0.902226	0.593051
	C209	C	0.105330	0.103794	0.402207
	C210	C	0.907473	0.101558	0.592791
	C211	C	0.902716	0.905689	0.402460
	C212	C	0.599292	0.104322	0.898990
	C213	C	0.408306	0.100774	0.095329
	C214	C	0.598642	0.902304	0.100849
	C215	C	0.409163	0.903232	0.895116
	Zn216	Zn	0.505882	0.003493	0.746740
	Zn217	Zn	0.503571	0.003035	0.248382
	Zn218	Zn	0.753058	0.502698	-0.004688
	Zn219	Zn	0.250844	0.503381	-0.002766
	Zn220	Zn	0.004487	0.753900	0.497011
	Zn221	Zn	0.005917	0.252657	0.497582
	Zn222	Zn	0.001630	0.503849	0.746779
	Zn223	Zn	0.002946	0.504137	0.245253
	Zn224	Zn	0.502889	0.752332	-0.002087
	Zn225	Zn	0.502425	0.253454	-0.003197
	Zn226	Zn	0.753722	0.003612	0.498820
	Zn227	Zn	0.256730	0.003193	0.497406
	N228	N	0.422273	0.965757	0.673011
	N229	N	0.593481	0.040188	0.677978
	N230	N	0.588399	0.966019	0.322286
	N231	N	0.416475	0.040086	0.316943
	N232	N	0.680471	0.416477	0.959361
	N233	N	0.684162	0.590287	0.032677
	N234	N	0.321564	0.590522	0.960764
	N235	N	0.322566	0.416129	0.033875
	N236	N	0.966677	0.682872	0.410010
	N237	N	0.041812	0.679080	0.580358
	N238	N	0.967621	0.323617	0.582669
	N239	N	0.042501	0.326498	0.412586
	N240	N	0.965665	0.416951	0.674600
	N241	N	0.038442	0.591495	0.677402
	N242	N	0.966927	0.591852	0.315140
	N243	N	0.040781	0.418312	0.317864
	N244	N	0.418105	0.679281	0.959582
	N245	N	0.587837	0.679232	0.035155
	N246	N	0.585012	0.327569	0.958977
	N247	N	0.415768	0.323771	0.033794
	N248	N	0.680730	0.966525	0.414034
	N249	N	0.685321	0.039919	0.586356
	N250	N	0.330550	0.966284	0.581501
	N251	N	0.326285	0.040835	0.410223
	N252	N	0.917135	0.466702	0.173476
	N253	N	0.088822	0.541378	0.174321
	N254	N	0.085191	0.465987	0.821219
	N255	N	0.914400	0.540147	0.815693
	N256	N	0.184602	0.916731	0.460517
	N257	N	0.186787	0.090088	0.533959
	N258	N	0.823863	0.091491	0.461577
	N259	N	0.826842	0.917059	0.535052
	N260	N	0.465594	0.179852	0.911613
	N261	N	0.540089	0.180736	0.082890
	N262	N	0.466028	0.824051	0.082550
	N263	N	0.541092	0.824647	0.913322
	N264	N	0.467348	0.914143	0.178243
	N265	N	0.540320	0.088297	0.176025
	N266	N	0.468887	0.090954	0.815535
	N267	N	0.542323	0.917571	0.820472
	N268	N	0.921651	0.178964	0.459493
	N269	N	0.092642	0.181424	0.534854
	N270	N	0.089461	0.826506	0.459612
	N271	N	0.921302	0.826328	0.534822
	N272	N	0.177660	0.466142	0.912921
	N273	N	0.182529	0.540058	0.084888
	N274	N	0.827608	0.465767	0.079072
	N275	N	0.822121	0.539844	0.907417
	O276	O	-0.018560	-0.039269	0.049266
	H277	H	-0.012483	-0.021263	0.051393
	H278	H	-0.022890	-0.043365	0.057708
	O279	O	0.540298	0.487281	0.477866
	H280	H	0.534976	0.493752	0.479128
	H281	H	0.547310	0.489164	0.473921
	O282	O	0.496233	0.485606	0.487328
	H283	H	0.503531	0.474192	0.493775
	H284	H	0.496230	0.476350	0.475338
	O285	O	0.944521	0.018719	1.013505
	H286	H	0.944906	0.016641	1.022400
	H287	H	0.945643	0.009309	1.016599
	O288	O	1.014995	0.068009	-0.111568
	H289	H	1.021238	0.059709	-0.118985
	H290	H	1.006814	0.067357	-0.113759
	O291	O	0.479214	0.579385	0.499702
	H292	H	0.476074	0.576840	0.497568
	H293	H	0.478798	0.577893	0.495218
	O294	O	1.088662	0.083455	0.982936
	H295	H	1.089066	0.078326	0.978990
	H296	H	1.093515	0.092077	0.985328
	O297	O	0.039599	0.002557	0.048636
	H298	H	0.042140	0.003593	0.037461
	H299	H	0.038435	0.000831	0.050270
	O300	O	0.495511	0.409069	0.528573
	H301	H	0.499736	0.408973	0.528642
	H302	H	0.500865	0.405131	0.520777
	O303	O	0.467346	0.513018	0.473493
	H304	H	0.466769	0.513297	0.467698
	H305	H	0.462250	0.521186	0.476090
	O306	O	1.041373	-0.055019	-0.074868
	H307	H	1.040970	-0.063251	-0.076419
	H308	H	1.037883	-0.060900	-0.075751
	O309	O	-0.015498	0.044997	1.007235
	H310	H	-0.024130	0.047018	1.006388
	H311	H	-0.004531	0.048058	1.001265
	O312	O	1.024852	1.017006	0.977840
	H313	H	1.015887	1.024016	0.989329
	H314	H	1.023494	1.006738	0.977001
	O315	O	0.541568	0.514059	0.543447
	H316	H	0.537312	0.522026	0.546027
	H317	H	0.541194	0.522726	0.543284
	O318	O	0.529717	0.460756	0.456379
	H319	H	0.533454	0.454315	0.467000
	H320	H	0.526037	0.452630	0.457067
	O321	O	-0.008888	0.989657	0.953326
	H322	H	-0.005264	0.992789	0.960474
	H323	H	-0.014351	1.000170	0.951125
	O324	O	0.523844	0.597876	0.544045
	H325	H	0.515505	0.605800	0.543347
	H326	H	0.519772	0.599659	0.538858
	O327	O	0.489469	0.522268	0.483560
	H328	H	0.500721	0.530024	0.481795
	H329	H	0.485932	0.517593	0.482218
	O330	O	0.552677	0.407304	0.521331
	H331	H	0.546064	0.408766	0.519337
	H332	H	0.552224	0.396568	0.529590
	O333	O	0.594456	0.582666	0.484871
	H334	H	0.607740	0.583010	0.503997
	H335	H	0.582377	0.594099	0.480935
	O336	O	0.492808	0.488743	0.578552
	H337	H	0.481178	0.498181	0.567664
	H338	H	0.499172	0.489463	0.592771
	O339	O	0.939583	0.956494	0.053855
	H340	H	0.938735	0.948147	0.059467
	H341	H	0.943824	0.968707	0.061162
	O342	O	0.410309	0.529754	0.471696
	H343	H	0.408719	0.528576	0.464158
	H344	H	0.403941	0.515440	0.472754
	O345	O	0.484950	0.581459	0.381768
	H346	H	0.483172	0.576762	0.383424
	H347	H	0.497965	0.583512	0.379686
	O348	O	0.042819	0.096610	0.060297
	H349	H	0.039820	0.092174	0.056266
	H350	H	0.036921	0.107512	0.059400
	O351	O	0.061445	0.962850	1.011097
	H352	H	0.059920	0.961113	1.003027
	H353	H	0.059398	0.959456	1.008561
	O354	O	0.502121	0.506247	0.449588
	H355	H	0.507087	0.512495	0.453084
	H356	H	0.498173	0.505735	0.453527
	O357	O	0.029857	1.016171	1.047605
	H358	H	0.027349	1.020578	1.042189
	H359	H	0.037531	1.021674	1.057741
