data_Molecule from HDF5

_cell_length_a		16.201013
_cell_length_b		16.266496
_cell_length_c		16.301629
_cell_angle_alpha	90.044073
_cell_angle_beta	89.928755
_cell_angle_gamma	90.031555
_symmetry_space_group_name_H-M	'P 1'
_symmetry_Int_Tables_number		1

loop_
	_symmetry_equiv_pos_as_xyz
	x,y,z

loop_
	_atom_site_label
	_atom_site_type_symbol
	_atom_site_fract_x
	_atom_site_fract_y
	_atom_site_fract_z
	H0	H	0.390384	0.830530	0.720982
	H1	H	0.589639	0.157470	0.720571
	H2	H	0.587891	0.829928	0.291001
	H3	H	0.391768	0.157450	0.292623
	H4	H	0.703509	0.397674	0.841921
	H5	H	0.703875	0.592046	0.170358
	H6	H	0.275972	0.592626	0.842095
	H7	H	0.277603	0.398061	0.171162
	H8	H	0.824806	0.705542	0.409345
	H9	H	0.153993	0.708504	0.604231
	H10	H	0.825214	0.280230	0.603824
	H11	H	0.154335	0.280123	0.408707
	H12	H	0.825360	0.395026	0.720616
	H13	H	0.154774	0.591456	0.718366
	H14	H	0.825235	0.590179	0.293157
	H15	H	0.154704	0.395441	0.293070
	H16	H	0.392415	0.709026	0.842440
	H17	H	0.587781	0.708746	0.169917
	H18	H	0.589264	0.279524	0.842330
	H19	H	0.390852	0.279447	0.169431
	H20	H	0.703373	0.829111	0.408046
	H21	H	0.704064	0.157964	0.602394
	H22	H	0.276340	0.829406	0.603094
	H23	H	0.277041	0.157693	0.409674
	H24	H	0.892245	0.329513	0.220395
	H25	H	0.088617	0.657894	0.221520
	H26	H	0.089566	0.330190	0.790862
	H27	H	0.892169	0.658129	0.791921
	H28	H	0.202834	0.896027	0.341962
	H29	H	0.201868	0.089744	0.669969
	H30	H	0.777192	0.090290	0.342054
	H31	H	0.775086	0.895457	0.669119
	H32	H	0.325532	0.208455	0.908375
	H33	H	0.654514	0.207729	0.103383
	H34	H	0.324990	0.781264	0.103038
	H35	H	0.654709	0.781389	0.908118
	H36	H	0.325262	0.896689	0.218828
	H37	H	0.654352	0.092526	0.219898
	H38	H	0.325203	0.092053	0.793123
	H39	H	0.653987	0.895962	0.791337
	H40	H	0.891786	0.207381	0.342427
	H41	H	0.087407	0.207640	0.669008
	H42	H	0.088113	0.779137	0.343213
	H43	H	0.890359	0.779243	0.668819
	H44	H	0.202989	0.329745	0.909973
	H45	H	0.200750	0.659393	0.101924
	H46	H	0.777204	0.328882	0.102550
	H47	H	0.777845	0.659176	0.909827
	H48	H	0.391665	0.114181	0.607037
	H49	H	0.581378	0.877939	0.597685
	H50	H	0.590535	0.110681	0.420222
	H51	H	0.394311	0.874436	0.407337
	H52	H	0.582005	0.396885	0.123469
	H53	H	0.584093	0.586147	0.890230
	H54	H	0.399633	0.596150	0.124200
	H55	H	0.392770	0.411701	0.892161
	H56	H	0.107401	0.584193	0.409591
	H57	H	0.873219	0.587798	0.595402
	H58	H	0.107509	0.400859	0.599959
	H59	H	0.869487	0.400071	0.404299
	H60	H	0.106887	0.399453	0.596889
	H61	H	0.873632	0.582784	0.600933
	H62	H	0.108373	0.591473	0.412370
	H63	H	0.871926	0.393219	0.418615
	H64	H	0.387961	0.587102	0.124984
	H65	H	0.582883	0.590339	0.889587
	H66	H	0.587541	0.400612	0.123356
	H67	H	0.408390	0.399917	0.892303
	H68	H	0.586656	0.114087	0.402725
	H69	H	0.583117	0.876851	0.598296
	H70	H	0.405111	0.108551	0.600988
	H71	H	0.401039	0.878110	0.412237
	H72	H	0.901877	0.608812	0.100787
	H73	H	0.083337	0.376720	0.097912
	H74	H	0.086376	0.611616	0.912873
	H75	H	0.893466	0.376279	0.912075
	H76	H	0.087421	0.899240	0.624960
	H77	H	0.081234	0.095746	0.386527
	H78	H	0.895421	0.087241	0.622587
	H79	H	0.892907	0.903990	0.388738
	H80	H	0.606692	0.084151	0.911093
	H81	H	0.375781	0.082171	0.093898
	H82	H	0.605216	0.903886	0.094133
	H83	H	0.374350	0.904565	0.914168
	H84	H	0.608177	0.904013	0.104357
	H85	H	0.370723	0.084525	0.107573
	H86	H	0.608506	0.090446	0.910626
	H87	H	0.371256	0.900547	0.908997
	H88	H	0.897413	0.086823	0.622931
	H89	H	0.091806	0.085230	0.387125
	H90	H	0.081597	0.905681	0.621516
	H91	H	0.901811	0.898628	0.389745
	H92	H	0.082680	0.611241	0.908730
	H93	H	0.085814	0.376102	0.101089
	H94	H	0.894848	0.610268	0.096957
	H95	H	0.899443	0.377637	0.910285
	H96	H	0.391615	0.110057	0.591991
	H97	H	0.581452	0.877436	0.599583
	H98	H	0.573906	0.106985	0.413129
	H99	H	0.392756	0.876832	0.415605
	H100	H	0.582074	0.403723	0.121264
	H101	H	0.586861	0.588758	0.888545
	H102	H	0.400313	0.582027	0.118848
	H103	H	0.391249	0.392886	0.886357
	H104	H	0.106217	0.585853	0.416816
	H105	H	0.870612	0.589642	0.602567
	H106	H	0.105587	0.402268	0.597445
	H107	H	0.875969	0.408688	0.415905
	H108	H	0.895667	0.612354	0.105093
	H109	H	0.081655	0.377811	0.102450
	H110	H	0.081056	0.609478	0.914297
	H111	H	0.898053	0.378160	0.915899
	H112	H	0.078865	0.896527	0.622973
	H113	H	0.077309	0.082324	0.392424
	H114	H	0.897207	0.088539	0.623223
	H115	H	0.893269	0.893492	0.386102
	H116	H	0.606544	0.087947	0.915879
	H117	H	0.370555	0.095423	0.097464
	H118	H	0.608903	0.895445	0.099059
	H119	H	0.372261	0.897115	0.915370
	C120	C	0.367639	0.002291	0.627850
	C121	C	0.611240	0.985664	0.626703
	C122	C	0.611537	0.001912	0.384136
	C123	C	0.368206	0.984993	0.384408
	C124	C	0.611972	0.372379	0.014336
	C125	C	0.612434	0.616091	0.997875
	C126	C	0.368432	0.616333	0.014366
	C127	C	0.368566	0.372961	0.998201
	C128	C	-0.001450	0.614995	0.384815
	C129	C	0.981554	0.615056	0.627336
	C130	C	-0.001777	0.372089	0.627507
	C131	C	0.981234	0.372259	0.384989
	C132	C	0.868499	0.501891	0.128507
	C133	C	0.111538	0.485621	0.128291
	C134	C	0.111936	0.502505	0.883940
	C135	C	0.868954	0.485861	0.884631
	C136	C	0.111267	0.871851	0.514657
	C137	C	0.111259	0.115547	0.497049
	C138	C	0.868630	0.115104	0.514681
	C139	C	0.867679	0.871326	0.496974
	C140	C	0.498597	0.116053	0.884390
	C141	C	0.481225	0.115652	0.127722
	C142	C	0.498544	0.872803	0.127174
	C143	C	0.481237	0.872971	0.884476
	C144	C	0.369912	0.879371	0.683179
	C145	C	0.609680	0.108835	0.682166
	C146	C	0.608515	0.878501	0.329118
	C147	C	0.371289	0.108607	0.330221
	C148	C	0.666335	0.376114	0.890962
	C149	C	0.666397	0.612902	0.121280
	C150	C	0.313877	0.613240	0.890960
	C151	C	0.314479	0.376699	0.121846
	C152	C	0.873962	0.668284	0.388342
	C153	C	0.105218	0.670274	0.624322
	C154	C	0.874264	0.317465	0.625023
	C155	C	0.105363	0.317642	0.387884
	C156	C	0.874544	0.374550	0.682942
	C157	C	0.105565	0.612418	0.681316
	C158	C	0.874309	0.611201	0.330551
	C159	C	0.105460	0.375082	0.330592
	C160	C	0.371554	0.671027	0.891042
	C161	C	0.609189	0.671133	0.121178
	C162	C	0.609420	0.317556	0.891120
	C163	C	0.371049	0.318025	0.121049
	C164	C	0.665685	0.878185	0.387254
	C165	C	0.666692	0.108907	0.623684
	C166	C	0.313604	0.878683	0.624123
	C167	C	0.314377	0.108800	0.388224
	C168	C	0.871055	0.378455	0.182667
	C169	C	0.108606	0.609188	0.183071
	C170	C	0.109714	0.379217	0.828936
	C171	C	0.871658	0.609443	0.830000
	C172	C	0.165498	0.875266	0.391208
	C173	C	0.165180	0.111629	0.620645
	C174	C	0.814446	0.111600	0.390948
	C175	C	0.812781	0.874823	0.620271
	C176	C	0.374627	0.170723	0.887562
	C177	C	0.605508	0.169764	0.123927
	C178	C	0.374360	0.818286	0.124062
	C179	C	0.605393	0.818674	0.887293
	C180	C	0.374400	0.875572	0.181632
	C181	C	0.605422	0.112533	0.181745
	C182	C	0.374509	0.113001	0.830440
	C183	C	0.604988	0.875441	0.829223
	C184	C	0.871173	0.169974	0.391260
	C185	C	0.108450	0.170054	0.620295
	C186	C	0.108340	0.817234	0.391640
	C187	C	0.870265	0.817145	0.620285
	C188	C	0.166495	0.378912	0.887623
	C189	C	0.164958	0.609764	0.124259
	C190	C	0.814368	0.378197	0.123922
	C191	C	0.815222	0.610006	0.888724
	C192	C	0.389757	0.088600	0.606443
	C193	C	0.588686	0.899687	0.604926
	C194	C	0.589926	0.088271	0.405670
	C195	C	0.389596	0.898659	0.405410
	C196	C	0.590107	0.393886	0.100451
	C197	C	0.590922	0.594681	0.911697
	C198	C	0.389806	0.594849	0.100452
	C199	C	0.390872	0.395113	0.912467
	C200	C	0.084953	0.593755	0.406532
	C201	C	0.894855	0.593227	0.605804
	C202	C	0.084355	0.394338	0.604951
	C203	C	0.894847	0.394105	0.406480
	C204	C	0.890867	0.588208	0.107260
	C205	C	0.089911	0.399062	0.106827
	C206	C	0.089844	0.588582	0.905428
	C207	C	0.890536	0.399620	0.906316
	C208	C	0.089077	0.893897	0.600982
	C209	C	0.089643	0.094077	0.410894
	C210	C	0.890286	0.093845	0.600785
	C211	C	0.889645	0.892488	0.410549
	C212	C	0.584913	0.093957	0.906121
	C213	C	0.394753	0.093873	0.106073
	C214	C	0.585120	0.894660	0.105520
	C215	C	0.394721	0.894431	0.906350
	Zn216	Zn	0.489847	-0.005855	0.756214
	Zn217	Zn	0.489866	-0.006369	0.255486
	Zn218	Zn	0.740890	0.494126	0.006191
	Zn219	Zn	0.239863	0.494704	0.006367
	Zn220	Zn	-0.010659	0.743488	0.506217
	Zn221	Zn	-0.010519	0.244114	0.505744
	Zn222	Zn	-0.010016	0.494145	0.755632
	Zn223	Zn	-0.009620	0.493550	0.257098
	Zn224	Zn	0.490332	0.744543	0.006039
	Zn225	Zn	0.490193	0.243936	0.006118
	Zn226	Zn	0.740373	-0.006487	0.505606
	Zn227	Zn	0.239523	-0.006617	0.505770
	N228	N	0.402994	0.957304	0.685395
	N229	N	0.575917	0.031154	0.684354
	N230	N	0.575599	0.956419	0.327063
	N231	N	0.404113	0.030550	0.327638
	N232	N	0.667913	0.409500	0.968486
	N233	N	0.668653	0.579732	0.043710
	N234	N	0.311778	0.580094	0.968605
	N235	N	0.312812	0.410340	0.044392
	N236	N	0.952104	0.670801	0.421359
	N237	N	0.027010	0.671829	0.591387
	N238	N	0.952067	0.315705	0.591301
	N239	N	0.027198	0.315912	0.421066
	N240	N	0.952454	0.408094	0.684284
	N241	N	0.027739	0.578985	0.683386
	N242	N	0.952632	0.578692	0.328375
	N243	N	0.027528	0.408278	0.328739
	N244	N	0.404865	0.672940	0.968562
	N245	N	0.576332	0.673335	0.043304
	N246	N	0.576154	0.315175	0.968892
	N247	N	0.403996	0.315639	0.043324
	N248	N	0.667780	0.955923	0.420565
	N249	N	0.667502	0.031516	0.589845
	N250	N	0.311962	0.956187	0.590683
	N251	N	0.312449	0.031094	0.421301
	N252	N	0.904065	0.456384	0.185774
	N253	N	0.076004	0.530971	0.185650
	N254	N	0.076898	0.457191	0.826319
	N255	N	0.904499	0.531349	0.827428
	N256	N	0.167541	0.908226	0.468933
	N257	N	0.167119	0.078589	0.543000
	N258	N	0.812687	0.078500	0.468437
	N259	N	0.811410	0.907857	0.542590
	N260	N	0.452814	0.172687	0.920432
	N261	N	0.527415	0.171587	0.090779
	N262	N	0.452571	0.816534	0.090960
	N263	N	0.527458	0.816912	0.920942
	N264	N	0.452340	0.909093	0.183324
	N265	N	0.527228	0.079825	0.184268
	N266	N	0.452551	0.079858	0.828217
	N267	N	0.527006	0.908454	0.827476
	N268	N	0.904225	0.172255	0.469108
	N269	N	0.075759	0.172738	0.542470
	N270	N	0.075629	0.814791	0.469513
	N271	N	0.903446	0.814775	0.542656
	N272	N	0.168052	0.456466	0.921133
	N273	N	0.166620	0.532100	0.090765
	N274	N	0.812668	0.456085	0.091173
	N275	N	0.813610	0.532337	0.921958
	O276	O	1.502854	0.479596	0.553341
	H277	H	1.506430	0.483118	0.557259
	H278	H	1.501060	0.481273	0.554296
	O279	O	0.514190	0.447629	0.562589
	H280	H	0.510789	0.443579	0.571480
	H281	H	0.518547	0.439855	0.554395
	O282	O	1.511023	1.457365	-0.448590
	H283	H	1.507559	1.459941	-0.451660
	H284	H	1.511065	1.459646	-0.449176
	O285	O	0.503238	0.482731	0.563767
	H286	H	0.497635	0.482536	0.563700
	H287	H	0.510219	0.476742	0.567409
