data_Molecule from HDF5

_cell_length_a		16.254520
_cell_length_b		16.228224
_cell_length_c		16.541331
_cell_angle_alpha	89.833710
_cell_angle_beta	90.079818
_cell_angle_gamma	90.248637
_symmetry_space_group_name_H-M	'P 1'
_symmetry_Int_Tables_number		1

loop_
	_symmetry_equiv_pos_as_xyz
	x,y,z

loop_
	_atom_site_label
	_atom_site_type_symbol
	_atom_site_fract_x
	_atom_site_fract_y
	_atom_site_fract_z
	H0	H	0.400158	0.836396	0.720415
	H1	H	0.614787	0.156090	0.720432
	H2	H	0.610555	0.834777	0.280082
	H3	H	0.401407	0.156089	0.277856
	H4	H	0.724912	0.394003	0.839620
	H5	H	0.728119	0.600573	0.157548
	H6	H	0.285521	0.600178	0.840070
	H7	H	0.286118	0.392456	0.157656
	H8	H	0.842598	0.710581	0.397511
	H9	H	0.167747	0.712448	0.599519
	H10	H	0.843468	0.276488	0.599828
	H11	H	0.168682	0.279549	0.398090
	H12	H	0.844812	0.387616	0.719519
	H13	H	0.164860	0.602706	0.720637
	H14	H	0.844953	0.600679	0.277424
	H15	H	0.165806	0.389366	0.277800
	H16	H	0.403357	0.717342	0.840638
	H17	H	0.609616	0.715193	0.159618
	H18	H	0.610003	0.276237	0.841073
	H19	H	0.403951	0.276574	0.158420
	H20	H	0.719443	0.831775	0.401166
	H21	H	0.724835	0.157576	0.600126
	H22	H	0.287970	0.833849	0.602025
	H23	H	0.290433	0.158192	0.397643
	H24	H	0.900525	0.334602	0.217953
	H25	H	0.111581	0.656772	0.219065
	H26	H	0.113243	0.335513	0.777390
	H27	H	0.900843	0.655333	0.777581
	H28	H	0.226584	0.892977	0.339520
	H29	H	0.228215	0.099495	0.657649
	H30	H	0.787607	0.096259	0.339448
	H31	H	0.785823	0.890462	0.658250
	H32	H	0.344298	0.214795	0.896250
	H33	H	0.668267	0.212839	0.099221
	H34	H	0.344514	0.778152	0.100811
	H35	H	0.669477	0.782510	0.900785
	H36	H	0.346049	0.888465	0.219836
	H37	H	0.665950	0.100971	0.219134
	H38	H	0.347997	0.106876	0.774277
	H39	H	0.665703	0.890678	0.777849
	H40	H	0.904213	0.213741	0.339777
	H41	H	0.112070	0.216532	0.657767
	H42	H	0.106169	0.777638	0.337926
	H43	H	0.900851	0.772418	0.656856
	H44	H	0.222196	0.333577	0.898326
	H45	H	0.223005	0.658868	0.099617
	H46	H	0.787900	0.334402	0.098617
	H47	H	0.791124	0.658616	0.897981
	H48	H	0.414763	0.111843	0.587700
	H49	H	0.600238	0.878656	0.591640
	H50	H	0.595243	0.112453	0.402395
	H51	H	0.411743	0.878339	0.407804
	H52	H	0.598609	0.403588	0.113791
	H53	H	0.597412	0.593186	0.885520
	H54	H	0.416433	0.586747	0.111427
	H55	H	0.419535	0.402989	0.886579
	H56	H	0.119437	0.584805	0.409117
	H57	H	0.890728	0.583806	0.586944
	H58	H	0.119676	0.408731	0.588624
	H59	H	0.894113	0.411259	0.413404
	H60	H	0.120732	0.408636	0.591944
	H61	H	0.891690	0.579955	0.587999
	H62	H	0.121024	0.583270	0.406122
	H63	H	0.889037	0.407840	0.399411
	H64	H	0.413933	0.588657	0.113189
	H65	H	0.600313	0.587639	0.885409
	H66	H	0.599263	0.408596	0.111806
	H67	H	0.410251	0.404915	0.884595
	H68	H	0.592572	0.108453	0.410744
	H69	H	0.589675	0.880308	0.596460
	H70	H	0.421628	0.111192	0.591557
	H71	H	0.420328	0.879470	0.404094
	H72	H	0.916301	0.610956	0.086235
	H73	H	0.095040	0.377416	0.097504
	H74	H	0.091092	0.610717	0.905542
	H75	H	0.915848	0.378988	0.905744
	H76	H	0.100770	0.900076	0.613589
	H77	H	0.095817	0.096161	0.384368
	H78	H	0.919799	0.082785	0.610049
	H79	H	0.912213	0.910738	0.387112
	H80	H	0.620745	0.082603	0.905948
	H81	H	0.391619	0.084287	0.087405
	H82	H	0.617373	0.913649	0.082469
	H83	H	0.393238	0.915658	0.906795
	H84	H	0.623153	0.913500	0.101920
	H85	H	0.390600	0.081677	0.092149
	H86	H	0.621998	0.090069	0.907705
	H87	H	0.388820	0.903971	0.905156
	H88	H	0.916666	0.089983	0.613292
	H89	H	0.106067	0.083138	0.384870
	H90	H	0.097231	0.911693	0.608837
	H91	H	0.918747	0.900557	0.386301
	H92	H	0.091611	0.608631	0.912240
	H93	H	0.088422	0.383965	0.089111
	H94	H	0.915413	0.613493	0.093191
	H95	H	0.918638	0.380880	0.909930
	H96	H	0.420900	0.109127	0.584635
	H97	H	0.591354	0.883778	0.585238
	H98	H	0.601593	0.112401	0.409304
	H99	H	0.419000	0.882333	0.413133
	H100	H	0.594637	0.406336	0.111281
	H101	H	0.595252	0.588028	0.887531
	H102	H	0.413592	0.585440	0.111990
	H103	H	0.416548	0.411776	0.887587
	H104	H	0.121390	0.586809	0.406294
	H105	H	0.890159	0.582586	0.591093
	H106	H	0.120754	0.405729	0.589746
	H107	H	0.888940	0.396914	0.410525
	H108	H	0.921954	0.611440	0.091117
	H109	H	0.099843	0.380138	0.086900
	H110	H	0.097092	0.611120	0.908687
	H111	H	0.913350	0.379790	0.910204
	H112	H	0.088757	0.901804	0.609547
	H113	H	0.090473	0.081353	0.389744
	H114	H	0.912131	0.082601	0.612734
	H115	H	0.907139	0.900656	0.383088
	H116	H	0.619687	0.085179	0.912380
	H117	H	0.389985	0.087356	0.091137
	H118	H	0.624969	0.896478	0.091081
	H119	H	0.393282	0.907561	0.916280
	C120	C	0.385896	0.004749	0.620383
	C121	C	0.627163	0.987391	0.621263
	C122	C	0.627238	0.003958	0.377713
	C123	C	0.385417	0.987159	0.377423
	C124	C	0.628268	0.374998	0.007389
	C125	C	0.628971	0.620067	0.991316
	C126	C	0.383620	0.618805	0.007435
	C127	C	0.384062	0.374320	0.990892
	C128	C	0.013939	0.616346	0.376758
	C129	C	0.997065	0.615515	0.619824
	C130	C	0.014150	0.374250	0.620736
	C131	C	0.997448	0.374255	0.377089
	C132	C	0.885537	0.504867	0.120187
	C133	C	0.126743	0.487174	0.121481
	C134	C	0.125867	0.503792	0.877991
	C135	C	0.884915	0.486844	0.877784
	C136	C	0.126764	0.873886	0.505982
	C137	C	0.128987	0.118070	0.490958
	C138	C	0.885065	0.116288	0.506996
	C139	C	0.882143	0.871964	0.490297
	C140	C	0.514747	0.118133	0.877212
	C141	C	0.497107	0.116436	0.120461
	C142	C	0.515034	0.875389	0.121738
	C143	C	0.498275	0.877045	0.878819
	C144	C	0.382597	0.884176	0.680323
	C145	C	0.631537	0.108358	0.680049
	C146	C	0.628609	0.882776	0.319654
	C147	C	0.383675	0.108297	0.318285
	C148	C	0.685955	0.374860	0.887508
	C149	C	0.688311	0.620112	0.110442
	C150	C	0.325075	0.619636	0.887816
	C151	C	0.325981	0.373484	0.110431
	C152	C	0.891628	0.672907	0.377546
	C153	C	0.118680	0.674394	0.619422
	C154	C	0.892350	0.315037	0.619961
	C155	C	0.119505	0.317464	0.378171
	C156	C	0.892968	0.370314	0.679651
	C157	C	0.117401	0.619321	0.679556
	C158	C	0.892835	0.618080	0.317798
	C159	C	0.118151	0.372294	0.318274
	C160	C	0.383616	0.678084	0.887970
	C161	C	0.629271	0.677336	0.111252
	C162	C	0.628757	0.316088	0.888260
	C163	C	0.384445	0.315858	0.110673
	C164	C	0.682711	0.881170	0.380015
	C165	C	0.686759	0.108794	0.620508
	C166	C	0.326858	0.882913	0.621115
	C167	C	0.328260	0.109156	0.377717
	C168	C	0.882846	0.382855	0.178065
	C169	C	0.129341	0.608683	0.179441
	C170	C	0.129983	0.383431	0.818008
	C171	C	0.882829	0.607757	0.817985
	C172	C	0.186167	0.873702	0.386691
	C173	C	0.188639	0.119005	0.610107
	C174	C	0.826757	0.116226	0.387166
	C175	C	0.824279	0.871000	0.610210
	C176	C	0.393392	0.176831	0.876487
	C177	C	0.619305	0.174644	0.119600
	C178	C	0.393261	0.816844	0.120401
	C179	C	0.620345	0.820006	0.880182
	C180	C	0.394051	0.871653	0.180141
	C181	C	0.618282	0.118999	0.179174
	C182	C	0.394969	0.122447	0.816179
	C183	C	0.618450	0.873935	0.819128
	C184	C	0.884854	0.174484	0.387230
	C185	C	0.130795	0.177332	0.610131
	C186	C	0.126446	0.816252	0.385818
	C187	C	0.881657	0.812288	0.609571
	C188	C	0.184299	0.382318	0.878405
	C189	C	0.185194	0.609554	0.120527
	C190	C	0.827017	0.382759	0.118796
	C191	C	0.828510	0.609494	0.878237
	C192	C	0.411689	0.088748	0.595300
	C193	C	0.601300	0.903012	0.597953
	C194	C	0.603435	0.088933	0.400674
	C195	C	0.409899	0.902245	0.401413
	C196	C	0.604363	0.399314	0.090696
	C197	C	0.604688	0.596619	0.907827
	C198	C	0.407849	0.594027	0.090563
	C199	C	0.408268	0.399405	0.908023
	C200	C	0.098633	0.591960	0.400293
	C201	C	0.912767	0.589560	0.595671
	C202	C	0.098333	0.400134	0.597007
	C203	C	0.912635	0.398439	0.400846
	C204	C	0.910745	0.589733	0.097066
	C205	C	0.101761	0.402570	0.097969
	C206	C	0.100396	0.588118	0.901828
	C207	C	0.908911	0.401918	0.901797
	C208	C	0.102797	0.897767	0.588945
	C209	C	0.104484	0.093811	0.408060
	C210	C	0.909288	0.092118	0.590314
	C211	C	0.905919	0.896864	0.406978
	C212	C	0.598845	0.093130	0.901497
	C213	C	0.412735	0.091610	0.096879
	C214	C	0.599883	0.900484	0.098526
	C215	C	0.413767	0.901893	0.902519
	Zn216	Zn	0.506356	-0.002881	0.749241
	Zn217	Zn	0.506301	-0.004420	0.249691
	Zn218	Zn	0.757575	0.497061	-0.001205
	Zn219	Zn	0.253647	0.495836	-0.000664
	Zn220	Zn	0.004861	0.743316	0.497906
	Zn221	Zn	0.006345	0.246959	0.498825
	Zn222	Zn	0.005217	0.495068	0.749204
	Zn223	Zn	0.005724	0.495546	0.249253
	Zn224	Zn	0.506419	0.748778	-0.000447
	Zn225	Zn	0.506117	0.245253	-0.000876
	Zn226	Zn	0.754367	-0.005211	0.499456
	Zn227	Zn	0.258325	-0.004468	0.498709
	N228	N	0.418084	0.961131	0.680346
	N229	N	0.595097	0.031834	0.680443
	N230	N	0.594699	0.960181	0.318189
	N231	N	0.418210	0.031108	0.318026
	N232	N	0.685756	0.410955	0.962754
	N233	N	0.688310	0.585299	0.034860
	N234	N	0.324828	0.583584	0.963139
	N235	N	0.325381	0.408909	0.034917
	N236	N	0.967797	0.671983	0.413462
	N237	N	0.042701	0.672083	0.582892
	N238	N	0.968679	0.317149	0.584198
	N239	N	0.043373	0.318735	0.414177
	N240	N	0.969733	0.406293	0.680403
	N241	N	0.040579	0.583627	0.680058
	N242	N	0.970082	0.583800	0.317187
	N243	N	0.041141	0.406943	0.317546
	N244	N	0.419142	0.677830	0.963421
	N245	N	0.593199	0.677457	0.036018
	N246	N	0.593593	0.316163	0.963633
	N247	N	0.419838	0.316396	0.035398
	N248	N	0.681878	0.957577	0.415688
	N249	N	0.684088	0.032600	0.584526
	N250	N	0.328516	0.959077	0.584692
	N251	N	0.329479	0.032766	0.413910
	N252	N	0.918269	0.459933	0.179208
	N253	N	0.094126	0.531565	0.180421
	N254	N	0.094356	0.459953	0.817544
	N255	N	0.917109	0.530458	0.817620
	N256	N	0.186881	0.908230	0.462473
	N257	N	0.187949	0.082907	0.535136
	N258	N	0.826707	0.080726	0.462628
	N259	N	0.824698	0.907628	0.535168
	N260	N	0.468782	0.174105	0.913987
	N261	N	0.542972	0.173251	0.083901
	N262	N	0.469594	0.819047	0.084795
	N263	N	0.544523	0.821949	0.916721
	N264	N	0.470870	0.907335	0.180978
	N265	N	0.541539	0.083260	0.179685
	N266	N	0.471552	0.086865	0.816425
	N267	N	0.541493	0.908565	0.818126
	N268	N	0.920426	0.174451	0.462675
	N269	N	0.094688	0.177050	0.534925
	N270	N	0.090309	0.816232	0.460901
	N271	N	0.916832	0.812862	0.534089
	N272	N	0.182067	0.458330	0.914821
	N273	N	0.183826	0.532888	0.085235
	N274	N	0.828566	0.459579	0.083746
	N275	N	0.829622	0.533150	0.914398
	O276	O	0.525390	0.616766	0.359582
	H277	H	0.535445	0.616364	0.355990
	H278	H	0.537752	0.597442	0.365234
	O279	O	0.455232	0.500435	0.604091
	H280	H	0.442083	0.501794	0.594507
	H281	H	0.458205	0.514394	0.602512
	O282	O	0.684444	0.621598	0.694348
	H283	H	0.677941	0.616239	0.702544
	H284	H	0.675255	0.630194	0.695018
	O285	O	1.220260	0.220593	0.194292
	H286	H	1.207920	0.219672	0.161789
	H287	H	1.233312	0.197885	0.197030
	O288	O	0.018885	-0.132616	1.188135
	H289	H	-0.002626	-0.126980	1.193239
	H290	H	-0.002692	-0.146811	1.197743
	O291	O	0.388973	0.639409	0.440329
	H292	H	0.399920	0.627377	0.407588
	H293	H	0.368634	0.652263	0.432685
	O294	O	0.650733	0.563403	0.359565
	H295	H	0.660591	0.552439	0.354019
	H296	H	0.649711	0.542170	0.365698
	O297	O	0.905887	1.128238	0.950672
	H298	H	0.916227	1.125571	0.935316
	H299	H	0.928013	1.127651	0.960388
	O300	O	-0.117301	0.173159	-0.163844
	H301	H	-0.120827	0.181712	-0.161928
	H302	H	-0.129332	0.191762	-0.163898
	O303	O	0.438487	0.622601	0.511404
	H304	H	0.445456	0.616847	0.504118
	H305	H	0.440289	0.615162	0.521927
	O306	O	1.020234	-0.114219	-0.052878
	H307	H	1.008025	-0.124511	-0.056970
	H308	H	1.013942	-0.125712	-0.050324
	O309	O	0.349656	0.374694	0.451442
	H310	H	0.330411	0.371773	0.452550
	H311	H	0.360657	0.380509	0.441679
	O312	O	0.852234	1.125307	-0.100894
	H313	H	0.851940	1.120886	-0.095051
	H314	H	0.846938	1.144486	-0.084908
	O315	O	0.568787	0.425087	0.449975
	H316	H	0.580646	0.426281	0.456117
	H317	H	0.553596	0.427817	0.449511
	O318	O	0.664767	0.327571	0.336845
	H319	H	0.660885	0.317358	0.331220
	H320	H	0.645916	0.325964	0.334484
	O321	O	1.138464	0.059442	0.848603
	H322	H	1.145362	0.042571	0.827635
	H323	H	1.129272	0.059686	0.834962
	O324	O	-0.013661	0.058381	0.819040
	H325	H	-0.006753	0.053094	0.813294
	H326	H	-0.010700	0.062375	0.797066
	O327	O	0.175067	0.833741	0.903526
	H328	H	0.172717	0.821995	0.893483
	H329	H	0.182593	0.822649	0.937572
	O330	O	0.688899	0.489047	0.621122
	H331	H	0.676579	0.492205	0.613336
	H332	H	0.702083	0.492695	0.625841
	O333	O	0.859878	1.130766	1.126112
	H334	H	0.880568	1.130224	1.129908
	H335	H	0.855242	1.127321	1.103430
	O336	O	0.654791	0.360759	0.469174
	H337	H	0.658995	0.353623	0.463392
	H338	H	0.658340	0.349335	0.452264
	O339	O	0.512723	0.306490	0.579063
	H340	H	0.504235	0.320526	0.576025
	H341	H	0.534670	0.301429	0.570181
	O342	O	0.086538	1.168988	0.990198
	H343	H	0.094451	1.156145	0.985953
	H344	H	0.093400	1.184248	0.979332
	O345	O	-0.125747	0.929803	0.844599
	H346	H	-0.140382	0.932246	0.842115
	H347	H	-0.107249	0.949176	0.836631
	O348	O	0.411353	0.442012	0.302855
	H349	H	0.397686	0.447103	0.291112
	H350	H	0.407538	0.433136	0.310490
	O351	O	-0.107850	-0.130891	0.001887
	H352	H	-0.124968	-0.121036	0.003940
	H353	H	-0.109229	-0.130472	0.011558
	O354	O	0.635251	0.545522	-0.495812
	H355	H	0.642228	0.553687	-0.492707
	H356	H	0.628861	0.540236	-0.502273
	O357	O	0.059877	1.113434	-0.012606
	H358	H	0.074891	1.115288	-0.031676
	H359	H	0.053523	1.088767	-0.010295
	O360	O	0.398573	0.361782	0.643627
	H361	H	0.418022	0.360180	0.669928
	H362	H	0.391853	0.343379	0.631228
	O363	O	0.377607	0.614741	0.348215
	H364	H	0.376565	0.591709	0.345351
	H365	H	0.409355	0.626590	0.340294
	O366	O	0.418289	0.501665	0.684569
	H367	H	0.432051	0.508784	0.680963
	H368	H	0.394291	0.495196	0.671626
	O369	O	0.504725	0.322334	0.379414
	H370	H	0.495303	0.332086	0.387563
	H371	H	0.501622	0.318466	0.383492
	O372	O	0.567564	0.616589	0.490512
	H373	H	0.572617	0.619660	0.503852
	H374	H	0.579585	0.612577	0.483572
	O375	O	0.594720	0.657400	0.624120
	H376	H	0.587166	0.649695	0.637713
	H377	H	0.596853	0.666393	0.613350
	O378	O	0.367851	0.640299	0.506882
	H379	H	0.391458	0.627827	0.498278
	H380	H	0.371012	0.644919	0.492407
	O381	O	0.557323	0.345998	0.606090
	H382	H	0.561418	0.354816	0.596780
	H383	H	0.566371	0.334818	0.609333
	O384	O	-0.007915	1.028864	1.196342
	H385	H	-0.002135	1.034870	1.197206
	H386	H	-0.003281	1.026237	1.192426
	O387	O	0.970610	0.958922	-0.011771
	H388	H	0.961786	0.952338	-0.013951
	H389	H	0.965668	0.962389	-0.018777
	O390	O	0.307650	0.464204	0.440937
	H391	H	0.287543	0.468193	0.426424
	H392	H	0.303263	0.478718	0.452937
	O393	O	1.179771	-0.099265	0.870366
	H394	H	1.174348	-0.114341	0.874198
	H395	H	1.179429	-0.111609	0.857504
	O396	O	-0.007377	0.918882	0.908026
	H397	H	0.003968	0.911451	0.899979
	H398	H	-0.006930	0.912085	0.904346
	O399	O	0.348021	0.339078	0.599286
	H400	H	0.348176	0.341708	0.610869
	H401	H	0.342257	0.321756	0.608255
	O402	O	1.067540	-0.073435	1.035907
	H403	H	1.059833	-0.071864	1.051192
	H404	H	1.067991	-0.081872	1.042142
	O405	O	0.012692	0.181723	0.146560
	H406	H	0.027824	0.191926	0.144566
	H407	H	0.028835	0.174607	0.152932
	O408	O	1.187189	0.908352	1.081954
	H409	H	1.176691	0.916605	1.091861
	H410	H	1.195692	0.907745	1.101037
	O411	O	1.121117	0.993691	-0.043943
	H412	H	1.122114	0.999507	-0.049661
	H413	H	1.127986	0.995286	-0.046747
	O414	O	-0.081742	-0.112980	1.028214
	H415	H	-0.074119	-0.109666	1.022200
	H416	H	-0.082832	-0.130749	1.041925
	O417	O	0.506338	0.585799	0.476367
	H418	H	0.517711	0.586637	0.478979
	H419	H	0.496855	0.585091	0.482693
	O420	O	-0.084997	0.816290	0.042012
	H421	H	-0.082222	0.823901	0.025858
	H422	H	-0.087425	0.819395	0.036072
	O423	O	1.185759	0.079764	0.114863
	H424	H	1.202963	0.074585	0.112549
	H425	H	1.191239	0.069637	0.113025
	O426	O	-0.138486	-0.054518	1.028357
	H427	H	-0.141793	-0.044584	1.025922
	H428	H	-0.136000	-0.053936	1.020452
	O429	O	0.483793	0.630973	0.486173
	H430	H	0.499119	0.611473	0.471521
	H431	H	0.478565	0.644796	0.491517
