data_Molecule from HDF5

_cell_length_a		16.607098
_cell_length_b		16.639385
_cell_length_c		16.472623
_cell_angle_alpha	90.034806
_cell_angle_beta	90.104473
_cell_angle_gamma	89.955821
_symmetry_space_group_name_H-M	'P 1'
_symmetry_Int_Tables_number		1

loop_
	_symmetry_equiv_pos_as_xyz
	x,y,z

loop_
	_atom_site_label
	_atom_site_type_symbol
	_atom_site_fract_x
	_atom_site_fract_y
	_atom_site_fract_z
	H0	H	0.398207	0.844658	0.720873
	H1	H	0.605113	0.156061	0.716840
	H2	H	0.611791	0.843241	0.272312
	H3	H	0.400415	0.154135	0.277628
	H4	H	0.724029	0.392772	0.840911
	H5	H	0.726161	0.603676	0.153974
	H6	H	0.283967	0.602338	0.841569
	H7	H	0.283215	0.394132	0.155825
	H8	H	0.846949	0.722237	0.388946
	H9	H	0.158107	0.720596	0.602561
	H10	H	0.847062	0.276339	0.603875
	H11	H	0.158616	0.279062	0.394427
	H12	H	0.847231	0.393384	0.719629
	H13	H	0.159377	0.602559	0.718155
	H14	H	0.845930	0.604273	0.274694
	H15	H	0.160626	0.399164	0.281530
	H16	H	0.400264	0.718163	0.840703
	H17	H	0.613010	0.722659	0.152499
	H18	H	0.607310	0.277212	0.841524
	H19	H	0.400480	0.279381	0.156368
	H20	H	0.728479	0.843614	0.387884
	H21	H	0.723714	0.154623	0.601803
	H22	H	0.278645	0.845863	0.607336
	H23	H	0.282175	0.153239	0.392711
	H24	H	0.902170	0.341772	0.215466
	H25	H	0.107407	0.655819	0.219035
	H26	H	0.107398	0.342346	0.777296
	H27	H	0.896375	0.653011	0.773178
	H28	H	0.227601	0.890328	0.342464
	H29	H	0.221792	0.100959	0.655049
	H30	H	0.783556	0.100776	0.339350
	H31	H	0.783126	0.893131	0.654961
	H32	H	0.348032	0.221617	0.891449
	H33	H	0.658550	0.221450	0.104146
	H34	H	0.350092	0.775325	0.103977
	H35	H	0.657777	0.775267	0.888663
	H36	H	0.348184	0.894683	0.217553
	H37	H	0.659611	0.102232	0.219125
	H38	H	0.347910	0.103494	0.776047
	H39	H	0.660567	0.895715	0.777289
	H40	H	0.899427	0.216272	0.338914
	H41	H	0.105720	0.217698	0.654940
	H42	H	0.110386	0.775131	0.341486
	H43	H	0.898595	0.776902	0.654540
	H44	H	0.225119	0.342663	0.894110
	H45	H	0.225508	0.655082	0.104382
	H46	H	0.782239	0.343142	0.101942
	H47	H	0.777050	0.650774	0.885926
	H48	H	0.408686	0.112981	0.587415
	H49	H	0.593693	0.885986	0.589969
	H50	H	0.586518	0.106029	0.410782
	H51	H	0.414590	0.885695	0.408845
	H52	H	0.592837	0.411769	0.110022
	H53	H	0.590985	0.582824	0.886077
	H54	H	0.414961	0.592088	0.112552
	H55	H	0.409545	0.410935	0.883992
	H56	H	0.113043	0.589143	0.410739
	H57	H	0.892742	0.584439	0.583842
	H58	H	0.116628	0.406538	0.592302
	H59	H	0.889492	0.413388	0.400397
	H60	H	0.115080	0.403367	0.581586
	H61	H	0.890960	0.586898	0.586284
	H62	H	0.112379	0.585785	0.409323
	H63	H	0.885888	0.399581	0.405056
	H64	H	0.412731	0.585451	0.112065
	H65	H	0.588055	0.586875	0.885844
	H66	H	0.591779	0.410189	0.110444
	H67	H	0.417069	0.412748	0.887791
	H68	H	0.595634	0.106957	0.415025
	H69	H	0.591256	0.887434	0.586292
	H70	H	0.417535	0.110391	0.589740
	H71	H	0.415660	0.886528	0.409477
	H72	H	0.920492	0.607104	0.081626
	H73	H	0.100803	0.385806	0.085845
	H74	H	0.094376	0.610647	0.908078
	H75	H	0.913886	0.386996	0.909850
	H76	H	0.087512	0.906195	0.609296
	H77	H	0.097112	0.086727	0.382129
	H78	H	0.908895	0.086631	0.611982
	H79	H	0.914048	0.913431	0.386017
	H80	H	0.615870	0.091278	0.911094
	H81	H	0.392490	0.087263	0.084300
	H82	H	0.616790	0.910373	0.089204
	H83	H	0.390164	0.906425	0.907169
	H84	H	0.615874	0.906974	0.081500
	H85	H	0.390942	0.087508	0.089429
	H86	H	0.614669	0.087079	0.909676
	H87	H	0.393647	0.909104	0.914450
	H88	H	0.916555	0.085124	0.608736
	H89	H	0.089880	0.086151	0.385925
	H90	H	0.094719	0.911655	0.609999
	H91	H	0.917734	0.909379	0.386629
	H92	H	0.092906	0.610297	0.908798
	H93	H	0.093656	0.385986	0.095547
	H94	H	0.908590	0.610204	0.080011
	H95	H	0.916592	0.388388	0.909041
	H96	H	0.414115	0.108989	0.580747
	H97	H	0.595849	0.886778	0.585760
	H98	H	0.593761	0.110507	0.405508
	H99	H	0.414307	0.886697	0.409905
	H100	H	0.593671	0.410163	0.110464
	H101	H	0.592550	0.587331	0.884414
	H102	H	0.418985	0.587160	0.110258
	H103	H	0.415775	0.404870	0.884123
	H104	H	0.114712	0.588414	0.407646
	H105	H	0.891986	0.587916	0.582747
	H106	H	0.111989	0.413280	0.585344
	H107	H	0.892362	0.409492	0.414479
	H108	H	0.914036	0.612369	0.091144
	H109	H	0.089848	0.390472	0.084753
	H110	H	0.094369	0.610193	0.909718
	H111	H	0.915633	0.388628	0.912022
	H112	H	0.086877	0.914814	0.606428
	H113	H	0.092003	0.093135	0.382353
	H114	H	0.914694	0.092575	0.611702
	H115	H	0.913144	0.908860	0.384236
	H116	H	0.616714	0.089604	0.906920
	H117	H	0.391426	0.092477	0.086081
	H118	H	0.613516	0.915057	0.082700
	H119	H	0.392940	0.914167	0.907702
	C120	C	0.381473	0.007966	0.619350
	C121	C	0.624345	0.990333	0.618704
	C122	C	0.625415	0.005923	0.376219
	C123	C	0.382421	0.989206	0.376689
	C124	C	0.624395	0.378180	0.006381
	C125	C	0.624992	0.619438	0.988478
	C126	C	0.383709	0.619652	0.007074
	C127	C	0.382346	0.377617	0.989668
	C128	C	0.010699	0.620847	0.375400
	C129	C	0.994857	0.618950	0.617702
	C130	C	0.011634	0.375957	0.619075
	C131	C	0.993417	0.377071	0.375860
	C132	C	0.882350	0.507113	0.117176
	C133	C	0.125932	0.490782	0.120359
	C134	C	0.125386	0.507100	0.876888
	C135	C	0.882142	0.489882	0.875926
	C136	C	0.123790	0.877381	0.505793
	C137	C	0.123851	0.119534	0.488218
	C138	C	0.881618	0.119175	0.506250
	C139	C	0.882415	0.877608	0.489384
	C140	C	0.512243	0.120885	0.876915
	C141	C	0.494987	0.120545	0.119214
	C142	C	0.512823	0.877958	0.117834
	C143	C	0.495170	0.877690	0.876425
	C144	C	0.379363	0.891354	0.680732
	C145	C	0.625047	0.108732	0.677519
	C146	C	0.629202	0.889816	0.313495
	C147	C	0.381401	0.106978	0.317329
	C148	C	0.683873	0.375028	0.887935
	C149	C	0.686422	0.622741	0.106558
	C150	C	0.323745	0.621251	0.888593
	C151	C	0.323077	0.375766	0.108507
	C152	C	0.893646	0.681882	0.371435
	C153	C	0.111760	0.679688	0.620794
	C154	C	0.893878	0.316423	0.621940
	C155	C	0.111870	0.318919	0.375668
	C156	C	0.894263	0.374362	0.679693
	C157	C	0.112131	0.621258	0.678328
	C158	C	0.893094	0.622939	0.314754
	C159	C	0.112742	0.378659	0.319650
	C160	C	0.381698	0.678576	0.888233
	C161	C	0.630123	0.681601	0.105828
	C162	C	0.626086	0.317630	0.888363
	C163	C	0.380953	0.318456	0.108656
	C164	C	0.687280	0.889828	0.371316
	C165	C	0.683667	0.108002	0.620375
	C166	C	0.320047	0.891899	0.624227
	C167	C	0.322754	0.106776	0.374466
	C168	C	0.882037	0.388975	0.176366
	C169	C	0.126494	0.608641	0.179594
	C170	C	0.126419	0.389059	0.817680
	C171	C	0.878345	0.605997	0.813527
	C172	C	0.186217	0.872978	0.388884
	C173	C	0.182161	0.120045	0.607761
	C174	C	0.822697	0.119817	0.387072
	C175	C	0.822773	0.874858	0.607674
	C176	C	0.394673	0.180947	0.873702
	C177	C	0.612217	0.180754	0.122323
	C178	C	0.396121	0.816451	0.121568
	C179	C	0.611729	0.816507	0.872159
	C180	C	0.395184	0.875718	0.177919
	C181	C	0.612728	0.121735	0.179292
	C182	C	0.394465	0.122487	0.816362
	C183	C	0.612715	0.876131	0.816212
	C184	C	0.880355	0.177285	0.386861
	C185	C	0.124659	0.178129	0.607496
	C186	C	0.128051	0.815791	0.388414
	C187	C	0.879973	0.816941	0.607322
	C188	C	0.184932	0.389390	0.875485
	C189	C	0.185400	0.608321	0.122596
	C190	C	0.822809	0.389508	0.119796
	C191	C	0.819090	0.605271	0.869907
	C192	C	0.406344	0.089630	0.593336
	C193	C	0.600254	0.908338	0.594375
	C194	C	0.599282	0.086771	0.402847
	C195	C	0.407640	0.907529	0.402214
	C196	C	0.599707	0.403574	0.088813
	C197	C	0.598284	0.593198	0.906810
	C198	C	0.408589	0.595084	0.090085
	C199	C	0.407021	0.402440	0.906843
	C200	C	0.092039	0.595145	0.401746
	C201	C	0.913163	0.593713	0.591776
	C202	C	0.093256	0.400553	0.593500
	C203	C	0.910807	0.400506	0.399881
	C204	C	0.907083	0.588617	0.091602
	C205	C	0.101937	0.408996	0.095525
	C206	C	0.100882	0.588980	0.901647
	C207	C	0.908029	0.409038	0.902696
	C208	C	0.097178	0.903427	0.587267
	C209	C	0.099801	0.095327	0.405104
	C210	C	0.906210	0.095171	0.589308
	C211	C	0.907883	0.903251	0.406966
	C212	C	0.594369	0.096287	0.902082
	C213	C	0.412984	0.095973	0.093887
	C214	C	0.594380	0.903428	0.091827
	C215	C	0.413515	0.902825	0.902417
	Zn216	Zn	0.503569	-0.000453	0.748058
	Zn217	Zn	0.503682	-0.001718	0.247429
	Zn218	Zn	0.752606	0.498346	-0.003051
	Zn219	Zn	0.254720	0.499303	-0.001144
	Zn220	Zn	0.002615	0.749091	0.497244
	Zn221	Zn	0.001996	0.247713	0.497020
	Zn222	Zn	0.003411	0.497963	0.747457
	Zn223	Zn	0.002359	0.499121	0.247510
	Zn224	Zn	0.504438	0.747965	-0.002560
	Zn225	Zn	0.503433	0.249613	-0.001600
	Zn226	Zn	0.754137	-0.001936	0.498039
	Zn227	Zn	0.252651	-0.001557	0.497484
	N228	N	0.416830	0.964674	0.677807
	N229	N	0.589082	0.034549	0.676750
	N230	N	0.591005	0.962961	0.316646
	N231	N	0.417729	0.032884	0.318559
	N232	N	0.682983	0.411846	0.962424
	N233	N	0.683378	0.584919	0.032527
	N234	N	0.324787	0.585409	0.963724
	N235	N	0.323374	0.411446	0.033288
	N236	N	0.967825	0.680768	0.408459
	N237	N	0.037622	0.678277	0.583796
	N238	N	0.967849	0.317176	0.585061
	N239	N	0.036586	0.317877	0.409953
	N240	N	0.968327	0.410992	0.677958
	N241	N	0.038396	0.584200	0.676520
	N242	N	0.966891	0.585831	0.316915
	N243	N	0.038028	0.414086	0.319512
	N244	N	0.417953	0.677894	0.963184
	N245	N	0.592844	0.679911	0.031299
	N246	N	0.590022	0.319347	0.963203
	N247	N	0.416871	0.319393	0.033639
	N248	N	0.684856	0.962899	0.409869
	N249	N	0.683514	0.033372	0.584554
	N250	N	0.321204	0.965532	0.586749
	N251	N	0.322974	0.032291	0.410452
	N252	N	0.918258	0.463065	0.175085
	N253	N	0.090062	0.534709	0.178320
	N254	N	0.090310	0.463187	0.818204
	N255	N	0.917001	0.533231	0.817346
	N256	N	0.183904	0.910608	0.462945
	N257	N	0.182215	0.084654	0.532395
	N258	N	0.823091	0.084715	0.462575
	N259	N	0.823880	0.911508	0.533000
	N260	N	0.468814	0.180033	0.910682
	N261	N	0.537976	0.180099	0.085906
	N262	N	0.470361	0.817485	0.085109
	N263	N	0.537619	0.817424	0.908913
	N264	N	0.468621	0.913345	0.175647
	N265	N	0.538724	0.085119	0.177516
	N266	N	0.468592	0.085949	0.818116
	N267	N	0.539105	0.913487	0.818528
	N268	N	0.916041	0.177336	0.462131
	N269	N	0.089396	0.178091	0.532124
	N270	N	0.090044	0.818262	0.462117
	N271	N	0.916094	0.818370	0.532443
	N272	N	0.184443	0.463846	0.911535
	N273	N	0.185339	0.533968	0.086650
	N274	N	0.822935	0.463886	0.083714
	N275	N	0.821276	0.532085	0.908147
	O276	O	-0.114714	0.792128	-0.130387
	H277	H	-0.106373	0.784961	-0.099731
	H278	H	-0.138061	0.775895	-0.133967
	O279	O	0.487753	0.466672	0.481223
	H280	H	0.485412	0.466049	0.485716
	H281	H	0.485141	0.459785	0.489829
	O282	O	0.810873	0.188466	1.185764
	H283	H	0.825144	0.165817	1.166250
	H284	H	0.829732	0.172684	1.165774
	O285	O	0.238735	0.227279	0.234623
	H286	H	0.259382	0.250354	0.251880
	H287	H	0.246033	0.236947	0.201185
	O288	O	0.285451	0.714001	0.712963
	H289	H	0.286209	0.714908	0.691496
	H290	H	0.278520	0.726068	0.717885
	O291	O	0.282378	0.278592	0.531270
	H292	H	0.268827	0.275312	0.545098
	H293	H	0.271769	0.266150	0.547764
	O294	O	0.924783	0.106922	0.929356
	H295	H	0.939090	0.108265	0.934419
	H296	H	0.900201	0.119413	0.914647
	O297	O	0.511359	0.644238	0.279353
	H298	H	0.506829	0.624123	0.282393
	H299	H	0.505484	0.645288	0.263639
	O300	O	-0.043081	0.210879	0.796914
	H301	H	-0.047992	0.215088	0.786071
	H302	H	-0.051710	0.213847	0.785826
	O303	O	0.573560	0.438705	0.721007
	H304	H	0.580751	0.454632	0.728173
	H305	H	0.579771	0.466035	0.722215
	O306	O	0.716018	0.292132	0.291073
	H307	H	0.683908	0.299128	0.292329
	H308	H	0.745091	0.258116	0.257162
	O309	O	0.720813	0.721957	0.525025
	H310	H	0.748111	0.738449	0.524089
	H311	H	0.718183	0.712509	0.525125
	O312	O	0.688481	0.535270	0.705712
	H313	H	0.691349	0.539457	0.680836
	H314	H	0.705844	0.536360	0.711989
	O315	O	0.812151	1.215465	0.985591
	H316	H	0.804388	1.233615	0.980593
	H317	H	0.806854	1.218615	0.961641
	O318	O	0.557064	0.337322	0.340075
	H319	H	0.560063	0.334489	0.338563
	H320	H	0.557312	0.334932	0.338852
	O321	O	0.031494	0.790330	0.784857
	H322	H	0.018858	0.763513	0.770203
	H323	H	0.033976	0.792664	0.801650
	O324	O	0.891187	0.871861	0.198894
	H325	H	0.897950	0.884391	0.183208
	H326	H	0.886981	0.872955	0.219180
	O327	O	0.032612	0.212966	1.213129
	H328	H	0.051491	0.221973	1.222450
	H329	H	0.056125	0.220755	1.222231
	O330	O	0.721971	0.278473	0.464099
	H331	H	0.746316	0.255911	0.444703
	H332	H	0.715776	0.275512	0.444065
	O333	O	0.464117	0.288249	0.704633
	H334	H	0.475300	0.285750	0.710744
	H335	H	0.486264	0.297604	0.710962
	O336	O	0.506954	0.673828	0.499370
	H337	H	0.510904	0.681825	0.489858
	H338	H	0.504704	0.675325	0.484771
	O339	O	0.783960	0.039514	0.783225
	H340	H	0.799311	0.043546	0.785065
	H341	H	0.762321	0.032657	0.762079
	O342	O	0.223778	0.217826	0.034778
	H343	H	0.221996	0.231389	0.031534
	H344	H	0.231409	0.225571	0.018057
	O345	O	0.220317	0.780929	0.963818
	H346	H	0.235425	0.769300	0.962321
	H347	H	0.227116	0.777606	0.965277
	O348	O	0.221502	-0.085310	0.209062
	H349	H	0.236763	-0.100335	0.219893
	H350	H	0.219843	-0.090573	0.212409
	O351	O	0.805975	0.800704	0.190335
	H352	H	0.803553	0.812111	0.157130
	H353	H	0.819338	0.826309	0.189324
	O354	O	0.196995	0.182179	0.811349
	H355	H	0.188918	0.153985	0.822077
	H356	H	0.172497	0.177635	0.834408
	O357	O	0.560901	0.737714	0.448712
	H358	H	0.561576	0.736965	0.418800
	H359	H	0.584612	0.735414	0.449967
	O360	O	0.297720	0.292873	0.701318
	H361	H	0.337627	0.286706	0.692260
	H362	H	0.281540	0.260050	0.732244
	O363	O	-0.076113	-0.123055	0.213477
	H364	H	-0.087547	-0.110519	0.205654
	H365	H	-0.082666	-0.134900	0.226901
	O366	O	0.721511	0.569245	0.462514
	H367	H	0.717209	0.564158	0.453465
	H368	H	0.715529	0.568770	0.459477
	O369	O	0.719243	0.465357	0.278877
	H370	H	0.729339	0.450988	0.278634
	H371	H	0.732843	0.449019	0.267193
	O372	O	0.788473	0.777996	0.019033
	H373	H	0.784113	0.799422	0.014130
	H374	H	0.766664	0.752519	0.012437
	O375	O	0.816393	-0.077434	-0.031787
	H376	H	0.824240	-0.079132	-0.055086
	H377	H	0.825731	-0.066902	-0.030770
	O378	O	0.459389	0.443839	0.276600
	H379	H	0.469533	0.439124	0.279561
	H380	H	0.441338	0.446998	0.278410
	O381	O	0.032954	1.128463	1.022748
	H382	H	0.027133	1.125856	1.025841
	H383	H	0.038937	1.130716	1.036782
	O384	O	1.216111	-0.117372	1.099510
	H385	H	1.226028	-0.132201	1.110196
	H386	H	1.224573	-0.108011	1.092478
	O387	O	0.924715	1.055417	0.209277
	H388	H	0.941014	1.066685	0.214688
	H389	H	0.939636	1.041294	0.208671
	O390	O	0.312496	0.664345	0.398483
	H391	H	0.326638	0.655242	0.417731
	H392	H	0.312248	0.663521	0.405742
	O393	O	0.423049	0.706354	0.460395
	H394	H	0.430184	0.704251	0.455663
	H395	H	0.444804	0.689572	0.450862
	O396	O	0.033116	1.006290	0.916795
	H397	H	0.028527	0.998059	0.924642
	H398	H	0.024297	0.993392	0.914982
	O399	O	-0.262051	-0.268127	0.733344
	H400	H	-0.260914	-0.254377	0.709055
	H401	H	-0.280507	-0.294004	0.717652
	O402	O	0.504859	0.562817	0.401749
	H403	H	0.510839	0.548167	0.395432
	H404	H	0.505670	0.558400	0.399324
	O405	O	1.098498	-0.211527	1.095996
	H406	H	1.093570	-0.211324	1.108728
	H407	H	1.111169	-0.198433	1.097197
	O408	O	0.066490	0.198476	-0.030368
	H409	H	0.053209	0.205697	-0.036636
	H410	H	0.050941	0.197381	-0.029110
	O411	O	0.305807	0.508839	0.544409
	H412	H	0.318589	0.515798	0.563119
	H413	H	0.301869	0.509059	0.553977
	O414	O	0.690211	0.309816	0.684833
	H415	H	0.675997	0.315581	0.666077
	H416	H	0.673446	0.334716	0.674047
	O417	O	0.308905	0.670282	0.520529
	H418	H	0.298990	0.669444	0.505466
	H419	H	0.313734	0.677452	0.516315
	O420	O	0.279385	0.464093	0.717603
	H421	H	0.270752	0.434344	0.721826
	H422	H	0.261986	0.443155	0.733793
	O423	O	0.178263	-0.162363	0.792416
	H424	H	0.151145	-0.143565	0.790077
	H425	H	0.183588	-0.164959	0.807183
	O426	O	0.312238	0.338085	0.331376
	H427	H	0.314715	0.363568	0.352566
	H428	H	0.331032	0.350759	0.340884
	O429	O	0.938708	1.019048	0.822773
	H430	H	0.945372	0.987617	0.820223
	H431	H	0.951809	1.014063	0.839564
	O432	O	0.618268	0.531900	0.577175
	H433	H	0.614711	0.535997	0.583854
	H434	H	0.622715	0.521854	0.559073
	O435	O	0.005093	0.894428	-0.126467
	H436	H	0.009647	0.880310	-0.117828
	H437	H	0.011798	0.887698	-0.124819
	O438	O	0.215742	0.031346	0.213194
	H439	H	0.233067	0.040890	0.225830
	H440	H	0.217564	0.047512	0.212506
	O441	O	0.020578	-0.046372	0.183890
	H442	H	0.035591	-0.041371	0.191450
	H443	H	0.008970	-0.057448	0.181915
	O444	O	0.535771	0.278986	0.436596
	H445	H	0.529716	0.281972	0.432791
	H446	H	0.533916	0.282843	0.433538
	O447	O	0.210730	0.975347	0.792455
	H448	H	0.213349	0.966002	0.782950
	H449	H	0.203566	0.977916	0.790342
	O450	O	0.227518	1.065019	0.950880
	H451	H	0.215101	1.060902	0.949215
	H452	H	0.229338	1.060772	0.954442
	O453	O	0.441259	0.541463	0.709612
	H454	H	0.420067	0.542596	0.718603
	H455	H	0.420927	0.551796	0.708644
	O456	O	-0.018822	-0.003670	0.969863
	H457	H	-0.009908	-0.021655	0.984394
	H458	H	-0.027513	-0.004952	0.972803
	O459	O	0.778041	1.085483	0.047338
	H460	H	0.773742	1.091227	0.031184
	H461	H	0.774972	1.081560	0.023533
	O462	O	0.507692	0.698116	0.646789
	H463	H	0.499833	0.709985	0.635400
	H464	H	0.508236	0.708665	0.652064
	O465	O	1.104191	-0.150669	0.030294
	H466	H	1.114931	-0.141033	0.034894
	H467	H	1.102217	-0.141499	0.031501
	O468	O	0.295087	0.577609	0.282539
	H469	H	0.269689	0.589704	0.255145
	H470	H	0.296783	0.589869	0.313424
	O471	O	0.509284	0.280092	0.491219
	H472	H	0.506364	0.287689	0.491233
	H473	H	0.507928	0.272388	0.485989
	O474	O	0.291389	0.469465	0.408263
	H475	H	0.282186	0.462229	0.418526
	H476	H	0.288244	0.491756	0.416341
	O477	O	0.475076	0.419486	1.549093
	H478	H	0.469826	0.430416	1.561802
	H479	H	0.458676	0.418337	1.553549
	O480	O	0.632908	0.600993	0.353612
	H481	H	0.644429	0.611251	0.354297
	H482	H	0.636708	0.603781	0.345261
	O483	O	0.720135	0.530966	0.594300
	H484	H	0.725313	0.508865	0.580156
	H485	H	0.698551	0.528589	0.585421
	O486	O	0.792435	0.208289	0.792948
	H487	H	0.767267	0.231588	0.771287
	H488	H	0.803772	0.183416	0.790382
	O489	O	0.981103	0.992653	-0.004702
	H490	H	0.970554	0.983112	-0.006840
	H491	H	0.984514	0.986635	-0.006560
