data_Molecule from HDF5

_cell_length_a		16.546257
_cell_length_b		16.262360
_cell_length_c		16.625467
_cell_angle_alpha	89.983250
_cell_angle_beta	89.941503
_cell_angle_gamma	89.980117
_symmetry_space_group_name_H-M	'P 1'
_symmetry_Int_Tables_number		1

loop_
	_symmetry_equiv_pos_as_xyz
	x,y,z

loop_
	_atom_site_label
	_atom_site_type_symbol
	_atom_site_fract_x
	_atom_site_fract_y
	_atom_site_fract_z
	H0	H	0.408312	0.838211	0.705026
	H1	H	0.624121	0.153764	0.709096
	H2	H	0.621021	0.837931	0.263479
	H3	H	0.406068	0.154598	0.259127
	H4	H	0.740296	0.386983	0.827331
	H5	H	0.738797	0.603970	0.139288
	H6	H	0.288692	0.606428	0.829448
	H7	H	0.286992	0.383636	0.136325
	H8	H	0.856344	0.714669	0.381234
	H9	H	0.173669	0.714489	0.584094
	H10	H	0.858064	0.272335	0.588954
	H11	H	0.173452	0.275396	0.380371
	H12	H	0.860977	0.381728	0.710593
	H13	H	0.169902	0.603726	0.707204
	H14	H	0.857437	0.601000	0.262158
	H15	H	0.171079	0.386501	0.259252
	H16	H	0.411297	0.717519	0.827472
	H17	H	0.616645	0.715075	0.142364
	H18	H	0.622376	0.271468	0.826484
	H19	H	0.408265	0.271852	0.139008
	H20	H	0.733543	0.836300	0.381968
	H21	H	0.738684	0.154642	0.592885
	H22	H	0.295824	0.838087	0.587511
	H23	H	0.293423	0.155491	0.376438
	H24	H	0.906392	0.335869	0.205144
	H25	H	0.118948	0.654493	0.203444
	H26	H	0.125038	0.337408	0.757629
	H27	H	0.910467	0.653791	0.762437
	H28	H	0.240836	0.889375	0.328898
	H29	H	0.241391	0.106935	0.638901
	H30	H	0.788853	0.106549	0.329791
	H31	H	0.793172	0.888675	0.639783
	H32	H	0.357560	0.219569	0.877100
	H33	H	0.673038	0.217163	0.085119
	H34	H	0.356391	0.778173	0.086348
	H35	H	0.671580	0.777316	0.881882
	H36	H	0.359875	0.888294	0.208355
	H37	H	0.671078	0.106531	0.207682
	H38	H	0.359925	0.109285	0.755877
	H39	H	0.668784	0.887900	0.759659
	H40	H	0.911728	0.215763	0.325856
	H41	H	0.120212	0.218753	0.640251
	H42	H	0.119262	0.777824	0.324867
	H43	H	0.914327	0.776313	0.640617
	H44	H	0.239582	0.337528	0.873738
	H45	H	0.234475	0.654829	0.087262
	H46	H	0.792159	0.336489	0.088084
	H47	H	0.797615	0.655820	0.880640
	H48	H	0.429849	0.110882	0.573721
	H49	H	0.613801	0.879329	0.571262
	H50	H	0.604465	0.111514	0.397407
	H51	H	0.428607	0.883146	0.395008
	H52	H	0.595513	0.413283	0.088621
	H53	H	0.608917	0.583400	0.871942
	H54	H	0.419812	0.584783	0.097370
	H55	H	0.428052	0.407884	0.872933
	H56	H	0.128191	0.587088	0.390980
	H57	H	0.902659	0.588083	0.569984
	H58	H	0.127175	0.414326	0.577840
	H59	H	0.904126	0.409842	0.393287
	H60	H	0.128585	0.401340	0.570847
	H61	H	0.905550	0.578868	0.569788
	H62	H	0.127440	0.583558	0.391648
	H63	H	0.901720	0.407422	0.390379
	H64	H	0.424373	0.580898	0.094107
	H65	H	0.603640	0.586006	0.872994
	H66	H	0.602699	0.400996	0.095398
	H67	H	0.424614	0.411483	0.871636
	H68	H	0.602465	0.112320	0.393241
	H69	H	0.597897	0.881102	0.582067
	H70	H	0.431672	0.108920	0.569155
	H71	H	0.428092	0.882695	0.395925
	H72	H	0.927114	0.611604	0.081373
	H73	H	0.092939	0.384476	0.070566
	H74	H	0.094511	0.605887	0.891916
	H75	H	0.924832	0.381417	0.900651
	H76	H	0.100970	0.906492	0.594031
	H77	H	0.105419	0.077824	0.374882
	H78	H	0.922776	0.084100	0.596309
	H79	H	0.924389	0.906771	0.370422
	H80	H	0.619745	0.075034	0.902433
	H81	H	0.404763	0.079431	0.073296
	H82	H	0.627820	0.903741	0.070762
	H83	H	0.400905	0.908844	0.892779
	H84	H	0.625533	0.911515	0.073420
	H85	H	0.402630	0.084115	0.074403
	H86	H	0.626929	0.076947	0.885152
	H87	H	0.400658	0.907623	0.892738
	H88	H	0.926094	0.079518	0.593349
	H89	H	0.101164	0.085495	0.373901
	H90	H	0.108792	0.902372	0.597498
	H91	H	0.922561	0.906973	0.370338
	H92	H	0.101258	0.606062	0.901735
	H93	H	0.103910	0.383487	0.063097
	H94	H	0.933049	0.605606	0.068725
	H95	H	0.925063	0.378276	0.891099
	H96	H	0.426800	0.111471	0.569375
	H97	H	0.597874	0.888025	0.563960
	H98	H	0.600543	0.109551	0.396637
	H99	H	0.427801	0.883032	0.394892
	H100	H	0.610073	0.414473	0.093475
	H101	H	0.608141	0.589146	0.870186
	H102	H	0.425529	0.587242	0.096256
	H103	H	0.428361	0.412693	0.874929
	H104	H	0.128534	0.584479	0.388218
	H105	H	0.901619	0.582281	0.577636
	H106	H	0.122786	0.413291	0.564222
	H107	H	0.902612	0.405977	0.394236
	H108	H	0.919046	0.611246	0.068963
	H109	H	0.103840	0.378889	0.074933
	H110	H	0.105159	0.610985	0.891522
	H111	H	0.933407	0.382713	0.895024
	H112	H	0.109087	0.911420	0.594585
	H113	H	0.109210	0.084955	0.371015
	H114	H	0.928927	0.085669	0.595180
	H115	H	0.923017	0.908559	0.371024
	H116	H	0.627335	0.091439	0.897201
	H117	H	0.404763	0.083104	0.069578
	H118	H	0.629455	0.906492	0.078684
	H119	H	0.400782	0.908120	0.894197
	C120	C	0.395509	0.005914	0.603976
	C121	C	0.636317	0.987634	0.605622
	C122	C	0.635452	0.005660	0.363501
	C123	C	0.394550	0.987829	0.362327
	C124	C	0.636264	0.375149	-0.010149
	C125	C	0.637922	0.618811	0.975593
	C126	C	0.391712	0.617363	-0.007504
	C127	C	0.392607	0.374513	0.974787
	C128	C	0.023751	0.617480	0.359789
	C129	C	1.007305	0.616019	0.603786
	C130	C	0.023239	0.374268	0.604992
	C131	C	1.006921	0.374445	0.361079
	C132	C	0.892979	0.504024	0.104946
	C133	C	0.133768	0.486973	0.102731
	C134	C	0.135666	0.503665	0.861078
	C135	C	0.895394	0.486103	0.863185
	C136	C	0.138081	0.874817	0.491595
	C137	C	0.137850	0.117386	0.475721
	C138	C	0.893071	0.117061	0.491949
	C139	C	0.893073	0.874678	0.474824
	C140	C	0.522294	0.116771	0.861471
	C141	C	0.507028	0.116934	0.104725
	C142	C	0.523631	0.874648	0.106308
	C143	C	0.504526	0.874942	0.861501
	C144	C	0.391267	0.886085	0.664611
	C145	C	0.640769	0.106529	0.667807
	C146	C	0.638668	0.885584	0.303575
	C147	C	0.389580	0.106996	0.300362
	C148	C	0.698768	0.370376	0.873778
	C149	C	0.697843	0.621600	0.092916
	C150	C	0.330425	0.622517	0.875549
	C151	C	0.328985	0.367655	0.090414
	C152	C	0.904395	0.675984	0.360993
	C153	C	0.125979	0.675353	0.604238
	C154	C	0.905654	0.311844	0.607778
	C155	C	0.125508	0.314307	0.360324
	C156	C	0.907088	0.366749	0.668211
	C157	C	0.124081	0.620246	0.665264
	C158	C	0.904876	0.619277	0.301735
	C159	C	0.124280	0.369622	0.299901
	C160	C	0.391080	0.678027	0.874649
	C161	C	0.637224	0.677209	0.094308
	C162	C	0.639691	0.312887	0.873054
	C163	C	0.389344	0.311787	0.091479
	C164	C	0.694884	0.885007	0.362260
	C165	C	0.697718	0.106992	0.609745
	C166	C	0.335317	0.885903	0.606121
	C167	C	0.333281	0.107606	0.358825
	C168	C	0.889074	0.383796	0.164782
	C169	C	0.136897	0.606757	0.163321
	C170	C	0.141668	0.384832	0.798972
	C171	C	0.892844	0.606264	0.802861
	C172	C	0.199366	0.871699	0.374919
	C173	C	0.199926	0.123395	0.592442
	C174	C	0.830615	0.122695	0.375762
	C175	C	0.833642	0.871240	0.592653
	C176	C	0.404849	0.179504	0.858451
	C177	C	0.625462	0.177940	0.105618
	C178	C	0.404220	0.816660	0.106416
	C179	C	0.623773	0.816020	0.861746
	C180	C	0.406212	0.871515	0.167086
	C181	C	0.624410	0.122731	0.166238
	C182	C	0.405901	0.124194	0.798296
	C183	C	0.622398	0.870956	0.801034
	C184	C	0.891839	0.177254	0.373817
	C185	C	0.139770	0.179173	0.593149
	C186	C	0.138736	0.816206	0.373065
	C187	C	0.893759	0.815038	0.593180
	C188	C	0.198669	0.384981	0.856921
	C189	C	0.194487	0.606939	0.105721
	C190	C	0.831895	0.384224	0.107014
	C191	C	0.836802	0.607311	0.861718
	C192	C	0.421889	0.088914	0.578081
	C193	C	0.610551	0.904439	0.579748
	C194	C	0.609838	0.089405	0.388529
	C195	C	0.420647	0.904761	0.387944
	C196	C	0.610086	0.402068	0.071254
	C197	C	0.613888	0.593523	0.893245
	C198	C	0.416289	0.591624	0.074357
	C199	C	0.419474	0.402640	0.894085
	C200	C	0.106499	0.592305	0.383511
	C201	C	0.924845	0.590473	0.579415
	C202	C	0.104738	0.401805	0.578597
	C203	C	0.924398	0.400241	0.385603
	C204	C	0.918877	0.587761	0.080266
	C205	C	0.107753	0.404001	0.076834
	C206	C	0.108235	0.586111	0.887708
	C207	C	0.920347	0.402679	0.888507
	C208	C	0.113391	0.899871	0.573928
	C209	C	0.112448	0.090494	0.394507
	C210	C	0.918648	0.090792	0.573402
	C211	C	0.916525	0.900259	0.392169
	C212	C	0.603456	0.088970	0.887422
	C213	C	0.425405	0.089990	0.079583
	C214	C	0.606004	0.900046	0.081374
	C215	C	0.422271	0.900715	0.886096
	Zn216	Zn	0.514210	-0.003304	0.732432
	Zn217	Zn	0.515665	-0.003234	0.234822
	Zn218	Zn	0.766602	0.495835	-0.016733
	Zn219	Zn	0.262542	0.495296	-0.017280
	Zn220	Zn	0.015821	0.745612	0.482225
	Zn221	Zn	0.015220	0.245864	0.483308
	Zn222	Zn	0.014663	0.494562	0.733669
	Zn223	Zn	0.014321	0.494522	0.231385
	Zn224	Zn	0.514335	0.746523	-0.015525
	Zn225	Zn	0.514938	0.245233	-0.017495
	Zn226	Zn	0.763559	-0.003438	0.484208
	Zn227	Zn	0.267708	-0.002987	0.483842
	N228	N	0.428070	0.961801	0.663318
	N229	N	0.603369	0.031052	0.665583
	N230	N	0.602717	0.961697	0.304141
	N231	N	0.427103	0.031616	0.302378
	N232	N	0.696606	0.408391	0.947555
	N233	N	0.698619	0.586137	0.017968
	N234	N	0.330719	0.585392	0.949865
	N235	N	0.331029	0.406092	0.016821
	N236	N	0.979487	0.675282	0.396076
	N237	N	0.052230	0.672869	0.566686
	N238	N	0.978917	0.316362	0.568992
	N239	N	0.051455	0.317103	0.397514
	N240	N	0.981333	0.404611	0.666536
	N241	N	0.049286	0.583995	0.664982
	N242	N	0.980358	0.583949	0.300509
	N243	N	0.049337	0.405946	0.300178
	N244	N	0.428553	0.674829	0.948317
	N245	N	0.600789	0.675714	0.020097
	N246	N	0.601503	0.315868	0.946372
	N247	N	0.428245	0.315996	0.018458
	N248	N	0.693196	0.960866	0.398660
	N249	N	0.694998	0.032106	0.571797
	N250	N	0.337822	0.961319	0.569178
	N251	N	0.336156	0.032467	0.396694
	N252	N	0.926327	0.459321	0.163523
	N253	N	0.100015	0.531176	0.161535
	N254	N	0.103067	0.459638	0.801506
	N255	N	0.928379	0.529855	0.803445
	N256	N	0.199233	0.907158	0.449758
	N257	N	0.199076	0.085937	0.518256
	N258	N	0.831105	0.086401	0.450330
	N259	N	0.833029	0.907388	0.517827
	N260	N	0.478077	0.174999	0.896957
	N261	N	0.551595	0.174637	0.068278
	N262	N	0.478389	0.818305	0.069446
	N263	N	0.549394	0.818190	0.898592
	N264	N	0.481601	0.906757	0.167141
	N265	N	0.549649	0.085827	0.166123
	N266	N	0.480077	0.086183	0.799803
	N267	N	0.547238	0.906789	0.800778
	N268	N	0.930045	0.174026	0.447105
	N269	N	0.102112	0.175863	0.519729
	N270	N	0.101461	0.817766	0.446934
	N271	N	0.929854	0.816948	0.518777
	N272	N	0.195264	0.460181	0.894592
	N273	N	0.192657	0.531484	0.068682
	N274	N	0.834061	0.460160	0.070873
	N275	N	0.837984	0.531604	0.898223
	O276	O	0.715165	0.674446	0.540184
	H277	H	0.718293	0.664454	0.538021
	H278	H	0.727399	0.683985	0.558254
	O279	O	0.753414	1.225203	1.217380
	H280	H	0.753187	1.259054	1.216922
	H281	H	0.744231	1.227221	1.197375
	O282	O	0.802020	0.968762	0.199094
	H283	H	0.808556	0.993567	0.202587
	H284	H	0.795668	0.977749	0.219414
	O285	O	0.121427	-0.179894	0.863199
	H286	H	0.130550	-0.182337	0.850925
	H287	H	0.118857	-0.180241	0.901636
	O288	O	0.148467	0.011442	0.197594
	H289	H	0.153858	0.006128	0.196797
	H290	H	0.147010	-0.008120	0.196309
	O291	O	0.798784	0.784851	0.010990
	H292	H	0.800009	0.797313	0.049557
	H293	H	0.772670	0.757520	0.025316
	O294	O	0.656166	0.473099	-0.423626
	H295	H	0.651037	0.482136	-0.449316
	H296	H	0.657170	0.444138	-0.437674
	O297	O	0.294058	0.513552	0.504181
	H298	H	0.298009	0.524300	0.495986
	H299	H	0.290935	0.502129	0.526859
	O300	O	0.411008	0.652896	0.550483
	H301	H	0.424153	0.647337	0.561765
	H302	H	0.417160	0.634782	0.553546
	O303	O	1.079727	0.064746	-0.241855
	H304	H	1.084889	0.049920	-0.244870
	H305	H	1.074816	0.050821	-0.240529
	O306	O	0.200672	1.179205	1.165395
	H307	H	0.210705	1.128813	1.170367
	H308	H	0.211519	1.185974	1.118456
	O309	O	0.574824	0.409542	0.656897
	H310	H	0.590343	0.409432	0.649106
	H311	H	0.574012	0.419290	0.647943
	O312	O	0.627184	0.462947	0.563410
	H313	H	0.631509	0.458258	0.573571
	H314	H	0.631751	0.451263	0.551042
	O315	O	0.318545	-0.325350	1.285850
	H316	H	0.333188	-0.330576	1.303267
	H317	H	0.326683	-0.327702	1.307534
	O318	O	-1.009208	0.206765	-0.226354
	H319	H	-0.997273	0.212937	-0.244792
	H320	H	-0.990078	0.205449	-0.224694
	O321	O	0.863480	0.198888	1.011974
	H322	H	0.857536	0.211785	1.022135
	H323	H	0.882561	0.198992	0.984118
	O324	O	0.719707	0.394086	0.273526
	H325	H	0.714595	0.384407	0.259885
	H326	H	0.708663	0.406044	0.283942
	O327	O	0.805728	0.012075	0.777506
	H328	H	0.790720	0.012337	0.760555
	H329	H	0.801634	0.024248	0.795913
	O330	O	0.077916	0.210870	-0.079180
	H331	H	0.075780	0.195727	-0.093431
	H332	H	0.070820	0.218437	-0.064343
	O333	O	0.832394	1.175584	0.803540
	H334	H	0.837680	1.164353	0.820842
	H335	H	0.871545	1.172783	0.793693
	O336	O	1.225296	-0.211025	0.950641
	H337	H	1.214096	-0.224909	0.955454
	H338	H	1.232188	-0.222811	0.955650
	O339	O	0.335046	0.705226	0.477534
	H340	H	0.336614	0.712411	0.487476
	H341	H	0.342338	0.715462	0.489590
	O342	O	0.510728	0.675011	0.384380
	H343	H	0.521266	0.662710	0.376727
	H344	H	0.517650	0.681027	0.405180
	O345	O	-0.087527	0.003643	0.008380
	H346	H	-0.085958	0.000538	-0.002322
	H347	H	-0.091585	0.003932	0.029867
	O348	O	0.734291	0.281926	0.461886
	H349	H	0.714394	0.287896	0.455629
	H350	H	0.762143	0.249551	0.462357
	O351	O	1.041840	1.213256	0.202280
	H352	H	1.058461	1.242265	0.226236
	H353	H	1.079566	1.210114	0.199218
	O354	O	0.496437	0.285199	0.698337
	H355	H	0.505016	0.292356	0.716302
	H356	H	0.487054	0.272181	0.706821
	O357	O	0.819023	0.804303	1.181391
	H358	H	0.814684	0.848877	1.192740
	H359	H	0.825915	0.787572	1.203790
	O360	O	-0.013900	0.781267	1.198649
	H361	H	-0.010042	0.777096	1.205215
	H362	H	-0.025454	0.768250	1.215268
	O363	O	0.347936	0.662020	0.737921
	H364	H	0.361730	0.667014	0.742610
	H365	H	0.350145	0.660076	0.733484
	O366	O	0.979511	0.107620	1.028437
	H367	H	0.976846	0.102055	1.015877
	H368	H	0.983879	0.118015	1.037207
	O369	O	0.542495	0.437094	0.475881
	H370	H	0.528492	0.428682	0.473030
	H371	H	0.534311	0.434659	0.481240
	O372	O	0.231364	-0.024452	0.768405
	H373	H	0.249890	-0.026574	0.765344
	H374	H	0.230440	-0.038847	0.756061
	O375	O	-0.170873	0.916669	0.924555
	H376	H	-0.175861	0.914993	0.935189
	H377	H	-0.172532	0.920164	0.943032
	O378	O	1.100907	1.042808	-0.001431
	H379	H	1.096124	1.034821	-0.003401
	H380	H	1.112811	1.044449	-0.015349
	O381	O	1.562533	-0.718093	0.513519
	H382	H	1.573955	-0.707749	0.504638
	H383	H	1.559165	-0.726563	0.523034
	O384	O	-0.120191	-0.144492	0.789529
	H385	H	-0.128500	-0.123563	0.797169
	H386	H	-0.098144	-0.148303	0.797930
	O387	O	-0.455432	1.296942	1.280165
	H388	H	-0.462244	1.279542	1.258583
	H389	H	-0.462675	1.296343	1.284488
	O390	O	0.659308	0.685446	1.636120
	H391	H	0.679032	0.696250	1.654735
	H392	H	0.666320	0.661381	1.628947
	O393	O	0.091355	0.837576	0.071013
	H394	H	0.075754	0.843232	0.079839
	H395	H	0.075406	0.830981	0.060310
	O396	O	0.712188	0.665366	0.385020
	H397	H	0.701388	0.660228	0.400479
	H398	H	0.710337	0.659123	0.392581
	O399	O	0.436983	0.659811	0.590083
	H400	H	0.451937	0.657944	0.593523
	H401	H	0.463133	0.635619	0.588752
	O402	O	0.228232	0.016826	1.045903
	H403	H	0.223928	-0.005561	1.037522
	H404	H	0.222235	-0.000243	1.063423
	O405	O	0.558089	0.461906	-0.600389
	H406	H	0.551067	0.461288	-0.594788
	H407	H	0.561921	0.459647	-0.591303
	O408	O	0.849475	1.124135	1.014070
	H409	H	0.856346	1.141339	1.017186
	H410	H	0.857494	1.114628	1.038489
	O411	O	0.538929	0.693186	0.690593
	H412	H	0.564688	0.697632	0.697260
	H413	H	0.556073	0.708342	0.701903
	O414	O	0.306145	0.498037	0.268521
	H415	H	0.302384	0.514723	0.257841
	H416	H	0.301571	0.508193	0.263348
	O417	O	0.724849	0.543164	0.368051
	H418	H	0.712906	0.530775	0.362107
	H419	H	0.730368	0.548343	0.364649
	O420	O	0.306388	0.283332	0.507676
	H421	H	0.308785	0.290391	0.510330
	H422	H	0.290492	0.264561	0.510990
	O423	O	-0.001109	0.954596	-0.158550
	H424	H	0.007498	0.951775	-0.160854
	H425	H	-0.007309	0.948063	-0.155484
	O426	O	1.193152	0.890511	1.093134
	H427	H	1.171410	0.892745	1.088862
	H428	H	1.203216	0.855922	1.095792
	O429	O	0.736230	0.523023	0.699646
	H430	H	0.732119	0.514014	0.678311
	H431	H	0.762727	0.523143	0.725881
	O432	O	0.038558	-0.207661	0.778350
	H433	H	0.049972	-0.216462	0.775605
	H434	H	0.046910	-0.207711	0.777827
	O435	O	0.337922	-0.467474	0.473605
	H436	H	0.348805	-0.467126	0.465743
	H437	H	0.328634	-0.476153	0.484167
	O438	O	0.974172	0.003286	0.195687
	H439	H	0.979509	0.011384	0.192314
	H440	H	0.987898	0.009744	0.188071
	O441	O	0.411171	0.425830	0.310290
	H442	H	0.403201	0.427825	0.323313
	H443	H	0.400638	0.426483	0.294392
	O444	O	0.165426	0.957909	0.980859
	H445	H	0.169437	0.980141	0.975889
	H446	H	0.165538	0.949908	0.994529
	O447	O	0.336768	0.316873	0.665123
	H448	H	0.335204	0.329438	0.648597
	H449	H	0.357216	0.331485	0.673053
	O450	O	0.491992	0.655751	0.266976
	H451	H	0.484662	0.671572	0.271788
	H452	H	0.508379	0.668537	0.264973
	O453	O	-0.038235	0.785317	-0.059347
	H454	H	-0.071691	0.791654	-0.050869
	H455	H	-0.041250	0.784368	-0.069754
	O456	O	0.221273	1.203619	0.004898
	H457	H	0.213352	1.183251	-0.019871
	H458	H	0.243181	1.232466	-0.001206
	O459	O	0.422039	0.329956	0.352669
	H460	H	0.419728	0.338175	0.353626
	H461	H	0.410947	0.326900	0.359774
	O462	O	0.548780	0.553000	0.340818
	H463	H	0.532575	0.549045	0.348284
	H464	H	0.540485	0.555740	0.339691
	O465	O	0.307560	0.475259	0.696109
	H466	H	0.330523	0.486359	0.685498
	H467	H	0.283060	0.476626	0.726987
