data_Molecule from HDF5

_cell_length_a		16.131241
_cell_length_b		16.085947
_cell_length_c		16.412605
_cell_angle_alpha	89.790761
_cell_angle_beta	89.562085
_cell_angle_gamma	89.921952
_symmetry_space_group_name_H-M	'P 1'
_symmetry_Int_Tables_number		1

loop_
	_symmetry_equiv_pos_as_xyz
	x,y,z

loop_
	_atom_site_label
	_atom_site_type_symbol
	_atom_site_fract_x
	_atom_site_fract_y
	_atom_site_fract_z
	H0	H	0.398134	0.846694	0.718447
	H1	H	0.600572	0.175820	0.716005
	H2	H	0.601385	0.845668	0.287350
	H3	H	0.399562	0.176107	0.286200
	H4	H	0.716188	0.413353	0.838963
	H5	H	0.713415	0.609183	0.164959
	H6	H	0.286064	0.611517	0.838610
	H7	H	0.282754	0.413031	0.164107
	H8	H	0.834151	0.725098	0.406028
	H9	H	0.166677	0.721698	0.593689
	H10	H	0.833482	0.301044	0.598381
	H11	H	0.165571	0.302568	0.405177
	H12	H	0.836025	0.409878	0.718885
	H13	H	0.164133	0.613187	0.715511
	H14	H	0.834830	0.615027	0.286167
	H15	H	0.162900	0.410429	0.284009
	H16	H	0.401167	0.728814	0.839700
	H17	H	0.593060	0.723162	0.166300
	H18	H	0.598787	0.298326	0.838806
	H19	H	0.400549	0.297048	0.164995
	H20	H	0.712777	0.844933	0.405467
	H21	H	0.708805	0.177675	0.595628
	H22	H	0.287208	0.845507	0.599346
	H23	H	0.291678	0.178826	0.407165
	H24	H	0.896267	0.347473	0.219296
	H25	H	0.098732	0.676613	0.213723
	H26	H	0.102042	0.347044	0.785459
	H27	H	0.899007	0.676549	0.785856
	H28	H	0.217369	0.915166	0.338644
	H29	H	0.212564	0.109939	0.664951
	H30	H	0.786345	0.110300	0.337809
	H31	H	0.784039	0.912520	0.664605
	H32	H	0.333983	0.222844	0.908747
	H33	H	0.667040	0.221258	0.095536
	H34	H	0.333232	0.802117	0.099402
	H35	H	0.664862	0.800170	0.906230
	H36	H	0.336110	0.911028	0.219576
	H37	H	0.664466	0.111610	0.216270
	H38	H	0.336288	0.114341	0.787271
	H39	H	0.663330	0.908960	0.785924
	H40	H	0.903825	0.226863	0.337506
	H41	H	0.095246	0.226202	0.663829
	H42	H	0.100080	0.799142	0.337495
	H43	H	0.902067	0.797503	0.664524
	H44	H	0.212382	0.345687	0.904620
	H45	H	0.208959	0.678121	0.094571
	H46	H	0.787016	0.345906	0.098321
	H47	H	0.787866	0.677443	0.904714
	H48	H	0.416083	0.127292	0.594188
	H49	H	0.588870	0.894987	0.588847
	H50	H	0.591399	0.132404	0.395525
	H51	H	0.403549	0.893514	0.416763
	H52	H	0.592874	0.423250	0.116816
	H53	H	0.587743	0.609588	0.887177
	H54	H	0.394296	0.611419	0.121479
	H55	H	0.406737	0.411681	0.883481
	H56	H	0.116458	0.603810	0.407053
	H57	H	0.883354	0.601594	0.593538
	H58	H	0.118820	0.417258	0.595477
	H59	H	0.880626	0.424485	0.403397
	H60	H	0.117450	0.419845	0.591342
	H61	H	0.881346	0.602881	0.598478
	H62	H	0.117983	0.601914	0.402610
	H63	H	0.878237	0.415414	0.408268
	H64	H	0.401922	0.595522	0.115930
	H65	H	0.599574	0.610280	0.884049
	H66	H	0.587560	0.413221	0.117208
	H67	H	0.401983	0.420966	0.885077
	H68	H	0.582884	0.124990	0.412655
	H69	H	0.599178	0.889878	0.596318
	H70	H	0.402013	0.130054	0.589980
	H71	H	0.405607	0.889413	0.401816
	H72	H	0.897898	0.631641	0.090698
	H73	H	0.092677	0.392707	0.090176
	H74	H	0.091575	0.629520	0.907740
	H75	H	0.910819	0.393345	0.905484
	H76	H	0.098373	0.913558	0.619793
	H77	H	0.100631	0.094050	0.387147
	H78	H	0.905418	0.105040	0.616344
	H79	H	0.907552	0.918456	0.384932
	H80	H	0.623340	0.116004	0.904649
	H81	H	0.382080	0.097015	0.104925
	H82	H	0.617309	0.913456	0.087609
	H83	H	0.383343	0.926179	0.911385
	H84	H	0.616568	0.927425	0.096954
	H85	H	0.378686	0.113450	0.097872
	H86	H	0.614132	0.099347	0.917874
	H87	H	0.379165	0.921612	0.903004
	H88	H	0.904680	0.107940	0.617193
	H89	H	0.083705	0.111241	0.387263
	H90	H	0.095357	0.922593	0.615558
	H91	H	0.906890	0.919372	0.385943
	H92	H	0.094451	0.631124	0.905164
	H93	H	0.092546	0.391157	0.098732
	H94	H	0.908385	0.632802	0.104765
	H95	H	0.908819	0.393748	0.910549
	H96	H	0.405369	0.132326	0.603826
	H97	H	0.586753	0.892308	0.602026
	H98	H	0.602523	0.131518	0.411839
	H99	H	0.418040	0.895831	0.410890
	H100	H	0.598591	0.413954	0.119960
	H101	H	0.595141	0.599174	0.887474
	H102	H	0.412347	0.610458	0.117154
	H103	H	0.412134	0.419918	0.888201
	H104	H	0.118800	0.606861	0.404134
	H105	H	0.881511	0.606771	0.594865
	H106	H	0.117669	0.422896	0.596420
	H107	H	0.883015	0.423430	0.413533
	H108	H	0.915182	0.626339	0.090080
	H109	H	0.085680	0.394510	0.095462
	H110	H	0.090424	0.631169	0.903871
	H111	H	0.905596	0.392049	0.907715
	H112	H	0.088614	0.914840	0.616206
	H113	H	0.106102	0.117324	0.379724
	H114	H	0.902671	0.105976	0.618120
	H115	H	0.907768	0.919347	0.385939
	H116	H	0.618972	0.095153	0.896568
	H117	H	0.385890	0.099462	0.088096
	H118	H	0.621934	0.912551	0.104238
	H119	H	0.380180	0.915931	0.912334
	C120	C	0.378579	0.020157	0.624394
	C121	C	0.619991	1.002323	0.622891
	C122	C	0.621701	0.019950	0.379392
	C123	C	0.380276	1.002728	0.381351
	C124	C	0.621956	0.389247	0.010139
	C125	C	0.621449	0.634096	0.994071
	C126	C	0.376191	0.634225	0.010371
	C127	C	0.377531	0.388966	0.993166
	C128	C	0.008229	0.633822	0.378241
	C129	C	0.991489	0.632403	0.622222
	C130	C	0.008583	0.391068	0.622897
	C131	C	0.990014	0.391949	0.379719
	C132	C	0.877700	0.520907	0.123861
	C133	C	0.119148	0.502631	0.121576
	C134	C	0.121408	0.520796	0.878286
	C135	C	0.879488	0.502784	0.879847
	C136	C	0.122957	0.889639	0.509437
	C137	C	0.123027	0.135176	0.492459
	C138	C	0.877274	0.134554	0.509372
	C139	C	0.878264	0.890151	0.493112
	C140	C	0.509148	0.132732	0.879695
	C141	C	0.491427	0.132449	0.123816
	C142	C	0.509046	0.890040	0.124489
	C143	C	0.490463	0.891205	0.880938
	C144	C	0.379326	0.895862	0.680075
	C145	C	0.618838	0.126700	0.677441
	C146	C	0.620717	0.895201	0.324999
	C147	C	0.380972	0.126922	0.325125
	C148	C	0.677634	0.392988	0.887540
	C149	C	0.675440	0.630287	0.116558
	C150	C	0.323696	0.631039	0.887374
	C151	C	0.320981	0.391717	0.115543
	C152	C	0.883716	0.688464	0.384005
	C153	C	0.116568	0.685892	0.616382
	C154	C	0.883422	0.337257	0.619621
	C155	C	0.115517	0.338331	0.383252
	C156	C	0.884865	0.391192	0.679730
	C157	C	0.115410	0.631512	0.676698
	C158	C	0.884127	0.633420	0.324537
	C159	C	0.114128	0.392012	0.323123
	C160	C	0.380332	0.690028	0.888025
	C161	C	0.615977	0.687040	0.117249
	C162	C	0.619636	0.335502	0.887390
	C163	C	0.379962	0.334559	0.116004
	C164	C	0.676488	0.894865	0.383517
	C165	C	0.673098	0.127676	0.617807
	C166	C	0.323997	0.895204	0.620782
	C167	C	0.327768	0.128650	0.385834
	C168	C	0.877968	0.396421	0.179939
	C169	C	0.117757	0.627426	0.175687
	C170	C	0.120804	0.396235	0.823743
	C171	C	0.880341	0.627404	0.824550
	C172	C	0.178631	0.893849	0.386856
	C173	C	0.175890	0.131277	0.615720
	C174	C	0.823602	0.131302	0.386521
	C175	C	0.822607	0.892551	0.615961
	C176	C	0.384123	0.186912	0.885709
	C177	C	0.616964	0.185888	0.118074
	C178	C	0.383438	0.837432	0.121261
	C179	C	0.614931	0.836388	0.884315
	C180	C	0.384972	0.891487	0.181091
	C181	C	0.615824	0.130976	0.177711
	C182	C	0.385118	0.132694	0.825494
	C183	C	0.614221	0.890563	0.824439
	C184	C	0.882319	0.188960	0.386195
	C185	C	0.117558	0.188936	0.615313
	C186	C	0.120532	0.836203	0.386394
	C187	C	0.881258	0.835229	0.615836
	C188	C	0.175736	0.395579	0.882672
	C189	C	0.172732	0.628148	0.116593
	C190	C	0.823793	0.395449	0.119943
	C191	C	0.825270	0.628039	0.883968
	C192	C	0.401066	0.107358	0.602445
	C193	C	0.598199	0.914906	0.601833
	C194	C	0.599001	0.107022	0.400404
	C195	C	0.402794	0.915491	0.403390
	C196	C	0.599689	0.410508	0.095834
	C197	C	0.600555	0.612867	0.908544
	C198	C	0.396731	0.612244	0.096166
	C199	C	0.400274	0.411045	0.907586
	C200	C	0.095187	0.610964	0.398595
	C201	C	0.904575	0.610378	0.601584
	C202	C	0.095469	0.413342	0.600854
	C203	C	0.903188	0.414494	0.401819
	C204	C	0.900459	0.607886	0.101755
	C205	C	0.096956	0.415358	0.100855
	C206	C	0.098911	0.608068	0.899427
	C207	C	0.901984	0.415527	0.901437
	C208	C	0.100669	0.910759	0.595024
	C209	C	0.102812	0.113932	0.406830
	C210	C	0.898042	0.112694	0.595115
	C211	C	0.900788	0.912518	0.407727
	C212	C	0.596342	0.110118	0.900282
	C213	C	0.404728	0.110108	0.102878
	C214	C	0.596014	0.911529	0.102619
	C215	C	0.403233	0.914331	0.902645
	Zn216	Zn	0.500016	0.011346	0.751895
	Zn217	Zn	0.500581	0.011161	0.252114
	Zn218	Zn	0.751172	0.511712	0.001776
	Zn219	Zn	0.247357	0.511608	0.000845
	Zn220	Zn	0.000485	0.760803	0.500696
	Zn221	Zn	-0.000338	0.264536	0.500797
	Zn222	Zn	0.000422	0.511520	0.751153
	Zn223	Zn	-0.000837	0.511672	0.250701
	Zn224	Zn	0.498536	0.763668	0.002380
	Zn225	Zn	0.500556	0.259604	0.002174
	Zn226	Zn	0.748161	0.011546	0.501628
	Zn227	Zn	0.252290	0.012065	0.501897
	N228	N	0.412316	0.974736	0.682376
	N229	N	0.586433	0.047618	0.680414
	N230	N	0.587588	0.974008	0.322312
	N231	N	0.413068	0.047657	0.322510
	N232	N	0.679170	0.425764	0.964973
	N233	N	0.679002	0.598283	0.038931
	N234	N	0.320664	0.597336	0.964500
	N235	N	0.319663	0.425124	0.038304
	N236	N	0.961922	0.688668	0.416798
	N237	N	0.038495	0.686382	0.583040
	N238	N	0.961432	0.336938	0.585067
	N239	N	0.037500	0.338088	0.417572
	N240	N	0.963582	0.424103	0.681669
	N241	N	0.036697	0.599027	0.680503
	N242	N	0.962731	0.600014	0.320762
	N243	N	0.035170	0.424698	0.320905
	N244	N	0.412447	0.692093	0.965438
	N245	N	0.583055	0.689508	0.040128
	N246	N	0.585598	0.333085	0.964439
	N247	N	0.414266	0.332590	0.038883
	N248	N	0.677261	0.973379	0.416669
	N249	N	0.674040	0.049346	0.584581
	N250	N	0.323501	0.973600	0.586858
	N251	N	0.327018	0.050246	0.420029
	N252	N	0.910760	0.475342	0.182418
	N253	N	0.085277	0.548390	0.178826
	N254	N	0.087571	0.475050	0.821141
	N255	N	0.913213	0.548480	0.821907
	N256	N	0.180194	0.926401	0.464302
	N257	N	0.179307	0.098311	0.538432
	N258	N	0.820084	0.098480	0.464127
	N259	N	0.820675	0.926023	0.538681
	N260	N	0.462353	0.187096	0.918576
	N261	N	0.538572	0.186860	0.085295
	N262	N	0.461443	0.836361	0.086625
	N263	N	0.536946	0.836975	0.918878
	N264	N	0.463967	0.923320	0.183327
	N265	N	0.537035	0.098549	0.181373
	N266	N	0.463994	0.100055	0.821385
	N267	N	0.535699	0.924003	0.822346
	N268	N	0.914597	0.191271	0.463397
	N269	N	0.085573	0.191703	0.537912
	N270	N	0.086782	0.833447	0.463619
	N271	N	0.914929	0.833558	0.538469
	N272	N	0.176273	0.474064	0.915838
	N273	N	0.173570	0.549625	0.083477
	N274	N	0.823158	0.473869	0.086056
	N275	N	0.824505	0.549482	0.917654
	O276	O	0.573429	0.483515	0.461642
	H277	H	0.570915	0.478906	0.466035
	H278	H	0.585962	0.489003	0.461835
	O279	O	0.505969	0.538169	0.531648
	H280	H	0.502250	0.540533	0.526081
	H281	H	0.516055	0.542680	0.535142
	O282	O	0.525945	0.425401	0.488029
	H283	H	0.528603	0.414569	0.499302
	H284	H	0.525366	0.437289	0.485786
	O285	O	-0.046626	0.968616	0.974906
	H286	H	-0.044287	0.973402	0.979992
	H287	H	-0.053229	0.962864	0.987690
	O288	O	0.460279	0.549424	0.571490
	H289	H	0.458126	0.550406	0.571637
	H290	H	0.466490	0.558071	0.573168
	O291	O	0.045663	0.030467	0.986362
	H292	H	0.051079	0.018300	0.980064
	H293	H	0.051906	0.025207	0.987884
	O294	O	0.491770	0.564091	0.525789
	H295	H	0.483907	0.561774	0.523530
	H296	H	0.502077	0.554449	0.534043
	O297	O	0.498690	0.510742	0.486496
	H298	H	0.497131	0.513894	0.487602
	H299	H	0.495709	0.507727	0.486813
	O300	O	0.468329	0.423828	0.560452
	H301	H	0.465137	0.420368	0.558723
	H302	H	0.470020	0.423036	0.571403
	O303	O	0.475663	0.508379	0.501972
	H304	H	0.467060	0.515966	0.500247
	H305	H	0.465167	0.509778	0.501616
	O306	O	0.967487	-0.003188	1.049331
	H307	H	0.970030	0.004389	1.053232
	H308	H	0.974307	0.006277	1.049413
	O309	O	0.481597	0.541602	0.480330
	H310	H	0.486875	0.535853	0.475964
	H311	H	0.486274	0.540648	0.488514
	O312	O	0.566222	0.490272	0.490423
	H313	H	0.569478	0.486272	0.497289
	H314	H	0.567070	0.495027	0.490324
	O315	O	1.013025	-0.059014	0.989138
	H316	H	1.003121	-0.052757	0.982142
	H317	H	1.010427	-0.062216	0.992255
	O318	O	0.003760	-0.046874	-0.016483
	H319	H	-0.003551	-0.063168	-0.012459
	H320	H	-0.007214	-0.056217	-0.013994
	O321	O	0.504270	0.515886	0.531696
	H322	H	0.500699	0.525106	0.531969
	H323	H	0.505676	0.516049	0.515338
	O324	O	1.461944	-0.497741	-0.482636
	H325	H	1.462554	-0.502824	-0.484340
	H326	H	1.457474	-0.506279	-0.480186
	O327	O	0.575687	0.621716	0.423310
	H328	H	0.578436	0.626131	0.417200
	H329	H	0.572128	0.616080	0.420732
	O330	O	0.533150	0.530654	0.458331
	H331	H	0.527668	0.533867	0.450790
	H332	H	0.535506	0.525607	0.449923
	O333	O	-0.017062	-0.013170	0.012981
	H334	H	-0.015099	-0.007314	0.014848
	H335	H	-0.017321	-0.004598	0.009257
