data_Molecule from HDF5

_cell_length_a		16.129526
_cell_length_b		16.309602
_cell_length_c		16.096665
_cell_angle_alpha	90.735708
_cell_angle_beta	91.273859
_cell_angle_gamma	91.013757
_symmetry_space_group_name_H-M	'P 1'
_symmetry_Int_Tables_number		1

loop_
	_symmetry_equiv_pos_as_xyz
	x,y,z

loop_
	_atom_site_label
	_atom_site_type_symbol
	_atom_site_fract_x
	_atom_site_fract_y
	_atom_site_fract_z
	H0	H	0.424640	0.830481	0.705025
	H1	H	0.626410	0.159075	0.719821
	H2	H	0.613212	0.831787	0.285644
	H3	H	0.424375	0.159909	0.285352
	H4	H	0.723811	0.397543	0.830949
	H5	H	0.739422	0.597697	0.163551
	H6	H	0.304695	0.585821	0.833122
	H7	H	0.311530	0.399123	0.165800
	H8	H	0.853741	0.704883	0.397024
	H9	H	0.183386	0.719192	0.606840
	H10	H	0.856943	0.280056	0.591589
	H11	H	0.185621	0.286287	0.400240
	H12	H	0.853674	0.398626	0.701892
	H13	H	0.184461	0.600304	0.718070
	H14	H	0.855362	0.589506	0.281165
	H15	H	0.187216	0.404201	0.291614
	H16	H	0.417928	0.704493	0.832494
	H17	H	0.627077	0.715233	0.163073
	H18	H	0.614105	0.277550	0.834225
	H19	H	0.422187	0.281714	0.164813
	H20	H	0.728984	0.831195	0.402258
	H21	H	0.740970	0.159926	0.603304
	H22	H	0.301411	0.833974	0.593314
	H23	H	0.309022	0.161118	0.399007
	H24	H	0.923896	0.330355	0.205191
	H25	H	0.125098	0.659134	0.217067
	H26	H	0.111849	0.332531	0.782443
	H27	H	0.922362	0.660666	0.784237
	H28	H	0.222459	0.903527	0.329843
	H29	H	0.240285	0.101383	0.663148
	H30	H	0.803609	0.090125	0.334043
	H31	H	0.811629	0.901462	0.665972
	H32	H	0.353411	0.202597	0.898077
	H33	H	0.683240	0.217572	0.107005
	H34	H	0.355887	0.778874	0.094305
	H35	H	0.685995	0.782252	0.900844
	H36	H	0.354140	0.896231	0.205539
	H37	H	0.685092	0.096712	0.217409
	H38	H	0.355315	0.087727	0.782365
	H39	H	0.687828	0.900275	0.790458
	H40	H	0.920985	0.204757	0.331199
	H41	H	0.127355	0.217826	0.662324
	H42	H	0.113966	0.781029	0.333872
	H43	H	0.919469	0.781810	0.663697
	H44	H	0.225412	0.329599	0.901242
	H45	H	0.241654	0.657939	0.102675
	H46	H	0.803380	0.332635	0.092653
	H47	H	0.805036	0.659919	0.899029
	H48	H	0.436545	0.114934	0.602979
	H49	H	0.612064	0.880444	0.590720
	H50	H	0.606091	0.107401	0.417634
	H51	H	0.411719	0.876506	0.400537
	H52	H	0.604974	0.412344	0.113071
	H53	H	0.611962	0.592363	0.877755
	H54	H	0.429990	0.590799	0.119178
	H55	H	0.420366	0.397888	0.880303
	H56	H	0.137945	0.589539	0.410433
	H57	H	0.906370	0.579886	0.585141
	H58	H	0.140400	0.410954	0.594936
	H59	H	0.900577	0.396721	0.400904
	H60	H	0.139685	0.406913	0.593553
	H61	H	0.898075	0.591279	0.599484
	H62	H	0.140613	0.595543	0.408163
	H63	H	0.901331	0.400555	0.399597
	H64	H	0.433034	0.586814	0.116162
	H65	H	0.610639	0.585058	0.880574
	H66	H	0.612286	0.395812	0.119546
	H67	H	0.422625	0.396316	0.880571
	H68	H	0.627290	0.115354	0.413350
	H69	H	0.618646	0.877665	0.593445
	H70	H	0.438132	0.108618	0.585590
	H71	H	0.424202	0.878437	0.395204
	H72	H	0.923632	0.613435	0.087107
	H73	H	0.117109	0.373838	0.105732
	H74	H	0.112717	0.611554	0.912564
	H75	H	0.917661	0.376339	0.892539
	H76	H	0.114220	0.906867	0.618039
	H77	H	0.109368	0.088627	0.380232
	H78	H	0.936531	0.098576	0.618515
	H79	H	0.924856	0.902764	0.382060
	H80	H	0.643476	0.102763	0.906710
	H81	H	0.400323	0.091888	0.089943
	H82	H	0.640958	0.904252	0.098388
	H83	H	0.400954	0.891028	0.905672
	H84	H	0.638344	0.904090	0.088938
	H85	H	0.401975	0.086739	0.087852
	H86	H	0.634557	0.090599	0.926380
	H87	H	0.405793	0.903755	0.903971
	H88	H	0.927686	0.093496	0.619339
	H89	H	0.110900	0.099729	0.377694
	H90	H	0.115301	0.912487	0.616342
	H91	H	0.924722	0.898219	0.378973
	H92	H	0.117357	0.612043	0.911520
	H93	H	0.104544	0.380892	0.092470
	H94	H	0.933018	0.614744	0.099316
	H95	H	0.926431	0.382149	0.898863
	H96	H	0.422122	0.116011	0.591249
	H97	H	0.613406	0.878307	0.596904
	H98	H	0.611447	0.115019	0.397118
	H99	H	0.421786	0.881488	0.408458
	H100	H	0.622897	0.410926	0.118495
	H101	H	0.605496	0.589992	0.880825
	H102	H	0.435677	0.591277	0.117618
	H103	H	0.420196	0.394753	0.878812
	H104	H	0.137284	0.595890	0.415006
	H105	H	0.899925	0.598267	0.581720
	H106	H	0.138836	0.409766	0.590847
	H107	H	0.899716	0.397217	0.397104
	H108	H	0.938526	0.608926	0.086622
	H109	H	0.122650	0.377018	0.088305
	H110	H	0.113648	0.613256	0.907952
	H111	H	0.916364	0.379013	0.905833
	H112	H	0.109180	0.909771	0.615466
	H113	H	0.119257	0.092626	0.376537
	H114	H	0.936543	0.088678	0.614805
	H115	H	0.919478	0.900994	0.380223
	H116	H	0.637916	0.079178	0.903560
	H117	H	0.400350	0.086869	0.093661
	H118	H	0.637624	0.911718	0.094589
	H119	H	0.399732	0.897464	0.893630
	C120	C	0.400969	0.004870	0.619150
	C121	C	0.645868	0.987182	0.624438
	C122	C	0.640765	0.004316	0.379835
	C123	C	0.395327	0.987583	0.374605
	C124	C	0.638896	0.375746	0.007306
	C125	C	0.642250	0.619203	0.989319
	C126	C	0.400983	0.614984	0.007762
	C127	C	0.396086	0.370964	0.990083
	C128	C	0.029056	0.618479	0.378708
	C129	C	1.010557	0.620804	0.621520
	C130	C	0.029937	0.378174	0.617968
	C131	C	1.011142	0.374046	0.374913
	C132	C	0.901073	0.504124	0.117595
	C133	C	0.145691	0.485893	0.124415
	C134	C	0.139735	0.503712	0.879696
	C135	C	0.894149	0.487586	0.872775
	C136	C	0.138885	0.879548	0.506786
	C137	C	0.144485	0.122726	0.488084
	C138	C	0.901778	0.118427	0.507598
	C139	C	0.896794	0.874231	0.490447
	C140	C	0.528951	0.115880	0.880199
	C141	C	0.510320	0.118667	0.122229
	C142	C	0.529190	0.875718	0.119362
	C143	C	0.512402	0.871934	0.875862
	C144	C	0.402722	0.880305	0.669870
	C145	C	0.645848	0.110317	0.681361
	C146	C	0.634958	0.880705	0.323951
	C147	C	0.402353	0.110817	0.321514
	C148	C	0.688832	0.377198	0.881293
	C149	C	0.701201	0.617745	0.113754
	C150	C	0.342933	0.608587	0.882599
	C151	C	0.346214	0.376781	0.115873
	C152	C	0.903542	0.668976	0.377817
	C153	C	0.134148	0.679707	0.624623
	C154	C	0.905849	0.319749	0.612280
	C155	C	0.136181	0.322767	0.379961
	C156	C	0.904103	0.378939	0.667222
	C157	C	0.134661	0.620910	0.680448
	C158	C	0.904659	0.612061	0.319717
	C159	C	0.137097	0.381674	0.325986
	C160	C	0.399297	0.667371	0.882418
	C161	C	0.645238	0.676277	0.113813
	C162	C	0.634200	0.317530	0.883080
	C163	C	0.401234	0.318511	0.115203
	C164	C	0.692568	0.880469	0.381902
	C165	C	0.702870	0.110601	0.623380
	C166	C	0.341278	0.882238	0.614551
	C167	C	0.345071	0.111670	0.378349
	C168	C	0.902827	0.380091	0.169423
	C169	C	0.144996	0.609691	0.179357
	C170	C	0.133493	0.380951	0.821992
	C171	C	0.900144	0.611494	0.820761
	C172	C	0.188279	0.882010	0.380553
	C173	C	0.202309	0.121540	0.613228
	C174	C	0.843431	0.111527	0.382837
	C175	C	0.846327	0.879310	0.616078
	C176	C	0.403483	0.166736	0.878845
	C177	C	0.634283	0.177468	0.125063
	C178	C	0.405298	0.817437	0.114875
	C179	C	0.636712	0.819637	0.880625
	C180	C	0.404069	0.875988	0.170120
	C181	C	0.635192	0.117422	0.179957
	C182	C	0.404514	0.109593	0.821437
	C183	C	0.637502	0.878195	0.825375
	C184	C	0.901412	0.168690	0.381597
	C185	C	0.145856	0.179293	0.612972
	C186	C	0.134626	0.820716	0.382837
	C187	C	0.900327	0.820044	0.614707
	C188	C	0.190005	0.379514	0.880951
	C189	C	0.203349	0.608986	0.122790
	C190	C	0.843017	0.381075	0.113160
	C191	C	0.841500	0.610939	0.877420
	C192	C	0.425056	0.090878	0.599132
	C193	C	0.621915	0.901124	0.600739
	C194	C	0.620933	0.090455	0.402618
	C195	C	0.413608	0.901126	0.395417
	C196	C	0.619209	0.399396	0.094440
	C197	C	0.616810	0.596071	0.902258
	C198	C	0.425596	0.595489	0.094907
	C199	C	0.415340	0.390473	0.902544
	C200	C	0.115969	0.599306	0.403745
	C201	C	0.923819	0.596865	0.596205
	C202	C	0.117175	0.402135	0.598775
	C203	C	0.923358	0.392694	0.393680
	C204	C	0.924726	0.590272	0.097187
	C205	C	0.121917	0.399419	0.102039
	C206	C	0.120340	0.589884	0.903579
	C207	C	0.914073	0.401430	0.892755
	C208	C	0.119068	0.902946	0.593954
	C209	C	0.120287	0.100099	0.400802
	C210	C	0.926342	0.099266	0.594903
	C211	C	0.916930	0.894735	0.403078
	C212	C	0.615965	0.096652	0.905044
	C213	C	0.423374	0.095481	0.097563
	C214	C	0.616337	0.899591	0.099690
	C215	C	0.424763	0.891581	0.895166
	Zn216	Zn	0.522669	-0.005082	0.750481
	Zn217	Zn	0.518912	-0.004928	0.248636
	Zn218	Zn	0.768355	0.496381	-0.003183
	Zn219	Zn	0.271084	0.493590	0.000154
	Zn220	Zn	0.018599	0.748211	0.499527
	Zn221	Zn	0.022328	0.248817	0.496946
	Zn222	Zn	0.019134	0.497546	0.747321
	Zn223	Zn	0.021742	0.495441	0.249853
	Zn224	Zn	0.521017	0.746056	-0.001616
	Zn225	Zn	0.518448	0.245721	-0.000025
	Zn226	Zn	0.771854	-0.003923	0.500783
	Zn227	Zn	0.269079	-0.001267	0.496768
	N228	N	0.439252	0.957396	0.672816
	N229	N	0.611158	0.032495	0.682246
	N230	N	0.603390	0.958558	0.322617
	N231	N	0.432850	0.032611	0.318988
	N232	N	0.692080	0.412683	0.959502
	N233	N	0.699291	0.582872	0.035235
	N234	N	0.343699	0.576886	0.961510
	N235	N	0.342633	0.408707	0.037158
	N236	N	0.981833	0.673231	0.413764
	N237	N	0.055717	0.679790	0.588810
	N238	N	0.985103	0.319265	0.582413
	N239	N	0.056898	0.317861	0.409458
	N240	N	0.982341	0.414529	0.670941
	N241	N	0.056785	0.584804	0.678331
	N242	N	0.983727	0.581276	0.320144
	N243	N	0.058245	0.412612	0.322485
	N244	N	0.434942	0.671500	0.961157
	N245	N	0.609364	0.677336	0.035474
	N246	N	0.603933	0.316485	0.962459
	N247	N	0.431251	0.314409	0.035821
	N248	N	0.696406	0.958403	0.415985
	N249	N	0.702805	0.033027	0.588628
	N250	N	0.340195	0.960766	0.583903
	N251	N	0.340492	0.034035	0.410687
	N252	N	0.938269	0.457757	0.172482
	N253	N	0.109838	0.532237	0.180497
	N254	N	0.102786	0.459057	0.821175
	N255	N	0.931915	0.533711	0.817413
	N256	N	0.191238	0.917726	0.458767
	N257	N	0.201593	0.087038	0.534532
	N258	N	0.843364	0.080988	0.462175
	N259	N	0.844056	0.912272	0.537714
	N260	N	0.481822	0.170860	0.914701
	N261	N	0.555773	0.178254	0.089657
	N262	N	0.484304	0.817049	0.084143
	N263	N	0.557691	0.815553	0.911093
	N264	N	0.482249	0.911399	0.173135
	N265	N	0.557145	0.081584	0.178374
	N266	N	0.483521	0.078803	0.822039
	N267	N	0.559070	0.910006	0.822368
	N268	N	0.937291	0.173006	0.460173
	N269	N	0.110725	0.180258	0.534175
	N270	N	0.104349	0.819533	0.462017
	N271	N	0.930887	0.816654	0.535585
	N272	N	0.193700	0.456867	0.916548
	N273	N	0.203835	0.530883	0.089159
	N274	N	0.842119	0.459037	0.081410
	N275	N	0.837741	0.533026	0.909052
	O276	O	-0.532568	0.537714	-0.455577
	H277	H	-0.541404	0.549507	-0.453711
	H278	H	-0.532216	0.529645	-0.456389
	O279	O	-0.015296	0.999646	0.995187
	H280	H	-0.017500	1.009809	0.997906
	H281	H	-0.013420	1.007798	0.992076
	O282	O	0.534262	0.444540	0.544498
	H283	H	0.535086	0.456166	0.545261
	H284	H	0.525327	0.444850	0.548682
	O285	O	0.534557	-0.442651	1.536636
	H286	H	0.543664	-0.448120	1.546489
	H287	H	0.533417	-0.442450	1.530688
	O288	O	1.001803	0.058250	0.068779
	H289	H	1.000488	0.076646	0.067880
	H290	H	1.006522	0.049685	0.076386
	O291	O	0.538314	0.499962	0.484433
	H292	H	0.530688	0.503216	0.490658
	H293	H	0.538806	0.504525	0.486135
	O294	O	0.972664	0.020584	0.978482
	H295	H	0.964950	0.020620	0.979641
	H296	H	0.977933	0.028247	0.982631
	O297	O	0.048240	-0.021205	-0.010352
	H298	H	0.049592	-0.020610	-0.013158
	H299	H	0.058144	-0.013347	-0.016947
	O300	O	0.542567	0.531891	0.577094
	H301	H	0.556550	0.539039	0.591511
	H302	H	0.554038	0.534108	0.576200
	O303	O	0.543848	0.466604	0.537108
	H304	H	0.532184	0.468636	0.548374
	H305	H	0.546151	0.473327	0.532851
	O306	O	0.958102	0.020640	0.012579
	H307	H	0.958947	0.021321	0.015195
	H308	H	0.966688	0.014527	0.015715
	O309	O	0.076704	-0.004037	0.965656
	H310	H	0.070741	-0.004778	0.970699
	H311	H	0.079159	-0.010398	0.950922
	O312	O	0.998919	1.016313	0.964907
	H313	H	0.993546	1.010584	0.957505
	H314	H	0.993261	1.028654	0.972251
	O315	O	0.500940	0.474748	0.442513
	H316	H	0.502514	0.471382	0.444521
	H317	H	0.501787	0.475893	0.447683
	O318	O	0.057202	0.928890	0.000780
	H319	H	0.059902	0.934629	0.011709
	H320	H	0.053472	0.931541	0.005503
	O321	O	0.005294	0.933202	1.030541
	H322	H	0.001712	0.931941	1.034788
	H323	H	-0.001463	0.936825	1.036630
	O324	O	0.483001	0.561638	0.508817
	H325	H	0.489335	0.563463	0.507726
	H326	H	0.480950	0.556250	0.500417
	O327	O	0.078396	0.988681	-0.024917
	H328	H	0.078433	0.993359	-0.025151
	H329	H	0.080817	0.982040	-0.030753
	O330	O	0.545321	0.476068	0.462164
	H331	H	0.549475	0.473147	0.458323
	H332	H	0.548352	0.485657	0.459973
	O333	O	0.483879	0.437626	0.470260
	H334	H	0.489966	0.435382	0.469519
	H335	H	0.480150	0.432267	0.474244
	O336	O	0.524284	0.539174	0.465019
	H337	H	0.523794	0.538178	0.460045
	H338	H	0.521168	0.537601	0.463080
	O339	O	0.982579	0.993384	0.057824
	H340	H	0.970662	0.986106	0.071698
	H341	H	0.995584	0.985703	0.059585
	O342	O	0.462089	0.515658	0.481117
	H343	H	0.458633	0.511948	0.477022
	H344	H	0.474064	0.512076	0.474634
	O345	O	0.431819	0.494851	0.542180
	H346	H	0.426395	0.492298	0.558950
	H347	H	0.431228	0.496477	0.535092
	O348	O	0.041324	0.051047	0.013055
	H349	H	0.042360	0.038347	0.012897
	H350	H	0.052624	0.052168	0.020364
	O351	O	-0.029631	0.940917	0.968929
	H352	H	-0.032524	0.936811	0.967241
	H353	H	-0.029428	0.940900	0.958168
	O354	O	0.577333	0.418688	0.560364
	H355	H	0.591674	0.413336	0.567013
	H356	H	0.571408	0.428952	0.554731
	O357	O	-0.055977	0.984991	0.961886
	H358	H	-0.053757	0.983703	0.959048
	H359	H	-0.053908	0.983642	0.958831
