data_Molecule from HDF5

_cell_length_a		16.392353
_cell_length_b		16.136081
_cell_length_c		16.471260
_cell_angle_alpha	89.725717
_cell_angle_beta	89.932937
_cell_angle_gamma	89.930563
_symmetry_space_group_name_H-M	'P 1'
_symmetry_Int_Tables_number		1

loop_
	_symmetry_equiv_pos_as_xyz
	x,y,z

loop_
	_atom_site_label
	_atom_site_type_symbol
	_atom_site_fract_x
	_atom_site_fract_y
	_atom_site_fract_z
	H0	H	0.399182	0.837564	0.717637
	H1	H	0.608997	0.161401	0.711639
	H2	H	0.608551	0.837859	0.274768
	H3	H	0.400814	0.162051	0.277877
	H4	H	0.727498	0.394362	0.837773
	H5	H	0.724090	0.603446	0.155683
	H6	H	0.281515	0.609786	0.837407
	H7	H	0.283560	0.393670	0.153785
	H8	H	0.844521	0.715366	0.394499
	H9	H	0.166322	0.715714	0.595477
	H10	H	0.844213	0.279323	0.597616
	H11	H	0.167228	0.279151	0.394450
	H12	H	0.845633	0.391501	0.717783
	H13	H	0.162173	0.607002	0.719483
	H14	H	0.845523	0.602446	0.276498
	H15	H	0.164205	0.390400	0.272523
	H16	H	0.402392	0.721084	0.835629
	H17	H	0.605130	0.717738	0.156520
	H18	H	0.604606	0.286350	0.833614
	H19	H	0.404441	0.281426	0.155099
	H20	H	0.723191	0.836378	0.391286
	H21	H	0.723923	0.160765	0.595718
	H22	H	0.287571	0.835648	0.600729
	H23	H	0.284954	0.159865	0.392956
	H24	H	0.901743	0.336670	0.216454
	H25	H	0.108729	0.661509	0.214699
	H26	H	0.111304	0.337663	0.776590
	H27	H	0.898502	0.658785	0.774906
	H28	H	0.231143	0.887432	0.338845
	H29	H	0.226446	0.102628	0.654350
	H30	H	0.783131	0.107130	0.336438
	H31	H	0.781588	0.889667	0.651235
	H32	H	0.343662	0.218562	0.893183
	H33	H	0.666744	0.215103	0.092405
	H34	H	0.343904	0.779801	0.099422
	H35	H	0.664358	0.781248	0.893038
	H36	H	0.345474	0.891809	0.219605
	H37	H	0.662278	0.108870	0.217939
	H38	H	0.345952	0.108692	0.771551
	H39	H	0.661827	0.891682	0.772340
	H40	H	0.903092	0.220282	0.335855
	H41	H	0.109755	0.217444	0.654723
	H42	H	0.108904	0.779622	0.334907
	H43	H	0.904522	0.780444	0.653864
	H44	H	0.224837	0.338244	0.892744
	H45	H	0.224703	0.661414	0.100207
	H46	H	0.785858	0.336724	0.102125
	H47	H	0.788651	0.662021	0.895332
	H48	H	0.409792	0.117158	0.588549
	H49	H	0.594656	0.883550	0.581841
	H50	H	0.591027	0.113040	0.405380
	H51	H	0.418258	0.882965	0.403287
	H52	H	0.589085	0.412554	0.105966
	H53	H	0.596917	0.588472	0.883073
	H54	H	0.415924	0.588424	0.108376
	H55	H	0.414180	0.413773	0.882781
	H56	H	0.119591	0.583066	0.402312
	H57	H	0.893867	0.583877	0.581266
	H58	H	0.120730	0.401256	0.584924
	H59	H	0.892702	0.408121	0.409648
	H60	H	0.114524	0.414784	0.580251
	H61	H	0.889570	0.585238	0.592536
	H62	H	0.121825	0.590420	0.401212
	H63	H	0.893640	0.414085	0.405804
	H64	H	0.412810	0.588440	0.108193
	H65	H	0.594623	0.589919	0.883645
	H66	H	0.595589	0.398954	0.111988
	H67	H	0.414869	0.411691	0.881329
	H68	H	0.596282	0.114661	0.407362
	H69	H	0.593715	0.882195	0.586994
	H70	H	0.422770	0.112446	0.585725
	H71	H	0.421620	0.884638	0.408840
	H72	H	0.916660	0.616496	0.090827
	H73	H	0.093805	0.383084	0.087948
	H74	H	0.086522	0.610870	0.913244
	H75	H	0.920200	0.387840	0.917885
	H76	H	0.092726	0.909896	0.606570
	H77	H	0.094944	0.085124	0.383276
	H78	H	0.912610	0.084775	0.608510
	H79	H	0.915700	0.909727	0.381216
	H80	H	0.619069	0.087298	0.897902
	H81	H	0.390237	0.087812	0.087974
	H82	H	0.612866	0.919899	0.080939
	H83	H	0.394299	0.921547	0.910569
	H84	H	0.620425	0.912722	0.095089
	H85	H	0.388738	0.091519	0.085968
	H86	H	0.620984	0.093944	0.899234
	H87	H	0.387973	0.914181	0.896848
	H88	H	0.914937	0.085509	0.606910
	H89	H	0.095556	0.087656	0.382485
	H90	H	0.096191	0.902526	0.609584
	H91	H	0.914156	0.906105	0.378713
	H92	H	0.100529	0.616524	0.908791
	H93	H	0.090108	0.386525	0.083088
	H94	H	0.917810	0.612500	0.082954
	H95	H	0.902645	0.378620	0.907866
	H96	H	0.412355	0.112587	0.575906
	H97	H	0.588730	0.884310	0.584425
	H98	H	0.594969	0.116898	0.401977
	H99	H	0.415351	0.882790	0.408825
	H100	H	0.605068	0.412467	0.111236
	H101	H	0.596710	0.591020	0.881856
	H102	H	0.414186	0.585860	0.107386
	H103	H	0.412430	0.412375	0.881038
	H104	H	0.118601	0.587870	0.407706
	H105	H	0.888834	0.594649	0.584640
	H106	H	0.119618	0.412811	0.594401
	H107	H	0.890900	0.408244	0.403003
	H108	H	0.909539	0.615913	0.085007
	H109	H	0.097220	0.384160	0.081529
	H110	H	0.088641	0.616168	0.898240
	H111	H	0.921604	0.380654	0.897062
	H112	H	0.101160	0.909894	0.609705
	H113	H	0.097014	0.085800	0.382529
	H114	H	0.913396	0.087039	0.608807
	H115	H	0.911498	0.909816	0.379378
	H116	H	0.618152	0.089805	0.904409
	H117	H	0.391054	0.088448	0.084183
	H118	H	0.618614	0.902942	0.080751
	H119	H	0.389570	0.904274	0.910861
	C120	C	0.383591	0.007230	0.616387
	C121	C	0.624853	0.990447	0.614870
	C122	C	0.625941	0.007998	0.373208
	C123	C	0.384741	0.990059	0.375268
	C124	C	0.627258	0.377726	0.004091
	C125	C	0.626527	0.621297	0.987917
	C126	C	0.382734	0.621622	0.003515
	C127	C	0.382686	0.379414	0.986709
	C128	C	0.014275	0.619640	0.373088
	C129	C	0.996341	0.619792	0.616919
	C130	C	0.013180	0.376537	0.618459
	C131	C	0.997848	0.377216	0.374032
	C132	C	0.883462	0.507750	0.118222
	C133	C	0.125823	0.491290	0.116237
	C134	C	0.125112	0.508104	0.875167
	C135	C	0.883661	0.489662	0.875943
	C136	C	0.128373	0.875209	0.503751
	C137	C	0.126977	0.118515	0.487555
	C138	C	0.882981	0.119885	0.503096
	C139	C	0.882884	0.876295	0.485068
	C140	C	0.513515	0.122751	0.870537
	C141	C	0.496136	0.120973	0.116056
	C142	C	0.512264	0.878842	0.117631
	C143	C	0.495848	0.880005	0.874403
	C144	C	0.381519	0.885883	0.677472
	C145	C	0.627318	0.112553	0.672787
	C146	C	0.627523	0.886006	0.314272
	C147	C	0.381979	0.112748	0.316709
	C148	C	0.686646	0.376965	0.884756
	C149	C	0.684447	0.622160	0.107907
	C150	C	0.322220	0.626319	0.884600
	C151	C	0.323883	0.376207	0.106306
	C152	C	0.892984	0.677132	0.374182
	C153	C	0.117510	0.677297	0.615800
	C154	C	0.892739	0.317612	0.618085
	C155	C	0.118544	0.317975	0.374254
	C156	C	0.893360	0.373605	0.677871
	C157	C	0.115388	0.623084	0.677576
	C158	C	0.893520	0.621223	0.315180
	C159	C	0.117170	0.373599	0.313613
	C160	C	0.382331	0.681953	0.883632
	C161	C	0.625244	0.679080	0.108397
	C162	C	0.625504	0.322918	0.882518
	C163	C	0.383858	0.320140	0.106943
	C164	C	0.684011	0.885282	0.372590
	C165	C	0.684447	0.112195	0.615049
	C166	C	0.325878	0.884670	0.619074
	C167	C	0.324647	0.111758	0.374156
	C168	C	0.882791	0.385515	0.177408
	C169	C	0.127528	0.612879	0.175400
	C170	C	0.128655	0.386413	0.816009
	C171	C	0.881273	0.611129	0.815780
	C172	C	0.189800	0.871491	0.385452
	C173	C	0.186434	0.120621	0.606802
	C174	C	0.823610	0.124210	0.383931
	C175	C	0.822849	0.872914	0.604171
	C176	C	0.392335	0.180756	0.872221
	C177	C	0.617692	0.177552	0.113499
	C178	C	0.391809	0.819231	0.118557
	C179	C	0.616178	0.820296	0.873814
	C180	C	0.392813	0.875302	0.178264
	C181	C	0.615472	0.124406	0.175950
	C182	C	0.393509	0.126241	0.811564
	C183	C	0.614941	0.875407	0.813566
	C184	C	0.883294	0.180657	0.383712
	C185	C	0.128396	0.178011	0.607013
	C186	C	0.128925	0.817407	0.383427
	C187	C	0.883859	0.818588	0.605625
	C188	C	0.185315	0.386739	0.873861
	C189	C	0.185170	0.613052	0.118279
	C190	C	0.825348	0.385392	0.120167
	C191	C	0.826469	0.612579	0.875557
	C192	C	0.407878	0.092101	0.590830
	C193	C	0.599581	0.905596	0.591307
	C194	C	0.601155	0.092654	0.397754
	C195	C	0.410817	0.905347	0.399932
	C196	C	0.603498	0.401158	0.088013
	C197	C	0.602980	0.596765	0.904588
	C198	C	0.407255	0.595277	0.086440
	C199	C	0.406744	0.405179	0.903414
	C200	C	0.098061	0.594520	0.396814
	C201	C	0.912586	0.594969	0.593053
	C202	C	0.096681	0.402207	0.593818
	C203	C	0.914305	0.402747	0.398852
	C204	C	0.907615	0.592829	0.093626
	C205	C	0.100950	0.406678	0.091168
	C206	C	0.099324	0.592451	0.899564
	C207	C	0.907997	0.404555	0.900408
	C208	C	0.103693	0.900307	0.586983
	C209	C	0.102824	0.093556	0.404584
	C210	C	0.906897	0.093383	0.586362
	C211	C	0.906858	0.901324	0.401399
	C212	C	0.597574	0.097636	0.893788
	C213	C	0.412016	0.096376	0.092891
	C214	C	0.595621	0.904450	0.092799
	C215	C	0.412318	0.905948	0.899028
	Zn216	Zn	0.504076	-0.000263	0.743746
	Zn217	Zn	0.504324	0.000350	0.246196
	Zn218	Zn	0.756061	0.499046	-0.002621
	Zn219	Zn	0.253158	0.500928	-0.004441
	Zn220	Zn	0.005260	0.748284	0.493976
	Zn221	Zn	0.005870	0.247987	0.496152
	Zn222	Zn	0.004118	0.498531	0.747202
	Zn223	Zn	0.005613	0.499070	0.244589
	Zn224	Zn	0.504334	0.750814	-0.004282
	Zn225	Zn	0.504666	0.249741	-0.006327
	Zn226	Zn	0.753719	-0.001993	0.494308
	Zn227	Zn	0.256940	-0.003265	0.496051
	N228	N	0.416794	0.963260	0.675833
	N229	N	0.590810	0.035873	0.672913
	N230	N	0.592358	0.963388	0.314320
	N231	N	0.418352	0.036067	0.317262
	N232	N	0.687881	0.410140	0.961379
	N233	N	0.685673	0.587073	0.032005
	N234	N	0.322480	0.589375	0.960105
	N235	N	0.322821	0.412022	0.030475
	N236	N	0.968957	0.676331	0.409335
	N237	N	0.042530	0.675323	0.578703
	N238	N	0.968333	0.319137	0.582071
	N239	N	0.043326	0.320162	0.411121
	N240	N	0.969531	0.409295	0.678360
	N241	N	0.039006	0.587988	0.678412
	N242	N	0.970035	0.586294	0.314396
	N243	N	0.041112	0.409603	0.313445
	N244	N	0.419063	0.679276	0.958350
	N245	N	0.589791	0.678553	0.032858
	N246	N	0.589358	0.323142	0.957766
	N247	N	0.419849	0.321997	0.031474
	N248	N	0.683465	0.962234	0.408057
	N249	N	0.682912	0.035279	0.579689
	N250	N	0.327121	0.961103	0.581884
	N251	N	0.325921	0.034257	0.409540
	N252	N	0.918373	0.462613	0.176179
	N253	N	0.091210	0.536316	0.174008
	N254	N	0.091921	0.463033	0.816540
	N255	N	0.916092	0.533723	0.815758
	N256	N	0.189602	0.906598	0.461330
	N257	N	0.185893	0.084171	0.531555
	N258	N	0.823368	0.087013	0.459241
	N259	N	0.822051	0.908121	0.527991
	N260	N	0.468077	0.178971	0.907866
	N261	N	0.542448	0.175494	0.076739
	N262	N	0.466919	0.821506	0.081512
	N263	N	0.541050	0.823139	0.910922
	N264	N	0.468733	0.911632	0.177893
	N265	N	0.538796	0.090144	0.177748
	N266	N	0.469925	0.090907	0.810154
	N267	N	0.539248	0.912091	0.813945
	N268	N	0.919432	0.177977	0.458905
	N269	N	0.092208	0.177065	0.531837
	N270	N	0.091222	0.819723	0.457949
	N271	N	0.920520	0.820790	0.530648
	N272	N	0.183469	0.463541	0.909561
	N273	N	0.184121	0.536299	0.082270
	N274	N	0.825667	0.462336	0.084067
	N275	N	0.827813	0.535900	0.912157
	O276	O	0.640389	0.490744	0.459219
	H277	H	0.648754	0.504008	0.467531
	H278	H	0.641067	0.505371	0.454632
	O279	O	0.002737	0.194425	-0.215229
	H280	H	-0.035094	0.187274	-0.208615
	H281	H	-0.008739	0.216826	-0.237764
	O282	O	0.340615	0.385440	0.481625
	H283	H	0.331275	0.397823	0.474689
	H284	H	0.343309	0.377051	0.479866
	O285	O	1.485913	0.518895	0.561741
	H286	H	1.479992	0.508888	0.559305
	H287	H	1.489075	0.515512	0.560716
	O288	O	0.434628	0.508113	0.326462
	H289	H	0.443511	0.509010	0.330713
	H290	H	0.450944	0.511398	0.335904
	O291	O	0.328343	0.535834	0.449660
	H292	H	0.338262	0.526033	0.447009
	H293	H	0.319282	0.533099	0.462977
	O294	O	0.981079	0.916603	1.110520
	H295	H	0.980146	0.930766	1.101648
	H296	H	0.985558	0.898132	1.113440
	O297	O	0.885602	1.164490	1.089496
	H298	H	0.887147	1.148916	1.097859
	H299	H	0.878088	1.186843	1.082435
	O300	O	-0.065517	0.115270	-0.038248
	H301	H	-0.069209	0.095490	-0.042284
	H302	H	-0.059360	0.122111	-0.033545
	O303	O	-0.178778	0.843402	0.929035
	H304	H	-0.167302	0.845582	0.921856
	H305	H	-0.177884	0.835669	0.922210
	O306	O	1.143392	-0.173983	-0.136238
	H307	H	1.154357	-0.145567	-0.141913
	H308	H	1.146441	-0.175563	-0.121175
	O309	O	0.628503	0.438930	0.515923
	H310	H	0.630462	0.450668	0.507321
	H311	H	0.630395	0.437703	0.516563
	O312	O	1.007962	0.863013	-0.052869
	H313	H	1.005101	0.860868	-0.046675
	H314	H	1.000281	0.850137	-0.060079
	O315	O	0.429723	0.427896	0.373955
	H316	H	0.422938	0.425341	0.381077
	H317	H	0.431529	0.429891	0.364359
	O318	O	0.421972	0.487540	0.629379
	H319	H	0.413367	0.476521	0.631677
	H320	H	0.434036	0.474239	0.622466
	O321	O	0.790532	-0.023689	1.197849
	H322	H	0.765262	-0.036094	1.218863
	H323	H	0.797071	-0.062648	1.191069
	O324	O	0.423630	0.342328	1.560884
	H325	H	0.429582	0.334068	1.559016
	H326	H	0.422453	0.335615	1.563514
	O327	O	0.141963	0.804501	1.005260
	H328	H	0.152733	0.799316	0.994117
	H329	H	0.143723	0.797543	1.011713
	O330	O	0.486781	0.310141	0.438948
	H331	H	0.493154	0.306313	0.420541
	H332	H	0.467668	0.310717	0.441747
	O333	O	1.081199	1.054410	0.978153
	H334	H	1.077188	1.052235	0.994004
	H335	H	1.070044	1.056778	0.984926
	O336	O	0.688006	0.526532	0.645303
	H337	H	0.693377	0.517694	0.652533
	H338	H	0.671759	0.518664	0.642965
	O339	O	0.508835	0.675806	0.629349
	H340	H	0.502029	0.673995	0.619824
	H341	H	0.509058	0.676317	0.647881
	O342	O	0.196379	1.172287	1.169332
	H343	H	0.192038	1.171446	1.156425
	H344	H	0.172763	1.166313	1.175622
	O345	O	-0.118310	1.157910	0.805610
	H346	H	-0.132140	1.151247	0.802015
	H347	H	-0.133439	1.135619	0.824731
	O348	O	0.693336	0.676736	0.602457
	H349	H	0.682402	0.672803	0.594396
	H350	H	0.682352	0.670002	0.604117
	O351	O	0.027577	0.169911	0.177247
	H352	H	0.017670	0.151687	0.173632
	H353	H	0.021532	0.187271	0.201587
	O354	O	0.395477	0.406293	-0.310478
	H355	H	0.395092	0.387537	-0.309805
	H356	H	0.398443	0.390684	-0.304645
	O357	O	-0.076165	0.957121	-0.154260
	H358	H	-0.074122	0.969705	-0.157994
	H359	H	-0.072620	0.955991	-0.157776
	O360	O	-0.086191	0.004046	0.125699
	H361	H	-0.106941	0.001405	0.126458
	H362	H	-0.095079	-0.010167	0.118843
	O363	O	0.586732	0.347304	0.448464
	H364	H	0.597685	0.353939	0.450288
	H365	H	0.605012	0.346271	0.436280
	O366	O	0.647488	0.458502	0.679814
	H367	H	0.648188	0.450006	0.668596
	H368	H	0.633943	0.472437	0.678056
	O369	O	0.627110	0.388867	0.344987
	H370	H	0.627821	0.409606	0.339245
	H371	H	0.633501	0.379310	0.339709
	O372	O	0.523499	0.679901	0.511215
	H373	H	0.518387	0.679970	0.526687
	H374	H	0.517336	0.694350	0.520749
	O375	O	1.127386	0.060025	0.030809
	H376	H	1.129814	0.064006	0.033558
	H377	H	1.120203	0.066233	0.022303
	O378	O	0.305169	0.610825	0.410783
	H379	H	0.298585	0.604024	0.377609
	H380	H	0.299421	0.614622	0.411740
	O381	O	0.037128	0.038487	0.052824
	H382	H	0.043097	0.049865	0.050499
	H383	H	0.038478	0.043146	0.058180
	O384	O	0.456359	0.650874	1.382058
	H385	H	0.459721	0.643818	1.375411
	H386	H	0.462014	0.638976	1.382842
	O387	O	1.078364	0.805025	-0.162762
	H388	H	1.085382	0.803880	-0.160460
	H389	H	1.087709	0.806131	-0.177262
	O390	O	0.475917	0.552709	0.659684
	H391	H	0.474839	0.537592	0.663026
	H392	H	0.460023	0.542163	0.665097
	O393	O	0.809368	0.009322	0.793575
	H394	H	0.814531	0.010678	0.785229
	H395	H	0.810415	-0.002697	0.791894
	O396	O	0.155661	1.032164	0.851172
	H397	H	0.158006	1.046797	0.825538
	H398	H	0.143246	1.038908	0.860309
	O399	O	0.569410	0.451785	0.452212
	H400	H	0.577478	0.460620	0.456974
	H401	H	0.579071	0.445847	0.456386
	O402	O	0.845501	-0.169261	1.156058
	H403	H	0.866153	-0.174415	1.137405
	H404	H	0.855870	-0.174029	1.146561
	O405	O	0.108994	0.083160	-0.061314
	H406	H	0.114116	0.084729	-0.045459
	H407	H	0.100780	0.090429	-0.047660
	O408	O	1.184291	1.011438	1.207865
	H409	H	1.187569	1.028628	1.213712
	H410	H	1.191546	1.017827	1.219700
	O411	O	0.889090	0.839953	0.077371
	H412	H	0.893805	0.840807	0.068768
	H413	H	0.896621	0.837243	0.066365
	O414	O	0.137276	-0.061642	1.141321
	H415	H	0.147323	-0.060885	1.146504
	H416	H	0.150326	-0.060283	1.138416
	O417	O	0.603662	0.562808	0.304845
	H418	H	0.598724	0.577743	0.296997
	H419	H	0.585081	0.557873	0.307718
	O420	O	-0.039150	0.987114	-0.125467
	H421	H	-0.024632	0.997517	-0.120527
	H422	H	-0.031177	0.973564	-0.127002
	O423	O	0.301880	-0.518782	0.573049
	H424	H	0.291403	-0.515836	0.577178
	H425	H	0.301544	-0.523458	0.575872
	O426	O	-0.007206	0.172023	0.963161
	H427	H	-0.003516	0.167444	0.970371
	H428	H	-0.014214	0.175280	0.975851
	O429	O	0.562329	0.597775	0.402657
	H430	H	0.565111	0.602427	0.411638
	H431	H	0.543410	0.603020	0.406042
