data_Molecule from HDF5

_cell_length_a		16.421261
_cell_length_b		16.431614
_cell_length_c		16.261698
_cell_angle_alpha	90.002086
_cell_angle_beta	90.203566
_cell_angle_gamma	90.175105
_symmetry_space_group_name_H-M	'P 1'
_symmetry_Int_Tables_number		1

loop_
	_symmetry_equiv_pos_as_xyz
	x,y,z

loop_
	_atom_site_label
	_atom_site_type_symbol
	_atom_site_fract_x
	_atom_site_fract_y
	_atom_site_fract_z
	H0	H	0.391497	0.840196	0.714507
	H1	H	0.604022	0.156989	0.715811
	H2	H	0.602059	0.838683	0.274350
	H3	H	0.391609	0.155430	0.267389
	H4	H	0.717732	0.394647	0.830735
	H5	H	0.723475	0.607152	0.150955
	H6	H	0.277312	0.607056	0.832059
	H7	H	0.277866	0.392298	0.150713
	H8	H	0.842701	0.723831	0.383367
	H9	H	0.156687	0.725506	0.602922
	H10	H	0.842697	0.276496	0.599983
	H11	H	0.158390	0.278434	0.384785
	H12	H	0.839902	0.397121	0.709478
	H13	H	0.157837	0.605343	0.714463
	H14	H	0.842964	0.606912	0.268443
	H15	H	0.158775	0.396033	0.271012
	H16	H	0.392533	0.720130	0.832846
	H17	H	0.606150	0.720672	0.151702
	H18	H	0.605085	0.277119	0.832325
	H19	H	0.395088	0.278802	0.152235
	H20	H	0.722627	0.842185	0.385904
	H21	H	0.721034	0.158852	0.600164
	H22	H	0.271507	0.843783	0.605052
	H23	H	0.277877	0.157454	0.386211
	H24	H	0.896275	0.340529	0.213015
	H25	H	0.107813	0.658289	0.214904
	H26	H	0.099310	0.340000	0.773682
	H27	H	0.891662	0.657248	0.768334
	H28	H	0.221668	0.894737	0.334696
	H29	H	0.220194	0.105604	0.653852
	H30	H	0.776489	0.109035	0.333348
	H31	H	0.779860	0.895622	0.652485
	H32	H	0.342666	0.220746	0.884149
	H33	H	0.658271	0.221292	0.100224
	H34	H	0.341947	0.773807	0.100353
	H35	H	0.656666	0.775092	0.885701
	H36	H	0.338717	0.894821	0.210441
	H37	H	0.658043	0.104065	0.215243
	H38	H	0.339843	0.099433	0.773321
	H39	H	0.657124	0.890975	0.770159
	H40	H	0.896294	0.219492	0.331886
	H41	H	0.104357	0.219867	0.653398
	H42	H	0.106407	0.779362	0.333967
	H43	H	0.892334	0.778152	0.651179
	H44	H	0.221584	0.342091	0.883388
	H45	H	0.225553	0.656826	0.100425
	H46	H	0.778877	0.340002	0.098053
	H47	H	0.775842	0.656709	0.882872
	H48	H	0.412464	0.112681	0.582699
	H49	H	0.593801	0.883342	0.584216
	H50	H	0.589116	0.111523	0.405210
	H51	H	0.412866	0.888198	0.406986
	H52	H	0.587514	0.414210	0.104715
	H53	H	0.594001	0.587827	0.875118
	H54	H	0.403021	0.580501	0.106903
	H55	H	0.410918	0.407048	0.876824
	H56	H	0.110305	0.587044	0.409606
	H57	H	0.889894	0.580125	0.578265
	H58	H	0.112502	0.412915	0.580040
	H59	H	0.884611	0.407165	0.399657
	H60	H	0.114300	0.411864	0.584854
	H61	H	0.882632	0.592793	0.587606
	H62	H	0.113336	0.587280	0.401062
	H63	H	0.887131	0.407763	0.407711
	H64	H	0.421126	0.579452	0.100201
	H65	H	0.585314	0.579058	0.881239
	H66	H	0.586135	0.406163	0.106699
	H67	H	0.408856	0.410010	0.876542
	H68	H	0.588072	0.113326	0.402396
	H69	H	0.585027	0.887389	0.581227
	H70	H	0.412228	0.110354	0.580071
	H71	H	0.404325	0.885031	0.407177
	H72	H	0.913724	0.609858	0.076166
	H73	H	0.086506	0.385956	0.084350
	H74	H	0.085089	0.611367	0.904797
	H75	H	0.918885	0.390058	0.902291
	H76	H	0.081684	0.913434	0.605445
	H77	H	0.094354	0.087119	0.377632
	H78	H	0.907812	0.084303	0.606638
	H79	H	0.909437	0.909683	0.376083
	H80	H	0.612572	0.086177	0.904397
	H81	H	0.383087	0.085692	0.090271
	H82	H	0.611992	0.909937	0.081175
	H83	H	0.385342	0.909510	0.902250
	H84	H	0.613238	0.908682	0.081323
	H85	H	0.384020	0.099331	0.076038
	H86	H	0.614263	0.088728	0.904514
	H87	H	0.385284	0.905304	0.904915
	H88	H	0.917195	0.091285	0.605471
	H89	H	0.085125	0.086931	0.380412
	H90	H	0.088120	0.910454	0.609071
	H91	H	0.908737	0.917937	0.378686
	H92	H	0.091833	0.613446	0.907249
	H93	H	0.084392	0.389936	0.076510
	H94	H	0.907423	0.613140	0.077368
	H95	H	0.900630	0.386127	0.911178
	H96	H	0.409376	0.112465	0.581571
	H97	H	0.592622	0.887045	0.575303
	H98	H	0.586203	0.111422	0.404757
	H99	H	0.409687	0.883754	0.399807
	H100	H	0.593902	0.409553	0.108160
	H101	H	0.581416	0.592050	0.878024
	H102	H	0.413927	0.595510	0.108954
	H103	H	0.411867	0.410063	0.877778
	H104	H	0.114832	0.594522	0.406402
	H105	H	0.887494	0.595782	0.570819
	H106	H	0.114407	0.408201	0.581367
	H107	H	0.888383	0.414781	0.402683
	H108	H	0.912010	0.612686	0.082481
	H109	H	0.092056	0.386535	0.077955
	H110	H	0.089903	0.614689	0.900753
	H111	H	0.904121	0.380545	0.891307
	H112	H	0.088171	0.918064	0.606261
	H113	H	0.088774	0.095158	0.376556
	H114	H	0.907255	0.095132	0.610965
	H115	H	0.915871	0.913798	0.380074
	H116	H	0.612132	0.087135	0.907066
	H117	H	0.391528	0.081300	0.071812
	H118	H	0.612284	0.908400	0.080685
	H119	H	0.387424	0.909904	0.906808
	C120	C	0.378214	0.007274	0.614455
	C121	C	0.621957	0.990746	0.614054
	C122	C	0.620438	0.007551	0.371297
	C123	C	0.376892	0.990369	0.371268
	C124	C	0.621121	0.377413	0.000888
	C125	C	0.620303	0.619755	0.983431
	C126	C	0.379066	0.618807	0.000319
	C127	C	0.378426	0.377182	0.983009
	C128	C	0.008885	0.622657	0.371022
	C129	C	0.990698	0.622599	0.613935
	C130	C	0.008576	0.378781	0.613549
	C131	C	0.991730	0.378614	0.371077
	C132	C	0.878466	0.507384	0.112429
	C133	C	0.122158	0.491445	0.113226
	C134	C	0.120348	0.508421	0.871054
	C135	C	0.876043	0.490655	0.869347
	C136	C	0.119905	0.880423	0.502176
	C137	C	0.121925	0.122242	0.484017
	C138	C	0.878337	0.122616	0.501573
	C139	C	0.878777	0.880601	0.483559
	C140	C	0.508336	0.118954	0.871743
	C141	C	0.490967	0.121113	0.113879
	C142	C	0.507502	0.876379	0.113641
	C143	C	0.490237	0.875625	0.871185
	C144	C	0.374167	0.888345	0.675261
	C145	C	0.623088	0.109820	0.675526
	C146	C	0.621709	0.887410	0.312235
	C147	C	0.374097	0.108560	0.308729
	C148	C	0.679376	0.375891	0.879417
	C149	C	0.682269	0.624116	0.103218
	C150	C	0.317560	0.623607	0.880304
	C151	C	0.317934	0.374651	0.102934
	C152	C	0.890254	0.683750	0.366111
	C153	C	0.109483	0.684336	0.619199
	C154	C	0.889625	0.317941	0.616392
	C155	C	0.110844	0.318556	0.367393
	C156	C	0.888238	0.377681	0.671513
	C157	C	0.109786	0.624782	0.675347
	C158	C	0.890313	0.625324	0.308861
	C159	C	0.111012	0.377149	0.310682
	C160	C	0.375157	0.680195	0.880541
	C161	C	0.624173	0.681000	0.103457
	C162	C	0.623203	0.317295	0.880289
	C163	C	0.376442	0.317943	0.103659
	C164	C	0.681761	0.889146	0.368103
	C165	C	0.681171	0.110789	0.617711
	C166	C	0.314527	0.889823	0.620002
	C167	C	0.316960	0.109349	0.367589
	C168	C	0.877186	0.388101	0.173176
	C169	C	0.125498	0.610422	0.174715
	C170	C	0.120005	0.388376	0.811516
	C171	C	0.873665	0.609604	0.808641
	C172	C	0.180985	0.877067	0.382305
	C173	C	0.180741	0.123961	0.605414
	C174	C	0.817224	0.125867	0.381439
	C175	C	0.819208	0.877924	0.604339
	C176	C	0.389443	0.179801	0.867306
	C177	C	0.610424	0.181202	0.117744
	C178	C	0.388804	0.814873	0.117293
	C179	C	0.609410	0.815114	0.867847
	C180	C	0.387330	0.875041	0.172248
	C181	C	0.610245	0.122678	0.175224
	C182	C	0.388206	0.119304	0.812063
	C183	C	0.609623	0.872877	0.810565
	C184	C	0.876773	0.181170	0.380646
	C185	C	0.123198	0.181081	0.605022
	C186	C	0.123975	0.819302	0.381960
	C187	C	0.875376	0.819124	0.603461
	C188	C	0.180463	0.389251	0.866610
	C189	C	0.184516	0.609594	0.117864
	C190	C	0.818606	0.388070	0.115795
	C191	C	0.815811	0.609422	0.865900
	C192	C	0.404046	0.090072	0.588689
	C193	C	0.597491	0.907862	0.587872
	C194	C	0.594851	0.090480	0.396717
	C195	C	0.401792	0.907328	0.397251
	C196	C	0.596295	0.402787	0.084621
	C197	C	0.594386	0.593650	0.899870
	C198	C	0.405038	0.592559	0.083688
	C199	C	0.403308	0.401902	0.898884
	C200	C	0.091249	0.597039	0.398137
	C201	C	0.908078	0.596981	0.586809
	C202	C	0.092017	0.403717	0.589082
	C203	C	0.908551	0.402921	0.396145
	C204	C	0.903875	0.590347	0.086226
	C205	C	0.095546	0.409011	0.086941
	C206	C	0.095959	0.591459	0.896809
	C207	C	0.900794	0.407329	0.894556
	C208	C	0.093703	0.906448	0.585337
	C209	C	0.096889	0.096889	0.400023
	C210	C	0.903495	0.097553	0.585894
	C211	C	0.904015	0.906288	0.400097
	C212	C	0.591474	0.094405	0.897783
	C213	C	0.407864	0.096038	0.087137
	C214	C	0.590661	0.901665	0.088354
	C215	C	0.407746	0.900987	0.897006
	Zn216	Zn	0.499433	-0.002379	0.742763
	Zn217	Zn	0.498715	-0.002347	0.241758
	Zn218	Zn	0.748518	0.498723	-0.008614
	Zn219	Zn	0.250889	0.499310	-0.008981
	Zn220	Zn	-0.000367	0.751504	0.492323
	Zn221	Zn	0.000565	0.250000	0.492459
	Zn222	Zn	-0.001481	0.499890	0.742207
	Zn223	Zn	0.000322	0.500219	0.242443
	Zn224	Zn	0.498784	0.747329	-0.007471
	Zn225	Zn	0.500022	0.249061	-0.008116
	Zn226	Zn	0.750513	0.001282	0.492385
	Zn227	Zn	0.248978	0.000364	0.494367
	N228	N	0.413401	0.962140	0.671649
	N229	N	0.587233	0.034106	0.673740
	N230	N	0.584201	0.962189	0.314214
	N231	N	0.410643	0.033488	0.310900
	N232	N	0.678403	0.412457	0.955488
	N233	N	0.680225	0.586915	0.027402
	N234	N	0.319773	0.586324	0.955919
	N235	N	0.318963	0.410715	0.026697
	N236	N	0.965193	0.682161	0.403977
	N237	N	0.034219	0.683233	0.581765
	N238	N	0.965430	0.318483	0.581008
	N239	N	0.035780	0.319384	0.404432
	N240	N	0.963061	0.415200	0.669641
	N241	N	0.034965	0.587275	0.672284
	N242	N	0.964879	0.587766	0.311983
	N243	N	0.035950	0.413725	0.312816
	N244	N	0.412751	0.677292	0.956026
	N245	N	0.586168	0.678267	0.028070
	N246	N	0.587662	0.318033	0.956704
	N247	N	0.413257	0.319365	0.027950
	N248	N	0.681291	0.964986	0.403850
	N249	N	0.680701	0.035844	0.580407
	N250	N	0.317016	0.964869	0.582865
	N251	N	0.318681	0.034867	0.405941
	N252	N	0.913713	0.463554	0.171282
	N253	N	0.087315	0.535782	0.172137
	N254	N	0.083508	0.463620	0.813976
	N255	N	0.910429	0.534750	0.810718
	N256	N	0.178845	0.914050	0.458087
	N257	N	0.180250	0.088292	0.528993
	N258	N	0.818014	0.090155	0.457928
	N259	N	0.820902	0.915264	0.528708
	N260	N	0.465176	0.179837	0.903641
	N261	N	0.535029	0.180523	0.080613
	N262	N	0.464686	0.815356	0.081773
	N263	N	0.534199	0.816586	0.904673
	N264	N	0.462107	0.912626	0.169996
	N265	N	0.534828	0.086194	0.173044
	N266	N	0.463106	0.082064	0.815019
	N267	N	0.534529	0.909421	0.812082
	N268	N	0.914038	0.179218	0.456349
	N269	N	0.087654	0.180369	0.528472
	N270	N	0.086771	0.821220	0.457471
	N271	N	0.911639	0.820438	0.527379
	N272	N	0.180962	0.464851	0.902649
	N273	N	0.182387	0.534779	0.080358
	N274	N	0.819194	0.463355	0.079050
	N275	N	0.817178	0.534406	0.902906
	O276	O	0.425000	0.523874	0.525094
	H277	H	0.415644	0.528125	0.512077
	H278	H	0.421821	0.525999	0.523645
	O279	O	0.312922	0.307266	0.684327
	H280	H	0.312848	0.312964	0.680113
	H281	H	0.324121	0.341866	0.692835
	O282	O	0.687812	0.681890	0.678492
	H283	H	0.699848	0.655170	0.677507
	H284	H	0.669005	0.692343	0.658231
	O285	O	1.120148	0.930442	-0.096633
	H286	H	1.127853	0.920808	-0.088704
	H287	H	1.114821	0.913922	-0.110801
	O288	O	0.101483	0.027350	0.091918
	H289	H	0.111510	0.047689	0.095132
	H290	H	0.093477	0.021827	0.095532
	O291	O	0.868008	-0.207599	0.969415
	H292	H	0.885511	-0.195099	0.940152
	H293	H	0.851068	-0.237585	0.971978
	O294	O	1.140055	1.118681	0.994121
	H295	H	1.146236	1.122672	1.012008
	H296	H	1.152480	1.114174	1.008731
	O297	O	0.697417	0.705648	0.512579
	H298	H	0.695525	0.700348	0.502936
	H299	H	0.707566	0.714107	0.510030
	O300	O	0.503069	0.292680	0.492271
	H301	H	0.485885	0.285839	0.524143
	H302	H	0.512026	0.311439	0.515775
	O303	O	0.399203	0.692667	0.292812
	H304	H	0.410446	0.678127	0.275601
	H305	H	0.411087	0.686662	0.288614
	O306	O	-0.094952	-0.052008	0.817027
	H307	H	-0.091129	-0.061222	0.827555
	H308	H	-0.102454	-0.064835	0.817922
	O309	O	0.999644	0.173308	0.148361
	H310	H	0.990580	0.178191	0.138350
	H311	H	0.988664	0.183320	0.148320
	O312	O	0.328908	0.461480	0.695472
	H313	H	0.308782	0.471153	0.708584
	H314	H	0.335236	0.485323	0.688469
	O315	O	0.630249	0.384664	0.559935
	H316	H	0.637606	0.393649	0.568011
	H317	H	0.631040	0.389647	0.577512
	O318	O	-0.192386	0.137355	0.026046
	H319	H	-0.209275	0.123426	0.041253
	H320	H	-0.197007	0.129391	0.001140
	O321	O	0.179939	0.818700	1.001018
	H322	H	0.173755	0.814364	1.025361
	H323	H	0.166130	0.794714	1.013118
	O324	O	1.095487	-0.038064	0.901638
	H325	H	1.115842	-0.027857	0.889258
	H326	H	1.107715	-0.040707	0.899542
	O327	O	0.505099	0.509669	0.512158
	H328	H	0.512415	0.521610	0.514882
	H329	H	0.497414	0.515693	0.529436
	O330	O	-0.155488	1.028395	1.158688
	H331	H	-0.177179	1.033445	1.168421
	H332	H	-0.143915	0.992442	1.153986
	O333	O	0.022431	1.118095	0.047846
	H334	H	0.014232	1.130651	0.054338
	H335	H	0.032273	1.120614	0.038510
	O336	O	0.830162	0.834632	0.085645
	H337	H	0.854463	0.854116	0.075238
	H338	H	0.817285	0.809161	0.067402
	O339	O	-0.056309	0.881395	0.878208
	H340	H	-0.057158	0.884313	0.865212
	H341	H	-0.050953	0.883862	0.882481
	O342	O	0.366477	0.373890	0.361113
	H343	H	0.374365	0.383487	0.371269
	H344	H	0.360577	0.369508	0.383272
	O345	O	0.191646	0.091587	1.161807
	H346	H	0.203915	0.103607	1.181693
	H347	H	0.193926	0.074527	1.143085
	O348	O	0.521118	0.290379	0.292351
	H349	H	0.517410	0.263921	0.269393
	H350	H	0.497596	0.279121	0.332266
	O351	O	0.508257	0.706005	0.485289
	H352	H	0.510822	0.694129	0.494662
	H353	H	0.516073	0.706402	0.474842
	O354	O	1.020624	1.146931	0.810949
	H355	H	1.030543	1.153576	0.819302
	H356	H	1.028751	1.125853	0.804073
	O357	O	-0.094303	-0.041947	0.055375
	H358	H	-0.098309	-0.043242	0.046452
	H359	H	-0.081549	-0.032979	0.069725
	O360	O	0.708495	0.488401	0.627305
	H361	H	0.708134	0.509106	0.602669
	H362	H	0.704749	0.477310	0.631778
	O363	O	1.150678	-0.038171	-0.093877
	H364	H	1.154703	-0.033054	-0.092176
	H365	H	1.154028	-0.034639	-0.080238
	O366	O	-0.180960	0.089634	0.976482
	H367	H	-0.181059	0.101015	0.972422
	H368	H	-0.182708	0.075126	0.976356
	O369	O	1.681468	0.566671	0.397729
	H370	H	1.682537	0.559850	0.388554
	H371	H	1.677866	0.555535	0.394411
	O372	O	0.483009	0.383883	0.577081
	H373	H	0.490187	0.407507	0.581730
	H374	H	0.477986	0.366454	0.602448
	O375	O	0.079044	-0.006300	1.008988
	H376	H	0.069001	-0.010216	1.024066
	H377	H	0.069116	0.007096	1.027328
	O378	O	0.305013	0.439034	0.456045
	H379	H	0.325850	0.419931	0.456659
	H380	H	0.298181	0.437769	0.428740
	O381	O	-0.022850	0.978674	0.199876
	H382	H	-0.026688	0.975873	0.202184
	H383	H	-0.036041	0.988535	0.202559
	O384	O	0.577309	0.396424	0.697933
	H385	H	0.576839	0.386068	0.679611
	H386	H	0.589684	0.400821	0.720885
	O387	O	0.587314	0.594666	0.317485
	H388	H	0.597436	0.570904	0.309059
	H389	H	0.585195	0.579033	0.311987
	O390	O	1.079005	1.184105	-0.024144
	H391	H	1.086435	1.189918	-0.016631
	H392	H	1.082707	1.177935	-0.024394
	O393	O	0.992939	-0.190283	1.173761
	H394	H	0.971649	-0.175728	1.172001
	H395	H	0.982545	-0.204188	1.199051
	O396	O	0.680367	0.323534	0.310271
	H397	H	0.633967	0.308284	0.301110
	H398	H	0.683979	0.311176	0.358768
	O399	O	0.373695	0.482131	0.282487
	H400	H	0.372491	0.488021	0.275039
	H401	H	0.381446	0.485923	0.275633
	O402	O	1.132504	0.880940	-0.020038
	H403	H	1.139452	0.885685	-0.018198
	H404	H	1.118315	0.885147	0.000350
	O405	O	0.462761	0.580454	0.322898
	H406	H	0.469022	0.547882	0.317406
	H407	H	0.466659	0.596402	0.337943
	O408	O	0.300157	0.648112	0.520099
	H409	H	0.296011	0.647132	0.508185
	H410	H	0.292318	0.660247	0.501870
	O411	O	1.296586	0.696888	1.389860
	H412	H	1.293482	0.703201	1.389101
	H413	H	1.316372	0.711839	1.383589
	O414	O	0.285293	0.283626	0.518485
	H415	H	0.263375	0.268004	0.540388
	H416	H	0.275335	0.289403	0.525062
	O417	O	0.002545	0.810008	1.062226
	H418	H	-0.013797	0.808563	1.053402
	H419	H	-0.007367	0.815307	1.069742
	O420	O	0.068555	0.980634	0.843035
	H421	H	0.083333	1.001189	0.856450
	H422	H	0.058846	0.987077	0.839159
	O423	O	-0.208391	1.061462	-0.210355
	H424	H	-0.183465	1.067942	-0.204565
	H425	H	-0.233715	1.060282	-0.242103
	O426	O	0.525867	0.714614	0.706601
	H427	H	0.524644	0.733244	0.703681
	H428	H	0.541398	0.732652	0.720210
	O429	O	0.683829	0.305996	0.459212
	H430	H	0.677913	0.294989	0.471591
	H431	H	0.679243	0.291502	0.471539
	O432	O	0.521636	0.487402	0.677864
	H433	H	0.524580	0.504247	0.683114
	H434	H	0.533592	0.515362	0.671136
	O435	O	-0.135199	0.189980	-0.195582
	H436	H	-0.117416	0.185514	-0.195986
	H437	H	-0.131453	0.184911	-0.179440
	O438	O	-0.555702	1.636380	1.629360
	H439	H	-0.545491	1.648653	1.612905
	H440	H	-0.577224	1.648437	1.614089
	O441	O	0.717261	0.481728	0.278772
	H442	H	0.721611	0.445263	0.272017
	H443	H	0.734243	0.460821	0.271196
