data_Molecule from HDF5

_cell_length_a		16.511054
_cell_length_b		16.344407
_cell_length_c		16.436671
_cell_angle_alpha	89.985051
_cell_angle_beta	90.051777
_cell_angle_gamma	89.932410
_symmetry_space_group_name_H-M	'P 1'
_symmetry_Int_Tables_number		1

loop_
	_symmetry_equiv_pos_as_xyz
	x,y,z

loop_
	_atom_site_label
	_atom_site_type_symbol
	_atom_site_fract_x
	_atom_site_fract_y
	_atom_site_fract_z
	H0	H	0.394551	0.846027	0.726904
	H1	H	0.608641	0.162235	0.723760
	H2	H	0.607763	0.844423	0.279044
	H3	H	0.395667	0.162995	0.281613
	H4	H	0.725842	0.395503	0.844063
	H5	H	0.726935	0.612465	0.158783
	H6	H	0.280579	0.608248	0.844378
	H7	H	0.276503	0.391682	0.157884
	H8	H	0.844568	0.725954	0.393485
	H9	H	0.160031	0.722049	0.605080
	H10	H	0.844774	0.279893	0.606989
	H11	H	0.160240	0.279106	0.395420
	H12	H	0.846084	0.393182	0.726568
	H13	H	0.159625	0.606926	0.722122
	H14	H	0.844879	0.608797	0.278266
	H15	H	0.160109	0.394802	0.279005
	H16	H	0.397408	0.724366	0.843713
	H17	H	0.607918	0.724873	0.160190
	H18	H	0.608822	0.281217	0.843312
	H19	H	0.397886	0.282817	0.160340
	H20	H	0.725274	0.845237	0.392655
	H21	H	0.726631	0.159683	0.610474
	H22	H	0.281509	0.844197	0.608064
	H23	H	0.278768	0.160891	0.395339
	H24	H	0.896757	0.343325	0.222516
	H25	H	0.109656	0.659995	0.224770
	H26	H	0.110950	0.344381	0.778218
	H27	H	0.896979	0.660842	0.779152
	H28	H	0.226275	0.893485	0.345524
	H29	H	0.225637	0.109928	0.659637
	H30	H	0.777077	0.111120	0.345984
	H31	H	0.776342	0.890297	0.658394
	H32	H	0.346076	0.229738	0.893139
	H33	H	0.658841	0.226464	0.108362
	H34	H	0.345474	0.781618	0.107143
	H35	H	0.659260	0.779694	0.893628
	H36	H	0.344927	0.898324	0.222454
	H37	H	0.657199	0.112159	0.227439
	H38	H	0.346425	0.114327	0.776421
	H39	H	0.659392	0.895859	0.778238
	H40	H	0.896309	0.223679	0.343821
	H41	H	0.108389	0.224521	0.659880
	H42	H	0.107641	0.780861	0.343777
	H43	H	0.897159	0.780517	0.660118
	H44	H	0.227204	0.345171	0.893268
	H45	H	0.225423	0.659619	0.109556
	H46	H	0.777388	0.346006	0.110507
	H47	H	0.780822	0.661523	0.894055
	H48	H	0.411625	0.118305	0.593942
	H49	H	0.594232	0.887233	0.593381
	H50	H	0.587870	0.115839	0.414722
	H51	H	0.416921	0.888892	0.407263
	H52	H	0.587894	0.415503	0.113068
	H53	H	0.594755	0.588940	0.889322
	H54	H	0.411206	0.586894	0.114600
	H55	H	0.414887	0.420463	0.890509
	H56	H	0.113448	0.590542	0.415912
	H57	H	0.887530	0.592881	0.590822
	H58	H	0.114995	0.413359	0.591270
	H59	H	0.891345	0.416397	0.411766
	H60	H	0.114420	0.412822	0.590681
	H61	H	0.890423	0.589302	0.587380
	H62	H	0.114394	0.588280	0.410165
	H63	H	0.890572	0.412117	0.411574
	H64	H	0.417478	0.591380	0.113198
	H65	H	0.587898	0.590237	0.890185
	H66	H	0.594143	0.414998	0.115383
	H67	H	0.416858	0.417248	0.890120
	H68	H	0.588838	0.114925	0.417231
	H69	H	0.582465	0.891161	0.593345
	H70	H	0.419686	0.114101	0.588134
	H71	H	0.416737	0.892689	0.417819
	H72	H	0.912212	0.616638	0.089503
	H73	H	0.092098	0.391535	0.078681
	H74	H	0.089831	0.614907	0.914630
	H75	H	0.915770	0.390316	0.916141
	H76	H	0.091205	0.916098	0.613426
	H77	H	0.083431	0.092518	0.390842
	H78	H	0.921987	0.084694	0.609945
	H79	H	0.910955	0.913307	0.387988
	H80	H	0.616124	0.098750	0.914567
	H81	H	0.388651	0.092050	0.095069
	H82	H	0.615652	0.917402	0.094219
	H83	H	0.390296	0.914867	0.914366
	H84	H	0.616551	0.912201	0.089465
	H85	H	0.387477	0.097981	0.089911
	H86	H	0.610249	0.087425	0.920213
	H87	H	0.391273	0.916823	0.914279
	H88	H	0.915001	0.099045	0.617455
	H89	H	0.097251	0.094271	0.385457
	H90	H	0.089796	0.911458	0.614711
	H91	H	0.912198	0.917759	0.390313
	H92	H	0.093221	0.616258	0.914070
	H93	H	0.097323	0.384398	0.094766
	H94	H	0.915314	0.616122	0.091147
	H95	H	0.912392	0.389137	0.915838
	H96	H	0.410335	0.115898	0.583471
	H97	H	0.589401	0.892343	0.582907
	H98	H	0.590659	0.116096	0.415388
	H99	H	0.407864	0.887214	0.413746
	H100	H	0.591596	0.420802	0.113354
	H101	H	0.592825	0.595067	0.887709
	H102	H	0.411665	0.594665	0.117525
	H103	H	0.412569	0.416982	0.889557
	H104	H	0.115259	0.594759	0.411461
	H105	H	0.889094	0.587792	0.592873
	H106	H	0.114674	0.413887	0.590654
	H107	H	0.891396	0.414171	0.415391
	H108	H	0.914897	0.615431	0.087866
	H109	H	0.080827	0.390842	0.092612
	H110	H	0.090300	0.616173	0.911009
	H111	H	0.914665	0.388455	0.913215
	H112	H	0.094025	0.913061	0.616051
	H113	H	0.092703	0.080887	0.391703
	H114	H	0.905751	0.084162	0.616156
	H115	H	0.915487	0.914147	0.390374
	H116	H	0.614545	0.087351	0.907202
	H117	H	0.390572	0.090641	0.087768
	H118	H	0.613162	0.918413	0.087958
	H119	H	0.390246	0.916582	0.912078
	C120	C	0.380910	0.011762	0.623032
	C121	C	0.622651	0.994736	0.623148
	C122	C	0.622390	0.011200	0.381409
	C123	C	0.380401	0.994372	0.380607
	C124	C	0.624383	0.382725	0.009754
	C125	C	0.624392	0.624771	0.993507
	C126	C	0.381047	0.624011	0.010696
	C127	C	0.381108	0.382928	0.993450
	C128	C	0.010417	0.624083	0.379527
	C129	C	0.993312	0.622655	0.622175
	C130	C	0.011077	0.379817	0.623990
	C131	C	0.994725	0.380500	0.380169
	C132	C	0.881321	0.511388	0.122601
	C133	C	0.123277	0.493392	0.122390
	C134	C	0.124296	0.511044	0.880094
	C135	C	0.881579	0.494048	0.881195
	C136	C	0.124024	0.880500	0.510618
	C137	C	0.123757	0.122660	0.493707
	C138	C	0.880890	0.123101	0.510553
	C139	C	0.879932	0.880456	0.493494
	C140	C	0.510415	0.125836	0.880050
	C141	C	0.492697	0.126504	0.124267
	C142	C	0.511032	0.882744	0.122981
	C143	C	0.494273	0.882433	0.880060
	C144	C	0.377212	0.893218	0.685584
	C145	C	0.626596	0.114139	0.683884
	C146	C	0.625562	0.892319	0.319354
	C147	C	0.377579	0.114621	0.321025
	C148	C	0.685624	0.377991	0.891332
	C149	C	0.685645	0.628912	0.111783
	C150	C	0.320397	0.626919	0.891830
	C151	C	0.318642	0.376655	0.111385
	C152	C	0.891976	0.685441	0.376048
	C153	C	0.112462	0.682294	0.623510
	C154	C	0.892549	0.319386	0.626047
	C155	C	0.112855	0.319398	0.377496
	C156	C	0.893102	0.375951	0.685485
	C157	C	0.112107	0.625424	0.682254
	C158	C	0.892232	0.627271	0.318319
	C159	C	0.112933	0.377027	0.319242
	C160	C	0.379097	0.684070	0.891388
	C161	C	0.626502	0.685226	0.112371
	C162	C	0.627050	0.321107	0.891149
	C163	C	0.379006	0.322051	0.112364
	C164	C	0.684093	0.892471	0.376259
	C165	C	0.685501	0.112739	0.627575
	C166	C	0.321056	0.892093	0.626400
	C167	C	0.319430	0.113731	0.377838
	C168	C	0.878232	0.391735	0.183354
	C169	C	0.127175	0.612386	0.184260
	C170	C	0.128157	0.392028	0.818496
	C171	C	0.878660	0.613278	0.819517
	C172	C	0.185375	0.876525	0.392530
	C173	C	0.184793	0.126846	0.612356
	C174	C	0.818587	0.127780	0.392761
	C175	C	0.817654	0.874409	0.611313
	C176	C	0.393167	0.188923	0.875489
	C177	C	0.611311	0.186805	0.127250
	C178	C	0.392741	0.821857	0.125260
	C179	C	0.612113	0.820379	0.876403
	C180	C	0.392364	0.880044	0.182720
	C181	C	0.610339	0.130125	0.186524
	C182	C	0.393064	0.131056	0.817496
	C183	C	0.612144	0.878357	0.818551
	C184	C	0.877795	0.184157	0.391753
	C185	C	0.126468	0.183986	0.612580
	C186	C	0.125939	0.820686	0.391531
	C187	C	0.878060	0.819407	0.612252
	C188	C	0.186230	0.392486	0.875908
	C189	C	0.184901	0.612261	0.126874
	C190	C	0.818768	0.392963	0.127444
	C191	C	0.820943	0.613629	0.877044
	C192	C	0.406527	0.094559	0.596343
	C193	C	0.596206	0.911878	0.597252
	C194	C	0.596670	0.094021	0.408140
	C195	C	0.406310	0.911210	0.405872
	C196	C	0.598594	0.409425	0.092111
	C197	C	0.599165	0.598881	0.910620
	C198	C	0.406198	0.598466	0.093457
	C199	C	0.407070	0.410276	0.911572
	C200	C	0.092758	0.598500	0.405193
	C201	C	0.910572	0.597494	0.597399
	C202	C	0.093335	0.405849	0.598264
	C203	C	0.912596	0.406742	0.405584
	C204	C	0.906830	0.594291	0.096859
	C205	C	0.097459	0.410617	0.095969
	C206	C	0.098423	0.594192	0.905966
	C207	C	0.907132	0.411101	0.907459
	C208	C	0.098827	0.906161	0.593415
	C209	C	0.098301	0.096772	0.410921
	C210	C	0.906705	0.096591	0.592995
	C211	C	0.905359	0.907357	0.411152
	C212	C	0.592330	0.098945	0.906515
	C213	C	0.410427	0.101041	0.098353
	C214	C	0.593574	0.908633	0.097689
	C215	C	0.411960	0.908550	0.906073
	Zn216	Zn	0.502131	0.003838	0.751505
	Zn217	Zn	0.501377	0.003719	0.252103
	Zn218	Zn	0.753300	0.503314	0.001235
	Zn219	Zn	0.251842	0.502414	0.001901
	Zn220	Zn	0.001799	0.752414	0.501573
	Zn221	Zn	0.002700	0.251510	0.501595
	Zn222	Zn	0.002074	0.502107	0.752775
	Zn223	Zn	0.002825	0.501855	0.251000
	Zn224	Zn	0.502872	0.753648	0.002101
	Zn225	Zn	0.502345	0.254729	0.001927
	Zn226	Zn	0.751555	0.001831	0.502669
	Zn227	Zn	0.252563	0.002207	0.501815
	N228	N	0.413537	0.968843	0.683724
	N229	N	0.588201	0.039811	0.681123
	N230	N	0.587914	0.967410	0.322259
	N231	N	0.414793	0.039251	0.322411
	N232	N	0.684272	0.415294	0.966226
	N233	N	0.684320	0.592012	0.036595
	N234	N	0.321534	0.590206	0.967087
	N235	N	0.319871	0.413872	0.036478
	N236	N	0.966687	0.683999	0.412956
	N237	N	0.037485	0.680997	0.587074
	N238	N	0.967013	0.321593	0.588779
	N239	N	0.038344	0.321373	0.414547
	N240	N	0.967989	0.412525	0.684562
	N241	N	0.037106	0.589082	0.681709
	N242	N	0.966834	0.589890	0.320304
	N243	N	0.038366	0.414301	0.320763
	N244	N	0.415836	0.682693	0.966395
	N245	N	0.589022	0.682668	0.037696
	N246	N	0.589852	0.323867	0.965913
	N247	N	0.417213	0.325839	0.038206
	N248	N	0.682517	0.967482	0.413941
	N249	N	0.683213	0.037283	0.590583
	N250	N	0.323275	0.966875	0.588365
	N251	N	0.320883	0.038037	0.413935
	N252	N	0.916390	0.466449	0.180760
	N253	N	0.089487	0.537540	0.181515
	N254	N	0.090060	0.466792	0.821361
	N255	N	0.915427	0.537783	0.821849
	N256	N	0.183978	0.913338	0.467498
	N257	N	0.183068	0.089406	0.537403
	N258	N	0.820403	0.090520	0.467706
	N259	N	0.818611	0.911680	0.536316
	N260	N	0.467212	0.185810	0.913546
	N261	N	0.537109	0.184711	0.089267
	N262	N	0.467657	0.823348	0.088965
	N263	N	0.537680	0.822692	0.913741
	N264	N	0.466930	0.917178	0.181266
	N265	N	0.535627	0.093456	0.184754
	N266	N	0.467072	0.092641	0.820166
	N267	N	0.537593	0.915958	0.820411
	N268	N	0.915925	0.181312	0.465959
	N269	N	0.089187	0.181493	0.537885
	N270	N	0.088246	0.823130	0.466010
	N271	N	0.915947	0.823142	0.538019
	N272	N	0.183770	0.467490	0.913539
	N273	N	0.182760	0.537220	0.089265
	N274	N	0.820473	0.468288	0.090576
	N275	N	0.822608	0.538501	0.914535
	O276	O	0.341102	0.502502	0.684203
	H277	H	0.325631	0.505759	0.689099
	H278	H	0.359538	0.511406	0.683720
	O279	O	0.819556	0.185552	0.821277
	H280	H	0.829272	0.196434	0.851033
	H281	H	0.825534	0.154397	0.813983
	O282	O	0.712401	0.477406	0.288685
	H283	H	0.733183	0.461007	0.268913
	H284	H	0.706318	0.465319	0.286814
	O285	O	0.706881	0.363959	0.429132
	H286	H	0.714623	0.380360	0.434045
	H287	H	0.713401	0.329930	0.409241
	O288	O	0.388626	0.479267	0.512916
	H289	H	0.385531	0.489691	0.507296
	H290	H	0.382350	0.469666	0.514758
	O291	O	0.417044	0.544553	0.588359
	H292	H	0.418984	0.542452	0.586322
	H293	H	0.417912	0.540190	0.593999
	O294	O	0.055690	-0.048542	1.183992
	H295	H	0.063691	-0.046167	1.173799
	H296	H	0.057844	-0.055183	1.175493
	O297	O	0.358322	0.494165	0.452035
	H298	H	0.347986	0.511418	0.446693
	H299	H	0.358633	0.493210	0.449848
	O300	O	0.360270	0.496620	0.459649
	H301	H	0.374793	0.500934	0.451230
	H302	H	0.331739	0.512613	0.462774
	O303	O	0.494094	0.618328	0.684077
	H304	H	0.496888	0.634340	0.708125
	H305	H	0.524989	0.611699	0.676878
	O306	O	0.558523	0.543802	0.285345
	H307	H	0.560667	0.533429	0.291471
	H308	H	0.567552	0.532232	0.293084
	O309	O	1.002503	0.819028	0.071884
	H310	H	1.033817	0.818486	0.065886
	H311	H	1.004135	0.809254	0.074555
	O312	O	0.060232	0.845469	1.078805
	H313	H	0.066630	0.829362	1.063532
	H314	H	0.078845	0.840293	1.081203
	O315	O	0.116031	0.077789	0.830457
	H316	H	0.140342	0.057778	0.827813
	H317	H	0.109851	0.083334	0.838987
	O318	O	1.196200	0.213478	0.013691
	H319	H	1.216191	0.242835	0.010724
	H320	H	1.168663	0.208620	-0.012329
	O321	O	0.220378	0.035609	-0.025391
	H322	H	0.211779	0.045463	-0.009943
	H323	H	0.223633	0.029288	-0.017966
	O324	O	0.635248	0.410640	0.463310
	H325	H	0.615530	0.406046	0.478644
	H326	H	0.649089	0.396033	0.454592
	O327	O	0.314193	0.690675	0.312176
	H328	H	0.359650	0.698974	0.304520
	H329	H	0.312548	0.670871	0.339963
	O330	O	-0.217779	0.819986	0.009270
	H331	H	-0.208295	0.828914	0.050558
	H332	H	-0.245258	0.801632	0.008956
	O333	O	0.602080	0.671887	0.670531
	H334	H	0.621282	0.647847	0.669249
	H335	H	0.611068	0.672489	0.650601
	O336	O	-0.133879	0.127798	0.189711
	H337	H	-0.121668	0.111445	0.177499
	H338	H	-0.130592	0.112737	0.184656
	O339	O	0.191158	0.884753	0.976043
	H340	H	0.201083	0.880457	0.963910
	H341	H	0.170493	0.877523	0.985122
	O342	O	-0.173189	0.987001	1.211986
	H343	H	-0.185120	0.989001	1.232808
	H344	H	-0.178530	1.004914	1.185075
	O345	O	1.212410	1.021507	0.212097
	H346	H	1.201127	1.022650	0.203001
	H347	H	1.233635	1.017697	0.235890
	O348	O	0.368257	0.626686	0.424587
	H349	H	0.364362	0.641800	0.433153
	H350	H	0.352648	0.628009	0.421775
	O351	O	0.217085	0.984681	0.801491
	H352	H	0.249003	0.980623	0.784815
	H353	H	0.222091	0.979291	0.819019
	O354	O	0.218218	0.796625	-0.013178
	H355	H	0.226290	0.793532	-0.038168
	H356	H	0.232962	0.790950	-0.040385
	O357	O	-0.046864	0.198241	1.062020
	H358	H	-0.046310	0.186059	1.069383
	H359	H	-0.027540	0.201403	1.074701
	O360	O	0.564063	0.707637	0.436876
	H361	H	0.564554	0.706989	0.452207
	H362	H	0.543833	0.699522	0.440167
	O363	O	-0.454951	0.330447	0.641258
	H364	H	-0.458940	0.319178	0.659357
	H365	H	-0.454164	0.336382	0.639992
	O366	O	-0.021875	1.219099	-0.212318
	H367	H	-0.032279	1.214897	-0.219878
	H368	H	-0.012073	1.229743	-0.237611
	O369	O	0.333545	0.505993	0.352992
	H370	H	0.350972	0.493784	0.345974
	H371	H	0.315168	0.510097	0.328886
	O372	O	1.012711	0.020206	1.089219
	H373	H	1.014662	0.032222	1.092651
	H374	H	1.015927	0.003594	1.078749
	O375	O	0.590885	0.313619	0.319999
	H376	H	0.580436	0.307843	0.305633
	H377	H	0.605738	0.316313	0.329352
	O378	O	0.956104	0.806344	0.856233
	H379	H	0.942326	0.812616	0.853551
	H380	H	0.937370	0.804195	0.868348
	O381	O	0.449985	0.306166	0.621528
	H382	H	0.438067	0.304304	0.616770
	H383	H	0.443240	0.302203	0.618984
	O384	O	0.804884	0.052509	0.043253
	H385	H	0.795110	0.055609	0.019957
	H386	H	0.814928	0.059008	0.035211
	O387	O	-0.021589	-0.208769	1.214162
	H388	H	-0.002261	-0.204736	1.214516
	H389	H	-0.010789	-0.222605	1.234383
	O390	O	0.185847	0.183129	0.180625
	H391	H	0.197569	0.165949	0.155173
	H392	H	0.173313	0.181768	0.163923
	O393	O	1.114249	0.808687	0.830110
	H394	H	1.078843	0.791215	0.815435
	H395	H	1.114162	0.841272	0.825256
	O396	O	0.808455	-0.156914	0.187462
	H397	H	0.830982	-0.154044	0.199931
	H398	H	0.819849	-0.138867	0.196475
	O399	O	0.586808	0.546742	0.575831
	H400	H	0.598418	0.563845	0.576136
	H401	H	0.585669	0.552875	0.573895
	O402	O	0.971346	0.862575	0.933490
	H403	H	0.953729	0.850467	0.955277
	H404	H	0.973613	0.866448	0.947989
	O405	O	0.926928	0.931144	-0.213608
	H406	H	0.929853	0.934976	-0.209933
	H407	H	0.937403	0.944458	-0.214615
	O408	O	1.467357	-0.489394	-0.398293
	H409	H	1.464395	-0.510188	-0.399230
	H410	H	1.481184	-0.506942	-0.409902
	O411	O	1.711868	1.639555	0.467988
	H412	H	1.690727	1.647791	0.472814
	H413	H	1.721140	1.645846	0.451945
	O414	O	0.477302	0.699368	0.293659
	H415	H	0.501415	0.684830	0.310554
	H416	H	0.482641	0.715781	0.265309
	O417	O	0.073425	0.013787	-0.087880
	H418	H	0.082893	0.006394	-0.076020
	H419	H	0.061441	-0.005505	-0.096392
	O420	O	0.698813	0.701118	0.593876
	H421	H	0.690822	0.689159	0.572736
	H422	H	0.719339	0.710276	0.598258
	O423	O	0.703307	0.515485	0.707170
	H424	H	0.710724	0.494838	0.712843
	H425	H	0.719909	0.501324	0.697993
	O426	O	0.377069	0.363266	0.594580
	H427	H	0.373323	0.361338	0.614586
	H428	H	0.368316	0.350729	0.600894
	O429	O	0.584303	0.518257	0.585426
	H430	H	0.585060	0.527745	0.580586
	H431	H	0.584879	0.506085	0.590022
	O432	O	0.333743	0.319817	0.623803
	H433	H	0.320135	0.345720	0.623780
	H434	H	0.345645	0.317921	0.617157
	O435	O	-0.212208	0.218641	0.983194
	H436	H	-0.203618	0.231899	0.998170
	H437	H	-0.222596	0.230479	0.974951
	O438	O	-0.159931	-0.033347	-0.068146
	H439	H	-0.156924	-0.028983	-0.069945
	H440	H	-0.156583	-0.048310	-0.058656
	O441	O	0.789032	0.021323	-0.207918
	H442	H	0.788337	0.022907	-0.198631
	H443	H	0.784851	0.013302	-0.234979
	O444	O	0.057087	1.213467	0.953502
	H445	H	0.046767	1.200141	0.971311
	H446	H	0.043276	1.219900	0.921162
	O447	O	1.026289	0.214062	1.214418
	H448	H	1.037857	0.222178	1.233471
	H449	H	1.036864	0.210261	1.222527
	O450	O	0.456019	0.474508	0.586480
	H451	H	0.458937	0.476027	0.576537
	H452	H	0.467748	0.479349	0.588476
	O453	O	0.476191	0.368166	0.296817
	H454	H	0.474588	0.376455	0.318546
	H455	H	0.485842	0.336539	0.277781
