data_Molecule from HDF5

_cell_length_a		16.373698
_cell_length_b		16.106496
_cell_length_c		16.165569
_cell_angle_alpha	89.981995
_cell_angle_beta	89.669494
_cell_angle_gamma	89.738911
_symmetry_space_group_name_H-M	'P 1'
_symmetry_Int_Tables_number		1

loop_
	_symmetry_equiv_pos_as_xyz
	x,y,z

loop_
	_atom_site_label
	_atom_site_type_symbol
	_atom_site_fract_x
	_atom_site_fract_y
	_atom_site_fract_z
	H0	H	0.403628	0.853161	0.715845
	H1	H	0.594990	0.184557	0.710800
	H2	H	0.599450	0.851298	0.290619
	H3	H	0.404598	0.183761	0.291895
	H4	H	0.720118	0.415458	0.837840
	H5	H	0.717948	0.618520	0.165459
	H6	H	0.288002	0.620480	0.837673
	H7	H	0.284980	0.416610	0.164346
	H8	H	0.837353	0.732726	0.405347
	H9	H	0.165151	0.730493	0.597866
	H10	H	0.837489	0.304689	0.600144
	H11	H	0.164562	0.301323	0.401470
	H12	H	0.839065	0.419519	0.718981
	H13	H	0.165369	0.615316	0.714107
	H14	H	0.837980	0.617864	0.286254
	H15	H	0.164733	0.417134	0.285831
	H16	H	0.406445	0.731040	0.836484
	H17	H	0.598209	0.729392	0.167939
	H18	H	0.600598	0.305261	0.836218
	H19	H	0.404808	0.307338	0.167042
	H20	H	0.718969	0.853086	0.400742
	H21	H	0.715312	0.182491	0.603382
	H22	H	0.287728	0.851859	0.602143
	H23	H	0.284601	0.180985	0.400236
	H24	H	0.904784	0.351838	0.214415
	H25	H	0.097989	0.683283	0.213419
	H26	H	0.101353	0.352421	0.788648
	H27	H	0.906583	0.683454	0.791051
	H28	H	0.219120	0.914480	0.338182
	H29	H	0.213807	0.115997	0.666042
	H30	H	0.784617	0.119582	0.338582
	H31	H	0.784927	0.916790	0.666121
	H32	H	0.338835	0.234244	0.905683
	H33	H	0.665986	0.231008	0.098810
	H34	H	0.338218	0.805579	0.100487
	H35	H	0.665774	0.805130	0.904645
	H36	H	0.339040	0.919784	0.218246
	H37	H	0.665273	0.115562	0.216870
	H38	H	0.338048	0.118158	0.788724
	H39	H	0.664348	0.919634	0.784949
	H40	H	0.904041	0.230662	0.336365
	H41	H	0.096313	0.229297	0.666650
	H42	H	0.098225	0.805228	0.335907
	H43	H	0.904433	0.806276	0.668293
	H44	H	0.220298	0.354378	0.898550
	H45	H	0.215026	0.683458	0.099646
	H46	H	0.786808	0.353722	0.103436
	H47	H	0.787076	0.682173	0.900767
	H48	H	0.399790	0.134395	0.583808
	H49	H	0.603505	0.897136	0.592264
	H50	H	0.592592	0.133228	0.415213
	H51	H	0.397244	0.894800	0.409724
	H52	H	0.598569	0.432209	0.118203
	H53	H	0.602256	0.610251	0.882935
	H54	H	0.408515	0.608583	0.119242
	H55	H	0.411963	0.414628	0.880268
	H56	H	0.112335	0.609749	0.418800
	H57	H	0.886015	0.610902	0.595193
	H58	H	0.119878	0.417941	0.596091
	H59	H	0.882964	0.419260	0.404249
	H60	H	0.116047	0.422937	0.588623
	H61	H	0.884530	0.610293	0.598827
	H62	H	0.116144	0.599643	0.399395
	H63	H	0.888047	0.424595	0.415481
	H64	H	0.407694	0.612969	0.120349
	H65	H	0.593868	0.605541	0.886410
	H66	H	0.589077	0.425323	0.117995
	H67	H	0.399785	0.432500	0.882123
	H68	H	0.599668	0.137755	0.409730
	H69	H	0.589844	0.898120	0.601146
	H70	H	0.398386	0.141099	0.602939
	H71	H	0.417138	0.899086	0.400797
	H72	H	0.909094	0.637581	0.100144
	H73	H	0.105319	0.395121	0.097982
	H74	H	0.097271	0.635378	0.914373
	H75	H	0.902105	0.398092	0.915821
	H76	H	0.088658	0.923307	0.618033
	H77	H	0.087930	0.112289	0.384331
	H78	H	0.907590	0.112890	0.620810
	H79	H	0.907727	0.928253	0.384564
	H80	H	0.616221	0.105776	0.907487
	H81	H	0.384557	0.118479	0.097895
	H82	H	0.618830	0.924856	0.099915
	H83	H	0.384377	0.918849	0.910177
	H84	H	0.619561	0.920169	0.094971
	H85	H	0.387988	0.111730	0.092211
	H86	H	0.619480	0.113073	0.900229
	H87	H	0.387805	0.929608	0.913397
	H88	H	0.903662	0.109383	0.619734
	H89	H	0.101299	0.111805	0.380697
	H90	H	0.098418	0.918410	0.622780
	H91	H	0.910537	0.925863	0.385053
	H92	H	0.100600	0.639034	0.905103
	H93	H	0.086092	0.401056	0.097659
	H94	H	0.914491	0.634439	0.090007
	H95	H	0.910203	0.396321	0.900734
	H96	H	0.415885	0.134005	0.595583
	H97	H	0.589903	0.903560	0.585249
	H98	H	0.591238	0.135077	0.405122
	H99	H	0.413560	0.904311	0.422777
	H100	H	0.598934	0.421606	0.122234
	H101	H	0.593196	0.615726	0.883221
	H102	H	0.404575	0.610539	0.120330
	H103	H	0.420078	0.432735	0.888448
	H104	H	0.121770	0.621294	0.401350
	H105	H	0.885277	0.614287	0.596683
	H106	H	0.116651	0.427474	0.597216
	H107	H	0.886257	0.431835	0.403915
	H108	H	0.903326	0.635872	0.090093
	H109	H	0.097135	0.403043	0.081217
	H110	H	0.091546	0.635449	0.906191
	H111	H	0.917987	0.403125	0.914865
	H112	H	0.098730	0.930261	0.619359
	H113	H	0.095206	0.100593	0.386003
	H114	H	0.909306	0.108742	0.618767
	H115	H	0.907132	0.924703	0.383960
	H116	H	0.618577	0.115889	0.910210
	H117	H	0.385212	0.109064	0.101298
	H118	H	0.617184	0.926043	0.093392
	H119	H	0.384362	0.926919	0.901501
	C120	C	0.377821	0.026702	0.623227
	C121	C	0.621592	1.009129	0.621853
	C122	C	0.623689	0.026381	0.380560
	C123	C	0.380334	1.008636	0.381636
	C124	C	0.624615	0.396475	0.010303
	C125	C	0.624163	0.639260	0.993297
	C126	C	0.380497	0.639494	0.010556
	C127	C	0.381223	0.397698	0.992487
	C128	C	0.009316	0.639704	0.378661
	C129	C	0.993195	0.639704	0.623935
	C130	C	0.009997	0.394921	0.623740
	C131	C	0.993482	0.395567	0.378953
	C132	C	0.880684	0.526618	0.122806
	C133	C	0.123895	0.509050	0.121448
	C134	C	0.125302	0.527309	0.879038
	C135	C	0.881596	0.508890	0.881321
	C136	C	0.123612	0.895081	0.510725
	C137	C	0.122300	0.137255	0.492436
	C138	C	0.878766	0.139792	0.510895
	C139	C	0.879890	0.896940	0.493772
	C140	C	0.510195	0.140674	0.879064
	C141	C	0.493903	0.140846	0.124941
	C142	C	0.510301	0.895838	0.124885
	C143	C	0.493378	0.896523	0.879315
	C144	C	0.382583	0.902260	0.678003
	C145	C	0.616875	0.134504	0.675088
	C146	C	0.620940	0.901434	0.326527
	C147	C	0.383464	0.133574	0.327839
	C148	C	0.680883	0.396855	0.886892
	C149	C	0.679324	0.637765	0.116853
	C150	C	0.326168	0.639118	0.886683
	C151	C	0.324252	0.398442	0.115863
	C152	C	0.886329	0.695271	0.383175
	C153	C	0.116386	0.693385	0.619279
	C154	C	0.886655	0.341663	0.621202
	C155	C	0.115772	0.339473	0.381260
	C156	C	0.887520	0.398840	0.680291
	C157	C	0.116520	0.636189	0.677136
	C158	C	0.886626	0.637833	0.324225
	C159	C	0.115912	0.397315	0.323563
	C160	C	0.385046	0.694203	0.886053
	C161	C	0.619849	0.693135	0.117891
	C162	C	0.621416	0.341960	0.885974
	C163	C	0.384101	0.343916	0.117251
	C164	C	0.680049	0.902091	0.381724
	C165	C	0.676592	0.133336	0.621314
	C166	C	0.324313	0.902022	0.622142
	C167	C	0.323845	0.132324	0.382117
	C168	C	0.883843	0.401748	0.177580
	C169	C	0.119638	0.633830	0.176174
	C170	C	0.122305	0.402294	0.825130
	C171	C	0.884906	0.633744	0.827288
	C172	C	0.180044	0.895853	0.386937
	C173	C	0.176124	0.135709	0.617067
	C174	C	0.823116	0.138974	0.387303
	C175	C	0.823581	0.897886	0.617363
	C176	C	0.387365	0.196144	0.883791
	C177	C	0.617394	0.193568	0.120047
	C178	C	0.387161	0.842638	0.121715
	C179	C	0.616647	0.842211	0.882882
	C180	C	0.387675	0.899302	0.180318
	C181	C	0.616638	0.136725	0.179371
	C182	C	0.387143	0.138593	0.825813
	C183	C	0.615945	0.899353	0.823665
	C184	C	0.881977	0.194689	0.386324
	C185	C	0.117723	0.191906	0.617376
	C186	C	0.119776	0.841517	0.385608
	C187	C	0.883032	0.842922	0.618276
	C188	C	0.181510	0.403163	0.879715
	C189	C	0.177802	0.633864	0.119526
	C190	C	0.825256	0.402747	0.122439
	C191	C	0.825561	0.633002	0.882007
	C192	C	0.398553	0.113973	0.600791
	C193	C	0.600550	0.922059	0.599563
	C194	C	0.601326	0.113115	0.403251
	C195	C	0.402729	0.921807	0.404374
	C196	C	0.602195	0.419417	0.097148
	C197	C	0.602834	0.617019	0.906490
	C198	C	0.400932	0.617236	0.097448
	C199	C	0.403836	0.420102	0.905944
	C200	C	0.094630	0.616908	0.400239
	C201	C	0.907576	0.618113	0.603170
	C202	C	0.095438	0.416324	0.600774
	C203	C	0.907801	0.418442	0.401306
	C204	C	0.902451	0.613529	0.100105
	C205	C	0.102518	0.422209	0.098840
	C206	C	0.103126	0.614071	0.901892
	C207	C	0.903570	0.421734	0.903840
	C208	C	0.101734	0.917265	0.597472
	C209	C	0.101178	0.114863	0.406127
	C210	C	0.900360	0.117061	0.597307
	C211	C	0.901961	0.919662	0.407069
	C212	C	0.595918	0.118206	0.899651
	C213	C	0.408139	0.119518	0.103528
	C214	C	0.596386	0.917330	0.102672
	C215	C	0.407590	0.918681	0.901553
	Zn216	Zn	0.500857	0.018897	0.749287
	Zn217	Zn	0.501646	0.017674	0.253781
	Zn218	Zn	0.752979	0.517523	0.001640
	Zn219	Zn	0.252373	0.518169	0.000562
	Zn220	Zn	0.001014	0.768453	0.501862
	Zn221	Zn	0.001305	0.266072	0.501032
	Zn222	Zn	0.002665	0.517889	0.753048
	Zn223	Zn	0.001828	0.517318	0.249253
	Zn224	Zn	0.502150	0.767441	0.002412
	Zn225	Zn	0.502880	0.269459	0.001931
	Zn226	Zn	0.750925	0.017966	0.502357
	Zn227	Zn	0.251003	0.016858	0.501863
	N228	N	0.415222	0.980780	0.678782
	N229	N	0.583312	0.056306	0.675562
	N230	N	0.586312	0.979542	0.326109
	N231	N	0.418000	0.055497	0.327484
	N232	N	0.682610	0.430432	0.965046
	N233	N	0.682020	0.604903	0.038419
	N234	N	0.323081	0.605756	0.964943
	N235	N	0.322454	0.431179	0.037231
	N236	N	0.963532	0.696441	0.416295
	N237	N	0.038827	0.695564	0.586777
	N238	N	0.963719	0.339079	0.586895
	N239	N	0.038585	0.338449	0.415095
	N240	N	0.965227	0.431305	0.682050
	N241	N	0.038960	0.603451	0.680167
	N242	N	0.963998	0.603885	0.321446
	N243	N	0.038758	0.431648	0.322219
	N244	N	0.418168	0.694763	0.964175
	N245	N	0.586308	0.694209	0.039929
	N246	N	0.587236	0.341565	0.964144
	N247	N	0.419058	0.343601	0.039674
	N248	N	0.681955	0.980797	0.414741
	N249	N	0.679465	0.054507	0.588584
	N250	N	0.321501	0.980582	0.588673
	N251	N	0.321714	0.053534	0.414829
	N252	N	0.917682	0.479791	0.177828
	N253	N	0.087119	0.555236	0.177644
	N254	N	0.087803	0.480323	0.824776
	N255	N	0.919140	0.555535	0.826789
	N256	N	0.182694	0.928268	0.465625
	N257	N	0.178990	0.102563	0.538633
	N258	N	0.820668	0.105855	0.465692
	N259	N	0.821706	0.930975	0.538897
	N260	N	0.464743	0.197554	0.916221
	N261	N	0.540100	0.196221	0.087082
	N262	N	0.464504	0.840167	0.087980
	N263	N	0.539459	0.840534	0.916855
	N264	N	0.465448	0.931371	0.182477
	N265	N	0.538851	0.104709	0.182437
	N266	N	0.464472	0.104713	0.822612
	N267	N	0.538199	0.932192	0.821207
	N268	N	0.915917	0.195102	0.464110
	N269	N	0.084795	0.193152	0.539145
	N270	N	0.085383	0.840931	0.463458
	N271	N	0.917485	0.842350	0.540414
	N272	N	0.183636	0.481892	0.912578
	N273	N	0.180633	0.555151	0.086396
	N274	N	0.823208	0.481296	0.089059
	N275	N	0.823624	0.554197	0.914925
	O276	O	0.523791	0.510571	0.425595
	H277	H	0.520833	0.502263	0.417358
	H278	H	0.528426	0.500599	0.428484
	O279	O	0.570948	0.535084	0.569477
	H280	H	0.572299	0.532242	0.566769
	H281	H	0.570016	0.547095	0.556736
	O282	O	0.496566	0.529622	0.458106
	H283	H	0.497579	0.528741	0.445251
	H284	H	0.486415	0.530267	0.461854
	O285	O	0.004847	1.004510	1.027709
	H286	H	-0.004551	1.003890	1.031464
	H287	H	0.010642	0.997055	1.026722
	O288	O	0.507996	0.494515	0.429000
	H289	H	0.520203	0.486185	0.428136
	H290	H	0.499227	0.502313	0.425829
	O291	O	0.017419	-0.003001	1.028924
	H292	H	0.034512	0.003461	1.027409
	H293	H	0.015975	0.006155	1.033643
	O294	O	0.484224	0.441715	0.469050
	H295	H	0.480243	0.441875	0.468273
	H296	H	0.481496	0.448455	0.460463
	O297	O	0.425279	0.513014	0.558476
	H298	H	0.425788	0.517836	0.562377
	H299	H	0.423058	0.508183	0.563480
	O300	O	0.507784	0.498967	0.479676
	H301	H	0.511370	0.511019	0.471488
	H302	H	0.510711	0.495199	0.481770
	O303	O	0.388766	0.566389	0.412077
	H304	H	0.385524	0.585874	0.416962
	H305	H	0.392999	0.566124	0.411914
	O306	O	0.990904	0.013553	1.050768
	H307	H	0.985658	0.013491	1.046149
	H308	H	0.993025	0.010712	1.060003
	O309	O	-0.011252	0.046575	0.060665
	H310	H	-0.007719	0.045133	0.057535
	H311	H	-0.007613	0.047262	0.057219
	O312	O	0.472171	0.474507	0.423465
	H313	H	0.470256	0.476261	0.415907
	H314	H	0.462410	0.470410	0.434100
	O315	O	0.991936	0.005495	1.050316
	H316	H	0.993829	0.000482	1.047885
	H317	H	0.992236	0.004876	1.054962
	O318	O	0.015737	0.037278	0.014869
	H319	H	0.013258	0.035010	0.005247
	H320	H	0.004659	0.037880	0.023455
	O321	O	0.476586	0.546200	0.550893
	H322	H	0.481867	0.536954	0.545597
	H323	H	0.487333	0.536839	0.546110
	O324	O	1.446006	-0.481324	-0.465124
	H325	H	1.452596	-0.478554	-0.458788
	H326	H	1.430079	-0.474364	-0.472376
	O327	O	0.515418	0.411899	0.533011
	H328	H	0.510151	0.402806	0.529697
	H329	H	0.524173	0.408005	0.532562
	O330	O	0.482960	0.466072	0.520035
	H331	H	0.476275	0.462818	0.528025
	H332	H	0.495950	0.468440	0.532130
	O333	O	0.481580	-0.444841	0.404935
	H334	H	0.489679	-0.452180	0.406587
	H335	H	0.471041	-0.442943	0.406834
