data_Molecule from HDF5

_cell_length_a		16.443733
_cell_length_b		16.417074
_cell_length_c		16.410106
_cell_angle_alpha	89.900271
_cell_angle_beta	90.151249
_cell_angle_gamma	89.875184
_symmetry_space_group_name_H-M	'P 1'
_symmetry_Int_Tables_number		1

loop_
	_symmetry_equiv_pos_as_xyz
	x,y,z

loop_
	_atom_site_label
	_atom_site_type_symbol
	_atom_site_fract_x
	_atom_site_fract_y
	_atom_site_fract_z
	H0	H	0.396810	0.843488	0.721342
	H1	H	0.605723	0.161566	0.719774
	H2	H	0.606790	0.841803	0.282105
	H3	H	0.399187	0.160959	0.279276
	H4	H	0.724400	0.397416	0.844066
	H5	H	0.723037	0.608056	0.160537
	H6	H	0.278726	0.609456	0.842974
	H7	H	0.281164	0.396850	0.159123
	H8	H	0.843690	0.726936	0.394304
	H9	H	0.162977	0.720363	0.602943
	H10	H	0.844931	0.282153	0.603511
	H11	H	0.161190	0.283528	0.395377
	H12	H	0.842878	0.401356	0.717298
	H13	H	0.161713	0.607129	0.720805
	H14	H	0.843059	0.610961	0.278334
	H15	H	0.160040	0.399890	0.280244
	H16	H	0.392150	0.726825	0.843800
	H17	H	0.605349	0.720539	0.160457
	H18	H	0.607412	0.281368	0.842856
	H19	H	0.398890	0.281679	0.160040
	H20	H	0.725142	0.843402	0.395362
	H21	H	0.720982	0.161805	0.601581
	H22	H	0.284073	0.841958	0.602777
	H23	H	0.281742	0.160431	0.394392
	H24	H	0.894163	0.345538	0.223957
	H25	H	0.104452	0.661816	0.219588
	H26	H	0.106794	0.344512	0.778573
	H27	H	0.895434	0.661870	0.778155
	H28	H	0.222018	0.898774	0.341785
	H29	H	0.223651	0.106936	0.659962
	H30	H	0.777156	0.112214	0.343783
	H31	H	0.782538	0.897386	0.658950
	H32	H	0.345063	0.226387	0.893743
	H33	H	0.662224	0.220772	0.105248
	H34	H	0.345781	0.779389	0.106645
	H35	H	0.661070	0.781439	0.896659
	H36	H	0.345682	0.896137	0.222585
	H37	H	0.661580	0.106816	0.221518
	H38	H	0.344596	0.109909	0.776879
	H39	H	0.662090	0.899610	0.782617
	H40	H	0.895568	0.226494	0.342791
	H41	H	0.106213	0.222377	0.660330
	H42	H	0.106044	0.782802	0.342718
	H43	H	0.898172	0.782227	0.659205
	H44	H	0.225493	0.345364	0.892863
	H45	H	0.222860	0.660581	0.104927
	H46	H	0.782301	0.343928	0.106569
	H47	H	0.779440	0.660688	0.894918
	H48	H	0.409640	0.117479	0.592188
	H49	H	0.600877	0.885108	0.592388
	H50	H	0.591853	0.114510	0.415916
	H51	H	0.408725	0.885337	0.406938
	H52	H	0.597967	0.406450	0.118977
	H53	H	0.587213	0.595301	0.887338
	H54	H	0.411887	0.598487	0.117181
	H55	H	0.409216	0.411107	0.885136
	H56	H	0.116121	0.596391	0.410627
	H57	H	0.888705	0.591684	0.592092
	H58	H	0.118521	0.410794	0.592892
	H59	H	0.885689	0.411345	0.407742
	H60	H	0.115619	0.412428	0.586664
	H61	H	0.887526	0.598113	0.590837
	H62	H	0.113012	0.591061	0.414718
	H63	H	0.890384	0.412009	0.419593
	H64	H	0.407458	0.583465	0.113310
	H65	H	0.596360	0.589394	0.885927
	H66	H	0.595011	0.419967	0.114425
	H67	H	0.413779	0.420601	0.890116
	H68	H	0.595041	0.117133	0.408692
	H69	H	0.587113	0.887568	0.597025
	H70	H	0.419071	0.114522	0.591154
	H71	H	0.418364	0.889636	0.408826
	H72	H	0.907781	0.618051	0.088211
	H73	H	0.092672	0.387903	0.091360
	H74	H	0.089830	0.617051	0.907779
	H75	H	0.911004	0.389913	0.913503
	H76	H	0.093864	0.912284	0.615250
	H77	H	0.095743	0.092376	0.386853
	H78	H	0.914015	0.089277	0.612806
	H79	H	0.917745	0.909757	0.386759
	H80	H	0.611781	0.083133	0.914558
	H81	H	0.390877	0.089235	0.088939
	H82	H	0.617074	0.914345	0.092140
	H83	H	0.387489	0.915110	0.902768
	H84	H	0.618077	0.908621	0.090908
	H85	H	0.389235	0.091702	0.090476
	H86	H	0.617923	0.091916	0.903300
	H87	H	0.387494	0.905329	0.916428
	H88	H	0.916083	0.092445	0.612503
	H89	H	0.091430	0.091631	0.387522
	H90	H	0.093635	0.913532	0.615412
	H91	H	0.908333	0.916490	0.385408
	H92	H	0.087178	0.613399	0.913756
	H93	H	0.086872	0.390253	0.090809
	H94	H	0.913482	0.618328	0.093393
	H95	H	0.913640	0.389009	0.907458
	H96	H	0.412228	0.114450	0.583055
	H97	H	0.591688	0.891723	0.583488
	H98	H	0.586941	0.114296	0.408808
	H99	H	0.411411	0.889427	0.416664
	H100	H	0.584556	0.409284	0.113687
	H101	H	0.587824	0.584524	0.891844
	H102	H	0.421955	0.588339	0.110367
	H103	H	0.420039	0.411697	0.888948
	H104	H	0.114310	0.589811	0.407152
	H105	H	0.890427	0.593792	0.585975
	H106	H	0.115929	0.417377	0.591872
	H107	H	0.891502	0.422184	0.411827
	H108	H	0.914776	0.613635	0.086417
	H109	H	0.090496	0.389575	0.085909
	H110	H	0.093966	0.616645	0.914162
	H111	H	0.917577	0.391129	0.912054
	H112	H	0.093714	0.912531	0.614737
	H113	H	0.092878	0.095769	0.386244
	H114	H	0.912389	0.092598	0.614093
	H115	H	0.918217	0.920390	0.390468
	H116	H	0.615205	0.097799	0.917314
	H117	H	0.390312	0.092253	0.087219
	H118	H	0.615471	0.911992	0.087199
	H119	H	0.393567	0.921081	0.917228
	C120	C	0.381621	0.010412	0.621209
	C121	C	0.624039	0.993789	0.621940
	C122	C	0.624326	0.010401	0.379131
	C123	C	0.381045	0.993039	0.378397
	C124	C	0.624442	0.380394	0.010552
	C125	C	0.623096	0.622528	0.993136
	C126	C	0.380158	0.623802	0.009343
	C127	C	0.381542	0.381157	0.992412
	C128	C	0.009964	0.625305	0.378723
	C129	C	0.994183	0.625423	0.621550
	C130	C	0.011650	0.382120	0.621757
	C131	C	0.993480	0.382393	0.380018
	C132	C	0.880075	0.511844	0.122229
	C133	C	0.122488	0.493860	0.121414
	C134	C	0.123459	0.511512	0.878753
	C135	C	0.880708	0.494475	0.878847
	C136	C	0.124447	0.881496	0.509863
	C137	C	0.124834	0.124696	0.492114
	C138	C	0.881464	0.124469	0.508830
	C139	C	0.882280	0.882425	0.492142
	C140	C	0.510996	0.124337	0.878750
	C141	C	0.494778	0.122706	0.121430
	C142	C	0.512004	0.879911	0.122257
	C143	C	0.493996	0.881529	0.880013
	C144	C	0.379509	0.890845	0.681042
	C145	C	0.624668	0.113854	0.680114
	C146	C	0.626046	0.890257	0.320439
	C147	C	0.379715	0.112754	0.318550
	C148	C	0.684325	0.378652	0.891320
	C149	C	0.682744	0.625074	0.112719
	C150	C	0.318930	0.627209	0.890360
	C151	C	0.321212	0.378551	0.111730
	C152	C	0.891088	0.686680	0.376302
	C153	C	0.114632	0.682371	0.622420
	C154	C	0.892238	0.322444	0.622568
	C155	C	0.113158	0.323092	0.377293
	C156	C	0.891169	0.381616	0.679210
	C157	C	0.113860	0.626153	0.681300
	C158	C	0.890629	0.628605	0.318708
	C159	C	0.112501	0.380978	0.319749
	C160	C	0.375586	0.685687	0.890906
	C161	C	0.624051	0.681358	0.112845
	C162	C	0.626190	0.321179	0.890628
	C163	C	0.379642	0.321135	0.111904
	C164	C	0.685001	0.891078	0.376978
	C165	C	0.681907	0.114009	0.621506
	C166	C	0.323138	0.890161	0.622110
	C167	C	0.321642	0.112847	0.376227
	C168	C	0.877138	0.392753	0.183354
	C169	C	0.123685	0.613775	0.180312
	C170	C	0.125970	0.392254	0.818217
	C171	C	0.877495	0.613834	0.818422
	C172	C	0.182605	0.880224	0.389657
	C173	C	0.183835	0.125605	0.612229
	C174	C	0.819079	0.128903	0.390452
	C175	C	0.822328	0.879597	0.611471
	C176	C	0.392397	0.185798	0.875511
	C177	C	0.614256	0.181836	0.123890
	C178	C	0.393061	0.819778	0.124836
	C179	C	0.613640	0.821499	0.878059
	C180	C	0.393011	0.877715	0.182512
	C181	C	0.614105	0.124669	0.181560
	C182	C	0.392325	0.127992	0.817222
	C183	C	0.613984	0.880294	0.821270
	C184	C	0.878203	0.185530	0.389907
	C185	C	0.125305	0.182969	0.612371
	C186	C	0.125093	0.822444	0.390078
	C187	C	0.879994	0.822333	0.611561
	C188	C	0.184674	0.392469	0.875338
	C189	C	0.182689	0.613050	0.123376
	C190	C	0.821313	0.392009	0.124715
	C191	C	0.819622	0.613343	0.876526
	C192	C	0.406563	0.093715	0.596081
	C193	C	0.600144	0.909853	0.597895
	C194	C	0.598696	0.093556	0.403920
	C195	C	0.405559	0.909945	0.403514
	C196	C	0.599681	0.404973	0.093877
	C197	C	0.597711	0.597058	0.909990
	C198	C	0.406338	0.597562	0.091981
	C199	C	0.406937	0.406951	0.909669
	C200	C	0.092772	0.599727	0.403783
	C201	C	0.910597	0.601521	0.596810
	C202	C	0.094898	0.406642	0.597536
	C203	C	0.910699	0.407875	0.405647
	C204	C	0.904888	0.595019	0.096746
	C205	C	0.097376	0.410816	0.096436
	C206	C	0.097796	0.594105	0.904505
	C207	C	0.906523	0.411525	0.903790
	C208	C	0.100721	0.905671	0.593440
	C209	C	0.100484	0.100335	0.408442
	C210	C	0.906954	0.098763	0.591615
	C211	C	0.907516	0.908082	0.409200
	C212	C	0.593465	0.098444	0.904344
	C213	C	0.411767	0.098098	0.096091
	C214	C	0.595180	0.904576	0.097275
	C215	C	0.411269	0.906617	0.904946
	Zn216	Zn	0.502321	0.002019	0.750179
	Zn217	Zn	0.503666	0.002052	0.249939
	Zn218	Zn	0.752670	0.502720	0.002000
	Zn219	Zn	0.252291	0.502483	0.000610
	Zn220	Zn	0.002697	0.753821	0.500895
	Zn221	Zn	0.003165	0.253303	0.500338
	Zn222	Zn	0.002378	0.503980	0.749868
	Zn223	Zn	0.000915	0.503257	0.250358
	Zn224	Zn	0.502848	0.751453	0.000616
	Zn225	Zn	0.503068	0.252135	0.001676
	Zn226	Zn	0.753015	0.002694	0.500335
	Zn227	Zn	0.252649	0.002220	0.500891
	N228	N	0.415209	0.966575	0.680556
	N229	N	0.589770	0.037817	0.680587
	N230	N	0.589305	0.965557	0.321428
	N231	N	0.415885	0.037302	0.319624
	N232	N	0.683517	0.414640	0.966728
	N233	N	0.682279	0.589151	0.036946
	N234	N	0.321756	0.589307	0.965039
	N235	N	0.322115	0.414990	0.036265
	N236	N	0.966313	0.684744	0.413197
	N237	N	0.038993	0.682359	0.586530
	N238	N	0.968264	0.322486	0.587958
	N239	N	0.037967	0.323668	0.413696
	N240	N	0.966439	0.417828	0.678990
	N241	N	0.038025	0.591366	0.680903
	N242	N	0.965489	0.591260	0.319807
	N243	N	0.036942	0.416831	0.320898
	N244	N	0.413237	0.683541	0.965754
	N245	N	0.587778	0.679990	0.037367
	N246	N	0.589919	0.322042	0.965939
	N247	N	0.416199	0.322510	0.036788
	N248	N	0.684107	0.966796	0.412572
	N249	N	0.681792	0.038111	0.586337
	N250	N	0.324162	0.965770	0.585867
	N251	N	0.321970	0.037351	0.412414
	N252	N	0.913049	0.468311	0.181975
	N253	N	0.086908	0.538761	0.179099
	N254	N	0.088623	0.467175	0.820340
	N255	N	0.914536	0.538794	0.819429
	N256	N	0.182262	0.916197	0.465141
	N257	N	0.183606	0.090113	0.536459
	N258	N	0.821216	0.091341	0.465222
	N259	N	0.823645	0.916262	0.536176
	N260	N	0.467258	0.183920	0.912968
	N261	N	0.539048	0.180818	0.087058
	N262	N	0.468060	0.820914	0.088242
	N263	N	0.538007	0.821738	0.913706
	N264	N	0.467920	0.914590	0.180823
	N265	N	0.538733	0.088892	0.180415
	N266	N	0.467099	0.090683	0.819033
	N267	N	0.538682	0.916605	0.821993
	N268	N	0.916469	0.182754	0.464407
	N269	N	0.089688	0.182714	0.536517
	N270	N	0.089629	0.823066	0.465754
	N271	N	0.916395	0.823830	0.536265
	N272	N	0.183338	0.467550	0.912225
	N273	N	0.182114	0.537477	0.087484
	N274	N	0.823328	0.466978	0.087361
	N275	N	0.821360	0.538045	0.913252
	O276	O	0.623703	0.524274	0.518614
	H277	H	0.607307	0.515559	0.535478
	H278	H	0.624901	0.510295	0.524276
	O279	O	0.801424	0.197498	0.803339
	H280	H	0.827447	0.181806	0.802994
	H281	H	0.792439	0.221180	0.774748
	O282	O	0.703417	0.615823	0.442526
	H283	H	0.709675	0.617209	0.444262
	H284	H	0.709026	0.591682	0.458043
	O285	O	0.663053	0.599340	0.382103
	H286	H	0.665534	0.589880	0.378429
	H287	H	0.659821	0.592182	0.387119
	O288	O	0.463545	0.628300	0.609213
	H289	H	0.464133	0.628251	0.610607
	H290	H	0.462336	0.644157	0.604241
	O291	O	0.471703	0.506103	0.405893
	H292	H	0.470243	0.505332	0.400652
	H293	H	0.446395	0.501155	0.393607
	O294	O	0.015844	0.198896	0.797165
	H295	H	0.035160	0.182065	0.790685
	H296	H	0.019489	0.206008	0.797890
	O297	O	0.503442	0.348505	0.313833
	H298	H	0.486731	0.345860	0.321268
	H299	H	0.489346	0.337584	0.297873
	O300	O	0.295804	0.477946	0.701130
	H301	H	0.277973	0.471112	0.714479
	H302	H	0.294467	0.491560	0.697870
	O303	O	0.367677	0.693184	0.555346
	H304	H	0.374179	0.710181	0.556353
	H305	H	0.372640	0.700790	0.537377
	O306	O	0.608323	0.356028	0.308698
	H307	H	0.581436	0.362351	0.307124
	H308	H	0.600420	0.365724	0.303654
	O309	O	0.942585	0.852803	-0.060711
	H310	H	0.934663	0.847189	-0.077733
	H311	H	0.939995	0.857825	-0.073652
	O312	O	0.027755	1.214596	1.213772
	H313	H	0.012186	1.224429	1.220585
	H314	H	0.004824	1.227888	1.206646
	O315	O	0.158671	-0.082688	0.798370
	H316	H	0.175394	-0.082004	0.809476
	H317	H	0.165280	-0.074988	0.800628
	O318	O	1.218402	0.219636	0.027414
	H319	H	1.241465	0.225611	0.015991
	H320	H	1.208336	0.233236	0.028950
	O321	O	-0.165782	0.211731	-0.003797
	H322	H	-0.166074	0.214207	-0.039849
	H323	H	-0.192061	0.213846	-0.015333
	O324	O	0.315088	0.508068	0.381252
	H325	H	0.311929	0.519826	0.382115
	H326	H	0.309088	0.526571	0.376530
	O327	O	0.503237	0.694139	0.404041
	H328	H	0.528989	0.693146	0.422644
	H329	H	0.512868	0.687383	0.401396
	O330	O	0.049390	1.005075	-0.063077
	H331	H	0.033911	0.998169	-0.042518
	H332	H	0.054036	1.001088	-0.058572
	O333	O	0.705173	0.573079	0.697952
	H334	H	0.709546	0.564778	0.695152
	H335	H	0.699981	0.548089	0.711082
	O336	O	0.189321	0.191992	0.190495
	H337	H	0.198308	0.185615	0.151576
	H338	H	0.135380	0.202172	0.200255
	O339	O	0.206936	0.865819	1.141018
	H340	H	0.203478	0.886256	1.138407
	H341	H	0.185516	0.884225	1.130090
	O342	O	-0.091325	1.010906	1.168395
	H343	H	-0.082980	1.007049	1.172160
	H344	H	-0.102185	1.013530	1.187083
	O345	O	0.985418	0.834803	0.200472
	H346	H	0.979297	0.828069	0.222097
	H347	H	1.001120	0.849188	0.197977
	O348	O	0.306150	0.500324	0.412239
	H349	H	0.291515	0.490589	0.415758
	H350	H	0.303233	0.519585	0.404691
	O351	O	0.094391	0.997194	0.975752
	H352	H	0.095324	0.994583	0.976152
	H353	H	0.094308	0.994256	0.981327
	O354	O	0.202621	0.805063	-0.017108
	H355	H	0.209399	0.796444	-0.010868
	H356	H	0.195665	0.812171	-0.004653
	O357	O	0.024931	-0.208585	1.048730
	H358	H	0.008114	-0.205626	1.055541
	H359	H	0.019791	-0.206266	1.035015
	O360	O	0.533055	0.711665	0.657898
	H361	H	0.529033	0.725268	0.674414
	H362	H	0.555906	0.713107	0.650371
	O363	O	-0.706119	0.292900	0.525153
	H364	H	-0.703649	0.296899	0.554689
	H365	H	-0.727432	0.273750	0.533147
	O366	O	0.087525	1.183629	-0.052339
	H367	H	0.082211	1.193180	-0.047502
	H368	H	0.074649	1.176743	-0.050898
	O369	O	0.398048	0.335325	0.376394
	H370	H	0.383442	0.335258	0.386583
	H371	H	0.386511	0.339049	0.372201
	O372	O	1.126764	0.031992	0.870852
	H373	H	1.109422	0.028241	0.869267
	H374	H	1.123676	0.023432	0.861593
	O375	O	0.658240	0.371197	0.362408
	H376	H	0.638426	0.376492	0.364053
	H377	H	0.669707	0.360001	0.346386
	O378	O	1.154207	0.910436	0.979806
	H379	H	1.146751	0.910090	0.978646
	H380	H	1.146555	0.913017	0.966687
	O381	O	0.575769	0.317014	0.594062
	H382	H	0.553997	0.324147	0.585135
	H383	H	0.592469	0.319216	0.588339
	O384	O	0.904721	0.008869	0.003533
	H385	H	0.903207	0.013442	0.006850
	H386	H	0.912414	0.009568	0.010446
	O387	O	-0.111348	-0.063746	0.986319
	H388	H	-0.106375	-0.060599	0.982023
	H389	H	-0.103844	-0.060524	0.985094
	O390	O	0.218114	0.028022	0.215358
	H391	H	0.219474	0.061955	0.211006
	H392	H	0.244121	0.028794	0.231795
	O393	O	1.115169	0.798120	0.799875
	H394	H	1.113074	0.791609	0.803675
	H395	H	1.123692	0.791801	0.800422
	O396	O	0.818878	-0.130423	0.166917
	H397	H	0.831780	-0.133120	0.174519
	H398	H	0.811237	-0.139282	0.146617
	O399	O	0.304957	0.693866	0.362594
	H400	H	0.339824	0.691400	0.369723
	H401	H	0.285305	0.724868	0.337890
	O402	O	1.025599	1.119850	0.960138
	H403	H	1.027825	1.109568	0.969406
	H404	H	1.023814	1.117543	0.953393
	O405	O	0.827470	1.134197	0.091628
	H406	H	0.826767	1.140812	0.098744
	H407	H	0.822713	1.130352	0.085647
	O408	O	1.695629	-0.642501	-0.475596
	H409	H	1.699278	-0.655721	-0.501623
	H410	H	1.678528	-0.638266	-0.480958
	O411	O	1.518427	1.479832	0.412014
	H412	H	1.512303	1.469346	0.414378
	H413	H	1.508430	1.488077	0.410391
	O414	O	0.702467	0.704685	0.642991
	H415	H	0.708848	0.690455	0.644329
	H416	H	0.703399	0.690968	0.614888
	O417	O	-0.003516	-0.024069	0.192884
	H418	H	-0.013010	-0.026266	0.194817
	H419	H	0.007686	-0.017990	0.192121
	O420	O	0.368712	0.638326	0.578149
	H421	H	0.354518	0.639327	0.568511
	H422	H	0.374603	0.646535	0.559238
	O423	O	0.677106	0.414028	0.687184
	H424	H	0.661373	0.420294	0.678873
	H425	H	0.679373	0.417997	0.671691
	O426	O	0.477494	0.295193	0.708751
	H427	H	0.486819	0.316097	0.698700
	H428	H	0.472131	0.265986	0.736117
	O429	O	0.400701	0.688484	0.293372
	H430	H	0.416176	0.683530	0.293424
	H431	H	0.410723	0.693903	0.297491
	O432	O	0.541038	0.366987	0.592286
	H433	H	0.520041	0.371805	0.587688
	H434	H	0.528493	0.367388	0.609902
	O435	O	-0.124174	0.210991	1.056473
	H436	H	-0.140500	0.219257	1.044490
	H437	H	-0.130339	0.206738	1.035566
	O438	O	-0.141951	-0.163920	-0.133472
	H439	H	-0.138075	-0.148178	-0.138951
	H440	H	-0.149444	-0.164771	-0.144269
	O441	O	0.790872	0.029373	-0.208238
	H442	H	0.772898	0.036740	-0.220473
	H443	H	0.783146	0.046632	-0.192588
	O444	O	0.040148	1.039980	0.805408
	H445	H	0.027547	1.053722	0.817050
	H446	H	0.032812	1.035552	0.797546
	O447	O	0.798277	-0.093965	1.115428
	H448	H	0.796583	-0.107349	1.120067
	H449	H	0.799165	-0.104105	1.109663
	O450	O	0.308510	0.311434	0.687825
	H451	H	0.325382	0.307487	0.694141
	H452	H	0.308180	0.325780	0.702007
	O453	O	0.492394	0.513596	0.653374
	H454	H	0.479049	0.525207	0.659757
	H455	H	0.485515	0.533257	0.644892
