data_Molecule from HDF5

_cell_length_a		16.175004
_cell_length_b		16.384330
_cell_length_c		16.208640
_cell_angle_alpha	90.214238
_cell_angle_beta	90.121941
_cell_angle_gamma	89.935647
_symmetry_space_group_name_H-M	'P 1'
_symmetry_Int_Tables_number		1

loop_
	_symmetry_equiv_pos_as_xyz
	x,y,z

loop_
	_atom_site_label
	_atom_site_type_symbol
	_atom_site_fract_x
	_atom_site_fract_y
	_atom_site_fract_z
	H0	H	0.394368	0.835947	0.711929
	H1	H	0.591061	0.161220	0.713476
	H2	H	0.589833	0.835685	0.283475
	H3	H	0.392066	0.161196	0.283556
	H4	H	0.704547	0.400993	0.832485
	H5	H	0.705248	0.595697	0.161990
	H6	H	0.278996	0.595495	0.833054
	H7	H	0.280293	0.402607	0.162254
	H8	H	0.828889	0.713702	0.395695
	H9	H	0.156715	0.712419	0.596514
	H10	H	0.828426	0.284186	0.595159
	H11	H	0.156131	0.281949	0.394952
	H12	H	0.827686	0.402318	0.708570
	H13	H	0.157598	0.596766	0.711087
	H14	H	0.827626	0.594601	0.284968
	H15	H	0.157645	0.400535	0.284115
	H16	H	0.391768	0.713333	0.833298
	H17	H	0.592747	0.714046	0.160905
	H18	H	0.592221	0.282636	0.833853
	H19	H	0.390947	0.283593	0.160500
	H20	H	0.706600	0.835916	0.399719
	H21	H	0.706768	0.161583	0.597140
	H22	H	0.277723	0.835870	0.595512
	H23	H	0.276458	0.160902	0.399461
	H24	H	0.896021	0.335565	0.210462
	H25	H	0.091064	0.661200	0.213740
	H26	H	0.089705	0.335880	0.782296
	H27	H	0.894634	0.661547	0.783582
	H28	H	0.205649	0.901036	0.333112
	H29	H	0.203801	0.095467	0.662509
	H30	H	0.778199	0.095522	0.332972
	H31	H	0.781483	0.903435	0.663391
	H32	H	0.328101	0.213918	0.897756
	H33	H	0.655605	0.214329	0.097903
	H34	H	0.328214	0.784167	0.097085
	H35	H	0.656218	0.783779	0.898092
	H36	H	0.326802	0.902189	0.209974
	H37	H	0.657003	0.095876	0.211624
	H38	H	0.327390	0.095545	0.785117
	H39	H	0.656906	0.901082	0.785123
	H40	H	0.892941	0.211968	0.332768
	H41	H	0.092764	0.214616	0.660507
	H42	H	0.092603	0.782311	0.333777
	H43	H	0.893139	0.783706	0.661469
	H44	H	0.207174	0.335601	0.898068
	H45	H	0.205929	0.662195	0.095539
	H46	H	0.779352	0.334859	0.093929
	H47	H	0.777718	0.661353	0.899632
	H48	H	0.403793	0.113791	0.592512
	H49	H	0.588784	0.881746	0.594280
	H50	H	0.581897	0.113291	0.406957
	H51	H	0.395330	0.880796	0.402927
	H52	H	0.590299	0.401812	0.116991
	H53	H	0.588130	0.591517	0.879089
	H54	H	0.396657	0.595234	0.116615
	H55	H	0.398085	0.403666	0.879093
	H56	H	0.112282	0.596441	0.404581
	H57	H	0.872910	0.595604	0.592890
	H58	H	0.109941	0.407395	0.592490
	H59	H	0.875010	0.400715	0.407743
	H60	H	0.111581	0.400966	0.589571
	H61	H	0.876163	0.593447	0.585973
	H62	H	0.107639	0.590328	0.413069
	H63	H	0.876867	0.409113	0.404871
	H64	H	0.399598	0.589871	0.113492
	H65	H	0.581734	0.589665	0.880773
	H66	H	0.585667	0.412622	0.112947
	H67	H	0.398810	0.408233	0.880776
	H68	H	0.588517	0.114825	0.407377
	H69	H	0.582752	0.883146	0.592279
	H70	H	0.395880	0.113925	0.588094
	H71	H	0.402392	0.882821	0.401449
	H72	H	0.900569	0.614127	0.092740
	H73	H	0.092791	0.379905	0.092950
	H74	H	0.095762	0.616506	0.909252
	H75	H	0.899262	0.381715	0.900335
	H76	H	0.078289	0.911239	0.611100
	H77	H	0.082645	0.085314	0.381915
	H78	H	0.896367	0.102552	0.618950
	H79	H	0.891359	0.903751	0.377495
	H80	H	0.607525	0.085081	0.904005
	H81	H	0.372853	0.094828	0.094155
	H82	H	0.609935	0.898391	0.083197
	H83	H	0.373001	0.892216	0.911613
	H84	H	0.606336	0.914207	0.088535
	H85	H	0.374785	0.094638	0.086116
	H86	H	0.613416	0.096699	0.900845
	H87	H	0.379526	0.916489	0.911356
	H88	H	0.894968	0.085150	0.614107
	H89	H	0.079469	0.096361	0.379267
	H90	H	0.082222	0.896602	0.616900
	H91	H	0.902173	0.912357	0.382744
	H92	H	0.084303	0.616764	0.893510
	H93	H	0.080933	0.383418	0.094832
	H94	H	0.898723	0.614150	0.089209
	H95	H	0.899409	0.382514	0.902693
	H96	H	0.395957	0.116748	0.596930
	H97	H	0.587828	0.883094	0.587755
	H98	H	0.585544	0.116204	0.401573
	H99	H	0.399049	0.883848	0.408455
	H100	H	0.578066	0.402945	0.114054
	H101	H	0.582815	0.595972	0.878907
	H102	H	0.402870	0.595255	0.114613
	H103	H	0.402752	0.404640	0.880899
	H104	H	0.110033	0.585689	0.402090
	H105	H	0.874976	0.588419	0.591058
	H106	H	0.108991	0.406339	0.585209
	H107	H	0.873317	0.403393	0.398977
	H108	H	0.896840	0.614986	0.092202
	H109	H	0.086045	0.384872	0.084335
	H110	H	0.076535	0.609967	0.910354
	H111	H	0.896793	0.381821	0.901591
	H112	H	0.093696	0.907354	0.615958
	H113	H	0.090866	0.092874	0.376877
	H114	H	0.910848	0.093624	0.611285
	H115	H	0.904933	0.897350	0.379909
	H116	H	0.608506	0.094613	0.913044
	H117	H	0.375463	0.087575	0.090393
	H118	H	0.613141	0.902634	0.099426
	H119	H	0.370051	0.905911	0.890253
	C120	C	0.370633	0.007042	0.619906
	C121	C	0.614646	0.990188	0.620453
	C122	C	0.613913	0.007116	0.376460
	C123	C	0.369920	0.990098	0.376042
	C124	C	0.613364	0.377131	0.005818
	C125	C	0.613378	0.620326	0.988409
	C126	C	0.370429	0.621236	0.006423
	C127	C	0.370986	0.377594	0.988738
	C128	C	0.001472	0.619341	0.376853
	C129	C	0.983844	0.620393	0.618621
	C130	C	0.001290	0.377060	0.617505
	C131	C	0.983865	0.376011	0.375016
	C132	C	0.870962	0.506599	0.119056
	C133	C	0.114703	0.490452	0.119772
	C134	C	0.114274	0.507095	0.875370
	C135	C	0.870245	0.490002	0.874462
	C136	C	0.113724	0.876671	0.506042
	C137	C	0.113416	0.120134	0.488295
	C138	C	0.871375	0.120836	0.505777
	C139	C	0.871335	0.876935	0.489234
	C140	C	0.501279	0.120215	0.876879
	C141	C	0.483195	0.120675	0.119249
	C142	C	0.500559	0.877330	0.118510
	C143	C	0.483136	0.876968	0.876030
	C144	C	0.373623	0.884494	0.674230
	C145	C	0.611866	0.112566	0.675856
	C146	C	0.611004	0.884578	0.321204
	C147	C	0.371889	0.112233	0.321204
	C148	C	0.668259	0.379692	0.882207
	C149	C	0.668407	0.616935	0.112571
	C150	C	0.315706	0.617339	0.882228
	C151	C	0.316527	0.381290	0.112653
	C152	C	0.877813	0.674992	0.377031
	C153	C	0.107710	0.674939	0.616882
	C154	C	0.877413	0.322331	0.615137
	C155	C	0.107474	0.320716	0.376198
	C156	C	0.876934	0.381057	0.671235
	C157	C	0.108164	0.617211	0.673663
	C158	C	0.877208	0.616092	0.321870
	C159	C	0.108039	0.379530	0.320867
	C160	C	0.371814	0.675869	0.882532
	C161	C	0.612286	0.675698	0.111901
	C162	C	0.612015	0.320990	0.882791
	C163	C	0.371733	0.322141	0.111946
	C164	C	0.668891	0.884702	0.379072
	C165	C	0.669251	0.112821	0.617720
	C166	C	0.315942	0.884306	0.616266
	C167	C	0.314486	0.112416	0.378851
	C168	C	0.874797	0.384024	0.172846
	C169	C	0.111602	0.612850	0.175364
	C170	C	0.111240	0.384267	0.820147
	C171	C	0.873611	0.612873	0.820855
	C172	C	0.168215	0.880117	0.382095
	C173	C	0.167448	0.116905	0.612749
	C174	C	0.815985	0.116573	0.382097
	C175	C	0.817880	0.881520	0.613764
	C176	C	0.377022	0.175392	0.878034
	C177	C	0.606786	0.176024	0.117685
	C178	C	0.376885	0.822627	0.116773
	C179	C	0.607276	0.821933	0.878326
	C180	C	0.376296	0.881335	0.172747
	C181	C	0.607371	0.117759	0.174579
	C182	C	0.376835	0.116748	0.822111
	C183	C	0.607749	0.880405	0.822510
	C184	C	0.872753	0.174766	0.381942
	C185	C	0.111976	0.175880	0.611804
	C186	C	0.112129	0.821077	0.382488
	C187	C	0.873333	0.821918	0.612736
	C188	C	0.169459	0.384428	0.877768
	C189	C	0.168759	0.613263	0.116748
	C190	C	0.816781	0.383861	0.115118
	C191	C	0.815619	0.612800	0.878376
	C192	C	0.391938	0.092659	0.598660
	C193	C	0.592837	0.904618	0.598131
	C194	C	0.591738	0.092838	0.398788
	C195	C	0.392330	0.904443	0.397965
	C196	C	0.591137	0.399304	0.092388
	C197	C	0.590927	0.598556	0.902110
	C198	C	0.392997	0.599816	0.092520
	C199	C	0.393409	0.399202	0.902603
	C200	C	0.087769	0.597389	0.399824
	C201	C	0.897130	0.598817	0.596497
	C202	C	0.087892	0.398727	0.595501
	C203	C	0.897291	0.397897	0.397346
	C204	C	0.892530	0.592456	0.097782
	C205	C	0.093067	0.404887	0.097326
	C206	C	0.091826	0.592391	0.897679
	C207	C	0.892113	0.404096	0.895300
	C208	C	0.091414	0.898604	0.592366
	C209	C	0.091040	0.097887	0.401820
	C210	C	0.894131	0.099892	0.592410
	C211	C	0.893111	0.898153	0.402572
	C212	C	0.587484	0.098618	0.899471
	C213	C	0.396875	0.099075	0.096983
	C214	C	0.587266	0.898768	0.096700
	C215	C	0.396526	0.898460	0.898051
	Zn216	Zn	0.492345	-0.001591	0.749031
	Zn217	Zn	0.491731	-0.001229	0.247402
	Zn218	Zn	0.741776	0.498492	-0.002839
	Zn219	Zn	0.243335	0.498835	-0.002332
	Zn220	Zn	-0.007484	0.747750	0.497305
	Zn221	Zn	-0.007032	0.248600	0.496415
	Zn222	Zn	-0.007640	0.498729	0.745558
	Zn223	Zn	-0.007389	0.498352	0.248879
	Zn224	Zn	0.491791	0.749096	-0.002932
	Zn225	Zn	0.491432	0.249133	-0.002462
	Zn226	Zn	0.743605	-0.001111	0.498253
	Zn227	Zn	0.241375	-0.001185	0.497784
	N228	N	0.406738	0.961669	0.676595
	N229	N	0.578659	0.035311	0.677583
	N230	N	0.577395	0.961753	0.319585
	N231	N	0.405757	0.035202	0.319425
	N232	N	0.669017	0.413933	0.959760
	N233	N	0.669173	0.582871	0.034776
	N234	N	0.314740	0.584044	0.959915
	N235	N	0.316039	0.415162	0.035018
	N236	N	0.956051	0.677138	0.410683
	N237	N	0.029516	0.676843	0.583383
	N238	N	0.955665	0.319995	0.582316
	N239	N	0.029208	0.318659	0.409361
	N240	N	0.954955	0.414533	0.672715
	N241	N	0.029985	0.583863	0.674804
	N242	N	0.954903	0.581990	0.321676
	N243	N	0.030283	0.413545	0.320329
	N244	N	0.405153	0.678444	0.960776
	N245	N	0.578619	0.677812	0.033916
	N246	N	0.578745	0.319083	0.960943
	N247	N	0.405015	0.319806	0.033924
	N248	N	0.670814	0.961941	0.412658
	N249	N	0.670947	0.035729	0.583646
	N250	N	0.313913	0.961468	0.582945
	N251	N	0.313246	0.035239	0.412288
	N252	N	0.907664	0.461380	0.175437
	N253	N	0.078746	0.535473	0.177362
	N254	N	0.077880	0.461461	0.818186
	N255	N	0.906584	0.535392	0.818102
	N256	N	0.169335	0.913900	0.459951
	N257	N	0.168350	0.082823	0.534976
	N258	N	0.814989	0.083835	0.460144
	N259	N	0.816536	0.915155	0.536012
	N260	N	0.455199	0.177662	0.911392
	N261	N	0.528715	0.177924	0.083927
	N262	N	0.455049	0.820143	0.083790
	N263	N	0.528812	0.819638	0.910851
	N264	N	0.454473	0.914691	0.174092
	N265	N	0.529680	0.083904	0.175620
	N266	N	0.454932	0.083153	0.821096
	N267	N	0.529726	0.913849	0.820994
	N268	N	0.906290	0.177703	0.460046
	N269	N	0.079266	0.177967	0.533395
	N270	N	0.079027	0.818781	0.460547
	N271	N	0.905939	0.819092	0.534295
	N272	N	0.171569	0.461825	0.911216
	N273	N	0.170591	0.536154	0.082845
	N274	N	0.814306	0.461245	0.082452
	N275	N	0.813330	0.535515	0.911007
	O276	O	0.500658	0.479126	0.521353
	H277	H	0.502125	0.478184	0.524850
	H278	H	0.510531	0.475813	0.519528
	O279	O	0.497984	0.456829	0.519299
	H280	H	0.511956	0.458835	0.525035
	H281	H	0.491381	0.445408	0.517462
	O282	O	0.554065	0.475598	0.491087
	H283	H	0.546785	0.476937	0.487585
	H284	H	0.560655	0.486452	0.489868
	O285	O	0.482180	0.439201	0.465846
	H286	H	0.485247	0.427823	0.462168
	H287	H	0.492279	0.440915	0.468759
	O288	O	0.520665	0.468576	0.498774
	H289	H	0.518874	0.466489	0.505838
	H290	H	0.516884	0.478253	0.500947
	O291	O	0.213975	0.758904	1.196534
	H292	H	0.211087	0.767247	1.195715
	H293	H	0.213486	0.752168	1.201311
	O294	O	0.522006	0.483898	0.493776
	H295	H	0.521192	0.476151	0.491824
	H296	H	0.513333	0.484841	0.496648
	O297	O	1.536479	0.455900	0.493884
	H298	H	1.526145	0.466123	0.481841
	H299	H	1.540488	0.446222	0.492754
