data_Molecule from HDF5

_cell_length_a		16.543727
_cell_length_b		16.503941
_cell_length_c		16.534558
_cell_angle_alpha	90.001825
_cell_angle_beta	89.943245
_cell_angle_gamma	89.900022
_symmetry_space_group_name_H-M	'P 1'
_symmetry_Int_Tables_number		1

loop_
	_symmetry_equiv_pos_as_xyz
	x,y,z

loop_
	_atom_site_label
	_atom_site_type_symbol
	_atom_site_fract_x
	_atom_site_fract_y
	_atom_site_fract_z
	H0	H	0.413293	0.874323	0.728928
	H1	H	0.622885	0.187719	0.731692
	H2	H	0.625660	0.874313	0.286843
	H3	H	0.415866	0.190025	0.288320
	H4	H	0.739777	0.426529	0.851240
	H5	H	0.737521	0.634230	0.166769
	H6	H	0.295303	0.639280	0.852276
	H7	H	0.296084	0.425973	0.164558
	H8	H	0.859568	0.752068	0.406694
	H9	H	0.176201	0.753252	0.613172
	H10	H	0.862515	0.311178	0.613024
	H11	H	0.177849	0.312704	0.404792
	H12	H	0.862254	0.428096	0.729624
	H13	H	0.176070	0.638864	0.730445
	H14	H	0.859261	0.635161	0.289873
	H15	H	0.176998	0.430053	0.288628
	H16	H	0.412045	0.755237	0.852471
	H17	H	0.621619	0.750542	0.166792
	H18	H	0.621839	0.310478	0.850968
	H19	H	0.413059	0.309527	0.165238
	H20	H	0.740828	0.875162	0.404304
	H21	H	0.739012	0.189635	0.614479
	H22	H	0.297364	0.874667	0.612638
	H23	H	0.298706	0.190575	0.404011
	H24	H	0.915332	0.374124	0.228423
	H25	H	0.123827	0.688851	0.230275
	H26	H	0.127405	0.376594	0.784214
	H27	H	0.913271	0.689026	0.787089
	H28	H	0.239022	0.929324	0.350602
	H29	H	0.242768	0.139173	0.664458
	H30	H	0.795892	0.138771	0.352503
	H31	H	0.793009	0.923637	0.663688
	H32	H	0.362525	0.255477	0.900538
	H33	H	0.674843	0.253310	0.113882
	H34	H	0.361207	0.813453	0.110250
	H35	H	0.676217	0.809391	0.902691
	H36	H	0.361848	0.929503	0.228315
	H37	H	0.674416	0.137577	0.230530
	H38	H	0.361413	0.137469	0.785724
	H39	H	0.674532	0.923243	0.783619
	H40	H	0.915303	0.252683	0.351138
	H41	H	0.126818	0.255770	0.664646
	H42	H	0.123175	0.811475	0.351106
	H43	H	0.910686	0.808392	0.664297
	H44	H	0.242828	0.375738	0.900331
	H45	H	0.240693	0.688441	0.114013
	H46	H	0.798452	0.374290	0.112423
	H47	H	0.796426	0.688829	0.903462
	H48	H	0.433238	0.141455	0.591778
	H49	H	0.605939	0.920594	0.595675
	H50	H	0.610001	0.144463	0.421711
	H51	H	0.436386	0.921582	0.418564
	H52	H	0.611203	0.440292	0.122268
	H53	H	0.604905	0.618032	0.898081
	H54	H	0.421503	0.626041	0.124919
	H55	H	0.433929	0.443915	0.897487
	H56	H	0.129178	0.620130	0.420259
	H57	H	0.907312	0.622047	0.597910
	H58	H	0.132520	0.437375	0.594027
	H59	H	0.906556	0.440158	0.419168
	H60	H	0.127876	0.449826	0.592830
	H61	H	0.907320	0.620467	0.595943
	H62	H	0.130909	0.621237	0.415812
	H63	H	0.906485	0.442352	0.419580
	H64	H	0.428173	0.610298	0.117253
	H65	H	0.606440	0.623179	0.895960
	H66	H	0.607805	0.444783	0.119354
	H67	H	0.430316	0.441460	0.895648
	H68	H	0.608222	0.146231	0.415437
	H69	H	0.606132	0.920749	0.593694
	H70	H	0.423604	0.146089	0.596802
	H71	H	0.424143	0.919593	0.424332
	H72	H	0.931137	0.645538	0.102962
	H73	H	0.103158	0.420568	0.097853
	H74	H	0.101994	0.641846	0.920523
	H75	H	0.932266	0.420261	0.920093
	H76	H	0.109946	0.935804	0.623584
	H77	H	0.106165	0.123945	0.396872
	H78	H	0.927739	0.122902	0.621691
	H79	H	0.928232	0.944965	0.396648
	H80	H	0.631792	0.123947	0.917698
	H81	H	0.405019	0.121601	0.100602
	H82	H	0.631365	0.945892	0.098200
	H83	H	0.407711	0.939676	0.922302
	H84	H	0.634540	0.938375	0.102945
	H85	H	0.407004	0.122747	0.094154
	H86	H	0.626589	0.119040	0.926730
	H87	H	0.409125	0.946550	0.919284
	H88	H	0.929366	0.118489	0.620619
	H89	H	0.111125	0.122281	0.395539
	H90	H	0.113627	0.950148	0.620757
	H91	H	0.931351	0.946959	0.399154
	H92	H	0.108203	0.642802	0.925568
	H93	H	0.108934	0.419994	0.093543
	H94	H	0.929954	0.643118	0.094031
	H95	H	0.927022	0.418878	0.921191
	H96	H	0.433344	0.144619	0.603003
	H97	H	0.607991	0.919969	0.594948
	H98	H	0.604080	0.142560	0.418954
	H99	H	0.425961	0.916800	0.411452
	H100	H	0.605436	0.439183	0.121055
	H101	H	0.610451	0.618677	0.895802
	H102	H	0.438982	0.625258	0.119236
	H103	H	0.429680	0.446248	0.897317
	H104	H	0.130890	0.624606	0.419841
	H105	H	0.907422	0.619557	0.598229
	H106	H	0.133208	0.445766	0.603900
	H107	H	0.905782	0.441789	0.417716
	H108	H	0.922498	0.646766	0.098965
	H109	H	0.109238	0.418554	0.100455
	H110	H	0.108425	0.645171	0.917602
	H111	H	0.928540	0.418133	0.916169
	H112	H	0.099628	0.944940	0.617032
	H113	H	0.107469	0.118523	0.397568
	H114	H	0.932191	0.122414	0.620127
	H115	H	0.932033	0.942999	0.397608
	H116	H	0.628359	0.113229	0.917110
	H117	H	0.407768	0.116481	0.097043
	H118	H	0.632591	0.937667	0.093687
	H119	H	0.405421	0.941371	0.915216
	C120	C	0.397393	0.040247	0.629278
	C121	C	0.638950	1.023839	0.628518
	C122	C	0.640484	0.040733	0.386510
	C123	C	0.397704	1.023845	0.386932
	C124	C	0.640574	0.409217	0.016857
	C125	C	0.639379	0.652158	1.000498
	C126	C	0.396688	0.653765	0.017033
	C127	C	0.397957	0.410696	1.000170
	C128	C	0.026091	0.653949	0.387105
	C129	C	1.010833	0.653434	0.629837
	C130	C	0.027567	0.411165	0.629761
	C131	C	1.010864	0.410590	0.387210
	C132	C	0.896729	0.540580	0.129835
	C133	C	0.139399	0.523358	0.129990
	C134	C	0.140049	0.540286	0.887473
	C135	C	0.897583	0.523294	0.887386
	C136	C	0.139940	0.911500	0.516526
	C137	C	0.140995	0.153946	0.500341
	C138	C	0.897784	0.153629	0.517079
	C139	C	0.897245	0.911538	0.500664
	C140	C	0.525718	0.151653	0.887469
	C141	C	0.510138	0.152679	0.129321
	C142	C	0.528015	0.910308	0.129580
	C143	C	0.510774	0.909593	0.886325
	C144	C	0.394651	0.921649	0.689118
	C145	C	0.641496	0.141280	0.690607
	C146	C	0.643441	0.921948	0.327064
	C147	C	0.396807	0.142815	0.327931
	C148	C	0.699757	0.407860	0.898388
	C149	C	0.698185	0.653228	0.119249
	C150	C	0.335690	0.657058	0.899419
	C151	C	0.336776	0.407505	0.117836
	C152	C	0.906844	0.712452	0.387138
	C153	C	0.129033	0.713254	0.631528
	C154	C	0.909701	0.351079	0.631865
	C155	C	0.130120	0.352415	0.386071
	C156	C	0.909654	0.408996	0.690042
	C157	C	0.128858	0.656322	0.690166
	C158	C	0.906875	0.654437	0.329034
	C159	C	0.129724	0.410591	0.328212
	C160	C	0.393883	0.714720	0.899339
	C161	C	0.640465	0.711170	0.119349
	C162	C	0.641271	0.350354	0.898180
	C163	C	0.394901	0.349822	0.118137
	C164	C	0.700876	0.922280	0.385203
	C165	C	0.699114	0.142193	0.632403
	C166	C	0.337159	0.921812	0.631258
	C167	C	0.338594	0.142805	0.385503
	C168	C	0.896250	0.421406	0.188812
	C169	C	0.142106	0.641665	0.190198
	C170	C	0.144627	0.423244	0.825090
	C171	C	0.895056	0.641983	0.827366
	C172	C	0.199391	0.910047	0.398105
	C173	C	0.202391	0.157408	0.617412
	C174	C	0.837065	0.156650	0.399282
	C175	C	0.835007	0.907073	0.617535
	C176	C	0.408734	0.213968	0.883417
	C177	C	0.627729	0.213332	0.131979
	C178	C	0.408571	0.852433	0.130196
	C179	C	0.628785	0.849372	0.883946
	C180	C	0.409107	0.909877	0.188677
	C181	C	0.627628	0.155817	0.189987
	C182	C	0.408333	0.155111	0.826335
	C183	C	0.627965	0.905793	0.824613
	C184	C	0.896279	0.213288	0.398572
	C185	C	0.144418	0.215032	0.617852
	C186	C	0.141455	0.851806	0.398111
	C187	C	0.893373	0.849523	0.617724
	C188	C	0.202213	0.423074	0.882820
	C189	C	0.200330	0.641314	0.132583
	C190	C	0.838132	0.421551	0.131243
	C191	C	0.836943	0.641678	0.884975
	C192	C	0.422815	0.122550	0.604323
	C193	C	0.613860	0.941806	0.602079
	C194	C	0.614952	0.123057	0.411481
	C195	C	0.422069	0.940952	0.411072
	C196	C	0.615500	0.434223	0.099420
	C197	C	0.614391	0.627164	0.917914
	C198	C	0.422455	0.627929	0.099118
	C199	C	0.423833	0.436651	0.918349
	C200	C	0.108859	0.629318	0.411598
	C201	C	0.928742	0.628006	0.604651
	C202	C	0.109781	0.436739	0.604137
	C203	C	0.927993	0.434646	0.411687
	C204	C	0.920846	0.623500	0.105530
	C205	C	0.114194	0.441119	0.104536
	C206	C	0.113592	0.622047	0.913808
	C207	C	0.922322	0.440709	0.912205
	C208	C	0.114923	0.936399	0.598922
	C209	C	0.115489	0.128747	0.417988
	C210	C	0.922487	0.128471	0.599299
	C211	C	0.923177	0.937717	0.418895
	C212	C	0.607568	0.125817	0.913214
	C213	C	0.427850	0.127415	0.104394
	C214	C	0.611027	0.933966	0.105369
	C215	C	0.428723	0.935233	0.911782
	Zn216	Zn	0.518252	0.030812	0.757889
	Zn217	Zn	0.519080	0.031647	0.258339
	Zn218	Zn	0.768504	0.531638	0.008386
	Zn219	Zn	0.268451	0.531475	0.008555
	Zn220	Zn	0.018057	0.782402	0.508870
	Zn221	Zn	0.019777	0.281794	0.508513
	Zn222	Zn	0.019292	0.532548	0.759014
	Zn223	Zn	0.017799	0.532264	0.258333
	Zn224	Zn	0.519130	0.781347	0.008514
	Zn225	Zn	0.518033	0.281112	0.008138
	Zn226	Zn	0.768478	0.032649	0.508772
	Zn227	Zn	0.269585	0.032447	0.508352
	N228	N	0.431351	0.996186	0.688145
	N229	N	0.604870	0.066690	0.688306
	N230	N	0.606678	0.996677	0.327620
	N231	N	0.432786	0.067805	0.328650
	N232	N	0.699437	0.443624	0.973350
	N233	N	0.697678	0.617365	0.044336
	N234	N	0.337349	0.619668	0.973686
	N235	N	0.338596	0.444672	0.043621
	N236	N	0.982176	0.712611	0.421913
	N237	N	0.054414	0.711969	0.594977
	N238	N	0.984162	0.352297	0.595254
	N239	N	0.055147	0.352189	0.421908
	N240	N	0.984143	0.445683	0.688737
	N241	N	0.054237	0.620039	0.689374
	N242	N	0.982206	0.619089	0.328609
	N243	N	0.054359	0.445754	0.328614
	N244	N	0.430981	0.712795	0.973518
	N245	N	0.604591	0.710612	0.044341
	N246	N	0.605304	0.350955	0.973135
	N247	N	0.432023	0.351537	0.043791
	N248	N	0.699453	0.997278	0.421173
	N249	N	0.697591	0.068187	0.594620
	N250	N	0.338617	0.996679	0.594978
	N251	N	0.338813	0.067732	0.421278
	N252	N	0.931831	0.496616	0.188266
	N253	N	0.105031	0.567250	0.188737
	N254	N	0.106838	0.497375	0.827733
	N255	N	0.931838	0.567343	0.828480
	N256	N	0.198613	0.946343	0.472850
	N257	N	0.200385	0.120236	0.543218
	N258	N	0.837744	0.120296	0.473989
	N259	N	0.837569	0.945103	0.543791
	N260	N	0.482686	0.211839	0.920871
	N261	N	0.553439	0.211705	0.095115
	N262	N	0.483702	0.852295	0.094417
	N263	N	0.554805	0.851427	0.921460
	N264	N	0.484430	0.944604	0.188593
	N265	N	0.553483	0.118923	0.188461
	N266	N	0.482209	0.117061	0.828700
	N267	N	0.553405	0.942368	0.825908
	N268	N	0.933185	0.211744	0.472940
	N269	N	0.106815	0.212799	0.543900
	N270	N	0.105233	0.852440	0.472883
	N271	N	0.931860	0.852613	0.544095
	N272	N	0.199589	0.496938	0.920863
	N273	N	0.198821	0.566709	0.095818
	N274	N	0.838213	0.496560	0.095536
	N275	N	0.838458	0.566986	0.921618
	O276	O	1.075097	1.246552	0.948017
	H277	H	1.089166	1.247235	0.940564
	H278	H	1.066910	1.243053	0.937016
	O279	O	0.036996	-0.103993	0.923251
	H280	H	0.043946	-0.102163	0.924533
	H281	H	0.050342	-0.102614	0.924492
	O282	O	0.699101	0.347214	0.695082
	H283	H	0.682688	0.365612	0.677303
	H284	H	0.681591	0.359543	0.674720
	O285	O	0.215819	-0.165787	0.811797
	H286	H	0.213135	-0.171599	0.855000
	H287	H	0.232714	-0.151360	0.804615
	O288	O	0.882752	-0.169193	0.872529
	H289	H	0.881359	-0.162700	0.888060
	H290	H	0.892766	-0.159551	0.867917
	O291	O	0.213723	0.226305	0.171727
	H292	H	0.220111	0.216441	0.142032
	H293	H	0.230702	0.231191	0.171693
	O294	O	-0.197573	0.064254	-0.204831
	H295	H	-0.207883	0.078582	-0.223215
	H296	H	-0.204705	0.084715	-0.213133
	O297	O	0.814492	-0.174800	0.111449
	H298	H	0.794458	-0.170094	0.122346
	H299	H	0.807571	-0.162263	0.085831
	O300	O	0.221342	-0.176486	-0.024854
	H301	H	0.220672	-0.180342	-0.010179
	H302	H	0.223816	-0.181249	-0.007900
	O303	O	-0.099443	0.066225	0.227374
	H304	H	-0.097457	0.065123	0.215793
	H305	H	-0.095398	0.077905	0.235330
	O306	O	0.882264	0.000605	0.136489
	H307	H	0.885948	0.007273	0.140972
	H308	H	0.895872	0.006772	0.139775
	O309	O	0.553612	0.596125	0.651117
	H310	H	0.576236	0.598895	0.650525
	H311	H	0.563553	0.589211	0.659259
	O312	O	-0.667538	-0.658010	0.695589
	H313	H	-0.662483	-0.635314	0.694131
	H314	H	-0.675946	-0.655106	0.655762
	O315	O	0.682680	0.727887	0.530039
	H316	H	0.669771	0.733195	0.525402
	H317	H	0.680309	0.731285	0.535391
	O318	O	1.153149	1.172064	-0.122594
	H319	H	1.140607	1.157962	-0.133178
	H320	H	1.150744	1.181782	-0.145762
	O321	O	-0.024720	1.174616	0.845635
	H322	H	-0.020437	1.183916	0.845404
	H323	H	-0.040361	1.173651	0.839707
	O324	O	1.101366	-0.029215	1.048005
	H325	H	1.103744	-0.030978	1.047673
	H326	H	1.095547	-0.027927	1.043548
	O327	O	0.449620	0.442010	0.521205
	H328	H	0.457338	0.438560	0.508816
	H329	H	0.445831	0.436400	0.507742
	O330	O	0.602131	0.611249	0.317584
	H331	H	0.587295	0.631098	0.311039
	H332	H	0.606639	0.602142	0.324737
	O333	O	0.360320	0.640650	0.610853
	H334	H	0.358681	0.635053	0.626797
	H335	H	0.365061	0.634104	0.597697
	O336	O	0.315249	0.734665	0.301669
	H337	H	0.287944	0.760616	0.292557
	H338	H	0.300521	0.739738	0.326716
	O339	O	0.508347	0.504118	0.337280
	H340	H	0.494496	0.511584	0.339464
	H341	H	0.509868	0.503499	0.334416
	O342	O	-0.349948	0.700158	-0.604144
	H343	H	-0.357625	0.694501	-0.621321
	H344	H	-0.365041	0.702246	-0.599410
	O345	O	0.380224	0.336263	0.365937
	H346	H	0.406328	0.335868	0.376646
	H347	H	0.399065	0.355087	0.369386
	O348	O	0.430584	0.666742	0.514672
	H349	H	0.428534	0.666800	0.520010
	H350	H	0.430625	0.647672	0.519667
	O351	O	-0.688378	-0.441887	1.295113
	H352	H	-0.702658	-0.425231	1.281485
	H353	H	-0.690605	-0.420418	1.302660
	O354	O	1.140657	0.143169	0.828388
	H355	H	1.143331	0.152226	0.823435
	H356	H	1.134259	0.139244	0.820043
	O357	O	0.531682	0.507922	0.584092
	H358	H	0.532379	0.530874	0.576655
	H359	H	0.533062	0.508928	0.588910
	O360	O	0.726248	0.412231	0.531000
	H361	H	0.734299	0.420766	0.522765
	H362	H	0.731099	0.413259	0.518458
	O363	O	1.229804	0.103050	0.220086
	H364	H	1.225656	0.105426	0.214911
	H365	H	1.244180	0.110878	0.234152
	O366	O	-0.170646	0.215639	1.198501
	H367	H	-0.149100	0.198148	1.182139
	H368	H	-0.154029	0.200266	1.177877
	O369	O	-0.014606	-0.188574	1.230925
	H370	H	-0.020844	-0.217915	1.265118
	H371	H	-0.059162	-0.179244	1.223182
	O372	O	0.029614	0.974067	1.118500
	H373	H	0.013269	0.975351	1.111593
	H374	H	0.015840	0.976682	1.121973
	O375	O	1.108533	0.100479	-0.174680
	H376	H	1.096229	0.082352	-0.186085
	H377	H	1.096295	0.114859	-0.180987
	O378	O	0.544375	0.322874	0.298421
	H379	H	0.535084	0.326974	0.298402
	H380	H	0.549921	0.315553	0.286619
	O381	O	0.240727	1.014377	-0.134267
	H382	H	0.251143	1.005454	-0.143470
	H383	H	0.230711	1.027097	-0.142565
	O384	O	0.573728	0.311533	0.545905
	H385	H	0.584330	0.316345	0.546571
	H386	H	0.583142	0.313974	0.552057
	O387	O	0.724320	0.328875	0.304029
	H388	H	0.737049	0.303210	0.295558
	H389	H	0.709846	0.320505	0.294358
	O390	O	0.044799	0.816306	0.790091
	H391	H	0.053002	0.799195	0.775806
	H392	H	0.074899	0.812771	0.784981
	O393	O	0.799422	0.244021	-0.026515
	H394	H	0.786717	0.263370	-0.040629
	H395	H	0.818642	0.259654	-0.015448
	O396	O	0.309401	0.505656	0.720357
	H397	H	0.332085	0.509816	0.726916
	H398	H	0.287260	0.502954	0.736658
	O399	O	0.485315	0.753767	0.289404
	H400	H	0.460713	0.761148	0.275499
	H401	H	0.457434	0.765804	0.272563
	O402	O	1.068162	-0.109865	1.018325
	H403	H	1.058708	-0.120961	1.030175
	H404	H	1.061608	-0.095491	1.028960
	O405	O	1.137600	0.044676	0.097866
	H406	H	1.131518	0.060568	0.098318
	H407	H	1.146207	0.053427	0.098971
	O408	O	1.071684	0.963134	1.213449
	H409	H	1.063081	0.970096	1.206053
	H410	H	1.061222	0.947002	1.221970
	O411	O	0.738673	1.500393	0.295360
	H412	H	0.736869	1.476505	0.291454
	H413	H	0.752814	1.487950	0.271160
	O414	O	0.209314	-0.158328	0.197383
	H415	H	0.186901	-0.138363	0.183915
	H416	H	0.193201	-0.141660	0.174745
	O417	O	0.305990	0.746521	0.471156
	H418	H	0.302918	0.736746	0.490716
	H419	H	0.296770	0.760041	0.481853
	O420	O	0.534166	-0.434223	0.680665
	H421	H	0.548120	-0.427733	0.680943
	H422	H	0.535314	-0.432589	0.681288
	O423	O	1.001086	0.986558	-0.210236
	H424	H	1.005227	0.958619	-0.206290
	H425	H	0.995956	0.986584	-0.222388
	O426	O	0.501275	0.327100	0.708021
	H427	H	0.497814	0.325586	0.714788
	H428	H	0.480640	0.327716	0.704893
	O429	O	0.818116	0.234261	0.806498
	H430	H	0.791723	0.261111	0.784978
	H431	H	0.824496	0.232602	0.831744
	O432	O	1.050312	0.247936	1.225714
	H433	H	1.098189	0.237133	1.216079
	H434	H	1.054449	0.276702	1.260141
	O435	O	0.716032	0.730248	0.702519
	H436	H	0.722276	0.723103	0.711784
	H437	H	0.720118	0.742381	0.691556
	O438	O	0.811114	0.951900	0.157266
	H439	H	0.815887	0.964629	0.140349
	H440	H	0.796379	0.958668	0.152719
	O441	O	0.681205	0.538088	0.723201
	H442	H	0.707624	0.537144	0.729916
	H443	H	0.676728	0.548321	0.717756
	O444	O	0.349441	0.495018	0.446584
	H445	H	0.359267	0.499717	0.450756
	H446	H	0.347118	0.510037	0.436373
	O447	O	-0.172109	0.991492	-0.049904
	H448	H	-0.181112	1.014955	-0.059335
	H449	H	-0.155275	0.993298	-0.054660
	O450	O	0.538944	-0.269573	-0.337868
	H451	H	0.546655	-0.245765	-0.319830
	H452	H	0.554309	-0.271357	-0.354662
	O453	O	0.652460	0.576991	0.537331
	H454	H	0.654744	0.574872	0.520206
	H455	H	0.641489	0.589782	0.526231
	O456	O	-0.059827	0.986189	0.913383
	H457	H	-0.061492	0.993218	0.897847
	H458	H	-0.052371	0.992759	0.917994
	O459	O	0.418945	0.573664	0.453588
	H460	H	0.435983	0.579911	0.445651
	H461	H	0.419010	0.575294	0.449655
	O462	O	0.734935	0.403396	0.561842
	H463	H	0.750342	0.399739	0.547053
	H464	H	0.740191	0.411755	0.550337
	O465	O	0.489692	0.652099	0.509704
	H466	H	0.498329	0.642706	0.499816
	H467	H	0.490360	0.666586	0.509605
	O468	O	-0.190374	-0.005269	0.046540
	H469	H	-0.183559	0.001429	0.038319
	H470	H	-0.189237	0.011456	0.033656
	O471	O	-0.033525	0.247392	0.064260
	H472	H	-0.014002	0.250729	0.058243
	H473	H	-0.010496	0.240952	0.082730
	O474	O	1.228732	1.194205	0.045994
	H475	H	1.245134	1.208584	0.039463
	H476	H	1.231392	1.189695	0.024029
	O477	O	0.372227	0.326546	0.504468
	H478	H	0.372433	0.324857	0.495872
	H479	H	0.387547	0.329706	0.497932
