data_Molecule from HDF5

_cell_length_a		16.177117
_cell_length_b		16.375161
_cell_length_c		16.457556
_cell_angle_alpha	89.823601
_cell_angle_beta	89.522086
_cell_angle_gamma	89.970806
_symmetry_space_group_name_H-M	'P 1'
_symmetry_Int_Tables_number		1

loop_
	_symmetry_equiv_pos_as_xyz
	x,y,z

loop_
	_atom_site_label
	_atom_site_type_symbol
	_atom_site_fract_x
	_atom_site_fract_y
	_atom_site_fract_z
	H0	H	0.395900	0.839085	0.724935
	H1	H	0.609767	0.156637	0.723349
	H2	H	0.610887	0.838407	0.282049
	H3	H	0.396303	0.155897	0.281433
	H4	H	0.722586	0.397922	0.839670
	H5	H	0.725499	0.604170	0.158510
	H6	H	0.293092	0.598336	0.838110
	H7	H	0.282962	0.397863	0.158755
	H8	H	0.844014	0.718999	0.396393
	H9	H	0.169436	0.715746	0.599297
	H10	H	0.843744	0.280900	0.602818
	H11	H	0.168204	0.280475	0.394953
	H12	H	0.845848	0.392524	0.722177
	H13	H	0.168834	0.602614	0.717568
	H14	H	0.844353	0.605714	0.278805
	H15	H	0.168230	0.396905	0.278903
	H16	H	0.397380	0.723145	0.844527
	H17	H	0.606327	0.717140	0.161283
	H18	H	0.609294	0.276841	0.842109
	H19	H	0.393762	0.277071	0.159312
	H20	H	0.722384	0.836397	0.401634
	H21	H	0.724478	0.157455	0.605141
	H22	H	0.286502	0.837817	0.604983
	H23	H	0.289289	0.158985	0.402821
	H24	H	0.897984	0.339914	0.221877
	H25	H	0.112112	0.657855	0.218383
	H26	H	0.115462	0.338552	0.777293
	H27	H	0.904059	0.658082	0.779715
	H28	H	0.226509	0.898800	0.341864
	H29	H	0.219386	0.098553	0.663137
	H30	H	0.786183	0.101088	0.342266
	H31	H	0.788664	0.896634	0.661698
	H32	H	0.340013	0.216165	0.901650
	H33	H	0.665296	0.217845	0.104346
	H34	H	0.339791	0.780572	0.107731
	H35	H	0.666106	0.781885	0.902465
	H36	H	0.341359	0.893972	0.225096
	H37	H	0.666426	0.100351	0.219142
	H38	H	0.341387	0.103325	0.783517
	H39	H	0.664635	0.892780	0.782180
	H40	H	0.901491	0.218420	0.341268
	H41	H	0.110761	0.221175	0.658882
	H42	H	0.113583	0.780152	0.340485
	H43	H	0.901854	0.776513	0.659049
	H44	H	0.225082	0.337839	0.896041
	H45	H	0.220281	0.660418	0.095325
	H46	H	0.784631	0.339185	0.104253
	H47	H	0.789505	0.660387	0.899785
	H48	H	0.415621	0.111196	0.590235
	H49	H	0.592884	0.881580	0.599199
	H50	H	0.592631	0.107989	0.419155
	H51	H	0.412184	0.882255	0.414712
	H52	H	0.587571	0.407803	0.112038
	H53	H	0.592717	0.585764	0.888777
	H54	H	0.404200	0.587523	0.117451
	H55	H	0.419130	0.412144	0.888414
	H56	H	0.118054	0.583198	0.410306
	H57	H	0.890583	0.586949	0.592856
	H58	H	0.120419	0.405338	0.578725
	H59	H	0.890620	0.406332	0.413939
	H60	H	0.119551	0.418750	0.589872
	H61	H	0.892389	0.589025	0.586804
	H62	H	0.122167	0.585915	0.400820
	H63	H	0.891822	0.413808	0.410088
	H64	H	0.415892	0.582660	0.112311
	H65	H	0.589841	0.595409	0.887684
	H66	H	0.595213	0.403247	0.116525
	H67	H	0.420394	0.401371	0.886936
	H68	H	0.602846	0.115610	0.409088
	H69	H	0.590053	0.885186	0.591206
	H70	H	0.410013	0.113460	0.594761
	H71	H	0.420277	0.883521	0.409115
	H72	H	0.918500	0.612004	0.089341
	H73	H	0.089813	0.385177	0.089697
	H74	H	0.090970	0.612847	0.901633
	H75	H	0.918120	0.382705	0.901299
	H76	H	0.089883	0.905080	0.613511
	H77	H	0.099655	0.090902	0.386490
	H78	H	0.911540	0.090231	0.616322
	H79	H	0.913730	0.902265	0.383441
	H80	H	0.620358	0.087098	0.906001
	H81	H	0.390511	0.088367	0.085481
	H82	H	0.612665	0.918367	0.084694
	H83	H	0.390939	0.916045	0.917552
	H84	H	0.621842	0.909841	0.106221
	H85	H	0.389542	0.079373	0.097540
	H86	H	0.618204	0.091965	0.916020
	H87	H	0.385286	0.910499	0.908251
	H88	H	0.916460	0.083804	0.612679
	H89	H	0.098678	0.085084	0.389060
	H90	H	0.095350	0.901571	0.617045
	H91	H	0.911211	0.911883	0.386246
	H92	H	0.098087	0.610831	0.910623
	H93	H	0.092901	0.385558	0.086491
	H94	H	0.914622	0.612936	0.087826
	H95	H	0.922519	0.387055	0.915125
	H96	H	0.417358	0.113106	0.597969
	H97	H	0.599156	0.882603	0.591435
	H98	H	0.587374	0.111936	0.405023
	H99	H	0.420578	0.885628	0.417994
	H100	H	0.595648	0.413024	0.113837
	H101	H	0.599464	0.592823	0.885600
	H102	H	0.415119	0.595667	0.116933
	H103	H	0.410420	0.405926	0.883684
	H104	H	0.122180	0.592867	0.408624
	H105	H	0.893193	0.582935	0.588605
	H106	H	0.126198	0.403399	0.594739
	H107	H	0.887977	0.407288	0.406082
	H108	H	0.914489	0.614376	0.091652
	H109	H	0.094448	0.383826	0.089965
	H110	H	0.101862	0.616350	0.901228
	H111	H	0.907726	0.382043	0.912471
	H112	H	0.096107	0.908199	0.615139
	H113	H	0.092994	0.089310	0.387965
	H114	H	0.920265	0.091662	0.614000
	H115	H	0.921496	0.908172	0.388044
	H116	H	0.614994	0.080945	0.914546
	H117	H	0.384744	0.093030	0.098081
	H118	H	0.620034	0.894306	0.086462
	H119	H	0.387026	0.904802	0.918919
	C120	C	0.381725	0.007071	0.625659
	C121	C	0.625882	0.988986	0.624419
	C122	C	0.626281	0.006191	0.380227
	C123	C	0.384777	0.989281	0.382686
	C124	C	0.624947	0.376995	0.008593
	C125	C	0.624884	0.620948	0.992803
	C126	C	0.381967	0.620076	0.009771
	C127	C	0.382511	0.376233	0.991584
	C128	C	0.014200	0.619923	0.376400
	C129	C	0.999301	0.617719	0.619257
	C130	C	0.015341	0.377081	0.620730
	C131	C	0.997263	0.378083	0.377662
	C132	C	0.883016	0.507748	0.121750
	C133	C	0.124776	0.490716	0.118248
	C134	C	0.128703	0.507078	0.874995
	C135	C	0.885485	0.490060	0.878792
	C136	C	0.127464	0.875861	0.509483
	C137	C	0.127342	0.119676	0.493222
	C138	C	0.883935	0.120052	0.509661
	C139	C	0.884207	0.875753	0.491620
	C140	C	0.511316	0.119169	0.881403
	C141	C	0.495228	0.118972	0.123939
	C142	C	0.511326	0.876254	0.125151
	C143	C	0.494509	0.877995	0.882680
	C144	C	0.378639	0.886954	0.684856
	C145	C	0.628027	0.108976	0.683363
	C146	C	0.628700	0.886120	0.321515
	C147	C	0.380236	0.108711	0.322487
	C148	C	0.683970	0.377646	0.888007
	C149	C	0.684641	0.621997	0.111649
	C150	C	0.327813	0.619520	0.887932
	C151	C	0.321975	0.377035	0.111305
	C152	C	0.892664	0.679595	0.376692
	C153	C	0.121233	0.676264	0.618391
	C154	C	0.892983	0.319128	0.622305
	C155	C	0.119468	0.319784	0.375948
	C156	C	0.894089	0.374564	0.681816
	C157	C	0.120775	0.619897	0.677352
	C158	C	0.892647	0.622836	0.318496
	C159	C	0.119384	0.377807	0.318271
	C160	C	0.380232	0.681335	0.890862
	C161	C	0.625571	0.678440	0.113168
	C162	C	0.627337	0.317595	0.889210
	C163	C	0.377455	0.317190	0.111427
	C164	C	0.684441	0.885132	0.381072
	C165	C	0.684907	0.109502	0.624368
	C166	C	0.323821	0.886374	0.625432
	C167	C	0.326897	0.110285	0.382949
	C168	C	0.880294	0.387835	0.181749
	C169	C	0.128507	0.610513	0.177272
	C170	C	0.131866	0.386422	0.817042
	C171	C	0.884748	0.610537	0.819695
	C172	C	0.187356	0.877940	0.389427
	C173	C	0.182472	0.118773	0.614426
	C174	C	0.825155	0.120613	0.389738
	C175	C	0.826703	0.876150	0.613001
	C176	C	0.389120	0.177756	0.881828
	C177	C	0.616758	0.178393	0.123894
	C178	C	0.388853	0.818822	0.126608
	C179	C	0.617048	0.820282	0.882738
	C180	C	0.389654	0.875521	0.184795
	C181	C	0.617413	0.119947	0.180937
	C182	C	0.389696	0.121326	0.823054
	C183	C	0.616129	0.875137	0.822596
	C184	C	0.882701	0.178877	0.389421
	C185	C	0.128170	0.179788	0.612120
	C186	C	0.131233	0.818753	0.388907
	C187	C	0.882868	0.816300	0.611563
	C188	C	0.186935	0.386167	0.875983
	C189	C	0.182443	0.612009	0.116075
	C190	C	0.823698	0.387323	0.123266
	C191	C	0.828024	0.611828	0.879384
	C192	C	0.407093	0.090939	0.601446
	C193	C	0.601179	0.905090	0.600729
	C194	C	0.601464	0.090079	0.404211
	C195	C	0.410312	0.905405	0.407063
	C196	C	0.600129	0.401031	0.092244
	C197	C	0.600976	0.597958	0.909354
	C198	C	0.405136	0.595693	0.093676
	C199	C	0.409071	0.399733	0.907981
	C200	C	0.098946	0.594641	0.399922
	C201	C	0.914185	0.593444	0.596028
	C202	C	0.100027	0.401841	0.595101
	C203	C	0.912280	0.402121	0.402753
	C204	C	0.908557	0.591403	0.096849
	C205	C	0.099769	0.406688	0.095259
	C206	C	0.104120	0.591433	0.897976
	C207	C	0.909299	0.405937	0.902726
	C208	C	0.101238	0.898384	0.593322
	C209	C	0.103973	0.095425	0.409576
	C210	C	0.908663	0.095581	0.592646
	C211	C	0.908534	0.900117	0.407800
	C212	C	0.595797	0.093856	0.905284
	C213	C	0.410424	0.094336	0.100556
	C214	C	0.596205	0.900507	0.100014
	C215	C	0.409817	0.903260	0.907686
	Zn216	Zn	0.502873	-0.002395	0.753088
	Zn217	Zn	0.503653	-0.002277	0.252856
	Zn218	Zn	0.754818	0.499062	-0.000100
	Zn219	Zn	0.254661	0.498431	-0.002185
	Zn220	Zn	0.006742	0.747033	0.498876
	Zn221	Zn	0.005947	0.249307	0.499470
	Zn222	Zn	0.007456	0.497676	0.748922
	Zn223	Zn	0.005090	0.499362	0.248669
	Zn224	Zn	0.502133	0.748834	0.002966
	Zn225	Zn	0.503379	0.247216	0.002092
	Zn226	Zn	0.754894	-0.001700	0.501792
	Zn227	Zn	0.255743	-0.001699	0.503104
	N228	N	0.413924	0.963163	0.685254
	N229	N	0.591790	0.033030	0.683375
	N230	N	0.593340	0.962378	0.320865
	N231	N	0.415723	0.032430	0.322252
	N232	N	0.682704	0.413594	0.963402
	N233	N	0.684389	0.586780	0.036016
	N234	N	0.328720	0.582020	0.962804
	N235	N	0.324980	0.412869	0.035890
	N236	N	0.969396	0.678045	0.411913
	N237	N	0.044700	0.674691	0.582570
	N238	N	0.969390	0.320399	0.585332
	N239	N	0.042500	0.319474	0.411962
	N240	N	0.971274	0.409928	0.680897
	N241	N	0.043936	0.584121	0.677800
	N242	N	0.969323	0.586516	0.318275
	N243	N	0.042223	0.413146	0.319155
	N244	N	0.412956	0.681995	0.967664
	N245	N	0.588886	0.677971	0.038217
	N246	N	0.591643	0.317035	0.965231
	N247	N	0.414449	0.316659	0.035811
	N248	N	0.683201	0.960802	0.417052
	N249	N	0.683689	0.033895	0.588441
	N250	N	0.325630	0.962108	0.589338
	N251	N	0.329273	0.034687	0.419701
	N252	N	0.916048	0.463941	0.181089
	N253	N	0.093237	0.534275	0.178533
	N254	N	0.096299	0.462739	0.816426
	N255	N	0.919568	0.534010	0.819243
	N256	N	0.185372	0.912552	0.465446
	N257	N	0.181938	0.081964	0.539474
	N258	N	0.825601	0.084960	0.465436
	N259	N	0.827097	0.912193	0.537325
	N260	N	0.465800	0.176457	0.917387
	N261	N	0.539787	0.178080	0.089412
	N262	N	0.465609	0.819097	0.090125
	N263	N	0.540227	0.821725	0.919220
	N264	N	0.466992	0.910211	0.184216
	N265	N	0.540592	0.083903	0.181419
	N266	N	0.466656	0.085776	0.822395
	N267	N	0.538838	0.910224	0.822493
	N268	N	0.918387	0.178769	0.464942
	N269	N	0.094598	0.180383	0.535773
	N270	N	0.094585	0.817569	0.464503
	N271	N	0.917641	0.815876	0.535023
	N272	N	0.185140	0.462042	0.911298
	N273	N	0.180206	0.536343	0.079858
	N274	N	0.825051	0.462943	0.086833
	N275	N	0.828063	0.535805	0.915105
	O276	O	0.649673	0.640855	0.532762
	H277	H	0.669384	0.654252	0.544386
	H278	H	0.653275	0.636581	0.541895
	O279	O	0.514567	0.505688	0.314873
	H280	H	0.516917	0.506182	0.312075
	H281	H	0.519508	0.492194	0.318097
	O282	O	0.468454	0.401636	0.511604
	H283	H	0.470743	0.393819	0.495394
	H284	H	0.462224	0.402918	0.501064
	O285	O	0.893425	0.091535	-0.187601
	H286	H	0.879003	0.093426	-0.185465
	H287	H	0.888960	0.081975	-0.193640
	O288	O	-0.130472	0.158413	0.887356
	H289	H	-0.124804	0.159585	0.894852
	H290	H	-0.138033	0.145527	0.880894
	O291	O	0.606892	0.649277	0.537823
	H292	H	0.614373	0.648618	0.556793
	H293	H	0.615369	0.656961	0.541036
	O294	O	0.580088	0.370425	0.493856
	H295	H	0.560318	0.363342	0.507210
	H296	H	0.563059	0.378282	0.477415
	O297	O	1.072284	0.862488	0.953411
	H298	H	1.085637	0.861006	0.953188
	H299	H	1.069101	0.860487	0.972371
	O300	O	-0.179079	0.028236	0.055793
	H301	H	-0.186973	0.054026	0.048574
	H302	H	-0.177372	0.011613	0.034187
	O303	O	0.399424	0.579013	0.596898
	H304	H	0.395608	0.581608	0.579889
	H305	H	0.393423	0.595116	0.600542
	O306	O	1.067918	-0.014076	0.096675
	H307	H	1.070344	-0.017390	0.107576
	H308	H	1.066140	-0.003022	0.083523
	O309	O	0.339261	0.394875	0.410631
	H310	H	0.339026	0.403029	0.417072
	H311	H	0.344446	0.397127	0.406907
	O312	O	1.035274	0.951511	-0.077795
	H313	H	1.033156	0.965409	-0.081025
	H314	H	1.035690	0.953312	-0.075626
	O315	O	0.506251	0.494053	0.682939
	H316	H	0.498110	0.482213	0.691004
	H317	H	0.492439	0.505671	0.683159
	O318	O	0.366794	0.687693	0.416697
	H319	H	0.367145	0.688396	0.401918
	H320	H	0.357722	0.689587	0.409735
	O321	O	1.086787	0.084791	0.955838
	H322	H	1.091650	0.078416	0.950140
	H323	H	1.092081	0.081202	0.953408
	O324	O	-0.164665	-0.057159	1.142633
	H325	H	-0.175176	-0.052425	1.145994
	H326	H	-0.157740	-0.046817	1.139841
	O327	O	0.320911	0.700336	0.664637
	H328	H	0.321793	0.722007	0.663428
	H329	H	0.338055	0.702725	0.683233
	O330	O	0.608225	0.603150	0.698312
	H331	H	0.626288	0.599266	0.696315
	H332	H	0.614174	0.625641	0.714725
	O333	O	0.887697	0.933430	0.952527
	H334	H	0.890302	0.941755	0.954801
	H335	H	0.891776	0.935854	0.956923
	O336	O	0.645231	0.314803	0.316147
	H337	H	0.670991	0.344544	0.312991
	H338	H	0.653637	0.306618	0.339931
	O339	O	0.694218	0.478482	0.523156
	H340	H	0.682258	0.477273	0.514895
	H341	H	0.696594	0.472463	0.527662
	O342	O	-0.074354	0.968923	0.832532
	H343	H	-0.056260	0.973391	0.827272
	H344	H	-0.073541	0.973262	0.847977
	O345	O	0.045218	1.037224	1.092543
	H346	H	0.046366	1.038622	1.099127
	H347	H	0.047077	1.042202	1.087596
	O348	O	0.538814	0.634485	0.307528
	H349	H	0.532040	0.649511	0.315541
	H350	H	0.531619	0.629500	0.324217
	O351	O	0.064983	-0.155393	0.152425
	H352	H	0.043786	-0.173631	0.168521
	H353	H	0.048650	-0.144027	0.150874
	O354	O	0.708351	0.689470	-0.306886
	H355	H	0.711759	0.697673	-0.295950
	H356	H	0.718174	0.674238	-0.312441
	O357	O	-0.097408	0.956216	0.022169
	H358	H	-0.107674	0.965081	0.024351
	H359	H	-0.084353	0.975759	0.029487
	O360	O	0.538809	0.335764	0.678175
	H361	H	0.519861	0.321201	0.703809
	H362	H	0.516581	0.340412	0.662402
	O363	O	0.331769	0.555959	0.330357
	H364	H	0.344131	0.551432	0.311991
	H365	H	0.338028	0.559318	0.336493
	O366	O	0.519072	0.327680	0.356310
	H367	H	0.549236	0.336167	0.360930
	H368	H	0.516210	0.303741	0.331723
	O369	O	0.707903	0.440724	0.297596
	H370	H	0.703049	0.466448	0.287050
	H371	H	0.715691	0.442304	0.294915
	O372	O	0.655275	0.461533	0.619824
	H373	H	0.662193	0.457271	0.616127
	H374	H	0.649002	0.451848	0.633360
	O375	O	0.407952	0.330821	0.660873
	H376	H	0.399207	0.343011	0.655701
	H377	H	0.398013	0.344789	0.653010
	O378	O	0.359174	0.485355	0.618014
	H379	H	0.355130	0.497077	0.625159
	H380	H	0.361554	0.501312	0.615870
	O381	O	0.483588	0.617290	0.499475
	H382	H	0.476939	0.617547	0.490451
	H383	H	0.502354	0.609721	0.490550
	O384	O	-0.019829	1.139916	1.140090
	H385	H	-0.027459	1.153342	1.141936
	H386	H	0.001962	1.135484	1.155240
	O387	O	0.922349	0.801708	0.176155
	H388	H	0.898957	0.816470	0.180125
	H389	H	0.898683	0.786782	0.174497
	O390	O	0.606007	0.312812	0.435323
	H391	H	0.605131	0.315868	0.448367
	H392	H	0.611868	0.289524	0.437826
	O393	O	1.039926	0.125468	0.821786
	H394	H	1.035979	0.133759	0.838527
	H395	H	1.040108	0.143069	0.800127
	O396	O	-0.103917	1.165083	0.976218
	H397	H	-0.106051	1.162494	0.955240
	H398	H	-0.119255	1.177833	0.977026
	O399	O	0.426817	0.440184	0.571430
	H400	H	0.437130	0.447456	0.570387
	H401	H	0.416616	0.436234	0.569721
	O402	O	1.056103	0.170304	1.066817
	H403	H	1.066015	0.166960	1.071563
	H404	H	1.070136	0.171223	1.082740
	O405	O	-0.157836	-0.050181	-0.009931
	H406	H	-0.147724	-0.056904	-0.010779
	H407	H	-0.164389	-0.049314	-0.017302
	O408	O	1.084054	0.904900	0.909169
	H409	H	1.086551	0.923431	0.913246
	H410	H	1.081941	0.902681	0.919579
	O411	O	1.052479	1.043484	0.094713
	H412	H	1.060427	1.037707	0.098882
	H413	H	1.049557	1.067018	0.096661
	O414	O	0.075235	0.043954	1.179816
	H415	H	0.089765	0.037551	1.184388
	H416	H	0.074953	0.045708	1.189131
	O417	O	0.385037	0.459003	0.420310
	H418	H	0.403947	0.467268	0.428037
	H419	H	0.384220	0.467076	0.423630
	O420	O	0.143550	0.833410	-0.099863
	H421	H	0.151833	0.813396	-0.113104
	H422	H	0.161855	0.853851	-0.098911
	O423	O	1.168104	0.067806	0.002925
	H424	H	1.162822	0.079833	0.012711
	H425	H	1.169027	0.056079	0.011694
	O426	O	0.044690	-0.024382	0.883070
	H427	H	0.050183	-0.032516	0.878651
	H428	H	0.048281	-0.014486	0.889461
	O429	O	0.441421	0.658764	0.405041
	H430	H	0.433058	0.662418	0.403249
	H431	H	0.440905	0.656918	0.415406
