data_Molecule from HDF5

_cell_length_a		16.444432
_cell_length_b		16.555968
_cell_length_c		16.583509
_cell_angle_alpha	89.916255
_cell_angle_beta	89.945272
_cell_angle_gamma	90.021681
_symmetry_space_group_name_H-M	'P 1'
_symmetry_Int_Tables_number		1

loop_
	_symmetry_equiv_pos_as_xyz
	x,y,z

loop_
	_atom_site_label
	_atom_site_type_symbol
	_atom_site_fract_x
	_atom_site_fract_y
	_atom_site_fract_z
	H0	H	0.404690	0.866290	0.729530
	H1	H	0.616036	0.179626	0.728483
	H2	H	0.615640	0.866704	0.286372
	H3	H	0.406981	0.178955	0.287058
	H4	H	0.735384	0.414375	0.851187
	H5	H	0.726623	0.622356	0.165143
	H6	H	0.286170	0.630509	0.850970
	H7	H	0.294518	0.422998	0.165744
	H8	H	0.851579	0.739882	0.405232
	H9	H	0.166785	0.744497	0.614598
	H10	H	0.853883	0.300108	0.613648
	H11	H	0.170058	0.303201	0.405015
	H12	H	0.854721	0.413142	0.731347
	H13	H	0.166683	0.629288	0.731155
	H14	H	0.851847	0.624355	0.289316
	H15	H	0.168544	0.417535	0.286829
	H16	H	0.403493	0.746365	0.850265
	H17	H	0.611710	0.741369	0.163776
	H18	H	0.619032	0.297586	0.851011
	H19	H	0.406303	0.302118	0.162691
	H20	H	0.730750	0.865705	0.405131
	H21	H	0.732504	0.179491	0.612285
	H22	H	0.288891	0.866004	0.611792
	H23	H	0.292102	0.180125	0.405544
	H24	H	0.907977	0.363619	0.226833
	H25	H	0.114200	0.679451	0.227500
	H26	H	0.119793	0.364787	0.785035
	H27	H	0.902606	0.675608	0.782868
	H28	H	0.230010	0.918320	0.350212
	H29	H	0.231855	0.126483	0.665623
	H30	H	0.792097	0.124943	0.350589
	H31	H	0.786902	0.915126	0.663467
	H32	H	0.351280	0.245128	0.898862
	H33	H	0.666955	0.242979	0.109811
	H34	H	0.352347	0.801886	0.111897
	H35	H	0.669176	0.803965	0.903929
	H36	H	0.351863	0.918584	0.226788
	H37	H	0.665818	0.130562	0.228956
	H38	H	0.351342	0.128296	0.784424
	H39	H	0.667857	0.918161	0.785806
	H40	H	0.908233	0.242757	0.351194
	H41	H	0.120555	0.246615	0.663875
	H42	H	0.116061	0.799983	0.351369
	H43	H	0.900028	0.794912	0.661681
	H44	H	0.234488	0.365461	0.901841
	H45	H	0.229754	0.680443	0.109900
	H46	H	0.791242	0.363371	0.109844
	H47	H	0.790764	0.678167	0.902986
	H48	H	0.427597	0.135169	0.602031
	H49	H	0.595301	0.912016	0.595502
	H50	H	0.595434	0.133045	0.420410
	H51	H	0.419366	0.907572	0.414510
	H52	H	0.597575	0.431518	0.118002
	H53	H	0.601432	0.608208	0.894994
	H54	H	0.422240	0.607771	0.116078
	H55	H	0.428012	0.441802	0.898325
	H56	H	0.123840	0.616449	0.423227
	H57	H	0.898168	0.604916	0.598925
	H58	H	0.121546	0.440185	0.597279
	H59	H	0.897037	0.427731	0.419487
	H60	H	0.125963	0.430940	0.600694
	H61	H	0.897590	0.610451	0.593356
	H62	H	0.121830	0.603431	0.417694
	H63	H	0.899075	0.434745	0.419235
	H64	H	0.425341	0.615974	0.117920
	H65	H	0.596011	0.614408	0.894463
	H66	H	0.598842	0.432322	0.118160
	H67	H	0.426055	0.426680	0.892561
	H68	H	0.604884	0.135906	0.419627
	H69	H	0.601111	0.911129	0.593877
	H70	H	0.425862	0.131094	0.589285
	H71	H	0.422812	0.909841	0.416555
	H72	H	0.923206	0.633902	0.100399
	H73	H	0.100428	0.409818	0.097726
	H74	H	0.099602	0.632744	0.921213
	H75	H	0.912127	0.408097	0.926865
	H76	H	0.101128	0.931853	0.620487
	H77	H	0.095464	0.114901	0.398005
	H78	H	0.921493	0.109173	0.620302
	H79	H	0.919602	0.932331	0.395724
	H80	H	0.620537	0.112541	0.922234
	H81	H	0.397624	0.112999	0.092843
	H82	H	0.625738	0.926778	0.097441
	H83	H	0.398154	0.937446	0.918796
	H84	H	0.620746	0.935103	0.092354
	H85	H	0.397497	0.106648	0.097066
	H86	H	0.619472	0.105520	0.918150
	H87	H	0.396272	0.933461	0.915661
	H88	H	0.924862	0.110044	0.619567
	H89	H	0.103621	0.118232	0.393251
	H90	H	0.097639	0.935989	0.617968
	H91	H	0.923557	0.934945	0.397810
	H92	H	0.096060	0.632740	0.916109
	H93	H	0.102652	0.409061	0.098650
	H94	H	0.916898	0.634690	0.096127
	H95	H	0.924413	0.405719	0.907661
	H96	H	0.415689	0.137104	0.595716
	H97	H	0.599255	0.909623	0.599802
	H98	H	0.598889	0.137391	0.412206
	H99	H	0.418700	0.909315	0.419058
	H100	H	0.598333	0.433172	0.116822
	H101	H	0.604004	0.616202	0.891560
	H102	H	0.416766	0.614086	0.119551
	H103	H	0.413274	0.436624	0.892633
	H104	H	0.127146	0.613939	0.409737
	H105	H	0.901035	0.604042	0.591898
	H106	H	0.122810	0.431949	0.590399
	H107	H	0.895728	0.431939	0.414078
	H108	H	0.917243	0.637082	0.102934
	H109	H	0.100671	0.408855	0.100261
	H110	H	0.094243	0.630571	0.921311
	H111	H	0.934293	0.415131	0.926586
	H112	H	0.095625	0.930294	0.619145
	H113	H	0.103521	0.108561	0.396534
	H114	H	0.922488	0.112197	0.620378
	H115	H	0.924122	0.930213	0.396165
	H116	H	0.622723	0.111965	0.914518
	H117	H	0.394528	0.113130	0.099543
	H118	H	0.624655	0.936131	0.103050
	H119	H	0.397741	0.932601	0.920431
	C120	C	0.389481	0.031174	0.628456
	C121	C	0.631558	1.014265	0.628878
	C122	C	0.631954	0.031685	0.385868
	C123	C	0.388824	1.013148	0.385722
	C124	C	0.631837	0.399583	0.014913
	C125	C	0.631194	0.643492	0.997958
	C126	C	0.388400	0.645186	0.014727
	C127	C	0.390079	0.402573	0.997978
	C128	C	0.018925	0.642246	0.386511
	C129	C	1.001887	0.641226	0.628561
	C130	C	0.019810	0.400837	0.628954
	C131	C	1.002320	0.400623	0.386742
	C132	C	0.888597	0.530404	0.129638
	C133	C	0.132231	0.513699	0.129699
	C134	C	0.131406	0.529087	0.886442
	C135	C	0.890426	0.512929	0.887206
	C136	C	0.131044	0.900307	0.515754
	C137	C	0.133505	0.145322	0.499623
	C138	C	0.890674	0.142766	0.516419
	C139	C	0.888521	0.899439	0.498948
	C140	C	0.517104	0.143477	0.885013
	C141	C	0.501044	0.143234	0.127715
	C142	C	0.518920	0.901182	0.128689
	C143	C	0.501783	0.901961	0.885869
	C144	C	0.386364	0.912993	0.689004
	C145	C	0.634425	0.132289	0.688766
	C146	C	0.634129	0.913536	0.326526
	C147	C	0.387990	0.132029	0.327087
	C148	C	0.694203	0.396628	0.897766
	C149	C	0.688405	0.642648	0.117186
	C150	C	0.326944	0.648115	0.897558
	C151	C	0.332482	0.402774	0.117424
	C152	C	0.899341	0.700489	0.386186
	C153	C	0.119635	0.703693	0.632439
	C154	C	0.901306	0.339873	0.631919
	C155	C	0.122068	0.342510	0.385962
	C156	C	0.901644	0.396462	0.690227
	C157	C	0.119564	0.646229	0.690317
	C158	C	0.899446	0.643148	0.328391
	C159	C	0.121533	0.399380	0.327253
	C160	C	0.385171	0.705941	0.897301
	C161	C	0.631463	0.701747	0.116707
	C162	C	0.636335	0.338399	0.897656
	C163	C	0.387962	0.342620	0.116101
	C164	C	0.691009	0.912922	0.385468
	C165	C	0.692388	0.132259	0.630943
	C166	C	0.329166	0.912847	0.630505
	C167	C	0.330887	0.132434	0.385674
	C168	C	0.888568	0.410959	0.187264
	C169	C	0.133376	0.632208	0.188194
	C170	C	0.136676	0.412087	0.825329
	C171	C	0.886032	0.629575	0.824888
	C172	C	0.190716	0.899302	0.397815
	C173	C	0.193404	0.146255	0.617800
	C174	C	0.831550	0.144099	0.397711
	C175	C	0.826989	0.896526	0.616468
	C176	C	0.398758	0.204636	0.881378
	C177	C	0.619391	0.203521	0.129116
	C178	C	0.399668	0.842253	0.129708
	C179	C	0.621160	0.842884	0.884492
	C180	C	0.399644	0.899863	0.187369
	C181	C	0.618987	0.147053	0.188045
	C182	C	0.398711	0.146530	0.824188
	C183	C	0.620541	0.899688	0.825868
	C184	C	0.889142	0.202675	0.398238
	C185	C	0.137682	0.206040	0.617012
	C186	C	0.133827	0.840347	0.398227
	C187	C	0.883556	0.837127	0.615723
	C188	C	0.193648	0.412103	0.883896
	C189	C	0.190605	0.632830	0.129537
	C190	C	0.830410	0.410943	0.129469
	C191	C	0.830228	0.630862	0.884387
	C192	C	0.415439	0.113109	0.602967
	C193	C	0.605972	0.932199	0.603639
	C194	C	0.607035	0.114114	0.410369
	C195	C	0.413075	0.930300	0.409791
	C196	C	0.605602	0.425012	0.096488
	C197	C	0.607348	0.619719	0.915237
	C198	C	0.414158	0.619938	0.096532
	C199	C	0.415204	0.427764	0.915908
	C200	C	0.102569	0.618270	0.410208
	C201	C	0.920119	0.614296	0.602240
	C202	C	0.101922	0.426847	0.603540
	C203	C	0.918941	0.424495	0.410787
	C204	C	0.912222	0.613396	0.106499
	C205	C	0.108170	0.430869	0.105663
	C206	C	0.104357	0.610813	0.912078
	C207	C	0.916345	0.431076	0.913095
	C208	C	0.105405	0.925632	0.597952
	C209	C	0.108075	0.120936	0.417377
	C210	C	0.915581	0.117790	0.598556
	C211	C	0.914865	0.925334	0.417773
	C212	C	0.599397	0.117652	0.911079
	C213	C	0.418153	0.118082	0.103200
	C214	C	0.602111	0.925596	0.104384
	C215	C	0.418968	0.927195	0.911125
	Zn216	Zn	0.509806	0.022947	0.757502
	Zn217	Zn	0.510471	0.022567	0.257021
	Zn218	Zn	0.760384	0.521770	0.007293
	Zn219	Zn	0.259958	0.522825	0.007100
	Zn220	Zn	0.010171	0.770442	0.507796
	Zn221	Zn	0.011503	0.272476	0.508639
	Zn222	Zn	0.010752	0.520619	0.757640
	Zn223	Zn	0.010553	0.521863	0.258129
	Zn224	Zn	0.510393	0.773934	0.006290
	Zn225	Zn	0.509053	0.271401	0.005929
	Zn226	Zn	0.760787	0.022437	0.507646
	Zn227	Zn	0.260372	0.022317	0.507813
	N228	N	0.422944	0.987589	0.687843
	N229	N	0.597293	0.057855	0.687683
	N230	N	0.598372	0.988405	0.326506
	N231	N	0.423083	0.056733	0.326863
	N232	N	0.691512	0.434001	0.971663
	N233	N	0.688473	0.607313	0.042364
	N234	N	0.328632	0.611069	0.971752
	N235	N	0.332926	0.438769	0.042760
	N236	N	0.974735	0.699929	0.421603
	N237	N	0.045318	0.700886	0.594734
	N238	N	0.975883	0.342433	0.594453
	N239	N	0.046987	0.343061	0.422104
	N240	N	0.976281	0.433400	0.688653
	N241	N	0.045405	0.608183	0.687999
	N242	N	0.975091	0.607759	0.328342
	N243	N	0.046014	0.434839	0.327514
	N244	N	0.422630	0.704361	0.971241
	N245	N	0.596981	0.702816	0.041347
	N246	N	0.598157	0.340125	0.971388
	N247	N	0.422759	0.342237	0.040741
	N248	N	0.689924	0.987454	0.421550
	N249	N	0.690920	0.057847	0.594585
	N250	N	0.330936	0.987259	0.593777
	N251	N	0.331114	0.057477	0.421217
	N252	N	0.923549	0.486320	0.187914
	N253	N	0.097929	0.557181	0.188539
	N254	N	0.098715	0.486039	0.826810
	N255	N	0.922492	0.555017	0.826422
	N256	N	0.189224	0.935916	0.472144
	N257	N	0.190812	0.109002	0.543821
	N258	N	0.832322	0.107730	0.472164
	N259	N	0.830136	0.934932	0.543096
	N260	N	0.473627	0.203009	0.918345
	N261	N	0.544954	0.201236	0.092141
	N262	N	0.475002	0.842933	0.093970
	N263	N	0.546144	0.844123	0.920744
	N264	N	0.475010	0.935759	0.187146
	N265	N	0.544253	0.110206	0.187297
	N266	N	0.473392	0.109513	0.826149
	N267	N	0.545019	0.935423	0.826292
	N268	N	0.925021	0.201991	0.473034
	N269	N	0.101406	0.205767	0.542356
	N270	N	0.097468	0.840905	0.472884
	N271	N	0.921021	0.838697	0.541827
	N272	N	0.190534	0.486055	0.921141
	N273	N	0.190163	0.557904	0.094053
	N274	N	0.830223	0.486132	0.094405
	N275	N	0.832525	0.557121	0.922380
	O276	O	1.279357	1.289618	0.275816
	H277	H	1.302922	1.317768	0.297945
	H278	H	1.295422	1.273264	0.287861
	O279	O	-0.203944	0.136857	1.015581
	H280	H	-0.217011	0.126620	1.015013
	H281	H	-0.195189	0.144111	1.003842
	O282	O	0.485133	0.584951	0.626332
	H283	H	0.494077	0.592592	0.629520
	H284	H	0.461894	0.567590	0.626843
	O285	O	0.016712	0.220362	0.999410
	H286	H	0.041849	0.223041	0.992096
	H287	H	0.009586	0.207520	0.993449
	O288	O	1.029323	-0.194965	0.787175
	H289	H	1.042359	-0.212489	0.783786
	H290	H	1.055994	-0.200380	0.781787
	O291	O	0.318091	0.395554	0.388681
	H292	H	0.327174	0.418461	0.384338
	H293	H	0.337043	0.414672	0.395133
	O294	O	0.220048	0.108801	0.216859
	H295	H	0.206966	0.101091	0.217861
	H296	H	0.231707	0.112160	0.227018
	O297	O	0.964358	0.033548	0.204601
	H298	H	0.962123	0.057323	0.207145
	H299	H	0.977835	0.032274	0.204908
	O300	O	0.212161	-0.180553	-0.170814
	H301	H	0.202416	-0.144233	-0.179096
	H302	H	0.242339	-0.195044	-0.199869
	O303	O	-0.168239	0.200093	0.197592
	H304	H	-0.147241	0.190037	0.180982
	H305	H	-0.153300	0.180266	0.182013
	O306	O	1.156216	0.170070	0.130857
	H307	H	1.149167	0.173949	0.139668
	H308	H	1.155347	0.170699	0.137607
	O309	O	0.724917	0.307330	0.467519
	H310	H	0.730914	0.296019	0.475928
	H311	H	0.737104	0.318610	0.484436
	O312	O	-0.230154	-0.216237	0.769210
	H313	H	-0.245362	-0.251632	0.755477
	H314	H	-0.215523	-0.208869	0.750992
	O315	O	0.500393	0.695149	0.292206
	H316	H	0.517897	0.695317	0.300793
	H317	H	0.517095	0.706673	0.277161
	O318	O	1.016270	1.186999	0.214333
	H319	H	1.028668	1.173300	0.213707
	H320	H	1.030415	1.196543	0.219412
	O321	O	0.009671	1.192044	0.854694
	H322	H	0.017777	1.205970	0.845429
	H323	H	0.014617	1.193115	0.855174
	O324	O	0.534247	0.323672	1.298689
	H325	H	0.542290	0.334642	1.304083
	H326	H	0.561869	0.301264	1.277860
	O327	O	0.642966	0.357257	0.587337
	H328	H	0.653227	0.343709	0.584061
	H329	H	0.633828	0.367397	0.591963
	O330	O	0.306979	0.711587	0.691560
	H331	H	0.318543	0.698148	0.673877
	H332	H	0.332694	0.694773	0.684903
	O333	O	0.711391	0.316554	0.300675
	H334	H	0.735113	0.284071	0.274475
	H335	H	0.718249	0.319617	0.344124
	O336	O	0.794807	0.803272	0.223707
	H337	H	0.801163	0.831589	0.213874
	H338	H	0.810830	0.803490	0.200320
	O339	O	0.497747	0.550403	0.419890
	H340	H	0.504806	0.545869	0.417033
	H341	H	0.513569	0.553348	0.420660
	O342	O	-0.545150	0.744872	-0.431929
	H343	H	-0.544722	0.745663	-0.440462
	H344	H	-0.537620	0.745598	-0.448099
	O345	O	0.541551	0.736175	0.726786
	H346	H	0.535941	0.762236	0.749222
	H347	H	0.543793	0.729438	0.713287
	O348	O	0.476346	0.509740	0.404545
	H349	H	0.469693	0.518433	0.402354
	H350	H	0.482186	0.511595	0.407555
	O351	O	-0.316280	-0.291648	1.326078
	H352	H	-0.289618	-0.280561	1.309412
	H353	H	-0.313592	-0.312697	1.327853
	O354	O	0.791527	0.156855	1.010674
	H355	H	0.793407	0.153852	1.013735
	H356	H	0.796898	0.165015	1.011187
	O357	O	0.709901	0.457060	0.707422
	H358	H	0.720289	0.462440	0.720368
	H359	H	0.708986	0.480513	0.690375
	O360	O	0.421811	0.539964	0.484971
	H361	H	0.419663	0.555928	0.469892
	H362	H	0.434595	0.545430	0.504198
	O363	O	1.026897	0.058664	-0.102344
	H364	H	1.022625	0.062450	-0.101660
	H365	H	1.030947	0.068392	-0.102935
	O366	O	0.313635	0.321063	0.628414
	H367	H	0.293177	0.307526	0.606598
	H368	H	0.304195	0.342852	0.618501
	O369	O	0.083528	0.056524	0.890441
	H370	H	0.078516	0.054936	0.892372
	H371	H	0.084971	0.053016	0.899913
	O372	O	0.102189	0.823550	1.008833
	H373	H	0.096563	0.832424	0.999430
	H374	H	0.121006	0.832385	0.989554
	O375	O	0.918715	-0.078264	0.159974
	H376	H	0.899156	-0.080503	0.179705
	H377	H	0.926388	-0.082125	0.148839
	O378	O	0.345607	0.724261	0.305796
	H379	H	0.370567	0.722204	0.300742
	H380	H	0.338119	0.746410	0.309862
	O381	O	-0.195874	1.055688	-0.204307
	H382	H	-0.192488	1.043252	-0.225114
	H383	H	-0.198521	1.060518	-0.209028
	O384	O	0.460016	0.323482	0.462737
	H385	H	0.464968	0.323781	0.454167
	H386	H	0.451466	0.321781	0.469075
	O387	O	0.537782	0.378278	0.559535
	H388	H	0.533943	0.369549	0.576294
	H389	H	0.535593	0.381230	0.558957
	O390	O	0.099119	0.997171	1.124228
	H391	H	0.082049	0.994293	1.126541
	H392	H	0.110569	0.982584	1.108991
	O393	O	1.218998	-0.011899	-0.204991
	H394	H	1.212666	0.012145	-0.195141
	H395	H	1.231003	0.002060	-0.226961
	O396	O	0.473781	0.585163	0.312212
	H397	H	0.473117	0.577883	0.302163
	H398	H	0.484664	0.579167	0.319956
	O399	O	0.729546	0.483850	0.285259
	H400	H	0.757830	0.477559	0.259988
	H401	H	0.722816	0.451801	0.285460
	O402	O	0.965375	-0.007648	0.778501
	H403	H	0.967942	-0.017488	0.785277
	H404	H	0.971371	-0.027195	0.776722
	O405	O	1.144155	0.056079	-0.113149
	H406	H	1.149082	0.052461	-0.118476
	H407	H	1.138185	0.038883	-0.101245
	O408	O	1.010952	0.921721	1.157123
	H409	H	1.016975	0.904786	1.166205
	H410	H	0.991181	0.926053	1.140323
	O411	O	0.965723	1.141240	-0.111060
	H412	H	0.951275	1.134258	-0.116843
	H413	H	0.960433	1.157431	-0.125331
	O414	O	0.074910	-0.057458	0.005274
	H415	H	0.078707	-0.055992	-0.000747
	H416	H	0.081854	-0.055394	0.034892
	O417	O	0.672188	0.475868	0.534108
	H418	H	0.670706	0.485659	0.531936
	H419	H	0.668119	0.478638	0.539431
	O420	O	0.801974	-0.074496	0.964330
	H421	H	0.810045	-0.084829	0.937037
	H422	H	0.806633	-0.071001	0.966139
	O423	O	1.073611	1.057425	0.141614
	H424	H	1.079943	1.049329	0.152164
	H425	H	1.084764	1.062135	0.147097
	O426	O	0.715230	0.643883	0.710692
	H427	H	0.705676	0.638213	0.703826
	H428	H	0.693662	0.634090	0.702786
	O429	O	0.811529	0.224702	0.807334
	H430	H	0.808703	0.207027	0.834970
	H431	H	0.822159	0.221827	0.802624
	O432	O	0.946560	0.053171	1.135532
	H433	H	0.962208	0.056447	1.151745
	H434	H	0.964802	0.055888	1.113809
	O435	O	0.331883	0.422230	0.703356
	H436	H	0.328078	0.417168	0.716346
	H437	H	0.348170	0.418973	0.696811
	O438	O	0.666516	0.571188	0.492025
	H439	H	0.667954	0.554710	0.492738
	H440	H	0.653145	0.554546	0.484409
	O441	O	0.295374	0.734945	0.477430
	H442	H	0.285684	0.732914	0.479688
	H443	H	0.286001	0.745905	0.476642
	O444	O	0.498445	0.304037	0.713236
	H445	H	0.475868	0.310579	0.701568
	H446	H	0.495636	0.279206	0.738100
	O447	O	0.110720	0.863968	0.177353
	H448	H	0.109260	0.865499	0.151336
	H449	H	0.090521	0.874275	0.182835
	O450	O	0.930499	-0.103322	-0.043917
	H451	H	0.927388	-0.109607	-0.036198
	H452	H	0.926749	-0.105505	-0.058250
	O453	O	0.715755	0.724359	0.541339
	H454	H	0.719642	0.726279	0.531716
	H455	H	0.721522	0.717437	0.524752
	O456	O	-0.633726	0.547652	0.724179
	H457	H	-0.613827	0.518179	0.724979
	H458	H	-0.641190	0.543834	0.727792
	O459	O	0.547865	0.731775	0.449154
	H460	H	0.557359	0.739717	0.432552
	H461	H	0.556062	0.717255	0.447465
	O462	O	0.580389	0.454764	0.731488
	H463	H	0.593490	0.432916	0.736249
	H464	H	0.574405	0.456597	0.732274
	O465	O	0.294853	0.465817	0.542368
	H466	H	0.296485	0.478569	0.529624
	H467	H	0.283140	0.460801	0.540347
	O468	O	-0.200471	-0.174507	0.067423
	H469	H	-0.205963	-0.163793	0.057881
	H470	H	-0.215076	-0.184320	0.065714
	O471	O	0.229718	0.244394	0.040013
	H472	H	0.225394	0.239864	0.080160
	H473	H	0.258025	0.269871	0.051664
	O474	O	1.203647	0.849520	0.034531
	H475	H	1.197654	0.838125	0.012289
	H476	H	1.215257	0.845382	0.014340
	O477	O	0.286884	0.529248	0.325042
	H478	H	0.264704	0.545850	0.311556
	H479	H	0.291419	0.565755	0.317383
