data_Molecule from HDF5

_cell_length_a		16.235980
_cell_length_b		16.178241
_cell_length_c		16.351704
_cell_angle_alpha	90.070120
_cell_angle_beta	89.896841
_cell_angle_gamma	89.848581
_symmetry_space_group_name_H-M	'P 1'
_symmetry_Int_Tables_number		1

loop_
	_symmetry_equiv_pos_as_xyz
	x,y,z

loop_
	_atom_site_label
	_atom_site_type_symbol
	_atom_site_fract_x
	_atom_site_fract_y
	_atom_site_fract_z
	H0	H	0.393914	0.832161	0.718488
	H1	H	0.591052	0.160652	0.719325
	H2	H	0.592361	0.832641	0.289424
	H3	H	0.392374	0.161125	0.289917
	H4	H	0.708928	0.396394	0.841051
	H5	H	0.707383	0.594558	0.167289
	H6	H	0.278624	0.595087	0.841587
	H7	H	0.278833	0.398501	0.167945
	H8	H	0.827531	0.709006	0.409023
	H9	H	0.156846	0.710046	0.600191
	H10	H	0.827521	0.285644	0.601925
	H11	H	0.157167	0.283635	0.406915
	H12	H	0.829715	0.396985	0.720857
	H13	H	0.156373	0.597203	0.719100
	H14	H	0.829285	0.598199	0.289299
	H15	H	0.157105	0.397544	0.290132
	H16	H	0.395795	0.710230	0.841316
	H17	H	0.590638	0.710313	0.167944
	H18	H	0.591128	0.281263	0.841273
	H19	H	0.396921	0.283819	0.169009
	H20	H	0.705779	0.832372	0.406283
	H21	H	0.703240	0.162006	0.600715
	H22	H	0.280381	0.831545	0.600017
	H23	H	0.279265	0.162364	0.407603
	H24	H	0.895165	0.332699	0.219641
	H25	H	0.091890	0.661887	0.217693
	H26	H	0.093994	0.333370	0.788864
	H27	H	0.893902	0.660812	0.790371
	H28	H	0.208192	0.897873	0.341605
	H29	H	0.206683	0.096547	0.667155
	H30	H	0.776943	0.094718	0.340870
	H31	H	0.777265	0.898561	0.667423
	H32	H	0.328489	0.210549	0.908451
	H33	H	0.658208	0.207365	0.100265
	H34	H	0.328636	0.783798	0.101312
	H35	H	0.658040	0.784252	0.907695
	H36	H	0.329522	0.897336	0.219065
	H37	H	0.656307	0.095310	0.219410
	H38	H	0.328394	0.095868	0.791515
	H39	H	0.656075	0.896171	0.788487
	H40	H	0.894405	0.211359	0.340618
	H41	H	0.089581	0.211726	0.667685
	H42	H	0.090217	0.782841	0.340714
	H43	H	0.894572	0.783436	0.667809
	H44	H	0.206637	0.332262	0.906752
	H45	H	0.204848	0.661991	0.100377
	H46	H	0.782229	0.330825	0.100548
	H47	H	0.780682	0.661044	0.908055
	H48	H	0.403045	0.113926	0.602808
	H49	H	0.579076	0.881324	0.594853
	H50	H	0.588055	0.115923	0.410700
	H51	H	0.395197	0.877465	0.409680
	H52	H	0.593071	0.400590	0.122886
	H53	H	0.585944	0.594803	0.887037
	H54	H	0.390873	0.583725	0.121196
	H55	H	0.403596	0.408460	0.891051
	H56	H	0.104507	0.579263	0.417556
	H57	H	0.880223	0.585631	0.588315
	H58	H	0.111997	0.408142	0.609261
	H59	H	0.877211	0.406925	0.414806
	H60	H	0.111392	0.392759	0.593549
	H61	H	0.874823	0.582035	0.608516
	H62	H	0.114155	0.587652	0.395320
	H63	H	0.875907	0.409133	0.407610
	H64	H	0.408288	0.587060	0.117702
	H65	H	0.592079	0.587544	0.886862
	H66	H	0.588248	0.406583	0.119762
	H67	H	0.404235	0.397088	0.888236
	H68	H	0.580487	0.114699	0.407204
	H69	H	0.590124	0.878027	0.593859
	H70	H	0.400285	0.113021	0.593687
	H71	H	0.403895	0.879361	0.406133
	H72	H	0.896976	0.615641	0.101950
	H73	H	0.091906	0.377601	0.097345
	H74	H	0.086871	0.614661	0.913592
	H75	H	0.911868	0.380713	0.908386
	H76	H	0.091586	0.900667	0.624267
	H77	H	0.080938	0.091080	0.389706
	H78	H	0.896810	0.099599	0.623196
	H79	H	0.903918	0.904660	0.389540
	H80	H	0.611048	0.093763	0.912328
	H81	H	0.374028	0.097545	0.096032
	H82	H	0.607031	0.912946	0.097689
	H83	H	0.373853	0.899524	0.910516
	H84	H	0.613989	0.900339	0.106047
	H85	H	0.378968	0.084369	0.093088
	H86	H	0.607788	0.083902	0.913460
	H87	H	0.376775	0.904978	0.914784
	H88	H	0.890641	0.085542	0.620487
	H89	H	0.088171	0.094624	0.386177
	H90	H	0.086380	0.911814	0.618882
	H91	H	0.896172	0.897859	0.385717
	H92	H	0.087138	0.615963	0.908959
	H93	H	0.083990	0.378738	0.103313
	H94	H	0.904846	0.613426	0.099178
	H95	H	0.899637	0.381050	0.920839
	H96	H	0.393375	0.117103	0.599915
	H97	H	0.584699	0.877398	0.603777
	H98	H	0.581606	0.112847	0.415481
	H99	H	0.401277	0.881560	0.415486
	H100	H	0.585329	0.398367	0.120879
	H101	H	0.583822	0.586347	0.889723
	H102	H	0.397716	0.600179	0.124519
	H103	H	0.393684	0.402608	0.886292
	H104	H	0.112699	0.603914	0.415596
	H105	H	0.872495	0.601380	0.600212
	H106	H	0.104653	0.413243	0.588278
	H107	H	0.874247	0.402277	0.410066
	H108	H	0.898154	0.613480	0.093666
	H109	H	0.082941	0.381605	0.093694
	H110	H	0.082818	0.613888	0.910047
	H111	H	0.896192	0.375069	0.904675
	H112	H	0.079506	0.899965	0.619444
	H113	H	0.088726	0.086239	0.388037
	H114	H	0.905159	0.088222	0.617473
	H115	H	0.893979	0.908527	0.387743
	H116	H	0.611161	0.087051	0.904262
	H117	H	0.373615	0.087338	0.106131
	H118	H	0.610406	0.898025	0.090059
	H119	H	0.375553	0.905955	0.906928
	C120	C	0.370665	0.005654	0.626492
	C121	C	0.612803	0.987729	0.625710
	C122	C	0.612928	0.005390	0.382895
	C123	C	0.370810	0.988708	0.382790
	C124	C	0.616637	0.373293	0.013132
	C125	C	0.615199	0.617830	0.996017
	C126	C	0.371212	0.618668	0.013017
	C127	C	0.372053	0.374746	0.996591
	C128	C	0.001516	0.618878	0.382208
	C129	C	0.984086	0.618428	0.626557
	C130	C	0.001111	0.376196	0.626019
	C131	C	0.984575	0.376847	0.382940
	C132	C	0.871971	0.505160	0.126199
	C133	C	0.114405	0.488342	0.126017
	C134	C	0.114524	0.505946	0.882715
	C135	C	0.873015	0.487731	0.883228
	C136	C	0.114389	0.875325	0.512946
	C137	C	0.113740	0.118965	0.495834
	C138	C	0.869459	0.119322	0.512563
	C139	C	0.870147	0.875563	0.495957
	C140	C	0.501271	0.117427	0.883058
	C141	C	0.484207	0.117812	0.126402
	C142	C	0.501830	0.875361	0.125738
	C143	C	0.484285	0.875158	0.882756
	C144	C	0.373244	0.881358	0.680758
	C145	C	0.610740	0.111681	0.681067
	C146	C	0.612138	0.881784	0.327351
	C147	C	0.372313	0.112075	0.327801
	C148	C	0.671012	0.375719	0.889882
	C149	C	0.669585	0.615025	0.118624
	C150	C	0.316538	0.615668	0.890178
	C151	C	0.316612	0.378012	0.119363
	C152	C	0.877224	0.672794	0.386903
	C153	C	0.107954	0.672563	0.621839
	C154	C	0.877018	0.322351	0.622865
	C155	C	0.107989	0.321333	0.386164
	C156	C	0.878061	0.377774	0.681983
	C157	C	0.107687	0.616550	0.680867
	C158	C	0.877994	0.617248	0.327662
	C159	C	0.108032	0.377986	0.328078
	C160	C	0.374813	0.672945	0.890054
	C161	C	0.611589	0.672532	0.118923
	C162	C	0.612760	0.318375	0.890053
	C163	C	0.375462	0.321132	0.120135
	C164	C	0.668640	0.881634	0.385283
	C165	C	0.666573	0.112421	0.622435
	C166	C	0.316796	0.881089	0.622292
	C167	C	0.316307	0.112723	0.386561
	C168	C	0.874911	0.381038	0.180793
	C169	C	0.111840	0.612646	0.180214
	C170	C	0.113597	0.382272	0.827073
	C171	C	0.874320	0.611770	0.828673
	C172	C	0.169521	0.877609	0.389911
	C173	C	0.168676	0.116746	0.618697
	C174	C	0.814726	0.116016	0.389622
	C175	C	0.815514	0.878466	0.618845
	C176	C	0.377434	0.172567	0.887291
	C177	C	0.608735	0.171062	0.122312
	C178	C	0.377898	0.820881	0.122298
	C179	C	0.608550	0.820654	0.886163
	C180	C	0.378073	0.877502	0.180577
	C181	C	0.607755	0.115457	0.181227
	C182	C	0.377652	0.116150	0.828922
	C183	C	0.607474	0.876439	0.827103
	C184	C	0.872732	0.174125	0.389650
	C185	C	0.110449	0.174196	0.618850
	C186	C	0.111377	0.820294	0.389703
	C187	C	0.873780	0.821063	0.619058
	C188	C	0.169593	0.381620	0.885617
	C189	C	0.167802	0.612882	0.121627
	C190	C	0.818877	0.380427	0.121964
	C191	C	0.817813	0.611667	0.886750
	C192	C	0.392577	0.092300	0.605150
	C193	C	0.591053	0.901256	0.603861
	C194	C	0.590066	0.092178	0.404802
	C195	C	0.393444	0.901707	0.404314
	C196	C	0.595262	0.395362	0.099025
	C197	C	0.593719	0.595834	0.909942
	C198	C	0.392697	0.596778	0.099083
	C199	C	0.393911	0.396280	0.910779
	C200	C	0.088195	0.596974	0.403249
	C201	C	0.897930	0.596257	0.605352
	C202	C	0.087191	0.398233	0.603684
	C203	C	0.898257	0.399511	0.404408
	C204	C	0.893562	0.591687	0.104783
	C205	C	0.092690	0.401694	0.104548
	C206	C	0.092275	0.592454	0.904548
	C207	C	0.895881	0.401406	0.904791
	C208	C	0.092289	0.897449	0.598674
	C209	C	0.092230	0.097007	0.410088
	C210	C	0.890963	0.097505	0.598207
	C211	C	0.891657	0.897254	0.409958
	C212	C	0.587673	0.094968	0.903968
	C213	C	0.397922	0.095991	0.104877
	C214	C	0.588158	0.897221	0.104254
	C215	C	0.397687	0.896978	0.904335
	Zn216	Zn	0.492241	-0.003607	0.754251
	Zn217	Zn	0.492623	-0.003262	0.254460
	Zn218	Zn	0.744562	0.495983	0.004193
	Zn219	Zn	0.242598	0.496952	0.004332
	Zn220	Zn	-0.007639	0.746564	0.504274
	Zn221	Zn	-0.007914	0.248227	0.504268
	Zn222	Zn	-0.006539	0.497100	0.754680
	Zn223	Zn	-0.006873	0.497612	0.254184
	Zn224	Zn	0.493333	0.746779	0.004264
	Zn225	Zn	0.493305	0.245410	0.005238
	Zn226	Zn	0.740493	-0.003180	0.504307
	Zn227	Zn	0.242869	-0.002914	0.504398
	N228	N	0.405925	0.959657	0.683460
	N229	N	0.578109	0.033283	0.683158
	N230	N	0.578339	0.959985	0.325702
	N231	N	0.405774	0.033789	0.325470
	N232	N	0.673290	0.409385	0.967185
	N233	N	0.671866	0.581656	0.041191
	N234	N	0.314332	0.582666	0.967720
	N235	N	0.314516	0.410680	0.041557
	N236	N	0.955021	0.673935	0.420127
	N237	N	0.030348	0.673572	0.588450
	N238	N	0.954460	0.321208	0.588602
	N239	N	0.030311	0.320478	0.419620
	N240	N	0.956198	0.410533	0.683978
	N241	N	0.029625	0.583530	0.683906
	N242	N	0.956398	0.584511	0.324710
	N243	N	0.030127	0.411802	0.325907
	N244	N	0.408024	0.674806	0.967505
	N245	N	0.578549	0.674393	0.041414
	N246	N	0.579314	0.316966	0.967508
	N247	N	0.409194	0.319024	0.042950
	N248	N	0.669038	0.959469	0.419159
	N249	N	0.668305	0.034393	0.588902
	N250	N	0.315113	0.959294	0.589166
	N251	N	0.315632	0.034738	0.420193
	N252	N	0.907140	0.459526	0.183527
	N253	N	0.079324	0.534206	0.182899
	N254	N	0.080073	0.460491	0.825186
	N255	N	0.907991	0.533648	0.826446
	N256	N	0.171360	0.911074	0.467383
	N257	N	0.170789	0.083167	0.541372
	N258	N	0.812589	0.082806	0.467046
	N259	N	0.813110	0.911369	0.541236
	N260	N	0.455271	0.173442	0.920437
	N261	N	0.531035	0.172541	0.088805
	N262	N	0.455797	0.819461	0.088893
	N263	N	0.530971	0.819852	0.920218
	N264	N	0.456036	0.910497	0.182983
	N265	N	0.529393	0.083098	0.183811
	N266	N	0.455616	0.082434	0.826247
	N267	N	0.529220	0.909364	0.824834
	N268	N	0.905813	0.176666	0.467147
	N269	N	0.076850	0.175590	0.541632
	N270	N	0.077759	0.818773	0.467160
	N271	N	0.906807	0.818878	0.541555
	N272	N	0.170349	0.459443	0.919557
	N273	N	0.169586	0.534818	0.088528
	N274	N	0.817064	0.458538	0.088608
	N275	N	0.816956	0.533607	0.920002
	O276	O	1.537858	0.487025	0.495356
	H277	H	1.537032	0.486609	0.496963
	H278	H	1.541905	0.484140	0.497641
	O279	O	0.531586	0.478212	0.506669
	H280	H	0.528367	0.479922	0.506547
	H281	H	0.537098	0.480256	0.506439
	O282	O	1.008040	0.965468	-0.020688
	H283	H	1.011486	0.966791	-0.022179
	H284	H	1.005524	0.965773	-0.023794
	O285	O	0.525023	0.501373	0.494985
	H286	H	0.527723	0.504332	0.493868
	H287	H	0.526785	0.501793	0.497872
