data_Molecule from HDF5

_cell_length_a		16.460770
_cell_length_b		16.303794
_cell_length_c		16.237109
_cell_angle_alpha	90.120030
_cell_angle_beta	90.085084
_cell_angle_gamma	89.698610
_symmetry_space_group_name_H-M	'P 1'
_symmetry_Int_Tables_number		1

loop_
	_symmetry_equiv_pos_as_xyz
	x,y,z

loop_
	_atom_site_label
	_atom_site_type_symbol
	_atom_site_fract_x
	_atom_site_fract_y
	_atom_site_fract_z
	H0	H	0.411461	0.837949	0.708094
	H1	H	0.608873	0.162433	0.712101
	H2	H	0.609752	0.840805	0.275059
	H3	H	0.401912	0.161541	0.276811
	H4	H	0.726505	0.397618	0.834239
	H5	H	0.724524	0.610663	0.154661
	H6	H	0.284747	0.608308	0.832249
	H7	H	0.286530	0.400822	0.155189
	H8	H	0.848301	0.721995	0.393709
	H9	H	0.167971	0.717577	0.598752
	H10	H	0.848773	0.278572	0.601371
	H11	H	0.166956	0.279984	0.390296
	H12	H	0.846783	0.397894	0.715033
	H13	H	0.166611	0.601155	0.714763
	H14	H	0.846096	0.605269	0.278106
	H15	H	0.165083	0.395575	0.272627
	H16	H	0.403663	0.720286	0.830484
	H17	H	0.605282	0.721189	0.155473
	H18	H	0.608775	0.283666	0.832653
	H19	H	0.400474	0.283507	0.154876
	H20	H	0.728151	0.840771	0.389365
	H21	H	0.729390	0.160736	0.602559
	H22	H	0.291903	0.838584	0.597362
	H23	H	0.282616	0.158092	0.386960
	H24	H	0.902362	0.341758	0.213675
	H25	H	0.107658	0.663591	0.214467
	H26	H	0.108512	0.339736	0.777950
	H27	H	0.903296	0.662996	0.776715
	H28	H	0.228371	0.891708	0.333552
	H29	H	0.227560	0.102552	0.655679
	H30	H	0.782225	0.110209	0.336754
	H31	H	0.787943	0.894913	0.655597
	H32	H	0.346157	0.222827	0.888531
	H33	H	0.664258	0.223699	0.099476
	H34	H	0.346099	0.784763	0.096256
	H35	H	0.664974	0.778994	0.887079
	H36	H	0.347381	0.898872	0.214760
	H37	H	0.664789	0.108878	0.216912
	H38	H	0.345726	0.102561	0.775106
	H39	H	0.667327	0.898259	0.776075
	H40	H	0.900233	0.222690	0.334612
	H41	H	0.112543	0.219728	0.655369
	H42	H	0.109999	0.780304	0.333447
	H43	H	0.908583	0.785449	0.658630
	H44	H	0.228695	0.343473	0.887072
	H45	H	0.223259	0.663729	0.098910
	H46	H	0.783543	0.344076	0.101190
	H47	H	0.783835	0.662940	0.888217
	H48	H	0.423945	0.112401	0.580034
	H49	H	0.599202	0.885960	0.583191
	H50	H	0.595025	0.115544	0.408503
	H51	H	0.418344	0.882398	0.394882
	H52	H	0.594847	0.415017	0.109086
	H53	H	0.600607	0.592973	0.875966
	H54	H	0.415918	0.596083	0.109192
	H55	H	0.417365	0.418655	0.880286
	H56	H	0.120319	0.584325	0.400946
	H57	H	0.893230	0.593739	0.587086
	H58	H	0.117167	0.415606	0.582018
	H59	H	0.892702	0.412402	0.401402
	H60	H	0.120832	0.411928	0.590414
	H61	H	0.893007	0.594986	0.584422
	H62	H	0.123875	0.595857	0.401045
	H63	H	0.892681	0.406982	0.406422
	H64	H	0.411493	0.595792	0.110264
	H65	H	0.595372	0.585262	0.880158
	H66	H	0.593880	0.415247	0.108744
	H67	H	0.418493	0.412025	0.879561
	H68	H	0.596472	0.114618	0.409291
	H69	H	0.601434	0.885963	0.582421
	H70	H	0.410153	0.115625	0.577002
	H71	H	0.426242	0.889165	0.408383
	H72	H	0.913269	0.616585	0.080005
	H73	H	0.091302	0.389771	0.085073
	H74	H	0.092821	0.612892	0.913152
	H75	H	0.920530	0.389689	0.906244
	H76	H	0.099196	0.903500	0.611645
	H77	H	0.092173	0.091129	0.380461
	H78	H	0.922084	0.092546	0.609150
	H79	H	0.916865	0.917139	0.381614
	H80	H	0.620402	0.095632	0.905711
	H81	H	0.393440	0.090194	0.084834
	H82	H	0.621326	0.909525	0.086234
	H83	H	0.390091	0.911328	0.893879
	H84	H	0.618290	0.911350	0.078195
	H85	H	0.390986	0.093953	0.085372
	H86	H	0.618939	0.090863	0.904641
	H87	H	0.392060	0.906876	0.905185
	H88	H	0.914959	0.088127	0.610792
	H89	H	0.100878	0.089730	0.377972
	H90	H	0.108102	0.911918	0.612376
	H91	H	0.922870	0.910188	0.381073
	H92	H	0.104356	0.620373	0.904177
	H93	H	0.096689	0.390178	0.076286
	H94	H	0.910850	0.619495	0.088230
	H95	H	0.913319	0.389539	0.912431
	H96	H	0.415083	0.118153	0.590748
	H97	H	0.600992	0.885516	0.584729
	H98	H	0.596636	0.115859	0.408064
	H99	H	0.409640	0.884288	0.408920
	H100	H	0.594728	0.414144	0.108988
	H101	H	0.590609	0.594655	0.878539
	H102	H	0.413620	0.592382	0.107510
	H103	H	0.412833	0.414709	0.878052
	H104	H	0.119537	0.590757	0.410685
	H105	H	0.893747	0.591615	0.584443
	H106	H	0.119990	0.405956	0.582479
	H107	H	0.895448	0.414020	0.407921
	H108	H	0.919303	0.616314	0.086215
	H109	H	0.100977	0.386695	0.084733
	H110	H	0.089620	0.618494	0.897258
	H111	H	0.912691	0.385615	0.903410
	H112	H	0.097316	0.915139	0.607932
	H113	H	0.095834	0.082994	0.381479
	H114	H	0.921803	0.084439	0.606906
	H115	H	0.914161	0.909087	0.378346
	H116	H	0.620850	0.093746	0.901367
	H117	H	0.393897	0.092819	0.081875
	H118	H	0.617932	0.917519	0.084665
	H119	H	0.395080	0.917733	0.902703
	C120	C	0.387374	0.008484	0.613826
	C121	C	0.630742	0.992007	0.616351
	C122	C	0.628354	0.009912	0.374574
	C123	C	0.385356	0.991119	0.372533
	C124	C	0.626335	0.382015	0.002776
	C125	C	0.626105	0.623978	0.984966
	C126	C	0.383421	0.625250	0.001790
	C127	C	0.384297	0.382714	0.985559
	C128	C	0.015604	0.622472	0.374023
	C129	C	0.998808	0.623124	0.617330
	C130	C	0.014466	0.379303	0.617057
	C131	C	0.998658	0.379103	0.372767
	C132	C	0.883014	0.511834	0.116734
	C133	C	0.126916	0.494729	0.115176
	C134	C	0.127303	0.510958	0.873202
	C135	C	0.883985	0.493987	0.874088
	C136	C	0.131326	0.877778	0.503816
	C137	C	0.128857	0.120118	0.486205
	C138	C	0.886163	0.122043	0.503501
	C139	C	0.887897	0.880668	0.487188
	C140	C	0.514558	0.124098	0.872031
	C141	C	0.497319	0.124562	0.116156
	C142	C	0.514129	0.881478	0.114911
	C143	C	0.498377	0.880184	0.870524
	C144	C	0.390743	0.886594	0.670248
	C145	C	0.629687	0.113606	0.674578
	C146	C	0.629074	0.888925	0.314808
	C147	C	0.383490	0.112916	0.315007
	C148	C	0.686324	0.379424	0.882268
	C149	C	0.685075	0.627947	0.106172
	C150	C	0.324629	0.626563	0.880394
	C151	C	0.325647	0.381889	0.106757
	C152	C	0.895469	0.682041	0.374157
	C153	C	0.119575	0.679241	0.617874
	C154	C	0.895695	0.319313	0.618955
	C155	C	0.118479	0.319354	0.371039
	C156	C	0.894881	0.378576	0.675881
	C157	C	0.118789	0.621503	0.676094
	C158	C	0.894590	0.624114	0.316640
	C159	C	0.117807	0.377097	0.312559
	C160	C	0.383818	0.682477	0.879497
	C161	C	0.625326	0.682806	0.106768
	C162	C	0.627732	0.322617	0.881415
	C163	C	0.382547	0.323570	0.106568
	C164	C	0.688129	0.889120	0.371520
	C165	C	0.689449	0.112777	0.619708
	C166	C	0.331204	0.886801	0.614972
	C167	C	0.323548	0.110773	0.369528
	C168	C	0.882973	0.390381	0.174805
	C169	C	0.126778	0.615260	0.174932
	C170	C	0.127743	0.388924	0.816020
	C171	C	0.883274	0.614683	0.814753
	C172	C	0.188799	0.874956	0.381818
	C173	C	0.188817	0.122387	0.607026
	C174	C	0.824094	0.126637	0.383886
	C175	C	0.828870	0.878142	0.608038
	C176	C	0.394049	0.182724	0.870348
	C177	C	0.616723	0.184331	0.118219
	C178	C	0.394206	0.823558	0.115610
	C179	C	0.617700	0.819535	0.869490
	C180	C	0.394986	0.880244	0.174907
	C181	C	0.616843	0.127016	0.176801
	C182	C	0.393901	0.123139	0.813689
	C183	C	0.619050	0.879173	0.813948
	C184	C	0.882632	0.183151	0.383178
	C185	C	0.131118	0.180316	0.607049
	C186	C	0.130260	0.819040	0.381930
	C187	C	0.888900	0.823528	0.609473
	C188	C	0.187652	0.390841	0.870398
	C189	C	0.184644	0.615419	0.117525
	C190	C	0.823890	0.391480	0.118650
	C191	C	0.824095	0.614655	0.870813
	C192	C	0.409769	0.093553	0.589564
	C193	C	0.607429	0.907746	0.590898
	C194	C	0.603440	0.093423	0.400815
	C195	C	0.410737	0.907156	0.396890
	C196	C	0.601520	0.407267	0.086948
	C197	C	0.602549	0.598468	0.900373
	C198	C	0.406835	0.601607	0.086726
	C199	C	0.409131	0.407799	0.901163
	C200	C	0.099523	0.597463	0.397488
	C201	C	0.915091	0.600217	0.592528
	C202	C	0.097711	0.403971	0.592060
	C203	C	0.915386	0.404020	0.397977
	C204	C	0.907379	0.595494	0.091931
	C205	C	0.103226	0.410533	0.089347
	C206	C	0.102682	0.595337	0.897642
	C207	C	0.908540	0.410149	0.899874
	C208	C	0.108380	0.902831	0.588531
	C209	C	0.103757	0.095076	0.401932
	C210	C	0.912241	0.095909	0.587123
	C211	C	0.911284	0.905127	0.402350
	C212	C	0.598014	0.100346	0.896728
	C213	C	0.414494	0.099504	0.091210
	C214	C	0.597602	0.905859	0.090108
	C215	C	0.414249	0.904948	0.893946
	Zn216	Zn	0.507227	0.001298	0.742404
	Zn217	Zn	0.506906	0.002207	0.245435
	Zn218	Zn	0.754443	0.503700	-0.005054
	Zn219	Zn	0.255581	0.503676	-0.006157
	Zn220	Zn	0.008172	0.751797	0.495348
	Zn221	Zn	0.007734	0.249442	0.495012
	Zn222	Zn	0.005931	0.500673	0.746218
	Zn223	Zn	0.006098	0.502181	0.244083
	Zn224	Zn	0.505537	0.752680	-0.007548
	Zn225	Zn	0.504943	0.253819	-0.005949
	Zn226	Zn	0.758317	0.000722	0.495563
	Zn227	Zn	0.258011	-0.000981	0.494116
	N228	N	0.425128	0.963302	0.669226
	N229	N	0.594108	0.037575	0.672913
	N230	N	0.592897	0.965015	0.316368
	N231	N	0.421021	0.037443	0.316656
	N232	N	0.685639	0.415700	0.958736
	N233	N	0.685741	0.592285	0.029332
	N234	N	0.324221	0.591855	0.957439
	N235	N	0.326477	0.417737	0.030191
	N236	N	0.971602	0.681226	0.408858
	N237	N	0.044034	0.680227	0.582089
	N238	N	0.971247	0.319719	0.583097
	N239	N	0.043241	0.320391	0.407752
	N240	N	0.969843	0.415089	0.674482
	N241	N	0.042549	0.587412	0.675850
	N242	N	0.970214	0.587530	0.316747
	N243	N	0.042250	0.413191	0.313289
	N244	N	0.419609	0.682023	0.956048
	N245	N	0.589448	0.680490	0.030344
	N246	N	0.591268	0.324097	0.957413
	N247	N	0.418264	0.324129	0.030123
	N248	N	0.687915	0.965429	0.407900
	N249	N	0.690223	0.035972	0.584426
	N250	N	0.328977	0.963805	0.580673
	N251	N	0.324580	0.034138	0.404495
	N252	N	0.919138	0.466170	0.173701
	N253	N	0.091581	0.538980	0.173595
	N254	N	0.090883	0.464685	0.817714
	N255	N	0.919597	0.538620	0.816435
	N256	N	0.189470	0.910899	0.458649
	N257	N	0.187425	0.085857	0.530738
	N258	N	0.826171	0.089185	0.459640
	N259	N	0.827978	0.912947	0.530936
	N260	N	0.469979	0.183667	0.905581
	N261	N	0.541493	0.183190	0.081500
	N262	N	0.469419	0.824298	0.078944
	N263	N	0.541577	0.820246	0.904167
	N264	N	0.470716	0.915441	0.174598
	N265	N	0.541604	0.090704	0.176009
	N266	N	0.469782	0.087587	0.814247
	N267	N	0.543915	0.916194	0.814747
	N268	N	0.920752	0.180251	0.458511
	N269	N	0.094499	0.178995	0.530899
	N270	N	0.095190	0.820631	0.458568
	N271	N	0.924964	0.824844	0.533137
	N272	N	0.187641	0.467796	0.905225
	N273	N	0.184580	0.539417	0.080895
	N274	N	0.823628	0.467966	0.083441
	N275	N	0.824331	0.538546	0.906975
	O276	O	0.680627	0.470787	0.579427
	H277	H	0.684997	0.471847	0.556395
	H278	H	0.665027	0.467270	0.585136
	O279	O	0.190932	0.167039	0.157167
	H280	H	0.200642	0.141259	0.148240
	H281	H	0.178297	0.159478	0.152381
	O282	O	0.363221	0.645726	0.548386
	H283	H	0.360493	0.642807	0.556765
	H284	H	0.363027	0.637447	0.530604
	O285	O	1.633996	0.477727	0.618930
	H286	H	1.632801	0.480571	0.633860
	H287	H	1.634114	0.484151	0.617681
	O288	O	0.236085	0.068246	0.756840
	H289	H	0.229936	0.052072	0.761366
	H290	H	0.246042	0.070615	0.751524
	O291	O	0.703218	0.426939	0.313755
	H292	H	0.712391	0.413165	0.313626
	H293	H	0.710174	0.425810	0.310343
	O294	O	1.194972	0.897434	0.839448
	H295	H	1.186320	0.913867	0.833810
	H296	H	1.205067	0.905067	0.847748
	O297	O	0.804573	0.987627	1.206070
	H298	H	0.801007	0.970227	1.223632
	H299	H	0.803921	0.986296	1.215735
	O300	O	-0.055907	-0.129327	0.009374
	H301	H	-0.072383	-0.128144	0.016387
	H302	H	-0.050186	-0.127600	0.016494
	O303	O	-0.078282	1.183622	1.074717
	H304	H	-0.068180	1.182721	1.089040
	H305	H	-0.085651	1.181996	1.078358
	O306	O	0.822647	-0.069336	-0.126769
	H307	H	0.844273	-0.084954	-0.121798
	H308	H	0.812083	-0.068062	-0.127891
	O309	O	0.477050	0.594188	0.511433
	H310	H	0.480636	0.596230	0.515444
	H311	H	0.482396	0.586490	0.508195
	O312	O	1.048567	0.843925	-0.200013
	H313	H	1.055052	0.834540	-0.205121
	H314	H	1.055494	0.836928	-0.202338
	O315	O	0.463358	0.561298	0.538676
	H316	H	0.472544	0.563910	0.549568
	H317	H	0.474909	0.551226	0.541895
	O318	O	0.393948	0.595338	0.304581
	H319	H	0.391293	0.597176	0.301750
	H320	H	0.395837	0.596148	0.303124
	O321	O	0.880808	-0.017158	0.893820
	H322	H	0.859779	-0.021521	0.881252
	H323	H	0.890060	-0.027355	0.899001
	O324	O	0.524895	0.630063	1.540440
	H325	H	0.517580	0.647048	1.543498
	H326	H	0.521602	0.614275	1.541835
	O327	O	0.012472	0.859821	1.063051
	H328	H	0.012587	0.863542	1.069583
	H329	H	0.015990	0.861338	1.057308
	O330	O	0.386337	0.337626	0.529956
	H331	H	0.395803	0.343751	0.529246
	H332	H	0.385406	0.328948	0.513827
	O333	O	1.012070	1.195270	0.929000
	H334	H	1.006930	1.209514	0.953981
	H335	H	0.999979	1.185692	0.913031
	O336	O	0.591984	0.295600	0.385010
	H337	H	0.613697	0.301216	0.402563
	H338	H	0.597370	0.278764	0.374853
	O339	O	0.636121	0.658111	0.407587
	H340	H	0.639000	0.651765	0.420469
	H341	H	0.612487	0.657239	0.404543
	O342	O	0.064704	1.015723	0.941008
	H343	H	0.061485	1.004969	0.914249
	H344	H	0.088414	1.031036	0.939423
	O345	O	-0.175199	1.119547	0.800440
	H346	H	-0.186883	1.119546	0.847415
	H347	H	-0.189551	1.085620	0.785850
	O348	O	0.691482	0.535641	0.628317
	H349	H	0.682726	0.550210	0.616633
	H350	H	0.703676	0.532078	0.635292
	O351	O	0.081334	-0.148982	0.128764
	H352	H	0.068135	-0.160394	0.116232
	H353	H	0.075475	-0.153908	0.116856
	O354	O	0.371639	0.562886	-0.599693
	H355	H	0.359332	0.548982	-0.607949
	H356	H	0.367197	0.559043	-0.572991
	O357	O	0.109510	1.063832	0.008693
	H358	H	0.101026	1.060386	0.005874
	H359	H	0.112306	1.057604	0.014351
	O360	O	0.143215	0.072232	-0.176265
	H361	H	0.130669	0.082163	-0.173221
	H362	H	0.133440	0.090830	-0.165482
	O363	O	0.341061	0.458716	0.592241
	H364	H	0.330872	0.462243	0.603693
	H365	H	0.329836	0.444186	0.592796
	O366	O	0.446806	0.417787	0.358081
	H367	H	0.435459	0.405701	0.346802
	H368	H	0.460144	0.408849	0.352273
	O369	O	0.463458	0.601051	0.470551
	H370	H	0.465580	0.614296	0.465002
	H371	H	0.448849	0.601159	0.472898
	O372	O	0.505820	0.355861	0.426835
	H373	H	0.490851	0.373495	0.433985
	H374	H	0.498570	0.354570	0.410679
	O375	O	0.968876	0.059868	0.208431
	H376	H	0.958796	0.066921	0.206373
	H377	H	0.986522	0.046766	0.210032
	O378	O	0.578439	0.478841	0.307486
	H379	H	0.579340	0.468871	0.322115
	H380	H	0.566623	0.472893	0.313751
	O381	O	-0.121792	-0.033131	0.049108
	H382	H	-0.125812	-0.043192	0.048982
	H383	H	-0.121419	-0.040481	0.043899
	O384	O	0.441510	0.485922	1.673354
	H385	H	0.434325	0.502468	1.672809
	H386	H	0.442639	0.459425	1.681150
	O387	O	1.167750	0.824743	-0.057123
	H388	H	1.181898	0.826962	-0.054878
	H389	H	1.172322	0.833143	-0.065564
	O390	O	0.378514	0.398594	0.682879
	H391	H	0.385574	0.388035	0.682862
	H392	H	0.360532	0.398356	0.685281
	O393	O	1.201304	0.126194	0.977120
	H394	H	1.212067	0.136078	0.977032
	H395	H	1.200809	0.114949	0.992778
	O396	O	-0.204994	1.145759	0.988459
	H397	H	-0.220690	1.163462	1.002146
	H398	H	-0.204600	1.149818	1.014301
	O399	O	0.649355	0.644809	0.512439
	H400	H	0.646312	0.647069	0.498343
	H401	H	0.649542	0.646740	0.525694
	O402	O	0.937166	0.067499	0.798030
	H403	H	0.934480	0.077631	0.785436
	H404	H	0.938327	0.048662	0.800161
	O405	O	0.045225	0.214379	0.204619
	H406	H	0.052259	0.229845	0.224330
	H407	H	0.057930	0.204763	0.210899
	O408	O	0.903866	0.915625	0.969728
	H409	H	0.900870	0.928581	0.965723
	H410	H	0.912404	0.925543	0.974345
	O411	O	0.829190	0.811653	0.186412
	H412	H	0.814728	0.806131	0.164469
	H413	H	0.837662	0.812558	0.196404
	O414	O	0.207510	0.007253	1.191232
	H415	H	0.181673	-0.020640	1.181430
	H416	H	0.230182	0.010495	1.220377
	O417	O	0.571984	0.439570	0.391587
	H418	H	0.575245	0.446886	0.396550
	H419	H	0.573304	0.439750	0.375080
	O420	O	0.007609	0.860402	0.144531
	H421	H	-0.002871	0.845119	0.163363
	H422	H	-0.006719	0.872844	0.132387
	O423	O	0.442441	-0.655830	0.634490
	H424	H	0.436673	-0.661017	0.633268
	H425	H	0.452878	-0.654786	0.637208
	O426	O	-0.084319	0.209517	0.856768
	H427	H	-0.111509	0.211516	0.866255
	H428	H	-0.091724	0.233564	0.821541
	O429	O	0.482125	0.406365	0.404088
	H430	H	0.489656	0.388624	0.423698
	H431	H	0.461312	0.419981	0.412910
