data_Molecule from HDF5

_cell_length_a		16.473548
_cell_length_b		16.397728
_cell_length_c		16.235794
_cell_angle_alpha	90.203350
_cell_angle_beta	90.194823
_cell_angle_gamma	90.057385
_symmetry_space_group_name_H-M	'P 1'
_symmetry_Int_Tables_number		1

loop_
	_symmetry_equiv_pos_as_xyz
	x,y,z

loop_
	_atom_site_label
	_atom_site_type_symbol
	_atom_site_fract_x
	_atom_site_fract_y
	_atom_site_fract_z
	H0	H	0.399062	0.848465	0.704067
	H1	H	0.604355	0.170180	0.706658
	H2	H	0.602250	0.848961	0.266510
	H3	H	0.398359	0.170595	0.269287
	H4	H	0.722808	0.403263	0.829186
	H5	H	0.720635	0.616250	0.148514
	H6	H	0.274653	0.619907	0.830855
	H7	H	0.278276	0.401387	0.146500
	H8	H	0.842053	0.729228	0.382144
	H9	H	0.158920	0.732656	0.595824
	H10	H	0.841191	0.289254	0.590584
	H11	H	0.158335	0.286019	0.381179
	H12	H	0.840195	0.407647	0.704790
	H13	H	0.159742	0.613053	0.709417
	H14	H	0.840333	0.608618	0.270062
	H15	H	0.158695	0.403005	0.266433
	H16	H	0.395191	0.728177	0.826472
	H17	H	0.604111	0.730675	0.148150
	H18	H	0.607056	0.288667	0.827822
	H19	H	0.396421	0.290244	0.147642
	H20	H	0.721585	0.850321	0.380248
	H21	H	0.719854	0.170326	0.589232
	H22	H	0.278053	0.851886	0.594122
	H23	H	0.278994	0.168422	0.380289
	H24	H	0.899086	0.349301	0.203960
	H25	H	0.107136	0.667996	0.211895
	H26	H	0.104519	0.350726	0.768113
	H27	H	0.895638	0.668959	0.768086
	H28	H	0.222361	0.902578	0.326798
	H29	H	0.224086	0.117192	0.645788
	H30	H	0.781311	0.113127	0.325929
	H31	H	0.780789	0.905681	0.645546
	H32	H	0.343952	0.235626	0.877304
	H33	H	0.658891	0.231783	0.092808
	H34	H	0.342427	0.786691	0.093556
	H35	H	0.658252	0.789918	0.883643
	H36	H	0.340250	0.906835	0.204986
	H37	H	0.659092	0.112113	0.206368
	H38	H	0.341939	0.115149	0.764354
	H39	H	0.660550	0.910115	0.771272
	H40	H	0.898017	0.227475	0.325981
	H41	H	0.105156	0.228972	0.647671
	H42	H	0.105684	0.788338	0.326900
	H43	H	0.897433	0.791115	0.646542
	H44	H	0.225404	0.354026	0.879739
	H45	H	0.227098	0.666787	0.101179
	H46	H	0.777799	0.352557	0.095744
	H47	H	0.780012	0.668384	0.883875
	H48	H	0.409396	0.124542	0.576646
	H49	H	0.594896	0.892688	0.582854
	H50	H	0.582708	0.121537	0.396063
	H51	H	0.410211	0.894396	0.392474
	H52	H	0.593865	0.422204	0.104639
	H53	H	0.593100	0.602890	0.870547
	H54	H	0.414613	0.607585	0.104637
	H55	H	0.419198	0.430483	0.878212
	H56	H	0.111656	0.595307	0.403956
	H57	H	0.884190	0.608735	0.580726
	H58	H	0.113283	0.420850	0.577094
	H59	H	0.885477	0.412833	0.395412
	H60	H	0.113847	0.418541	0.578129
	H61	H	0.890268	0.601183	0.568005
	H62	H	0.114748	0.597134	0.395838
	H63	H	0.888789	0.418717	0.401854
	H64	H	0.406725	0.592243	0.103089
	H65	H	0.593914	0.596724	0.871907
	H66	H	0.589168	0.425992	0.100436
	H67	H	0.415780	0.417185	0.872198
	H68	H	0.594004	0.121137	0.405211
	H69	H	0.586270	0.898639	0.576089
	H70	H	0.416896	0.121605	0.576947
	H71	H	0.415371	0.898081	0.398896
	H72	H	0.910907	0.623849	0.075322
	H73	H	0.091887	0.396417	0.076348
	H74	H	0.084772	0.621327	0.903936
	H75	H	0.912854	0.398040	0.900686
	H76	H	0.094250	0.923887	0.602453
	H77	H	0.077724	0.100553	0.374871
	H78	H	0.914082	0.090973	0.598793
	H79	H	0.908449	0.924531	0.371433
	H80	H	0.614153	0.102976	0.897420
	H81	H	0.388968	0.094366	0.074057
	H82	H	0.611086	0.928906	0.077744
	H83	H	0.388156	0.922631	0.897983
	H84	H	0.616816	0.914317	0.082023
	H85	H	0.384214	0.102409	0.082705
	H86	H	0.612005	0.100679	0.901654
	H87	H	0.384063	0.918845	0.891244
	H88	H	0.915979	0.107512	0.603232
	H89	H	0.096788	0.103910	0.366537
	H90	H	0.087656	0.925484	0.599489
	H91	H	0.916466	0.921026	0.372184
	H92	H	0.092914	0.623420	0.905271
	H93	H	0.088164	0.398239	0.075571
	H94	H	0.907119	0.625100	0.078549
	H95	H	0.906528	0.394492	0.900584
	H96	H	0.412295	0.120381	0.569508
	H97	H	0.596524	0.894996	0.570849
	H98	H	0.596199	0.125994	0.391519
	H99	H	0.406503	0.896177	0.400567
	H100	H	0.587376	0.419034	0.102983
	H101	H	0.588561	0.599932	0.873708
	H102	H	0.423245	0.594342	0.097732
	H103	H	0.405884	0.427698	0.873156
	H104	H	0.114768	0.603661	0.401975
	H105	H	0.888074	0.593265	0.581564
	H106	H	0.113374	0.419230	0.575931
	H107	H	0.886884	0.421790	0.393737
	H108	H	0.911329	0.624389	0.080701
	H109	H	0.091500	0.397828	0.072164
	H110	H	0.089235	0.624473	0.897519
	H111	H	0.911371	0.394143	0.894276
	H112	H	0.088640	0.919079	0.601624
	H113	H	0.092156	0.085394	0.375271
	H114	H	0.900738	0.099380	0.606040
	H115	H	0.909729	0.916128	0.368807
	H116	H	0.612932	0.098072	0.897424
	H117	H	0.386581	0.106613	0.070615
	H118	H	0.611401	0.916446	0.066963
	H119	H	0.385136	0.914979	0.898950
	C120	C	0.380227	0.017737	0.607445
	C121	C	0.623145	1.001399	0.608234
	C122	C	0.622388	0.017799	0.364602
	C123	C	0.379072	1.001555	0.365278
	C124	C	0.622461	0.389358	-0.003025
	C125	C	0.622268	0.631655	0.978857
	C126	C	0.380567	0.630703	-0.003494
	C127	C	0.380730	0.390927	0.979552
	C128	C	0.008863	0.629935	0.367307
	C129	C	0.991955	0.632757	0.610302
	C130	C	0.008427	0.388195	0.608682
	C131	C	0.991606	0.385851	0.365000
	C132	C	0.879008	0.518841	0.109298
	C133	C	0.123666	0.501401	0.110061
	C134	C	0.121661	0.518784	0.868048
	C135	C	0.878892	0.501061	0.867042
	C136	C	0.122321	0.889205	0.495211
	C137	C	0.121753	0.130037	0.477926
	C138	C	0.879420	0.130676	0.495874
	C139	C	0.879653	0.888976	0.476909
	C140	C	0.508803	0.132945	0.865207
	C141	C	0.491749	0.131996	0.107967
	C142	C	0.508219	0.888346	0.107425
	C143	C	0.491076	0.887777	0.865243
	C144	C	0.379546	0.897134	0.665714
	C145	C	0.623382	0.122093	0.667010
	C146	C	0.622039	0.897207	0.305623
	C147	C	0.378940	0.122095	0.307348
	C148	C	0.682634	0.385943	0.876684
	C149	C	0.680934	0.634335	0.100153
	C150	C	0.316773	0.635735	0.877608
	C151	C	0.319425	0.385498	0.098915
	C152	C	0.889282	0.689048	0.364738
	C153	C	0.111318	0.692523	0.613556
	C154	C	0.888851	0.328948	0.609628
	C155	C	0.110819	0.326049	0.362881
	C156	C	0.888327	0.388271	0.666227
	C157	C	0.111756	0.632960	0.670076
	C158	C	0.888506	0.629011	0.308763
	C159	C	0.111077	0.384542	0.305869
	C160	C	0.376721	0.690079	0.875488
	C161	C	0.623316	0.691791	0.099694
	C162	C	0.624932	0.328855	0.876122
	C163	C	0.378344	0.329850	0.099534
	C164	C	0.681534	0.897907	0.361997
	C165	C	0.681287	0.122115	0.608996
	C166	C	0.319435	0.898687	0.610628
	C167	C	0.319724	0.121185	0.363372
	C168	C	0.879294	0.397914	0.166276
	C169	C	0.126161	0.620083	0.172378
	C170	C	0.123632	0.399138	0.807238
	C171	C	0.877460	0.621114	0.807894
	C172	C	0.182300	0.885172	0.374763
	C173	C	0.183132	0.134107	0.598038
	C174	C	0.820496	0.132274	0.374380
	C175	C	0.820293	0.887274	0.597871
	C176	C	0.390573	0.194223	0.860636
	C177	C	0.611400	0.191349	0.110585
	C178	C	0.389462	0.827590	0.110793
	C179	C	0.610828	0.829532	0.864494
	C180	C	0.388371	0.887176	0.166549
	C181	C	0.611542	0.132116	0.167277
	C182	C	0.389665	0.134017	0.804413
	C183	C	0.611973	0.889263	0.808813
	C184	C	0.878743	0.188674	0.374202
	C185	C	0.124185	0.190204	0.598939
	C186	C	0.124254	0.828162	0.374977
	C187	C	0.878468	0.830520	0.598097
	C188	C	0.183851	0.400694	0.862827
	C189	C	0.185940	0.619613	0.116932
	C190	C	0.818968	0.399654	0.112035
	C191	C	0.819714	0.620893	0.865378
	C192	C	0.405502	0.100690	0.581669
	C193	C	0.599574	0.917442	0.583685
	C194	C	0.598011	0.101269	0.390203
	C195	C	0.403535	0.917936	0.390300
	C196	C	0.597302	0.415050	0.080881
	C197	C	0.598578	0.606898	0.894061
	C198	C	0.407114	0.605227	0.079897
	C199	C	0.406379	0.417391	0.896162
	C200	C	0.091982	0.605617	0.392905
	C201	C	0.909189	0.608182	0.584321
	C202	C	0.091681	0.412513	0.584052
	C203	C	0.908536	0.410607	0.389788
	C204	C	0.902985	0.602691	0.085198
	C205	C	0.098139	0.418930	0.082421
	C206	C	0.096206	0.601430	0.894813
	C207	C	0.903162	0.417373	0.891633
	C208	C	0.097341	0.915377	0.579222
	C209	C	0.096155	0.104172	0.393979
	C210	C	0.903481	0.106381	0.580568
	C211	C	0.904419	0.913477	0.392757
	C212	C	0.591411	0.107831	0.891189
	C213	C	0.408438	0.108144	0.082900
	C214	C	0.591341	0.912818	0.082627
	C215	C	0.407446	0.911875	0.889254
	Zn216	Zn	0.500630	0.009515	0.736682
	Zn217	Zn	0.499480	0.009403	0.236321
	Zn218	Zn	0.750313	0.510429	-0.011444
	Zn219	Zn	0.252136	0.511289	-0.011112
	Zn220	Zn	0.001319	0.760852	0.486944
	Zn221	Zn	0.000383	0.257865	0.487171
	Zn222	Zn	0.000086	0.509627	0.738710
	Zn223	Zn	0.000887	0.508961	0.237415
	Zn224	Zn	0.499874	0.759523	-0.012927
	Zn225	Zn	0.500489	0.262247	-0.012738
	Zn226	Zn	0.751888	0.009782	0.486079
	Zn227	Zn	0.250667	0.009700	0.486637
	N228	N	0.416662	0.972238	0.664017
	N229	N	0.588019	0.046187	0.666804
	N230	N	0.586022	0.972722	0.307090
	N231	N	0.415099	0.046587	0.308458
	N232	N	0.681202	0.422782	0.952904
	N233	N	0.680403	0.597740	0.024067
	N234	N	0.318946	0.599699	0.953826
	N235	N	0.320762	0.422773	0.023330
	N236	N	0.965256	0.689887	0.400124
	N237	N	0.035703	0.692872	0.577306
	N238	N	0.964667	0.328622	0.574697
	N239	N	0.035492	0.326759	0.398929
	N240	N	0.963819	0.424240	0.665946
	N241	N	0.036710	0.596631	0.668270
	N242	N	0.963959	0.593246	0.310035
	N243	N	0.035933	0.420914	0.306906
	N244	N	0.415738	0.687153	0.950321
	N245	N	0.587597	0.690368	0.023084
	N246	N	0.588428	0.330652	0.951980
	N247	N	0.415945	0.333372	0.024223
	N248	N	0.681706	0.973793	0.398179
	N249	N	0.681226	0.046074	0.572949
	N250	N	0.319474	0.974763	0.575374
	N251	N	0.319593	0.045099	0.398392
	N252	N	0.916127	0.473106	0.164733
	N253	N	0.088409	0.545480	0.168613
	N254	N	0.085760	0.473658	0.810254
	N255	N	0.913298	0.545551	0.808590
	N256	N	0.181254	0.922028	0.450764
	N257	N	0.181810	0.097613	0.521732
	N258	N	0.820793	0.097031	0.451146
	N259	N	0.820790	0.922629	0.521269
	N260	N	0.465757	0.193807	0.897528
	N261	N	0.535863	0.191439	0.074522
	N262	N	0.464858	0.828179	0.074934
	N263	N	0.534552	0.828326	0.898536
	N264	N	0.463176	0.924432	0.164426
	N265	N	0.536160	0.096113	0.165947
	N266	N	0.464186	0.096814	0.806992
	N267	N	0.536387	0.924672	0.809089
	N268	N	0.914576	0.187853	0.450695
	N269	N	0.086663	0.187725	0.523215
	N270	N	0.087863	0.830436	0.451058
	N271	N	0.914652	0.831407	0.522076
	N272	N	0.182820	0.476091	0.899911
	N273	N	0.184666	0.544576	0.079172
	N274	N	0.818511	0.475990	0.077463
	N275	N	0.820330	0.545107	0.901316
	O276	O	0.486085	0.623182	0.369796
	H277	H	0.472648	0.616894	0.372447
	H278	H	0.487449	0.619915	0.357661
	O279	O	0.497958	0.411267	0.599636
	H280	H	0.489889	0.428114	0.595072
	H281	H	0.490387	0.395307	0.610135
	O282	O	-0.143986	0.183560	1.129283
	H283	H	-0.137367	0.159262	1.137842
	H284	H	-0.146335	0.177797	1.127288
	O285	O	1.040467	1.097271	-0.045298
	H286	H	1.031655	1.098792	-0.049042
	H287	H	1.044616	1.085964	-0.056195
	O288	O	-0.182013	-0.017700	-0.093361
	H289	H	-0.179666	-0.026009	-0.099971
	H290	H	-0.176957	-0.013898	-0.088033
	O291	O	0.980476	-0.020091	0.836524
	H292	H	0.993856	-0.018847	0.833532
	H293	H	0.981310	-0.030190	0.833109
	O294	O	1.181609	1.021425	1.177364
	H295	H	1.199160	1.024897	1.195072
	H296	H	1.180626	1.024652	1.161332
	O297	O	0.679781	0.387071	0.495879
	H298	H	0.667226	0.392924	0.502423
	H299	H	0.682335	0.395072	0.501746
	O300	O	0.371656	0.453591	0.656703
	H301	H	0.358085	0.449461	0.650776
	H302	H	0.359356	0.456801	0.661811
	O303	O	0.580822	0.544845	0.449208
	H304	H	0.583487	0.526232	0.445166
	H305	H	0.585297	0.553580	0.458150
	O306	O	-0.177762	-0.160941	1.165509
	H307	H	-0.174551	-0.158312	1.159203
	H308	H	-0.184833	-0.143741	1.158056
	O309	O	0.823632	0.059478	-0.208056
	H310	H	0.826484	0.045446	-0.213235
	H311	H	0.821800	0.046336	-0.219817
	O312	O	0.517187	0.697204	0.695470
	H313	H	0.536980	0.702244	0.705168
	H314	H	0.516835	0.704273	0.704545
	O315	O	0.516708	0.371385	0.369504
	H316	H	0.522940	0.369488	0.357895
	H317	H	0.527365	0.362616	0.375532
	O318	O	-0.191417	0.207906	-0.119176
	H319	H	-0.198765	0.183636	-0.130695
	H320	H	-0.204492	0.217977	-0.108124
	O321	O	0.201876	1.098164	1.001534
	H322	H	0.200667	1.107861	1.011680
	H323	H	0.200445	1.124282	1.011696
	O324	O	1.607497	-0.408789	1.607136
	H325	H	1.602166	-0.411616	1.607325
	H326	H	1.613143	-0.414238	1.621033
	O327	O	0.889303	0.797698	0.866616
	H328	H	0.887616	0.794674	0.870333
	H329	H	0.886203	0.797497	0.852344
	O330	O	-0.183172	0.863713	1.001206
	H331	H	-0.185734	0.864551	1.014114
	H332	H	-0.187449	0.847205	0.994266
	O333	O	0.139879	0.965284	-0.028798
	H334	H	0.139262	0.969052	-0.028771
	H335	H	0.146636	0.978038	-0.030964
	O336	O	0.941996	1.214935	-0.218020
	H337	H	0.928299	1.206516	-0.222657
	H338	H	0.924168	1.228160	-0.236144
	O339	O	-0.199340	0.999025	1.176022
	H340	H	-0.187255	0.998344	1.194475
	H341	H	-0.199719	0.988141	1.158471
	O342	O	0.399743	0.521403	0.390113
	H343	H	0.405191	0.517583	0.374514
	H344	H	0.404446	0.530118	0.387835
	O345	O	0.211003	0.282056	0.732710
	H346	H	0.210947	0.273662	0.707063
	H347	H	0.199598	0.310846	0.736732
	O348	O	0.477778	0.315584	0.423770
	H349	H	0.473547	0.313326	0.420581
	H350	H	0.493775	0.315261	0.426921
	O351	O	0.623505	0.538055	0.500611
	H352	H	0.613273	0.546324	0.491741
	H353	H	0.619255	0.534930	0.492852
	O354	O	1.016401	1.013201	1.063668
	H355	H	1.022499	0.994841	1.059257
	H356	H	1.031098	1.021559	1.067873
	O357	O	0.186085	-0.177471	-0.174284
	H358	H	0.195790	-0.135034	-0.178419
	H359	H	0.199815	-0.180535	-0.137179
	O360	O	0.365546	0.452899	0.550035
	H361	H	0.369078	0.452871	0.536134
	H362	H	0.364273	0.453501	0.548562
	O363	O	1.059879	0.185556	0.188588
	H364	H	1.047614	0.184088	0.180682
	H365	H	1.064657	0.194832	0.197881
	O366	O	-0.798383	-0.165014	0.929610
	H367	H	-0.830295	-0.171845	0.940594
	H368	H	-0.779055	-0.164495	0.939075
	O369	O	1.455888	0.562832	0.297383
	H370	H	1.440226	0.559621	0.300739
	H371	H	1.454284	0.576970	0.293860
	O372	O	0.290952	0.624529	0.427036
	H373	H	0.291750	0.628654	0.415909
	H374	H	0.285383	0.638502	0.415575
	O375	O	-0.543483	-0.674603	1.615259
	H376	H	-0.559690	-0.699942	1.635186
	H377	H	-0.560058	-0.669104	1.611714
	O378	O	0.653069	0.329331	0.283838
	H379	H	0.660952	0.299306	0.265235
	H380	H	0.674508	0.331712	0.312161
	O381	O	0.049990	0.821202	0.023910
	H382	H	0.041340	0.819991	0.013020
	H383	H	0.023223	0.825262	0.036799
	O384	O	0.488682	0.512710	0.557200
	H385	H	0.492884	0.518864	0.570444
	H386	H	0.481315	0.513667	0.552277
	O387	O	1.025337	0.793408	-0.228020
	H388	H	1.068066	0.802530	-0.220283
	H389	H	1.032685	0.761227	-0.262163
	O390	O	0.972821	1.095203	0.163486
	H391	H	0.982570	1.108180	0.167111
	H392	H	0.983382	1.076214	0.164243
	O393	O	1.110963	0.215293	0.967569
	H394	H	1.100893	0.220235	0.950472
	H395	H	1.094244	0.213516	0.969127
	O396	O	0.480269	0.530864	0.619347
	H397	H	0.471953	0.518116	0.615220
	H398	H	0.477679	0.548945	0.614215
	O399	O	0.809870	-0.069854	0.935610
	H400	H	0.809879	-0.070372	0.916447
	H401	H	0.813636	-0.076687	0.932195
	O402	O	0.834420	1.113602	-0.062648
	H403	H	0.823746	1.106373	-0.061035
	H404	H	0.828995	1.106262	-0.034261
	O405	O	0.436466	0.666453	0.396827
	H406	H	0.448576	0.657683	0.397852
	H407	H	0.429206	0.668818	0.399836
	O408	O	0.338012	0.552269	0.339463
	H409	H	0.340762	0.528389	0.333787
	H410	H	0.346625	0.553356	0.342576
	O411	O	1.692889	0.473854	1.456610
	H412	H	1.700093	0.464305	1.449410
	H413	H	1.689025	0.466078	1.460585
	O414	O	0.698854	0.712824	0.627693
	H415	H	0.687066	0.690876	0.642503
	H416	H	0.704067	0.718111	0.595402
	O417	O	0.208888	0.073436	0.797379
	H418	H	0.220368	0.087707	0.779067
	H419	H	0.198130	0.090585	0.798487
	O420	O	-0.021522	0.805927	1.198111
	H421	H	-0.031667	0.812817	1.208977
	H422	H	-0.039173	0.795156	1.209335
	O423	O	0.061109	1.013116	-0.203669
	H424	H	0.057521	1.023672	-0.202452
	H425	H	0.064222	1.023112	-0.203650
	O426	O	0.464978	0.648840	0.612238
	H427	H	0.479857	0.638855	0.621670
	H428	H	0.456750	0.645608	0.629701
	O429	O	0.490985	0.375993	0.388416
	H430	H	0.497087	0.374328	0.389634
	H431	H	0.498480	0.371997	0.396340
	O432	O	0.188968	0.196801	0.155449
	H433	H	0.196548	0.202106	0.124761
	H434	H	0.160360	0.181094	0.169219
	O435	O	0.138114	-0.052047	0.087698
	H436	H	0.136684	-0.080691	0.075402
	H437	H	0.159669	-0.041171	0.073401
	O438	O	-0.436749	1.613000	1.362516
	H439	H	-0.431023	1.609235	1.369814
	H440	H	-0.441872	1.605090	1.369620
	O441	O	0.455867	0.476668	0.498235
	H442	H	0.451821	0.482832	0.493335
	H443	H	0.450395	0.477569	0.481459
