data_Molecule from HDF5

_cell_length_a		16.417478
_cell_length_b		16.572173
_cell_length_c		16.275274
_cell_angle_alpha	90.055996
_cell_angle_beta	89.840904
_cell_angle_gamma	89.997020
_symmetry_space_group_name_H-M	'P 1'
_symmetry_Int_Tables_number		1

loop_
	_symmetry_equiv_pos_as_xyz
	x,y,z

loop_
	_atom_site_label
	_atom_site_type_symbol
	_atom_site_fract_x
	_atom_site_fract_y
	_atom_site_fract_z
	H0	H	0.400079	0.845574	0.720873
	H1	H	0.610911	0.159319	0.723685
	H2	H	0.603216	0.843245	0.283765
	H3	H	0.398088	0.160327	0.276556
	H4	H	0.728070	0.395493	0.842194
	H5	H	0.721223	0.604527	0.161712
	H6	H	0.283077	0.605797	0.841007
	H7	H	0.282392	0.395524	0.160785
	H8	H	0.844792	0.718728	0.402681
	H9	H	0.162682	0.724746	0.608178
	H10	H	0.850813	0.274868	0.616063
	H11	H	0.160248	0.275193	0.389325
	H12	H	0.848327	0.396679	0.725912
	H13	H	0.164875	0.606470	0.721809
	H14	H	0.844202	0.601597	0.285996
	H15	H	0.163896	0.397623	0.280613
	H16	H	0.396738	0.722945	0.839899
	H17	H	0.609452	0.724392	0.157745
	H18	H	0.613250	0.278506	0.842000
	H19	H	0.393628	0.276190	0.158400
	H20	H	0.721797	0.844081	0.399064
	H21	H	0.730694	0.158409	0.609600
	H22	H	0.283233	0.845139	0.604604
	H23	H	0.278720	0.159548	0.391037
	H24	H	0.898032	0.343933	0.225104
	H25	H	0.102411	0.661040	0.216250
	H26	H	0.112042	0.345347	0.777505
	H27	H	0.902810	0.660665	0.784861
	H28	H	0.222809	0.898304	0.340347
	H29	H	0.228343	0.110232	0.658747
	H30	H	0.787420	0.106887	0.339445
	H31	H	0.784315	0.900862	0.660862
	H32	H	0.348807	0.228825	0.888147
	H33	H	0.660824	0.225894	0.108667
	H34	H	0.346627	0.781128	0.102682
	H35	H	0.662780	0.779219	0.889399
	H36	H	0.344786	0.899283	0.218054
	H37	H	0.662926	0.106230	0.219466
	H38	H	0.346649	0.108914	0.777080
	H39	H	0.664014	0.900663	0.779307
	H40	H	0.897230	0.227103	0.343938
	H41	H	0.116298	0.229158	0.657240
	H42	H	0.106737	0.781720	0.342003
	H43	H	0.899680	0.784770	0.662747
	H44	H	0.229128	0.344872	0.893250
	H45	H	0.223885	0.658615	0.103487
	H46	H	0.779816	0.344337	0.110945
	H47	H	0.783329	0.657699	0.898544
	H48	H	0.420726	0.109206	0.577963
	H49	H	0.592454	0.892111	0.589128
	H50	H	0.596963	0.117583	0.407908
	H51	H	0.409321	0.889154	0.406506
	H52	H	0.588465	0.418711	0.111869
	H53	H	0.596374	0.594364	0.882586
	H54	H	0.416791	0.592660	0.113765
	H55	H	0.420296	0.409263	0.886783
	H56	H	0.120671	0.595626	0.407831
	H57	H	0.893879	0.589844	0.587444
	H58	H	0.116082	0.416244	0.584331
	H59	H	0.894937	0.417962	0.418870
	H60	H	0.116481	0.417001	0.587401
	H61	H	0.889376	0.590649	0.602210
	H62	H	0.120109	0.596510	0.412951
	H63	H	0.891890	0.414659	0.411055
	H64	H	0.416896	0.591343	0.113367
	H65	H	0.597746	0.586837	0.885252
	H66	H	0.585757	0.407725	0.113498
	H67	H	0.413664	0.415909	0.886478
	H68	H	0.596121	0.116575	0.408642
	H69	H	0.593403	0.892236	0.585191
	H70	H	0.405887	0.117714	0.586330
	H71	H	0.418189	0.891559	0.407599
	H72	H	0.909766	0.614767	0.094904
	H73	H	0.100033	0.385387	0.090114
	H74	H	0.095457	0.612281	0.916827
	H75	H	0.923419	0.393605	0.919179
	H76	H	0.097710	0.913802	0.616833
	H77	H	0.086465	0.088264	0.389762
	H78	H	0.920760	0.090797	0.614113
	H79	H	0.913909	0.904031	0.383623
	H80	H	0.620086	0.091871	0.905674
	H81	H	0.391565	0.086846	0.087829
	H82	H	0.618623	0.907802	0.085581
	H83	H	0.392138	0.909752	0.913965
	H84	H	0.617510	0.915235	0.088259
	H85	H	0.390015	0.094031	0.087880
	H86	H	0.615034	0.096268	0.920497
	H87	H	0.391898	0.913316	0.910333
	H88	H	0.914986	0.089067	0.614991
	H89	H	0.089827	0.090634	0.388159
	H90	H	0.090549	0.914981	0.614514
	H91	H	0.909928	0.911295	0.385123
	H92	H	0.098044	0.614332	0.912987
	H93	H	0.090821	0.387810	0.095466
	H94	H	0.915211	0.613551	0.094206
	H95	H	0.910964	0.389031	0.918651
	H96	H	0.421754	0.115238	0.596167
	H97	H	0.595934	0.890575	0.587723
	H98	H	0.597123	0.116616	0.409839
	H99	H	0.412200	0.892123	0.414409
	H100	H	0.596121	0.411693	0.117186
	H101	H	0.590485	0.590190	0.886182
	H102	H	0.418076	0.591923	0.113702
	H103	H	0.422069	0.417415	0.891074
	H104	H	0.119147	0.591748	0.411199
	H105	H	0.887626	0.602824	0.592735
	H106	H	0.116845	0.414077	0.585981
	H107	H	0.891480	0.409353	0.418553
	H108	H	0.911505	0.612822	0.089977
	H109	H	0.091861	0.390409	0.084853
	H110	H	0.092972	0.612868	0.912452
	H111	H	0.918769	0.387808	0.907821
	H112	H	0.092541	0.908799	0.617448
	H113	H	0.090623	0.086470	0.389541
	H114	H	0.918967	0.085549	0.612453
	H115	H	0.918003	0.910635	0.387582
	H116	H	0.613058	0.081497	0.915406
	H117	H	0.392729	0.090569	0.081804
	H118	H	0.621478	0.909452	0.093155
	H119	H	0.389366	0.909624	0.909296
	C120	C	0.382981	0.011014	0.620609
	C121	C	0.626524	0.994850	0.621194
	C122	C	0.626143	0.011561	0.378196
	C123	C	0.380981	0.994621	0.376798
	C124	C	0.624666	0.380042	0.009132
	C125	C	0.625726	0.622082	0.990805
	C126	C	0.384021	0.622984	0.008236
	C127	C	0.384116	0.380480	0.992699
	C128	C	0.013738	0.623593	0.381097
	C129	C	0.995949	0.625249	0.625239
	C130	C	0.013594	0.381572	0.622216
	C131	C	0.996529	0.380828	0.380953
	C132	C	0.880421	0.509762	0.125462
	C133	C	0.125315	0.492344	0.121862
	C134	C	0.128333	0.510143	0.879875
	C135	C	0.884946	0.493573	0.882285
	C136	C	0.124768	0.881243	0.510170
	C137	C	0.124739	0.123296	0.492638
	C138	C	0.884519	0.122713	0.509344
	C139	C	0.882503	0.879708	0.492188
	C140	C	0.512542	0.123800	0.878983
	C141	C	0.495404	0.123417	0.120369
	C142	C	0.513669	0.880245	0.120002
	C143	C	0.496199	0.879984	0.877773
	C144	C	0.381008	0.892682	0.680981
	C145	C	0.629482	0.112555	0.683087
	C146	C	0.624245	0.891386	0.321503
	C147	C	0.379211	0.113081	0.316448
	C148	C	0.687143	0.377312	0.889638
	C149	C	0.682959	0.623423	0.112566
	C150	C	0.322987	0.624349	0.888611
	C151	C	0.322422	0.377294	0.112584
	C152	C	0.892562	0.680120	0.382118
	C153	C	0.115256	0.684932	0.627042
	C154	C	0.896938	0.317541	0.630623
	C155	C	0.114091	0.317918	0.374306
	C156	C	0.895750	0.378078	0.685634
	C157	C	0.116518	0.625904	0.683307
	C158	C	0.892388	0.621800	0.324622
	C159	C	0.115491	0.378387	0.319345
	C160	C	0.379797	0.682837	0.888051
	C161	C	0.627374	0.683164	0.110721
	C162	C	0.630203	0.318890	0.889730
	C163	C	0.377735	0.317590	0.111114
	C164	C	0.683214	0.891833	0.378829
	C165	C	0.688949	0.111983	0.626184
	C166	C	0.322674	0.892782	0.623317
	C167	C	0.319755	0.112554	0.373463
	C168	C	0.879198	0.391277	0.185402
	C169	C	0.123561	0.612784	0.178463
	C170	C	0.130520	0.392154	0.818157
	C171	C	0.883808	0.612460	0.823554
	C172	C	0.183527	0.879598	0.388917
	C173	C	0.187557	0.127570	0.611249
	C174	C	0.825650	0.125465	0.388461
	C175	C	0.823712	0.881338	0.613083
	C176	C	0.395264	0.186719	0.872817
	C177	C	0.613766	0.184867	0.125200
	C178	C	0.393977	0.821205	0.121569
	C179	C	0.615277	0.820049	0.872997
	C180	C	0.393135	0.880012	0.178809
	C181	C	0.614985	0.125196	0.180435
	C182	C	0.394245	0.127014	0.817178
	C183	C	0.615987	0.880352	0.818051
	C184	C	0.880223	0.185699	0.390874
	C185	C	0.131817	0.186957	0.610469
	C186	C	0.126006	0.821563	0.389735
	C187	C	0.880974	0.823191	0.613814
	C188	C	0.188869	0.391838	0.875624
	C189	C	0.183781	0.611733	0.122418
	C190	C	0.820079	0.391460	0.128722
	C191	C	0.824020	0.611189	0.880117
	C192	C	0.408750	0.092597	0.594450
	C193	C	0.601013	0.912973	0.594890
	C194	C	0.603231	0.095218	0.401779
	C195	C	0.406043	0.912423	0.402190
	C196	C	0.597858	0.405413	0.092427
	C197	C	0.601804	0.597446	0.906734
	C198	C	0.409998	0.598723	0.091948
	C199	C	0.411022	0.406531	0.909810
	C200	C	0.098123	0.601237	0.404310
	C201	C	0.912126	0.601072	0.601356
	C202	C	0.095218	0.408328	0.593835
	C203	C	0.914096	0.406556	0.408496
	C204	C	0.905000	0.592304	0.100273
	C205	C	0.101253	0.409548	0.097177
	C206	C	0.102868	0.591762	0.906359
	C207	C	0.910405	0.411226	0.907867
	C208	C	0.100678	0.905602	0.594399
	C209	C	0.096862	0.096265	0.410422
	C210	C	0.910668	0.096142	0.592296
	C211	C	0.906952	0.902128	0.407346
	C212	C	0.594706	0.097400	0.906050
	C213	C	0.413006	0.097973	0.093485
	C214	C	0.597285	0.903937	0.095746
	C215	C	0.412759	0.904143	0.903795
	Zn216	Zn	0.504414	0.002525	0.750537
	Zn217	Zn	0.504262	0.002990	0.248484
	Zn218	Zn	0.753401	0.499882	0.002464
	Zn219	Zn	0.256407	0.501164	0.001126
	Zn220	Zn	0.004445	0.752039	0.502732
	Zn221	Zn	0.004700	0.252105	0.501716
	Zn222	Zn	0.006400	0.502241	0.751540
	Zn223	Zn	0.004368	0.501358	0.252054
	Zn224	Zn	0.504962	0.751038	-0.002078
	Zn225	Zn	0.503701	0.252079	0.000355
	Zn226	Zn	0.755808	0.003276	0.499748
	Zn227	Zn	0.252921	0.002978	0.499922
	N228	N	0.417513	0.967182	0.679823
	N229	N	0.591255	0.038867	0.679948
	N230	N	0.589891	0.967131	0.320757
	N231	N	0.416385	0.038800	0.318362
	N232	N	0.683931	0.414384	0.965121
	N233	N	0.682091	0.586095	0.037132
	N234	N	0.325788	0.587654	0.964167
	N235	N	0.326336	0.415821	0.037957
	N236	N	0.969080	0.681363	0.416395
	N237	N	0.039078	0.684964	0.592328
	N238	N	0.971272	0.319768	0.591790
	N239	N	0.039102	0.319457	0.411955
	N240	N	0.969290	0.417342	0.680443
	N241	N	0.041064	0.589854	0.682606
	N242	N	0.968598	0.587357	0.323671
	N243	N	0.041402	0.416939	0.323603
	N244	N	0.417370	0.682047	0.963456
	N245	N	0.592860	0.682744	0.033963
	N246	N	0.592137	0.320475	0.964969
	N247	N	0.415288	0.319539	0.035563
	N248	N	0.684807	0.967769	0.412901
	N249	N	0.687173	0.037909	0.588391
	N250	N	0.323459	0.967658	0.586815
	N251	N	0.320685	0.037898	0.410267
	N252	N	0.915824	0.465870	0.183646
	N253	N	0.088401	0.537638	0.178434
	N254	N	0.093750	0.466618	0.820449
	N255	N	0.920881	0.538046	0.824631
	N256	N	0.182915	0.916076	0.464621
	N257	N	0.183149	0.088684	0.536814
	N258	N	0.828234	0.086965	0.463236
	N259	N	0.824620	0.916022	0.536370
	N260	N	0.469971	0.184765	0.910289
	N261	N	0.538336	0.183971	0.088706
	N262	N	0.469930	0.820939	0.086126
	N263	N	0.539374	0.819459	0.908884
	N264	N	0.468593	0.916124	0.177987
	N265	N	0.540435	0.087965	0.177683
	N266	N	0.468303	0.088286	0.821061
	N267	N	0.540783	0.916700	0.820769
	N268	N	0.916054	0.184265	0.467216
	N269	N	0.093331	0.184171	0.535811
	N270	N	0.090386	0.822313	0.466174
	N271	N	0.917143	0.822333	0.537697
	N272	N	0.187887	0.466208	0.912917
	N273	N	0.185286	0.535744	0.088291
	N274	N	0.820551	0.466237	0.092319
	N275	N	0.824605	0.536203	0.915786
	O276	O	0.659792	0.401196	0.441679
	H277	H	0.660905	0.393483	0.460970
	H278	H	0.625989	0.393595	0.448469
	O279	O	0.817870	0.102279	0.830699
	H280	H	0.826284	0.090056	0.823440
	H281	H	0.805713	0.129240	0.843790
	O282	O	0.699622	0.597204	0.485641
	H283	H	0.700783	0.593375	0.471496
	H284	H	0.692668	0.582369	0.487697
	O285	O	0.481627	0.619520	0.611382
	H286	H	0.492235	0.629116	0.609915
	H287	H	0.500107	0.621985	0.597891
	O288	O	0.341926	0.678022	0.530981
	H289	H	0.322667	0.679526	0.525963
	H290	H	0.353287	0.699546	0.524800
	O291	O	0.601196	0.341393	0.299153
	H292	H	0.582762	0.369159	0.294010
	H293	H	0.596986	0.322411	0.309261
	O294	O	-0.007512	0.201776	0.797918
	H295	H	-0.018303	0.191931	0.798308
	H296	H	0.000351	0.218782	0.779363
	O297	O	0.352308	0.483742	0.293930
	H298	H	0.343762	0.475594	0.301244
	H299	H	0.342431	0.470156	0.281733
	O300	O	0.324283	0.470784	0.600414
	H301	H	0.317694	0.460688	0.601242
	H302	H	0.312832	0.467525	0.599014
	O303	O	0.441220	0.497521	0.537990
	H304	H	0.444293	0.477385	0.548328
	H305	H	0.426724	0.508761	0.530224
	O306	O	0.559689	0.413637	0.296951
	H307	H	0.560849	0.421947	0.299333
	H308	H	0.570658	0.407629	0.294598
	O309	O	0.986822	0.999033	0.025752
	H310	H	0.965151	0.999266	0.023735
	H311	H	0.978056	1.007008	0.014538
	O312	O	0.015504	1.205255	1.196084
	H313	H	-0.002960	1.208156	1.181341
	H314	H	-0.006276	1.201472	1.215341
	O315	O	0.194110	-0.180906	0.827554
	H316	H	0.172217	-0.170698	0.823162
	H317	H	0.203139	-0.186140	0.862274
	O318	O	1.210580	0.208952	0.017112
	H319	H	1.235370	0.226609	0.008050
	H320	H	1.202355	0.196793	-0.006973
	O321	O	-0.149480	0.199233	-0.074742
	H322	H	-0.158875	0.201418	-0.049069
	H323	H	-0.130689	0.188754	-0.076676
	O324	O	0.431298	0.661031	0.292827
	H325	H	0.410469	0.662693	0.287842
	H326	H	0.413152	0.676997	0.280416
	O327	O	0.410238	0.612742	0.534146
	H328	H	0.421915	0.613869	0.521471
	H329	H	0.409443	0.624762	0.543224
	O330	O	0.158637	1.060569	-0.107455
	H331	H	0.167097	1.065695	-0.102016
	H332	H	0.166743	1.066173	-0.115785
	O333	O	0.719497	0.535610	0.709821
	H334	H	0.725769	0.522675	0.719844
	H335	H	0.722952	0.527422	0.714192
	O336	O	0.180837	0.185612	0.181461
	H337	H	0.180233	0.197111	0.139493
	H338	H	0.138046	0.195923	0.178604
	O339	O	0.187360	0.825501	1.176129
	H340	H	0.169404	0.840749	1.160563
	H341	H	0.178104	0.848273	1.158546
	O342	O	-0.116289	1.065572	0.925757
	H343	H	-0.109314	1.059242	0.919596
	H344	H	-0.126121	1.053816	0.937407
	O345	O	0.820010	0.825302	0.196106
	H346	H	0.799301	0.798492	0.221320
	H347	H	0.865262	0.820923	0.200502
	O348	O	0.388486	0.363375	0.402188
	H349	H	0.395923	0.356878	0.397919
	H350	H	0.407560	0.363285	0.403868
	O351	O	-0.045723	0.815632	0.970705
	H352	H	-0.043807	0.810467	0.975283
	H353	H	-0.057030	0.836695	0.969949
	O354	O	0.117446	0.806460	0.006594
	H355	H	0.106833	0.812872	0.007244
	H356	H	0.117981	0.821323	0.009405
	O357	O	-0.008439	-0.189082	1.187055
	H358	H	0.011603	-0.176083	1.174038
	H359	H	0.006265	-0.182628	1.201245
	O360	O	0.533597	0.719766	0.713586
	H361	H	0.550091	0.742458	0.737088
	H362	H	0.569972	0.725563	0.711747
	O363	O	-0.705219	0.300619	0.519745
	H364	H	-0.710117	0.297064	0.512751
	H365	H	-0.715415	0.298287	0.505945
	O366	O	0.024236	1.214536	-0.010759
	H367	H	0.018224	1.212680	-0.025524
	H368	H	0.027354	1.211847	-0.004295
	O369	O	0.615244	0.392854	0.504878
	H370	H	0.607282	0.404295	0.512869
	H371	H	0.611887	0.391616	0.507497
	O372	O	0.985221	-0.051350	0.800449
	H373	H	0.996154	-0.059571	0.798828
	H374	H	1.000241	-0.062649	0.812192
	O375	O	0.666222	0.472216	0.291229
	H376	H	0.665273	0.440325	0.286199
	H377	H	0.674664	0.472817	0.274096
	O378	O	1.182020	0.909952	1.033039
	H379	H	1.179438	0.928463	1.037353
	H380	H	1.171637	0.923474	1.036134
	O381	O	0.683820	0.288772	0.497179
	H382	H	0.701886	0.289561	0.506640
	H383	H	0.697023	0.299408	0.510619
	O384	O	1.047344	-0.025782	0.156148
	H385	H	1.034785	-0.015163	0.154665
	H386	H	1.063067	-0.002597	0.158447
	O387	O	-0.190791	-0.013563	0.977405
	H388	H	-0.205199	-0.033759	0.969996
	H389	H	-0.201399	-0.014368	0.958503
	O390	O	0.219593	0.030204	0.215722
	H391	H	0.211401	0.074972	0.212530
	H392	H	0.250016	0.042834	0.245121
	O393	O	1.034400	0.787453	0.788900
	H394	H	1.049957	0.764910	0.767334
	H395	H	1.020574	0.782414	0.792074
	O396	O	0.805204	-0.023043	0.218880
	H397	H	0.781208	-0.040162	0.238804
	H398	H	0.805453	-0.057567	0.217869
	O399	O	0.306975	0.704580	0.301390
	H400	H	0.290932	0.699216	0.306384
	H401	H	0.284997	0.704193	0.287998
	O402	O	1.164869	1.123007	0.887678
	H403	H	1.156201	1.102749	0.901981
	H404	H	1.171909	1.116326	0.862712
	O405	O	0.538676	1.501986	0.298620
	H406	H	0.529157	1.511367	0.298198
	H407	H	0.524452	1.508048	0.293024
	O408	O	1.720448	-0.369905	-0.665284
	H409	H	1.718932	-0.382729	-0.647510
	H410	H	1.710065	-0.373501	-0.663706
	O411	O	1.388940	1.491654	0.601104
	H412	H	1.385306	1.504296	0.597247
	H413	H	1.385357	1.508814	0.619495
	O414	O	0.641657	0.698343	0.629010
	H415	H	0.652426	0.682770	0.622476
	H416	H	0.652483	0.687892	0.615143
	O417	O	-0.160312	0.169672	0.087382
	H418	H	-0.158565	0.149038	0.075141
	H419	H	-0.195141	0.177769	0.096029
	O420	O	0.355161	0.593368	0.527980
	H421	H	0.357671	0.586739	0.518100
	H422	H	0.362699	0.608491	0.520411
	O423	O	0.470354	0.513486	0.567229
	H424	H	0.454422	0.514090	0.562943
	H425	H	0.466745	0.520625	0.570501
	O426	O	0.517561	0.282718	0.610200
	H427	H	0.542403	0.283613	0.609796
	H428	H	0.519755	0.268832	0.644330
	O429	O	0.622304	0.687545	0.396687
	H430	H	0.624217	0.683495	0.405460
	H431	H	0.593445	0.681962	0.388783
	O432	O	0.521666	0.354176	0.710412
	H433	H	0.514374	0.348996	0.727771
	H434	H	0.493201	0.373098	0.708039
	O435	O	-0.094821	0.089517	1.040981
	H436	H	-0.097884	0.101500	1.030711
	H437	H	-0.110508	0.071503	1.030518
	O438	O	-0.151702	-0.208434	-0.154944
	H439	H	-0.143224	-0.179091	-0.151766
	H440	H	-0.157814	-0.225262	-0.135041
	O441	O	0.907294	-0.005002	-0.043582
	H442	H	0.914591	-0.008772	-0.049416
	H443	H	0.904746	0.010116	-0.047849
	O444	O	0.219894	0.978800	0.787357
	H445	H	0.214281	0.967100	0.800597
	H446	H	0.245027	0.969330	0.758139
	O447	O	0.787965	-0.211075	1.023924
	H448	H	0.790875	-0.217067	1.057072
	H449	H	0.772408	-0.229275	1.036477
	O450	O	0.318272	0.313104	0.687399
	H451	H	0.341688	0.303062	0.669110
	H452	H	0.311734	0.344661	0.673274
	O453	O	0.605618	0.440753	0.630391
	H454	H	0.578074	0.449668	0.633206
	H455	H	0.598810	0.467263	0.629798
