data_Molecule from HDF5

_cell_length_a		16.229598
_cell_length_b		16.255293
_cell_length_c		16.270792
_cell_angle_alpha	90.047409
_cell_angle_beta	89.964397
_cell_angle_gamma	90.178232
_symmetry_space_group_name_H-M	'P 1'
_symmetry_Int_Tables_number		1

loop_
	_symmetry_equiv_pos_as_xyz
	x,y,z

loop_
	_atom_site_label
	_atom_site_type_symbol
	_atom_site_fract_x
	_atom_site_fract_y
	_atom_site_fract_z
	H0	H	0.400493	0.839060	0.714715
	H1	H	0.599528	0.166667	0.714440
	H2	H	0.597966	0.838672	0.284823
	H3	H	0.402074	0.167139	0.287044
	H4	H	0.712554	0.405355	0.835523
	H5	H	0.714561	0.602084	0.163962
	H6	H	0.286328	0.599971	0.836298
	H7	H	0.284912	0.404165	0.163684
	H8	H	0.835221	0.715088	0.402589
	H9	H	0.164040	0.716875	0.598680
	H10	H	0.835451	0.288641	0.597522
	H11	H	0.164433	0.288779	0.402442
	H12	H	0.835920	0.403594	0.713865
	H13	H	0.164162	0.599856	0.713815
	H14	H	0.835991	0.600867	0.285504
	H15	H	0.164553	0.403539	0.286256
	H16	H	0.401862	0.715838	0.835987
	H17	H	0.598284	0.717690	0.163887
	H18	H	0.597445	0.288555	0.835935
	H19	H	0.400841	0.288269	0.164268
	H20	H	0.713391	0.837942	0.400727
	H21	H	0.715542	0.166113	0.597824
	H22	H	0.285374	0.837860	0.598490
	H23	H	0.286455	0.166422	0.402312
	H24	H	0.901854	0.337044	0.213795
	H25	H	0.099657	0.665696	0.215700
	H26	H	0.097526	0.338005	0.786763
	H27	H	0.902525	0.665856	0.786578
	H28	H	0.213721	0.904296	0.335811
	H29	H	0.214981	0.101197	0.663766
	H30	H	0.787971	0.098811	0.334434
	H31	H	0.785811	0.903931	0.663297
	H32	H	0.335177	0.214542	0.903114
	H33	H	0.664641	0.217162	0.098645
	H34	H	0.336605	0.787331	0.098707
	H35	H	0.664518	0.788534	0.901020
	H36	H	0.336053	0.903613	0.214400
	H37	H	0.664187	0.100696	0.213272
	H38	H	0.336324	0.100956	0.786166
	H39	H	0.664293	0.904353	0.785987
	H40	H	0.902024	0.216730	0.336238
	H41	H	0.098465	0.215992	0.663896
	H42	H	0.098302	0.787056	0.336334
	H43	H	0.900942	0.788410	0.663980
	H44	H	0.212587	0.337766	0.903187
	H45	H	0.213740	0.666769	0.098212
	H46	H	0.784720	0.338329	0.097933
	H47	H	0.787680	0.667098	0.903025
	H48	H	0.421311	0.113546	0.588145
	H49	H	0.602188	0.881131	0.599068
	H50	H	0.609845	0.125375	0.401777
	H51	H	0.407452	0.885674	0.405839
	H52	H	0.591161	0.421818	0.112900
	H53	H	0.594324	0.594308	0.882861
	H54	H	0.412472	0.596550	0.115522
	H55	H	0.404726	0.408047	0.883007
	H56	H	0.115984	0.591474	0.408603
	H57	H	0.882753	0.595030	0.593501
	H58	H	0.114952	0.410663	0.589052
	H59	H	0.881982	0.403736	0.407917
	H60	H	0.117838	0.412786	0.597966
	H61	H	0.882240	0.595382	0.594998
	H62	H	0.117871	0.595920	0.405157
	H63	H	0.885591	0.411675	0.410712
	H64	H	0.404438	0.599434	0.118636
	H65	H	0.592535	0.595840	0.884096
	H66	H	0.583013	0.402605	0.116081
	H67	H	0.406392	0.409670	0.883697
	H68	H	0.582063	0.119256	0.394911
	H69	H	0.582053	0.887969	0.598708
	H70	H	0.394714	0.119910	0.583645
	H71	H	0.407582	0.886096	0.407368
	H72	H	0.901216	0.621203	0.095548
	H73	H	0.106116	0.378902	0.101692
	H74	H	0.088050	0.615800	0.913573
	H75	H	0.904287	0.386716	0.914498
	H76	H	0.094604	0.912147	0.615919
	H77	H	0.086472	0.096844	0.385309
	H78	H	0.899102	0.098926	0.619670
	H79	H	0.912564	0.908003	0.384587
	H80	H	0.619147	0.101216	0.904318
	H81	H	0.382769	0.100175	0.090187
	H82	H	0.616701	0.915761	0.094189
	H83	H	0.383784	0.912267	0.908703
	H84	H	0.619886	0.906241	0.096551
	H85	H	0.384842	0.090392	0.091518
	H86	H	0.615800	0.096628	0.912783
	H87	H	0.382846	0.908935	0.903775
	H88	H	0.907879	0.086783	0.613343
	H89	H	0.098223	0.101131	0.379576
	H90	H	0.090072	0.909483	0.615580
	H91	H	0.904173	0.902052	0.380710
	H92	H	0.102348	0.621761	0.908281
	H93	H	0.077483	0.387341	0.101978
	H94	H	0.912888	0.618856	0.099132
	H95	H	0.899721	0.382049	0.902356
	H96	H	0.405839	0.124167	0.609415
	H97	H	0.593315	0.888656	0.581314
	H98	H	0.591359	0.113812	0.422040
	H99	H	0.406488	0.886123	0.406773
	H100	H	0.603499	0.405851	0.121449
	H101	H	0.594407	0.597044	0.883304
	H102	H	0.405217	0.590324	0.115986
	H103	H	0.406715	0.407518	0.882907
	H104	H	0.115967	0.597400	0.410910
	H105	H	0.882630	0.596443	0.593599
	H106	H	0.120373	0.403728	0.595140
	H107	H	0.882057	0.411389	0.402707
	H108	H	0.909171	0.616540	0.087286
	H109	H	0.093542	0.389376	0.077399
	H110	H	0.089771	0.620878	0.897962
	H111	H	0.912982	0.386476	0.903317
	H112	H	0.094111	0.907328	0.617930
	H113	H	0.096299	0.088710	0.384223
	H114	H	0.914085	0.100938	0.615240
	H115	H	0.902423	0.912276	0.382844
	H116	H	0.617101	0.091406	0.904073
	H117	H	0.380859	0.096729	0.098948
	H118	H	0.615748	0.908285	0.086849
	H119	H	0.383150	0.906400	0.909014
	C120	C	0.378203	0.010878	0.621945
	C121	C	0.621783	0.994325	0.621323
	C122	C	0.621975	0.010841	0.378028
	C123	C	0.378665	0.994416	0.378193
	C124	C	0.621216	0.381595	0.008301
	C125	C	0.622026	0.624646	0.991592
	C126	C	0.378652	0.624017	0.008532
	C127	C	0.377637	0.380322	0.991748
	C128	C	0.007924	0.623298	0.379391
	C129	C	0.991039	0.623978	0.622097
	C130	C	0.008999	0.380731	0.621760
	C131	C	0.991870	0.380625	0.378747
	C132	C	0.878488	0.510408	0.122425
	C133	C	0.121356	0.493686	0.121969
	C134	C	0.121239	0.510610	0.878899
	C135	C	0.878067	0.493885	0.878560
	C136	C	0.121430	0.880727	0.508331
	C137	C	0.121987	0.124146	0.491519
	C138	C	0.878631	0.123752	0.507637
	C139	C	0.878245	0.879979	0.491323
	C140	C	0.508601	0.124064	0.878860
	C141	C	0.491587	0.124613	0.121773
	C142	C	0.508964	0.881267	0.121153
	C143	C	0.491576	0.880624	0.878317
	C144	C	0.380212	0.887651	0.676686
	C145	C	0.619890	0.117667	0.676622
	C146	C	0.618701	0.887455	0.322696
	C147	C	0.381640	0.117941	0.324144
	C148	C	0.675554	0.384444	0.884715
	C149	C	0.676827	0.622765	0.115104
	C150	C	0.323787	0.620905	0.885229
	C151	C	0.323122	0.383800	0.115013
	C152	C	0.884349	0.677603	0.382088
	C153	C	0.114897	0.679256	0.619633
	C154	C	0.884811	0.325880	0.618674
	C155	C	0.115485	0.326088	0.381477
	C156	C	0.884857	0.383179	0.676162
	C157	C	0.114965	0.621119	0.676704
	C158	C	0.884616	0.620499	0.324251
	C159	C	0.115503	0.383210	0.323881
	C160	C	0.381402	0.678432	0.885077
	C161	C	0.619128	0.680010	0.114943
	C162	C	0.618222	0.326345	0.884850
	C163	C	0.380468	0.326020	0.115163
	C164	C	0.675959	0.887122	0.380464
	C165	C	0.677085	0.117539	0.618422
	C166	C	0.323180	0.887162	0.618659
	C167	C	0.324401	0.117814	0.381752
	C168	C	0.880985	0.386526	0.176709
	C169	C	0.119829	0.617060	0.177641
	C170	C	0.118083	0.386963	0.824270
	C171	C	0.881716	0.617196	0.824389
	C172	C	0.176144	0.883358	0.384795
	C173	C	0.176645	0.121376	0.614968
	C174	C	0.824867	0.119970	0.383925
	C175	C	0.823603	0.883455	0.614554
	C176	C	0.384553	0.177708	0.882168
	C177	C	0.615264	0.179820	0.118985
	C178	C	0.385420	0.825638	0.119038
	C179	C	0.615401	0.825917	0.880471
	C180	C	0.385097	0.883440	0.176236
	C181	C	0.615331	0.122028	0.175981
	C182	C	0.385070	0.121115	0.823994
	C183	C	0.615241	0.883354	0.823134
	C184	C	0.881570	0.178489	0.384577
	C185	C	0.118873	0.178690	0.614840
	C186	C	0.118780	0.825091	0.385178
	C187	C	0.880598	0.825749	0.614933
	C188	C	0.175420	0.386977	0.881967
	C189	C	0.176617	0.617425	0.119291
	C190	C	0.823107	0.386963	0.119054
	C191	C	0.824588	0.617673	0.881962
	C192	C	0.400692	0.096955	0.600220
	C193	C	0.599243	0.908240	0.599528
	C194	C	0.600756	0.097014	0.399770
	C195	C	0.400696	0.908240	0.400291
	C196	C	0.599025	0.403505	0.094473
	C197	C	0.600088	0.602372	0.905736
	C198	C	0.400754	0.601971	0.094557
	C199	C	0.399572	0.401991	0.905323
	C200	C	0.094378	0.601465	0.401595
	C201	C	0.904877	0.602127	0.600479
	C202	C	0.095119	0.402559	0.600444
	C203	C	0.905350	0.402289	0.400753
	C204	C	0.901049	0.596576	0.100578
	C205	C	0.099019	0.407748	0.100000
	C206	C	0.099673	0.597141	0.900371
	C207	C	0.899281	0.407311	0.900295
	C208	C	0.099452	0.903048	0.594348
	C209	C	0.100146	0.102127	0.405222
	C210	C	0.900570	0.101910	0.593839
	C211	C	0.900028	0.901167	0.404902
	C212	C	0.595022	0.102720	0.900560
	C213	C	0.405233	0.102533	0.100038
	C214	C	0.594985	0.903544	0.099152
	C215	C	0.405548	0.902606	0.900669
	Zn216	Zn	0.500398	0.002203	0.750544
	Zn217	Zn	0.500149	0.002781	0.249601
	Zn218	Zn	0.750037	0.503195	0.000023
	Zn219	Zn	0.249820	0.502496	0.000093
	Zn220	Zn	-0.000506	0.751980	0.500729
	Zn221	Zn	0.000176	0.252580	0.500279
	Zn222	Zn	-0.000191	0.501823	0.750384
	Zn223	Zn	0.000365	0.501990	0.250841
	Zn224	Zn	0.500220	0.752581	-0.000484
	Zn225	Zn	0.499897	0.252666	0.000305
	Zn226	Zn	0.750367	0.001749	0.499355
	Zn227	Zn	0.250234	0.002356	0.499937
	N228	N	0.413884	0.965327	0.678826
	N229	N	0.585825	0.039992	0.678334
	N230	N	0.585823	0.965321	0.321070
	N231	N	0.414626	0.040074	0.321698
	N232	N	0.677383	0.418181	0.962417
	N233	N	0.678680	0.589006	0.037599
	N234	N	0.321886	0.587942	0.963089
	N235	N	0.321351	0.416930	0.037297
	N236	N	0.962054	0.679335	0.415776
	N237	N	0.037002	0.681242	0.586748
	N238	N	0.962763	0.324375	0.585460
	N239	N	0.037608	0.324386	0.414867
	N240	N	0.962635	0.416703	0.678327
	N241	N	0.036975	0.587501	0.678587
	N242	N	0.962604	0.587332	0.322700
	N243	N	0.037661	0.416434	0.322217
	N244	N	0.414793	0.680363	0.962634
	N245	N	0.585914	0.681464	0.037201
	N246	N	0.585101	0.324596	0.962611
	N247	N	0.413624	0.323805	0.037419
	N248	N	0.677948	0.964718	0.414160
	N249	N	0.678482	0.039910	0.584999
	N250	N	0.321644	0.964975	0.585462
	N251	N	0.322350	0.039879	0.414630
	N252	N	0.914733	0.464424	0.178808
	N253	N	0.086332	0.539371	0.179589
	N254	N	0.085103	0.464886	0.822295
	N255	N	0.914167	0.539243	0.822044
	N256	N	0.177857	0.917261	0.462330
	N257	N	0.178591	0.088041	0.537194
	N258	N	0.823007	0.086672	0.461628
	N259	N	0.821875	0.916192	0.536675
	N260	N	0.462380	0.179918	0.915491
	N261	N	0.537265	0.181276	0.085698
	N262	N	0.463123	0.824319	0.085512
	N263	N	0.537639	0.824275	0.914147
	N264	N	0.462877	0.917641	0.177646
	N265	N	0.537627	0.088494	0.177769
	N266	N	0.463287	0.088532	0.821734
	N267	N	0.537412	0.916767	0.821780
	N268	N	0.914239	0.180917	0.462439
	N269	N	0.085971	0.180752	0.536959
	N270	N	0.085613	0.823391	0.463071
	N271	N	0.913990	0.823774	0.537336
	N272	N	0.177271	0.464797	0.915300
	N273	N	0.177845	0.539826	0.085359
	N274	N	0.821298	0.464852	0.086150
	N275	N	0.822540	0.539873	0.915195
	O276	O	0.060666	-0.024537	0.985657
	H277	H	0.052875	-0.023907	0.988663
	H278	H	0.065625	-0.024674	0.980961
	O279	O	0.519174	0.525214	0.477012
	H280	H	0.521298	0.525035	0.480174
	H281	H	0.518791	0.528410	0.466947
	O282	O	0.495957	0.526690	0.513275
	H283	H	0.492141	0.524893	0.508553
	H284	H	0.500232	0.533937	0.516724
	O285	O	0.505683	0.510287	0.467571
	H286	H	0.509205	0.511036	0.476929
	H287	H	0.503603	0.509958	0.468804
	O288	O	0.501920	0.505473	0.445979
	H289	H	0.493729	0.506628	0.441222
	H290	H	0.504268	0.507589	0.439985
	O291	O	0.054692	0.965183	0.982257
	H292	H	0.057477	0.963679	0.980124
	H293	H	0.057501	0.964588	0.986243
	O294	O	0.454873	0.489645	0.435895
	H295	H	0.465440	0.479621	0.449104
	H296	H	0.451760	0.481467	0.424730
	O297	O	1.064140	-0.044864	-0.030264
	H298	H	1.070941	-0.052456	-0.032164
	H299	H	1.066710	-0.044173	-0.025640
