data_Molecule from HDF5

_cell_length_a		16.394278
_cell_length_b		16.237521
_cell_length_c		16.039611
_cell_angle_alpha	90.028599
_cell_angle_beta	89.712219
_cell_angle_gamma	90.458350
_symmetry_space_group_name_H-M	'P 1'
_symmetry_Int_Tables_number		1

loop_
	_symmetry_equiv_pos_as_xyz
	x,y,z

loop_
	_atom_site_label
	_atom_site_type_symbol
	_atom_site_fract_x
	_atom_site_fract_y
	_atom_site_fract_z
	H0	H	0.405530	0.832198	0.713122
	H1	H	0.603288	0.159680	0.715569
	H2	H	0.599964	0.832372	0.288623
	H3	H	0.410830	0.161615	0.289060
	H4	H	0.721956	0.395060	0.838319
	H5	H	0.718957	0.599728	0.166135
	H6	H	0.290963	0.597241	0.836353
	H7	H	0.286106	0.395352	0.165667
	H8	H	0.841117	0.714078	0.400857
	H9	H	0.165699	0.716125	0.599211
	H10	H	0.843194	0.278909	0.603795
	H11	H	0.166321	0.283326	0.398165
	H12	H	0.841345	0.398603	0.717257
	H13	H	0.166790	0.598654	0.713867
	H14	H	0.839744	0.593459	0.288548
	H15	H	0.166727	0.403502	0.286111
	H16	H	0.407855	0.708099	0.835367
	H17	H	0.601011	0.710933	0.167000
	H18	H	0.602921	0.283650	0.836065
	H19	H	0.402586	0.282457	0.167683
	H20	H	0.721195	0.834896	0.396295
	H21	H	0.722703	0.158186	0.604695
	H22	H	0.283820	0.836298	0.605558
	H23	H	0.290156	0.160345	0.399140
	H24	H	0.903633	0.333706	0.214768
	H25	H	0.101595	0.662950	0.211995
	H26	H	0.104435	0.334900	0.783518
	H27	H	0.909498	0.663293	0.789383
	H28	H	0.221270	0.897047	0.337316
	H29	H	0.221764	0.102733	0.665901
	H30	H	0.788812	0.100926	0.338001
	H31	H	0.786125	0.892309	0.664700
	H32	H	0.342516	0.214230	0.897649
	H33	H	0.664596	0.218007	0.104306
	H34	H	0.342164	0.777850	0.103029
	H35	H	0.665778	0.779066	0.897196
	H36	H	0.341636	0.896192	0.217198
	H37	H	0.668159	0.095202	0.213732
	H38	H	0.340714	0.092325	0.786550
	H39	H	0.665826	0.896703	0.783598
	H40	H	0.906349	0.211724	0.336669
	H41	H	0.105073	0.215065	0.665617
	H42	H	0.101386	0.787310	0.335073
	H43	H	0.903945	0.783468	0.666368
	H44	H	0.221216	0.335689	0.896040
	H45	H	0.222834	0.659995	0.103201
	H46	H	0.782692	0.336990	0.107904
	H47	H	0.786787	0.659316	0.897242
	H48	H	0.411056	0.116442	0.597182
	H49	H	0.587790	0.879019	0.599971
	H50	H	0.600239	0.115788	0.404592
	H51	H	0.416055	0.886141	0.423097
	H52	H	0.591399	0.414459	0.116524
	H53	H	0.595386	0.582457	0.885075
	H54	H	0.407134	0.581094	0.119162
	H55	H	0.406025	0.403232	0.880774
	H56	H	0.119628	0.589833	0.405822
	H57	H	0.886844	0.594914	0.595047
	H58	H	0.119328	0.410389	0.593943
	H59	H	0.889853	0.416567	0.401114
	H60	H	0.121206	0.404449	0.592126
	H61	H	0.888494	0.589820	0.591610
	H62	H	0.121123	0.597003	0.402463
	H63	H	0.882075	0.389350	0.401482
	H64	H	0.418631	0.587174	0.117751
	H65	H	0.594163	0.590158	0.883018
	H66	H	0.588378	0.401256	0.120251
	H67	H	0.412402	0.410686	0.885708
	H68	H	0.595773	0.112395	0.411837
	H69	H	0.593880	0.883274	0.579005
	H70	H	0.418289	0.113149	0.593826
	H71	H	0.396819	0.876902	0.412029
	H72	H	0.901523	0.618085	0.092950
	H73	H	0.100011	0.381651	0.087713
	H74	H	0.095039	0.611982	0.911669
	H75	H	0.914853	0.382591	0.912315
	H76	H	0.101225	0.911249	0.621084
	H77	H	0.097190	0.090620	0.383492
	H78	H	0.918516	0.094935	0.620535
	H79	H	0.914917	0.902756	0.381723
	H80	H	0.617026	0.082347	0.907271
	H81	H	0.389907	0.084406	0.094396
	H82	H	0.620493	0.905690	0.097416
	H83	H	0.389378	0.910292	0.906828
	H84	H	0.621968	0.898261	0.093388
	H85	H	0.387771	0.090425	0.095907
	H86	H	0.621808	0.095704	0.904357
	H87	H	0.384204	0.894333	0.901870
	H88	H	0.904754	0.086951	0.622739
	H89	H	0.101121	0.090435	0.382320
	H90	H	0.090295	0.911179	0.617300
	H91	H	0.908240	0.907490	0.381515
	H92	H	0.105582	0.615169	0.913040
	H93	H	0.097810	0.378214	0.097388
	H94	H	0.915207	0.616663	0.101959
	H95	H	0.910541	0.382289	0.914215
	H96	H	0.410526	0.113472	0.588262
	H97	H	0.607534	0.875161	0.593384
	H98	H	0.604443	0.114428	0.411784
	H99	H	0.417715	0.879179	0.399879
	H100	H	0.601422	0.406374	0.122293
	H101	H	0.601581	0.587563	0.881516
	H102	H	0.408954	0.594020	0.122623
	H103	H	0.415713	0.400812	0.882943
	H104	H	0.119203	0.596588	0.409375
	H105	H	0.887255	0.589422	0.597393
	H106	H	0.118559	0.406845	0.588229
	H107	H	0.892368	0.401322	0.425021
	H108	H	0.914467	0.611783	0.084578
	H109	H	0.089596	0.382498	0.091479
	H110	H	0.100571	0.617147	0.902558
	H111	H	0.911593	0.381042	0.908994
	H112	H	0.095151	0.900951	0.622325
	H113	H	0.099204	0.086906	0.383819
	H114	H	0.917282	0.079634	0.616045
	H115	H	0.914993	0.910720	0.384687
	H116	H	0.617065	0.092602	0.916730
	H117	H	0.389150	0.089137	0.090028
	H118	H	0.618350	0.905032	0.089506
	H119	H	0.390398	0.897097	0.918419
	C120	C	0.382668	0.006484	0.623159
	C121	C	0.626147	0.987112	0.621817
	C122	C	0.627745	0.006231	0.379087
	C123	C	0.382972	0.988581	0.381089
	C124	C	0.624219	0.376844	0.010829
	C125	C	0.625303	0.617629	0.992345
	C126	C	0.383645	0.616680	0.010311
	C127	C	0.381267	0.374680	0.992286
	C128	C	0.011921	0.621501	0.378283
	C129	C	0.995193	0.621018	0.622885
	C130	C	0.012882	0.376219	0.622821
	C131	C	0.995430	0.375294	0.378989
	C132	C	0.880868	0.507194	0.123423
	C133	C	0.125135	0.489284	0.121731
	C134	C	0.127909	0.506818	0.878572
	C135	C	0.883661	0.489573	0.881056
	C136	C	0.125001	0.878686	0.510679
	C137	C	0.127724	0.119977	0.492115
	C138	C	0.884540	0.117231	0.510742
	C139	C	0.882729	0.876648	0.491707
	C140	C	0.511936	0.118569	0.879140
	C141	C	0.495967	0.118410	0.123117
	C142	C	0.512766	0.873360	0.123634
	C143	C	0.495439	0.872695	0.878763
	C144	C	0.384512	0.882162	0.676989
	C145	C	0.624223	0.110366	0.678363
	C146	C	0.622597	0.882250	0.324480
	C147	C	0.388334	0.112326	0.325812
	C148	C	0.681975	0.376521	0.886914
	C149	C	0.680638	0.618250	0.116800
	C150	C	0.328790	0.616114	0.885624
	C151	C	0.324685	0.375641	0.116512
	C152	C	0.889581	0.675535	0.381284
	C153	C	0.117403	0.677628	0.619931
	C154	C	0.891379	0.318342	0.623084
	C155	C	0.117754	0.321255	0.379257
	C156	C	0.890516	0.377950	0.679538
	C157	C	0.117869	0.619072	0.676757
	C158	C	0.888656	0.615490	0.325530
	C159	C	0.118002	0.381024	0.323363
	C160	C	0.386934	0.671295	0.885001
	C161	C	0.622190	0.673794	0.117127
	C162	C	0.622980	0.321042	0.886041
	C163	C	0.382414	0.319294	0.117416
	C164	C	0.682969	0.883610	0.378352
	C165	C	0.683753	0.109512	0.623327
	C166	C	0.323889	0.884212	0.623744
	C167	C	0.328494	0.111639	0.380692
	C168	C	0.882839	0.383529	0.178569
	C169	C	0.122499	0.613043	0.175848
	C170	C	0.124821	0.384054	0.821676
	C171	C	0.887481	0.613320	0.825711
	C172	C	0.181617	0.878987	0.386277
	C173	C	0.183708	0.121186	0.616386
	C174	C	0.828207	0.118492	0.386954
	C175	C	0.824756	0.874769	0.615492
	C176	C	0.390569	0.174999	0.878916
	C177	C	0.616999	0.177609	0.123054
	C178	C	0.390832	0.816539	0.122606
	C179	C	0.617252	0.817514	0.878482
	C180	C	0.390614	0.875245	0.179736
	C181	C	0.618541	0.116488	0.177623
	C182	C	0.389784	0.114577	0.823479
	C183	C	0.617253	0.876034	0.821657
	C184	C	0.886366	0.173992	0.386385
	C185	C	0.125780	0.177323	0.616330
	C186	C	0.122489	0.823672	0.385296
	C187	C	0.883668	0.820576	0.616501
	C188	C	0.183169	0.384362	0.877705
	C189	C	0.183015	0.611481	0.121583
	C190	C	0.822535	0.384949	0.125213
	C191	C	0.826632	0.611475	0.879729
	C192	C	0.406193	0.092100	0.599874
	C193	C	0.603206	0.901371	0.597749
	C194	C	0.606547	0.091948	0.402416
	C195	C	0.404022	0.902911	0.404783
	C196	C	0.600789	0.400498	0.097389
	C197	C	0.603457	0.593696	0.905734
	C198	C	0.405169	0.594093	0.097239
	C199	C	0.404649	0.397867	0.905764
	C200	C	0.097598	0.600785	0.399761
	C201	C	0.909652	0.598195	0.601094
	C202	C	0.097803	0.400232	0.598477
	C203	C	0.910091	0.396122	0.402440
	C204	C	0.903628	0.593139	0.099879
	C205	C	0.102377	0.403172	0.098903
	C206	C	0.106718	0.592517	0.902136
	C207	C	0.905679	0.404174	0.904968
	C208	C	0.102360	0.901128	0.597566
	C209	C	0.105620	0.096440	0.405574
	C210	C	0.907087	0.093905	0.597429
	C211	C	0.905954	0.900195	0.405092
	C212	C	0.596681	0.096737	0.902642
	C213	C	0.410925	0.094850	0.100106
	C214	C	0.598276	0.896381	0.100270
	C215	C	0.409982	0.894212	0.902255
	Zn216	Zn	0.504065	-0.004300	0.749817
	Zn217	Zn	0.504638	-0.003633	0.252672
	Zn218	Zn	0.753155	0.497254	0.001905
	Zn219	Zn	0.254954	0.497000	0.001007
	Zn220	Zn	0.003327	0.750469	0.500989
	Zn221	Zn	0.005051	0.245643	0.501292
	Zn222	Zn	0.004899	0.498813	0.751931
	Zn223	Zn	0.002817	0.498303	0.249672
	Zn224	Zn	0.504118	0.744625	0.000710
	Zn225	Zn	0.503155	0.248204	0.001701
	Zn226	Zn	0.755881	-0.003062	0.501051
	Zn227	Zn	0.254275	-0.001585	0.502265
	N228	N	0.420216	0.959200	0.676932
	N229	N	0.589061	0.033125	0.677639
	N230	N	0.588911	0.959261	0.324718
	N231	N	0.421344	0.034739	0.325722
	N232	N	0.682762	0.410474	0.965608
	N233	N	0.682724	0.584056	0.038327
	N234	N	0.326746	0.582677	0.964486
	N235	N	0.323592	0.409229	0.037819
	N236	N	0.967358	0.679500	0.413235
	N237	N	0.040065	0.679032	0.587205
	N238	N	0.968522	0.317029	0.588797
	N239	N	0.040349	0.317407	0.412860
	N240	N	0.967217	0.413206	0.679527
	N241	N	0.040842	0.584802	0.678943
	N242	N	0.965770	0.582742	0.323367
	N243	N	0.040749	0.413621	0.322670
	N244	N	0.420472	0.671738	0.963331
	N245	N	0.588617	0.673703	0.038719
	N246	N	0.587538	0.321439	0.964036
	N247	N	0.417015	0.318681	0.039022
	N248	N	0.686305	0.961709	0.411943
	N249	N	0.685016	0.031891	0.588918
	N250	N	0.322417	0.962554	0.591266
	N251	N	0.325050	0.033798	0.414217
	N252	N	0.918360	0.460625	0.177821
	N253	N	0.086881	0.535991	0.176028
	N254	N	0.091090	0.461241	0.822106
	N255	N	0.922370	0.536534	0.826352
	N256	N	0.183325	0.912288	0.465244
	N257	N	0.185020	0.086158	0.538142
	N258	N	0.826841	0.084003	0.465190
	N259	N	0.823965	0.908837	0.536925
	N260	N	0.467536	0.177666	0.912837
	N261	N	0.539804	0.178809	0.089864
	N262	N	0.468014	0.815198	0.088519
	N263	N	0.540328	0.815370	0.913222
	N264	N	0.467549	0.909799	0.180699
	N265	N	0.542141	0.080323	0.177800
	N266	N	0.466198	0.080160	0.823455
	N267	N	0.540454	0.909478	0.821697
	N268	N	0.920892	0.173351	0.464526
	N269	N	0.091650	0.176729	0.538219
	N270	N	0.087850	0.823230	0.463633
	N271	N	0.918980	0.821409	0.538553
	N272	N	0.185196	0.461789	0.912457
	N273	N	0.184730	0.533338	0.088628
	N274	N	0.821226	0.462796	0.091468
	N275	N	0.824013	0.533450	0.913601
	O276	O	1.039135	0.839816	-0.044213
	H277	H	1.050124	0.835448	-0.034802
	H278	H	1.033969	0.833697	-0.052135
	O279	O	0.427630	0.544455	0.598720
	H280	H	0.435549	0.546067	0.596628
	H281	H	0.422492	0.539116	0.610667
	O282	O	1.079126	0.998496	-0.049555
	H283	H	1.081298	0.983546	-0.053052
	H284	H	1.062778	0.998103	-0.059286
	O285	O	0.998154	-0.097362	0.922351
	H286	H	1.002890	-0.106635	0.929471
	H287	H	0.993969	-0.081995	0.917503
	O288	O	0.469629	0.503083	0.519924
	H289	H	0.468432	0.505101	0.518095
	H290	H	0.468873	0.502667	0.513814
	O291	O	0.476652	0.510918	0.432155
	H292	H	0.476741	0.510926	0.433829
	H293	H	0.477874	0.509201	0.431777
	O294	O	0.455612	0.521777	0.481303
	H295	H	0.450726	0.514401	0.483132
	H296	H	0.459447	0.521858	0.474864
	O297	O	0.037638	-0.011742	1.164864
	H298	H	0.050006	-0.020254	1.162413
	H299	H	0.033738	-0.019537	1.170788
	O300	O	0.557217	0.417758	0.614952
	H301	H	0.561461	0.413335	0.617252
	H302	H	0.558179	0.416008	0.614201
	O303	O	0.868766	0.962739	-0.013772
	H304	H	0.869962	0.962613	-0.009048
	H305	H	0.858439	0.969608	-0.025386
	O306	O	0.111890	1.001880	0.934681
	H307	H	0.109942	0.985781	0.926266
	H308	H	0.107805	1.000609	0.937891
	O309	O	0.033325	0.097161	1.061295
	H310	H	0.047582	0.109720	1.050103
	H311	H	0.029023	0.109280	1.066503
	O312	O	0.131049	0.086259	-0.066153
	H313	H	0.154417	0.083209	-0.071148
	H314	H	0.126715	0.061966	-0.058921
	O315	O	0.996575	-0.138133	0.055637
	H316	H	0.999720	-0.147634	0.058404
	H317	H	0.966292	-0.135972	0.057479
	O318	O	1.101049	0.962265	0.993673
	H319	H	1.086464	0.956605	1.006981
	H320	H	1.100948	0.954065	0.987239
	O321	O	-0.143025	0.162750	0.963318
	H322	H	-0.154074	0.167856	0.964353
	H323	H	-0.131121	0.163969	0.975344
	O324	O	0.562992	0.559553	0.521015
	H325	H	0.561604	0.565591	0.520422
	H326	H	0.570920	0.568865	0.535532
	O327	O	0.176208	0.131299	0.043422
	H328	H	0.179573	0.134159	0.044876
	H329	H	0.186887	0.121586	0.034023
	O330	O	0.482097	0.605945	0.401170
	H331	H	0.466833	0.611045	0.410452
	H332	H	0.483605	0.603337	0.395356
	O333	O	0.011361	0.896609	0.980286
	H334	H	0.012392	0.913807	0.968615
	H335	H	-0.009201	0.899239	0.981090
	O336	O	0.013216	0.096790	-0.142603
	H337	H	0.010108	0.082484	-0.141104
	H338	H	0.004585	0.108729	-0.151501
	O339	O	0.490645	0.390235	0.588046
	H340	H	0.481374	0.403581	0.575989
	H341	H	0.476593	0.375760	0.595176
	O342	O	1.033280	1.155226	1.074262
	H343	H	1.050921	1.159470	1.047640
	H344	H	1.025190	1.164179	1.082244
	O345	O	1.017385	1.024275	0.149254
	H346	H	1.021177	1.040365	0.159759
	H347	H	1.030992	1.030371	0.156248
	O348	O	0.473167	0.444769	0.498836
	H349	H	0.472776	0.435992	0.500138
	H350	H	0.473431	0.451881	0.507874
	O351	O	0.039457	1.035691	0.082555
	H352	H	0.045392	1.025850	0.073091
	H353	H	0.040556	1.039948	0.090681
	O354	O	0.507175	0.490098	0.467079
	H355	H	0.510379	0.487530	0.462716
	H356	H	0.509437	0.499479	0.460909
	O357	O	0.894055	-0.011448	1.041459
	H358	H	0.875329	-0.011506	1.045177
	H359	H	0.902903	-0.003244	1.049788
	O360	O	0.566151	0.465180	0.442930
	H361	H	0.563778	0.468389	0.450131
	H362	H	0.567076	0.469088	0.432464
	O363	O	0.468214	0.527066	0.570545
	H364	H	0.469254	0.528156	0.565329
	H365	H	0.468100	0.518450	0.580363
	O366	O	0.853562	0.973193	0.941263
	H367	H	0.854734	0.978533	0.939026
	H368	H	0.850468	0.971537	0.941212
	O369	O	1.007504	-0.102333	0.936407
	H370	H	0.999891	-0.101942	0.939550
	H371	H	1.004296	-0.101191	0.944255
	O372	O	-0.137604	0.028801	-0.117286
	H373	H	-0.139659	0.024204	-0.125525
	H374	H	-0.140429	0.039295	-0.099953
	O375	O	0.975205	0.009353	0.122273
	H376	H	0.976205	0.019381	0.131583
	H377	H	0.983281	0.017185	0.115062
	O378	O	0.381801	0.402399	0.524397
	H379	H	0.379338	0.386701	0.522749
	H380	H	0.391224	0.408830	0.518561
	O381	O	0.507483	0.536640	0.540853
	H382	H	0.496454	0.537871	0.543112
	H383	H	0.505019	0.526876	0.545353
