data_Molecule from HDF5

_cell_length_a		16.134621
_cell_length_b		16.201098
_cell_length_c		16.352879
_cell_angle_alpha	89.680113
_cell_angle_beta	89.979409
_cell_angle_gamma	89.932933
_symmetry_space_group_name_H-M	'P 1'
_symmetry_Int_Tables_number		1

loop_
	_symmetry_equiv_pos_as_xyz
	x,y,z

loop_
	_atom_site_label
	_atom_site_type_symbol
	_atom_site_fract_x
	_atom_site_fract_y
	_atom_site_fract_z
	H0	H	0.396751	0.842246	0.720026
	H1	H	0.598662	0.169892	0.718576
	H2	H	0.597679	0.842604	0.287952
	H3	H	0.394352	0.169894	0.285530
	H4	H	0.711222	0.409121	0.839973
	H5	H	0.710998	0.603968	0.166770
	H6	H	0.283099	0.605431	0.838856
	H7	H	0.281285	0.406453	0.164888
	H8	H	0.832055	0.720646	0.403750
	H9	H	0.162677	0.717756	0.598233
	H10	H	0.831093	0.293032	0.600558
	H11	H	0.162622	0.293923	0.406426
	H12	H	0.831603	0.406273	0.716922
	H13	H	0.162443	0.603844	0.714868
	H14	H	0.833214	0.608311	0.286175
	H15	H	0.161892	0.405685	0.287636
	H16	H	0.396241	0.724131	0.839989
	H17	H	0.595097	0.720506	0.166058
	H18	H	0.596253	0.293012	0.840096
	H19	H	0.395862	0.289936	0.164977
	H20	H	0.710154	0.841619	0.406360
	H21	H	0.709167	0.171531	0.598682
	H22	H	0.285205	0.840862	0.600989
	H23	H	0.285087	0.171977	0.407076
	H24	H	0.895644	0.342839	0.220838
	H25	H	0.097855	0.669777	0.217463
	H26	H	0.096552	0.341506	0.788803
	H27	H	0.897048	0.670025	0.786472
	H28	H	0.212062	0.909054	0.339476
	H29	H	0.209431	0.101774	0.667084
	H30	H	0.781732	0.106603	0.339680
	H31	H	0.782166	0.906781	0.665669
	H32	H	0.331151	0.220288	0.904889
	H33	H	0.661671	0.218317	0.099717
	H34	H	0.331188	0.792878	0.101793
	H35	H	0.662090	0.795309	0.907521
	H36	H	0.331712	0.906549	0.218462
	H37	H	0.660918	0.105964	0.216555
	H38	H	0.332408	0.107984	0.786721
	H39	H	0.660799	0.906708	0.789362
	H40	H	0.898279	0.222017	0.339511
	H41	H	0.095073	0.219370	0.666120
	H42	H	0.096891	0.792800	0.338722
	H43	H	0.897025	0.789886	0.665021
	H44	H	0.209575	0.341301	0.906779
	H45	H	0.210252	0.671343	0.098156
	H46	H	0.784914	0.340861	0.099939
	H47	H	0.784355	0.671339	0.905036
	H48	H	0.406298	0.122821	0.595939
	H49	H	0.584761	0.888824	0.605067
	H50	H	0.594766	0.127530	0.403073
	H51	H	0.407667	0.888565	0.406166
	H52	H	0.594077	0.407665	0.121639
	H53	H	0.583939	0.602811	0.888110
	H54	H	0.404477	0.595247	0.117294
	H55	H	0.392119	0.413468	0.882642
	H56	H	0.114563	0.599045	0.410955
	H57	H	0.879599	0.593227	0.599071
	H58	H	0.117721	0.401045	0.593179
	H59	H	0.880832	0.415644	0.413773
	H60	H	0.110366	0.420325	0.589837
	H61	H	0.876575	0.602954	0.597687
	H62	H	0.113992	0.596823	0.409110
	H63	H	0.880367	0.418474	0.409659
	H64	H	0.406091	0.600654	0.118221
	H65	H	0.594287	0.607092	0.884166
	H66	H	0.591279	0.416966	0.119141
	H67	H	0.409629	0.424022	0.890789
	H68	H	0.579566	0.121521	0.405559
	H69	H	0.585285	0.892379	0.590511
	H70	H	0.403141	0.123554	0.593968
	H71	H	0.407057	0.891237	0.414056
	H72	H	0.901850	0.624934	0.098254
	H73	H	0.086103	0.390517	0.095470
	H74	H	0.095663	0.628985	0.896630
	H75	H	0.904937	0.387767	0.907958
	H76	H	0.095937	0.909248	0.620800
	H77	H	0.093380	0.105261	0.384839
	H78	H	0.894561	0.095458	0.620392
	H79	H	0.905340	0.926472	0.390580
	H80	H	0.617186	0.106876	0.909031
	H81	H	0.376802	0.107199	0.096040
	H82	H	0.615307	0.916796	0.103887
	H83	H	0.378467	0.914840	0.911340
	H84	H	0.615574	0.906784	0.094852
	H85	H	0.381143	0.095477	0.087488
	H86	H	0.612016	0.096657	0.914621
	H87	H	0.378645	0.916622	0.912145
	H88	H	0.909731	0.095542	0.615536
	H89	H	0.093297	0.096637	0.386608
	H90	H	0.088885	0.915224	0.616890
	H91	H	0.914288	0.907298	0.387265
	H92	H	0.077311	0.620780	0.906013
	H93	H	0.089598	0.389193	0.094602
	H94	H	0.910126	0.622669	0.096928
	H95	H	0.904704	0.388257	0.909528
	H96	H	0.403409	0.124203	0.598156
	H97	H	0.597572	0.886091	0.597246
	H98	H	0.590689	0.121849	0.417814
	H99	H	0.401321	0.887764	0.410298
	H100	H	0.585172	0.410337	0.118948
	H101	H	0.594190	0.595227	0.887728
	H102	H	0.401096	0.599693	0.119229
	H103	H	0.411453	0.403245	0.885499
	H104	H	0.115072	0.599226	0.408529
	H105	H	0.881236	0.598550	0.589264
	H106	H	0.117048	0.414778	0.608148
	H107	H	0.878767	0.413268	0.410473
	H108	H	0.903617	0.621574	0.089948
	H109	H	0.089176	0.388076	0.098108
	H110	H	0.095707	0.622176	0.917360
	H111	H	0.903569	0.389029	0.908704
	H112	H	0.087354	0.906511	0.619445
	H113	H	0.086079	0.101007	0.388134
	H114	H	0.903372	0.108954	0.621593
	H115	H	0.894048	0.910015	0.382784
	H116	H	0.615595	0.096104	0.902565
	H117	H	0.377489	0.093040	0.102575
	H118	H	0.610968	0.918605	0.091908
	H119	H	0.378649	0.916840	0.909695
	C120	C	0.375646	0.014763	0.625221
	C121	C	0.618253	0.997813	0.625053
	C122	C	0.617834	0.015041	0.381186
	C123	C	0.375961	0.998114	0.381556
	C124	C	0.618827	0.384279	0.011854
	C125	C	0.619116	0.629138	0.994823
	C126	C	0.374810	0.628521	0.010783
	C127	C	0.374917	0.384559	0.993855
	C128	C	0.005999	0.628204	0.380296
	C129	C	0.988386	0.626607	0.623118
	C130	C	0.005394	0.383821	0.624773
	C131	C	0.988738	0.386223	0.382178
	C132	C	0.875576	0.514843	0.124454
	C133	C	0.118012	0.497715	0.123895
	C134	C	0.118338	0.514943	0.879809
	C135	C	0.875712	0.497728	0.880705
	C136	C	0.119524	0.883146	0.510939
	C137	C	0.118820	0.128032	0.494649
	C138	C	0.874283	0.129046	0.511247
	C139	C	0.875413	0.884745	0.494457
	C140	C	0.505656	0.128908	0.880333
	C141	C	0.487527	0.127470	0.124074
	C142	C	0.505044	0.884599	0.125780
	C143	C	0.487866	0.887027	0.883442
	C144	C	0.377283	0.891136	0.681371
	C145	C	0.617129	0.121229	0.679908
	C146	C	0.616732	0.891487	0.326367
	C147	C	0.375903	0.121460	0.325111
	C148	C	0.673828	0.388033	0.888902
	C149	C	0.673515	0.625067	0.117690
	C150	C	0.320606	0.626190	0.887793
	C151	C	0.319091	0.386329	0.116219
	C152	C	0.881449	0.683410	0.383008
	C153	C	0.113206	0.680523	0.619290
	C154	C	0.880588	0.330196	0.620900
	C155	C	0.113023	0.330759	0.385000
	C156	C	0.880817	0.386200	0.679216
	C157	C	0.112954	0.624183	0.677507
	C158	C	0.882049	0.627304	0.324932
	C159	C	0.112689	0.386573	0.326249
	C160	C	0.376734	0.685242	0.888467
	C161	C	0.615887	0.683052	0.117436
	C162	C	0.616461	0.330357	0.889003
	C163	C	0.376262	0.328332	0.116319
	C164	C	0.672651	0.890948	0.385264
	C165	C	0.672738	0.121987	0.620678
	C166	C	0.321717	0.890406	0.622357
	C167	C	0.321298	0.122300	0.385162
	C168	C	0.876652	0.391400	0.181399
	C169	C	0.117263	0.621235	0.179110
	C170	C	0.116601	0.390864	0.826164
	C171	C	0.877826	0.621312	0.825382
	C172	C	0.174362	0.887753	0.388038
	C173	C	0.172540	0.123373	0.618077
	C174	C	0.819378	0.126965	0.388413
	C175	C	0.820317	0.886723	0.617080
	C176	C	0.380934	0.183324	0.883722
	C177	C	0.612132	0.181588	0.120724
	C178	C	0.380714	0.829827	0.123004
	C179	C	0.612466	0.832176	0.886518
	C180	C	0.380791	0.886487	0.180793
	C181	C	0.611364	0.126042	0.179220
	C182	C	0.381611	0.127739	0.824900
	C183	C	0.611962	0.887907	0.828089
	C184	C	0.877423	0.184327	0.388292
	C185	C	0.115669	0.181803	0.617427
	C186	C	0.117205	0.829671	0.387870
	C187	C	0.877158	0.828156	0.616438
	C188	C	0.172975	0.390749	0.884564
	C189	C	0.172882	0.622031	0.119767
	C190	C	0.821211	0.390578	0.121760
	C191	C	0.821661	0.621953	0.884083
	C192	C	0.397842	0.101094	0.602625
	C193	C	0.595990	0.911430	0.603919
	C194	C	0.595084	0.101182	0.402566
	C195	C	0.398707	0.911593	0.403700
	C196	C	0.596748	0.405420	0.097629
	C197	C	0.597374	0.608012	0.908916
	C198	C	0.397191	0.605458	0.096167
	C199	C	0.397726	0.407018	0.908425
	C200	C	0.092273	0.605101	0.402805
	C201	C	0.901563	0.604782	0.601684
	C202	C	0.092441	0.405660	0.603458
	C203	C	0.902303	0.409143	0.404623
	C204	C	0.898504	0.600844	0.101805
	C205	C	0.095057	0.411793	0.102439
	C206	C	0.096149	0.601518	0.900472
	C207	C	0.897869	0.410735	0.902507
	C208	C	0.097311	0.904188	0.596780
	C209	C	0.097300	0.107119	0.408887
	C210	C	0.895969	0.106674	0.597003
	C211	C	0.897987	0.907919	0.408785
	C212	C	0.592418	0.106548	0.902152
	C213	C	0.400872	0.105118	0.101996
	C214	C	0.591554	0.907282	0.103605
	C215	C	0.401057	0.909496	0.904930
	Zn216	Zn	0.496627	0.006464	0.753772
	Zn217	Zn	0.496212	0.006859	0.252765
	Zn218	Zn	0.747499	0.506141	0.002916
	Zn219	Zn	0.245707	0.506571	0.001814
	Zn220	Zn	-0.002829	0.755216	0.501753
	Zn221	Zn	-0.003303	0.257217	0.502792
	Zn222	Zn	-0.003203	0.505497	0.751515
	Zn223	Zn	-0.002881	0.506334	0.253044
	Zn224	Zn	0.496222	0.758017	0.003169
	Zn225	Zn	0.496859	0.255479	0.002791
	Zn226	Zn	0.746108	0.006206	0.503131
	Zn227	Zn	0.247864	0.005697	0.503340
	N228	N	0.409970	0.969530	0.683262
	N229	N	0.584003	0.043092	0.682796
	N230	N	0.583204	0.969565	0.323869
	N231	N	0.409334	0.043284	0.322960
	N232	N	0.675271	0.420996	0.966179
	N233	N	0.675603	0.592342	0.040257
	N234	N	0.319469	0.591346	0.964649
	N235	N	0.318166	0.420744	0.039152
	N236	N	0.959534	0.684335	0.416712
	N237	N	0.034847	0.682161	0.586125
	N238	N	0.959114	0.328460	0.588026
	N239	N	0.035009	0.330555	0.419256
	N240	N	0.959415	0.418895	0.681735
	N241	N	0.034227	0.591360	0.679988
	N242	N	0.960284	0.593564	0.323319
	N243	N	0.034383	0.420272	0.324296
	N244	N	0.409739	0.686897	0.966014
	N245	N	0.582478	0.685519	0.040086
	N246	N	0.583044	0.327707	0.966496
	N247	N	0.410413	0.327146	0.039270
	N248	N	0.673515	0.968739	0.418758
	N249	N	0.673188	0.044331	0.586881
	N250	N	0.320493	0.968168	0.587992
	N251	N	0.321200	0.044486	0.419662
	N252	N	0.909627	0.469667	0.183293
	N253	N	0.083740	0.543150	0.181727
	N254	N	0.083249	0.469123	0.823105
	N255	N	0.910324	0.542794	0.822868
	N256	N	0.176108	0.920191	0.465611
	N257	N	0.174803	0.090506	0.540704
	N258	N	0.817306	0.093274	0.465806
	N259	N	0.819129	0.921268	0.540130
	N260	N	0.459213	0.184367	0.917217
	N261	N	0.534071	0.182657	0.086981
	N262	N	0.458794	0.828657	0.089538
	N263	N	0.534366	0.831594	0.920314
	N264	N	0.459214	0.919875	0.182800
	N265	N	0.532948	0.092720	0.181139
	N266	N	0.460078	0.094580	0.822618
	N267	N	0.533552	0.921323	0.826137
	N268	N	0.910809	0.185631	0.465629
	N269	N	0.083144	0.184977	0.539733
	N270	N	0.083793	0.826821	0.465235
	N271	N	0.910799	0.827070	0.539007
	N272	N	0.174173	0.468804	0.917152
	N273	N	0.173728	0.544269	0.086361
	N274	N	0.820422	0.468155	0.087072
	N275	N	0.820243	0.543917	0.917791
	O276	O	0.501147	0.514644	0.469825
	H277	H	0.499711	0.521999	0.469923
	H278	H	0.497793	0.514113	0.462206
	O279	O	0.478804	0.475786	0.531752
	H280	H	0.474222	0.461700	0.530346
	H281	H	0.462843	0.485582	0.518282
	O282	O	0.522106	0.509942	0.514517
	H283	H	0.521648	0.513206	0.520642
	H284	H	0.526617	0.507619	0.513861
	O285	O	-0.001538	0.995066	0.959494
	H286	H	-0.011049	0.996959	0.960131
	H287	H	0.000795	1.000549	0.958285
	O288	O	0.442588	0.545831	0.430343
	H289	H	0.446511	0.553898	0.426494
	H290	H	0.440698	0.546125	0.412920
	O291	O	-0.005602	-0.010208	1.008365
	H292	H	0.000483	-0.005694	1.003216
	H293	H	-0.010912	-0.017138	1.005424
	O294	O	0.468153	0.515119	0.545110
	H295	H	0.469043	0.521268	0.547775
	H296	H	0.464231	0.514647	0.542271
	O297	O	0.494591	0.487488	0.526511
	H298	H	0.491747	0.487938	0.540570
	H299	H	0.497087	0.478408	0.528144
	O300	O	0.454387	0.459376	0.484458
	H301	H	0.450082	0.455434	0.484845
	H302	H	0.452782	0.464992	0.487877
	O303	O	0.484526	0.423821	0.488060
	H304	H	0.484203	0.418911	0.491464
	H305	H	0.466932	0.428100	0.483662
	O306	O	0.953226	-0.015275	1.004218
	H307	H	0.941552	-0.022120	1.012285
	H308	H	0.954052	-0.014898	0.994850
	O309	O	0.474231	0.463997	0.544608
	H310	H	0.470344	0.458785	0.542194
	H311	H	0.471626	0.455778	0.552273
	O312	O	0.443052	0.548255	0.487452
	H313	H	0.450023	0.539754	0.484166
	H314	H	0.448659	0.554203	0.481043
	O315	O	0.954116	-0.039521	0.961622
	H316	H	0.947758	-0.043973	0.960758
	H317	H	0.958014	-0.041426	0.961053
	O318	O	-0.031550	-0.006877	-0.013743
	H319	H	-0.027019	0.002823	-0.012759
	H320	H	-0.038898	-0.007397	-0.006986
	O321	O	0.479239	0.460495	0.504748
	H322	H	0.478282	0.464583	0.495507
	H323	H	0.490714	0.460325	0.503968
	O324	O	1.497779	-0.409823	-0.486526
	H325	H	1.497111	-0.398309	-0.481410
	H326	H	1.498713	-0.419017	-0.479735
	O327	O	0.919191	0.977988	-0.043104
	H328	H	0.926498	0.971811	-0.037665
	H329	H	0.912396	0.964236	-0.044476
	O330	O	0.533671	0.481097	0.481745
	H331	H	0.537041	0.476020	0.484070
	H332	H	0.534461	0.478639	0.491741
	O333	O	0.480225	0.528098	0.430749
	H334	H	0.483867	0.530273	0.428255
	H335	H	0.490593	0.530470	0.431161
