data_Molecule from HDF5

_cell_length_a		16.132319
_cell_length_b		16.374646
_cell_length_c		16.111558
_cell_angle_alpha	89.288678
_cell_angle_beta	89.516953
_cell_angle_gamma	90.520057
_symmetry_space_group_name_H-M	'P 1'
_symmetry_Int_Tables_number		1

loop_
	_symmetry_equiv_pos_as_xyz
	x,y,z

loop_
	_atom_site_label
	_atom_site_type_symbol
	_atom_site_fract_x
	_atom_site_fract_y
	_atom_site_fract_z
	H0	H	0.399918	0.837982	0.711663
	H1	H	0.601246	0.164186	0.707704
	H2	H	0.598615	0.838555	0.281501
	H3	H	0.403648	0.164399	0.277064
	H4	H	0.715160	0.405771	0.829141
	H5	H	0.712559	0.596570	0.160226
	H6	H	0.292629	0.596944	0.826631
	H7	H	0.285342	0.400067	0.158833
	H8	H	0.838674	0.719666	0.391204
	H9	H	0.166242	0.717360	0.592748
	H10	H	0.839679	0.281083	0.601507
	H11	H	0.167362	0.290785	0.394250
	H12	H	0.836591	0.401537	0.708449
	H13	H	0.167673	0.599045	0.704700
	H14	H	0.836513	0.600650	0.281250
	H15	H	0.167307	0.408779	0.280693
	H16	H	0.399424	0.720112	0.830731
	H17	H	0.601523	0.714942	0.158738
	H18	H	0.603955	0.287416	0.829861
	H19	H	0.396407	0.280375	0.157718
	H20	H	0.717295	0.839736	0.395409
	H21	H	0.718688	0.164344	0.592405
	H22	H	0.283484	0.838929	0.595750
	H23	H	0.292995	0.167041	0.397310
	H24	H	0.899336	0.339428	0.214012
	H25	H	0.099746	0.665974	0.202730
	H26	H	0.099059	0.337743	0.780508
	H27	H	0.904113	0.663280	0.776926
	H28	H	0.215603	0.910730	0.327738
	H29	H	0.213434	0.096931	0.661174
	H30	H	0.793119	0.101761	0.328688
	H31	H	0.785635	0.899579	0.659709
	H32	H	0.337833	0.216239	0.892412
	H33	H	0.664435	0.216928	0.093372
	H34	H	0.337954	0.780205	0.099623
	H35	H	0.665662	0.788002	0.892420
	H36	H	0.336149	0.900694	0.210643
	H37	H	0.667205	0.097426	0.201760
	H38	H	0.335822	0.097086	0.782769
	H39	H	0.666229	0.905688	0.781419
	H40	H	0.905557	0.219425	0.331095
	H41	H	0.102557	0.215756	0.660709
	H42	H	0.104310	0.791456	0.328800
	H43	H	0.899849	0.782300	0.657862
	H44	H	0.214658	0.337506	0.896562
	H45	H	0.218994	0.663280	0.088824
	H46	H	0.782573	0.338513	0.098327
	H47	H	0.789594	0.663850	0.894854
	H48	H	0.407383	0.116254	0.582044
	H49	H	0.592697	0.886167	0.583935
	H50	H	0.596536	0.117701	0.399005
	H51	H	0.413827	0.890503	0.412569
	H52	H	0.582696	0.411894	0.109153
	H53	H	0.604932	0.590689	0.875164
	H54	H	0.402723	0.590176	0.112830
	H55	H	0.399906	0.409564	0.872829
	H56	H	0.119842	0.595766	0.398187
	H57	H	0.883148	0.593410	0.586509
	H58	H	0.117324	0.413118	0.579038
	H59	H	0.884546	0.413017	0.401606
	H60	H	0.121928	0.412355	0.595428
	H61	H	0.884879	0.593505	0.583164
	H62	H	0.121952	0.599597	0.396113
	H63	H	0.882775	0.403144	0.405409
	H64	H	0.413380	0.583750	0.107568
	H65	H	0.584780	0.590688	0.880343
	H66	H	0.587458	0.397000	0.113824
	H67	H	0.416075	0.414893	0.880267
	H68	H	0.599809	0.118920	0.398200
	H69	H	0.595170	0.884973	0.589476
	H70	H	0.403259	0.120800	0.593262
	H71	H	0.396313	0.883228	0.405590
	H72	H	0.901847	0.619163	0.085898
	H73	H	0.092872	0.383283	0.092647
	H74	H	0.096333	0.618492	0.893998
	H75	H	0.912528	0.385376	0.900099
	H76	H	0.098297	0.904075	0.615329
	H77	H	0.092832	0.106705	0.376135
	H78	H	0.918224	0.093568	0.611172
	H79	H	0.907872	0.911705	0.375618
	H80	H	0.622624	0.099867	0.894397
	H81	H	0.387586	0.083202	0.079928
	H82	H	0.614203	0.914740	0.079894
	H83	H	0.383812	0.905861	0.909024
	H84	H	0.622474	0.908842	0.097859
	H85	H	0.380015	0.088596	0.098232
	H86	H	0.618842	0.099079	0.908589
	H87	H	0.384257	0.911180	0.906426
	H88	H	0.905045	0.097760	0.616584
	H89	H	0.105866	0.100829	0.373866
	H90	H	0.092175	0.914596	0.609772
	H91	H	0.913511	0.912166	0.377893
	H92	H	0.093690	0.615836	0.900172
	H93	H	0.089590	0.387092	0.087172
	H94	H	0.909528	0.617366	0.089889
	H95	H	0.904766	0.385613	0.908536
	H96	H	0.415646	0.116480	0.590892
	H97	H	0.589806	0.886590	0.589678
	H98	H	0.596905	0.118967	0.395231
	H99	H	0.412367	0.884416	0.393877
	H100	H	0.598019	0.409589	0.114307
	H101	H	0.595029	0.607449	0.873558
	H102	H	0.414566	0.596245	0.112509
	H103	H	0.413808	0.397539	0.873935
	H104	H	0.120227	0.600500	0.400974
	H105	H	0.885841	0.589927	0.584670
	H106	H	0.123867	0.399002	0.585357
	H107	H	0.886601	0.411085	0.412128
	H108	H	0.908722	0.615763	0.082254
	H109	H	0.095099	0.384435	0.086768
	H110	H	0.100948	0.617569	0.899207
	H111	H	0.901750	0.381888	0.898732
	H112	H	0.084851	0.902984	0.611188
	H113	H	0.094420	0.092496	0.379094
	H114	H	0.907187	0.083892	0.611154
	H115	H	0.911519	0.906556	0.374805
	H116	H	0.617522	0.088130	0.900409
	H117	H	0.379748	0.101941	0.082620
	H118	H	0.621162	0.895446	0.082261
	H119	H	0.382090	0.905414	0.902216
	C120	C	0.378156	0.010029	0.618603
	C121	C	0.622733	0.993222	0.615666
	C122	C	0.625088	0.010744	0.370550
	C123	C	0.380404	0.993833	0.374006
	C124	C	0.620679	0.379526	0.003370
	C125	C	0.622925	0.623490	0.985607
	C126	C	0.381128	0.620412	0.002026
	C127	C	0.378674	0.376963	0.984447
	C128	C	0.011150	0.626021	0.370587
	C129	C	0.993786	0.621509	0.613539
	C130	C	0.011642	0.378515	0.617058
	C131	C	0.993536	0.382069	0.375464
	C132	C	0.877250	0.509880	0.117483
	C133	C	0.122383	0.492696	0.115312
	C134	C	0.124092	0.509327	0.870895
	C135	C	0.879137	0.492132	0.872473
	C136	C	0.122353	0.881409	0.502947
	C137	C	0.124748	0.125494	0.486216
	C138	C	0.881942	0.122878	0.503862
	C139	C	0.880182	0.879370	0.485439
	C140	C	0.510319	0.122991	0.872541
	C141	C	0.491871	0.120926	0.114419
	C142	C	0.510084	0.877352	0.117012
	C143	C	0.492375	0.879874	0.874932
	C144	C	0.379399	0.887168	0.674311
	C145	C	0.621391	0.115652	0.669872
	C146	C	0.620644	0.887632	0.317913
	C147	C	0.383974	0.116107	0.316341
	C148	C	0.677444	0.384363	0.878743
	C149	C	0.676508	0.618591	0.110325
	C150	C	0.328064	0.618314	0.876930
	C151	C	0.322764	0.379092	0.109170
	C152	C	0.887566	0.681363	0.372039
	C153	C	0.117319	0.678499	0.612042
	C154	C	0.888206	0.321070	0.618511
	C155	C	0.117846	0.328166	0.375091
	C156	C	0.886599	0.380757	0.672194
	C157	C	0.118067	0.619241	0.667564
	C158	C	0.886638	0.622238	0.317104
	C159	C	0.117981	0.386902	0.318642
	C160	C	0.381590	0.679137	0.878938
	C161	C	0.621072	0.677249	0.109645
	C162	C	0.622047	0.325376	0.879113
	C163	C	0.377696	0.319428	0.108479
	C164	C	0.679438	0.888254	0.374799
	C165	C	0.679681	0.115610	0.612439
	C166	C	0.321173	0.887816	0.616624
	C167	C	0.328708	0.117521	0.376170
	C168	C	0.879168	0.387890	0.175179
	C169	C	0.120574	0.616521	0.166910
	C170	C	0.120302	0.386383	0.817616
	C171	C	0.883524	0.614690	0.815851
	C172	C	0.178048	0.888309	0.377611
	C173	C	0.177335	0.119419	0.611633
	C174	C	0.829310	0.121811	0.378797
	C175	C	0.823829	0.880137	0.609966
	C176	C	0.386802	0.178213	0.873156
	C177	C	0.615704	0.177828	0.112264
	C178	C	0.386696	0.819794	0.118151
	C179	C	0.616526	0.825691	0.874206
	C180	C	0.385860	0.879604	0.173411
	C181	C	0.617256	0.118261	0.166296
	C182	C	0.385858	0.119081	0.818502
	C183	C	0.616910	0.884249	0.818845
	C184	C	0.885009	0.180686	0.380110
	C185	C	0.122224	0.178266	0.611311
	C186	C	0.123139	0.828656	0.378109
	C187	C	0.880318	0.821599	0.609047
	C188	C	0.177468	0.386119	0.875418
	C189	C	0.180111	0.615144	0.110803
	C190	C	0.820747	0.387513	0.117844
	C191	C	0.825887	0.614926	0.874160
	C192	C	0.401835	0.095666	0.595561
	C193	C	0.599312	0.908005	0.594249
	C194	C	0.603937	0.096224	0.391276
	C195	C	0.401254	0.908131	0.397259
	C196	C	0.596692	0.400042	0.089809
	C197	C	0.601123	0.602566	0.898903
	C198	C	0.403518	0.596831	0.088576
	C199	C	0.402766	0.400420	0.898046
	C200	C	0.098205	0.605083	0.392135
	C201	C	0.906878	0.598874	0.591342
	C202	C	0.098580	0.401400	0.593540
	C203	C	0.907112	0.403013	0.399375
	C204	C	0.900190	0.595589	0.093173
	C205	C	0.099465	0.407067	0.094933
	C206	C	0.103319	0.594879	0.891702
	C207	C	0.900233	0.406340	0.895595
	C208	C	0.098592	0.901298	0.589484
	C209	C	0.103902	0.105889	0.399068
	C210	C	0.903622	0.098678	0.590802
	C211	C	0.903941	0.903097	0.398710
	C212	C	0.597169	0.101766	0.894478
	C213	C	0.404977	0.098008	0.093209
	C214	C	0.596903	0.899716	0.093574
	C215	C	0.405841	0.901135	0.898909
	Zn216	Zn	0.501195	0.001323	0.746556
	Zn217	Zn	0.501598	0.001641	0.243037
	Zn218	Zn	0.749131	0.500820	-0.005548
	Zn219	Zn	0.252493	0.500042	-0.007100
	Zn220	Zn	0.002333	0.751623	0.493089
	Zn221	Zn	0.002799	0.251881	0.496371
	Zn222	Zn	0.001841	0.500159	0.742517
	Zn223	Zn	0.000938	0.502828	0.245055
	Zn224	Zn	0.501679	0.750350	-0.005727
	Zn225	Zn	0.500509	0.249935	-0.006158
	Zn226	Zn	0.753238	0.001629	0.494037
	Zn227	Zn	0.250572	0.003288	0.494726
	N228	N	0.414037	0.964255	0.675542
	N229	N	0.586686	0.038609	0.672107
	N230	N	0.587721	0.964715	0.315003
	N231	N	0.415513	0.038158	0.314968
	N232	N	0.676717	0.417355	0.956929
	N233	N	0.677929	0.585943	0.032069
	N234	N	0.327801	0.582324	0.954549
	N235	N	0.323426	0.414382	0.031218
	N236	N	0.966130	0.683844	0.404473
	N237	N	0.038987	0.679870	0.579050
	N238	N	0.966983	0.319674	0.584987
	N239	N	0.039568	0.325149	0.409857
	N240	N	0.964497	0.416066	0.671220
	N241	N	0.040033	0.584601	0.668627
	N242	N	0.964453	0.588597	0.316007
	N243	N	0.039686	0.419553	0.318473
	N244	N	0.413823	0.680585	0.957811
	N245	N	0.588505	0.680394	0.031077
	N246	N	0.587060	0.322421	0.957278
	N247	N	0.411967	0.318292	0.029985
	N248	N	0.682581	0.965788	0.406515
	N249	N	0.680639	0.038463	0.579389
	N250	N	0.320415	0.965293	0.582592
	N251	N	0.326232	0.040596	0.411333
	N252	N	0.913325	0.465165	0.174994
	N253	N	0.085452	0.539621	0.169791
	N254	N	0.087633	0.463616	0.814780
	N255	N	0.916066	0.537257	0.814854
	N256	N	0.177980	0.920247	0.456189
	N257	N	0.179112	0.087343	0.533003
	N258	N	0.827347	0.086552	0.456919
	N259	N	0.823511	0.915257	0.531896
	N260	N	0.465195	0.180773	0.905841
	N261	N	0.536670	0.179400	0.080616
	N262	N	0.464983	0.818485	0.083642
	N263	N	0.537928	0.822840	0.908228
	N264	N	0.463611	0.914796	0.172848
	N265	N	0.539274	0.083760	0.167949
	N266	N	0.463786	0.085453	0.817901
	N267	N	0.538830	0.917291	0.819206
	N268	N	0.916885	0.181308	0.459060
	N269	N	0.090201	0.182240	0.532414
	N270	N	0.088996	0.824313	0.456666
	N271	N	0.914635	0.821109	0.530458
	N272	N	0.180176	0.463633	0.907620
	N273	N	0.181613	0.537313	0.079521
	N274	N	0.819499	0.464516	0.082592
	N275	N	0.823082	0.537691	0.908654
	O276	O	-0.029496	-0.023267	0.058388
	H277	H	-0.023366	-0.029847	0.050493
	H278	H	-0.029746	-0.015041	0.062115
	O279	O	0.403927	0.396893	0.497120
	H280	H	0.386831	0.402606	0.499004
	H281	H	0.401665	0.391847	0.498612
	O282	O	0.558448	0.570612	0.506184
	H283	H	0.553224	0.585180	0.500332
	H284	H	0.550827	0.569512	0.510449
	O285	O	0.052701	0.946825	0.992661
	H286	H	0.053481	0.945248	0.996192
	H287	H	0.044899	0.936197	0.999385
	O288	O	0.528432	0.544299	0.479387
	H289	H	0.528824	0.533957	0.475807
	H290	H	0.533180	0.542214	0.493329
	O291	O	0.983311	1.006982	0.954374
	H292	H	0.983137	1.001421	0.941569
	H293	H	0.988554	1.008549	0.950223
	O294	O	0.987912	1.044348	0.967696
	H295	H	0.983346	1.037965	0.967081
	H296	H	0.990202	1.050834	0.975311
	O297	O	0.999222	-0.029371	1.031121
	H298	H	0.997484	-0.039667	1.041118
	H299	H	0.996872	-0.021739	1.026270
	O300	O	0.454572	0.547775	0.552636
	H301	H	0.447155	0.545870	0.564837
	H302	H	0.462611	0.544249	0.550833
	O303	O	1.087484	-0.019478	-0.029543
	H304	H	1.100898	-0.025295	-0.044327
	H305	H	1.083044	-0.011272	-0.032917
	O306	O	0.007053	1.005957	1.026308
	H307	H	0.007025	0.999467	1.026523
	H308	H	0.001175	1.003110	1.021712
	O309	O	0.529718	0.421699	0.474200
	H310	H	0.549111	0.418769	0.467412
	H311	H	0.527254	0.415422	0.465187
	O312	O	1.540320	0.518058	0.575141
	H313	H	1.540965	0.523472	0.569390
	H314	H	1.537431	0.510537	0.579103
	O315	O	0.482697	0.550937	0.416267
	H316	H	0.494352	0.551207	0.418006
	H317	H	0.483810	0.555677	0.412826
	O318	O	0.482890	0.481779	0.414461
	H319	H	0.484366	0.492729	0.414066
	H320	H	0.485345	0.479089	0.411745
	O321	O	1.013159	1.031588	0.995969
	H322	H	1.016752	1.028827	1.001045
	H323	H	1.023101	1.038580	0.997851
	O324	O	0.595448	0.459548	0.491388
	H325	H	0.600517	0.448304	0.481696
	H326	H	0.607700	0.445753	0.493721
	O327	O	0.526139	0.578933	0.498126
	H328	H	0.525384	0.564773	0.507307
	H329	H	0.526956	0.580628	0.483141
	O330	O	1.038354	0.008263	0.986278
	H331	H	1.043718	0.002389	0.982805
	H332	H	1.041803	0.011864	0.986099
	O333	O	0.979225	0.998330	-0.008188
	H334	H	0.979094	0.999785	-0.014377
	H335	H	0.986028	1.004399	0.007456
	O336	O	0.358046	0.432596	0.611942
	H337	H	0.349419	0.436264	0.609399
	H338	H	0.360472	0.445765	0.622631
	O339	O	0.457132	0.415293	0.471300
	H340	H	0.449082	0.422386	0.478599
	H341	H	0.468632	0.418097	0.473236
	O342	O	-0.095732	0.994254	0.047876
	H343	H	-0.098156	1.001964	0.042224
	H344	H	-0.106164	0.995691	0.052551
	O345	O	0.007916	-0.015377	0.002007
	H346	H	-0.003586	-0.020139	0.008726
	H347	H	0.001450	-0.018279	0.007369
	O348	O	-0.262701	0.770521	0.760039
	H349	H	-0.263109	0.758530	0.752894
	H350	H	-0.266393	0.768709	0.763918
	O351	O	0.485481	0.432324	0.541462
	H352	H	0.485770	0.422982	0.545873
	H353	H	0.477221	0.443210	0.532704
	O354	O	0.548958	0.630959	0.449208
	H355	H	0.551255	0.625702	0.454429
	H356	H	0.551910	0.628622	0.454110
	O357	O	0.534993	0.361952	0.544868
	H358	H	0.518203	0.355012	0.543560
	H359	H	0.541467	0.360599	0.545125
	O360	O	-0.083972	-0.061011	0.043539
	H361	H	-0.081228	-0.056541	0.052750
	H362	H	-0.084936	-0.064993	0.040898
	O363	O	0.499551	0.632836	0.506880
	H364	H	0.497892	0.640973	0.505965
	H365	H	0.491460	0.646967	0.506376
	O366	O	-0.461347	-0.476834	1.432796
	H367	H	-0.453073	-0.470051	1.428345
	H368	H	-0.463485	-0.480147	1.438635
	O369	O	0.524738	0.475979	0.444179
	H370	H	0.503957	0.473171	0.446011
	H371	H	0.531018	0.486152	0.441454
