data_Molecule from HDF5

_cell_length_a		16.200954
_cell_length_b		16.343751
_cell_length_c		16.228048
_cell_angle_alpha	90.047897
_cell_angle_beta	89.975270
_cell_angle_gamma	90.009080
_symmetry_space_group_name_H-M	'P 1'
_symmetry_Int_Tables_number		1

loop_
	_symmetry_equiv_pos_as_xyz
	x,y,z

loop_
	_atom_site_label
	_atom_site_type_symbol
	_atom_site_fract_x
	_atom_site_fract_y
	_atom_site_fract_z
	H0	H	0.402211	0.836415	0.713381
	H1	H	0.597414	0.163392	0.712899
	H2	H	0.597308	0.836202	0.285899
	H3	H	0.402135	0.163590	0.285941
	H4	H	0.711990	0.404035	0.835076
	H5	H	0.712408	0.596418	0.164734
	H6	H	0.288538	0.596900	0.835313
	H7	H	0.288336	0.404461	0.165267
	H8	H	0.835978	0.714207	0.402256
	H9	H	0.164660	0.714632	0.599398
	H10	H	0.836233	0.285365	0.600397
	H11	H	0.163628	0.284892	0.400870
	H12	H	0.835192	0.404102	0.713075
	H13	H	0.165586	0.596560	0.712526
	H14	H	0.835342	0.597585	0.287527
	H15	H	0.164187	0.401257	0.285962
	H16	H	0.401640	0.715110	0.836151
	H17	H	0.599429	0.715523	0.163574
	H18	H	0.598306	0.286169	0.836063
	H19	H	0.401293	0.285704	0.163911
	H20	H	0.715095	0.836161	0.401007
	H21	H	0.713331	0.163546	0.596332
	H22	H	0.285635	0.836158	0.597044
	H23	H	0.285792	0.164051	0.403289
	H24	H	0.901312	0.337504	0.215336
	H25	H	0.096502	0.663475	0.213267
	H26	H	0.097851	0.336385	0.786913
	H27	H	0.902571	0.663528	0.786318
	H28	H	0.211946	0.903785	0.335205
	H29	H	0.212364	0.097070	0.664601
	H30	H	0.787718	0.096454	0.335416
	H31	H	0.787339	0.903681	0.665057
	H32	H	0.335825	0.215357	0.900544
	H33	H	0.664391	0.214026	0.098927
	H34	H	0.335802	0.785964	0.097376
	H35	H	0.663851	0.784456	0.898648
	H36	H	0.334781	0.902868	0.211848
	H37	H	0.664870	0.097269	0.213410
	H38	H	0.334736	0.097358	0.786681
	H39	H	0.665133	0.902461	0.785961
	H40	H	0.900869	0.214393	0.336978
	H41	H	0.098903	0.214748	0.663641
	H42	H	0.098795	0.785816	0.335642
	H43	H	0.901353	0.786129	0.664009
	H44	H	0.214681	0.336562	0.902594
	H45	H	0.213478	0.663827	0.096963
	H46	H	0.786031	0.337007	0.098242
	H47	H	0.786231	0.663743	0.903449
	H48	H	0.409832	0.114127	0.590786
	H49	H	0.595939	0.881850	0.596050
	H50	H	0.597318	0.117152	0.403820
	H51	H	0.398350	0.882067	0.406930
	H52	H	0.588564	0.405806	0.116425
	H53	H	0.597203	0.593728	0.881086
	H54	H	0.402665	0.590433	0.117946
	H55	H	0.405503	0.409728	0.883090
	H56	H	0.114453	0.587673	0.412679
	H57	H	0.883484	0.595330	0.589818
	H58	H	0.117623	0.407936	0.594214
	H59	H	0.884274	0.411903	0.407437
	H60	H	0.118214	0.404730	0.593867
	H61	H	0.883007	0.590171	0.594986
	H62	H	0.119665	0.591286	0.397605
	H63	H	0.880236	0.403702	0.402851
	H64	H	0.412537	0.591855	0.114492
	H65	H	0.592318	0.589900	0.884361
	H66	H	0.594112	0.402110	0.119573
	H67	H	0.411988	0.406153	0.883925
	H68	H	0.589216	0.115691	0.404420
	H69	H	0.589333	0.884253	0.594078
	H70	H	0.400726	0.117137	0.591892
	H71	H	0.409512	0.882800	0.398550
	H72	H	0.908639	0.615852	0.094059
	H73	H	0.085533	0.386833	0.090029
	H74	H	0.103982	0.618357	0.910490
	H75	H	0.905906	0.383286	0.905203
	H76	H	0.102485	0.906009	0.620265
	H77	H	0.106648	0.094159	0.378795
	H78	H	0.899188	0.097039	0.621190
	H79	H	0.909672	0.905328	0.383453
	H80	H	0.613137	0.085280	0.911800
	H81	H	0.386697	0.084351	0.088682
	H82	H	0.620701	0.904384	0.100436
	H83	H	0.384137	0.908123	0.908519
	H84	H	0.617581	0.901801	0.086662
	H85	H	0.378485	0.094920	0.103782
	H86	H	0.619902	0.092707	0.895826
	H87	H	0.381910	0.906183	0.903797
	H88	H	0.907110	0.084521	0.614900
	H89	H	0.087131	0.080928	0.388271
	H90	H	0.088153	0.914899	0.613962
	H91	H	0.905869	0.903317	0.381808
	H92	H	0.092098	0.619583	0.896043
	H93	H	0.103398	0.382195	0.088036
	H94	H	0.904283	0.616498	0.092452
	H95	H	0.907408	0.384122	0.906201
	H96	H	0.407011	0.117322	0.598949
	H97	H	0.594868	0.883734	0.588890
	H98	H	0.594612	0.114303	0.410830
	H99	H	0.410568	0.887252	0.411569
	H100	H	0.595071	0.408854	0.117500
	H101	H	0.591088	0.596458	0.882295
	H102	H	0.407110	0.599180	0.118175
	H103	H	0.405271	0.402167	0.881119
	H104	H	0.120103	0.602379	0.409394
	H105	H	0.881742	0.597057	0.596880
	H106	H	0.116616	0.406625	0.590740
	H107	H	0.883130	0.403476	0.412630
	H108	H	0.905388	0.618704	0.097095
	H109	H	0.094527	0.380691	0.104423
	H110	H	0.086277	0.612027	0.911820
	H111	H	0.905800	0.382992	0.907040
	H112	H	0.087030	0.897622	0.617820
	H113	H	0.083193	0.105497	0.381870
	H114	H	0.914514	0.098889	0.617023
	H115	H	0.905296	0.907986	0.382577
	H116	H	0.618152	0.103460	0.911560
	H117	H	0.382012	0.103430	0.086224
	H118	H	0.614742	0.914579	0.091252
	H119	H	0.382486	0.903060	0.909246
	C120	C	0.377802	0.008184	0.621915
	C121	C	0.621398	0.991388	0.621007
	C122	C	0.621926	0.007738	0.377994
	C123	C	0.377920	0.992061	0.378000
	C124	C	0.621304	0.377786	0.008787
	C125	C	0.621761	0.621726	0.991318
	C126	C	0.379082	0.621909	0.008405
	C127	C	0.378749	0.378203	0.991599
	C128	C	0.008829	0.621441	0.379041
	C129	C	0.991755	0.621953	0.621742
	C130	C	0.008488	0.378852	0.621451
	C131	C	0.991239	0.378331	0.378978
	C132	C	0.878273	0.509067	0.122441
	C133	C	0.121991	0.491449	0.121939
	C134	C	0.122094	0.508515	0.878134
	C135	C	0.878333	0.491732	0.878321
	C136	C	0.120799	0.878496	0.508590
	C137	C	0.120718	0.121696	0.491635
	C138	C	0.878253	0.121717	0.508960
	C139	C	0.878588	0.878095	0.491278
	C140	C	0.508128	0.121545	0.878441
	C141	C	0.491702	0.121438	0.121074
	C142	C	0.508647	0.878910	0.120530
	C143	C	0.491715	0.878098	0.878425
	C144	C	0.380883	0.885217	0.676375
	C145	C	0.618270	0.114617	0.675631
	C146	C	0.618424	0.884825	0.323309
	C147	C	0.380992	0.115055	0.323537
	C148	C	0.675424	0.382145	0.884684
	C149	C	0.675644	0.618146	0.115529
	C150	C	0.325342	0.618058	0.884465
	C151	C	0.325090	0.382720	0.115876
	C152	C	0.884842	0.676170	0.381794
	C153	C	0.115689	0.676832	0.619597
	C154	C	0.885030	0.323866	0.619911
	C155	C	0.115017	0.323331	0.381128
	C156	C	0.884550	0.382663	0.676029
	C157	C	0.116258	0.617796	0.675638
	C158	C	0.884300	0.618101	0.325127
	C159	C	0.115390	0.381418	0.324360
	C160	C	0.381629	0.676499	0.884987
	C161	C	0.619611	0.677092	0.114611
	C162	C	0.618929	0.323630	0.885117
	C163	C	0.381338	0.323891	0.115314
	C164	C	0.676649	0.884851	0.380929
	C165	C	0.675922	0.114533	0.617668
	C166	C	0.323117	0.885168	0.618398
	C167	C	0.323495	0.115238	0.381964
	C168	C	0.880808	0.386092	0.177151
	C169	C	0.117972	0.614810	0.175968
	C170	C	0.118747	0.385228	0.824102
	C171	C	0.881996	0.615068	0.824364
	C172	C	0.174896	0.882340	0.384237
	C173	C	0.174985	0.118119	0.615424
	C174	C	0.824894	0.117762	0.384854
	C175	C	0.824232	0.882215	0.615619
	C176	C	0.384531	0.176690	0.880873
	C177	C	0.615419	0.176060	0.119051
	C178	C	0.384870	0.823846	0.117900
	C179	C	0.615356	0.823107	0.879881
	C180	C	0.384118	0.882151	0.174428
	C181	C	0.615639	0.118037	0.175873
	C182	C	0.383897	0.118146	0.824240
	C183	C	0.615769	0.881611	0.823629
	C184	C	0.880798	0.176615	0.385573
	C185	C	0.118832	0.176677	0.614988
	C186	C	0.118704	0.823870	0.384594
	C187	C	0.880804	0.823894	0.615108
	C188	C	0.176537	0.385332	0.881843
	C189	C	0.175900	0.614847	0.118117
	C190	C	0.823406	0.385873	0.119236
	C191	C	0.824120	0.614875	0.882342
	C192	C	0.399337	0.094024	0.600174
	C193	C	0.599747	0.905415	0.599569
	C194	C	0.600148	0.093663	0.399775
	C195	C	0.399704	0.906167	0.399313
	C196	C	0.599111	0.399280	0.095410
	C197	C	0.599983	0.599839	0.904856
	C198	C	0.401028	0.600240	0.094644
	C199	C	0.400892	0.399681	0.905082
	C200	C	0.095428	0.600058	0.400284
	C201	C	0.904989	0.600711	0.600191
	C202	C	0.095298	0.400051	0.599458
	C203	C	0.904742	0.399936	0.401114
	C204	C	0.899725	0.594888	0.100953
	C205	C	0.100683	0.405461	0.100461
	C206	C	0.100451	0.594435	0.899921
	C207	C	0.899941	0.405715	0.899745
	C208	C	0.098989	0.899941	0.594933
	C209	C	0.098727	0.099987	0.405137
	C210	C	0.900383	0.099879	0.595508
	C211	C	0.900464	0.899186	0.404944
	C212	C	0.594561	0.100077	0.900110
	C213	C	0.404836	0.100262	0.099367
	C214	C	0.595320	0.900545	0.099076
	C215	C	0.405189	0.899595	0.900605
	Zn216	Zn	0.499916	-0.000184	0.750549
	Zn217	Zn	0.499928	-0.000163	0.248709
	Zn218	Zn	0.749495	0.499676	0.000316
	Zn219	Zn	0.250918	0.500046	0.000170
	Zn220	Zn	0.000300	0.749633	0.500221
	Zn221	Zn	-0.000270	0.250088	0.500318
	Zn222	Zn	0.000410	0.500126	0.749471
	Zn223	Zn	-0.000103	0.500022	0.250963
	Zn224	Zn	0.500404	0.750297	-0.000465
	Zn225	Zn	0.499828	0.249630	0.000048
	Zn226	Zn	0.750880	-0.000430	0.499744
	Zn227	Zn	0.248663	-0.000036	0.499898
	N228	N	0.414325	0.962589	0.678499
	N229	N	0.585098	0.037044	0.677817
	N230	N	0.584835	0.962165	0.321678
	N231	N	0.414259	0.037622	0.321096
	N232	N	0.677055	0.415007	0.962655
	N233	N	0.677153	0.584381	0.037869
	N234	N	0.323582	0.584776	0.962287
	N235	N	0.323464	0.415770	0.037927
	N236	N	0.963096	0.678419	0.414572
	N237	N	0.037315	0.679252	0.586668
	N238	N	0.963215	0.321450	0.586739
	N239	N	0.036843	0.321347	0.414300
	N240	N	0.962302	0.416190	0.676824
	N241	N	0.038399	0.584449	0.677049
	N242	N	0.962346	0.585067	0.322996
	N243	N	0.037436	0.414789	0.322769
	N244	N	0.414242	0.679077	0.963035
	N245	N	0.586908	0.679310	0.036338
	N246	N	0.586157	0.320718	0.963340
	N247	N	0.413853	0.320938	0.037044
	N248	N	0.678898	0.962306	0.414096
	N249	N	0.677867	0.037225	0.584369
	N250	N	0.321111	0.962636	0.585363
	N251	N	0.321346	0.037682	0.414879
	N252	N	0.914185	0.463413	0.179290
	N253	N	0.085153	0.537194	0.178196
	N254	N	0.085506	0.462762	0.821772
	N255	N	0.914929	0.537470	0.821736
	N256	N	0.176339	0.915555	0.462101
	N257	N	0.176134	0.084690	0.537683
	N258	N	0.823387	0.084383	0.462538
	N259	N	0.822772	0.915220	0.537627
	N260	N	0.462670	0.178827	0.913822
	N261	N	0.537420	0.177968	0.085496
	N262	N	0.463249	0.821623	0.085271
	N263	N	0.537387	0.821024	0.913324
	N264	N	0.461957	0.915996	0.175998
	N265	N	0.537669	0.084829	0.177095
	N266	N	0.461600	0.084566	0.822608
	N267	N	0.537921	0.915101	0.822508
	N268	N	0.913417	0.179018	0.463868
	N269	N	0.085946	0.179078	0.536871
	N270	N	0.085866	0.821264	0.462941
	N271	N	0.913834	0.821117	0.537115
	N272	N	0.179037	0.463010	0.914465
	N273	N	0.178723	0.537111	0.085417
	N274	N	0.821716	0.463242	0.085851
	N275	N	0.821725	0.537325	0.914912
