data_Molecule from HDF5

_cell_length_a		16.650921
_cell_length_b		16.468568
_cell_length_c		16.593455
_cell_angle_alpha	90.047372
_cell_angle_beta	89.827781
_cell_angle_gamma	90.009731
_symmetry_space_group_name_H-M	'P 1'
_symmetry_Int_Tables_number		1

loop_
	_symmetry_equiv_pos_as_xyz
	x,y,z

loop_
	_atom_site_label
	_atom_site_type_symbol
	_atom_site_fract_x
	_atom_site_fract_y
	_atom_site_fract_z
	H0	H	0.398263	0.854333	0.722177
	H1	H	0.606002	0.169231	0.723113
	H2	H	0.608400	0.853122	0.282287
	H3	H	0.397137	0.166342	0.279040
	H4	H	0.725567	0.404781	0.846532
	H5	H	0.721372	0.614356	0.159514
	H6	H	0.277965	0.619210	0.848229
	H7	H	0.279218	0.403700	0.157698
	H8	H	0.844654	0.728918	0.403413
	H9	H	0.159654	0.730897	0.604856
	H10	H	0.847629	0.291037	0.605056
	H11	H	0.159384	0.291120	0.396219
	H12	H	0.848437	0.404239	0.725450
	H13	H	0.158792	0.616826	0.723818
	H14	H	0.845432	0.614469	0.284460
	H15	H	0.159069	0.407208	0.279154
	H16	H	0.398066	0.732286	0.846581
	H17	H	0.603778	0.729793	0.159688
	H18	H	0.606832	0.290625	0.845534
	H19	H	0.397996	0.289500	0.159156
	H20	H	0.722542	0.852801	0.399472
	H21	H	0.723796	0.169054	0.607756
	H22	H	0.280663	0.855958	0.608698
	H23	H	0.277615	0.164633	0.391606
	H24	H	0.900733	0.353764	0.221423
	H25	H	0.104212	0.671292	0.218028
	H26	H	0.109330	0.353936	0.780209
	H27	H	0.902791	0.669181	0.785333
	H28	H	0.223051	0.908255	0.345816
	H29	H	0.226706	0.120039	0.657078
	H30	H	0.782758	0.117075	0.346038
	H31	H	0.783675	0.909710	0.660043
	H32	H	0.346354	0.231913	0.899076
	H33	H	0.658669	0.231321	0.105052
	H34	H	0.347661	0.788777	0.107690
	H35	H	0.659438	0.792155	0.899375
	H36	H	0.348783	0.903956	0.226709
	H37	H	0.659820	0.114456	0.221204
	H38	H	0.346284	0.115867	0.781570
	H39	H	0.658077	0.907543	0.780386
	H40	H	0.902601	0.230404	0.344224
	H41	H	0.110775	0.236404	0.656621
	H42	H	0.104370	0.794171	0.344549
	H43	H	0.900986	0.794339	0.660993
	H44	H	0.224460	0.353244	0.896384
	H45	H	0.223254	0.668935	0.105160
	H46	H	0.784899	0.352997	0.105389
	H47	H	0.785869	0.669386	0.901761
	H48	H	0.417577	0.122721	0.589929
	H49	H	0.597137	0.896554	0.592494
	H50	H	0.592316	0.123755	0.410324
	H51	H	0.414893	0.899545	0.418151
	H52	H	0.591125	0.419646	0.114656
	H53	H	0.599034	0.596398	0.889379
	H54	H	0.414006	0.601815	0.114194
	H55	H	0.414680	0.420183	0.891631
	H56	H	0.113603	0.598415	0.410858
	H57	H	0.891749	0.596298	0.598297
	H58	H	0.112492	0.424344	0.587863
	H59	H	0.891460	0.422146	0.410413
	H60	H	0.113588	0.427209	0.591595
	H61	H	0.888544	0.606624	0.597517
	H62	H	0.116327	0.604215	0.404685
	H63	H	0.892550	0.421582	0.414065
	H64	H	0.409587	0.598334	0.114777
	H65	H	0.589973	0.597783	0.891729
	H66	H	0.595971	0.420285	0.115775
	H67	H	0.411901	0.424078	0.891385
	H68	H	0.593877	0.123658	0.414613
	H69	H	0.590755	0.898463	0.594137
	H70	H	0.414250	0.123729	0.587843
	H71	H	0.414132	0.898342	0.413528
	H72	H	0.907679	0.628688	0.099260
	H73	H	0.097794	0.398390	0.087323
	H74	H	0.093629	0.623436	0.914867
	H75	H	0.917363	0.397726	0.909900
	H76	H	0.090377	0.924580	0.613217
	H77	H	0.096293	0.095227	0.390501
	H78	H	0.914470	0.104351	0.615163
	H79	H	0.909406	0.920684	0.389316
	H80	H	0.612406	0.098849	0.915476
	H81	H	0.392561	0.096939	0.089515
	H82	H	0.612451	0.919616	0.083818
	H83	H	0.390931	0.921496	0.913849
	H84	H	0.613853	0.928402	0.095401
	H85	H	0.391230	0.097541	0.095786
	H86	H	0.613625	0.097276	0.909008
	H87	H	0.391164	0.922452	0.910697
	H88	H	0.910788	0.098925	0.613615
	H89	H	0.087267	0.096598	0.394162
	H90	H	0.092242	0.917902	0.616037
	H91	H	0.912550	0.923017	0.390677
	H92	H	0.088090	0.621438	0.913265
	H93	H	0.090940	0.396138	0.097826
	H94	H	0.916749	0.624682	0.094341
	H95	H	0.912731	0.398865	0.918566
	H96	H	0.414456	0.125131	0.591614
	H97	H	0.593413	0.900115	0.587749
	H98	H	0.596109	0.125846	0.411269
	H99	H	0.418467	0.900487	0.415014
	H100	H	0.593383	0.424054	0.113850
	H101	H	0.595023	0.604868	0.888443
	H102	H	0.414707	0.596172	0.112709
	H103	H	0.416649	0.424583	0.892904
	H104	H	0.115689	0.607221	0.413186
	H105	H	0.893002	0.602018	0.588932
	H106	H	0.115128	0.422498	0.591596
	H107	H	0.892940	0.425208	0.412603
	H108	H	0.907190	0.624866	0.088493
	H109	H	0.085572	0.401796	0.088214
	H110	H	0.089810	0.620625	0.918644
	H111	H	0.908375	0.394452	0.910796
	H112	H	0.096804	0.923595	0.616454
	H113	H	0.091640	0.103800	0.389373
	H114	H	0.917197	0.098701	0.611772
	H115	H	0.913007	0.918759	0.389991
	H116	H	0.615291	0.103129	0.911360
	H117	H	0.390544	0.102420	0.091620
	H118	H	0.618232	0.914705	0.096395
	H119	H	0.389471	0.919345	0.911415
	C120	C	0.382313	0.020408	0.622691
	C121	C	0.624518	1.003048	0.623446
	C122	C	0.625494	0.019871	0.380943
	C123	C	0.382918	1.002475	0.381807
	C124	C	0.624795	0.389482	0.010954
	C125	C	0.624595	0.631678	0.993673
	C126	C	0.380933	0.631874	0.010743
	C127	C	0.381860	0.390117	0.994789
	C128	C	0.011067	0.633717	0.380627
	C129	C	0.994432	0.633429	0.625333
	C130	C	0.011212	0.391132	0.622930
	C131	C	0.995460	0.390872	0.379840
	C132	C	0.880985	0.520764	0.124299
	C133	C	0.123484	0.503014	0.122478
	C134	C	0.124037	0.518668	0.881930
	C135	C	0.882277	0.501985	0.882169
	C136	C	0.124127	0.890628	0.511167
	C137	C	0.125135	0.132844	0.493730
	C138	C	0.882860	0.132753	0.510171
	C139	C	0.881391	0.890190	0.494212
	C140	C	0.510450	0.132026	0.880656
	C141	C	0.494489	0.131286	0.123692
	C142	C	0.511697	0.889041	0.124171
	C143	C	0.494036	0.889532	0.880433
	C144	C	0.379780	0.901740	0.682503
	C145	C	0.625011	0.121899	0.682934
	C146	C	0.626918	0.900669	0.322114
	C147	C	0.379252	0.119471	0.319731
	C148	C	0.685053	0.386655	0.893346
	C149	C	0.682343	0.633133	0.112224
	C150	C	0.319751	0.636061	0.894281
	C151	C	0.320443	0.386448	0.111465
	C152	C	0.892244	0.690397	0.382886
	C153	C	0.112460	0.691855	0.625009
	C154	C	0.894466	0.330569	0.624791
	C155	C	0.112727	0.331177	0.377622
	C156	C	0.894865	0.387147	0.684309
	C157	C	0.111999	0.634846	0.683855
	C158	C	0.892726	0.633726	0.323540
	C159	C	0.112370	0.388871	0.319436
	C160	C	0.379098	0.692560	0.893480
	C161	C	0.623693	0.690314	0.112307
	C162	C	0.625816	0.330027	0.892843
	C163	C	0.379721	0.329926	0.112278
	C164	C	0.683784	0.900583	0.380341
	C165	C	0.683670	0.121933	0.625854
	C166	C	0.321185	0.902640	0.626320
	C167	C	0.319971	0.118747	0.375803
	C168	C	0.881194	0.401178	0.182300
	C169	C	0.123787	0.623257	0.179884
	C170	C	0.127271	0.401061	0.820602
	C171	C	0.882880	0.621730	0.824564
	C172	C	0.183014	0.889558	0.392963
	C173	C	0.186303	0.137438	0.610211
	C174	C	0.823463	0.134840	0.392451
	C175	C	0.823316	0.890581	0.612952
	C176	C	0.393121	0.191940	0.879850
	C177	C	0.612064	0.191575	0.124548
	C178	C	0.394355	0.829116	0.126378
	C179	C	0.612179	0.831284	0.879607
	C180	C	0.394889	0.886176	0.185427
	C181	C	0.612410	0.133424	0.182199
	C182	C	0.393114	0.134130	0.821505
	C183	C	0.611611	0.888569	0.820795
	C184	C	0.882692	0.191464	0.391666
	C185	C	0.128521	0.195288	0.610167
	C186	C	0.124051	0.832825	0.392254
	C187	C	0.881824	0.833413	0.613541
	C188	C	0.184539	0.400718	0.878467
	C189	C	0.182770	0.622016	0.123564
	C190	C	0.823736	0.400918	0.124561
	C191	C	0.824927	0.621933	0.882288
	C192	C	0.408016	0.102580	0.597137
	C193	C	0.600593	0.920051	0.598385
	C194	C	0.601129	0.102796	0.405122
	C195	C	0.408692	0.920627	0.408281
	C196	C	0.600551	0.414360	0.093231
	C197	C	0.601112	0.606921	0.911397
	C198	C	0.405624	0.606209	0.092517
	C199	C	0.407129	0.415710	0.913224
	C200	C	0.093724	0.610209	0.403211
	C201	C	0.912384	0.608874	0.601575
	C202	C	0.092602	0.417094	0.597450
	C203	C	0.913437	0.415848	0.405498
	C204	C	0.903930	0.604491	0.100898
	C205	C	0.098637	0.420376	0.098146
	C206	C	0.097926	0.600515	0.908085
	C207	C	0.905993	0.418697	0.906188
	C208	C	0.100145	0.914889	0.593807
	C209	C	0.099112	0.106112	0.412571
	C210	C	0.907242	0.107707	0.592117
	C211	C	0.904961	0.913957	0.411404
	C212	C	0.592465	0.106875	0.905075
	C213	C	0.412737	0.106172	0.099357
	C214	C	0.593517	0.913906	0.099114
	C215	C	0.411786	0.913989	0.904992
	Zn216	Zn	0.502185	0.011246	0.751221
	Zn217	Zn	0.503853	0.010275	0.253082
	Zn218	Zn	0.753663	0.510410	0.002530
	Zn219	Zn	0.252128	0.510230	0.002043
	Zn220	Zn	0.002741	0.761716	0.502977
	Zn221	Zn	0.004032	0.261612	0.501454
	Zn222	Zn	0.003660	0.510987	0.753400
	Zn223	Zn	0.003246	0.512452	0.251116
	Zn224	Zn	0.502875	0.760442	0.002057
	Zn225	Zn	0.502489	0.260452	0.002413
	Zn226	Zn	0.753168	0.012196	0.502446
	Zn227	Zn	0.253917	0.011407	0.502396
	N228	N	0.416974	0.975937	0.680516
	N229	N	0.589094	0.046868	0.681711
	N230	N	0.591266	0.975907	0.322129
	N231	N	0.418026	0.046188	0.323695
	N232	N	0.684428	0.422879	0.967893
	N233	N	0.683339	0.597604	0.037314
	N234	N	0.320787	0.599129	0.968310
	N235	N	0.321592	0.422968	0.037271
	N236	N	0.966972	0.690596	0.417544
	N237	N	0.038150	0.691296	0.589543
	N238	N	0.968012	0.332855	0.587330
	N239	N	0.038854	0.332436	0.414673
	N240	N	0.968574	0.424080	0.683106
	N241	N	0.037415	0.599513	0.684463
	N242	N	0.967770	0.599304	0.321872
	N243	N	0.038314	0.425306	0.320814
	N244	N	0.416328	0.690238	0.967113
	N245	N	0.588556	0.689641	0.037544
	N246	N	0.588952	0.331524	0.967047
	N247	N	0.417343	0.332087	0.038803
	N248	N	0.683166	0.975743	0.416186
	N249	N	0.683358	0.046970	0.589466
	N250	N	0.322428	0.977557	0.589806
	N251	N	0.322475	0.044930	0.414141
	N252	N	0.915946	0.476904	0.182442
	N253	N	0.087779	0.548185	0.179587
	N254	N	0.090365	0.475497	0.822419
	N255	N	0.917533	0.546030	0.824055
	N256	N	0.183537	0.924419	0.468177
	N257	N	0.184631	0.099692	0.536539
	N258	N	0.823061	0.099309	0.467322
	N259	N	0.822569	0.924789	0.537550
	N260	N	0.467244	0.190732	0.916015
	N261	N	0.537579	0.190567	0.089024
	N262	N	0.467965	0.830560	0.089146
	N263	N	0.537941	0.831700	0.915772
	N264	N	0.469063	0.922351	0.184270
	N265	N	0.538254	0.097053	0.182080
	N266	N	0.467238	0.097823	0.821856
	N267	N	0.536903	0.923735	0.820986
	N268	N	0.918845	0.190153	0.465793
	N269	N	0.091321	0.192767	0.536590
	N270	N	0.088403	0.833034	0.466902
	N271	N	0.917192	0.832985	0.538592
	N272	N	0.182771	0.475228	0.915559
	N273	N	0.182897	0.546277	0.089026
	N274	N	0.823313	0.476360	0.089470
	N275	N	0.824309	0.546209	0.916837
	O276	O	-0.287223	0.718321	-0.286599
	H277	H	-0.280941	0.711202	-0.324733
	H278	H	-0.253294	0.750517	-0.257691
	O279	O	0.530498	0.547723	0.385715
	H280	H	0.525364	0.557550	0.375680
	H281	H	0.529361	0.525017	0.387114
	O282	O	1.046164	0.213863	1.000414
	H283	H	1.060852	0.211302	0.998862
	H284	H	1.029070	0.212938	0.985351
	O285	O	-0.225293	0.035099	0.020267
	H286	H	-0.223169	0.044618	0.037102
	H287	H	-0.228627	0.045362	0.016998
	O288	O	0.458634	0.544681	0.732565
	H289	H	0.442522	0.546816	0.738195
	H290	H	0.452082	0.560587	0.726385
	O291	O	0.641358	0.485539	0.650485
	H292	H	0.645765	0.495877	0.648080
	H293	H	0.640849	0.501911	0.642994
	O294	O	1.095333	0.218941	1.194590
	H295	H	1.079154	0.218375	1.210243
	H296	H	1.121959	0.231137	1.204733
	O297	O	0.430579	0.466505	0.560303
	H298	H	0.441909	0.462875	0.571185
	H299	H	0.436981	0.472496	0.556983
	O300	O	0.218310	-0.028708	0.792479
	H301	H	0.231366	-0.019488	0.776734
	H302	H	0.200006	-0.015245	0.788464
	O303	O	0.510881	0.475086	0.617441
	H304	H	0.506151	0.480136	0.617635
	H305	H	0.511865	0.477366	0.617361
	O306	O	0.810674	0.199940	0.192028
	H307	H	0.823517	0.184379	0.166053
	H308	H	0.837328	0.181020	0.179702
	O309	O	0.726244	0.546887	0.725452
	H310	H	0.742407	0.559131	0.731032
	H311	H	0.740219	0.562340	0.733807
	O312	O	0.689600	0.705847	0.544529
	H313	H	0.672292	0.714319	0.527621
	H314	H	0.696847	0.722842	0.531596
	O315	O	0.966141	0.792781	1.224331
	H316	H	0.942850	0.772907	1.240971
	H317	H	0.952931	0.782686	1.219854
	O318	O	0.722351	0.296013	0.464419
	H319	H	0.717138	0.292257	0.458924
	H320	H	0.737886	0.280758	0.461428
	O321	O	0.205576	0.918853	0.198375
	H322	H	0.196676	0.945118	0.191987
	H323	H	0.195320	0.928594	0.197676
	O324	O	0.710681	1.305248	0.293870
	H325	H	0.733020	1.282505	0.291737
	H326	H	0.702529	1.295224	0.283718
	O327	O	-0.018328	-0.093281	0.941913
	H328	H	-0.006212	-0.091712	0.947093
	H329	H	0.002135	-0.091680	0.927461
	O330	O	0.538084	0.293443	0.281946
	H331	H	0.541415	0.261070	0.259483
	H332	H	0.546648	0.295567	0.300360
	O333	O	0.479293	0.454149	0.440142
	H334	H	0.474412	0.475613	0.438260
	H335	H	0.486684	0.458375	0.457252
	O336	O	0.317879	0.325110	0.319828
	H337	H	0.332945	0.337260	0.330753
	H338	H	0.321407	0.321790	0.345191
	O339	O	1.309654	-0.345138	0.508781
	H340	H	1.321805	-0.361698	0.511540
	H341	H	1.290497	-0.314410	0.497913
	O342	O	0.211351	0.110742	-0.107535
	H343	H	0.216112	0.107591	-0.101243
	H344	H	0.201521	0.107472	-0.107794
	O345	O	0.081958	0.921702	1.205398
	H346	H	0.066787	0.907270	1.191827
	H347	H	0.065394	0.924176	1.205764
	O348	O	0.282592	-0.451460	0.279468
	H349	H	0.254709	-0.451872	0.246245
	H350	H	0.301285	-0.439829	0.288407
	O351	O	0.537263	0.731473	0.725701
	H352	H	0.562122	0.743886	0.732069
	H353	H	0.561608	0.744667	0.744447
	O354	O	-0.018971	0.183671	0.878989
	H355	H	-0.023526	0.196777	0.873021
	H356	H	-0.038407	0.181695	0.882110
	O357	O	0.570181	0.722509	0.484939
	H358	H	0.565921	0.717038	0.500209
	H359	H	0.547221	0.716264	0.472369
	O360	O	0.497330	0.324546	0.706788
	H361	H	0.504475	0.334152	0.709174
	H362	H	0.511722	0.328738	0.708119
	O363	O	0.064252	-0.198305	-0.215614
	H364	H	0.091907	-0.199444	-0.210375
	H365	H	0.072122	-0.222353	-0.241758
	O366	O	0.314366	0.703854	0.692370
	H367	H	0.340080	0.687006	0.676732
	H368	H	0.319969	0.680912	0.669664
	O369	O	0.304643	0.491387	0.411213
	H370	H	0.304161	0.484095	0.402684
	H371	H	0.320556	0.493252	0.406550
	O372	O	0.793217	0.803744	0.211053
	H373	H	0.787989	0.802835	0.207243
	H374	H	0.767957	0.779946	0.217629
	O375	O	0.816559	-0.087120	-0.056877
	H376	H	0.798899	-0.090530	-0.032918
	H377	H	0.827399	-0.071193	-0.046724
	O378	O	0.363097	0.729522	0.390444
	H379	H	0.355125	0.734442	0.381166
	H380	H	0.362854	0.735164	0.359275
	O381	O	-0.017531	1.208182	0.953504
	H382	H	-0.010792	1.206304	0.937065
	H383	H	-0.020860	1.211846	0.960397
	O384	O	1.050992	-0.195479	1.073186
	H385	H	1.048961	-0.205291	1.091711
	H386	H	1.069089	-0.186210	1.061814
	O387	O	0.926021	1.046321	-0.167723
	H388	H	0.929021	1.057578	-0.151189
	H389	H	0.924398	1.033580	-0.170129
	O390	O	0.606688	0.325779	0.550186
	H391	H	0.608124	0.324372	0.539411
	H392	H	0.607844	0.338137	0.544436
	O393	O	-0.156174	-0.201845	-0.014259
	H394	H	-0.152235	-0.212703	0.005022
	H395	H	-0.148325	-0.209613	-0.023827
	O396	O	-0.054563	0.998222	0.973876
	H397	H	-0.039317	0.995164	0.968614
	H398	H	-0.054531	0.991587	0.972220
	O399	O	0.305041	0.302405	0.712929
	H400	H	0.296812	0.289482	0.704773
	H401	H	0.345264	0.307167	0.712809
	O402	O	0.463816	0.277942	0.487064
	H403	H	0.466257	0.281743	0.479072
	H404	H	0.457155	0.274072	0.500749
	O405	O	1.181283	0.190574	1.086570
	H406	H	1.186699	0.176636	1.106830
	H407	H	1.187288	0.194002	1.083359
	O408	O	0.211732	0.150028	0.148704
	H409	H	0.215046	0.145462	0.168885
	H410	H	0.215240	0.142539	0.147691
	O411	O	0.194339	0.804286	0.815693
	H412	H	0.189859	0.843792	0.812989
	H413	H	0.224497	0.789229	0.786380
	O414	O	0.793618	0.218538	0.795470
	H415	H	0.801221	0.180966	0.788399
	H416	H	0.761084	0.248226	0.761689
	O417	O	0.326758	0.455249	0.472576
	H418	H	0.338117	0.456249	0.471112
	H419	H	0.327555	0.465924	0.459502
	O420	O	0.722711	0.478438	0.283457
	H421	H	0.733631	0.455938	0.272827
	H422	H	0.734702	0.460653	0.274054
	O423	O	0.479201	-0.384695	0.476512
	H424	H	0.474048	-0.370628	0.481793
	H425	H	0.463052	-0.375449	0.472331
	O426	O	-0.211748	0.221023	-0.020966
	H427	H	-0.211792	0.228480	-0.049031
	H428	H	-0.217351	0.237354	-0.037586
	O429	O	0.928570	1.104181	0.785204
	H430	H	0.930918	1.092087	0.794342
	H431	H	0.926959	1.115839	0.780512
	O432	O	0.528546	0.686457	0.304257
	H433	H	0.522395	0.667814	0.314344
	H434	H	0.520975	0.694440	0.289045
	O435	O	0.090478	1.009341	0.139118
	H436	H	0.104802	1.002890	0.129065
	H437	H	0.080176	0.990094	0.130510
	O438	O	0.218769	-0.206003	-0.022825
	H439	H	0.230414	-0.216050	-0.046373
	H440	H	0.231797	-0.214111	-0.045624
	O441	O	0.068812	0.153643	-0.099534
	H442	H	0.056813	0.165564	-0.121884
	H443	H	0.065207	0.143093	-0.096050
	O444	O	0.491654	0.488525	0.262515
	H445	H	0.491953	0.459063	0.261636
	H446	H	0.486213	0.476995	0.257066
	O447	O	-0.096480	0.975075	1.163254
	H448	H	-0.110788	0.962077	1.160380
	H449	H	-0.096126	0.970967	1.154569
	O450	O	-0.301688	0.701751	1.362567
	H451	H	-0.311765	0.693625	1.386950
	H452	H	-0.320957	0.688821	1.373778
	O453	O	0.692244	0.323087	0.688710
	H454	H	0.667892	0.341386	0.678323
	H455	H	0.681054	0.344637	0.665112
	O456	O	0.034382	0.009341	1.047147
	H457	H	0.032988	0.011271	1.038206
	H458	H	0.026819	0.016669	1.053065
	O459	O	0.969398	0.944561	-0.112586
	H460	H	0.984381	0.930859	-0.112780
	H461	H	0.977381	0.947077	-0.107883
	O462	O	0.283289	0.492480	0.724940
	H463	H	0.264086	0.476185	0.739750
	H464	H	0.277727	0.468509	0.717140
	O465	O	0.813381	-0.174779	-0.185735
	H466	H	0.831676	-0.159310	-0.163154
	H467	H	0.827103	-0.151941	-0.168748
	O468	O	0.406052	0.661942	0.595990
	H469	H	0.419123	0.661064	0.604513
	H470	H	0.401976	0.649125	0.599036
	O471	O	0.296825	0.716772	0.296284
	H472	H	0.281589	0.739203	0.270691
	H473	H	0.307438	0.696101	0.305179
	O474	O	0.636871	0.480802	0.509151
	H475	H	0.638650	0.486899	0.518102
	H476	H	0.632722	0.482975	0.510706
	O477	O	0.727226	0.557457	1.440716
	H478	H	0.723651	0.555569	1.459431
	H479	H	0.732553	0.545577	1.414741
	O480	O	0.286533	0.288177	0.520287
	H481	H	0.273569	0.282116	0.528714
	H482	H	0.273144	0.291132	0.527351
	O483	O	1.082626	0.987881	1.052698
	H484	H	1.085722	1.000804	1.053730
	H485	H	1.091445	0.979828	1.048993
	O486	O	1.125796	0.101189	0.991991
	H487	H	1.137482	0.101513	0.995432
	H488	H	1.126799	0.110618	0.993600
	O489	O	0.787770	0.982215	0.217614
	H490	H	0.788977	0.954852	0.214126
	H491	H	0.764356	0.983000	0.228808
