data_Molecule from HDF5

_cell_length_a		16.358686
_cell_length_b		16.119609
_cell_length_c		16.249786
_cell_angle_alpha	90.140198
_cell_angle_beta	90.087098
_cell_angle_gamma	89.808349
_symmetry_space_group_name_H-M	'P 1'
_symmetry_Int_Tables_number		1

loop_
	_symmetry_equiv_pos_as_xyz
	x,y,z

loop_
	_atom_site_label
	_atom_site_type_symbol
	_atom_site_fract_x
	_atom_site_fract_y
	_atom_site_fract_z
	H0	H	0.421496	0.830010	0.717498
	H1	H	0.614094	0.161487	0.719479
	H2	H	0.614866	0.831714	0.292213
	H3	H	0.418137	0.161258	0.293806
	H4	H	0.733951	0.394995	0.842134
	H5	H	0.734445	0.598147	0.168766
	H6	H	0.302587	0.596449	0.841966
	H7	H	0.301960	0.396002	0.168183
	H8	H	0.853809	0.711582	0.407900
	H9	H	0.181392	0.708764	0.602270
	H10	H	0.853756	0.284624	0.601117
	H11	H	0.180752	0.282835	0.407845
	H12	H	0.854536	0.399478	0.719893
	H13	H	0.178839	0.598847	0.722958
	H14	H	0.854345	0.597287	0.289015
	H15	H	0.180378	0.397196	0.291082
	H16	H	0.421151	0.708312	0.840750
	H17	H	0.614534	0.710187	0.170091
	H18	H	0.615063	0.281944	0.841691
	H19	H	0.422212	0.285893	0.170178
	H20	H	0.732426	0.831746	0.406210
	H21	H	0.731259	0.160747	0.606339
	H22	H	0.304420	0.831519	0.604762
	H23	H	0.303750	0.160958	0.408012
	H24	H	0.921096	0.331466	0.216999
	H25	H	0.114713	0.662513	0.219200
	H26	H	0.115692	0.332354	0.791441
	H27	H	0.920546	0.662933	0.793822
	H28	H	0.233757	0.895086	0.342886
	H29	H	0.231614	0.096084	0.669764
	H30	H	0.800103	0.097492	0.343782
	H31	H	0.802635	0.896536	0.669806
	H32	H	0.353706	0.208996	0.910360
	H33	H	0.680956	0.210304	0.104860
	H34	H	0.353528	0.783849	0.101640
	H35	H	0.680882	0.782287	0.908419
	H36	H	0.354057	0.898056	0.220417
	H37	H	0.679506	0.096706	0.224127
	H38	H	0.354492	0.094937	0.791542
	H39	H	0.680318	0.896472	0.791468
	H40	H	0.921152	0.207742	0.340497
	H41	H	0.113454	0.209514	0.670035
	H42	H	0.114808	0.783267	0.341671
	H43	H	0.922261	0.786003	0.671067
	H44	H	0.231594	0.332592	0.905917
	H45	H	0.231583	0.662589	0.105350
	H46	H	0.804707	0.331804	0.104170
	H47	H	0.802656	0.661775	0.906206
	H48	H	0.431199	0.112402	0.600290
	H49	H	0.604730	0.880286	0.597105
	H50	H	0.612712	0.115215	0.416431
	H51	H	0.429966	0.879206	0.413359
	H52	H	0.608243	0.412371	0.119823
	H53	H	0.605054	0.591140	0.889608
	H54	H	0.424459	0.583659	0.120615
	H55	H	0.427941	0.406081	0.889618
	H56	H	0.131864	0.580978	0.406426
	H57	H	0.900302	0.590085	0.602010
	H58	H	0.134562	0.399297	0.596028
	H59	H	0.897482	0.400355	0.401418
	H60	H	0.131554	0.408846	0.596385
	H61	H	0.900161	0.594157	0.599664
	H62	H	0.136309	0.597814	0.408145
	H63	H	0.901932	0.396833	0.417635
	H64	H	0.428074	0.592968	0.122193
	H65	H	0.616130	0.592227	0.885772
	H66	H	0.608561	0.398303	0.123388
	H67	H	0.423812	0.399147	0.886506
	H68	H	0.608297	0.113902	0.413847
	H69	H	0.617736	0.877658	0.593509
	H70	H	0.419414	0.114315	0.593215
	H71	H	0.421549	0.878440	0.417094
	H72	H	0.917298	0.614966	0.091527
	H73	H	0.108714	0.382503	0.090059
	H74	H	0.110774	0.615932	0.914797
	H75	H	0.923240	0.381170	0.920277
	H76	H	0.117520	0.904496	0.624655
	H77	H	0.120300	0.087287	0.386317
	H78	H	0.919046	0.089975	0.624796
	H79	H	0.918765	0.894908	0.384957
	H80	H	0.634354	0.082630	0.903127
	H81	H	0.400187	0.093721	0.103074
	H82	H	0.631398	0.913101	0.104735
	H83	H	0.397278	0.898704	0.904149
	H84	H	0.637084	0.896702	0.104496
	H85	H	0.401762	0.091735	0.097297
	H86	H	0.637280	0.099763	0.911829
	H87	H	0.401870	0.899182	0.918736
	H88	H	0.926443	0.085563	0.621231
	H89	H	0.107470	0.082188	0.391338
	H90	H	0.110938	0.906074	0.622368
	H91	H	0.917270	0.915547	0.390469
	H92	H	0.112263	0.616085	0.913160
	H93	H	0.121115	0.376429	0.098600
	H94	H	0.924070	0.617491	0.106292
	H95	H	0.919180	0.375675	0.906990
	H96	H	0.420490	0.117442	0.606174
	H97	H	0.613266	0.874701	0.606506
	H98	H	0.608360	0.112646	0.418821
	H99	H	0.423261	0.875963	0.409131
	H100	H	0.620426	0.405919	0.124323
	H101	H	0.612661	0.582013	0.890619
	H102	H	0.419222	0.591462	0.124291
	H103	H	0.418894	0.406672	0.888071
	H104	H	0.130234	0.588654	0.421654
	H105	H	0.901554	0.590082	0.597591
	H106	H	0.135517	0.404231	0.604620
	H107	H	0.903670	0.413441	0.410594
	H108	H	0.933018	0.610939	0.093880
	H109	H	0.106231	0.378386	0.105703
	H110	H	0.109575	0.615839	0.912737
	H111	H	0.932793	0.379794	0.909516
	H112	H	0.112193	0.899917	0.624670
	H113	H	0.108573	0.096707	0.386814
	H114	H	0.926789	0.094978	0.623732
	H115	H	0.935675	0.905076	0.392791
	H116	H	0.629937	0.085016	0.921776
	H117	H	0.401317	0.087471	0.102084
	H118	H	0.630266	0.903824	0.090119
	H119	H	0.403061	0.911599	0.910266
	C120	C	0.396606	0.005045	0.627251
	C121	C	0.639222	0.987214	0.627602
	C122	C	0.638663	0.004946	0.386053
	C123	C	0.396240	0.987217	0.385074
	C124	C	0.640173	0.375553	0.014104
	C125	C	0.639899	0.618120	0.997014
	C126	C	0.395780	0.618126	0.014111
	C127	C	0.395977	0.375554	0.996665
	C128	C	0.025365	0.618791	0.383288
	C129	C	1.008665	0.619370	0.627603
	C130	C	0.025836	0.375774	0.627174
	C131	C	1.008859	0.374830	0.382359
	C132	C	0.896969	0.505352	0.125732
	C133	C	0.139427	0.488612	0.126760
	C134	C	0.138990	0.506517	0.884588
	C135	C	0.896503	0.488308	0.884178
	C136	C	0.140534	0.874970	0.514976
	C137	C	0.139600	0.117744	0.496985
	C138	C	0.895554	0.118888	0.514699
	C139	C	0.896361	0.876408	0.498012
	C140	C	0.526075	0.118188	0.883978
	C141	C	0.508751	0.119507	0.129340
	C142	C	0.525356	0.875453	0.127908
	C143	C	0.508852	0.874556	0.883568
	C144	C	0.400516	0.879850	0.680830
	C145	C	0.635539	0.111837	0.682797
	C146	C	0.635747	0.880898	0.330223
	C147	C	0.398391	0.111962	0.331181
	C148	C	0.695071	0.376203	0.890735
	C149	C	0.695742	0.617182	0.120051
	C150	C	0.340709	0.616111	0.890787
	C151	C	0.340519	0.377134	0.119589
	C152	C	0.902665	0.673849	0.386712
	C153	C	0.132098	0.672773	0.623820
	C154	C	0.902706	0.321604	0.622867
	C155	C	0.131942	0.320223	0.386607
	C156	C	0.903062	0.378918	0.681637
	C157	C	0.131064	0.617564	0.683291
	C158	C	0.902870	0.616829	0.327764
	C159	C	0.131721	0.377124	0.328457
	C160	C	0.399564	0.671831	0.890115
	C161	C	0.636292	0.672986	0.120762
	C162	C	0.636359	0.319782	0.890681
	C163	C	0.400477	0.322464	0.120942
	C164	C	0.694118	0.880938	0.386775
	C165	C	0.693539	0.111608	0.626419
	C166	C	0.342313	0.880499	0.624811
	C167	C	0.341195	0.111735	0.387595
	C168	C	0.900234	0.380744	0.180057
	C169	C	0.135991	0.613086	0.181976
	C170	C	0.136241	0.381849	0.829323
	C171	C	0.899843	0.613360	0.830913
	C172	C	0.195478	0.876011	0.391590
	C173	C	0.193964	0.116106	0.620533
	C174	C	0.839248	0.116810	0.392026
	C175	C	0.841106	0.877368	0.621148
	C176	C	0.402805	0.172604	0.888163
	C177	C	0.631724	0.173855	0.126542
	C178	C	0.402482	0.820955	0.123408
	C179	C	0.632147	0.819920	0.887495
	C180	C	0.402582	0.878020	0.182255
	C181	C	0.631140	0.117038	0.185401
	C182	C	0.403164	0.115430	0.829523
	C183	C	0.631677	0.876335	0.829115
	C184	C	0.899273	0.171700	0.390291
	C185	C	0.134947	0.172168	0.620958
	C186	C	0.135985	0.820607	0.390927
	C187	C	0.900614	0.822482	0.621781
	C188	C	0.193552	0.381804	0.886423
	C189	C	0.193516	0.613221	0.124953
	C190	C	0.842301	0.381171	0.123927
	C191	C	0.841241	0.612755	0.886636
	C192	C	0.417525	0.092113	0.606106
	C193	C	0.618184	0.900049	0.605440
	C194	C	0.616276	0.091633	0.409460
	C195	C	0.418373	0.900439	0.406817
	C196	C	0.618646	0.398673	0.100243
	C197	C	0.617783	0.595174	0.910802
	C198	C	0.417584	0.595941	0.100175
	C199	C	0.417435	0.397406	0.910321
	C200	C	0.110740	0.596000	0.405485
	C201	C	0.922851	0.597918	0.606152
	C202	C	0.111694	0.397663	0.605547
	C203	C	0.923075	0.397008	0.403488
	C204	C	0.918519	0.592131	0.103770
	C205	C	0.118504	0.401663	0.104686
	C206	C	0.117210	0.593357	0.906928
	C207	C	0.918588	0.401231	0.905655
	C208	C	0.119714	0.897044	0.601428
	C209	C	0.118394	0.095452	0.410510
	C210	C	0.917760	0.096954	0.601057
	C211	C	0.917673	0.898507	0.411755
	C212	C	0.611722	0.095726	0.905909
	C213	C	0.423268	0.097651	0.107090
	C214	C	0.610847	0.897999	0.106231
	C215	C	0.422920	0.896624	0.904698
	Zn216	Zn	0.517499	-0.004176	0.755202
	Zn217	Zn	0.516901	-0.003110	0.257807
	Zn218	Zn	0.768810	0.496715	0.005229
	Zn219	Zn	0.267341	0.497222	0.005701
	Zn220	Zn	0.017619	0.747700	0.506356
	Zn221	Zn	0.017735	0.246585	0.504580
	Zn222	Zn	0.017640	0.497699	0.756405
	Zn223	Zn	0.017322	0.496683	0.253819
	Zn224	Zn	0.517482	0.746306	0.005464
	Zn225	Zn	0.517856	0.247697	0.006326
	Zn226	Zn	0.767583	-0.003374	0.507023
	Zn227	Zn	0.268794	-0.003580	0.505994
	N228	N	0.433579	0.958245	0.682440
	N229	N	0.602476	0.033387	0.683658
	N230	N	0.602221	0.959213	0.329538
	N231	N	0.431993	0.033613	0.329689
	N232	N	0.697541	0.409965	0.968457
	N233	N	0.697923	0.583682	0.042031
	N234	N	0.338274	0.583423	0.968867
	N235	N	0.337683	0.409466	0.041391
	N236	N	0.979803	0.675256	0.420379
	N237	N	0.055083	0.673655	0.589466
	N238	N	0.980056	0.319881	0.589479
	N239	N	0.054554	0.318653	0.419451
	N240	N	0.980567	0.411717	0.684376
	N241	N	0.053508	0.585071	0.685770
	N242	N	0.980233	0.583564	0.325394
	N243	N	0.054280	0.410413	0.325736
	N244	N	0.433172	0.673298	0.967776
	N245	N	0.602247	0.673637	0.043296
	N246	N	0.603075	0.319207	0.968466
	N247	N	0.434352	0.321367	0.043482
	N248	N	0.696191	0.959233	0.420541
	N249	N	0.695770	0.033270	0.592777
	N250	N	0.339796	0.959107	0.592202
	N251	N	0.339729	0.033208	0.420605
	N252	N	0.933581	0.458921	0.181347
	N253	N	0.102829	0.534752	0.183005
	N254	N	0.103043	0.460335	0.827940
	N255	N	0.933690	0.534997	0.829358
	N256	N	0.198491	0.909088	0.469661
	N257	N	0.196984	0.082917	0.542370
	N258	N	0.836957	0.084579	0.470508
	N259	N	0.838477	0.910232	0.543143
	N260	N	0.480351	0.174347	0.921415
	N261	N	0.554796	0.175465	0.092424
	N262	N	0.479831	0.819375	0.090249
	N263	N	0.554792	0.818847	0.920818
	N264	N	0.479927	0.911122	0.185037
	N265	N	0.553703	0.084213	0.187490
	N266	N	0.480653	0.082451	0.826848
	N267	N	0.554216	0.909618	0.826623
	N268	N	0.933465	0.173041	0.467617
	N269	N	0.101790	0.173339	0.543150
	N270	N	0.102600	0.819681	0.468601
	N271	N	0.934340	0.821791	0.544180
	N272	N	0.195613	0.460306	0.919952
	N273	N	0.195944	0.534767	0.091500
	N274	N	0.840314	0.459564	0.090838
	N275	N	0.839232	0.534097	0.919034
	O276	O	0.495170	0.462270	0.479575
	H277	H	0.497434	0.466033	0.473968
	H278	H	0.495889	0.466412	0.479398
	O279	O	-0.527364	0.480246	-0.511923
	H280	H	-0.525303	0.482247	-0.517818
	H281	H	-0.529306	0.481719	-0.516872
	O282	O	0.441910	0.501713	0.445460
	H283	H	0.445205	0.501448	0.453271
	H284	H	0.446763	0.497541	0.453899
	O285	O	-0.053104	1.009693	1.030262
	H286	H	-0.051677	1.008022	1.023938
	H287	H	-0.052357	1.008435	1.026347
	O288	O	0.982714	-0.041808	0.030789
	H289	H	0.983023	-0.041102	0.031721
	H290	H	0.986058	-0.045782	0.033651
	O291	O	-1.006655	0.981277	-0.933502
	H292	H	-1.017970	0.974579	-0.927023
	H293	H	-1.020958	0.995885	-0.935936
	O294	O	0.494734	0.467637	0.470570
	H295	H	0.486240	0.471731	0.468442
	H296	H	0.494625	0.465243	0.471377
	O297	O	-0.080867	1.005652	0.033213
	H298	H	-0.089351	1.008536	0.041853
	H299	H	-0.076933	0.996711	0.037980
	O300	O	1.016848	0.021476	1.067427
	H301	H	1.018836	0.033769	1.069018
	H302	H	1.019810	0.020059	1.062285
	O303	O	0.448818	0.455512	0.433820
	H304	H	0.449038	0.455483	0.425095
	H305	H	0.446913	0.459411	0.435639
	O306	O	0.008707	1.017318	1.040435
	H307	H	0.007784	1.018499	1.041888
	H308	H	0.010114	1.009275	1.044276
	O309	O	0.460475	0.489134	0.487462
	H310	H	0.455571	0.487687	0.487820
	H311	H	0.459654	0.479668	0.482084
