data_Molecule from HDF5

_cell_length_a		16.350202
_cell_length_b		16.438618
_cell_length_c		16.492426
_cell_angle_alpha	90.105150
_cell_angle_beta	89.840601
_cell_angle_gamma	89.959454
_symmetry_space_group_name_H-M	'P 1'
_symmetry_Int_Tables_number		1

loop_
	_symmetry_equiv_pos_as_xyz
	x,y,z

loop_
	_atom_site_label
	_atom_site_type_symbol
	_atom_site_fract_x
	_atom_site_fract_y
	_atom_site_fract_z
	H0	H	0.390871	0.844557	0.714875
	H1	H	0.611031	0.155392	0.717628
	H2	H	0.613182	0.845424	0.263461
	H3	H	0.392755	0.158193	0.267736
	H4	H	0.724694	0.392832	0.833354
	H5	H	0.723871	0.609836	0.147476
	H6	H	0.278390	0.607737	0.833394
	H7	H	0.275663	0.394702	0.147076
	H8	H	0.842026	0.724455	0.383763
	H9	H	0.157449	0.724396	0.598069
	H10	H	0.841763	0.278106	0.598282
	H11	H	0.158814	0.279644	0.383627
	H12	H	0.841409	0.393244	0.713390
	H13	H	0.157190	0.609000	0.713420
	H14	H	0.841574	0.608802	0.267997
	H15	H	0.156086	0.390139	0.263725
	H16	H	0.394977	0.723195	0.833340
	H17	H	0.610388	0.728430	0.146210
	H18	H	0.608193	0.276518	0.833220
	H19	H	0.388670	0.276040	0.145760
	H20	H	0.726856	0.844261	0.380976
	H21	H	0.725453	0.157442	0.599682
	H22	H	0.277088	0.844029	0.597105
	H23	H	0.277209	0.158099	0.383585
	H24	H	0.889328	0.343262	0.213873
	H25	H	0.108574	0.656576	0.215332
	H26	H	0.108148	0.343412	0.766046
	H27	H	0.892045	0.658267	0.766876
	H28	H	0.223943	0.894271	0.332792
	H29	H	0.223909	0.108463	0.647304
	H30	H	0.775910	0.109767	0.333994
	H31	H	0.775853	0.893101	0.646156
	H32	H	0.341966	0.223389	0.883241
	H33	H	0.656284	0.227977	0.100319
	H34	H	0.341575	0.779506	0.097109
	H35	H	0.657484	0.776811	0.881902
	H36	H	0.343136	0.892683	0.215371
	H37	H	0.658329	0.109657	0.212601
	H38	H	0.343933	0.110434	0.765802
	H39	H	0.656119	0.888389	0.763165
	H40	H	0.890262	0.226911	0.334768
	H41	H	0.108887	0.226114	0.647062
	H42	H	0.110251	0.775349	0.333985
	H43	H	0.890770	0.776311	0.646172
	H44	H	0.222897	0.343013	0.883201
	H45	H	0.220315	0.659188	0.095132
	H46	H	0.773725	0.344468	0.097843
	H47	H	0.778117	0.659578	0.884915
	H48	H	0.412871	0.114443	0.580555
	H49	H	0.583627	0.890738	0.574714
	H50	H	0.585268	0.114010	0.394656
	H51	H	0.411781	0.888530	0.404377
	H52	H	0.584621	0.418157	0.099204
	H53	H	0.585044	0.589051	0.880243
	H54	H	0.405918	0.588950	0.104900
	H55	H	0.400752	0.414984	0.874951
	H56	H	0.114522	0.591180	0.401662
	H57	H	0.888123	0.589245	0.574275
	H58	H	0.110644	0.419420	0.578520
	H59	H	0.886065	0.412748	0.401065
	H60	H	0.115489	0.411155	0.583125
	H61	H	0.887330	0.584842	0.580334
	H62	H	0.110103	0.585141	0.406509
	H63	H	0.887411	0.412701	0.405977
	H64	H	0.414010	0.586304	0.100382
	H65	H	0.588381	0.593001	0.877959
	H66	H	0.582250	0.412817	0.099971
	H67	H	0.418772	0.420197	0.882767
	H68	H	0.582061	0.109255	0.407218
	H69	H	0.589493	0.888621	0.573992
	H70	H	0.415540	0.112298	0.578740
	H71	H	0.412808	0.887023	0.399565
	H72	H	0.914127	0.611464	0.075978
	H73	H	0.087206	0.387313	0.078439
	H74	H	0.091758	0.614439	0.899931
	H75	H	0.911424	0.389206	0.904613
	H76	H	0.091174	0.910151	0.604023
	H77	H	0.087074	0.093976	0.377450
	H78	H	0.912518	0.085114	0.601638
	H79	H	0.911481	0.914664	0.377461
	H80	H	0.610782	0.080492	0.902713
	H81	H	0.383070	0.095516	0.083708
	H82	H	0.613745	0.910147	0.074129
	H83	H	0.388959	0.916760	0.903625
	H84	H	0.610881	0.919167	0.075869
	H85	H	0.389121	0.088873	0.071562
	H86	H	0.615619	0.090457	0.899957
	H87	H	0.385849	0.913294	0.900665
	H88	H	0.917279	0.089756	0.600901
	H89	H	0.092468	0.088177	0.377290
	H90	H	0.088762	0.916662	0.601066
	H91	H	0.917684	0.915961	0.380170
	H92	H	0.084899	0.613939	0.897565
	H93	H	0.084457	0.388693	0.077598
	H94	H	0.908694	0.613632	0.079350
	H95	H	0.911052	0.388033	0.900722
	H96	H	0.412417	0.113578	0.576902
	H97	H	0.587055	0.887592	0.579562
	H98	H	0.594974	0.114707	0.404779
	H99	H	0.416813	0.889732	0.403034
	H100	H	0.588120	0.414499	0.102470
	H101	H	0.590101	0.587813	0.878410
	H102	H	0.413358	0.595333	0.104145
	H103	H	0.416187	0.401478	0.875409
	H104	H	0.112221	0.583279	0.398340
	H105	H	0.884618	0.591566	0.580586
	H106	H	0.112724	0.410041	0.572948
	H107	H	0.887271	0.416877	0.402932
	H108	H	0.915217	0.612943	0.082113
	H109	H	0.087124	0.389068	0.075441
	H110	H	0.086955	0.611874	0.904283
	H111	H	0.914689	0.389610	0.901784
	H112	H	0.084461	0.910445	0.601319
	H113	H	0.085259	0.086959	0.380261
	H114	H	0.911662	0.091676	0.603464
	H115	H	0.916155	0.909712	0.378146
	H116	H	0.611399	0.088799	0.910451
	H117	H	0.387858	0.080822	0.084463
	H118	H	0.615010	0.914217	0.082414
	H119	H	0.387592	0.911802	0.905751
	C120	C	0.379070	0.009889	0.612108
	C121	C	0.621604	0.992168	0.611189
	C122	C	0.622819	0.009627	0.368177
	C123	C	0.379872	0.992374	0.369155
	C124	C	0.620376	0.380229	-0.002279
	C125	C	0.621830	0.623923	0.981976
	C126	C	0.378569	0.622627	-0.000798
	C127	C	0.377689	0.379295	0.981258
	C128	C	0.008161	0.621057	0.369331
	C129	C	0.991107	0.622075	0.611792
	C130	C	0.008529	0.379708	0.611856
	C131	C	0.990857	0.379484	0.368839
	C132	C	0.877685	0.509344	0.112454
	C133	C	0.119802	0.492318	0.110816
	C134	C	0.121859	0.509336	0.867448
	C135	C	0.879036	0.492960	0.869384
	C136	C	0.122794	0.878399	0.498835
	C137	C	0.122082	0.123158	0.481898
	C138	C	0.878960	0.122993	0.498718
	C139	C	0.879841	0.879475	0.481450
	C140	C	0.508744	0.120786	0.869916
	C141	C	0.491017	0.123310	0.112742
	C142	C	0.508910	0.880262	0.111619
	C143	C	0.491588	0.879587	0.869221
	C144	C	0.374094	0.891665	0.673922
	C145	C	0.627572	0.108973	0.675573
	C146	C	0.629154	0.892297	0.304848
	C147	C	0.375987	0.110979	0.308404
	C148	C	0.683648	0.375459	0.880503
	C149	C	0.683689	0.627977	0.100005
	C150	C	0.318388	0.625399	0.880582
	C151	C	0.315582	0.376376	0.099467
	C152	C	0.889538	0.683916	0.365901
	C153	C	0.110033	0.683647	0.615291
	C154	C	0.889317	0.318475	0.615644
	C155	C	0.110336	0.318706	0.365333
	C156	C	0.889385	0.375779	0.673317
	C157	C	0.109831	0.626181	0.673072
	C158	C	0.889229	0.626272	0.308116
	C159	C	0.109061	0.374209	0.305621
	C160	C	0.376235	0.683188	0.880620
	C161	C	0.626920	0.687063	0.099428
	C162	C	0.625575	0.317401	0.880387
	C163	C	0.372040	0.316969	0.098685
	C164	C	0.686276	0.891777	0.363158
	C165	C	0.684525	0.109858	0.616600
	C166	C	0.316973	0.891418	0.615543
	C167	C	0.318142	0.111069	0.366128
	C168	C	0.872687	0.390777	0.173636
	C169	C	0.124943	0.610100	0.173754
	C170	C	0.125450	0.390664	0.806577
	C171	C	0.874884	0.611222	0.807683
	C172	C	0.184413	0.875590	0.380578
	C173	C	0.183808	0.126611	0.599840
	C174	C	0.816462	0.127222	0.381259
	C175	C	0.816920	0.875515	0.599135
	C176	C	0.389842	0.182691	0.865886
	C177	C	0.609108	0.186323	0.116813
	C178	C	0.389511	0.819411	0.115379
	C179	C	0.610018	0.817205	0.864577
	C180	C	0.390465	0.875887	0.174187
	C181	C	0.610440	0.127342	0.172998
	C182	C	0.390812	0.126498	0.806916
	C183	C	0.609300	0.873146	0.805436
	C184	C	0.873852	0.185565	0.381535
	C185	C	0.126152	0.185068	0.599877
	C186	C	0.127607	0.816217	0.381126
	C187	C	0.874259	0.817103	0.599028
	C188	C	0.182790	0.390651	0.864836
	C189	C	0.180418	0.611473	0.113694
	C190	C	0.814809	0.391424	0.115837
	C191	C	0.818206	0.611985	0.866605
	C192	C	0.405765	0.091938	0.586172
	C193	C	0.594486	0.910433	0.583828
	C194	C	0.595474	0.091442	0.394870
	C195	C	0.406187	0.909995	0.394869
	C196	C	0.592875	0.407340	0.079310
	C197	C	0.595457	0.597402	0.900312
	C198	C	0.403881	0.597436	0.081617
	C199	C	0.404384	0.404814	0.898987
	C200	C	0.090578	0.594269	0.394792
	C201	C	0.908482	0.596229	0.585935
	C202	C	0.091300	0.405936	0.585687
	C203	C	0.908322	0.406429	0.395702
	C204	C	0.904982	0.591229	0.086725
	C205	C	0.093705	0.410068	0.084603
	C206	C	0.095428	0.592036	0.893201
	C207	C	0.904926	0.410493	0.895164
	C208	C	0.095948	0.904704	0.580819
	C209	C	0.095953	0.097051	0.399771
	C210	C	0.905935	0.096406	0.580735
	C211	C	0.907221	0.905876	0.399838
	C212	C	0.590983	0.094025	0.896685
	C213	C	0.408226	0.096290	0.087133
	C214	C	0.591486	0.906671	0.084869
	C215	C	0.409065	0.906429	0.895848
	Zn216	Zn	0.500250	0.000123	0.740957
	Zn217	Zn	0.501097	0.001272	0.240319
	Zn218	Zn	0.749718	0.501707	-0.009709
	Zn219	Zn	0.249316	0.501343	-0.010124
	Zn220	Zn	0.000434	0.749811	0.489885
	Zn221	Zn	0.000143	0.252001	0.490542
	Zn222	Zn	-0.000534	0.500640	0.739925
	Zn223	Zn	-0.000929	0.500463	0.240753
	Zn224	Zn	0.499406	0.751603	-0.009304
	Zn225	Zn	0.499653	0.250187	-0.009987
	Zn226	Zn	0.750976	0.000838	0.490054
	Zn227	Zn	0.250750	0.001305	0.490231
	N228	N	0.411674	0.966379	0.672106
	N229	N	0.589279	0.034717	0.672263
	N230	N	0.590479	0.966531	0.307754
	N231	N	0.413592	0.036140	0.310097
	N232	N	0.680464	0.413847	0.954544
	N233	N	0.680669	0.589440	0.025943
	N234	N	0.319729	0.588333	0.955213
	N235	N	0.318690	0.414146	0.025191
	N236	N	0.964691	0.680999	0.403039
	N237	N	0.035255	0.681232	0.577742
	N238	N	0.964507	0.320701	0.578205
	N239	N	0.035733	0.321828	0.403783
	N240	N	0.964572	0.413096	0.671098
	N241	N	0.034945	0.588628	0.671058
	N242	N	0.963903	0.587994	0.310052
	N243	N	0.033710	0.411136	0.307516
	N244	N	0.412994	0.681593	0.955336
	N245	N	0.589477	0.684939	0.025031
	N246	N	0.587035	0.320175	0.954479
	N247	N	0.409852	0.318608	0.024207
	N248	N	0.682587	0.965814	0.401804
	N249	N	0.680808	0.036174	0.577115
	N250	N	0.319878	0.965781	0.577726
	N251	N	0.320149	0.036140	0.402892
	N252	N	0.911246	0.465100	0.171618
	N253	N	0.088178	0.534915	0.172443
	N254	N	0.088419	0.465761	0.808015
	N255	N	0.911843	0.536107	0.809112
	N256	N	0.181383	0.913468	0.454895
	N257	N	0.181362	0.088984	0.525427
	N258	N	0.819681	0.088970	0.455179
	N259	N	0.820225	0.913662	0.525152
	N260	N	0.464061	0.179267	0.904646
	N261	N	0.533651	0.184094	0.080256
	N262	N	0.464228	0.822055	0.077158
	N263	N	0.535812	0.821075	0.903692
	N264	N	0.465898	0.912838	0.172117
	N265	N	0.535927	0.088874	0.170654
	N266	N	0.465847	0.088796	0.809226
	N267	N	0.534617	0.911352	0.808390
	N268	N	0.911866	0.183070	0.455790
	N269	N	0.088576	0.183189	0.525573
	N270	N	0.090126	0.817843	0.455763
	N271	N	0.912647	0.819466	0.524868
	N272	N	0.180501	0.465558	0.902033
	N273	N	0.177703	0.537218	0.075604
	N274	N	0.817761	0.465909	0.078507
	N275	N	0.820486	0.537411	0.903950
	O276	O	0.559696	0.454209	0.699065
	H277	H	0.565384	0.448973	0.699692
	H278	H	0.556300	0.465989	0.704352
	O279	O	0.924252	0.095816	1.048629
	H280	H	0.910681	0.094655	1.032868
	H281	H	0.919277	0.092528	1.030401
	O282	O	0.521298	0.288654	0.280131
	H283	H	0.496222	0.321702	0.272888
	H284	H	0.521249	0.265817	0.246787
	O285	O	0.379341	0.375950	0.422389
	H286	H	0.381970	0.363907	0.415865
	H287	H	0.391504	0.396605	0.426427
	O288	O	0.295602	0.296677	0.480550
	H289	H	0.275417	0.264266	0.475420
	H290	H	0.313466	0.298491	0.494470
	O291	O	0.684519	0.673700	0.675587
	H292	H	0.677850	0.678701	0.649991
	H293	H	0.677563	0.648898	0.681185
	O294	O	0.212177	-0.023141	0.776452
	H295	H	0.221760	-0.053077	0.764930
	H296	H	0.221534	-0.048700	0.768627
	O297	O	0.467481	0.655809	0.519982
	H298	H	0.462632	0.657568	0.528105
	H299	H	0.454719	0.639776	0.516466
	O300	O	0.484958	0.712381	0.279749
	H301	H	0.489004	0.724763	0.266817
	H302	H	0.496286	0.726099	0.286645
	O303	O	0.451406	0.476058	0.525773
	H304	H	0.450643	0.478808	0.541587
	H305	H	0.454560	0.484723	0.534570
	O306	O	0.682102	0.319237	0.310707
	H307	H	0.663393	0.309629	0.332114
	H308	H	0.660667	0.337952	0.300247
	O309	O	0.318058	0.327866	0.674540
	H310	H	0.350847	0.328657	0.683895
	H311	H	0.316322	0.332038	0.658695
	O312	O	0.018158	0.791512	0.783999
	H313	H	0.004976	0.789178	0.776470
	H314	H	0.011761	0.775940	0.782833
	O315	O	0.480116	0.292661	0.692555
	H316	H	0.494101	0.298610	0.666712
	H317	H	0.486783	0.262694	0.703789
	O318	O	1.211419	0.012653	0.192441
	H319	H	1.203473	0.001598	0.214284
	H320	H	1.215222	0.042315	0.195521
	O321	O	-0.211227	0.015917	-0.223980
	H322	H	-0.233022	0.015096	-0.247754
	H323	H	-0.209085	0.032952	-0.214699
	O324	O	0.560394	0.606915	0.374839
	H325	H	0.552562	0.617755	0.380994
	H326	H	0.549956	0.615381	0.361941
	O327	O	0.465750	0.437112	0.284780
	H328	H	0.449140	0.447446	0.300043
	H329	H	0.466820	0.459556	0.280366
	O330	O	-0.172532	0.821547	0.171222
	H331	H	-0.184046	0.866599	0.174819
	H332	H	-0.177465	0.811557	0.123579
	O333	O	0.682492	0.500598	0.349852
	H334	H	0.693749	0.475757	0.354831
	H335	H	0.692702	0.491002	0.349280
	O336	O	0.209456	0.210142	0.016644
	H337	H	0.226970	0.212120	0.000170
	H338	H	0.219468	0.202588	-0.001006
	O339	O	-0.174313	1.178756	1.052378
	H340	H	-0.160309	1.177954	1.028425
	H341	H	-0.180782	1.195901	1.053511
	O342	O	-0.010971	0.799200	1.196914
	H343	H	-0.052361	0.811014	1.192882
	H344	H	-0.014709	0.778350	1.220836
	O345	O	1.022483	1.217009	0.211039
	H346	H	1.015180	1.246496	0.220519
	H347	H	1.037352	1.228043	0.204007
	O348	O	0.282538	0.718647	0.466393
	H349	H	0.288984	0.712502	0.423863
	H350	H	0.250829	0.745314	0.466452
	O351	O	0.042880	0.960697	1.203173
	H352	H	0.036697	0.937633	1.203358
	H353	H	0.042204	0.957730	1.194723
	O354	O	0.184574	0.818179	-0.196133
	H355	H	0.188609	0.810966	-0.148203
	H356	H	0.148545	0.802240	-0.200637
	O357	O	0.213213	0.061303	0.926885
	H358	H	0.210760	0.045343	0.920240
	H359	H	0.220182	0.038357	0.914503
	O360	O	0.565087	0.281554	0.551642
	H361	H	0.547664	0.283326	0.528354
	H362	H	0.570334	0.296017	0.548300
	O363	O	-0.181655	0.175376	0.814407
	H364	H	-0.190462	0.158129	0.832874
	H365	H	-0.129231	0.187693	0.801822
	O366	O	0.015181	0.945274	0.074394
	H367	H	0.007810	0.954930	0.070956
	H368	H	0.024647	0.941155	0.081063
	O369	O	0.327601	0.680446	0.312357
	H370	H	0.370155	0.685960	0.302593
	H371	H	0.314533	0.644798	0.303688
	O372	O	0.787153	-0.166425	0.985976
	H373	H	0.766655	-0.173334	0.964720
	H374	H	0.781059	-0.142966	0.971454
	O375	O	0.700179	0.519653	0.704010
	H376	H	0.725134	0.515621	0.730832
	H377	H	0.693607	0.517925	0.692964
	O378	O	1.182738	1.183335	1.176761
	H379	H	1.157816	1.167438	1.181346
	H380	H	1.190382	1.194035	1.127758
	O381	O	0.437255	0.538989	0.672925
	H382	H	0.453952	0.549597	0.673122
	H383	H	0.409184	0.532305	0.678653
	O384	O	0.711642	0.288250	0.470591
	H385	H	0.706906	0.270576	0.482166
	H386	H	0.719903	0.272785	0.447386
	O387	O	-0.016442	0.038151	1.171578
	H388	H	-0.005011	0.071535	1.168318
	H389	H	0.003974	0.030247	1.166603
	O390	O	-0.019075	-0.020349	-0.223525
	H391	H	-0.027039	-0.009186	-0.223033
	H392	H	0.003259	-0.028165	-0.230431
	O393	O	1.064689	0.940535	1.035918
	H394	H	1.056867	0.941996	1.066877
	H395	H	1.037268	0.934197	1.026872
	O396	O	1.025132	-0.198072	0.000979
	H397	H	1.011180	-0.198806	0.013900
	H398	H	1.015451	-0.192884	0.003804
	O399	O	0.977673	0.210659	0.778303
	H400	H	0.999328	0.210901	0.790717
	H401	H	0.987654	0.220701	0.755785
	O402	O	1.061468	1.112381	0.821529
	H403	H	1.095168	1.093784	0.824296
	H404	H	1.048493	1.094262	0.837199
	O405	O	1.041011	1.208839	-0.035672
	H406	H	1.049574	1.203468	-0.014158
	H407	H	1.032661	1.203285	-0.048043
	O408	O	0.788984	-0.018366	0.199761
	H409	H	0.788205	-0.017181	0.220460
	H410	H	0.802057	-0.001701	0.217040
	O411	O	1.309037	1.536511	0.564852
	H412	H	1.314302	1.541689	0.590407
	H413	H	1.307795	1.558311	0.557402
	O414	O	0.627641	0.533495	0.292788
	H415	H	0.614003	0.545429	0.294694
	H416	H	0.646259	0.531952	0.273859
	O417	O	0.669547	0.440784	0.525652
	H418	H	0.674361	0.437642	0.537507
	H419	H	0.674557	0.416491	0.510643
	O420	O	0.614495	0.664483	0.428406
	H421	H	0.624937	0.664891	0.449136
	H422	H	0.615696	0.667670	0.444287
	O423	O	0.603369	0.600677	0.489552
	H424	H	0.615611	0.610032	0.488641
	H425	H	0.564809	0.599401	0.483607
	O426	O	0.349068	0.366680	0.433120
	H427	H	0.355138	0.359860	0.437502
	H428	H	0.331510	0.378569	0.455452
	O429	O	0.311549	0.519064	0.281142
	H430	H	0.290329	0.507984	0.288236
	H431	H	0.293218	0.509712	0.286872
	O432	O	0.610907	0.713570	0.521032
	H433	H	0.621069	0.718796	0.522009
	H434	H	0.613595	0.696401	0.506024
	O435	O	-0.212733	0.104965	1.009997
	H436	H	-0.214945	0.100589	1.042400
	H437	H	-0.219866	0.127704	1.014812
	O438	O	0.161853	-0.168541	-0.040081
	H439	H	0.164079	-0.184196	-0.026411
	H440	H	0.152462	-0.166092	-0.013320
	O441	O	0.956082	-0.139706	-0.063980
	H442	H	0.963418	-0.144417	-0.054227
	H443	H	0.946083	-0.142012	-0.065189
	O444	O	0.120744	0.964692	1.016861
	H445	H	0.119768	0.972257	1.012336
	H446	H	0.125413	0.943238	1.016516
	O447	O	0.835994	-0.084419	0.866811
	H448	H	0.851223	-0.063107	0.852059
	H449	H	0.825181	-0.055108	0.880184
	O450	O	0.511668	0.703605	0.693619
	H451	H	0.505849	0.709265	0.679694
	H452	H	0.517913	0.711795	0.700681
	O453	O	0.294259	0.547458	0.687007
	H454	H	0.304593	0.531265	0.670126
	H455	H	0.267684	0.547314	0.709334
