data_Molecule from HDF5

_cell_length_a		16.299042
_cell_length_b		16.113245
_cell_length_c		16.151736
_cell_angle_alpha	90.435252
_cell_angle_beta	90.802630
_cell_angle_gamma	89.971644
_symmetry_space_group_name_H-M	'P 1'
_symmetry_Int_Tables_number		1

loop_
	_symmetry_equiv_pos_as_xyz
	x,y,z

loop_
	_atom_site_label
	_atom_site_type_symbol
	_atom_site_fract_x
	_atom_site_fract_y
	_atom_site_fract_z
	H0	H	0.425439	0.828573	0.709850
	H1	H	0.619528	0.160229	0.717142
	H2	H	0.616264	0.830309	0.287938
	H3	H	0.419527	0.162151	0.290077
	H4	H	0.727308	0.393931	0.833867
	H5	H	0.738029	0.597646	0.163242
	H6	H	0.301991	0.594846	0.834975
	H7	H	0.305863	0.396623	0.164301
	H8	H	0.855646	0.707428	0.398573
	H9	H	0.183677	0.706860	0.601306
	H10	H	0.855177	0.282657	0.590020
	H11	H	0.183765	0.279404	0.401732
	H12	H	0.854557	0.395550	0.708151
	H13	H	0.182149	0.593369	0.718664
	H14	H	0.856215	0.591663	0.281607
	H15	H	0.183738	0.394137	0.286066
	H16	H	0.419334	0.707985	0.835192
	H17	H	0.617747	0.706473	0.166403
	H18	H	0.612895	0.279189	0.835818
	H19	H	0.425366	0.287119	0.167059
	H20	H	0.732237	0.830029	0.401797
	H21	H	0.737481	0.158812	0.605111
	H22	H	0.307202	0.829863	0.599271
	H23	H	0.302737	0.159585	0.402382
	H24	H	0.925633	0.327228	0.205317
	H25	H	0.120117	0.658495	0.215660
	H26	H	0.109723	0.326926	0.789551
	H27	H	0.919237	0.659961	0.784825
	H28	H	0.234232	0.892565	0.336505
	H29	H	0.235645	0.095694	0.665155
	H30	H	0.800595	0.093516	0.337430
	H31	H	0.807625	0.893832	0.665338
	H32	H	0.353867	0.206817	0.903277
	H33	H	0.683183	0.211090	0.103351
	H34	H	0.355637	0.782277	0.096349
	H35	H	0.683130	0.780786	0.905549
	H36	H	0.354800	0.899920	0.211220
	H37	H	0.682825	0.096147	0.221044
	H38	H	0.355622	0.093997	0.783718
	H39	H	0.683595	0.895765	0.788902
	H40	H	0.920912	0.201936	0.332555
	H41	H	0.119359	0.209549	0.664556
	H42	H	0.116606	0.779044	0.334721
	H43	H	0.925041	0.780767	0.664919
	H44	H	0.232426	0.329934	0.897706
	H45	H	0.234222	0.659289	0.100787
	H46	H	0.805992	0.329414	0.094096
	H47	H	0.802662	0.659737	0.897845
	H48	H	0.423364	0.114429	0.595505
	H49	H	0.616271	0.872599	0.605086
	H50	H	0.618226	0.114348	0.416611
	H51	H	0.426356	0.875420	0.400257
	H52	H	0.614523	0.410391	0.116590
	H53	H	0.604205	0.594362	0.881583
	H54	H	0.434734	0.593518	0.116848
	H55	H	0.423039	0.401208	0.882443
	H56	H	0.139605	0.585548	0.398967
	H57	H	0.904005	0.580865	0.590519
	H58	H	0.137513	0.403180	0.598291
	H59	H	0.906780	0.405954	0.407570
	H60	H	0.137750	0.398293	0.597034
	H61	H	0.900139	0.590892	0.595398
	H62	H	0.137283	0.594526	0.411961
	H63	H	0.899277	0.401407	0.388838
	H64	H	0.418080	0.593695	0.122128
	H65	H	0.619556	0.589810	0.878682
	H66	H	0.611282	0.400472	0.117822
	H67	H	0.424388	0.401018	0.881026
	H68	H	0.611514	0.115641	0.405559
	H69	H	0.604817	0.879671	0.592438
	H70	H	0.429800	0.113591	0.595914
	H71	H	0.430394	0.879173	0.409757
	H72	H	0.932749	0.611481	0.092951
	H73	H	0.115734	0.372889	0.097104
	H74	H	0.104083	0.611922	0.905325
	H75	H	0.923469	0.378409	0.909621
	H76	H	0.122886	0.900624	0.620543
	H77	H	0.110023	0.088053	0.381841
	H78	H	0.930072	0.089511	0.618367
	H79	H	0.913993	0.902037	0.379733
	H80	H	0.635146	0.094821	0.918116
	H81	H	0.404694	0.088772	0.088595
	H82	H	0.638010	0.895442	0.096733
	H83	H	0.402793	0.906367	0.900814
	H84	H	0.633343	0.906261	0.090888
	H85	H	0.401054	0.087433	0.102699
	H86	H	0.633382	0.078181	0.911657
	H87	H	0.399976	0.896700	0.902231
	H88	H	0.928713	0.090262	0.619003
	H89	H	0.115727	0.087482	0.379986
	H90	H	0.112588	0.908836	0.616193
	H91	H	0.929275	0.910340	0.387116
	H92	H	0.111905	0.611168	0.915751
	H93	H	0.108534	0.377635	0.088584
	H94	H	0.926013	0.610693	0.084017
	H95	H	0.913590	0.372851	0.900437
	H96	H	0.427117	0.112985	0.589916
	H97	H	0.622558	0.876264	0.587501
	H98	H	0.605430	0.110690	0.416403
	H99	H	0.420663	0.875690	0.408930
	H100	H	0.621631	0.403035	0.120080
	H101	H	0.608364	0.579210	0.884745
	H102	H	0.425994	0.579024	0.115149
	H103	H	0.422895	0.400565	0.881213
	H104	H	0.132657	0.579112	0.412418
	H105	H	0.903484	0.589722	0.584406
	H106	H	0.136129	0.401542	0.592264
	H107	H	0.899394	0.386539	0.402868
	H108	H	0.922709	0.615481	0.093618
	H109	H	0.119594	0.375186	0.086690
	H110	H	0.115487	0.615584	0.904348
	H111	H	0.927389	0.375034	0.896910
	H112	H	0.109853	0.895880	0.618416
	H113	H	0.113036	0.082632	0.381808
	H114	H	0.928528	0.088338	0.618188
	H115	H	0.929873	0.892735	0.381837
	H116	H	0.639020	0.091609	0.902038
	H117	H	0.399219	0.099175	0.096322
	H118	H	0.637585	0.906642	0.102411
	H119	H	0.404305	0.901823	0.910028
	C120	C	0.399294	0.003974	0.621422
	C121	C	0.643179	0.985776	0.624465
	C122	C	0.639484	0.004284	0.382542
	C123	C	0.397037	0.986547	0.379135
	C124	C	0.640738	0.373938	0.008702
	C125	C	0.640736	0.616957	0.990730
	C126	C	0.397249	0.616771	0.008642
	C127	C	0.397137	0.373919	0.991404
	C128	C	0.028247	0.615262	0.377277
	C129	C	1.010404	0.615751	0.621590
	C130	C	0.028196	0.372919	0.620401
	C131	C	1.010817	0.370342	0.374411
	C132	C	0.899287	0.502954	0.117683
	C133	C	0.142697	0.484780	0.120655
	C134	C	0.138173	0.503099	0.879186
	C135	C	0.893926	0.485307	0.874659
	C136	C	0.142332	0.871986	0.509275
	C137	C	0.141570	0.115731	0.491059
	C138	C	0.898356	0.116304	0.508952
	C139	C	0.898160	0.872896	0.492019
	C140	C	0.527323	0.116399	0.880573
	C141	C	0.510314	0.119919	0.125826
	C142	C	0.528057	0.874711	0.123295
	C143	C	0.510746	0.872492	0.877983
	C144	C	0.403693	0.878598	0.673994
	C145	C	0.640391	0.110349	0.680028
	C146	C	0.636867	0.879718	0.325932
	C147	C	0.399013	0.111895	0.326068
	C148	C	0.691475	0.374797	0.883724
	C149	C	0.698527	0.616358	0.114488
	C150	C	0.340678	0.614315	0.884366
	C151	C	0.343831	0.376899	0.115389
	C152	C	0.904876	0.670365	0.378094
	C153	C	0.134063	0.670223	0.621413
	C154	C	0.904130	0.319316	0.613065
	C155	C	0.134756	0.316973	0.380616
	C156	C	0.903777	0.375744	0.671350
	C157	C	0.133419	0.613647	0.679935
	C158	C	0.905002	0.612502	0.320183
	C159	C	0.134716	0.374055	0.322841
	C160	C	0.399048	0.670908	0.884335
	C161	C	0.638996	0.670897	0.115981
	C162	C	0.634476	0.317280	0.884709
	C163	C	0.403241	0.322520	0.116891
	C164	C	0.694446	0.879444	0.382338
	C165	C	0.698947	0.109752	0.624083
	C166	C	0.344835	0.879217	0.619101
	C167	C	0.341012	0.110730	0.381968
	C168	C	0.903745	0.377322	0.169343
	C169	C	0.140219	0.609231	0.177406
	C170	C	0.132754	0.377257	0.825368
	C171	C	0.897715	0.610132	0.821077
	C172	C	0.196283	0.873053	0.385123
	C173	C	0.197349	0.115026	0.615668
	C174	C	0.840065	0.113255	0.385762
	C175	C	0.844885	0.874615	0.615909
	C176	C	0.403345	0.170087	0.882446
	C177	C	0.634059	0.173860	0.123749
	C178	C	0.404529	0.819806	0.118359
	C179	C	0.634213	0.818118	0.883856
	C180	C	0.404155	0.878100	0.175376
	C181	C	0.633715	0.116657	0.182311
	C182	C	0.404218	0.114149	0.822978
	C183	C	0.634420	0.875493	0.825945
	C184	C	0.900092	0.167433	0.383515
	C185	C	0.139483	0.171747	0.615224
	C186	C	0.137825	0.816614	0.384508
	C187	C	0.903226	0.818025	0.615847
	C188	C	0.193680	0.378889	0.879047
	C189	C	0.196992	0.609572	0.120216
	C190	C	0.844356	0.378408	0.114124
	C191	C	0.839727	0.610001	0.877243
	C192	C	0.420417	0.091179	0.600005
	C193	C	0.621219	0.898627	0.601556
	C194	C	0.618028	0.090849	0.406032
	C195	C	0.419199	0.899510	0.400048
	C196	C	0.621472	0.397447	0.095760
	C197	C	0.617571	0.594445	0.904127
	C198	C	0.419741	0.595175	0.095592
	C199	C	0.417391	0.394716	0.904149
	C200	C	0.114283	0.593002	0.400726
	C201	C	0.924803	0.593491	0.597388
	C202	C	0.114497	0.394469	0.601406
	C203	C	0.924261	0.391567	0.393960
	C204	C	0.920875	0.590157	0.096483
	C205	C	0.120847	0.397808	0.097711
	C206	C	0.116858	0.590325	0.901867
	C207	C	0.915207	0.397948	0.895987
	C208	C	0.121470	0.895171	0.595900
	C209	C	0.119421	0.092697	0.403879
	C210	C	0.922040	0.095390	0.596119
	C211	C	0.918352	0.895119	0.405200
	C212	C	0.613566	0.094632	0.903876
	C213	C	0.424029	0.098320	0.102635
	C214	C	0.614071	0.896390	0.102906
	C215	C	0.424527	0.894911	0.898301
	Zn216	Zn	0.519745	-0.004981	0.750113
	Zn217	Zn	0.518674	-0.003959	0.252943
	Zn218	Zn	0.768845	0.495174	-0.001964
	Zn219	Zn	0.268851	0.494323	-0.000921
	Zn220	Zn	0.019867	0.744230	0.499767
	Zn221	Zn	0.020207	0.243965	0.498337
	Zn222	Zn	0.017299	0.493949	0.749823
	Zn223	Zn	0.020349	0.493239	0.247094
	Zn224	Zn	0.519137	0.745155	0.001177
	Zn225	Zn	0.518272	0.246577	0.001575
	Zn226	Zn	0.769838	-0.005050	0.501872
	Zn227	Zn	0.269971	-0.005645	0.500830
	N228	N	0.436911	0.957149	0.675569
	N229	N	0.606208	0.032155	0.680173
	N230	N	0.603493	0.958170	0.325634
	N231	N	0.433269	0.033819	0.324283
	N232	N	0.695151	0.409699	0.961808
	N233	N	0.699831	0.583507	0.035639
	N234	N	0.339427	0.581335	0.962683
	N235	N	0.339984	0.408152	0.036394
	N236	N	0.982451	0.672203	0.412727
	N237	N	0.056743	0.671583	0.585755
	N238	N	0.982280	0.317454	0.582002
	N239	N	0.056769	0.314337	0.411740
	N240	N	0.981825	0.408299	0.676249
	N241	N	0.055624	0.580415	0.680110
	N242	N	0.982746	0.578801	0.319606
	N243	N	0.056498	0.406419	0.318638
	N244	N	0.433499	0.672650	0.962644
	N245	N	0.603519	0.671448	0.038174
	N246	N	0.603696	0.316753	0.963530
	N247	N	0.435855	0.320608	0.038658
	N248	N	0.696418	0.957880	0.416864
	N249	N	0.700824	0.031174	0.590382
	N250	N	0.341910	0.958112	0.587009
	N251	N	0.339353	0.031808	0.414138
	N252	N	0.937081	0.455830	0.171944
	N253	N	0.107030	0.530669	0.177902
	N254	N	0.098754	0.455648	0.825274
	N255	N	0.930680	0.531442	0.819467
	N256	N	0.199183	0.906957	0.463576
	N257	N	0.198834	0.080708	0.537285
	N258	N	0.838944	0.082169	0.464948
	N259	N	0.841693	0.908178	0.537717
	N260	N	0.480873	0.171614	0.917733
	N261	N	0.556292	0.176129	0.089327
	N262	N	0.482512	0.817527	0.086736
	N263	N	0.556197	0.816237	0.915378
	N264	N	0.481842	0.911646	0.178578
	N265	N	0.555799	0.083812	0.183562
	N266	N	0.482409	0.081494	0.821654
	N267	N	0.556605	0.908491	0.822262
	N268	N	0.935916	0.169187	0.461284
	N269	N	0.105611	0.172121	0.536718
	N270	N	0.105216	0.815711	0.462614
	N271	N	0.935663	0.816993	0.537681
	N272	N	0.197037	0.457873	0.911796
	N273	N	0.198590	0.531265	0.085584
	N274	N	0.841291	0.457678	0.082883
	N275	N	0.837164	0.531335	0.909764
	O276	O	-0.413072	0.436295	-0.577811
	H277	H	-0.407416	0.432188	-0.576922
	H278	H	-0.405304	0.440256	-0.575242
	O279	O	-0.012756	1.065183	1.041211
	H280	H	-0.004114	1.073761	1.052895
	H281	H	-0.016555	1.065296	1.034895
	O282	O	0.540816	0.515455	0.509263
	H283	H	0.545592	0.522460	0.507924
	H284	H	0.550223	0.512995	0.506505
	O285	O	0.521330	-0.429438	1.454408
	H286	H	0.515355	-0.430382	1.448958
	H287	H	0.517383	-0.423045	1.451476
	O288	O	1.040012	-0.021401	0.056422
	H289	H	1.046915	-0.011465	0.040744
	H290	H	1.024731	-0.027710	0.059989
	O291	O	0.559771	0.529089	0.479579
	H292	H	0.568652	0.528046	0.486080
	H293	H	0.568955	0.535467	0.488139
	O294	O	0.946825	0.011232	0.982222
	H295	H	0.955328	0.024547	0.978881
	H296	H	0.940003	0.008305	0.985227
	O297	O	0.029146	-0.031095	0.008890
	H298	H	0.029096	-0.040446	0.014487
	H299	H	0.030876	-0.036557	0.023491
	O300	O	0.557620	0.508448	0.490985
	H301	H	0.553384	0.507056	0.481308
	H302	H	0.552972	0.512682	0.483489
	O303	O	0.452920	0.472078	0.425060
	H304	H	0.455398	0.467153	0.420747
	H305	H	0.449610	0.467482	0.418357
	O306	O	1.026377	0.005524	0.059849
	H307	H	1.016348	-0.000059	0.050190
	H308	H	1.028703	0.002347	0.064905
	O309	O	-0.029918	-0.086911	0.992257
	H310	H	-0.022350	-0.082688	0.988264
	H311	H	-0.031380	-0.085895	0.984639
	O312	O	0.996169	0.978154	0.956757
	H313	H	1.003671	0.966639	0.952952
	H314	H	0.995917	0.974265	0.957755
	O315	O	0.540352	0.574263	0.526457
	H316	H	0.543473	0.572045	0.534861
	H317	H	0.538013	0.568520	0.530008
	O318	O	-0.058110	1.023887	-0.120305
	H319	H	-0.045905	1.029268	-0.120077
	H320	H	-0.065388	1.037109	-0.137978
	O321	O	0.030229	1.041463	1.005160
	H322	H	0.023471	1.044242	1.005997
	H323	H	0.027322	1.039133	1.010158
	O324	O	0.599707	0.471654	0.542686
	H325	H	0.598195	0.490328	0.535856
	H326	H	0.597651	0.472131	0.551332
	O327	O	-0.069497	1.010977	0.026448
	H328	H	-0.063971	1.019436	0.015250
	H329	H	-0.083241	1.020005	0.027932
	O330	O	0.512459	0.429487	0.492806
	H331	H	0.508367	0.426609	0.495853
	H332	H	0.526664	0.428908	0.491216
	O333	O	0.422480	0.581857	0.440835
	H334	H	0.419566	0.580327	0.441624
	H335	H	0.424800	0.571523	0.436637
	O336	O	0.497292	0.588006	0.484094
	H337	H	0.498918	0.579342	0.470378
	H338	H	0.493895	0.602232	0.481638
	O339	O	0.980777	0.962122	-0.042387
	H340	H	0.987613	0.962041	-0.037880
	H341	H	0.986574	0.954134	-0.043739
	O342	O	0.591917	0.551889	0.563432
	H343	H	0.590526	0.552203	0.569595
	H344	H	0.597797	0.549813	0.566472
	O345	O	0.559077	0.514710	0.541916
	H346	H	0.546857	0.521662	0.545221
	H347	H	0.556706	0.527163	0.547529
	O348	O	0.038219	0.054455	0.104177
	H349	H	0.036453	0.050000	0.106038
	H350	H	0.044110	0.054680	0.109799
	O351	O	0.027311	0.929166	0.999522
	H352	H	0.024494	0.921966	0.999669
	H353	H	0.024270	0.937015	0.998448
	O354	O	0.461092	0.469373	0.462118
	H355	H	0.473887	0.459258	0.461525
	H356	H	0.460777	0.478213	0.467389
	O357	O	0.082254	0.965934	1.040566
	H358	H	0.086733	0.955089	1.042067
	H359	H	0.078309	0.969603	1.056193
