data_Molecule from HDF5

_cell_length_a		16.304870
_cell_length_b		16.233307
_cell_length_c		16.237652
_cell_angle_alpha	90.083428
_cell_angle_beta	89.994469
_cell_angle_gamma	90.005420
_symmetry_space_group_name_H-M	'P 1'
_symmetry_Int_Tables_number		1

loop_
	_symmetry_equiv_pos_as_xyz
	x,y,z

loop_
	_atom_site_label
	_atom_site_type_symbol
	_atom_site_fract_x
	_atom_site_fract_y
	_atom_site_fract_z
	H0	H	0.402943	0.835683	0.712610
	H1	H	0.597823	0.163843	0.715094
	H2	H	0.597564	0.835417	0.286072
	H3	H	0.403668	0.164927	0.287421
	H4	H	0.713854	0.401206	0.836186
	H5	H	0.714289	0.598528	0.164248
	H6	H	0.285988	0.597778	0.836001
	H7	H	0.287010	0.402663	0.164417
	H8	H	0.835220	0.712386	0.403460
	H9	H	0.162892	0.714764	0.597356
	H10	H	0.837200	0.285822	0.598584
	H11	H	0.163677	0.285689	0.401816
	H12	H	0.836656	0.402143	0.714188
	H13	H	0.163308	0.598043	0.713313
	H14	H	0.836146	0.597413	0.285740
	H15	H	0.164387	0.403089	0.286833
	H16	H	0.402753	0.712277	0.835740
	H17	H	0.597285	0.712602	0.164731
	H18	H	0.597494	0.285664	0.835735
	H19	H	0.403386	0.287951	0.164933
	H20	H	0.714786	0.836314	0.400337
	H21	H	0.713826	0.164027	0.598899
	H22	H	0.285080	0.837058	0.598437
	H23	H	0.286770	0.164547	0.401313
	H24	H	0.902719	0.335447	0.212555
	H25	H	0.096594	0.664884	0.213143
	H26	H	0.098005	0.335927	0.785697
	H27	H	0.903344	0.664890	0.787776
	H28	H	0.213923	0.902815	0.335579
	H29	H	0.214984	0.100159	0.663938
	H30	H	0.785718	0.098356	0.335328
	H31	H	0.786554	0.903073	0.663778
	H32	H	0.335692	0.213240	0.902702
	H33	H	0.663926	0.213139	0.098468
	H34	H	0.335573	0.785748	0.097764
	H35	H	0.663281	0.784515	0.902393
	H36	H	0.335770	0.902339	0.214202
	H37	H	0.663150	0.096977	0.214076
	H38	H	0.336306	0.096348	0.787440
	H39	H	0.663586	0.900546	0.785829
	H40	H	0.902457	0.214074	0.335573
	H41	H	0.096459	0.212878	0.664723
	H42	H	0.096662	0.787245	0.335482
	H43	H	0.901801	0.787610	0.664271
	H44	H	0.213195	0.335443	0.902644
	H45	H	0.214662	0.663761	0.099229
	H46	H	0.784852	0.336407	0.099007
	H47	H	0.785456	0.663584	0.901293
	H48	H	0.408743	0.118936	0.601241
	H49	H	0.578706	0.888106	0.589712
	H50	H	0.598421	0.113302	0.424621
	H51	H	0.410044	0.884799	0.409547
	H52	H	0.591579	0.411033	0.115572
	H53	H	0.592692	0.610213	0.877979
	H54	H	0.405599	0.590280	0.117065
	H55	H	0.406954	0.401317	0.881553
	H56	H	0.118080	0.597785	0.405309
	H57	H	0.881790	0.599521	0.591369
	H58	H	0.115467	0.409260	0.589293
	H59	H	0.884957	0.409035	0.408714
	H60	H	0.117617	0.408873	0.598171
	H61	H	0.884299	0.589426	0.592073
	H62	H	0.115257	0.593927	0.410864
	H63	H	0.883079	0.408329	0.403089
	H64	H	0.408711	0.593180	0.116474
	H65	H	0.609123	0.582766	0.880646
	H66	H	0.590606	0.401939	0.117909
	H67	H	0.402277	0.407260	0.881985
	H68	H	0.606761	0.124217	0.394684
	H69	H	0.604325	0.883431	0.580400
	H70	H	0.412699	0.114655	0.589530
	H71	H	0.401295	0.881869	0.408949
	H72	H	0.908118	0.617111	0.094331
	H73	H	0.102472	0.380862	0.091066
	H74	H	0.103018	0.622840	0.897283
	H75	H	0.908189	0.381774	0.901461
	H76	H	0.091990	0.900295	0.619026
	H77	H	0.097356	0.095757	0.380926
	H78	H	0.901646	0.097197	0.619467
	H79	H	0.904255	0.909648	0.382820
	H80	H	0.616873	0.091452	0.904604
	H81	H	0.385540	0.095706	0.081280
	H82	H	0.616155	0.907781	0.095189
	H83	H	0.384428	0.907568	0.910074
	H84	H	0.617593	0.903674	0.094119
	H85	H	0.384154	0.083074	0.100418
	H86	H	0.617734	0.096309	0.905661
	H87	H	0.382757	0.907966	0.902863
	H88	H	0.904470	0.087795	0.615258
	H89	H	0.093896	0.088058	0.383748
	H90	H	0.100950	0.910280	0.617731
	H91	H	0.909633	0.906143	0.383146
	H92	H	0.082034	0.614680	0.902851
	H93	H	0.090933	0.381079	0.100751
	H94	H	0.906500	0.617099	0.090782
	H95	H	0.910997	0.385579	0.909832
	H96	H	0.399904	0.119398	0.590594
	H97	H	0.598505	0.877220	0.607184
	H98	H	0.576327	0.114073	0.401257
	H99	H	0.406903	0.881479	0.401472
	H100	H	0.599013	0.406035	0.118857
	H101	H	0.578769	0.583946	0.890088
	H102	H	0.405250	0.594477	0.118480
	H103	H	0.408942	0.408104	0.884376
	H104	H	0.115648	0.590756	0.403818
	H105	H	0.880380	0.594758	0.600793
	H106	H	0.118834	0.401194	0.593028
	H107	H	0.882716	0.403548	0.407009
	H108	H	0.903626	0.618145	0.094026
	H109	H	0.088885	0.386558	0.086719
	H110	H	0.098201	0.615234	0.918931
	H111	H	0.901347	0.381773	0.908683
	H112	H	0.088330	0.911945	0.614659
	H113	H	0.088774	0.095173	0.383455
	H114	H	0.911899	0.095680	0.616055
	H115	H	0.904008	0.903642	0.380702
	H116	H	0.615574	0.093317	0.909721
	H117	H	0.378021	0.104575	0.101015
	H118	H	0.614808	0.906385	0.091387
	H119	H	0.382311	0.901824	0.906026
	C120	C	0.378767	0.009195	0.621706
	C121	C	0.621176	0.991227	0.621267
	C122	C	0.621478	0.008335	0.378328
	C123	C	0.378586	0.991622	0.378390
	C124	C	0.621800	0.377905	0.008491
	C125	C	0.621392	0.620809	0.991611
	C126	C	0.378582	0.620694	0.008723
	C127	C	0.378511	0.378060	0.991501
	C128	C	0.008139	0.622189	0.378130
	C129	C	0.990700	0.622530	0.622183
	C130	C	0.009076	0.378557	0.621606
	C131	C	0.991914	0.378702	0.378197
	C132	C	0.878274	0.508749	0.121258
	C133	C	0.121874	0.491422	0.121367
	C134	C	0.122058	0.508687	0.878539
	C135	C	0.878673	0.491715	0.878340
	C136	C	0.121455	0.879216	0.508282
	C137	C	0.121521	0.121719	0.491562
	C138	C	0.878162	0.121663	0.508038
	C139	C	0.878428	0.879118	0.491179
	C140	C	0.508316	0.121221	0.878812
	C141	C	0.491483	0.121588	0.121822
	C142	C	0.507886	0.877710	0.122008
	C143	C	0.491218	0.877435	0.878270
	C144	C	0.381976	0.884933	0.675344
	C145	C	0.618552	0.114964	0.677022
	C146	C	0.618434	0.884761	0.323401
	C147	C	0.382464	0.115769	0.324427
	C148	C	0.676180	0.380738	0.885080
	C149	C	0.676405	0.618708	0.115289
	C150	C	0.323819	0.618032	0.884902
	C151	C	0.324342	0.381735	0.115415
	C152	C	0.884539	0.675674	0.381823
	C153	C	0.114128	0.676835	0.618328
	C154	C	0.885690	0.324178	0.618765
	C155	C	0.115065	0.323627	0.381229
	C156	C	0.885423	0.381809	0.676277
	C157	C	0.114431	0.618836	0.675810
	C158	C	0.885058	0.618626	0.323400
	C159	C	0.115210	0.381722	0.323895
	C160	C	0.381743	0.674897	0.884799
	C161	C	0.618692	0.675716	0.115366
	C162	C	0.618198	0.323561	0.884659
	C163	C	0.382427	0.324896	0.115777
	C164	C	0.676451	0.885013	0.380435
	C165	C	0.675977	0.115204	0.619214
	C166	C	0.323512	0.885537	0.618584
	C167	C	0.324701	0.115686	0.381123
	C168	C	0.881730	0.384675	0.175421
	C169	C	0.118216	0.615431	0.175865
	C170	C	0.118733	0.384805	0.823544
	C171	C	0.882050	0.615293	0.824347
	C172	C	0.175945	0.882140	0.384631
	C173	C	0.176736	0.119884	0.615139
	C174	C	0.823769	0.118707	0.384508
	C175	C	0.823878	0.882298	0.614796
	C176	C	0.384725	0.175342	0.882199
	C177	C	0.614962	0.175345	0.118792
	C178	C	0.384751	0.823167	0.118728
	C179	C	0.614526	0.822487	0.881453
	C180	C	0.384555	0.881095	0.176399
	C181	C	0.614445	0.118309	0.176682
	C182	C	0.385062	0.117361	0.824778
	C183	C	0.614669	0.879969	0.823502
	C184	C	0.881590	0.176220	0.384372
	C185	C	0.118450	0.176336	0.615527
	C186	C	0.117641	0.824775	0.384393
	C187	C	0.881569	0.825482	0.615086
	C188	C	0.175837	0.384565	0.881556
	C189	C	0.176396	0.615155	0.118966
	C190	C	0.823697	0.385096	0.118646
	C191	C	0.823414	0.614809	0.880776
	C192	C	0.400576	0.095436	0.600071
	C193	C	0.599993	0.905091	0.598956
	C194	C	0.599979	0.095062	0.400322
	C195	C	0.399748	0.904894	0.400193
	C196	C	0.600149	0.399734	0.095090
	C197	C	0.600036	0.598677	0.905240
	C198	C	0.400297	0.599205	0.094913
	C199	C	0.399767	0.399099	0.904877
	C200	C	0.094296	0.600602	0.400038
	C201	C	0.904392	0.600926	0.600995
	C202	C	0.095116	0.399947	0.599751
	C203	C	0.905841	0.400466	0.399863
	C204	C	0.899784	0.595254	0.099548
	C205	C	0.100464	0.405070	0.099387
	C206	C	0.100595	0.595323	0.899989
	C207	C	0.900444	0.405182	0.900158
	C208	C	0.100051	0.901098	0.594749
	C209	C	0.099855	0.099522	0.405200
	C210	C	0.899730	0.100031	0.594582
	C211	C	0.899692	0.900216	0.404535
	C212	C	0.594550	0.100032	0.900357
	C213	C	0.404785	0.100584	0.100545
	C214	C	0.594021	0.899617	0.100083
	C215	C	0.405229	0.899269	0.899879
	Zn216	Zn	0.500314	-0.000537	0.749733
	Zn217	Zn	0.499458	0.000065	0.250406
	Zn218	Zn	0.749995	0.499986	0.000128
	Zn219	Zn	0.250386	0.499475	-0.000122
	Zn220	Zn	-0.000586	0.750870	0.500249
	Zn221	Zn	0.000336	0.250140	0.500264
	Zn222	Zn	-0.000003	0.499804	0.750013
	Zn223	Zn	0.000025	0.499973	0.249073
	Zn224	Zn	0.500026	0.748793	0.000292
	Zn225	Zn	0.499794	0.249853	0.000360
	Zn226	Zn	0.749749	0.000180	0.499949
	Zn227	Zn	0.250731	0.001109	0.499629
	N228	N	0.415423	0.962623	0.677345
	N229	N	0.585086	0.037176	0.678302
	N230	N	0.585018	0.962619	0.322039
	N231	N	0.415239	0.037660	0.322734
	N232	N	0.678378	0.413858	0.962938
	N233	N	0.678036	0.585125	0.037363
	N234	N	0.321802	0.585034	0.962987
	N235	N	0.321785	0.413976	0.037198
	N236	N	0.962040	0.678023	0.415079
	N237	N	0.036200	0.679215	0.585868
	N238	N	0.963340	0.322077	0.585526
	N239	N	0.037292	0.321592	0.414234
	N240	N	0.962983	0.415008	0.677914
	N241	N	0.036830	0.585606	0.678106
	N242	N	0.962959	0.586042	0.321044
	N243	N	0.037757	0.415241	0.322029
	N244	N	0.414978	0.676705	0.962609
	N245	N	0.585308	0.677171	0.037671
	N246	N	0.585044	0.321803	0.962537
	N247	N	0.415419	0.322642	0.037842
	N248	N	0.678490	0.962878	0.413704
	N249	N	0.677872	0.037501	0.585366
	N250	N	0.321482	0.963626	0.585861
	N251	N	0.322383	0.037696	0.414108
	N252	N	0.914895	0.462511	0.177168
	N253	N	0.084804	0.537670	0.177213
	N254	N	0.086062	0.462917	0.821506
	N255	N	0.915723	0.537669	0.823040
	N256	N	0.178357	0.915367	0.462528
	N257	N	0.178845	0.086675	0.537121
	N258	N	0.821356	0.085797	0.462464
	N259	N	0.821900	0.915122	0.536644
	N260	N	0.462426	0.177861	0.915071
	N261	N	0.537392	0.177548	0.085471
	N262	N	0.462609	0.820883	0.085590
	N263	N	0.537103	0.820897	0.914850
	N264	N	0.462095	0.914161	0.178416
	N265	N	0.536557	0.085548	0.178576
	N266	N	0.462782	0.084512	0.822561
	N267	N	0.537078	0.913445	0.821409
	N268	N	0.914774	0.178092	0.462243
	N269	N	0.084892	0.177646	0.537763
	N270	N	0.084712	0.822739	0.462468
	N271	N	0.914477	0.823212	0.537314
	N272	N	0.177864	0.462469	0.915085
	N273	N	0.178853	0.537063	0.085902
	N274	N	0.821526	0.463169	0.085572
	N275	N	0.821294	0.536817	0.913803
