data_Molecule from HDF5

_cell_length_a		16.162380
_cell_length_b		16.150565
_cell_length_c		16.379166
_cell_angle_alpha	91.420063
_cell_angle_beta	88.986975
_cell_angle_gamma	89.147692
_symmetry_space_group_name_H-M	'P 1'
_symmetry_Int_Tables_number		1

loop_
	_symmetry_equiv_pos_as_xyz
	x,y,z

loop_
	_atom_site_label
	_atom_site_type_symbol
	_atom_site_fract_x
	_atom_site_fract_y
	_atom_site_fract_z
	H0	H	0.383382	0.832152	0.707125
	H1	H	0.584012	0.157946	0.713207
	H2	H	0.596690	0.835001	0.266756
	H3	H	0.385372	0.160614	0.284035
	H4	H	0.709775	0.386263	0.831176
	H5	H	0.695134	0.596722	0.156714
	H6	H	0.270598	0.592380	0.829951
	H7	H	0.269995	0.400775	0.154775
	H8	H	0.821490	0.711978	0.403093
	H9	H	0.150955	0.712129	0.593549
	H10	H	0.818972	0.293156	0.590660
	H11	H	0.149672	0.278264	0.391274
	H12	H	0.823287	0.400842	0.712137
	H13	H	0.150122	0.599543	0.710714
	H14	H	0.821867	0.600392	0.282540
	H15	H	0.148465	0.387082	0.271151
	H16	H	0.387849	0.707487	0.827892
	H17	H	0.585699	0.719679	0.151342
	H18	H	0.591420	0.273720	0.829194
	H19	H	0.389240	0.288260	0.155945
	H20	H	0.706345	0.833700	0.386043
	H21	H	0.690028	0.163111	0.591460
	H22	H	0.271956	0.831382	0.589060
	H23	H	0.271568	0.160784	0.400496
	H24	H	0.886103	0.330930	0.207836
	H25	H	0.085058	0.657388	0.214763
	H26	H	0.095416	0.333969	0.767765
	H27	H	0.883576	0.659973	0.785671
	H28	H	0.207457	0.889249	0.331499
	H29	H	0.196587	0.099628	0.656606
	H30	H	0.772580	0.096325	0.330266
	H31	H	0.765791	0.905118	0.655068
	H32	H	0.323047	0.209609	0.899150
	H33	H	0.653029	0.207344	0.086684
	H34	H	0.321917	0.785779	0.090150
	H35	H	0.649679	0.771431	0.881219
	H36	H	0.324502	0.896783	0.211251
	H37	H	0.650350	0.098205	0.207110
	H38	H	0.323215	0.098597	0.781620
	H39	H	0.648299	0.885008	0.764705
	H40	H	0.888246	0.210015	0.330911
	H41	H	0.075855	0.213608	0.657329
	H42	H	0.094336	0.770835	0.333313
	H43	H	0.884402	0.788797	0.657929
	H44	H	0.203117	0.329559	0.889321
	H45	H	0.195807	0.661002	0.094044
	H46	H	0.774190	0.328780	0.089536
	H47	H	0.767893	0.657729	0.899291
	H48	H	0.388738	0.113207	0.585898
	H49	H	0.577238	0.878011	0.580541
	H50	H	0.582595	0.116104	0.402025
	H51	H	0.393846	0.877836	0.400094
	H52	H	0.571731	0.402162	0.107429
	H53	H	0.581550	0.587248	0.874755
	H54	H	0.398067	0.603976	0.109292
	H55	H	0.403819	0.394969	0.876352
	H56	H	0.100448	0.581178	0.408887
	H57	H	0.869770	0.594318	0.591244
	H58	H	0.104385	0.407507	0.584725
	H59	H	0.867409	0.408772	0.396862
	H60	H	0.105625	0.401037	0.582615
	H61	H	0.869435	0.591172	0.594078
	H62	H	0.101522	0.574910	0.398209
	H63	H	0.866003	0.400397	0.399292
	H64	H	0.378485	0.589148	0.109957
	H65	H	0.587746	0.574675	0.876392
	H66	H	0.583267	0.395359	0.110810
	H67	H	0.390966	0.395563	0.872400
	H68	H	0.577788	0.116643	0.394225
	H69	H	0.575838	0.880135	0.574272
	H70	H	0.389621	0.114850	0.595446
	H71	H	0.400454	0.876583	0.390839
	H72	H	0.889666	0.610749	0.088376
	H73	H	0.076747	0.377982	0.083594
	H74	H	0.075046	0.611326	0.907103
	H75	H	0.903440	0.375934	0.890093
	H76	H	0.072594	0.906036	0.607656
	H77	H	0.085453	0.086584	0.376296
	H78	H	0.891431	0.103694	0.610376
	H79	H	0.904108	0.904994	0.380929
	H80	H	0.606850	0.087229	0.895320
	H81	H	0.364914	0.095640	0.101717
	H82	H	0.602343	0.910255	0.080015
	H83	H	0.374430	0.911371	0.903150
	H84	H	0.604527	0.902364	0.077931
	H85	H	0.369267	0.100525	0.082158
	H86	H	0.602081	0.081186	0.904333
	H87	H	0.366650	0.904322	0.889997
	H88	H	0.878137	0.098445	0.612872
	H89	H	0.078939	0.079542	0.379278
	H90	H	0.082012	0.901602	0.611794
	H91	H	0.898435	0.895258	0.378078
	H92	H	0.081661	0.613407	0.904390
	H93	H	0.079941	0.378490	0.078707
	H94	H	0.888724	0.613178	0.092214
	H95	H	0.907183	0.381802	0.904588
	H96	H	0.396282	0.111160	0.588484
	H97	H	0.582111	0.878591	0.576664
	H98	H	0.572291	0.113240	0.401834
	H99	H	0.404112	0.881376	0.400233
	H100	H	0.584697	0.407932	0.108300
	H101	H	0.573889	0.576955	0.880242
	H102	H	0.400522	0.581096	0.100852
	H103	H	0.395913	0.406893	0.877433
	H104	H	0.104609	0.587366	0.398918
	H105	H	0.867121	0.595757	0.595065
	H106	H	0.102360	0.405081	0.578111
	H107	H	0.869007	0.406401	0.404796
	H108	H	0.893889	0.611421	0.091101
	H109	H	0.082985	0.375960	0.083382
	H110	H	0.075337	0.613974	0.899245
	H111	H	0.893889	0.376096	0.901370
	H112	H	0.080561	0.912901	0.608911
	H113	H	0.075936	0.088582	0.377515
	H114	H	0.887883	0.088887	0.606773
	H115	H	0.893130	0.906586	0.377077
	H116	H	0.604192	0.074922	0.894544
	H117	H	0.372802	0.080041	0.087376
	H118	H	0.600854	0.907822	0.072602
	H119	H	0.368855	0.896578	0.903578
	C120	C	0.363064	0.004632	0.615981
	C121	C	0.605215	0.987473	0.610236
	C122	C	0.610182	0.006613	0.367307
	C123	C	0.367736	0.987304	0.372034
	C124	C	0.611123	0.369745	0.001246
	C125	C	0.608386	0.614200	0.983843
	C126	C	0.363869	0.618371	-0.000228
	C127	C	0.366542	0.373860	0.983573
	C128	C	-0.005929	0.614386	0.375024
	C129	C	0.977635	0.621127	0.619540
	C130	C	-0.005074	0.378030	0.612614
	C131	C	0.976092	0.372534	0.369445
	C132	C	0.863519	0.502954	0.116696
	C133	C	0.107150	0.485991	0.113630
	C134	C	0.109431	0.504320	0.870592
	C135	C	0.868000	0.486243	0.873374
	C136	C	0.110194	0.873317	0.502289
	C137	C	0.106264	0.117097	0.485443
	C138	C	0.860345	0.122654	0.502168
	C139	C	0.866198	0.877025	0.485773
	C140	C	0.495727	0.112936	0.872318
	C141	C	0.478061	0.119759	0.116235
	C142	C	0.494996	0.877448	0.109131
	C143	C	0.477703	0.870946	0.865933
	C144	C	0.364290	0.880989	0.669277
	C145	C	0.602736	0.110119	0.671689
	C146	C	0.613750	0.884038	0.306720
	C147	C	0.366461	0.111553	0.320804
	C148	C	0.669874	0.368434	0.879237
	C149	C	0.659785	0.616245	0.106830
	C150	C	0.308363	0.613967	0.878011
	C151	C	0.309094	0.379716	0.106161
	C152	C	0.870441	0.673115	0.380984
	C153	C	0.101546	0.675000	0.614937
	C154	C	0.869383	0.327697	0.611238
	C155	C	0.099968	0.315328	0.370455
	C156	C	0.871710	0.381328	0.671685
	C157	C	0.101095	0.618946	0.673287
	C158	C	0.870805	0.617584	0.320938
	C159	C	0.099336	0.369823	0.310877
	C160	C	0.366914	0.671077	0.877032
	C161	C	0.605446	0.677695	0.104189
	C162	C	0.610966	0.312110	0.878342
	C163	C	0.368522	0.323623	0.106813
	C164	C	0.668258	0.883039	0.366440
	C165	C	0.655486	0.112760	0.610914
	C166	C	0.308887	0.880624	0.610490
	C167	C	0.309760	0.111503	0.378554
	C168	C	0.866143	0.379425	0.170196
	C169	C	0.104825	0.609124	0.173979
	C170	C	0.112656	0.382032	0.809006
	C171	C	0.865590	0.610280	0.822006
	C172	C	0.168543	0.870633	0.380298
	C173	C	0.159273	0.118463	0.608014
	C174	C	0.808826	0.117330	0.379223
	C175	C	0.806243	0.883303	0.607210
	C176	C	0.372187	0.171223	0.877526
	C177	C	0.603052	0.171701	0.109379
	C178	C	0.371320	0.822979	0.109800
	C179	C	0.600490	0.810876	0.863146
	C180	C	0.372860	0.878173	0.170398
	C181	C	0.601711	0.117357	0.169188
	C182	C	0.372218	0.115570	0.819180
	C183	C	0.599834	0.867157	0.804975
	C184	C	0.866500	0.173993	0.379551
	C185	C	0.099574	0.175597	0.608232
	C186	C	0.112413	0.811416	0.381322
	C187	C	0.865299	0.825464	0.608694
	C188	C	0.166754	0.380136	0.869105
	C189	C	0.159930	0.610726	0.113972
	C190	C	0.810615	0.378403	0.111423
	C191	C	0.807948	0.609244	0.878742
	C192	C	0.385012	0.090710	0.596048
	C193	C	0.584581	0.901051	0.584479
	C194	C	0.584894	0.092949	0.391984
	C195	C	0.392318	0.901104	0.391389
	C196	C	0.586961	0.394505	0.086704
	C197	C	0.587228	0.587523	0.899145
	C198	C	0.385980	0.597744	0.084548
	C199	C	0.390001	0.393353	0.897777
	C200	C	0.079855	0.588671	0.395801
	C201	C	0.891292	0.599993	0.599384
	C202	C	0.081625	0.398528	0.588729
	C203	C	0.889824	0.397879	0.393428
	C204	C	0.884742	0.589199	0.096704
	C205	C	0.085962	0.399884	0.089139
	C206	C	0.084535	0.590596	0.896174
	C207	C	0.893828	0.400135	0.892910
	C208	C	0.085555	0.899408	0.587432
	C209	C	0.086063	0.092201	0.399980
	C210	C	0.879916	0.102880	0.587797
	C211	C	0.891176	0.896624	0.400840
	C212	C	0.582149	0.088144	0.892170
	C213	C	0.391423	0.098336	0.096220
	C214	C	0.580478	0.900187	0.083978
	C215	C	0.392198	0.896698	0.891572
	Zn216	Zn	0.486221	-0.005646	0.740812
	Zn217	Zn	0.487253	-0.002617	0.241637
	Zn218	Zn	0.738344	0.492842	-0.005818
	Zn219	Zn	0.236119	0.495207	-0.007831
	Zn220	Zn	-0.012528	0.745648	0.495570
	Zn221	Zn	-0.015838	0.248458	0.493262
	Zn222	Zn	-0.012523	0.496740	0.744159
	Zn223	Zn	-0.014555	0.494614	0.243551
	Zn224	Zn	0.486509	0.745763	-0.010873
	Zn225	Zn	0.487787	0.243177	-0.008021
	Zn226	Zn	0.734048	-0.001102	0.491227
	Zn227	Zn	0.238121	-0.004236	0.492894
	N228	N	0.397279	0.958996	0.672935
	N229	N	0.572275	0.031138	0.671396
	N230	N	0.578226	0.962080	0.307351
	N231	N	0.401914	0.033528	0.316423
	N232	N	0.670117	0.403600	0.956702
	N233	N	0.661757	0.577452	0.030943
	N234	N	0.305945	0.582392	0.955251
	N235	N	0.307720	0.410217	0.028502
	N236	N	0.948162	0.671105	0.413925
	N237	N	0.023843	0.676711	0.582417
	N238	N	0.946935	0.325539	0.575140
	N239	N	0.022178	0.316719	0.406070
	N240	N	0.950675	0.412093	0.672700
	N241	N	0.022965	0.586155	0.676497
	N242	N	0.948566	0.581534	0.317258
	N243	N	0.021099	0.404634	0.310082
	N244	N	0.400617	0.673998	0.953606
	N245	N	0.574444	0.676719	0.026637
	N246	N	0.575179	0.312860	0.955289
	N247	N	0.403411	0.319676	0.029636
	N248	N	0.666163	0.960322	0.403583
	N249	N	0.657101	0.035418	0.573295
	N250	N	0.307952	0.958360	0.578207
	N251	N	0.310520	0.033179	0.409599
	N252	N	0.898153	0.457868	0.173984
	N253	N	0.072697	0.530737	0.173861
	N254	N	0.077876	0.460482	0.809630
	N255	N	0.902452	0.532874	0.818538
	N256	N	0.167510	0.907979	0.456757
	N257	N	0.163713	0.082914	0.530660
	N258	N	0.804616	0.086217	0.456630
	N259	N	0.806508	0.914504	0.529762
	N260	N	0.450017	0.169629	0.909917
	N261	N	0.525137	0.173219	0.077079
	N262	N	0.448102	0.822508	0.072291
	N263	N	0.523474	0.813132	0.900393
	N264	N	0.450874	0.911249	0.170169
	N265	N	0.523056	0.085896	0.173506
	N266	N	0.450062	0.079826	0.815897
	N267	N	0.522446	0.903867	0.806548
	N268	N	0.897607	0.177601	0.456924
	N269	N	0.067452	0.174977	0.530978
	N270	N	0.076541	0.813077	0.458322
	N271	N	0.902122	0.821656	0.532276
	N272	N	0.164727	0.457382	0.906744
	N273	N	0.161586	0.533263	0.077189
	N274	N	0.808633	0.456100	0.079156
	N275	N	0.809377	0.531126	0.910064
	O276	O	0.875943	-0.104719	1.055408
	H277	H	0.878340	-0.109566	1.051298
	H278	H	0.868665	-0.111876	1.049441
	O279	O	0.394368	0.641056	0.522652
	H280	H	0.391843	0.654252	0.531368
	H281	H	0.399405	0.637344	0.512564
	O282	O	0.380942	0.539586	0.511274
	H283	H	0.367871	0.551865	0.517572
	H284	H	0.382877	0.535714	0.515749
	O285	O	0.407481	0.472193	0.516153
	H286	H	0.417548	0.471014	0.511092
	H287	H	0.408256	0.466017	0.512414
	O288	O	0.527996	0.578816	0.444271
	H289	H	0.522606	0.574640	0.438710
	H290	H	0.536941	0.570651	0.430235
	O291	O	0.121896	0.104711	1.027416
	H292	H	0.119611	0.113060	1.029239
	H293	H	0.125735	0.106357	1.033212
	O294	O	0.573060	1.486423	0.541762
	H295	H	0.559641	1.493529	0.553860
	H296	H	0.581948	1.494111	0.545014
	O297	O	0.958384	1.079677	0.073862
	H298	H	0.963043	1.088099	0.080381
	H299	H	0.958377	1.072074	0.071212
	O300	O	0.623430	0.489356	0.306446
	H301	H	0.627453	0.465988	0.295277
	H302	H	0.620509	0.486395	0.300888
	O303	O	0.356660	0.539109	0.419037
	H304	H	0.359263	0.527781	0.425577
	H305	H	0.372094	0.537294	0.405961
	O306	O	1.057506	1.069484	1.089611
	H307	H	1.069250	1.079928	1.082357
	H308	H	1.059989	1.066026	1.089478
	O309	O	0.436258	0.560117	0.523115
	H310	H	0.451005	0.565183	0.514993
	H311	H	0.430396	0.569242	0.513828
	O312	O	1.017461	0.939565	0.933834
	H313	H	1.014089	0.926635	0.926730
	H314	H	1.017565	0.959355	0.927528
	O315	O	0.955268	1.075296	-0.013197
	H316	H	0.950960	1.076670	-0.014932
	H317	H	0.949039	1.083304	0.002453
	O318	O	0.575767	0.644991	0.478734
	H319	H	0.562563	0.658563	0.477549
	H320	H	0.574686	0.647818	0.468498
	O321	O	0.627049	0.446723	0.485201
	H322	H	0.637121	0.447812	0.489290
	H323	H	0.626023	0.452320	0.493536
	O324	O	0.047908	0.884340	0.872048
	H325	H	0.049928	0.884397	0.852034
	H326	H	0.069024	0.871020	0.866560
	O327	O	-0.134295	0.892371	1.105474
	H328	H	-0.132696	0.886253	1.093179
	H329	H	-0.141846	0.890338	1.101109
	O330	O	-0.068329	-0.066330	-0.127870
	H331	H	-0.072416	-0.049386	-0.132277
	H332	H	-0.068636	-0.073001	-0.141601
	O333	O	0.424236	0.415052	0.610228
	H334	H	0.401957	0.406209	0.607102
	H335	H	0.418051	0.433427	0.615785
	O336	O	-0.018039	-0.115863	0.076101
	H337	H	-0.018999	-0.119635	0.080562
	H338	H	0.003454	-0.115160	0.085251
	O339	O	-0.152214	-0.053508	0.112934
	H340	H	-0.168481	-0.070045	0.109483
	H341	H	-0.139565	-0.054207	0.108430
	O342	O	0.475479	0.552451	0.523188
	H343	H	0.474770	0.543797	0.515598
	H344	H	0.474875	0.562631	0.534151
	O345	O	0.051946	1.051746	1.032287
	H346	H	0.054139	1.039678	1.035630
	H347	H	0.050339	1.048321	1.028707
	O348	O	0.066205	-0.116445	1.011334
	H349	H	0.072845	-0.117770	1.001931
	H350	H	0.075825	-0.122224	1.011357
	O351	O	0.650574	0.414872	0.404812
	H352	H	0.660264	0.414381	0.415216
	H353	H	0.659283	0.405271	0.408582
	O354	O	0.578475	0.426440	0.437069
	H355	H	0.575353	0.427977	0.437940
	H356	H	0.580801	0.431151	0.430137
	O357	O	0.981424	1.042468	-0.134281
	H358	H	0.971240	1.039241	-0.143517
	H359	H	0.991848	1.052622	-0.151514
	O360	O	1.065753	0.026129	0.868316
	H361	H	1.063275	0.032241	0.869204
	H362	H	1.063681	0.035511	0.878446
	O363	O	0.456662	0.504032	0.511729
	H364	H	0.460968	0.512518	0.523364
	H365	H	0.465321	0.489554	0.519432
	O366	O	0.985360	1.031299	-0.034200
	H367	H	0.966473	1.030354	-0.020335
	H368	H	0.983403	1.031187	-0.024339
	O369	O	1.421868	0.344232	0.539250
	H370	H	1.420082	0.344985	0.535137
	H371	H	1.423666	0.344654	0.541599
	O372	O	0.497500	0.534298	0.526128
	H373	H	0.499579	0.544849	0.528160
	H374	H	0.482019	0.535515	0.520159
	O375	O	1.006262	-0.041693	1.041080
	H376	H	1.012729	-0.047822	1.032504
	H377	H	1.010140	-0.034139	1.035648
	O378	O	0.053670	1.100725	0.053735
	H379	H	0.053238	1.088408	0.045779
	H380	H	0.060539	1.099495	0.062663
	O381	O	0.498543	0.403449	0.590973
	H382	H	0.502841	0.403940	0.596766
	H383	H	0.492595	0.399122	0.594194
	O384	O	0.971481	0.853382	-0.071869
	H385	H	0.977581	0.872276	-0.066712
	H386	H	0.957681	0.855542	-0.072401
	O387	O	0.941017	-0.066966	0.929864
	H388	H	0.951109	-0.058415	0.946782
	H389	H	0.938319	-0.085854	0.925266
	O390	O	1.030704	1.040263	0.016238
	H391	H	1.027434	1.039373	0.025786
	H392	H	1.032936	1.041607	0.020860
	O393	O	0.482260	0.406144	0.350098
	H394	H	0.488462	0.402007	0.351014
	H395	H	0.511294	0.391467	0.348129
