data_Molecule from HDF5

_cell_length_a		16.208777
_cell_length_b		16.020025
_cell_length_c		16.332028
_cell_angle_alpha	89.040088
_cell_angle_beta	89.032654
_cell_angle_gamma	90.251899
_symmetry_space_group_name_H-M	'P 1'
_symmetry_Int_Tables_number		1

loop_
	_symmetry_equiv_pos_as_xyz
	x,y,z

loop_
	_atom_site_label
	_atom_site_type_symbol
	_atom_site_fract_x
	_atom_site_fract_y
	_atom_site_fract_z
	H0	H	0.396322	0.838049	0.721424
	H1	H	0.601999	0.167966	0.708040
	H2	H	0.604765	0.835189	0.287338
	H3	H	0.406224	0.166689	0.283889
	H4	H	0.723920	0.404777	0.839500
	H5	H	0.713904	0.599797	0.166137
	H6	H	0.289739	0.606219	0.838025
	H7	H	0.282418	0.398486	0.162851
	H8	H	0.836259	0.715824	0.404852
	H9	H	0.166596	0.713213	0.592050
	H10	H	0.836404	0.288623	0.602583
	H11	H	0.167437	0.292304	0.404244
	H12	H	0.840601	0.393865	0.725434
	H13	H	0.166293	0.601577	0.710305
	H14	H	0.838219	0.605238	0.285549
	H15	H	0.165064	0.402780	0.282685
	H16	H	0.408331	0.718756	0.837169
	H17	H	0.594641	0.712478	0.166821
	H18	H	0.601952	0.294532	0.835306
	H19	H	0.399538	0.283426	0.162977
	H20	H	0.717459	0.835484	0.400831
	H21	H	0.713668	0.167629	0.591770
	H22	H	0.286892	0.835956	0.603921
	H23	H	0.291865	0.167664	0.399508
	H24	H	0.898315	0.337433	0.222105
	H25	H	0.100223	0.668264	0.208607
	H26	H	0.103974	0.336043	0.789065
	H27	H	0.905067	0.666880	0.784680
	H28	H	0.221839	0.903917	0.338364
	H29	H	0.216922	0.101013	0.663286
	H30	H	0.793715	0.101720	0.335859
	H31	H	0.779891	0.895396	0.662255
	H32	H	0.336540	0.217188	0.903120
	H33	H	0.666876	0.212425	0.089235
	H34	H	0.336834	0.789318	0.101517
	H35	H	0.667473	0.793058	0.903564
	H36	H	0.341335	0.895052	0.224353
	H37	H	0.667846	0.099976	0.207203
	H38	H	0.337843	0.106241	0.783591
	H39	H	0.665225	0.903511	0.782182
	H40	H	0.907908	0.219526	0.338246
	H41	H	0.095908	0.211091	0.666300
	H42	H	0.099243	0.793582	0.335444
	H43	H	0.900524	0.784387	0.664648
	H44	H	0.217345	0.336814	0.903224
	H45	H	0.211423	0.668398	0.092119
	H46	H	0.784347	0.336731	0.107239
	H47	H	0.794688	0.669510	0.904328
	H48	H	0.416077	0.120219	0.595687
	H49	H	0.595928	0.879944	0.595352
	H50	H	0.592976	0.117878	0.404841
	H51	H	0.406761	0.882957	0.416949
	H52	H	0.591676	0.408419	0.116423
	H53	H	0.599559	0.607990	0.882946
	H54	H	0.402729	0.590456	0.118333
	H55	H	0.409583	0.409360	0.882264
	H56	H	0.123733	0.602294	0.393773
	H57	H	0.883915	0.588966	0.599858
	H58	H	0.122064	0.401368	0.596199
	H59	H	0.881893	0.406215	0.408675
	H60	H	0.117863	0.409868	0.587687
	H61	H	0.883470	0.593466	0.594457
	H62	H	0.117738	0.600794	0.411204
	H63	H	0.885892	0.409442	0.416843
	H64	H	0.406666	0.593645	0.118573
	H65	H	0.608931	0.593253	0.884195
	H66	H	0.590436	0.406562	0.117327
	H67	H	0.407204	0.414203	0.882637
	H68	H	0.604315	0.121400	0.404024
	H69	H	0.585946	0.883317	0.598087
	H70	H	0.409527	0.118827	0.582088
	H71	H	0.411258	0.880276	0.405422
	H72	H	0.903349	0.622653	0.091351
	H73	H	0.083834	0.386240	0.089794
	H74	H	0.092907	0.619878	0.902295
	H75	H	0.906788	0.378127	0.902052
	H76	H	0.090823	0.908870	0.616819
	H77	H	0.092070	0.099522	0.386169
	H78	H	0.896153	0.094056	0.620890
	H79	H	0.921431	0.902113	0.384532
	H80	H	0.618847	0.097357	0.898055
	H81	H	0.384253	0.089449	0.095057
	H82	H	0.623309	0.914489	0.108856
	H83	H	0.383569	0.913451	0.903511
	H84	H	0.625279	0.891453	0.090842
	H85	H	0.384407	0.090520	0.096028
	H86	H	0.619649	0.097166	0.903051
	H87	H	0.382335	0.904615	0.912057
	H88	H	0.904905	0.082843	0.615764
	H89	H	0.102742	0.098858	0.382359
	H90	H	0.093275	0.902019	0.618077
	H91	H	0.897379	0.901399	0.378012
	H92	H	0.097647	0.622730	0.906323
	H93	H	0.099058	0.381437	0.090611
	H94	H	0.907071	0.623565	0.099194
	H95	H	0.926491	0.387944	0.915221
	H96	H	0.401462	0.124754	0.594090
	H97	H	0.590371	0.884260	0.587347
	H98	H	0.596941	0.123059	0.394999
	H99	H	0.418359	0.884847	0.413912
	H100	H	0.593149	0.406307	0.117608
	H101	H	0.591157	0.593698	0.889225
	H102	H	0.401221	0.595378	0.119053
	H103	H	0.411515	0.413434	0.884862
	H104	H	0.116488	0.585689	0.401666
	H105	H	0.885441	0.587539	0.594383
	H106	H	0.120361	0.412935	0.600553
	H107	H	0.885057	0.416465	0.409457
	H108	H	0.912906	0.619872	0.092785
	H109	H	0.090709	0.380152	0.102573
	H110	H	0.098080	0.622216	0.898915
	H111	H	0.902716	0.384624	0.926310
	H112	H	0.096869	0.907414	0.617191
	H113	H	0.097401	0.090834	0.386425
	H114	H	0.910100	0.096169	0.617396
	H115	H	0.907760	0.923553	0.386943
	H116	H	0.618742	0.093275	0.901381
	H117	H	0.383789	0.090225	0.094280
	H118	H	0.614446	0.916844	0.081494
	H119	H	0.388263	0.915354	0.915190
	C120	C	0.379090	0.011487	0.622263
	C121	C	0.620435	0.992688	0.618885
	C122	C	0.626077	0.010272	0.375747
	C123	C	0.383634	0.992271	0.380765
	C124	C	0.623517	0.380577	0.009222
	C125	C	0.624921	0.624772	0.993841
	C126	C	0.378582	0.624416	0.010213
	C127	C	0.378629	0.380220	0.991209
	C128	C	0.010339	0.625079	0.376465
	C129	C	0.993107	0.619968	0.621557
	C130	C	0.011494	0.377987	0.625768
	C131	C	0.993016	0.382206	0.381298
	C132	C	0.878335	0.511906	0.125157
	C133	C	0.120108	0.492861	0.120167
	C134	C	0.124988	0.511346	0.877273
	C135	C	0.883493	0.492957	0.883087
	C136	C	0.123767	0.879369	0.509183
	C137	C	0.124293	0.123940	0.492793
	C138	C	0.879168	0.121982	0.509537
	C139	C	0.878202	0.877909	0.491578
	C140	C	0.510183	0.125710	0.874673
	C141	C	0.493094	0.120274	0.120266
	C142	C	0.512074	0.878057	0.124577
	C143	C	0.493241	0.882494	0.880114
	C144	C	0.378617	0.887176	0.681622
	C145	C	0.620716	0.118132	0.671114
	C146	C	0.624337	0.885151	0.323600
	C147	C	0.385918	0.116999	0.322414
	C148	C	0.683549	0.384272	0.887425
	C149	C	0.677032	0.620762	0.117213
	C150	C	0.326824	0.624631	0.886694
	C151	C	0.320877	0.379434	0.113819
	C152	C	0.886033	0.679258	0.382631
	C153	C	0.117331	0.675824	0.614763
	C154	C	0.886906	0.323617	0.624312
	C155	C	0.117563	0.328541	0.383317
	C156	C	0.888855	0.376397	0.685266
	C157	C	0.117145	0.620311	0.673621
	C158	C	0.886822	0.624049	0.323329
	C159	C	0.116388	0.383505	0.322735
	C160	C	0.386097	0.680628	0.886506
	C161	C	0.617839	0.676690	0.117549
	C162	C	0.622814	0.329348	0.885352
	C163	C	0.379492	0.322329	0.114150
	C164	C	0.680286	0.885083	0.380552
	C165	C	0.676443	0.117893	0.613381
	C166	C	0.323649	0.886122	0.623268
	C167	C	0.329140	0.117495	0.380214
	C168	C	0.878935	0.386809	0.183131
	C169	C	0.119386	0.618342	0.172048
	C170	C	0.123378	0.385906	0.825535
	C171	C	0.885263	0.617760	0.824383
	C172	C	0.181951	0.883447	0.386488
	C173	C	0.178656	0.120895	0.615033
	C174	C	0.829529	0.121426	0.385216
	C175	C	0.819920	0.877172	0.613896
	C176	C	0.386282	0.180829	0.880328
	C177	C	0.617512	0.175629	0.112639
	C178	C	0.387199	0.824596	0.122756
	C179	C	0.617755	0.829244	0.882324
	C180	C	0.389530	0.877178	0.183970
	C181	C	0.617872	0.119813	0.171355
	C182	C	0.386712	0.125007	0.821463
	C183	C	0.616590	0.884161	0.822000
	C184	C	0.885967	0.180177	0.386734
	C185	C	0.118397	0.175767	0.616506
	C186	C	0.121111	0.828564	0.385193
	C187	C	0.879947	0.821864	0.615127
	C188	C	0.180031	0.386403	0.882277
	C189	C	0.174766	0.618443	0.114280
	C190	C	0.822549	0.386497	0.125655
	C191	C	0.830362	0.619089	0.883764
	C192	C	0.402128	0.098741	0.597866
	C193	C	0.597495	0.905309	0.599412
	C194	C	0.604465	0.098078	0.395442
	C195	C	0.405602	0.905091	0.405044
	C196	C	0.598835	0.400940	0.094857
	C197	C	0.605699	0.604428	0.907778
	C198	C	0.397898	0.600344	0.096313
	C199	C	0.402568	0.404983	0.905504
	C200	C	0.096890	0.602792	0.396375
	C201	C	0.906826	0.596716	0.602109
	C202	C	0.097844	0.401360	0.601766
	C203	C	0.906498	0.404229	0.404638
	C204	C	0.900969	0.599357	0.101422
	C205	C	0.097691	0.405316	0.100326
	C206	C	0.102782	0.598989	0.896787
	C207	C	0.905415	0.406169	0.907344
	C208	C	0.100393	0.899995	0.595185
	C209	C	0.103675	0.102585	0.407150
	C210	C	0.898043	0.098078	0.595667
	C211	C	0.901868	0.901985	0.405400
	C212	C	0.596636	0.102763	0.894919
	C213	C	0.406661	0.097011	0.100817
	C214	C	0.598581	0.900722	0.100781
	C215	C	0.406953	0.904613	0.903509
	Zn216	Zn	0.501148	0.003068	0.748083
	Zn217	Zn	0.504292	0.000708	0.250908
	Zn218	Zn	0.753272	0.502697	0.002522
	Zn219	Zn	0.249578	0.502687	0.000119
	Zn220	Zn	0.001387	0.750591	0.500342
	Zn221	Zn	0.001515	0.251870	0.503048
	Zn222	Zn	0.002972	0.500307	0.751962
	Zn223	Zn	0.001357	0.502890	0.249584
	Zn224	Zn	0.501998	0.752902	0.001925
	Zn225	Zn	0.500852	0.250765	-0.001061
	Zn226	Zn	0.749919	0.000641	0.499102
	Zn227	Zn	0.253327	0.001644	0.500958
	N228	N	0.412378	0.966241	0.681218
	N229	N	0.586365	0.039390	0.674654
	N230	N	0.591127	0.964170	0.320548
	N231	N	0.419000	0.038007	0.322542
	N232	N	0.684162	0.415231	0.965580
	N233	N	0.681835	0.589301	0.039290
	N234	N	0.322063	0.590272	0.964566
	N235	N	0.320061	0.414496	0.036232
	N236	N	0.963955	0.680076	0.414955
	N237	N	0.039345	0.675925	0.583051
	N238	N	0.964046	0.324488	0.587722
	N239	N	0.040048	0.327726	0.419245
	N240	N	0.967374	0.409617	0.686211
	N241	N	0.038994	0.586131	0.678027
	N242	N	0.965102	0.591271	0.319199
	N243	N	0.037981	0.416060	0.321345
	N244	N	0.417512	0.680578	0.964304
	N245	N	0.586079	0.679383	0.039884
	N246	N	0.586240	0.326694	0.962117
	N247	N	0.414511	0.322474	0.036746
	N248	N	0.681599	0.964061	0.412111
	N249	N	0.676410	0.038954	0.581458
	N250	N	0.323935	0.964323	0.586849
	N251	N	0.327720	0.038919	0.415956
	N252	N	0.913052	0.465678	0.182754
	N253	N	0.086057	0.539161	0.175844
	N254	N	0.089735	0.464613	0.822410
	N255	N	0.917505	0.538490	0.823714
	N256	N	0.183548	0.914354	0.464627
	N257	N	0.182452	0.089160	0.537005
	N258	N	0.825229	0.085938	0.462522
	N259	N	0.818585	0.911305	0.535831
	N260	N	0.463969	0.181176	0.912940
	N261	N	0.539052	0.176312	0.081682
	N262	N	0.464541	0.824911	0.086491
	N263	N	0.540025	0.827988	0.917823
	N264	N	0.468182	0.909728	0.185315
	N265	N	0.539536	0.086169	0.176427
	N266	N	0.464943	0.091966	0.817475
	N267	N	0.538049	0.916346	0.820313
	N268	N	0.916109	0.180662	0.464990
	N269	N	0.085192	0.177645	0.539630
	N270	N	0.085656	0.825981	0.462435
	N271	N	0.915382	0.822355	0.537885
	N272	N	0.180802	0.465374	0.913860
	N273	N	0.175415	0.539397	0.082611
	N274	N	0.821808	0.465233	0.090453
	N275	N	0.829146	0.540636	0.919716
	O276	O	0.020766	0.037110	0.048744
	H277	H	0.014832	0.046260	0.044841
	H278	H	0.016839	0.029695	0.053323
	O279	O	0.433817	0.580830	0.399833
	H280	H	0.437982	0.564227	0.400430
	H281	H	0.429815	0.583407	0.400733
	O282	O	0.515642	0.669591	0.527000
	H283	H	0.496794	0.671328	0.522381
	H284	H	0.508213	0.660075	0.529808
	O285	O	0.019937	0.983826	1.000086
	H286	H	0.024501	0.982934	0.997474
	H287	H	0.022398	0.974822	0.999980
	O288	O	1.058773	-0.001909	-0.036704
	H289	H	1.073091	-0.006064	-0.048235
	H290	H	1.055516	-0.008565	-0.046761
	O291	O	0.983428	0.975302	1.078266
	H292	H	0.988819	0.972527	1.090248
	H293	H	0.977553	0.978475	1.074916
	O294	O	0.559708	1.479939	0.587922
	H295	H	0.564237	1.462716	0.590500
	H296	H	0.547818	1.474864	0.582595
	O297	O	0.949125	-0.014250	1.008599
	H298	H	0.950935	-0.006166	1.009182
	H299	H	0.942152	-0.019347	1.020424
	O300	O	0.406918	0.529814	0.494497
	H301	H	0.396723	0.523418	0.492677
	H302	H	0.416081	0.529485	0.483929
	O303	O	1.091639	-0.056495	0.005101
	H304	H	1.091600	-0.058286	0.006268
	H305	H	1.086603	-0.059814	0.015453
	O306	O	0.009636	1.071001	1.008544
	H307	H	0.020209	1.083624	1.005690
	H308	H	0.008777	1.070851	1.005694
	O309	O	0.369155	0.545201	0.419703
	H310	H	0.364154	0.552117	0.430824
	H311	H	0.382468	0.552298	0.423287
	O312	O	1.455004	0.514698	0.488461
	H313	H	1.441927	0.510466	0.493306
	H314	H	1.454756	0.520320	0.488087
	O315	O	0.568765	0.484257	0.458966
	H316	H	0.572565	0.474569	0.455955
	H317	H	0.573820	0.485941	0.460556
	O318	O	0.490118	0.412537	0.545052
	H319	H	0.481202	0.406353	0.541198
	H320	H	0.499052	0.405818	0.557504
	O321	O	1.007300	0.939003	1.061101
	H322	H	0.999987	0.940826	1.068168
	H323	H	1.001726	0.942976	1.066587
	O324	O	0.485725	0.508781	0.436766
	H325	H	0.480527	0.518622	0.417325
	H326	H	0.490528	0.516722	0.445692
	O327	O	0.537796	0.432871	0.440911
	H328	H	0.533367	0.443376	0.452935
	H329	H	0.535245	0.431430	0.444528
	O330	O	1.009826	0.090780	0.963245
	H331	H	1.010304	0.087641	0.952747
	H332	H	1.014309	0.078466	0.968099
	O333	O	0.956519	1.030176	0.071533
	H334	H	0.946267	1.030312	0.075075
	H335	H	0.972792	1.035986	0.075322
	O336	O	0.644536	0.579285	0.545923
	H337	H	0.634641	0.585215	0.546018
	H338	H	0.658324	0.598241	0.553195
	O339	O	0.535800	0.445223	0.504633
	H340	H	0.525430	0.444911	0.497983
	H341	H	0.544747	0.448644	0.506080
	O342	O	0.075790	0.946330	0.005247
	H343	H	0.075124	0.937555	0.003066
	H344	H	0.074361	0.935980	0.005909
	O345	O	-0.042700	0.035781	-0.017455
	H346	H	-0.042574	0.039866	-0.015587
	H347	H	-0.046609	0.042454	-0.014882
	O348	O	-0.400958	0.437027	0.628502
	H349	H	-0.395607	0.436791	0.613422
	H350	H	-0.383542	0.442994	0.620184
	O351	O	0.459617	0.434215	0.559569
	H352	H	0.455663	0.429163	0.570348
	H353	H	0.474099	0.425793	0.554709
	O354	O	0.569158	0.396384	0.449544
	H355	H	0.569566	0.408403	0.435809
	H356	H	0.571665	0.395748	0.452045
	O357	O	0.372156	0.444190	0.636540
	H358	H	0.368164	0.444022	0.622792
	H359	H	0.373970	0.427348	0.650451
	O360	O	-0.016392	0.064126	-0.007236
	H361	H	-0.023175	0.072285	-0.005517
	H362	H	-0.007923	0.068724	-0.015859
	O363	O	0.617473	0.555176	0.462344
	H364	H	0.618261	0.554069	0.459346
	H365	H	0.619566	0.555144	0.445289
	O366	O	-0.507400	-0.526114	1.398897
	H367	H	-0.516790	-0.522747	1.403084
	H368	H	-0.507053	-0.523406	1.402324
	O369	O	0.451872	0.543391	0.605773
	H370	H	0.447436	0.533735	0.607074
	H371	H	0.468975	0.547016	0.612768
