data_Molecule from HDF5

_cell_length_a		16.246617
_cell_length_b		16.213330
_cell_length_c		16.213812
_cell_angle_alpha	89.735718
_cell_angle_beta	89.999292
_cell_angle_gamma	89.931270
_symmetry_space_group_name_H-M	'P 1'
_symmetry_Int_Tables_number		1

loop_
	_symmetry_equiv_pos_as_xyz
	x,y,z

loop_
	_atom_site_label
	_atom_site_type_symbol
	_atom_site_fract_x
	_atom_site_fract_y
	_atom_site_fract_z
	H0	H	0.410715	0.835109	0.720904
	H1	H	0.605296	0.164012	0.718815
	H2	H	0.606503	0.835628	0.293947
	H3	H	0.408240	0.163232	0.290948
	H4	H	0.721885	0.402670	0.841360
	H5	H	0.723083	0.597986	0.169678
	H6	H	0.294063	0.599671	0.842244
	H7	H	0.293708	0.400836	0.169985
	H8	H	0.843890	0.713950	0.408066
	H9	H	0.171791	0.713995	0.603503
	H10	H	0.845261	0.284648	0.606405
	H11	H	0.172460	0.286491	0.408458
	H12	H	0.844689	0.399310	0.721316
	H13	H	0.172203	0.596850	0.719545
	H14	H	0.844273	0.600154	0.290246
	H15	H	0.173144	0.403705	0.293652
	H16	H	0.409661	0.714863	0.842266
	H17	H	0.606052	0.711982	0.170680
	H18	H	0.606698	0.286422	0.841464
	H19	H	0.409894	0.285639	0.170492
	H20	H	0.723453	0.835831	0.408024
	H21	H	0.722093	0.163562	0.604856
	H22	H	0.294150	0.835437	0.606378
	H23	H	0.293118	0.163333	0.406370
	H24	H	0.910152	0.335793	0.220602
	H25	H	0.106634	0.664283	0.218640
	H26	H	0.107533	0.335161	0.792405
	H27	H	0.909214	0.663070	0.790818
	H28	H	0.223194	0.901048	0.341764
	H29	H	0.223142	0.098176	0.670765
	H30	H	0.793556	0.100299	0.342841
	H31	H	0.795286	0.900638	0.670076
	H32	H	0.344193	0.213638	0.909528
	H33	H	0.672441	0.213122	0.104645
	H34	H	0.344545	0.784769	0.106134
	H35	H	0.671683	0.786707	0.907610
	H36	H	0.345277	0.899904	0.221947
	H37	H	0.671986	0.097383	0.220730
	H38	H	0.344260	0.099703	0.790984
	H39	H	0.671974	0.902119	0.793234
	H40	H	0.910305	0.214936	0.342495
	H41	H	0.106895	0.213385	0.670722
	H42	H	0.106461	0.787312	0.341066
	H43	H	0.909909	0.785186	0.669694
	H44	H	0.223008	0.335513	0.907868
	H45	H	0.221228	0.664119	0.103415
	H46	H	0.793696	0.336113	0.105123
	H47	H	0.794795	0.663563	0.905798
	H48	H	0.405728	0.118559	0.594370
	H49	H	0.599972	0.882223	0.601277
	H50	H	0.605481	0.119257	0.409347
	H51	H	0.420022	0.884316	0.414869
	H52	H	0.604367	0.407874	0.124217
	H53	H	0.606079	0.590570	0.887191
	H54	H	0.421360	0.590237	0.120861
	H55	H	0.409390	0.401967	0.885202
	H56	H	0.127811	0.598426	0.407410
	H57	H	0.891091	0.583780	0.606981
	H58	H	0.126280	0.406093	0.603482
	H59	H	0.889211	0.399507	0.413060
	H60	H	0.126184	0.403264	0.596612
	H61	H	0.886564	0.603719	0.601963
	H62	H	0.123967	0.594468	0.419901
	H63	H	0.894625	0.411960	0.418679
	H64	H	0.413143	0.598806	0.126749
	H65	H	0.596603	0.592639	0.890467
	H66	H	0.599843	0.408858	0.121029
	H67	H	0.413058	0.415677	0.890168
	H68	H	0.594008	0.116148	0.411458
	H69	H	0.602951	0.881801	0.597992
	H70	H	0.416796	0.119234	0.608296
	H71	H	0.413176	0.882409	0.418709
	H72	H	0.916350	0.614601	0.091624
	H73	H	0.101433	0.381609	0.101512
	H74	H	0.096455	0.614985	0.912441
	H75	H	0.918587	0.382639	0.915683
	H76	H	0.097482	0.897631	0.624386
	H77	H	0.085537	0.090749	0.395133
	H78	H	0.923830	0.090360	0.621255
	H79	H	0.915472	0.910871	0.389447
	H80	H	0.622826	0.087104	0.913272
	H81	H	0.390318	0.088204	0.106763
	H82	H	0.625049	0.911151	0.101406
	H83	H	0.390286	0.908197	0.913405
	H84	H	0.626968	0.902207	0.103363
	H85	H	0.388165	0.101273	0.098301
	H86	H	0.628120	0.095665	0.906563
	H87	H	0.390596	0.907064	0.912802
	H88	H	0.913174	0.100664	0.627158
	H89	H	0.106032	0.108800	0.383477
	H90	H	0.110663	0.908228	0.625373
	H91	H	0.916844	0.905598	0.387459
	H92	H	0.103026	0.616755	0.914956
	H93	H	0.099205	0.382660	0.098969
	H94	H	0.908651	0.620065	0.099588
	H95	H	0.911976	0.381239	0.915946
	H96	H	0.422306	0.112510	0.592569
	H97	H	0.604627	0.880380	0.602613
	H98	H	0.602581	0.115395	0.420453
	H99	H	0.413158	0.880600	0.410849
	H100	H	0.600722	0.403576	0.123999
	H101	H	0.602274	0.599880	0.886379
	H102	H	0.408930	0.587383	0.124064
	H103	H	0.423604	0.404748	0.890612
	H104	H	0.123439	0.585785	0.409818
	H105	H	0.894686	0.590198	0.587706
	H106	H	0.123862	0.409778	0.598261
	H107	H	0.889333	0.410979	0.405381
	H108	H	0.919304	0.618090	0.103075
	H109	H	0.102048	0.382588	0.098589
	H110	H	0.101495	0.618478	0.908157
	H111	H	0.915338	0.380949	0.910698
	H112	H	0.095903	0.913551	0.619876
	H113	H	0.112761	0.080656	0.389699
	H114	H	0.909227	0.085360	0.624315
	H115	H	0.912096	0.908240	0.387692
	H116	H	0.625477	0.097316	0.917992
	H117	H	0.394609	0.088545	0.091848
	H118	H	0.624762	0.905314	0.094783
	H119	H	0.390390	0.907662	0.914264
	C120	C	0.386647	0.008024	0.627688
	C121	C	0.630310	0.990385	0.628555
	C122	C	0.629810	0.008334	0.385380
	C123	C	0.386395	0.990983	0.385367
	C124	C	0.629915	0.378485	0.014403
	C125	C	0.629935	0.621702	0.996971
	C126	C	0.386254	0.621538	0.015159
	C127	C	0.386460	0.378515	0.997112
	C128	C	0.016657	0.621747	0.383720
	C129	C	0.999245	0.620854	0.627245
	C130	C	0.017313	0.377319	0.628644
	C131	C	0.999639	0.378590	0.383942
	C132	C	0.886568	0.508971	0.127246
	C133	C	0.129427	0.490957	0.127552
	C134	C	0.129533	0.508094	0.884149
	C135	C	0.886866	0.490520	0.884799
	C136	C	0.129773	0.878148	0.514476
	C137	C	0.130241	0.121541	0.497777
	C138	C	0.886751	0.121509	0.515413
	C139	C	0.886833	0.878781	0.496918
	C140	C	0.517049	0.122066	0.884231
	C141	C	0.499554	0.121220	0.127875
	C142	C	0.517169	0.877329	0.128281
	C143	C	0.498977	0.878726	0.884907
	C144	C	0.389702	0.884274	0.683276
	C145	C	0.626617	0.114647	0.681971
	C146	C	0.627265	0.884604	0.331250
	C147	C	0.388290	0.114182	0.329035
	C148	C	0.684522	0.381418	0.890414
	C149	C	0.685075	0.618486	0.120630
	C150	C	0.331470	0.620102	0.891420
	C151	C	0.331494	0.380477	0.120956
	C152	C	0.892877	0.676465	0.386720
	C153	C	0.123007	0.676128	0.624412
	C154	C	0.894016	0.322442	0.626579
	C155	C	0.123412	0.324081	0.387485
	C156	C	0.893952	0.379224	0.684017
	C157	C	0.123130	0.617784	0.681775
	C158	C	0.893195	0.619695	0.328501
	C159	C	0.123620	0.382001	0.330030
	C160	C	0.389254	0.677189	0.891413
	C161	C	0.626743	0.675041	0.121152
	C162	C	0.627192	0.323999	0.890480
	C163	C	0.389309	0.323525	0.121257
	C164	C	0.684982	0.884761	0.388266
	C165	C	0.684872	0.114289	0.625604
	C166	C	0.331874	0.884443	0.626358
	C167	C	0.331107	0.114458	0.386553
	C168	C	0.889396	0.385007	0.182821
	C169	C	0.126979	0.615000	0.181763
	C170	C	0.127524	0.384203	0.829916
	C171	C	0.889373	0.614167	0.829143
	C172	C	0.185019	0.881023	0.390734
	C173	C	0.185328	0.118726	0.621700
	C174	C	0.831191	0.120528	0.391945
	C175	C	0.832325	0.880067	0.620750
	C176	C	0.393218	0.176426	0.887860
	C177	C	0.623185	0.175966	0.125406
	C178	C	0.393711	0.822539	0.126121
	C179	C	0.622660	0.824028	0.887357
	C180	C	0.394047	0.879643	0.183813
	C181	C	0.623034	0.118258	0.182874
	C182	C	0.393241	0.119701	0.829355
	C183	C	0.622769	0.881475	0.830503
	C184	C	0.889573	0.177187	0.391671
	C185	C	0.127892	0.176218	0.621505
	C186	C	0.127064	0.824356	0.390437
	C187	C	0.889535	0.823162	0.620747
	C188	C	0.185370	0.384626	0.886795
	C189	C	0.184051	0.614907	0.124377
	C190	C	0.831977	0.384898	0.125196
	C191	C	0.831995	0.614320	0.885997
	C192	C	0.408583	0.094418	0.605018
	C193	C	0.608774	0.903962	0.607081
	C194	C	0.607388	0.094595	0.407280
	C195	C	0.408729	0.904539	0.408196
	C196	C	0.608084	0.400243	0.100723
	C197	C	0.608104	0.600552	0.910358
	C198	C	0.408109	0.598721	0.101529
	C199	C	0.408840	0.400952	0.911053
	C200	C	0.102871	0.599611	0.405840
	C201	C	0.913101	0.599161	0.605294
	C202	C	0.103364	0.399867	0.606072
	C203	C	0.913277	0.400758	0.406072
	C204	C	0.908239	0.595311	0.104617
	C205	C	0.107521	0.404605	0.106047
	C206	C	0.107154	0.594475	0.905559
	C207	C	0.908853	0.403898	0.907465
	C208	C	0.107864	0.900182	0.600761
	C209	C	0.108130	0.099760	0.411717
	C210	C	0.908912	0.098864	0.601789
	C211	C	0.908477	0.901482	0.410395
	C212	C	0.603104	0.099990	0.906066
	C213	C	0.413220	0.099248	0.105617
	C214	C	0.603320	0.899663	0.106311
	C215	C	0.412850	0.900996	0.906998
	Zn216	Zn	0.507909	-0.000362	0.756287
	Zn217	Zn	0.508435	-0.000371	0.256799
	Zn218	Zn	0.758241	0.499872	0.005203
	Zn219	Zn	0.257859	0.500040	0.006057
	Zn220	Zn	0.008001	0.750391	0.505541
	Zn221	Zn	0.008274	0.249846	0.506821
	Zn222	Zn	0.007527	0.498734	0.756141
	Zn223	Zn	0.008255	0.500327	0.255204
	Zn224	Zn	0.508035	0.750185	0.006586
	Zn225	Zn	0.508430	0.250198	0.006276
	Zn226	Zn	0.758226	-0.000459	0.506698
	Zn227	Zn	0.257920	-0.000508	0.506569
	N228	N	0.422939	0.962198	0.684272
	N229	N	0.593455	0.036719	0.683885
	N230	N	0.593596	0.962417	0.329485
	N231	N	0.422048	0.036233	0.328093
	N232	N	0.686399	0.414417	0.968352
	N233	N	0.687074	0.585943	0.042448
	N234	N	0.329358	0.586368	0.969395
	N235	N	0.329623	0.414055	0.042827
	N236	N	0.970593	0.677950	0.420480
	N237	N	0.045103	0.678277	0.591154
	N238	N	0.971613	0.321046	0.592815
	N239	N	0.045134	0.321647	0.420199
	N240	N	0.971718	0.412847	0.685212
	N241	N	0.045354	0.584304	0.683782
	N242	N	0.971151	0.586565	0.326486
	N243	N	0.045706	0.415271	0.328176
	N244	N	0.422527	0.678287	0.969495
	N245	N	0.593489	0.677385	0.043222
	N246	N	0.593934	0.322013	0.968527
	N247	N	0.422828	0.322138	0.043430
	N248	N	0.686684	0.962854	0.421190
	N249	N	0.687393	0.036083	0.593077
	N250	N	0.329789	0.962462	0.592652
	N251	N	0.329909	0.036725	0.420728
	N252	N	0.922573	0.462942	0.184006
	N253	N	0.093718	0.537086	0.183647
	N254	N	0.093393	0.461899	0.828033
	N255	N	0.922753	0.536068	0.828249
	N256	N	0.186720	0.913893	0.468840
	N257	N	0.186883	0.085196	0.543882
	N258	N	0.829421	0.086506	0.469900
	N259	N	0.830508	0.914125	0.542937
	N260	N	0.471023	0.178220	0.921215
	N261	N	0.545351	0.177740	0.091846
	N262	N	0.471437	0.821051	0.092494
	N263	N	0.544680	0.822159	0.920527
	N264	N	0.471771	0.913063	0.185441
	N265	N	0.545182	0.084872	0.184392
	N266	N	0.471204	0.086734	0.827067
	N267	N	0.544986	0.915060	0.828950
	N268	N	0.923528	0.177661	0.469393
	N269	N	0.094279	0.178180	0.543620
	N270	N	0.093132	0.822669	0.468181
	N271	N	0.922797	0.822233	0.542754
	N272	N	0.186399	0.462494	0.920213
	N273	N	0.185601	0.536898	0.091292
	N274	N	0.829914	0.462980	0.091475
	N275	N	0.830645	0.536429	0.920007
	O276	O	1.047050	1.007832	-0.032775
	H277	H	1.046176	1.001259	-0.034680
	H278	H	1.042900	1.011788	-0.036962
	O279	O	-0.000170	-0.019646	-0.040052
	H280	H	0.001364	-0.011129	-0.048474
	H281	H	-0.000262	-0.017033	-0.041142
	O282	O	-0.057486	0.025769	1.020719
	H283	H	-0.058696	0.021620	1.018532
	H284	H	-0.057167	0.033285	1.020770
	O285	O	0.505067	0.440932	0.444203
	H286	H	0.500674	0.439766	0.448150
	H287	H	0.501349	0.437035	0.454980
	O288	O	0.481184	0.449332	0.493208
	H289	H	0.481246	0.441957	0.479832
	H290	H	0.480444	0.451110	0.498980
	O291	O	0.457318	0.423749	0.483266
	H292	H	0.459072	0.425917	0.480247
	H293	H	0.455493	0.428252	0.479370
	O294	O	0.006843	-0.009035	0.000995
	H295	H	0.008978	-0.016684	-0.002112
	H296	H	0.006067	-0.008571	-0.000217
	O297	O	-0.003044	-0.002669	0.063474
	H298	H	-0.007463	-0.001146	0.061980
	H299	H	-0.001431	-0.000842	0.057907
	O300	O	0.035502	1.051678	0.996616
	H301	H	0.030700	1.052764	0.991275
	H302	H	0.044444	1.050447	1.004197
	O303	O	0.517076	0.446724	0.446091
	H304	H	0.516824	0.434218	0.445973
	H305	H	0.513440	0.441960	0.432215
	O306	O	0.022339	-0.002898	1.051381
	H307	H	0.017342	-0.007471	1.060953
	H308	H	0.025052	0.007887	1.054684
	O309	O	1.009170	0.926772	0.980087
	H310	H	1.009101	0.922595	0.977926
	H311	H	0.998245	0.926875	0.983562
	O312	O	0.461375	0.432549	0.511094
	H313	H	0.465638	0.436631	0.513370
	H314	H	0.460303	0.436943	0.515621
	O315	O	-0.019986	0.962386	0.061059
	H316	H	-0.018959	0.963259	0.070043
	H317	H	-0.008138	0.954183	0.064803
	O318	O	0.021822	1.004634	0.038065
	H319	H	0.029090	1.009183	0.038248
	H320	H	0.027396	0.994795	0.044133
	O321	O	0.935308	1.036209	-0.005010
	H322	H	0.927809	1.042905	-0.013912
	H323	H	0.933595	1.038440	-0.001803
