data_Molecule from HDF5

_cell_length_a		16.472862
_cell_length_b		16.641357
_cell_length_c		16.625888
_cell_angle_alpha	90.023718
_cell_angle_beta	90.165288
_cell_angle_gamma	90.117851
_symmetry_space_group_name_H-M	'P 1'
_symmetry_Int_Tables_number		1

loop_
	_symmetry_equiv_pos_as_xyz
	x,y,z

loop_
	_atom_site_label
	_atom_site_type_symbol
	_atom_site_fract_x
	_atom_site_fract_y
	_atom_site_fract_z
	H0	H	0.401794	0.846862	0.736835
	H1	H	0.615162	0.155674	0.740199
	H2	H	0.609155	0.846743	0.292635
	H3	H	0.397636	0.157430	0.293295
	H4	H	0.723315	0.399381	0.858349
	H5	H	0.721173	0.601730	0.172912
	H6	H	0.285208	0.604192	0.858091
	H7	H	0.283173	0.398566	0.170807
	H8	H	0.846819	0.719193	0.411684
	H9	H	0.159797	0.722773	0.620771
	H10	H	0.845896	0.282265	0.616587
	H11	H	0.161211	0.278593	0.409505
	H12	H	0.846434	0.396419	0.734319
	H13	H	0.160891	0.605348	0.735727
	H14	H	0.846612	0.601079	0.296937
	H15	H	0.161277	0.395100	0.294421
	H16	H	0.400037	0.722654	0.858815
	H17	H	0.606129	0.719960	0.172656
	H18	H	0.610535	0.279406	0.860579
	H19	H	0.395222	0.277587	0.168831
	H20	H	0.722239	0.844515	0.413091
	H21	H	0.726637	0.156929	0.619795
	H22	H	0.285515	0.846021	0.618705
	H23	H	0.282282	0.157276	0.409992
	H24	H	0.896576	0.346416	0.237413
	H25	H	0.109400	0.656417	0.237413
	H26	H	0.111614	0.345381	0.792299
	H27	H	0.900568	0.657361	0.793192
	H28	H	0.225620	0.896402	0.360796
	H29	H	0.226300	0.105720	0.673115
	H30	H	0.784181	0.102101	0.359993
	H31	H	0.782767	0.894915	0.671601
	H32	H	0.347969	0.223959	0.908101
	H33	H	0.659861	0.225588	0.122602
	H34	H	0.347560	0.781683	0.119306
	H35	H	0.663097	0.782172	0.910744
	H36	H	0.346871	0.898840	0.234445
	H37	H	0.660415	0.108060	0.237178
	H38	H	0.348857	0.109241	0.791560
	H39	H	0.663126	0.898270	0.795639
	H40	H	0.897616	0.222307	0.361189
	H41	H	0.112195	0.223862	0.672037
	H42	H	0.109370	0.779348	0.360783
	H43	H	0.897121	0.777110	0.670384
	H44	H	0.227289	0.346041	0.909340
	H45	H	0.223057	0.658368	0.118061
	H46	H	0.781292	0.346719	0.119301
	H47	H	0.785828	0.659669	0.911019
	H48	H	0.418890	0.112403	0.601420
	H49	H	0.593066	0.891236	0.600546
	H50	H	0.592321	0.113138	0.423967
	H51	H	0.416617	0.891156	0.427035
	H52	H	0.589676	0.414008	0.125516
	H53	H	0.598707	0.597694	0.899175
	H54	H	0.409661	0.593709	0.128420
	H55	H	0.419323	0.413450	0.904922
	H56	H	0.118833	0.589800	0.423250
	H57	H	0.892899	0.589367	0.598240
	H58	H	0.112991	0.416146	0.595830
	H59	H	0.888234	0.407713	0.421231
	H60	H	0.118843	0.417358	0.613719
	H61	H	0.891966	0.584044	0.605616
	H62	H	0.118933	0.594794	0.427670
	H63	H	0.893290	0.407952	0.432559
	H64	H	0.416799	0.589037	0.125900
	H65	H	0.595059	0.590152	0.903005
	H66	H	0.592288	0.413320	0.126914
	H67	H	0.415560	0.413378	0.903269
	H68	H	0.593716	0.112430	0.428283
	H69	H	0.597198	0.886987	0.609181
	H70	H	0.414011	0.115789	0.605267
	H71	H	0.414802	0.889897	0.424464
	H72	H	0.916525	0.612198	0.102726
	H73	H	0.090914	0.391650	0.102862
	H74	H	0.085465	0.610613	0.922491
	H75	H	0.920244	0.392913	0.923832
	H76	H	0.093550	0.906335	0.629483
	H77	H	0.096968	0.091647	0.402874
	H78	H	0.911158	0.092147	0.630419
	H79	H	0.914148	0.908883	0.402622
	H80	H	0.613469	0.083544	0.929096
	H81	H	0.390301	0.088064	0.110651
	H82	H	0.617717	0.920190	0.112252
	H83	H	0.391652	0.911859	0.922887
	H84	H	0.621273	0.903827	0.107965
	H85	H	0.389240	0.099465	0.100749
	H86	H	0.619583	0.093505	0.922766
	H87	H	0.393451	0.910429	0.928433
	H88	H	0.917750	0.085224	0.626054
	H89	H	0.092269	0.086914	0.407212
	H90	H	0.097078	0.915287	0.628075
	H91	H	0.914322	0.912074	0.404185
	H92	H	0.094848	0.610087	0.932847
	H93	H	0.094642	0.389228	0.103157
	H94	H	0.910094	0.614981	0.106432
	H95	H	0.912501	0.391257	0.931321
	H96	H	0.420554	0.114315	0.607943
	H97	H	0.587811	0.891468	0.609201
	H98	H	0.596217	0.115324	0.425138
	H99	H	0.418030	0.891149	0.424287
	H100	H	0.592480	0.415858	0.125133
	H101	H	0.590001	0.597757	0.902183
	H102	H	0.417746	0.598085	0.128085
	H103	H	0.417177	0.416846	0.904840
	H104	H	0.116024	0.588492	0.428909
	H105	H	0.888533	0.592531	0.605712
	H106	H	0.120931	0.401561	0.603986
	H107	H	0.894322	0.417921	0.425277
	H108	H	0.916615	0.614028	0.110666
	H109	H	0.091948	0.389571	0.106642
	H110	H	0.098414	0.615407	0.920454
	H111	H	0.910642	0.387337	0.921013
	H112	H	0.088041	0.913130	0.625302
	H113	H	0.089406	0.094001	0.404885
	H114	H	0.921008	0.094763	0.627770
	H115	H	0.916785	0.909887	0.404568
	H116	H	0.615476	0.095336	0.935020
	H117	H	0.395338	0.085755	0.096763
	H118	H	0.614331	0.914645	0.095705
	H119	H	0.393730	0.916376	0.926766
	C120	C	0.384910	0.011008	0.636867
	C121	C	0.626639	0.992400	0.638356
	C122	C	0.625160	0.010144	0.394365
	C123	C	0.383159	0.993649	0.393614
	C124	C	0.624195	0.381855	0.023014
	C125	C	0.625465	0.624420	1.006269
	C126	C	0.382969	0.624558	0.023850
	C127	C	0.383450	0.381581	1.006807
	C128	C	0.013365	0.621668	0.394769
	C129	C	0.994796	0.621451	0.636050
	C130	C	0.012981	0.379918	0.635923
	C131	C	0.995645	0.378718	0.393844
	C132	C	0.882321	0.510246	0.137367
	C133	C	0.125150	0.492880	0.136580
	C134	C	0.126095	0.509363	0.892901
	C135	C	0.882949	0.493745	0.893397
	C136	C	0.125288	0.879702	0.524601
	C137	C	0.126172	0.122967	0.508096
	C138	C	0.883821	0.121715	0.524812
	C139	C	0.882403	0.878334	0.506920
	C140	C	0.513079	0.123576	0.894571
	C141	C	0.494796	0.124003	0.136269
	C142	C	0.513237	0.881687	0.136321
	C143	C	0.497153	0.881381	0.894419
	C144	C	0.382696	0.893509	0.696678
	C145	C	0.631956	0.109262	0.699245
	C146	C	0.627138	0.893069	0.333822
	C147	C	0.379701	0.110716	0.333596
	C148	C	0.683819	0.380255	0.905428
	C149	C	0.682655	0.622290	0.125406
	C150	C	0.324310	0.624221	0.905572
	C151	C	0.322879	0.379491	0.123927
	C152	C	0.894162	0.679973	0.392816
	C153	C	0.112957	0.682067	0.638839
	C154	C	0.893433	0.321372	0.636132
	C155	C	0.113959	0.318799	0.391464
	C156	C	0.893799	0.378136	0.694594
	C157	C	0.113599	0.623872	0.695860
	C158	C	0.894169	0.621212	0.336219
	C159	C	0.113941	0.376657	0.334061
	C160	C	0.381613	0.682925	0.905866
	C161	C	0.625560	0.680940	0.125421
	C162	C	0.627616	0.320793	0.906525
	C163	C	0.378805	0.319778	0.123007
	C164	C	0.683539	0.891873	0.393417
	C165	C	0.687357	0.109788	0.639395
	C166	C	0.325276	0.893087	0.637946
	C167	C	0.322236	0.110364	0.391738
	C168	C	0.878977	0.393259	0.197081
	C169	C	0.127861	0.609902	0.197091
	C170	C	0.129276	0.392378	0.832540
	C171	C	0.881937	0.610956	0.833525
	C172	C	0.185500	0.877784	0.407554
	C173	C	0.186540	0.124686	0.625719
	C174	C	0.823944	0.121838	0.406978
	C175	C	0.822659	0.876540	0.624560
	C176	C	0.395076	0.183553	0.890702
	C177	C	0.612982	0.184788	0.140125
	C178	C	0.394649	0.821927	0.137750
	C179	C	0.615803	0.822054	0.892753
	C180	C	0.394342	0.880142	0.194881
	C181	C	0.613114	0.126709	0.197128
	C182	C	0.395843	0.126715	0.832291
	C183	C	0.615923	0.879756	0.835420
	C184	C	0.880240	0.181456	0.407515
	C185	C	0.129515	0.183376	0.625332
	C186	C	0.127755	0.819548	0.407532
	C187	C	0.879269	0.817647	0.623890
	C188	C	0.186982	0.392654	0.890801
	C189	C	0.184301	0.610909	0.137807
	C190	C	0.821507	0.393324	0.138539
	C191	C	0.824613	0.611927	0.891909
	C192	C	0.410368	0.092781	0.611957
	C193	C	0.600147	0.911123	0.613507
	C194	C	0.601169	0.092221	0.418755
	C195	C	0.409076	0.912088	0.418163
	C196	C	0.598813	0.407080	0.104671
	C197	C	0.601532	0.601890	0.923147
	C198	C	0.407506	0.600527	0.106073
	C199	C	0.409978	0.407184	0.925617
	C200	C	0.096355	0.597979	0.419498
	C201	C	0.912527	0.595889	0.610439
	C202	C	0.095861	0.404530	0.611582
	C203	C	0.913307	0.403839	0.419107
	C204	C	0.907216	0.592269	0.113442
	C205	C	0.099734	0.411374	0.111435
	C206	C	0.100339	0.590872	0.918089
	C207	C	0.907320	0.411855	0.918319
	C208	C	0.100171	0.904542	0.606316
	C209	C	0.100342	0.098000	0.426342
	C210	C	0.909332	0.097713	0.606653
	C211	C	0.907848	0.903245	0.425098
	C212	C	0.594907	0.098115	0.921263
	C213	C	0.413010	0.098468	0.110331
	C214	C	0.596381	0.906024	0.112133
	C215	C	0.414457	0.905988	0.918880
	Zn216	Zn	0.506100	0.002472	0.766373
	Zn217	Zn	0.504072	0.002676	0.264786
	Zn218	Zn	0.753935	0.502751	0.014120
	Zn219	Zn	0.254259	0.502060	0.015207
	Zn220	Zn	0.003733	0.750283	0.515495
	Zn221	Zn	0.004907	0.251505	0.515713
	Zn222	Zn	0.003958	0.500413	0.764094
	Zn223	Zn	0.004666	0.500530	0.266300
	Zn224	Zn	0.504982	0.753648	0.015282
	Zn225	Zn	0.503923	0.252084	0.015305
	Zn226	Zn	0.754210	0.000375	0.516315
	Zn227	Zn	0.254922	0.001623	0.515988
	N228	N	0.418738	0.967921	0.696370
	N229	N	0.595073	0.035263	0.698665
	N230	N	0.591931	0.967728	0.334047
	N231	N	0.416756	0.036929	0.334298
	N232	N	0.681903	0.417591	0.978910
	N233	N	0.683193	0.588390	0.050072
	N234	N	0.324803	0.588839	0.980028
	N235	N	0.325787	0.417308	0.050706
	N236	N	0.969481	0.680446	0.428555
	N237	N	0.038099	0.680677	0.602239
	N238	N	0.968781	0.321952	0.600696
	N239	N	0.039182	0.319836	0.427777
	N240	N	0.969199	0.413558	0.694682
	N241	N	0.039041	0.586910	0.694171
	N242	N	0.969337	0.585945	0.337266
	N243	N	0.039234	0.412979	0.335184
	N244	N	0.417047	0.683706	0.980686
	N245	N	0.591237	0.682709	0.050085
	N246	N	0.591615	0.321512	0.980865
	N247	N	0.415740	0.320908	0.049036
	N248	N	0.682550	0.965642	0.430371
	N249	N	0.684499	0.036064	0.602326
	N250	N	0.326336	0.967357	0.601854
	N251	N	0.324113	0.036432	0.428271
	N252	N	0.915946	0.467058	0.196626
	N253	N	0.091866	0.535355	0.196615
	N254	N	0.092040	0.466127	0.833708
	N255	N	0.917350	0.536326	0.834137
	N256	N	0.184045	0.914609	0.481417
	N257	N	0.184630	0.087913	0.551827
	N258	N	0.825952	0.085362	0.480850
	N259	N	0.824199	0.913497	0.550652
	N260	N	0.469097	0.181764	0.928679
	N261	N	0.538473	0.183432	0.102959
	N262	N	0.469691	0.822937	0.101913
	N263	N	0.540718	0.822644	0.928642
	N264	N	0.469194	0.916538	0.194159
	N265	N	0.538768	0.089536	0.194994
	N266	N	0.470594	0.090312	0.834350
	N267	N	0.541179	0.915904	0.836213
	N268	N	0.916589	0.181684	0.481817
	N269	N	0.092792	0.182463	0.550957
	N270	N	0.091118	0.820411	0.481599
	N271	N	0.915539	0.818656	0.549620
	N272	N	0.185076	0.466424	0.927612
	N273	N	0.182796	0.537176	0.100850
	N274	N	0.823237	0.467297	0.102059
	N275	N	0.825065	0.537955	0.928507
	O276	O	-0.693845	0.709135	-0.558097
	H277	H	-0.724268	0.732237	-0.575840
	H278	H	-0.699607	0.702381	-0.558209
	O279	O	0.355234	0.310673	0.704737
	H280	H	0.375865	0.296662	0.711061
	H281	H	0.352584	0.319952	0.693456
	O282	O	0.976722	-0.031459	0.984013
	H283	H	0.980084	-0.023493	0.969963
	H284	H	0.967492	-0.029238	0.980537
	O285	O	-0.005868	0.037887	-0.025965
	H286	H	-0.004545	0.045006	-0.029203
	H287	H	-0.009312	0.034093	-0.023524
	O288	O	0.508977	0.326272	0.578196
	H289	H	0.526066	0.331101	0.552195
	H290	H	0.509505	0.329441	0.583003
	O291	O	0.567159	0.609456	0.306853
	H292	H	0.560797	0.608617	0.305634
	H293	H	0.560216	0.618222	0.300278
	O294	O	1.021695	0.155758	0.951202
	H295	H	1.021828	0.147852	0.965330
	H296	H	1.003555	0.147316	0.948421
	O297	O	0.645451	0.285900	0.403269
	H298	H	0.654359	0.283230	0.384787
	H299	H	0.655015	0.286334	0.397742
	O300	O	0.044732	-0.212435	0.801224
	H301	H	0.020410	-0.204889	0.796959
	H302	H	0.024303	-0.214917	0.792711
	O303	O	0.563825	0.436150	0.565926
	H304	H	0.566499	0.448997	0.567662
	H305	H	0.570318	0.425820	0.576850
	O306	O	1.056314	0.038875	0.227811
	H307	H	1.056881	0.045849	0.234124
	H308	H	1.034914	0.044989	0.203653
	O309	O	0.700823	0.696905	0.711987
	H310	H	0.718070	0.715575	0.695652
	H311	H	0.663772	0.699707	0.721364
	O312	O	0.527197	0.650965	0.713948
	H313	H	0.516675	0.654040	0.715611
	H314	H	0.526135	0.650264	0.717457
	O315	O	1.199976	1.023706	1.083240
	H316	H	1.207918	1.017615	1.070096
	H317	H	1.197776	1.021817	1.076248
	O318	O	0.406934	0.280279	0.478892
	H319	H	0.410737	0.283910	0.486850
	H320	H	0.408227	0.267764	0.479798
	O321	O	0.190680	0.951621	0.069297
	H322	H	0.190014	0.935605	0.067114
	H323	H	0.197534	0.959582	0.043836
	O324	O	1.001985	1.125473	-0.176670
	H325	H	1.014970	1.135599	-0.170905
	H326	H	1.015183	1.129465	-0.179417
	O327	O	0.062282	0.086295	0.852868
	H328	H	0.070995	0.091370	0.867224
	H329	H	0.072823	0.066916	0.848351
	O330	O	0.320468	0.306366	0.563165
	H331	H	0.304915	0.285212	0.581574
	H332	H	0.330048	0.294052	0.566276
	O333	O	0.632975	0.418687	0.471255
	H334	H	0.637371	0.405894	0.461450
	H335	H	0.635118	0.427514	0.470793
	O336	O	0.952788	0.895323	0.226892
	H337	H	0.962091	0.916350	0.222182
	H338	H	0.937018	0.904033	0.241466
	O339	O	1.469653	-0.419041	0.297961
	H340	H	1.451089	-0.412467	0.289973
	H341	H	1.467317	-0.403138	0.292521
	O342	O	0.036949	0.037364	0.050340
	H343	H	0.030729	0.038919	0.045788
	H344	H	0.041861	0.025435	0.048591
	O345	O	-0.174067	1.008851	0.998043
	H346	H	-0.191387	0.983310	1.013155
	H347	H	-0.165060	0.999380	0.983304
	O348	O	0.294697	-0.559363	0.724698
	H349	H	0.299033	-0.577910	0.723446
	H350	H	0.286951	-0.547301	0.741721
	O351	O	0.763135	0.756664	0.257009
	H352	H	0.785432	0.748640	0.263152
	H353	H	0.742694	0.727692	0.286096
	O354	O	0.076569	0.135752	1.139197
	H355	H	0.067305	0.125619	1.138662
	H356	H	0.087653	0.132683	1.158352
	O357	O	0.500792	0.477584	0.300129
	H358	H	0.504102	0.477390	0.314562
	H359	H	0.507604	0.450120	0.294257
	O360	O	0.225633	0.223694	0.237419
	H361	H	0.219936	0.199557	0.230752
	H362	H	0.222011	0.218282	0.233160
	O363	O	0.228064	-0.032691	-0.204904
	H364	H	0.248403	-0.052595	-0.223491
	H365	H	0.230332	-0.065973	-0.212023
	O366	O	0.634747	0.685388	0.326388
	H367	H	0.612310	0.673575	0.334482
	H368	H	0.618787	0.662802	0.333278
	O369	O	0.532083	0.720710	0.492758
	H370	H	0.531275	0.721559	0.471169
	H371	H	0.529275	0.717014	0.505620
	O372	O	0.818169	1.186198	0.205884
	H373	H	0.826803	1.176179	0.187744
	H374	H	0.830343	1.180027	0.198591
	O375	O	0.841237	-0.185793	-0.147776
	H376	H	0.855700	-0.162500	-0.144900
	H377	H	0.835650	-0.183919	-0.125383
	O378	O	0.463345	0.544271	0.622342
	H379	H	0.452584	0.550302	0.627956
	H380	H	0.479071	0.527058	0.622736
	O381	O	-0.257792	1.314731	0.702669
	H382	H	-0.274669	1.305750	0.703695
	H383	H	-0.228827	1.320517	0.699820
	O384	O	0.800058	0.201646	0.983365
	H385	H	0.801458	0.201416	0.973045
	H386	H	0.784418	0.213791	0.973848
	O387	O	1.206772	1.099900	-0.074335
	H388	H	1.204864	1.083327	-0.071972
	H389	H	1.200301	1.073107	-0.078888
	O390	O	0.431181	0.555860	0.647169
	H391	H	0.436999	0.562256	0.637449
	H392	H	0.414900	0.542702	0.651711
	O393	O	0.213315	-0.204187	-0.193715
	H394	H	0.157980	-0.213183	-0.200988
	H395	H	0.241851	-0.239272	-0.227831
	O396	O	-0.305993	1.209095	0.730866
	H397	H	-0.311388	1.198041	0.738091
	H398	H	-0.313985	1.208063	0.732555
	O399	O	0.277609	0.476023	0.494780
	H400	H	0.275845	0.469575	0.486222
	H401	H	0.287406	0.457013	0.490859
	O402	O	0.309280	0.518613	0.351799
	H403	H	0.320204	0.498583	0.363960
	H404	H	0.302904	0.513394	0.333435
	O405	O	1.025946	0.226218	1.238571
	H406	H	1.031573	0.232816	1.246623
	H407	H	1.044377	0.233830	1.255814
	O408	O	0.200542	0.216752	0.052276
	H409	H	0.207100	0.210228	0.045035
	H410	H	0.200921	0.215953	0.052340
	O411	O	-0.015543	0.790345	1.010202
	H412	H	-0.009177	0.778748	1.012043
	H413	H	-0.025745	0.786198	1.010238
	O414	O	0.461974	0.478590	0.604533
	H415	H	0.468968	0.482740	0.606351
	H416	H	0.465825	0.466214	0.600243
	O417	O	0.352887	0.666467	0.524795
	H418	H	0.345412	0.674605	0.526801
	H419	H	0.359636	0.656215	0.529666
	O420	O	0.330845	0.346788	0.325294
	H421	H	0.324527	0.330952	0.309642
	H422	H	0.331252	0.365662	0.336340
	O423	O	0.504683	-0.677730	0.324133
	H424	H	0.496763	-0.685448	0.308280
	H425	H	0.496055	-0.679013	0.320811
	O426	O	-0.117360	0.133898	-0.079776
	H427	H	-0.127984	0.143667	-0.083419
	H428	H	-0.133366	0.143428	-0.095921
	O429	O	1.157284	0.838832	1.005944
	H430	H	1.172682	0.823230	0.995475
	H431	H	1.160293	0.831142	0.993671
	O432	O	0.787268	0.963217	0.236051
	H433	H	0.779323	0.945148	0.243487
	H434	H	0.770260	0.957919	0.245340
	O435	O	-0.151335	1.096313	-0.201802
	H436	H	-0.152841	1.109475	-0.187699
	H437	H	-0.133889	1.103764	-0.203351
	O438	O	-0.119194	0.029685	0.135248
	H439	H	-0.125988	0.028622	0.135634
	H440	H	-0.125426	0.037599	0.135150
	O441	O	0.010866	0.227983	-0.132936
	H442	H	0.014284	0.244678	-0.139809
	H443	H	0.024841	0.216712	-0.118011
	O444	O	0.521393	0.672794	0.618558
	H445	H	0.513199	0.666931	0.617226
	H446	H	0.520587	0.677456	0.626991
	O447	O	-0.220268	0.774388	1.051699
	H448	H	-0.233288	0.762788	1.077744
	H449	H	-0.235680	0.761022	1.078476
	O450	O	-0.280669	0.717657	1.547714
	H451	H	-0.271034	0.727583	1.549273
	H452	H	-0.279520	0.730887	1.549245
	O453	O	0.713529	0.506876	0.515171
	H454	H	0.702818	0.503442	0.511845
	H455	H	0.703751	0.509721	0.523333
	O456	O	-0.182345	-0.026135	1.023799
	H457	H	-0.180353	-0.042238	1.027308
	H458	H	-0.185903	-0.028093	1.017880
	O459	O	1.200783	0.839134	0.104183
	H460	H	1.202193	0.836178	0.074238
	H461	H	1.201529	0.845227	0.094581
	O462	O	0.697234	0.517183	0.675259
	H463	H	0.716016	0.526306	0.689847
	H464	H	0.685090	0.534937	0.672626
	O465	O	1.089652	-0.192006	0.143676
	H466	H	1.079351	-0.188353	0.145764
	H467	H	1.079875	-0.179060	0.136823
	O468	O	0.606355	0.486653	0.656905
	H469	H	0.627227	0.482126	0.670524
	H470	H	0.607911	0.464985	0.664192
	O471	O	0.276741	0.734159	0.289308
	H472	H	0.256532	0.753801	0.261021
	H473	H	0.264517	0.711792	0.283648
	O474	O	0.312985	0.693508	0.705599
	H475	H	0.334234	0.676863	0.685760
	H476	H	0.331601	0.671852	0.690402
	O477	O	0.655964	0.540605	1.375407
	H478	H	0.659284	0.541429	1.373762
	H479	H	0.658175	0.545279	1.361641
	O480	O	0.497743	0.280801	0.703442
	H481	H	0.503405	0.256600	0.721139
	H482	H	0.493180	0.283621	0.676945
	O483	O	0.990414	0.886757	0.861861
	H484	H	0.990483	0.892167	0.871277
	H485	H	0.987968	0.892679	0.861109
	O486	O	0.708641	0.297233	1.310282
	H487	H	0.695888	0.287337	1.299879
	H488	H	0.720950	0.308118	1.307599
	O489	O	0.969431	0.797964	0.232578
	H490	H	0.965485	0.817965	0.231257
	H491	H	0.980458	0.784748	0.252950
