data_Molecule from HDF5

_cell_length_a		16.655734
_cell_length_b		16.552633
_cell_length_c		16.697878
_cell_angle_alpha	89.833830
_cell_angle_beta	89.845625
_cell_angle_gamma	90.009251
_symmetry_space_group_name_H-M	'P 1'
_symmetry_Int_Tables_number		1

loop_
	_symmetry_equiv_pos_as_xyz
	x,y,z

loop_
	_atom_site_label
	_atom_site_type_symbol
	_atom_site_fract_x
	_atom_site_fract_y
	_atom_site_fract_z
	H0	H	0.396920	0.846081	0.715608
	H1	H	0.606905	0.157694	0.714403
	H2	H	0.608660	0.845974	0.272402
	H3	H	0.393483	0.155364	0.268535
	H4	H	0.732408	0.389071	0.845902
	H5	H	0.729864	0.613473	0.145570
	H6	H	0.279060	0.610813	0.842151
	H7	H	0.277933	0.394093	0.147366
	H8	H	0.847716	0.724833	0.387382
	H9	H	0.156636	0.724010	0.599896
	H10	H	0.848548	0.278243	0.601262
	H11	H	0.158796	0.281777	0.389982
	H12	H	0.852235	0.388423	0.722132
	H13	H	0.154361	0.611750	0.718751
	H14	H	0.849719	0.610739	0.269360
	H15	H	0.158662	0.397863	0.273552
	H16	H	0.397143	0.725155	0.840209
	H17	H	0.610248	0.725213	0.148375
	H18	H	0.612588	0.276339	0.843343
	H19	H	0.394245	0.277962	0.148174
	H20	H	0.725437	0.848000	0.385826
	H21	H	0.722186	0.158315	0.597258
	H22	H	0.280781	0.845902	0.600729
	H23	H	0.278634	0.155989	0.385466
	H24	H	0.894643	0.346548	0.216428
	H25	H	0.108273	0.656680	0.215828
	H26	H	0.112499	0.347975	0.770308
	H27	H	0.894188	0.654953	0.768417
	H28	H	0.222472	0.897933	0.338563
	H29	H	0.220968	0.105390	0.649462
	H30	H	0.783451	0.105651	0.337554
	H31	H	0.778875	0.895310	0.648336
	H32	H	0.347112	0.223031	0.891413
	H33	H	0.654572	0.228671	0.104338
	H34	H	0.346731	0.781553	0.099222
	H35	H	0.659212	0.785067	0.893736
	H36	H	0.348103	0.895329	0.217396
	H37	H	0.655629	0.110584	0.218182
	H38	H	0.348002	0.108653	0.772628
	H39	H	0.657549	0.898432	0.773420
	H40	H	0.899148	0.222078	0.337596
	H41	H	0.105188	0.221289	0.649333
	H42	H	0.105305	0.782804	0.337781
	H43	H	0.895433	0.778663	0.648466
	H44	H	0.225433	0.347189	0.888552
	H45	H	0.223316	0.657569	0.099094
	H46	H	0.780506	0.346692	0.100017
	H47	H	0.781342	0.657321	0.887167
	H48	H	0.405496	0.115414	0.580739
	H49	H	0.592809	0.889830	0.580584
	H50	H	0.589155	0.112278	0.408350
	H51	H	0.406537	0.888353	0.407148
	H52	H	0.589986	0.423250	0.101760
	H53	H	0.590726	0.589021	0.884406
	H54	H	0.407932	0.590873	0.107800
	H55	H	0.416101	0.422383	0.887553
	H56	H	0.110208	0.591375	0.410977
	H57	H	0.893417	0.589422	0.576555
	H58	H	0.111883	0.415551	0.579921
	H59	H	0.890322	0.413970	0.398503
	H60	H	0.113194	0.415183	0.582660
	H61	H	0.894330	0.581768	0.580792
	H62	H	0.113007	0.584010	0.400353
	H63	H	0.889449	0.407406	0.405290
	H64	H	0.415281	0.584872	0.103618
	H65	H	0.591248	0.592973	0.883744
	H66	H	0.582635	0.415615	0.102758
	H67	H	0.419970	0.408917	0.884360
	H68	H	0.592423	0.113381	0.404999
	H69	H	0.591137	0.889016	0.586594
	H70	H	0.412664	0.115811	0.589951
	H71	H	0.417431	0.889062	0.400402
	H72	H	0.910150	0.614180	0.078436
	H73	H	0.088595	0.390331	0.083606
	H74	H	0.089308	0.611965	0.906743
	H75	H	0.909819	0.389198	0.908827
	H76	H	0.088748	0.913862	0.603380
	H77	H	0.093829	0.089960	0.382558
	H78	H	0.912067	0.090318	0.605129
	H79	H	0.909481	0.916572	0.382898
	H80	H	0.614622	0.087676	0.900382
	H81	H	0.393770	0.080165	0.086375
	H82	H	0.617189	0.908803	0.087403
	H83	H	0.389945	0.913653	0.902616
	H84	H	0.612037	0.912099	0.077187
	H85	H	0.388139	0.095689	0.084689
	H86	H	0.614604	0.095093	0.906370
	H87	H	0.389728	0.911283	0.904174
	H88	H	0.911292	0.091196	0.604884
	H89	H	0.090059	0.088866	0.383487
	H90	H	0.091196	0.908080	0.606717
	H91	H	0.917232	0.915458	0.385999
	H92	H	0.091159	0.613477	0.905968
	H93	H	0.092048	0.390122	0.081883
	H94	H	0.917151	0.615364	0.088008
	H95	H	0.922139	0.390895	0.902590
	H96	H	0.416692	0.112131	0.579821
	H97	H	0.587116	0.891379	0.582756
	H98	H	0.587545	0.113880	0.404017
	H99	H	0.417061	0.893375	0.412004
	H100	H	0.592371	0.414294	0.105895
	H101	H	0.593751	0.590887	0.883591
	H102	H	0.417328	0.594625	0.105438
	H103	H	0.406961	0.413370	0.881247
	H104	H	0.116321	0.596157	0.400651
	H105	H	0.890179	0.589066	0.584486
	H106	H	0.113276	0.412743	0.580812
	H107	H	0.892626	0.415673	0.407256
	H108	H	0.921328	0.610109	0.077834
	H109	H	0.091666	0.388744	0.085327
	H110	H	0.088681	0.613620	0.904033
	H111	H	0.920591	0.394764	0.915704
	H112	H	0.095119	0.914003	0.605547
	H113	H	0.090677	0.092421	0.381315
	H114	H	0.911021	0.090210	0.605409
	H115	H	0.913582	0.909153	0.382466
	H116	H	0.610877	0.086756	0.908960
	H117	H	0.395345	0.088529	0.072164
	H118	H	0.612812	0.920234	0.085800
	H119	H	0.390682	0.913852	0.905184
	C120	C	0.380381	0.010736	0.615630
	C121	C	0.622298	0.993578	0.614388
	C122	C	0.622700	0.010323	0.373043
	C123	C	0.380784	0.992674	0.372935
	C124	C	0.623294	0.382319	0.003284
	C125	C	0.625051	0.624427	0.985313
	C126	C	0.381083	0.623706	0.003607
	C127	C	0.380446	0.380863	0.985832
	C128	C	0.010937	0.623199	0.372176
	C129	C	0.994226	0.621336	0.614252
	C130	C	0.011699	0.380176	0.615174
	C131	C	0.994104	0.380393	0.371941
	C132	C	0.881899	0.510982	0.115524
	C133	C	0.123367	0.493068	0.115337
	C134	C	0.123613	0.510451	0.873027
	C135	C	0.883016	0.493499	0.874220
	C136	C	0.123286	0.880202	0.502438
	C137	C	0.123198	0.122478	0.485193
	C138	C	0.880987	0.122640	0.501742
	C139	C	0.880587	0.880506	0.485776
	C140	C	0.510841	0.123202	0.873206
	C141	C	0.493489	0.122990	0.115460
	C142	C	0.511087	0.880825	0.115740
	C143	C	0.493447	0.881327	0.873103
	C144	C	0.378317	0.893218	0.675867
	C145	C	0.625179	0.111049	0.674244
	C146	C	0.626178	0.893268	0.312429
	C147	C	0.376450	0.109033	0.310350
	C148	C	0.688946	0.374397	0.890155
	C149	C	0.687971	0.629745	0.100059
	C150	C	0.320576	0.627603	0.887461
	C151	C	0.318870	0.376869	0.101470
	C152	C	0.894505	0.684424	0.369151
	C153	C	0.109682	0.683606	0.617804
	C154	C	0.895445	0.318462	0.619247
	C155	C	0.111702	0.321423	0.371301
	C156	C	0.897130	0.373656	0.679133
	C157	C	0.109026	0.627404	0.676826
	C158	C	0.895350	0.627830	0.310461
	C159	C	0.111725	0.379165	0.313337
	C160	C	0.378821	0.684638	0.886963
	C161	C	0.628420	0.685652	0.101255
	C162	C	0.629676	0.318133	0.889287
	C163	C	0.376776	0.319146	0.101885
	C164	C	0.684363	0.894012	0.368803
	C165	C	0.682453	0.111259	0.616194
	C166	C	0.320557	0.893168	0.618628
	C167	C	0.319150	0.109321	0.368264
	C168	C	0.877356	0.393819	0.176796
	C169	C	0.126249	0.610359	0.175318
	C170	C	0.129216	0.394224	0.811528
	C171	C	0.877712	0.608987	0.810375
	C172	C	0.182249	0.879487	0.385245
	C173	C	0.181613	0.123876	0.602522
	C174	C	0.822763	0.124225	0.384552
	C175	C	0.819475	0.876988	0.601962
	C176	C	0.393956	0.183234	0.872079
	C177	C	0.608759	0.186525	0.120908
	C178	C	0.393822	0.820781	0.117944
	C179	C	0.611856	0.823480	0.873203
	C180	C	0.394210	0.877755	0.176360
	C181	C	0.609212	0.127865	0.177674
	C182	C	0.394375	0.126529	0.813163
	C183	C	0.611203	0.879769	0.813846
	C184	C	0.880456	0.182045	0.384612
	C185	C	0.123986	0.181611	0.602470
	C186	C	0.124187	0.821962	0.384893
	C187	C	0.877467	0.819187	0.602071
	C188	C	0.185405	0.394173	0.870214
	C189	C	0.183266	0.610700	0.117233
	C190	C	0.820590	0.393644	0.118831
	C191	C	0.821332	0.609973	0.869254
	C192	C	0.404921	0.093060	0.590619
	C193	C	0.597407	0.911441	0.590109
	C194	C	0.596963	0.091938	0.398652
	C195	C	0.406664	0.911449	0.399128
	C196	C	0.595961	0.410046	0.082930
	C197	C	0.599156	0.598268	0.904900
	C198	C	0.406379	0.597505	0.084347
	C199	C	0.406824	0.407297	0.905353
	C200	C	0.091939	0.597854	0.397021
	C201	C	0.913795	0.594520	0.587990
	C202	C	0.091819	0.406869	0.588586
	C203	C	0.912226	0.405330	0.396497
	C204	C	0.908529	0.592013	0.089063
	C205	C	0.098016	0.411208	0.090560
	C206	C	0.096987	0.591888	0.898388
	C207	C	0.909849	0.412710	0.901360
	C208	C	0.098643	0.904690	0.583986
	C209	C	0.098673	0.097500	0.403587
	C210	C	0.904709	0.097604	0.583823
	C211	C	0.906038	0.906323	0.404991
	C212	C	0.592278	0.097180	0.898088
	C213	C	0.413370	0.095881	0.088813
	C214	C	0.592707	0.906532	0.090589
	C215	C	0.411664	0.905858	0.896979
	Zn216	Zn	0.501834	0.002341	0.744060
	Zn217	Zn	0.502401	0.001584	0.244482
	Zn218	Zn	0.753831	0.502329	-0.005029
	Zn219	Zn	0.251911	0.502711	-0.005678
	Zn220	Zn	0.001758	0.751050	0.493689
	Zn221	Zn	0.002297	0.251661	0.493539
	Zn222	Zn	0.003507	0.500905	0.744295
	Zn223	Zn	0.002410	0.501999	0.243079
	Zn224	Zn	0.502611	0.752424	-0.005326
	Zn225	Zn	0.502636	0.252540	-0.005496
	Zn226	Zn	0.751249	0.002008	0.493434
	Zn227	Zn	0.252451	0.001991	0.494261
	N228	N	0.414785	0.967497	0.674306
	N229	N	0.588675	0.036868	0.673511
	N230	N	0.588460	0.966785	0.314684
	N231	N	0.413958	0.035378	0.312813
	N232	N	0.684963	0.413841	0.962044
	N233	N	0.685966	0.592063	0.027069
	N234	N	0.321646	0.590492	0.961078
	N235	N	0.321017	0.414570	0.028269
	N236	N	0.967462	0.681873	0.406764
	N237	N	0.037109	0.680256	0.579564
	N238	N	0.967658	0.322138	0.579977
	N239	N	0.037333	0.321978	0.406848
	N240	N	0.970144	0.411706	0.676615
	N241	N	0.036003	0.589362	0.674849
	N242	N	0.968582	0.590353	0.312029
	N243	N	0.037301	0.414965	0.313264
	N244	N	0.415922	0.682450	0.960165
	N245	N	0.590018	0.682805	0.028741
	N246	N	0.589119	0.323087	0.960575
	N247	N	0.414306	0.321310	0.028820
	N248	N	0.682275	0.967737	0.406101
	N249	N	0.680919	0.037110	0.579583
	N250	N	0.321660	0.967384	0.581707
	N251	N	0.321735	0.035973	0.406704
	N252	N	0.914662	0.467924	0.175092
	N253	N	0.089678	0.536216	0.174262
	N254	N	0.091687	0.467818	0.812956
	N255	N	0.915134	0.535196	0.813107
	N256	N	0.182390	0.914556	0.459535
	N257	N	0.181414	0.088183	0.528477
	N258	N	0.822662	0.088201	0.458831
	N259	N	0.820913	0.914259	0.528612
	N260	N	0.467589	0.181343	0.908667
	N261	N	0.535878	0.183772	0.082841
	N262	N	0.467617	0.822517	0.080916
	N263	N	0.537612	0.824005	0.909028
	N264	N	0.468234	0.914140	0.175160
	N265	N	0.536616	0.088923	0.174531
	N266	N	0.468273	0.089908	0.813656
	N267	N	0.536347	0.914462	0.813131
	N268	N	0.915742	0.181458	0.458661
	N269	N	0.088358	0.181196	0.528248
	N270	N	0.088313	0.821926	0.458935
	N271	N	0.914799	0.821154	0.528793
	N272	N	0.182355	0.467811	0.907674
	N273	N	0.181713	0.536647	0.080713
	N274	N	0.823013	0.467546	0.081671
	N275	N	0.824208	0.536874	0.908209
	O276	O	-0.033771	1.164329	-0.137707
	H277	H	-0.055463	1.166552	-0.142686
	H278	H	-0.039909	1.179809	-0.143601
	O279	O	0.686555	0.520336	0.499890
	H280	H	0.680607	0.534908	0.508956
	H281	H	0.677401	0.526731	0.502137
	O282	O	0.740727	0.262539	1.257062
	H283	H	0.726818	0.273214	1.293627
	H284	H	0.726204	0.257472	1.256931
	O285	O	0.577899	0.461222	0.691495
	H286	H	0.574296	0.467906	0.694732
	H287	H	0.589239	0.466448	0.690997
	O288	O	0.264189	0.487386	0.469181
	H289	H	0.270088	0.482646	0.479972
	H290	H	0.270825	0.485647	0.487288
	O291	O	0.309837	0.693823	0.691030
	H292	H	0.330633	0.690179	0.656657
	H293	H	0.322090	0.656983	0.690533
	O294	O	0.978197	-0.216464	1.214096
	H295	H	0.974192	-0.227886	1.231356
	H296	H	0.947313	-0.217664	1.217408
	O297	O	0.296249	0.707605	0.285982
	H298	H	0.268948	0.733180	0.275442
	H299	H	0.310429	0.690786	0.295363
	O300	O	0.463739	0.299129	0.710733
	H301	H	0.465240	0.291837	0.718832
	H302	H	0.447501	0.286179	0.711159
	O303	O	0.469445	0.720419	0.272477
	H304	H	0.455141	0.729660	0.261250
	H305	H	0.461685	0.725666	0.263564
	O306	O	0.560723	0.722748	0.424842
	H307	H	0.563131	0.725799	0.431575
	H308	H	0.545705	0.729009	0.416459
	O309	O	0.408493	0.432888	0.430264
	H310	H	0.400926	0.422981	0.425305
	H311	H	0.400912	0.441443	0.443873
	O312	O	0.441144	0.443025	0.253935
	H313	H	0.433679	0.459156	0.249083
	H314	H	0.434259	0.462075	0.250262
	O315	O	0.850867	1.193325	0.820370
	H316	H	0.844343	1.182523	0.842385
	H317	H	0.842288	1.210619	0.822605
	O318	O	0.283049	0.279632	0.528149
	H319	H	0.268631	0.259626	0.532045
	H320	H	0.287249	0.284048	0.519374
	O321	O	0.207411	0.791301	0.786625
	H322	H	0.241832	0.759903	0.755670
	H323	H	0.217273	0.816167	0.808044
	O324	O	1.290444	1.287036	-0.294071
	H325	H	1.300541	1.285191	-0.324028
	H326	H	1.258920	1.254307	-0.263471
	O327	O	-0.123421	0.008836	1.068110
	H328	H	-0.128242	0.007554	1.094209
	H329	H	-0.137113	0.004673	1.077908
	O330	O	1.035498	0.226791	1.218894
	H331	H	1.064969	0.231869	1.226390
	H332	H	1.060003	0.244546	1.238251
	O333	O	0.736248	0.450930	0.558671
	H334	H	0.736201	0.456281	0.562250
	H335	H	0.731394	0.458637	0.552828
	O336	O	0.608791	0.321838	0.598864
	H337	H	0.600687	0.343307	0.602341
	H338	H	0.616587	0.312527	0.585288
	O339	O	1.187586	-0.006996	1.086947
	H340	H	1.202678	-0.002264	1.096421
	H341	H	1.184165	0.011935	1.096609
	O342	O	0.217005	-0.209975	-0.033963
	H343	H	0.232583	-0.211686	-0.030314
	H344	H	0.224445	-0.206313	-0.052547
	O345	O	-0.028603	1.112341	0.968500
	H346	H	-0.022863	1.098003	0.977558
	H347	H	-0.029274	1.117560	0.973562
	O348	O	0.176443	0.029182	-0.082602
	H349	H	0.170343	0.015417	-0.073512
	H350	H	0.170610	0.019083	-0.106831
	O351	O	0.723641	0.284730	0.715424
	H352	H	0.722443	0.290689	0.712871
	H353	H	0.707491	0.312207	0.724168
	O354	O	0.013545	-0.204269	0.796993
	H355	H	0.032254	-0.203176	0.792502
	H356	H	0.031432	-0.218534	0.783121
	O357	O	0.725623	0.724569	0.517615
	H358	H	0.749938	0.747883	0.533515
	H359	H	0.716009	0.724863	0.542112
	O360	O	0.554527	0.556637	0.256705
	H361	H	0.560406	0.563941	0.260391
	H362	H	0.570926	0.560799	0.258801
	O363	O	-0.039455	-0.203548	-0.063181
	H364	H	-0.018876	-0.205731	-0.051743
	H365	H	-0.029817	-0.201214	-0.084615
	O366	O	0.535557	0.361570	0.535673
	H367	H	0.534309	0.367904	0.552423
	H368	H	0.546525	0.365854	0.526391
	O369	O	1.052575	0.058632	0.157776
	H370	H	1.056248	0.071681	0.157845
	H371	H	1.065201	0.064744	0.158107
	O372	O	0.684836	0.684684	0.298641
	H373	H	0.670319	0.687767	0.319286
	H374	H	0.685882	0.677776	0.309161
	O375	O	1.021132	-0.085651	-0.177356
	H376	H	1.021152	-0.104023	-0.173843
	H377	H	1.011248	-0.086177	-0.178540
	O378	O	0.594256	0.450031	0.444296
	H379	H	0.591510	0.452790	0.450555
	H380	H	0.577001	0.445351	0.446786
	O381	O	-0.211485	0.971561	1.205776
	H382	H	-0.209809	0.955929	1.206297
	H383	H	-0.209986	0.973936	1.226527
	O384	O	0.811837	-0.182570	0.805444
	H385	H	0.827845	-0.169576	0.833118
	H386	H	0.834330	-0.159397	0.813367
	O387	O	1.211421	1.082218	0.203196
	H388	H	1.205295	1.103456	0.207824
	H389	H	1.231270	1.094376	0.202693
	O390	O	0.729343	0.555895	0.406217
	H391	H	0.735175	0.570412	0.414978
	H392	H	0.725444	0.564214	0.390549
	O393	O	0.392175	0.566162	0.455097
	H394	H	0.412813	0.570067	0.457484
	H395	H	0.387823	0.575545	0.448038
	O396	O	0.190667	1.187480	0.806071
	H397	H	0.175626	1.162158	0.819714
	H398	H	0.162296	1.177825	0.819531
	O399	O	0.222710	-0.027536	0.777245
	H400	H	0.226742	-0.029112	0.760524
	H401	H	0.213955	-0.036561	0.767485
	O402	O	0.458596	0.271848	0.388450
	H403	H	0.482190	0.263435	0.369698
	H404	H	0.462556	0.272080	0.411380
	O405	O	0.960762	-0.051862	1.004234
	H406	H	0.965558	-0.054366	1.016552
	H407	H	0.958981	-0.058740	0.995348
	O408	O	-0.167442	0.019902	-0.231107
	H409	H	-0.192781	0.024993	-0.245278
	H410	H	-0.157283	0.034987	-0.225455
	O411	O	0.711767	0.716519	0.709121
	H412	H	0.685984	0.704168	0.708982
	H413	H	0.742781	0.749438	0.741540
	O414	O	0.331040	0.584785	0.564324
	H415	H	0.342291	0.595556	0.563547
	H416	H	0.328893	0.576003	0.569486
	O417	O	0.714313	0.282988	0.468951
	H418	H	0.735809	0.264581	0.463641
	H419	H	0.720875	0.300563	0.468651
	O420	O	0.314442	0.315180	0.306029
	H421	H	0.333489	0.338141	0.313560
	H422	H	0.328323	0.327580	0.333401
	O423	O	-0.166358	0.147586	0.955206
	H424	H	-0.164343	0.148634	0.970220
	H425	H	-0.162439	0.134415	0.977925
	O426	O	0.500263	0.538548	0.590559
	H427	H	0.481600	0.524352	0.598933
	H428	H	0.510303	0.539497	0.576630
	O429	O	1.171203	0.823682	1.170001
	H430	H	1.159662	0.839521	1.162088
	H431	H	1.155321	0.835610	1.157411
	O432	O	0.396650	0.499816	0.724340
	H433	H	0.387717	0.496463	0.725329
	H434	H	0.394191	0.490844	0.733270
	O435	O	-0.029606	0.995895	0.165845
	H436	H	-0.023119	1.019072	0.170013
	H437	H	-0.039069	1.006528	0.170305
	O438	O	0.005281	-0.063735	-0.145811
	H439	H	0.012101	-0.060423	-0.141984
	H440	H	-0.004137	-0.050369	-0.141889
	O441	O	0.218810	0.133095	0.040021
	H442	H	0.212518	0.133114	0.030688
	H443	H	0.226066	0.141685	0.030149
	O444	O	0.704131	0.483882	0.277514
	H445	H	0.705182	0.462843	0.277477
	H446	H	0.718267	0.482836	0.255679
	O447	O	0.113788	1.189705	0.939400
	H448	H	0.109489	1.173240	0.931837
	H449	H	0.096533	1.185825	0.942748
	O450	O	-0.203810	0.787673	1.035351
	H451	H	-0.214554	0.782863	1.026255
	H452	H	-0.194874	0.780697	1.021536
	O453	O	0.731069	0.517079	0.724682
	H454	H	0.730853	0.536365	0.705963
	H455	H	0.762288	0.526434	0.745735
	O456	O	-0.070651	0.089833	1.165212
	H457	H	-0.058644	0.085086	1.155054
	H458	H	-0.081798	0.094649	1.170572
	O459	O	0.454032	0.508787	0.452619
	H460	H	0.459594	0.516937	0.449053
	H461	H	0.462176	0.506026	0.462377
	O462	O	0.432090	0.406994	0.597342
	H463	H	0.441056	0.406602	0.605257
	H464	H	0.420339	0.396633	0.603023
	O465	O	0.796451	-0.203879	0.205462
	H466	H	0.783125	-0.219921	0.217509
	H467	H	0.795698	-0.193815	0.169431
	O468	O	0.286711	0.533881	0.273391
	H469	H	0.281384	0.544382	0.288765
	H470	H	0.265837	0.543345	0.259615
	O471	O	0.544031	0.726035	0.711977
	H472	H	0.554344	0.731813	0.716442
	H473	H	0.536531	0.734998	0.727040
	O474	O	0.274426	0.727854	0.459720
	H475	H	0.249744	0.732534	0.467136
	H476	H	0.268583	0.735786	0.442431
	O477	O	0.546347	0.291474	1.318311
	H478	H	0.546922	0.280969	1.302179
	H479	H	0.532859	0.311082	1.318931
	O480	O	0.209889	0.212357	0.145369
	H481	H	0.215660	0.207484	0.102666
	H482	H	0.240513	0.235923	0.156447
	O483	O	0.344461	0.519119	0.723262
	H484	H	0.340855	0.499278	0.741746
	H485	H	0.348983	0.499481	0.720086
	O486	O	1.049254	0.110819	0.773942
	H487	H	1.024901	0.089218	0.764638
	H488	H	1.025439	0.140759	0.775944
	O489	O	1.074028	0.783637	0.046204
	H490	H	1.100975	0.783947	0.030257
	H491	H	1.068744	0.782924	0.070387
	O492	O	-0.205491	0.080902	0.011272
	H493	H	-0.186961	0.082165	0.028175
	H494	H	-0.216304	0.058358	0.022388
	O495	O	-0.043611	1.221956	1.070936
	H496	H	-0.042630	1.230633	1.100760
	H497	H	-0.047117	1.223435	1.079976
	O498	O	0.779277	0.959661	0.906027
	H499	H	0.772411	0.963722	0.905209
	H500	H	0.788600	0.966474	0.901112
	O501	O	0.481713	0.720989	0.560421
	H502	H	0.488195	0.714388	0.552741
	H503	H	0.486629	0.723706	0.567345
