data_Molecule from HDF5

_cell_length_a		16.188821
_cell_length_b		16.105919
_cell_length_c		16.301824
_cell_angle_alpha	90.375574
_cell_angle_beta	89.602152
_cell_angle_gamma	90.245041
_symmetry_space_group_name_H-M	'P 1'
_symmetry_Int_Tables_number		1

loop_
	_symmetry_equiv_pos_as_xyz
	x,y,z

loop_
	_atom_site_label
	_atom_site_type_symbol
	_atom_site_fract_x
	_atom_site_fract_y
	_atom_site_fract_z
	H0	H	0.412989	0.830751	0.719751
	H1	H	0.617026	0.159427	0.716557
	H2	H	0.615734	0.829548	0.287510
	H3	H	0.418126	0.159690	0.290502
	H4	H	0.732851	0.396939	0.839280
	H5	H	0.732142	0.596067	0.167123
	H6	H	0.305827	0.594254	0.838988
	H7	H	0.300352	0.395544	0.165294
	H8	H	0.849416	0.701716	0.409515
	H9	H	0.179811	0.712653	0.601194
	H10	H	0.851591	0.283588	0.600416
	H11	H	0.180965	0.279809	0.402147
	H12	H	0.854746	0.394036	0.720261
	H13	H	0.181730	0.597537	0.715995
	H14	H	0.853550	0.593814	0.287798
	H15	H	0.180318	0.391240	0.283796
	H16	H	0.423603	0.707952	0.839380
	H17	H	0.616534	0.710941	0.166814
	H18	H	0.620413	0.279398	0.840000
	H19	H	0.420158	0.283370	0.167772
	H20	H	0.726095	0.827364	0.404652
	H21	H	0.731578	0.157795	0.602346
	H22	H	0.300261	0.828969	0.600642
	H23	H	0.301746	0.159271	0.403750
	H24	H	0.916821	0.329597	0.215876
	H25	H	0.120347	0.658327	0.220103
	H26	H	0.119738	0.330632	0.785229
	H27	H	0.921140	0.660227	0.791150
	H28	H	0.231906	0.892830	0.339646
	H29	H	0.231039	0.097654	0.664944
	H30	H	0.803275	0.089775	0.338516
	H31	H	0.799937	0.895373	0.665717
	H32	H	0.354155	0.207799	0.908517
	H33	H	0.684094	0.208782	0.100730
	H34	H	0.353472	0.781101	0.102058
	H35	H	0.683608	0.784932	0.905718
	H36	H	0.353930	0.894286	0.218160
	H37	H	0.682439	0.096063	0.218972
	H38	H	0.354191	0.097530	0.789196
	H39	H	0.681146	0.894244	0.784806
	H40	H	0.917502	0.208443	0.339396
	H41	H	0.114076	0.210277	0.665747
	H42	H	0.113924	0.778702	0.339133
	H43	H	0.915446	0.781710	0.666761
	H44	H	0.232107	0.329564	0.901382
	H45	H	0.231787	0.660270	0.101879
	H46	H	0.801303	0.330444	0.102015
	H47	H	0.807614	0.661201	0.908204
	H48	H	0.417113	0.115363	0.599862
	H49	H	0.605045	0.875494	0.594956
	H50	H	0.609288	0.112134	0.413884
	H51	H	0.417575	0.874013	0.409701
	H52	H	0.607664	0.398597	0.120576
	H53	H	0.617141	0.592882	0.884504
	H54	H	0.426652	0.580268	0.116717
	H55	H	0.424969	0.394865	0.884844
	H56	H	0.134614	0.585351	0.410467
	H57	H	0.899097	0.586585	0.599371
	H58	H	0.137416	0.397794	0.594660
	H59	H	0.898055	0.396675	0.413247
	H60	H	0.133934	0.404321	0.590398
	H61	H	0.898508	0.586380	0.599077
	H62	H	0.133450	0.587395	0.411999
	H63	H	0.900824	0.406258	0.410466
	H64	H	0.430355	0.593356	0.119529
	H65	H	0.615569	0.585633	0.886278
	H66	H	0.617812	0.403614	0.122347
	H67	H	0.422109	0.404664	0.886193
	H68	H	0.613885	0.113870	0.411362
	H69	H	0.608704	0.875585	0.594132
	H70	H	0.430437	0.111247	0.601596
	H71	H	0.427301	0.875849	0.405123
	H72	H	0.922999	0.617211	0.106860
	H73	H	0.104287	0.377803	0.095021
	H74	H	0.116580	0.616251	0.905843
	H75	H	0.927552	0.377573	0.911362
	H76	H	0.106027	0.904071	0.618703
	H77	H	0.112548	0.079759	0.387074
	H78	H	0.922539	0.083265	0.618142
	H79	H	0.914367	0.897268	0.382646
	H80	H	0.637676	0.085974	0.901848
	H81	H	0.400175	0.089641	0.099007
	H82	H	0.634707	0.903405	0.090911
	H83	H	0.401229	0.903108	0.914686
	H84	H	0.635425	0.910235	0.099355
	H85	H	0.401571	0.088364	0.096399
	H86	H	0.637143	0.092080	0.911391
	H87	H	0.400644	0.905403	0.910388
	H88	H	0.925333	0.090380	0.618380
	H89	H	0.104439	0.087099	0.386831
	H90	H	0.106820	0.902131	0.619247
	H91	H	0.923997	0.901040	0.387158
	H92	H	0.108554	0.612589	0.907651
	H93	H	0.110586	0.377853	0.088336
	H94	H	0.937723	0.609649	0.096389
	H95	H	0.925190	0.376505	0.910857
	H96	H	0.424449	0.110484	0.588910
	H97	H	0.607498	0.873909	0.597305
	H98	H	0.609281	0.113145	0.408155
	H99	H	0.425832	0.878551	0.415744
	H100	H	0.607834	0.408462	0.118125
	H101	H	0.611909	0.590527	0.886486
	H102	H	0.417223	0.589110	0.122159
	H103	H	0.432839	0.401512	0.888244
	H104	H	0.132947	0.584996	0.411963
	H105	H	0.898749	0.586126	0.599616
	H106	H	0.135902	0.405403	0.598033
	H107	H	0.897806	0.400355	0.404298
	H108	H	0.919781	0.612946	0.088553
	H109	H	0.113416	0.374688	0.096223
	H110	H	0.114632	0.612903	0.914390
	H111	H	0.927370	0.377371	0.909894
	H112	H	0.107758	0.904188	0.619042
	H113	H	0.114066	0.090439	0.383052
	H114	H	0.918007	0.088579	0.620274
	H115	H	0.922433	0.889678	0.383590
	H116	H	0.633388	0.081044	0.911023
	H117	H	0.400657	0.086452	0.099602
	H118	H	0.638289	0.900103	0.100285
	H119	H	0.399369	0.899299	0.910715
	C120	C	0.394119	0.003395	0.625303
	C121	C	0.636613	0.984802	0.623552
	C122	C	0.638071	0.003318	0.382054
	C123	C	0.395352	0.985460	0.381905
	C124	C	0.640764	0.373689	0.012101
	C125	C	0.641913	0.618320	0.994397
	C126	C	0.397098	0.616172	0.011427
	C127	C	0.396881	0.372581	0.994412
	C128	C	0.024950	0.614284	0.382968
	C129	C	1.007602	0.617031	0.626293
	C130	C	0.026551	0.373456	0.623842
	C131	C	1.007597	0.372043	0.379891
	C132	C	0.896256	0.503931	0.125157
	C133	C	0.139386	0.485672	0.123315
	C134	C	0.141509	0.504175	0.880193
	C135	C	0.898467	0.486374	0.882934
	C136	C	0.136571	0.872929	0.511014
	C137	C	0.138570	0.116426	0.493432
	C138	C	0.894186	0.114895	0.510957
	C139	C	0.891991	0.870118	0.493448
	C140	C	0.527562	0.116328	0.881393
	C141	C	0.509911	0.117113	0.126382
	C142	C	0.526975	0.874219	0.125364
	C143	C	0.509132	0.873896	0.882195
	C144	C	0.393810	0.879583	0.681173
	C145	C	0.636140	0.109700	0.678839
	C146	C	0.635419	0.878551	0.325974
	C147	C	0.397392	0.110135	0.327413
	C148	C	0.696038	0.375758	0.888587
	C149	C	0.695438	0.616381	0.117902
	C150	C	0.343463	0.614146	0.888054
	C151	C	0.339227	0.375361	0.116811
	C152	C	0.899950	0.666637	0.387202
	C153	C	0.131113	0.674164	0.622032
	C154	C	0.901742	0.319436	0.621543
	C155	C	0.131779	0.316884	0.381662
	C156	C	0.903171	0.374869	0.680859
	C157	C	0.132134	0.616772	0.679103
	C158	C	0.901967	0.612785	0.326748
	C159	C	0.131450	0.372382	0.322884
	C160	C	0.401750	0.671049	0.888243
	C161	C	0.637699	0.673273	0.117894
	C162	C	0.639813	0.317510	0.888833
	C163	C	0.399236	0.319797	0.118270
	C164	C	0.690463	0.877529	0.383949
	C165	C	0.692904	0.108951	0.621665
	C166	C	0.337761	0.878953	0.621997
	C167	C	0.339928	0.110037	0.384152
	C168	C	0.897070	0.379285	0.179132
	C169	C	0.139191	0.609387	0.181070
	C170	C	0.139325	0.379914	0.823628
	C171	C	0.901057	0.610870	0.828734
	C172	C	0.193076	0.873403	0.388330
	C173	C	0.193511	0.116850	0.616201
	C174	C	0.840574	0.110957	0.387668
	C175	C	0.836991	0.874279	0.616793
	C176	C	0.403288	0.171024	0.886598
	C177	C	0.634356	0.171863	0.122321
	C178	C	0.403052	0.818290	0.122563
	C179	C	0.633763	0.820917	0.884739
	C180	C	0.403062	0.874669	0.180551
	C181	C	0.633648	0.115680	0.181036
	C182	C	0.403429	0.116407	0.827065
	C183	C	0.632365	0.874978	0.824264
	C184	C	0.897304	0.169924	0.387972
	C185	C	0.135384	0.173091	0.616530
	C186	C	0.134320	0.816678	0.387915
	C187	C	0.894712	0.817893	0.617400
	C188	C	0.194929	0.379233	0.881719
	C189	C	0.194915	0.610246	0.122328
	C190	C	0.839818	0.379670	0.122037
	C191	C	0.844787	0.611511	0.887111
	C192	C	0.417286	0.089938	0.603311
	C193	C	0.613624	0.897647	0.602064
	C194	C	0.617119	0.090187	0.404458
	C195	C	0.417110	0.898665	0.403657
	C196	C	0.617824	0.396891	0.098010
	C197	C	0.621069	0.595999	0.908035
	C198	C	0.418351	0.594035	0.097192
	C199	C	0.419850	0.393897	0.908605
	C200	C	0.111151	0.592342	0.404997
	C201	C	0.921211	0.593256	0.605609
	C202	C	0.113253	0.395829	0.601083
	C203	C	0.921228	0.394473	0.402584
	C204	C	0.919828	0.590931	0.103585
	C205	C	0.116258	0.398997	0.100134
	C206	C	0.119806	0.591349	0.902630
	C207	C	0.920190	0.399582	0.904290
	C208	C	0.113574	0.896655	0.596973
	C209	C	0.116819	0.092682	0.407816
	C210	C	0.915755	0.093843	0.596773
	C211	C	0.913914	0.890213	0.406836
	C212	C	0.613684	0.093278	0.902066
	C213	C	0.423215	0.094588	0.104751
	C214	C	0.613843	0.897673	0.103330
	C215	C	0.422735	0.896088	0.905199
	Zn216	Zn	0.516718	-0.005186	0.752871
	Zn217	Zn	0.517745	-0.004871	0.254763
	Zn218	Zn	0.769265	0.495768	0.003656
	Zn219	Zn	0.267568	0.495101	0.001927
	Zn220	Zn	0.014791	0.743605	0.503582
	Zn221	Zn	0.016589	0.244671	0.502043
	Zn222	Zn	0.019227	0.494952	0.753344
	Zn223	Zn	0.017842	0.493749	0.252387
	Zn224	Zn	0.518590	0.746164	0.003581
	Zn225	Zn	0.519337	0.244351	0.003364
	Zn226	Zn	0.764632	-0.007405	0.502395
	Zn227	Zn	0.266583	-0.005336	0.502603
	N228	N	0.427972	0.958012	0.683508
	N229	N	0.601679	0.031439	0.680094
	N230	N	0.603497	0.957555	0.324509
	N231	N	0.431046	0.031674	0.325801
	N232	N	0.696702	0.410301	0.966255
	N233	N	0.698173	0.582865	0.039967
	N234	N	0.340410	0.580960	0.965631
	N235	N	0.337662	0.407430	0.038758
	N236	N	0.977501	0.668083	0.421381
	N237	N	0.052592	0.674379	0.590089
	N238	N	0.979507	0.318759	0.586558
	N239	N	0.053985	0.316442	0.416363
	N240	N	0.981794	0.407673	0.682609
	N241	N	0.054394	0.582012	0.682036
	N242	N	0.980571	0.580643	0.324157
	N243	N	0.053351	0.405997	0.321511
	N244	N	0.434286	0.672833	0.966133
	N245	N	0.605273	0.674767	0.040126
	N246	N	0.606182	0.316034	0.966691
	N247	N	0.434311	0.317929	0.041202
	N248	N	0.692160	0.955936	0.418334
	N249	N	0.693204	0.030423	0.587925
	N250	N	0.337767	0.957030	0.587977
	N251	N	0.338575	0.031743	0.417518
	N252	N	0.931538	0.457638	0.180952
	N253	N	0.105490	0.530776	0.181888
	N254	N	0.106574	0.458819	0.822603
	N255	N	0.933969	0.532147	0.826111
	N256	N	0.194342	0.907779	0.465900
	N257	N	0.195586	0.082145	0.538767
	N258	N	0.838622	0.077368	0.465006
	N259	N	0.835337	0.906180	0.538719
	N260	N	0.481232	0.171197	0.919615
	N261	N	0.556411	0.172894	0.089055
	N262	N	0.481421	0.817897	0.088973
	N263	N	0.556274	0.819984	0.920019
	N264	N	0.481130	0.908775	0.182192
	N265	N	0.555114	0.082361	0.183743
	N266	N	0.481572	0.082835	0.823760
	N267	N	0.553715	0.907340	0.822546
	N268	N	0.929922	0.172719	0.465636
	N269	N	0.101899	0.172992	0.539118
	N270	N	0.099879	0.816295	0.465316
	N271	N	0.928215	0.815124	0.539624
	N272	N	0.196316	0.457412	0.916110
	N273	N	0.195102	0.532240	0.087149
	N274	N	0.839189	0.458328	0.089281
	N275	N	0.843221	0.533172	0.920141
	O276	O	-0.475248	0.538598	-0.637921
	H277	H	-0.479854	0.535448	-0.619703
	H278	H	-0.474664	0.545484	-0.631915
	O279	O	0.047926	1.049744	0.940947
	H280	H	0.064146	1.053664	0.933476
	H281	H	0.047700	1.048382	0.932330
	O282	O	0.515148	0.384637	0.499875
	H283	H	0.506991	0.380603	0.501582
	H284	H	0.509057	0.390946	0.493347
	O285	O	1.042751	-0.006302	1.077509
	H286	H	1.045731	0.003817	1.073023
	H287	H	1.031315	-0.011037	1.066591
	O288	O	1.096966	0.084615	0.074299
	H289	H	1.098324	0.096691	0.074107
	H290	H	1.098413	0.088327	0.095548
	O291	O	0.476953	0.494216	0.524925
	H292	H	0.475010	0.489056	0.548043
	H293	H	0.472799	0.485073	0.509978
	O294	O	1.045810	0.015824	0.955869
	H295	H	1.051540	0.000870	0.953292
	H296	H	1.047664	0.021661	0.942982
	O297	O	-0.057626	-0.067484	-0.027297
	H298	H	-0.047083	-0.061540	-0.035508
	H299	H	-0.056865	-0.081334	-0.047370
	O300	O	0.413371	0.514979	0.492329
	H301	H	0.412339	0.514941	0.489108
	H302	H	0.412700	0.521780	0.491064
	O303	O	0.472290	0.440752	0.495628
	H304	H	0.454817	0.433314	0.490891
	H305	H	0.467963	0.454480	0.471739
	O306	O	1.048784	-0.011172	-0.021605
	H307	H	1.044695	-0.018170	-0.019306
	H308	H	1.046144	-0.023669	-0.020205
	O309	O	-0.009452	0.050078	0.996235
	H310	H	-0.006806	0.052816	0.998710
	H311	H	-0.013891	0.052237	0.998943
	O312	O	1.132352	0.968012	0.962485
	H313	H	1.123027	0.950726	0.958920
	H314	H	1.142041	0.963297	0.960220
	O315	O	0.455013	0.428481	0.575828
	H316	H	0.462066	0.419276	0.581495
	H317	H	0.454511	0.409701	0.564285
	O318	O	0.030313	0.950953	-0.102908
	H319	H	0.028257	0.957395	-0.099272
	H320	H	0.043465	0.960416	-0.111372
	O321	O	-0.026706	1.007718	1.012204
	H322	H	-0.028588	1.007724	1.013375
	H323	H	-0.030414	0.997124	1.005633
	O324	O	0.452770	0.446974	0.575821
	H325	H	0.461182	0.439604	0.559618
	H326	H	0.460246	0.449373	0.566440
	O327	O	0.077698	1.011110	-0.046917
	H328	H	0.078667	1.012548	-0.038418
	H329	H	0.066812	1.018941	-0.036756
	O330	O	0.399827	0.498117	0.421167
	H331	H	0.405504	0.510691	0.428410
	H332	H	0.394341	0.511241	0.406272
	O333	O	0.557540	0.503855	0.506517
	H334	H	0.563139	0.505434	0.513855
	H335	H	0.565452	0.492928	0.502295
	O336	O	0.399415	0.456467	0.639944
	H337	H	0.396224	0.452022	0.641599
	H338	H	0.393715	0.445776	0.653905
	O339	O	1.065548	0.946051	0.075472
	H340	H	1.079923	0.943804	0.071830
	H341	H	1.073992	0.947706	0.083568
	O342	O	0.480052	0.440118	0.493096
	H343	H	0.491528	0.441680	0.480011
	H344	H	0.486424	0.442220	0.508977
	O345	O	0.481942	0.474400	0.448271
	H346	H	0.487384	0.475283	0.438460
	H347	H	0.466873	0.489310	0.444352
	O348	O	0.073247	-0.137072	-0.011823
	H349	H	0.075710	-0.131068	-0.019330
	H350	H	0.066357	-0.138013	-0.000637
	O351	O	-0.021966	1.106142	0.978454
	H352	H	-0.011902	1.111975	0.974874
	H353	H	-0.034800	1.114525	0.983795
	O354	O	0.473492	0.534160	0.473840
	H355	H	0.472015	0.527742	0.484825
	H356	H	0.481785	0.535989	0.482787
	O357	O	0.069651	1.005986	1.120299
	H358	H	0.055088	1.009562	1.122180
	H359	H	0.069311	1.013255	1.131860
