data_Molecule from HDF5

_cell_length_a		16.219005
_cell_length_b		16.291488
_cell_length_c		16.218094
_cell_angle_alpha	90.059073
_cell_angle_beta	89.671183
_cell_angle_gamma	90.014412
_symmetry_space_group_name_H-M	'P 1'
_symmetry_Int_Tables_number		1

loop_
	_symmetry_equiv_pos_as_xyz
	x,y,z

loop_
	_atom_site_label
	_atom_site_type_symbol
	_atom_site_fract_x
	_atom_site_fract_y
	_atom_site_fract_z
	H0	H	0.415326	0.835452	0.716402
	H1	H	0.612657	0.161872	0.716443
	H2	H	0.613769	0.834832	0.285605
	H3	H	0.418471	0.162941	0.288221
	H4	H	0.730617	0.398438	0.838972
	H5	H	0.726761	0.597280	0.167313
	H6	H	0.300918	0.596262	0.838478
	H7	H	0.300087	0.400790	0.166341
	H8	H	0.851405	0.713837	0.405879
	H9	H	0.179879	0.714540	0.601309
	H10	H	0.851889	0.284749	0.604176
	H11	H	0.178540	0.284658	0.402594
	H12	H	0.851387	0.401370	0.717350
	H13	H	0.180276	0.597017	0.715546
	H14	H	0.850438	0.597130	0.291088
	H15	H	0.178596	0.400190	0.287844
	H16	H	0.415575	0.711718	0.837696
	H17	H	0.613044	0.715642	0.165318
	H18	H	0.613846	0.284131	0.837956
	H19	H	0.412986	0.283474	0.165168
	H20	H	0.731336	0.835259	0.401015
	H21	H	0.728060	0.162829	0.599702
	H22	H	0.299383	0.835585	0.600138
	H23	H	0.301445	0.163005	0.403186
	H24	H	0.914071	0.335449	0.219107
	H25	H	0.113366	0.661884	0.216358
	H26	H	0.114813	0.335552	0.786929
	H27	H	0.918150	0.662489	0.789840
	H28	H	0.228884	0.901126	0.338232
	H29	H	0.227791	0.096695	0.666852
	H30	H	0.802701	0.098104	0.338117
	H31	H	0.798473	0.900456	0.666315
	H32	H	0.350242	0.212760	0.903483
	H33	H	0.677687	0.214041	0.100795
	H34	H	0.349191	0.785167	0.100945
	H35	H	0.677596	0.781997	0.900131
	H36	H	0.349758	0.900603	0.216562
	H37	H	0.678845	0.096966	0.213593
	H38	H	0.350294	0.095884	0.789291
	H39	H	0.679230	0.900188	0.787433
	H40	H	0.915789	0.215520	0.339943
	H41	H	0.112534	0.213575	0.667086
	H42	H	0.116407	0.783521	0.339591
	H43	H	0.914990	0.785854	0.667398
	H44	H	0.229383	0.335390	0.903297
	H45	H	0.227746	0.661841	0.100289
	H46	H	0.799505	0.334503	0.101943
	H47	H	0.800047	0.661477	0.904299
	H48	H	0.423493	0.118802	0.606998
	H49	H	0.607194	0.880325	0.599879
	H50	H	0.606217	0.115834	0.401265
	H51	H	0.416415	0.883041	0.416161
	H52	H	0.602374	0.414682	0.116087
	H53	H	0.606196	0.585589	0.887737
	H54	H	0.418533	0.592485	0.121080
	H55	H	0.421625	0.405829	0.884725
	H56	H	0.133015	0.596901	0.413714
	H57	H	0.901165	0.586628	0.597567
	H58	H	0.133351	0.412461	0.602057
	H59	H	0.891811	0.391383	0.407917
	H60	H	0.136296	0.396888	0.596775
	H61	H	0.895595	0.596647	0.601780
	H62	H	0.130223	0.586852	0.410483
	H63	H	0.903399	0.409958	0.427810
	H64	H	0.422342	0.590560	0.118451
	H65	H	0.604012	0.593716	0.885250
	H66	H	0.599058	0.396135	0.120593
	H67	H	0.422335	0.404711	0.884208
	H68	H	0.607115	0.113293	0.412434
	H69	H	0.600726	0.885188	0.590814
	H70	H	0.430176	0.110597	0.588594
	H71	H	0.417608	0.878982	0.400723
	H72	H	0.917618	0.614932	0.094916
	H73	H	0.104702	0.382111	0.094339
	H74	H	0.100375	0.610536	0.917045
	H75	H	0.915622	0.380316	0.911678
	H76	H	0.106207	0.904946	0.620792
	H77	H	0.114625	0.086590	0.385457
	H78	H	0.921708	0.090580	0.619510
	H79	H	0.922181	0.912490	0.387761
	H80	H	0.630307	0.091058	0.912479
	H81	H	0.398026	0.085369	0.094957
	H82	H	0.635101	0.896711	0.099250
	H83	H	0.395506	0.903623	0.905078
	H84	H	0.627911	0.903204	0.080816
	H85	H	0.394458	0.094099	0.100927
	H86	H	0.632139	0.089315	0.906385
	H87	H	0.396810	0.902566	0.911701
	H88	H	0.922135	0.094698	0.620271
	H89	H	0.099984	0.091500	0.387639
	H90	H	0.109215	0.907681	0.620644
	H91	H	0.930211	0.902944	0.386896
	H92	H	0.119419	0.617846	0.913060
	H93	H	0.108839	0.380918	0.094303
	H94	H	0.921329	0.616191	0.099718
	H95	H	0.923950	0.381068	0.903025
	H96	H	0.409942	0.117306	0.591013
	H97	H	0.612014	0.881538	0.589082
	H98	H	0.616270	0.117543	0.406718
	H99	H	0.430543	0.884600	0.408474
	H100	H	0.617216	0.403646	0.123266
	H101	H	0.612116	0.591150	0.883728
	H102	H	0.422399	0.595344	0.119519
	H103	H	0.421396	0.404862	0.884610
	H104	H	0.134515	0.593044	0.403565
	H105	H	0.899466	0.595657	0.590130
	H106	H	0.129688	0.408030	0.586062
	H107	H	0.897642	0.418684	0.400996
	H108	H	0.923593	0.613663	0.094792
	H109	H	0.107173	0.381000	0.098017
	H110	H	0.105155	0.617746	0.898172
	H111	H	0.926540	0.384108	0.913933
	H112	H	0.105152	0.908940	0.618605
	H113	H	0.110615	0.101371	0.381996
	H114	H	0.917922	0.092218	0.621750
	H115	H	0.918576	0.901152	0.383185
	H116	H	0.632489	0.095092	0.907690
	H117	H	0.397214	0.095860	0.090298
	H118	H	0.629640	0.916776	0.096543
	H119	H	0.398064	0.908840	0.909391
	C120	C	0.392515	0.007512	0.623679
	C121	C	0.635443	0.990465	0.622261
	C122	C	0.638142	0.007423	0.378101
	C123	C	0.393493	0.991055	0.380320
	C124	C	0.635497	0.376562	0.011307
	C125	C	0.635916	0.619734	0.993625
	C126	C	0.392537	0.620169	0.011014
	C127	C	0.392530	0.376974	0.993332
	C128	C	0.023954	0.620888	0.381523
	C129	C	1.007076	0.621342	0.624785
	C130	C	0.024193	0.377905	0.624259
	C131	C	1.006166	0.377967	0.382333
	C132	C	0.891965	0.506888	0.125298
	C133	C	0.135651	0.489595	0.124238
	C134	C	0.136960	0.507342	0.880469
	C135	C	0.893807	0.489803	0.881489
	C136	C	0.136042	0.878414	0.511398
	C137	C	0.135924	0.121011	0.493826
	C138	C	0.893212	0.120889	0.511773
	C139	C	0.893518	0.877428	0.494327
	C140	C	0.523103	0.119944	0.880683
	C141	C	0.505442	0.120362	0.123085
	C142	C	0.522278	0.877180	0.122080
	C143	C	0.505441	0.876319	0.879573
	C144	C	0.394453	0.884517	0.679030
	C145	C	0.633044	0.113388	0.678173
	C146	C	0.634939	0.884031	0.323072
	C147	C	0.397295	0.114040	0.325776
	C148	C	0.691645	0.379025	0.887593
	C149	C	0.689811	0.618070	0.117797
	C150	C	0.338452	0.616675	0.887256
	C151	C	0.337538	0.379885	0.117083
	C152	C	0.900298	0.675717	0.385123
	C153	C	0.130772	0.676548	0.621702
	C154	C	0.900693	0.322923	0.623579
	C155	C	0.129483	0.322482	0.383151
	C156	C	0.900576	0.380913	0.679920
	C157	C	0.131154	0.618266	0.678484
	C158	C	0.899762	0.617491	0.328309
	C159	C	0.129506	0.379975	0.326171
	C160	C	0.395199	0.674438	0.887032
	C161	C	0.632762	0.676196	0.117034
	C162	C	0.633474	0.322241	0.886940
	C163	C	0.393804	0.321885	0.116575
	C164	C	0.693264	0.884220	0.380612
	C165	C	0.690109	0.114017	0.619955
	C166	C	0.337099	0.884408	0.620949
	C167	C	0.339210	0.114148	0.383083
	C168	C	0.894296	0.383905	0.180730
	C169	C	0.133292	0.612744	0.178826
	C170	C	0.134697	0.384222	0.825266
	C171	C	0.897157	0.613442	0.827404
	C172	C	0.191156	0.880676	0.387477
	C173	C	0.190242	0.117819	0.617915
	C174	C	0.839788	0.118173	0.387372
	C175	C	0.837039	0.880429	0.617767
	C176	C	0.399213	0.174818	0.883183
	C177	C	0.628831	0.175589	0.120477
	C178	C	0.398529	0.822493	0.120947
	C179	C	0.628971	0.820672	0.880627
	C180	C	0.398741	0.879899	0.178269
	C181	C	0.629570	0.117530	0.176701
	C182	C	0.399305	0.116688	0.826595
	C183	C	0.629704	0.879397	0.824708
	C184	C	0.895922	0.176647	0.388291
	C185	C	0.132934	0.175508	0.618077
	C186	C	0.135555	0.821993	0.388228
	C187	C	0.894566	0.822917	0.618113
	C188	C	0.191793	0.384172	0.882856
	C189	C	0.190254	0.612789	0.121092
	C190	C	0.836972	0.383704	0.122650
	C191	C	0.838497	0.612995	0.884309
	C192	C	0.414694	0.093401	0.601851
	C193	C	0.613269	0.904545	0.599763
	C194	C	0.616394	0.093345	0.400232
	C195	C	0.415118	0.904492	0.402114
	C196	C	0.612798	0.398300	0.097528
	C197	C	0.614094	0.596856	0.907839
	C198	C	0.414631	0.598924	0.097494
	C199	C	0.415077	0.398733	0.906772
	C200	C	0.110352	0.598741	0.402889
	C201	C	0.920844	0.599395	0.603026
	C202	C	0.110873	0.399345	0.601658
	C203	C	0.919822	0.400013	0.405553
	C204	C	0.914374	0.592707	0.103056
	C205	C	0.113580	0.403338	0.101966
	C206	C	0.114888	0.593242	0.902886
	C207	C	0.915669	0.403931	0.902978
	C208	C	0.113499	0.900620	0.597615
	C209	C	0.114798	0.099467	0.407428
	C210	C	0.914294	0.099089	0.598113
	C211	C	0.916729	0.899150	0.408106
	C212	C	0.609425	0.098252	0.902394
	C213	C	0.418900	0.098273	0.101642
	C214	C	0.608551	0.899049	0.099029
	C215	C	0.419232	0.898408	0.902027
	Zn216	Zn	0.515015	-0.001400	0.752053
	Zn217	Zn	0.514627	-0.001334	0.250442
	Zn218	Zn	0.763953	0.498086	0.003186
	Zn219	Zn	0.264716	0.498493	0.002712
	Zn220	Zn	0.015694	0.749816	0.503470
	Zn221	Zn	0.014602	0.249480	0.503388
	Zn222	Zn	0.015701	0.498954	0.752344
	Zn223	Zn	0.014481	0.498475	0.253451
	Zn224	Zn	0.513684	0.748219	0.001614
	Zn225	Zn	0.513753	0.248566	0.002019
	Zn226	Zn	0.765395	-0.000790	0.501877
	Zn227	Zn	0.264353	-0.000249	0.501816
	N228	N	0.428254	0.962007	0.680872
	N229	N	0.600055	0.035609	0.679672
	N230	N	0.601504	0.961624	0.321356
	N231	N	0.430247	0.036171	0.323986
	N232	N	0.693105	0.412017	0.965780
	N233	N	0.691984	0.583881	0.040291
	N234	N	0.336634	0.583656	0.965353
	N235	N	0.336889	0.413624	0.039440
	N236	N	0.978520	0.678129	0.417356
	N237	N	0.052568	0.678603	0.589102
	N238	N	0.978540	0.320992	0.589661
	N239	N	0.051576	0.321218	0.417406
	N240	N	0.978499	0.414364	0.680203
	N241	N	0.053391	0.584646	0.680527
	N242	N	0.977765	0.584328	0.325754
	N243	N	0.051854	0.413675	0.325666
	N244	N	0.428178	0.676431	0.964931
	N245	N	0.600271	0.677661	0.038833
	N246	N	0.599263	0.320565	0.964735
	N247	N	0.427293	0.319880	0.038530
	N248	N	0.695513	0.961938	0.413960
	N249	N	0.691583	0.036557	0.585879
	N250	N	0.335858	0.961830	0.587265
	N251	N	0.336766	0.036385	0.416111
	N252	N	0.928010	0.461484	0.182304
	N253	N	0.100025	0.535037	0.180723
	N254	N	0.101481	0.461854	0.823515
	N255	N	0.930709	0.535909	0.825547
	N256	N	0.191569	0.915079	0.464984
	N257	N	0.192400	0.084683	0.539741
	N258	N	0.838311	0.083780	0.464917
	N259	N	0.836377	0.913625	0.539672
	N260	N	0.477209	0.177124	0.916034
	N261	N	0.550495	0.177592	0.088101
	N262	N	0.476414	0.820745	0.086666
	N263	N	0.550831	0.818604	0.914013
	N264	N	0.476676	0.913159	0.179175
	N265	N	0.551808	0.083765	0.178429
	N266	N	0.477109	0.083295	0.824957
	N267	N	0.551958	0.913185	0.823867
	N268	N	0.928388	0.178353	0.466427
	N269	N	0.099957	0.177543	0.540174
	N270	N	0.101769	0.820564	0.466182
	N271	N	0.929081	0.821112	0.540395
	N272	N	0.193249	0.461664	0.916690
	N273	N	0.191844	0.535058	0.087698
	N274	N	0.835375	0.461271	0.089097
	N275	N	0.836068	0.535201	0.917041
	O276	O	0.573385	0.512275	0.507308
	H277	H	0.576542	0.513010	0.501395
	H278	H	0.569028	0.507952	0.511106
	O279	O	-0.411661	0.510805	-0.512589
	H280	H	-0.416028	0.512025	-0.519869
	H281	H	-0.410028	0.508460	-0.516369
	O282	O	0.564415	0.517675	0.576588
	H283	H	0.552361	0.528026	0.575615
	H284	H	0.572448	0.529663	0.589083
	O285	O	-0.030924	0.882108	1.088773
	H286	H	-0.036723	0.875459	1.084111
	H287	H	-0.039166	0.887618	1.089713
	O288	O	0.983348	-0.060126	0.072382
	H289	H	0.978517	-0.057722	0.076622
	H290	H	0.979407	-0.071086	0.077802
	O291	O	-1.071120	0.885298	-0.935673
	H292	H	-1.073256	0.860727	-0.930359
	H293	H	-1.066991	0.880096	-0.932204
	O294	O	0.529602	0.488414	0.522757
	H295	H	0.533452	0.485762	0.528094
	H296	H	0.529480	0.485511	0.528228
	O297	O	0.008549	0.923582	0.038959
	H298	H	0.020652	0.925561	0.041784
	H299	H	-0.000323	0.935057	0.043123
	O300	O	0.904771	-0.046580	1.143654
	H301	H	0.904111	-0.043348	1.151708
	H302	H	0.916437	-0.051469	1.132404
	O303	O	0.584089	0.507251	0.519124
	H304	H	0.583063	0.507921	0.519566
	H305	H	0.593219	0.507864	0.524731
	O306	O	-0.049822	0.907630	1.073362
	H307	H	-0.057522	0.895271	1.065841
	H308	H	-0.050722	0.905592	1.076405
	O309	O	0.557324	0.520460	0.509808
	H310	H	0.555597	0.509675	0.504677
	H311	H	0.553615	0.512544	0.506300
