data_Molecule from HDF5

_cell_length_a		16.129378
_cell_length_b		16.222535
_cell_length_c		16.303344
_cell_angle_alpha	90.252048
_cell_angle_beta	90.359159
_cell_angle_gamma	90.172867
_symmetry_space_group_name_H-M	'P 1'
_symmetry_Int_Tables_number		1

loop_
	_symmetry_equiv_pos_as_xyz
	x,y,z

loop_
	_atom_site_label
	_atom_site_type_symbol
	_atom_site_fract_x
	_atom_site_fract_y
	_atom_site_fract_z
	H0	H	0.392432	0.841092	0.714488
	H1	H	0.595177	0.168455	0.717995
	H2	H	0.592241	0.841337	0.285650
	H3	H	0.392758	0.168877	0.284161
	H4	H	0.705013	0.405961	0.836917
	H5	H	0.706836	0.603029	0.164714
	H6	H	0.277307	0.599809	0.836855
	H7	H	0.279267	0.406771	0.165266
	H8	H	0.827327	0.717019	0.404519
	H9	H	0.158688	0.719133	0.600891
	H10	H	0.827793	0.290895	0.599389
	H11	H	0.157886	0.292184	0.402895
	H12	H	0.827600	0.406758	0.713990
	H13	H	0.157011	0.608546	0.719818
	H14	H	0.828332	0.605774	0.285831
	H15	H	0.156494	0.406523	0.286901
	H16	H	0.392051	0.718156	0.836334
	H17	H	0.593035	0.721021	0.163440
	H18	H	0.589150	0.289951	0.837605
	H19	H	0.394493	0.289332	0.164947
	H20	H	0.703071	0.840172	0.404469
	H21	H	0.706925	0.169925	0.599291
	H22	H	0.281999	0.840085	0.593773
	H23	H	0.280677	0.170318	0.402848
	H24	H	0.891501	0.341909	0.215295
	H25	H	0.093617	0.669354	0.217742
	H26	H	0.092463	0.342438	0.784637
	H27	H	0.891690	0.669968	0.787495
	H28	H	0.203743	0.908591	0.335811
	H29	H	0.210197	0.105262	0.664690
	H30	H	0.780106	0.100776	0.336851
	H31	H	0.780129	0.907883	0.665191
	H32	H	0.327602	0.216079	0.902230
	H33	H	0.657877	0.218598	0.099603
	H34	H	0.327769	0.792046	0.096236
	H35	H	0.658188	0.791079	0.902227
	H36	H	0.328556	0.905421	0.212917
	H37	H	0.657207	0.105792	0.215898
	H38	H	0.328703	0.103316	0.785796
	H39	H	0.657673	0.905656	0.787524
	H40	H	0.894738	0.218620	0.337718
	H41	H	0.096434	0.223553	0.663764
	H42	H	0.090968	0.789015	0.337896
	H43	H	0.896343	0.792094	0.665306
	H44	H	0.202569	0.339468	0.904010
	H45	H	0.207507	0.669146	0.100081
	H46	H	0.780484	0.340176	0.096981
	H47	H	0.778914	0.669699	0.904892
	H48	H	0.409016	0.123741	0.605383
	H49	H	0.593263	0.887061	0.588333
	H50	H	0.587392	0.124779	0.403672
	H51	H	0.400550	0.885478	0.396321
	H52	H	0.590224	0.407136	0.120211
	H53	H	0.581727	0.607183	0.881888
	H54	H	0.392679	0.596037	0.118636
	H55	H	0.398422	0.410455	0.884891
	H56	H	0.113658	0.603439	0.407107
	H57	H	0.873928	0.614801	0.581310
	H58	H	0.110600	0.416884	0.596093
	H59	H	0.877324	0.418598	0.412469
	H60	H	0.111400	0.413214	0.593724
	H61	H	0.882610	0.580257	0.587886
	H62	H	0.109208	0.597811	0.416386
	H63	H	0.872129	0.413415	0.398477
	H64	H	0.407306	0.593504	0.113910
	H65	H	0.594355	0.595072	0.881910
	H66	H	0.588777	0.415821	0.117215
	H67	H	0.397841	0.408208	0.884593
	H68	H	0.580119	0.121230	0.407975
	H69	H	0.588479	0.883674	0.604719
	H70	H	0.407799	0.118090	0.584066
	H71	H	0.405059	0.890673	0.410151
	H72	H	0.891441	0.626225	0.098086
	H73	H	0.072290	0.388728	0.104451
	H74	H	0.080530	0.620090	0.914146
	H75	H	0.900830	0.390373	0.914079
	H76	H	0.091314	0.911520	0.618663
	H77	H	0.089107	0.114384	0.378599
	H78	H	0.899281	0.089844	0.615642
	H79	H	0.897774	0.912267	0.385478
	H80	H	0.616116	0.107899	0.904891
	H81	H	0.371364	0.102946	0.097161
	H82	H	0.611498	0.915045	0.096353
	H83	H	0.377320	0.918189	0.908631
	H84	H	0.613171	0.910088	0.095134
	H85	H	0.377067	0.097451	0.085301
	H86	H	0.608404	0.096918	0.918868
	H87	H	0.372629	0.911103	0.898821
	H88	H	0.910174	0.102809	0.616375
	H89	H	0.097612	0.087754	0.384120
	H90	H	0.088183	0.916099	0.616326
	H91	H	0.900965	0.908099	0.384395
	H92	H	0.090056	0.623708	0.910847
	H93	H	0.083189	0.392259	0.080733
	H94	H	0.907510	0.622854	0.101650
	H95	H	0.890805	0.384435	0.903696
	H96	H	0.390389	0.126134	0.594457
	H97	H	0.576753	0.890612	0.592736
	H98	H	0.588093	0.122304	0.412062
	H99	H	0.391254	0.886549	0.407796
	H100	H	0.582099	0.409575	0.116793
	H101	H	0.578491	0.590997	0.887682
	H102	H	0.402313	0.608045	0.119079
	H103	H	0.396774	0.409820	0.883955
	H104	H	0.110109	0.592411	0.405701
	H105	H	0.867654	0.601697	0.614984
	H106	H	0.108431	0.417283	0.592854
	H107	H	0.873399	0.404319	0.410386
	H108	H	0.900796	0.620607	0.086704
	H109	H	0.098373	0.381929	0.100952
	H110	H	0.082346	0.622831	0.904002
	H111	H	0.905252	0.387620	0.899530
	H112	H	0.085112	0.911324	0.617622
	H113	H	0.070698	0.094789	0.390300
	H114	H	0.893638	0.105328	0.622150
	H115	H	0.896195	0.908129	0.382905
	H116	H	0.611761	0.089074	0.901275
	H117	H	0.375011	0.089411	0.097305
	H118	H	0.610995	0.912941	0.092031
	H119	H	0.374592	0.905296	0.911013
	C120	C	0.373065	0.013741	0.621522
	C121	C	0.615136	0.996367	0.623547
	C122	C	0.613469	0.014032	0.379554
	C123	C	0.370757	0.996566	0.376991
	C124	C	0.614309	0.382398	0.009959
	C125	C	0.614091	0.626557	0.992118
	C126	C	0.371148	0.626437	0.008852
	C127	C	0.370168	0.381864	0.992923
	C128	C	0.001441	0.626242	0.380816
	C129	C	0.984044	0.627901	0.624191
	C130	C	0.001089	0.385898	0.622207
	C131	C	0.983778	0.383845	0.379210
	C132	C	0.871320	0.514070	0.122557
	C133	C	0.114152	0.496486	0.124246
	C134	C	0.113057	0.513756	0.880263
	C135	C	0.870364	0.496558	0.878873
	C136	C	0.115141	0.884057	0.509318
	C137	C	0.116215	0.128265	0.492275
	C138	C	0.871911	0.126761	0.509787
	C139	C	0.870944	0.882514	0.492726
	C140	C	0.502186	0.125326	0.879823
	C141	C	0.483846	0.125962	0.122066
	C142	C	0.502388	0.884209	0.121591
	C143	C	0.484132	0.882888	0.878608
	C144	C	0.373817	0.890087	0.675980
	C145	C	0.614171	0.119760	0.679416
	C146	C	0.611489	0.890241	0.323977
	C147	C	0.372969	0.120083	0.322233
	C148	C	0.667791	0.385205	0.886051
	C149	C	0.669277	0.623914	0.115605
	C150	C	0.315199	0.621645	0.885649
	C151	C	0.316590	0.385644	0.116408
	C152	C	0.876826	0.680173	0.383605
	C153	C	0.108773	0.682337	0.621641
	C154	C	0.877135	0.329402	0.619249
	C155	C	0.108197	0.329454	0.382387
	C156	C	0.876704	0.387323	0.676066
	C157	C	0.108103	0.627180	0.680535
	C158	C	0.877373	0.624922	0.324513
	C159	C	0.107628	0.386197	0.324846
	C160	C	0.372250	0.680674	0.885557
	C161	C	0.612653	0.682478	0.115036
	C162	C	0.610466	0.327483	0.886524
	C163	C	0.373840	0.327240	0.116156
	C164	C	0.666434	0.889451	0.383490
	C165	C	0.670045	0.120242	0.620577
	C166	C	0.318719	0.889495	0.616302
	C167	C	0.317107	0.120762	0.381034
	C168	C	0.872610	0.390640	0.177108
	C169	C	0.113335	0.620081	0.179533
	C170	C	0.111649	0.390766	0.823734
	C171	C	0.871921	0.620594	0.824970
	C172	C	0.167349	0.887432	0.385222
	C173	C	0.172471	0.125845	0.615591
	C174	C	0.817183	0.122424	0.386025
	C175	C	0.817241	0.886597	0.616269
	C176	C	0.377369	0.179205	0.881983
	C177	C	0.608534	0.181079	0.119920
	C178	C	0.377475	0.829135	0.117592
	C179	C	0.608574	0.828089	0.881627
	C180	C	0.377671	0.885674	0.175405
	C181	C	0.607882	0.125525	0.178173
	C182	C	0.377863	0.122894	0.824240
	C183	C	0.608593	0.885374	0.824894
	C184	C	0.874207	0.180920	0.386444
	C185	C	0.115964	0.184730	0.615200
	C186	C	0.111418	0.827878	0.386374
	C187	C	0.874956	0.829221	0.616337
	C188	C	0.166290	0.389305	0.882973
	C189	C	0.169953	0.619818	0.121155
	C190	C	0.817187	0.389871	0.118320
	C191	C	0.815765	0.620661	0.883474
	C192	C	0.395728	0.100246	0.600750
	C193	C	0.592728	0.909543	0.601651
	C194	C	0.591656	0.100544	0.401387
	C195	C	0.392420	0.910142	0.398281
	C196	C	0.593334	0.404456	0.095738
	C197	C	0.591569	0.604232	0.906048
	C198	C	0.393964	0.605384	0.094884
	C199	C	0.391342	0.403252	0.906885
	C200	C	0.088319	0.604351	0.402989
	C201	C	0.897152	0.605429	0.601527
	C202	C	0.087775	0.409035	0.600671
	C203	C	0.896730	0.405645	0.400894
	C204	C	0.893417	0.600759	0.101629
	C205	C	0.091240	0.409968	0.101994
	C206	C	0.090878	0.599974	0.902873
	C207	C	0.892255	0.410010	0.899625
	C208	C	0.094261	0.906283	0.595285
	C209	C	0.092796	0.105582	0.406677
	C210	C	0.894444	0.105523	0.595770
	C211	C	0.892032	0.903243	0.406521
	C212	C	0.589382	0.104101	0.901756
	C213	C	0.396971	0.103341	0.099765
	C214	C	0.589168	0.906207	0.100728
	C215	C	0.397405	0.904925	0.899894
	Zn216	Zn	0.493550	0.004551	0.751252
	Zn217	Zn	0.492857	0.005490	0.249653
	Zn218	Zn	0.742866	0.504186	0.000936
	Zn219	Zn	0.241365	0.503902	0.001480
	Zn220	Zn	-0.006810	0.754287	0.501953
	Zn221	Zn	-0.006642	0.256318	0.501555
	Zn222	Zn	-0.007342	0.506330	0.751388
	Zn223	Zn	-0.007935	0.505483	0.251759
	Zn224	Zn	0.493054	0.756012	0.000056
	Zn225	Zn	0.492732	0.252982	0.001262
	Zn226	Zn	0.742347	0.004747	0.500907
	Zn227	Zn	0.244444	0.005798	0.500318
	N228	N	0.406795	0.968422	0.679429
	N229	N	0.580851	0.041629	0.681395
	N230	N	0.579122	0.968741	0.321491
	N231	N	0.405467	0.041786	0.319396
	N232	N	0.670524	0.418704	0.963711
	N233	N	0.670309	0.589685	0.038130
	N234	N	0.314186	0.588728	0.963336
	N235	N	0.314140	0.418880	0.038859
	N236	N	0.954923	0.681109	0.417866
	N237	N	0.030512	0.682893	0.587214
	N238	N	0.955521	0.328434	0.586336
	N239	N	0.030074	0.328022	0.415657
	N240	N	0.954821	0.421709	0.678007
	N241	N	0.029571	0.594048	0.682111
	N242	N	0.955942	0.591931	0.322759
	N243	N	0.029023	0.419062	0.322586
	N244	N	0.406330	0.683677	0.963128
	N245	N	0.578961	0.684054	0.037329
	N246	N	0.577965	0.325546	0.964291
	N247	N	0.406418	0.324816	0.038440
	N248	N	0.667898	0.967325	0.417349
	N249	N	0.670744	0.042444	0.586468
	N250	N	0.318073	0.967370	0.583149
	N251	N	0.315535	0.043091	0.414390
	N252	N	0.905681	0.469024	0.179805
	N253	N	0.079338	0.542235	0.181310
	N254	N	0.078936	0.469099	0.822178
	N255	N	0.904970	0.542459	0.821963
	N256	N	0.169873	0.921638	0.462562
	N257	N	0.173038	0.091646	0.538045
	N258	N	0.815456	0.089637	0.463822
	N259	N	0.814765	0.919301	0.538504
	N260	N	0.455635	0.180848	0.916067
	N261	N	0.530122	0.181575	0.085943
	N262	N	0.455886	0.828051	0.084798
	N263	N	0.530129	0.826425	0.914394
	N264	N	0.456160	0.919300	0.178047
	N265	N	0.529495	0.092062	0.179645
	N266	N	0.456465	0.090100	0.822885
	N267	N	0.530286	0.918643	0.822742
	N268	N	0.907461	0.183713	0.464282
	N269	N	0.081738	0.186479	0.537639
	N270	N	0.079660	0.825741	0.464481
	N271	N	0.907448	0.826226	0.538585
	N272	N	0.167037	0.466737	0.917869
	N273	N	0.170332	0.542011	0.087359
	N274	N	0.816251	0.467552	0.085179
	N275	N	0.814644	0.542610	0.916374
	O276	O	0.419309	0.463783	0.527178
	H277	H	0.418300	0.471312	0.532234
	H278	H	0.431857	0.465281	0.521175
	O279	O	0.523514	0.475387	0.504938
	H280	H	0.526077	0.475631	0.508569
	H281	H	0.524366	0.476378	0.490278
	O282	O	0.475887	0.529702	0.446151
	H283	H	0.472437	0.529980	0.445314
	H284	H	0.473690	0.534143	0.439083
	O285	O	0.046472	1.051565	1.040732
	H286	H	0.050559	1.060103	1.040441
	H287	H	0.044101	1.052562	1.034164
	O288	O	0.429261	0.454006	0.431116
	H289	H	0.431130	0.449362	0.428615
	H290	H	0.426222	0.443297	0.440388
	O291	O	0.067109	0.029040	1.007219
	H292	H	0.063630	0.025521	1.009107
	H293	H	0.072213	0.034492	1.013467
	O294	O	0.492162	0.515530	0.574602
	H295	H	0.492310	0.512070	0.568319
	H296	H	0.495203	0.514749	0.586561
	O297	O	0.500470	0.515952	0.480321
	H298	H	0.509854	0.519318	0.477600
	H299	H	0.501308	0.512293	0.479889
	O300	O	0.520822	0.469662	0.548974
	H301	H	0.522049	0.471770	0.548536
	H302	H	0.517035	0.476413	0.557167
	O303	O	0.490456	0.487343	0.507274
	H304	H	0.483215	0.494963	0.505822
	H305	H	0.478799	0.490289	0.517967
	O306	O	1.037398	0.004885	1.000289
	H307	H	1.040032	0.008845	1.004729
	H308	H	1.039409	0.004658	0.985772
	O309	O	0.491699	0.505201	0.591690
	H310	H	0.492140	0.502842	0.589346
	H311	H	0.501291	0.505576	0.599397
	O312	O	0.511229	0.532880	0.469159
	H313	H	0.511909	0.526745	0.458817
	H314	H	0.508816	0.534049	0.466022
	O315	O	1.044375	-0.021322	0.961420
	H316	H	1.036828	-0.032387	0.959278
	H317	H	1.049899	-0.023168	0.963892
	O318	O	0.095731	0.011762	0.038375
	H319	H	0.095021	0.013029	0.041026
	H320	H	0.098968	0.012343	0.041037
	O321	O	0.456779	0.513705	0.449131
	H322	H	0.450141	0.520181	0.454645
	H323	H	0.439065	0.511730	0.446832
	O324	O	1.536403	-0.458028	-0.465200
	H325	H	1.541940	-0.449664	-0.463936
	H326	H	1.538121	-0.476053	-0.470004
	O327	O	1.055361	1.009685	0.017615
	H328	H	1.063690	1.012141	0.019838
	H329	H	1.057094	1.006159	0.022507
	O330	O	0.441386	0.504511	0.454519
	H331	H	0.442421	0.493744	0.449773
	H332	H	0.437271	0.515469	0.447357
	O333	O	0.510341	0.508149	0.517079
	H334	H	0.504020	0.507624	0.519747
	H335	H	0.520474	0.506630	0.521101
