data_Molecule from HDF5

_cell_length_a		15.927314
_cell_length_b		16.245852
_cell_length_c		16.611681
_cell_angle_alpha	90.059202
_cell_angle_beta	90.031117
_cell_angle_gamma	89.441522
_symmetry_space_group_name_H-M	'P 1'
_symmetry_Int_Tables_number		1

loop_
	_symmetry_equiv_pos_as_xyz
	x,y,z

loop_
	_atom_site_label
	_atom_site_type_symbol
	_atom_site_fract_x
	_atom_site_fract_y
	_atom_site_fract_z
	H0	H	0.396080	0.834179	0.707649
	H1	H	0.609887	0.153828	0.708704
	H2	H	0.609298	0.833606	0.266085
	H3	H	0.391391	0.154501	0.265483
	H4	H	0.718287	0.393763	0.825399
	H5	H	0.714254	0.587999	0.148349
	H6	H	0.285627	0.592815	0.824496
	H7	H	0.285086	0.397619	0.146495
	H8	H	0.833687	0.711307	0.385057
	H9	H	0.165334	0.706232	0.582929
	H10	H	0.832295	0.284873	0.579841
	H11	H	0.165991	0.278153	0.385589
	H12	H	0.835474	0.391781	0.701825
	H13	H	0.162168	0.600710	0.704378
	H14	H	0.835015	0.598585	0.266346
	H15	H	0.164317	0.386748	0.266949
	H16	H	0.397962	0.714278	0.826467
	H17	H	0.603937	0.711911	0.145511
	H18	H	0.607381	0.271937	0.828276
	H19	H	0.399983	0.276182	0.145585
	H20	H	0.715889	0.830749	0.390459
	H21	H	0.708974	0.160240	0.579867
	H22	H	0.290736	0.829165	0.581345
	H23	H	0.286960	0.158771	0.391288
	H24	H	0.893923	0.333066	0.205637
	H25	H	0.105740	0.653923	0.205846
	H26	H	0.109369	0.334257	0.762347
	H27	H	0.889708	0.655478	0.764240
	H28	H	0.216605	0.895194	0.325664
	H29	H	0.214734	0.092484	0.646980
	H30	H	0.782256	0.094152	0.324322
	H31	H	0.786918	0.898735	0.647077
	H32	H	0.336786	0.209173	0.888839
	H33	H	0.668762	0.204122	0.084903
	H34	H	0.334168	0.783885	0.082128
	H35	H	0.668201	0.778510	0.888449
	H36	H	0.337605	0.890943	0.203872
	H37	H	0.664463	0.096936	0.205629
	H38	H	0.338582	0.100748	0.767877
	H39	H	0.667111	0.888263	0.769037
	H40	H	0.895526	0.214839	0.324906
	H41	H	0.102886	0.215126	0.643586
	H42	H	0.102807	0.775390	0.326250
	H43	H	0.894607	0.774805	0.643523
	H44	H	0.215283	0.330420	0.887534
	H45	H	0.206741	0.660226	0.076733
	H46	H	0.793995	0.327729	0.077552
	H47	H	0.786639	0.659148	0.892316
	H48	H	0.416544	0.107806	0.577155
	H49	H	0.596721	0.878394	0.574016
	H50	H	0.592839	0.110535	0.398666
	H51	H	0.417497	0.875133	0.380265
	H52	H	0.586785	0.404362	0.096673
	H53	H	0.592090	0.585182	0.873046
	H54	H	0.410890	0.578681	0.095375
	H55	H	0.403647	0.401995	0.871122
	H56	H	0.121200	0.588721	0.387206
	H57	H	0.881601	0.581679	0.576893
	H58	H	0.116101	0.414796	0.578287
	H59	H	0.885408	0.415708	0.395013
	H60	H	0.121722	0.398090	0.581123
	H61	H	0.879277	0.585973	0.576914
	H62	H	0.115834	0.584798	0.400992
	H63	H	0.878901	0.405745	0.384348
	H64	H	0.415029	0.598661	0.100608
	H65	H	0.591030	0.587815	0.872907
	H66	H	0.594311	0.387617	0.103518
	H67	H	0.415054	0.405825	0.875112
	H68	H	0.590301	0.113743	0.384988
	H69	H	0.593950	0.875233	0.586740
	H70	H	0.405917	0.110615	0.576879
	H71	H	0.420079	0.883134	0.400114
	H72	H	0.908550	0.609702	0.075039
	H73	H	0.097729	0.376628	0.073184
	H74	H	0.086143	0.608028	0.895714
	H75	H	0.917423	0.379443	0.890503
	H76	H	0.085355	0.904870	0.595951
	H77	H	0.100493	0.086587	0.369044
	H78	H	0.903321	0.092050	0.600287
	H79	H	0.912545	0.893817	0.370643
	H80	H	0.625473	0.093016	0.891187
	H81	H	0.379495	0.088871	0.083616
	H82	H	0.617811	0.905882	0.074694
	H83	H	0.380243	0.901478	0.889710
	H84	H	0.620895	0.905156	0.083329
	H85	H	0.383683	0.088939	0.070570
	H86	H	0.616298	0.079281	0.907512
	H87	H	0.385906	0.904494	0.901421
	H88	H	0.909681	0.086519	0.596159
	H89	H	0.088113	0.078479	0.375201
	H90	H	0.091511	0.889941	0.601976
	H91	H	0.900262	0.905032	0.370607
	H92	H	0.094045	0.613766	0.888759
	H93	H	0.091117	0.375282	0.085613
	H94	H	0.907870	0.612065	0.083271
	H95	H	0.910029	0.377643	0.892212
	H96	H	0.411541	0.112638	0.586822
	H97	H	0.584534	0.880652	0.578488
	H98	H	0.579521	0.107643	0.392839
	H99	H	0.400292	0.874273	0.393743
	H100	H	0.606238	0.403352	0.102058
	H101	H	0.593894	0.586869	0.872673
	H102	H	0.395220	0.591282	0.103136
	H103	H	0.413816	0.393473	0.870955
	H104	H	0.115362	0.574483	0.389610
	H105	H	0.881341	0.585496	0.573138
	H106	H	0.115776	0.403173	0.565282
	H107	H	0.881927	0.400456	0.399082
	H108	H	0.915846	0.609286	0.080036
	H109	H	0.083462	0.380258	0.074546
	H110	H	0.083239	0.610350	0.885104
	H111	H	0.912436	0.376715	0.884715
	H112	H	0.101610	0.903549	0.601592
	H113	H	0.086271	0.093738	0.371667
	H114	H	0.911323	0.094890	0.598538
	H115	H	0.916182	0.908262	0.375612
	H116	H	0.620208	0.070818	0.886518
	H117	H	0.385010	0.076842	0.078555
	H118	H	0.621764	0.898283	0.077131
	H119	H	0.385971	0.914257	0.891695
	C120	C	0.380811	0.003068	0.608602
	C121	C	0.622051	0.985618	0.607928
	C122	C	0.620874	0.003122	0.363625
	C123	C	0.379922	0.985429	0.363272
	C124	C	0.625961	0.369026	-0.005103
	C125	C	0.622651	0.615266	0.978633
	C126	C	0.377397	0.618322	-0.005979
	C127	C	0.380076	0.371756	0.977917
	C128	C	0.008142	0.614452	0.363057
	C129	C	0.989864	0.614681	0.605230
	C130	C	0.008460	0.375284	0.604202
	C131	C	0.991126	0.374422	0.363294
	C132	C	0.881099	0.502302	0.106716
	C133	C	0.121098	0.484888	0.106611
	C134	C	0.120794	0.503209	0.861178
	C135	C	0.879560	0.485654	0.861970
	C136	C	0.122976	0.870496	0.494200
	C137	C	0.121689	0.116265	0.477399
	C138	C	0.877001	0.119475	0.492696
	C139	C	0.878705	0.872740	0.477500
	C140	C	0.511709	0.113687	0.865349
	C141	C	0.492301	0.114245	0.107323
	C142	C	0.510507	0.873855	0.107122
	C143	C	0.493315	0.874170	0.864934
	C144	C	0.378828	0.881544	0.666757
	C145	C	0.625354	0.106528	0.667205
	C146	C	0.625135	0.881448	0.306279
	C147	C	0.375210	0.106665	0.305725
	C148	C	0.681110	0.372445	0.873934
	C149	C	0.678165	0.611028	0.099498
	C150	C	0.322315	0.614746	0.872891
	C151	C	0.323075	0.375758	0.098086
	C152	C	0.883446	0.672598	0.364734
	C153	C	0.115285	0.669654	0.603359
	C154	C	0.882788	0.320591	0.601642
	C155	C	0.115894	0.315620	0.364740
	C156	C	0.884343	0.374075	0.661980
	C157	C	0.113623	0.617026	0.663835
	C158	C	0.884067	0.616531	0.305704
	C159	C	0.115318	0.370109	0.306097
	C160	C	0.378461	0.674971	0.873864
	C161	C	0.622704	0.672191	0.098288
	C162	C	0.625951	0.311584	0.875377
	C163	C	0.380300	0.315408	0.098016
	C164	C	0.678327	0.880001	0.368106
	C165	C	0.675219	0.109763	0.603440
	C166	C	0.326282	0.879292	0.604242
	C167	C	0.323196	0.108926	0.368450
	C168	C	0.878421	0.380470	0.164396
	C169	C	0.122603	0.606613	0.164699
	C170	C	0.125198	0.382069	0.803013
	C171	C	0.874427	0.607636	0.805056
	C172	C	0.179211	0.873436	0.373945
	C173	C	0.177482	0.113716	0.598247
	C174	C	0.820153	0.115736	0.372477
	C175	C	0.823331	0.876587	0.598293
	C176	C	0.386776	0.171720	0.867492
	C177	C	0.618026	0.168519	0.105658
	C178	C	0.384760	0.819706	0.103832
	C179	C	0.618227	0.816223	0.867432
	C180	C	0.386244	0.873086	0.164035
	C181	C	0.615888	0.115130	0.165634
	C182	C	0.387680	0.117649	0.807368
	C183	C	0.617482	0.870763	0.807825
	C184	C	0.876777	0.175733	0.372620
	C185	C	0.121627	0.174821	0.596518
	C186	C	0.122591	0.813783	0.374271
	C187	C	0.877282	0.814906	0.596615
	C188	C	0.178180	0.380127	0.865354
	C189	C	0.173427	0.609516	0.100996
	C190	C	0.828149	0.377801	0.101060
	C191	C	0.823210	0.609436	0.868918
	C192	C	0.404417	0.088223	0.586574
	C193	C	0.598708	0.900226	0.586030
	C194	C	0.594895	0.088517	0.385694
	C195	C	0.405256	0.899708	0.385067
	C196	C	0.602641	0.391744	0.079132
	C197	C	0.599231	0.593207	0.894661
	C198	C	0.400394	0.596158	0.077843
	C199	C	0.404037	0.393971	0.894195
	C200	C	0.095028	0.589747	0.385781
	C201	C	0.903063	0.591254	0.582360
	C202	C	0.095267	0.398661	0.581502
	C203	C	0.904656	0.399950	0.386141
	C204	C	0.904156	0.587927	0.085600
	C205	C	0.097699	0.399626	0.084409
	C206	C	0.095190	0.588681	0.883479
	C207	C	0.905602	0.400106	0.882886
	C208	C	0.099592	0.892866	0.578153
	C209	C	0.098338	0.092994	0.393770
	C210	C	0.901059	0.097545	0.576611
	C211	C	0.902519	0.895619	0.393941
	C212	C	0.598186	0.088267	0.888373
	C213	C	0.405222	0.091442	0.084345
	C214	C	0.597512	0.896507	0.085070
	C215	C	0.406303	0.899383	0.887660
	Zn216	Zn	0.502628	-0.006098	0.737082
	Zn217	Zn	0.500378	-0.005643	0.234275
	Zn218	Zn	0.753984	0.492823	-0.013873
	Zn219	Zn	0.248470	0.494879	-0.015259
	Zn220	Zn	-0.000812	0.741498	0.485521
	Zn221	Zn	-0.000027	0.248476	0.483734
	Zn222	Zn	-0.000575	0.494855	0.732149
	Zn223	Zn	0.000585	0.492977	0.235610
	Zn224	Zn	0.501157	0.747047	-0.013627
	Zn225	Zn	0.503221	0.240557	-0.013210
	Zn226	Zn	0.748644	-0.004677	0.486317
	Zn227	Zn	0.253111	-0.006060	0.486309
	N228	N	0.411761	0.959501	0.669785
	N229	N	0.593124	0.028316	0.670258
	N230	N	0.590344	0.959319	0.303351
	N231	N	0.409537	0.028726	0.302439
	N232	N	0.681329	0.407256	0.949292
	N233	N	0.678215	0.576247	0.023959
	N234	N	0.321559	0.580305	0.948390
	N235	N	0.322936	0.410083	0.022355
	N236	N	0.961712	0.671315	0.399629
	N237	N	0.037393	0.668540	0.567773
	N238	N	0.960973	0.321124	0.566466
	N239	N	0.037704	0.318212	0.399559
	N240	N	0.963568	0.407080	0.663862
	N241	N	0.034621	0.583553	0.665002
	N242	N	0.962683	0.580904	0.304775
	N243	N	0.036766	0.405893	0.304957
	N244	N	0.411769	0.677624	0.950206
	N245	N	0.588777	0.674791	0.022141
	N246	N	0.592289	0.309519	0.951773
	N247	N	0.414775	0.312630	0.022184
	N248	N	0.675947	0.956700	0.402907
	N249	N	0.673261	0.033665	0.567116
	N250	N	0.327353	0.955722	0.568731
	N251	N	0.325753	0.032221	0.403369
	N252	N	0.910613	0.458759	0.168275
	N253	N	0.091075	0.528023	0.168429
	N254	N	0.090556	0.459744	0.800332
	N255	N	0.908665	0.529566	0.800549
	N256	N	0.179758	0.907919	0.449446
	N257	N	0.177500	0.077844	0.523280
	N258	N	0.820265	0.081513	0.448217
	N259	N	0.824046	0.911956	0.523307
	N260	N	0.464724	0.169319	0.902941
	N261	N	0.540069	0.167998	0.069913
	N262	N	0.463050	0.819987	0.069102
	N263	N	0.539946	0.818170	0.902230
	N264	N	0.465468	0.905897	0.166183
	N265	N	0.536672	0.082206	0.166789
	N266	N	0.466408	0.082262	0.806016
	N267	N	0.538566	0.906023	0.806209
	N268	N	0.911009	0.178434	0.448544
	N269	N	0.087636	0.176391	0.520361
	N270	N	0.088758	0.811416	0.450420
	N271	N	0.910987	0.812409	0.520295
	N272	N	0.175813	0.456745	0.900797
	N273	N	0.172765	0.533018	0.065696
	N274	N	0.829764	0.454468	0.065863
	N275	N	0.826220	0.532526	0.903284
	O276	O	-0.092353	0.053081	0.011511
	H277	H	-0.090825	0.062711	0.003718
	H278	H	-0.094099	0.045180	0.012462
	O279	O	0.570090	0.388486	0.392044
	H280	H	0.572404	0.396356	0.387981
	H281	H	0.570238	0.399003	0.400203
	O282	O	0.420569	-0.456825	-0.574591
	H283	H	0.426082	-0.452839	-0.583320
	H284	H	0.411367	-0.448975	-0.566814
	O285	O	0.093293	1.088639	0.004304
	H286	H	0.092961	1.098474	0.016135
	H287	H	0.074249	1.084826	0.001062
	O288	O	0.498120	0.479709	0.679484
	H289	H	0.500555	0.481554	0.689348
	H290	H	0.514500	0.470298	0.662436
	O291	O	1.466638	0.596775	0.486206
	H292	H	1.456667	0.598749	0.471868
	H293	H	1.445657	0.600708	0.474363
	O294	O	0.988573	0.894785	1.151675
	H295	H	0.986136	0.908155	1.153715
	H296	H	0.977377	0.873288	1.143254
	O297	O	0.044128	0.052969	0.024397
	H298	H	0.056799	0.049762	0.028982
	H299	H	0.043210	0.039335	0.025379
	O300	O	0.488323	0.679026	0.482232
	H301	H	0.479416	0.669434	0.499722
	H302	H	0.488582	0.687504	0.493417
	O303	O	0.003579	0.971357	1.020418
	H304	H	-0.006475	0.956193	1.016765
	H305	H	0.016727	0.984966	1.014891
	O306	O	0.610228	0.510032	0.427950
	H307	H	0.608830	0.505434	0.416949
	H308	H	0.606388	0.512296	0.432031
	O309	O	1.014010	-0.028015	-0.028501
	H310	H	1.028021	-0.019642	-0.037958
	H311	H	1.008415	-0.041603	-0.023797
	O312	O	0.005648	-0.045910	0.822725
	H313	H	0.000292	-0.042155	0.829234
	H314	H	0.014460	-0.060961	0.816578
	O315	O	0.479781	0.399294	0.336052
	H316	H	0.483062	0.409711	0.342458
	H317	H	0.482120	0.389212	0.333288
	O318	O	1.151157	1.016136	0.865990
	H319	H	1.161363	1.018253	0.861522
	H320	H	1.156728	1.010463	0.875594
	O321	O	0.602974	0.630090	0.534214
	H322	H	0.598679	0.619195	0.530215
	H323	H	0.598610	0.628289	0.523502
	O324	O	0.543077	0.569772	0.518729
	H325	H	0.537734	0.561672	0.508752
	H326	H	0.532216	0.573528	0.519198
	O327	O	0.178254	0.978747	0.973091
	H328	H	0.158172	0.984727	0.975885
	H329	H	0.191922	0.984134	0.956251
	O330	O	-0.165657	-0.047516	0.109333
	H331	H	-0.157916	-0.044171	0.112018
	H332	H	-0.163293	-0.048577	0.109205
	O333	O	-0.520511	1.386084	1.585580
	H334	H	-0.523566	1.377956	1.586064
	H335	H	-0.511617	1.396652	1.598041
	O336	O	0.917423	0.937979	0.845838
	H337	H	0.919575	0.934950	0.847075
	H338	H	0.925140	0.928425	0.837661
	O339	O	0.496349	0.562689	0.630036
	H340	H	0.503140	0.562672	0.621140
	H341	H	0.488602	0.564884	0.634874
	O342	O	0.996406	0.010872	-0.052646
	H343	H	0.988103	0.017877	-0.055227
	H344	H	0.995148	0.026258	-0.041903
	O345	O	0.349983	0.546822	0.445607
	H346	H	0.344974	0.545866	0.443426
	H347	H	0.357334	0.537708	0.427546
	O348	O	0.984293	0.941392	1.054541
	H349	H	0.987543	0.944512	1.049661
	H350	H	0.977191	0.936266	1.060968
	O351	O	0.999988	1.090311	0.117617
	H352	H	1.008703	1.094206	0.121691
	H353	H	1.003551	1.094583	0.116073
	O354	O	1.049581	1.000171	1.109983
	H355	H	1.054958	1.010795	1.110156
	H356	H	1.052051	1.003730	1.110968
	O357	O	0.517601	0.558361	0.349827
	H358	H	0.520376	0.546266	0.347583
	H359	H	0.509046	0.558006	0.341112
	O360	O	-0.651181	0.371304	0.601839
	H361	H	-0.653367	0.378385	0.610776
	H362	H	-0.648511	0.371997	0.602903
	O363	O	0.540505	0.430722	0.347618
	H364	H	0.532254	0.432432	0.351074
	H365	H	0.539587	0.417368	0.339785
	O366	O	0.504927	0.502384	0.517648
	H367	H	0.500169	0.506887	0.522252
	H368	H	0.508835	0.495807	0.521229
	O369	O	0.341636	0.550137	0.331914
	H370	H	0.330892	0.550467	0.317398
	H371	H	0.345932	0.567435	0.334355
	O372	O	0.680006	0.501224	0.632346
	H373	H	0.691560	0.497563	0.653620
	H374	H	0.667275	0.521447	0.641839
	O375	O	0.147375	0.813746	0.915073
	H376	H	0.172780	0.819701	0.919787
	H377	H	0.144310	0.808953	0.904514
	O378	O	0.552427	0.344054	0.455632
	H379	H	0.555614	0.351827	0.454205
	H380	H	0.568864	0.344925	0.448433
	O381	O	0.367963	0.454881	0.632667
	H382	H	0.371835	0.445403	0.630679
	H383	H	0.373427	0.445861	0.633850
	O384	O	0.002416	0.900884	0.046522
	H385	H	0.003792	0.906390	0.045948
	H386	H	-0.002049	0.908130	0.036125
	O387	O	0.966274	-0.073023	0.887168
	H388	H	0.979743	-0.075780	0.879739
	H389	H	0.981364	-0.056218	0.880148
	O390	O	0.028218	1.110437	-0.115062
	H391	H	0.017251	1.107054	-0.109962
	H392	H	0.035270	1.101919	-0.124455
	O393	O	0.983006	1.125971	-0.069808
	H394	H	0.979701	1.130235	-0.082431
	H395	H	0.968924	1.112166	-0.061998
	O396	O	0.524534	0.562463	0.542426
	H397	H	0.533718	0.559441	0.536975
	H398	H	0.526949	0.564303	0.536667
	O399	O	0.458951	0.502022	1.405967
	H400	H	0.458792	0.483208	1.405808
	H401	H	0.454723	0.498866	1.407970
	O402	O	0.988860	1.014304	0.956954
	H403	H	0.989686	1.001821	0.948613
	H404	H	0.974724	1.011350	0.949944
	O405	O	0.010302	0.066461	0.905743
	H406	H	0.001484	0.058360	0.907697
	H407	H	-0.008950	0.069708	0.914512
