data_Molecule from HDF5

_cell_length_a		16.674294
_cell_length_b		16.534172
_cell_length_c		16.491241
_cell_angle_alpha	89.954079
_cell_angle_beta	90.137145
_cell_angle_gamma	90.002779
_symmetry_space_group_name_H-M	'P 1'
_symmetry_Int_Tables_number		1

loop_
	_symmetry_equiv_pos_as_xyz
	x,y,z

loop_
	_atom_site_label
	_atom_site_type_symbol
	_atom_site_fract_x
	_atom_site_fract_y
	_atom_site_fract_z
	H0	H	0.398493	0.843155	0.716194
	H1	H	0.602451	0.159720	0.713629
	H2	H	0.603890	0.843277	0.275012
	H3	H	0.393865	0.156314	0.274327
	H4	H	0.723250	0.393972	0.841723
	H5	H	0.723286	0.609356	0.152985
	H6	H	0.278416	0.606408	0.838423
	H7	H	0.280434	0.397626	0.154017
	H8	H	0.843874	0.722415	0.390634
	H9	H	0.153965	0.725471	0.605941
	H10	H	0.845022	0.276968	0.602648
	H11	H	0.153791	0.275906	0.389227
	H12	H	0.844543	0.395704	0.718928
	H13	H	0.155495	0.605879	0.719237
	H14	H	0.843926	0.606006	0.273954
	H15	H	0.153924	0.393975	0.274218
	H16	H	0.395925	0.720871	0.837608
	H17	H	0.604670	0.722319	0.153968
	H18	H	0.604547	0.279825	0.840445
	H19	H	0.398471	0.283200	0.154454
	H20	H	0.722010	0.843530	0.388686
	H21	H	0.719483	0.157816	0.599230
	H22	H	0.277372	0.845167	0.604759
	H23	H	0.276516	0.155593	0.388532
	H24	H	0.893552	0.346137	0.219983
	H25	H	0.103372	0.657896	0.217419
	H26	H	0.102005	0.344269	0.777441
	H27	H	0.893455	0.657560	0.773091
	H28	H	0.223514	0.892108	0.342131
	H29	H	0.222356	0.107141	0.653083
	H30	H	0.780763	0.102746	0.338876
	H31	H	0.778625	0.894678	0.654601
	H32	H	0.342925	0.220521	0.893319
	H33	H	0.653807	0.224634	0.103271
	H34	H	0.343413	0.781693	0.098429
	H35	H	0.654146	0.776670	0.888555
	H36	H	0.344951	0.896107	0.217903
	H37	H	0.654773	0.106991	0.219232
	H38	H	0.343550	0.104377	0.775668
	H39	H	0.657911	0.898220	0.777586
	H40	H	0.898580	0.217795	0.338620
	H41	H	0.104368	0.221218	0.653698
	H42	H	0.105136	0.779281	0.340336
	H43	H	0.896693	0.780756	0.655616
	H44	H	0.219554	0.344757	0.892298
	H45	H	0.220481	0.658012	0.101953
	H46	H	0.776237	0.346975	0.104273
	H47	H	0.774456	0.656591	0.885509
	H48	H	0.413741	0.112565	0.586182
	H49	H	0.590652	0.887306	0.585719
	H50	H	0.594978	0.114538	0.408142
	H51	H	0.413621	0.889295	0.407726
	H52	H	0.590976	0.411707	0.111438
	H53	H	0.590730	0.585367	0.884925
	H54	H	0.408461	0.586267	0.107778
	H55	H	0.406316	0.409841	0.881459
	H56	H	0.109489	0.589337	0.410734
	H57	H	0.888879	0.591496	0.584679
	H58	H	0.107789	0.411800	0.579111
	H59	H	0.890470	0.413942	0.409242
	H60	H	0.110716	0.415895	0.590626
	H61	H	0.890439	0.589153	0.582383
	H62	H	0.110649	0.588737	0.405591
	H63	H	0.887239	0.410686	0.405277
	H64	H	0.414381	0.591740	0.107843
	H65	H	0.584474	0.587783	0.886895
	H66	H	0.589553	0.419075	0.108125
	H67	H	0.407347	0.414945	0.883620
	H68	H	0.587616	0.112470	0.404147
	H69	H	0.589767	0.887956	0.587687
	H70	H	0.409412	0.112582	0.580817
	H71	H	0.411897	0.890396	0.412530
	H72	H	0.918376	0.613016	0.088577
	H73	H	0.090321	0.387593	0.088522
	H74	H	0.090269	0.613830	0.910471
	H75	H	0.911149	0.389409	0.906969
	H76	H	0.090319	0.911269	0.610751
	H77	H	0.087801	0.082818	0.387105
	H78	H	0.912087	0.087481	0.608891
	H79	H	0.912227	0.915357	0.386769
	H80	H	0.611321	0.092436	0.908464
	H81	H	0.388767	0.087128	0.086414
	H82	H	0.609209	0.917571	0.084821
	H83	H	0.386539	0.909965	0.901318
	H84	H	0.613534	0.910580	0.089447
	H85	H	0.386737	0.092753	0.088115
	H86	H	0.611925	0.090907	0.905554
	H87	H	0.390143	0.909399	0.911570
	H88	H	0.909315	0.092853	0.611534
	H89	H	0.083776	0.089776	0.384856
	H90	H	0.089586	0.917039	0.607786
	H91	H	0.911530	0.906987	0.382943
	H92	H	0.090166	0.615526	0.906882
	H93	H	0.088468	0.389786	0.084741
	H94	H	0.914423	0.609474	0.076457
	H95	H	0.912646	0.390886	0.910774
	H96	H	0.407179	0.114231	0.587204
	H97	H	0.588679	0.888556	0.585722
	H98	H	0.588805	0.110177	0.412125
	H99	H	0.408711	0.887463	0.409720
	H100	H	0.584339	0.412858	0.107130
	H101	H	0.588580	0.591701	0.883514
	H102	H	0.407453	0.593612	0.111264
	H103	H	0.411517	0.411094	0.883515
	H104	H	0.112055	0.593284	0.407960
	H105	H	0.889051	0.588119	0.585681
	H106	H	0.113316	0.404330	0.587440
	H107	H	0.888884	0.408033	0.410582
	H108	H	0.906398	0.615574	0.084565
	H109	H	0.092791	0.388237	0.084260
	H110	H	0.087033	0.613395	0.908170
	H111	H	0.908862	0.390183	0.910624
	H112	H	0.084092	0.913218	0.607785
	H113	H	0.092013	0.088748	0.382949
	H114	H	0.905784	0.087129	0.610980
	H115	H	0.904401	0.912785	0.383749
	H116	H	0.612881	0.093987	0.905881
	H117	H	0.389553	0.091990	0.082235
	H118	H	0.611145	0.909582	0.080972
	H119	H	0.391073	0.918692	0.905800
	C120	C	0.378644	0.009537	0.617754
	C121	C	0.621089	0.992064	0.617520
	C122	C	0.621640	0.008519	0.375369
	C123	C	0.379139	0.992184	0.376559
	C124	C	0.620851	0.380997	0.005375
	C125	C	0.621184	0.622293	0.988332
	C126	C	0.378052	0.622745	0.004532
	C127	C	0.377819	0.380436	0.987430
	C128	C	0.007813	0.622709	0.375283
	C129	C	0.991833	0.622212	0.617697
	C130	C	0.008006	0.378394	0.618475
	C131	C	0.991389	0.378707	0.375662
	C132	C	0.879802	0.509792	0.116611
	C133	C	0.122125	0.492350	0.118732
	C134	C	0.120346	0.510092	0.876439
	C135	C	0.877641	0.492854	0.875078
	C136	C	0.120979	0.879955	0.505588
	C137	C	0.120719	0.120797	0.488474
	C138	C	0.878608	0.120663	0.505783
	C139	C	0.877722	0.878995	0.488507
	C140	C	0.508549	0.123599	0.874637
	C141	C	0.491016	0.122806	0.118479
	C142	C	0.508266	0.880053	0.117367
	C143	C	0.492016	0.880010	0.874405
	C144	C	0.378312	0.890883	0.677360
	C145	C	0.621490	0.111689	0.674824
	C146	C	0.622750	0.890280	0.315152
	C147	C	0.375989	0.109504	0.315035
	C148	C	0.682144	0.376653	0.888187
	C149	C	0.682466	0.626426	0.106029
	C150	C	0.318535	0.624602	0.885821
	C151	C	0.320052	0.379284	0.106677
	C152	C	0.890763	0.682604	0.372462
	C153	C	0.107916	0.684020	0.622699
	C154	C	0.890953	0.317977	0.621002
	C155	C	0.107420	0.317038	0.371830
	C156	C	0.891035	0.376432	0.678729
	C157	C	0.108494	0.624715	0.679397
	C158	C	0.890797	0.624509	0.314519
	C159	C	0.107662	0.375570	0.314512
	C160	C	0.377151	0.681436	0.885370
	C161	C	0.623373	0.682681	0.106498
	C162	C	0.623466	0.319792	0.887591
	C163	C	0.378575	0.322321	0.107013
	C164	C	0.681615	0.890460	0.371818
	C165	C	0.679944	0.110752	0.618243
	C166	C	0.318447	0.891938	0.621741
	C167	C	0.317807	0.109170	0.372087
	C168	C	0.876049	0.392492	0.178538
	C169	C	0.122693	0.610596	0.177905
	C170	C	0.121436	0.391565	0.816991
	C171	C	0.874797	0.610372	0.813173
	C172	C	0.182775	0.875197	0.388692
	C173	C	0.181542	0.124280	0.606239
	C174	C	0.820534	0.121676	0.386473
	C175	C	0.818630	0.876505	0.607324
	C176	C	0.390084	0.181361	0.874028
	C177	C	0.607514	0.183884	0.121502
	C178	C	0.390565	0.820707	0.118185
	C179	C	0.608313	0.818423	0.871339
	C180	C	0.391394	0.877401	0.177449
	C181	C	0.607850	0.125395	0.179274
	C182	C	0.390758	0.123863	0.815398
	C183	C	0.610075	0.878788	0.815816
	C184	C	0.878946	0.178856	0.386238
	C185	C	0.123013	0.181143	0.606459
	C186	C	0.123824	0.819163	0.387734
	C187	C	0.877388	0.819914	0.607763
	C188	C	0.179785	0.391868	0.874051
	C189	C	0.180940	0.610752	0.120657
	C190	C	0.817809	0.393104	0.121255
	C191	C	0.815594	0.609724	0.869357
	C192	C	0.403031	0.091737	0.592111
	C193	C	0.596830	0.909441	0.593071
	C194	C	0.597440	0.090922	0.400825
	C195	C	0.404460	0.910413	0.402515
	C196	C	0.595433	0.407160	0.087348
	C197	C	0.595350	0.595927	0.906392
	C198	C	0.402862	0.597714	0.087295
	C199	C	0.401663	0.404872	0.904374
	C200	C	0.089532	0.597654	0.400877
	C201	C	0.910471	0.596923	0.591570
	C202	C	0.089332	0.403404	0.593107
	C203	C	0.910026	0.403982	0.401071
	C204	C	0.905729	0.591273	0.090582
	C205	C	0.097487	0.409792	0.093340
	C206	C	0.095872	0.592718	0.901397
	C207	C	0.903546	0.411309	0.901751
	C208	C	0.095237	0.906241	0.587567
	C209	C	0.095257	0.094640	0.406331
	C210	C	0.902322	0.096146	0.588851
	C211	C	0.902180	0.904400	0.406086
	C212	C	0.590800	0.099469	0.899502
	C213	C	0.409316	0.097621	0.093036
	C214	C	0.590231	0.905255	0.092237
	C215	C	0.410287	0.905301	0.899423
	Zn216	Zn	0.500955	0.001400	0.746156
	Zn217	Zn	0.499466	0.000517	0.247345
	Zn218	Zn	0.749873	0.502137	-0.003101
	Zn219	Zn	0.249380	0.501772	-0.003199
	Zn220	Zn	-0.000064	0.751892	0.496642
	Zn221	Zn	-0.000540	0.249263	0.496630
	Zn222	Zn	-0.000623	0.501195	0.747411
	Zn223	Zn	-0.000142	0.500819	0.246671
	Zn224	Zn	0.499969	0.750941	-0.003864
	Zn225	Zn	0.499403	0.252276	-0.003205
	Zn226	Zn	0.749639	-0.000317	0.497054
	Zn227	Zn	0.249490	0.000224	0.496478
	N228	N	0.415073	0.965271	0.675294
	N229	N	0.585862	0.036907	0.674693
	N230	N	0.586357	0.964847	0.316959
	N231	N	0.413693	0.035668	0.317761
	N232	N	0.680734	0.413901	0.962541
	N233	N	0.681277	0.589709	0.031316
	N234	N	0.318890	0.588843	0.961070
	N235	N	0.319347	0.414417	0.031204
	N236	N	0.964751	0.681766	0.409196
	N237	N	0.034399	0.682412	0.584915
	N238	N	0.964706	0.318912	0.584463
	N239	N	0.034019	0.318861	0.409043
	N240	N	0.964806	0.413293	0.677365
	N241	N	0.035235	0.586901	0.676418
	N242	N	0.964950	0.588254	0.315875
	N243	N	0.034257	0.413162	0.316548
	N244	N	0.413409	0.680554	0.960241
	N245	N	0.585876	0.680214	0.032225
	N246	N	0.586097	0.322240	0.961611
	N247	N	0.413500	0.322635	0.031695
	N248	N	0.681187	0.965049	0.408373
	N249	N	0.679988	0.035264	0.583385
	N250	N	0.318318	0.966634	0.585653
	N251	N	0.319695	0.035269	0.409764
	N252	N	0.914338	0.465863	0.175538
	N253	N	0.087159	0.535623	0.177126
	N254	N	0.085052	0.466135	0.818380
	N255	N	0.912749	0.536717	0.816570
	N256	N	0.181265	0.912116	0.463194
	N257	N	0.180497	0.087772	0.531611
	N258	N	0.819860	0.086467	0.461944
	N259	N	0.818468	0.912176	0.532004
	N260	N	0.464572	0.181552	0.910014
	N261	N	0.533813	0.182287	0.084246
	N262	N	0.464552	0.821998	0.081838
	N263	N	0.534002	0.819090	0.907006
	N264	N	0.465693	0.913228	0.177191
	N265	N	0.534336	0.088052	0.177362
	N266	N	0.465437	0.089007	0.815517
	N267	N	0.536688	0.916609	0.817733
	N268	N	0.914187	0.178359	0.461477
	N269	N	0.085777	0.178978	0.532212
	N270	N	0.086072	0.821979	0.461469
	N271	N	0.913143	0.820985	0.532686
	N272	N	0.179285	0.466619	0.910060
	N273	N	0.180689	0.535939	0.084728
	N274	N	0.820351	0.466968	0.083390
	N275	N	0.817257	0.535631	0.907152
	O276	O	-0.057853	0.772029	-0.058912
	H277	H	-0.060784	0.776649	-0.072162
	H278	H	-0.051343	0.774660	-0.056339
	O279	O	0.533702	0.632738	0.650445
	H280	H	0.519982	0.620684	0.653974
	H281	H	0.524792	0.628986	0.666934
	O282	O	0.810230	0.191560	1.183513
	H283	H	0.840329	0.182437	1.170186
	H284	H	0.816242	0.161829	1.161436
	O285	O	0.193609	0.187328	0.195892
	H286	H	0.205852	0.173208	0.183025
	H287	H	0.185941	0.178685	0.172138
	O288	O	0.344372	0.701211	0.619278
	H289	H	0.344231	0.692177	0.587996
	H290	H	0.355222	0.689884	0.638968
	O291	O	0.280352	0.284707	0.524317
	H292	H	0.275252	0.269895	0.540355
	H293	H	0.280085	0.275863	0.540150
	O294	O	1.176806	-0.112597	0.911504
	H295	H	1.165506	-0.121977	0.917890
	H296	H	1.170692	-0.119906	0.921375
	O297	O	0.442325	0.475385	0.298830
	H298	H	0.430020	0.479045	0.286028
	H299	H	0.440070	0.466220	0.315607
	O300	O	-0.208500	0.041687	0.790715
	H301	H	-0.203912	0.044382	0.787995
	H302	H	-0.218386	0.033974	0.779742
	O303	O	0.561555	0.441478	0.714373
	H304	H	0.555748	0.438788	0.710346
	H305	H	0.557738	0.431519	0.708751
	O306	O	0.711799	0.291097	0.290846
	H307	H	0.685872	0.299760	0.297739
	H308	H	0.742205	0.259584	0.256408
	O309	O	0.724254	0.726484	0.525783
	H310	H	0.735740	0.735250	0.555633
	H311	H	0.737761	0.741392	0.545957
	O312	O	0.713740	0.526483	0.708246
	H313	H	0.726655	0.519094	0.721760
	H314	H	0.698418	0.515704	0.710514
	O315	O	0.937577	1.121925	0.921398
	H316	H	0.939163	1.124868	0.934592
	H317	H	0.933925	1.119177	0.920325
	O318	O	0.545290	0.328702	0.344185
	H319	H	0.562663	0.320792	0.335567
	H320	H	0.537325	0.329821	0.334555
	O321	O	0.034351	0.792195	0.791230
	H322	H	0.024739	0.796030	0.786792
	H323	H	0.038887	0.787586	0.780443
	O324	O	0.778953	0.971030	0.213764
	H325	H	0.787422	0.958494	0.204703
	H326	H	0.750108	0.975632	0.239523
	O327	O	0.006869	0.210371	1.174178
	H328	H	0.017037	0.203798	1.184144
	H329	H	0.025811	0.209290	1.181967
	O330	O	0.722286	0.282607	0.463047
	H331	H	0.734148	0.264508	0.448598
	H332	H	0.717304	0.268630	0.445774
	O333	O	0.459811	0.284782	0.717161
	H334	H	0.448277	0.267085	0.733045
	H335	H	0.458532	0.275570	0.717240
	O336	O	0.438685	0.631439	0.460872
	H337	H	0.451400	0.631471	0.449056
	H338	H	0.441677	0.626770	0.453581
	O339	O	0.827752	-0.093642	0.857183
	H340	H	0.834391	-0.095503	0.853092
	H341	H	0.826568	-0.107849	0.857538
	O342	O	0.044499	0.224693	0.030684
	H343	H	0.026642	0.224299	0.026802
	H344	H	0.035814	0.234690	0.034108
	O345	O	0.217610	0.786955	0.960744
	H346	H	0.218170	0.774593	0.967713
	H347	H	0.226332	0.770320	0.945151
	O348	O	0.285820	-0.289785	0.283909
	H349	H	0.300738	-0.317533	0.287951
	H350	H	0.314158	-0.286771	0.303652
	O351	O	0.811006	0.811112	0.182341
	H352	H	0.799194	0.797582	0.172291
	H353	H	0.805988	0.830720	0.173863
	O354	O	0.190312	0.162631	0.832305
	H355	H	0.183030	0.147917	0.848398
	H356	H	0.171452	0.159932	0.846193
	O357	O	0.683220	0.538723	0.311472
	H358	H	0.684204	0.527127	0.315068
	H359	H	0.696213	0.532526	0.312707
	O360	O	0.289545	0.297468	0.701490
	H361	H	0.308405	0.324557	0.707863
	H362	H	0.264692	0.270047	0.714805
	O363	O	-0.032428	-0.219772	0.217551
	H364	H	-0.059659	-0.224312	0.220252
	H365	H	-0.050573	-0.233963	0.234849
	O366	O	0.710409	0.624747	0.380831
	H367	H	0.701324	0.624363	0.384676
	H368	H	0.704156	0.623246	0.401145
	O369	O	0.577440	0.466516	0.290012
	H370	H	0.580619	0.457309	0.281908
	H371	H	0.575514	0.455849	0.288749
	O372	O	0.778516	0.780979	0.019871
	H373	H	0.794687	0.787177	0.019985
	H374	H	0.756500	0.755987	0.024903
	O375	O	0.768904	0.035148	0.030832
	H376	H	0.774889	0.026550	0.028126
	H377	H	0.762771	0.031238	0.025863
	O378	O	0.504078	0.287365	0.485343
	H379	H	0.496924	0.283074	0.472309
	H380	H	0.492818	0.286933	0.479087
	O381	O	0.091982	1.213509	0.921331
	H382	H	0.069669	1.213302	0.917322
	H383	H	0.076095	1.216069	0.934438
	O384	O	1.188479	-0.179793	1.182965
	H385	H	1.190402	-0.185196	1.185059
	H386	H	1.194860	-0.200878	1.189589
	O387	O	0.923353	1.026847	0.117184
	H388	H	0.930295	1.028554	0.100651
	H389	H	0.925957	1.011761	0.124564
	O390	O	0.529178	0.565649	0.522582
	H391	H	0.517272	0.568744	0.516276
	H392	H	0.530320	0.562717	0.515475
	O393	O	0.462167	0.719857	0.277792
	H394	H	0.482758	0.720773	0.268119
	H395	H	0.478387	0.739890	0.277896
	O396	O	0.017134	0.955452	1.219086
	H397	H	0.029948	0.940254	1.223618
	H398	H	0.007648	0.937638	1.218443
	O399	O	-0.123670	-0.070566	1.022861
	H400	H	-0.122128	-0.066500	1.034805
	H401	H	-0.134175	-0.085853	1.015214
	O402	O	0.527745	0.453642	0.374380
	H403	H	0.521586	0.444497	0.367204
	H404	H	0.541689	0.446925	0.377714
	O405	O	1.050828	-0.173071	1.087069
	H406	H	1.060109	-0.172675	1.105708
	H407	H	1.044255	-0.173833	1.088874
	O408	O	0.034279	-0.020624	-0.109020
	H409	H	0.028308	-0.024991	-0.111681
	H410	H	0.049381	-0.014216	-0.111428
	O411	O	0.263650	0.540646	0.548478
	H412	H	0.252219	0.543255	0.546709
	H413	H	0.267452	0.550278	0.541781
	O414	O	0.688233	0.315314	0.686088
	H415	H	0.687326	0.320043	0.672477
	H416	H	0.681676	0.330184	0.672975
	O417	O	0.281620	0.699928	0.480514
	H418	H	0.295451	0.713157	0.470514
	H419	H	0.280275	0.706509	0.468434
	O420	O	0.291035	0.465452	0.704315
	H421	H	0.269973	0.466720	0.715599
	H422	H	0.297336	0.453798	0.684990
	O423	O	0.258495	-0.253251	0.743995
	H424	H	0.239949	-0.237237	0.743878
	H425	H	0.270858	-0.275750	0.732293
	O426	O	0.302784	0.302611	0.302175
	H427	H	0.287300	0.305580	0.316043
	H428	H	0.300638	0.297054	0.295458
	O429	O	0.975815	1.213145	0.781859
	H430	H	0.944842	1.212191	0.785574
	H431	H	0.966830	1.225278	0.764487
	O432	O	0.729170	0.499845	0.496926
	H433	H	0.736705	0.510246	0.503978
	H434	H	0.728870	0.482781	0.490853
	O435	O	0.052634	1.054487	-0.221209
	H436	H	0.064989	1.051318	-0.221135
	H437	H	0.044030	1.071228	-0.223737
	O438	O	0.117967	0.028659	0.069085
	H439	H	0.118119	0.027578	0.067572
	H440	H	0.125159	0.038018	0.067545
	O441	O	-0.026522	-0.043447	-0.018264
	H442	H	-0.018258	-0.038138	-0.020453
	H443	H	-0.016086	-0.056876	-0.012340
	O444	O	0.642849	0.357696	0.547306
	H445	H	0.638441	0.357397	0.544079
	H446	H	0.644874	0.338425	0.546280
	O447	O	0.173527	1.041429	0.951612
	H448	H	0.185393	1.045019	0.951025
	H449	H	0.178772	1.036324	0.948339
	O450	O	0.223595	1.174786	1.006796
	H451	H	0.219767	1.166643	1.007427
	H452	H	0.231426	1.198935	1.002427
	O453	O	0.435498	0.560227	0.717635
	H454	H	0.418950	0.537635	0.724636
	H455	H	0.426803	0.544872	0.708468
	O456	O	0.166206	-0.032143	0.850854
	H457	H	0.167334	-0.048127	0.852014
	H458	H	0.177480	-0.047372	0.847515
	O459	O	0.962917	0.992727	-0.003915
	H460	H	0.973363	0.985152	0.001937
	H461	H	0.955046	0.989203	0.000741
	O462	O	0.516388	0.715327	0.572416
	H463	H	0.509624	0.709354	0.581569
	H464	H	0.516611	0.716712	0.580485
	O465	O	1.187762	0.013281	0.122975
	H466	H	1.189357	-0.003775	0.121850
	H467	H	1.191361	0.010141	0.131081
	O468	O	0.281058	0.530074	0.280873
	H469	H	0.265438	0.534373	0.267334
	H470	H	0.277410	0.530443	0.285577
	O471	O	0.459341	0.340658	0.437734
	H472	H	0.454428	0.335300	0.441911
	H473	H	0.455322	0.349632	0.423851
	O474	O	0.283810	0.442505	0.439689
	H475	H	0.281720	0.450337	0.442011
	H476	H	0.283724	0.413968	0.448968
	O477	O	0.548209	0.659194	1.431116
	H478	H	0.556612	0.670430	1.443955
	H479	H	0.556196	0.636618	1.438277
	O480	O	0.512154	0.435204	0.517605
	H481	H	0.522411	0.425535	0.513688
	H482	H	0.509501	0.432708	0.507908
	O483	O	0.701767	0.705244	0.703184
	H484	H	0.676454	0.685632	0.701226
	H485	H	0.683271	0.679388	0.710068
	O486	O	0.791077	0.208778	0.787622
	H487	H	0.800044	0.196403	0.811450
	H488	H	0.770108	0.212865	0.768832
	O489	O	0.779809	1.186845	-0.013558
	H490	H	0.754113	1.191331	-0.020481
	H491	H	0.794680	1.186381	-0.033150
