data_Molecule from HDF5

_cell_length_a		16.254812
_cell_length_b		16.179741
_cell_length_c		16.261899
_cell_angle_alpha	90.142286
_cell_angle_beta	89.412802
_cell_angle_gamma	89.820842
_symmetry_space_group_name_H-M	'P 1'
_symmetry_Int_Tables_number		1

loop_
	_symmetry_equiv_pos_as_xyz
	x,y,z

loop_
	_atom_site_label
	_atom_site_type_symbol
	_atom_site_fract_x
	_atom_site_fract_y
	_atom_site_fract_z
	H0	H	0.388605	0.831698	0.706093
	H1	H	0.588147	0.159597	0.705406
	H2	H	0.591048	0.831262	0.272207
	H3	H	0.390793	0.159888	0.278236
	H4	H	0.707859	0.395267	0.830849
	H5	H	0.698157	0.595025	0.158059
	H6	H	0.272683	0.593003	0.830528
	H7	H	0.273129	0.394277	0.156587
	H8	H	0.824392	0.708185	0.400657
	H9	H	0.151060	0.708850	0.595930
	H10	H	0.825108	0.277164	0.597822
	H11	H	0.152483	0.278426	0.395726
	H12	H	0.825417	0.395143	0.713229
	H13	H	0.152650	0.592202	0.708188
	H14	H	0.824038	0.593524	0.283770
	H15	H	0.150435	0.389207	0.276111
	H16	H	0.389820	0.707494	0.827782
	H17	H	0.583946	0.712482	0.155253
	H18	H	0.588821	0.283130	0.827259
	H19	H	0.387823	0.279059	0.155436
	H20	H	0.707459	0.831314	0.387033
	H21	H	0.702877	0.159581	0.586962
	H22	H	0.273853	0.830819	0.591270
	H23	H	0.271526	0.157712	0.390504
	H24	H	0.886908	0.329121	0.211509
	H25	H	0.084491	0.657497	0.210713
	H26	H	0.091109	0.330444	0.778035
	H27	H	0.887624	0.658116	0.779769
	H28	H	0.206550	0.890387	0.329801
	H29	H	0.203808	0.093932	0.654101
	H30	H	0.779188	0.094381	0.328414
	H31	H	0.765733	0.891349	0.653180
	H32	H	0.324723	0.211292	0.892559
	H33	H	0.652068	0.209449	0.086707
	H34	H	0.324068	0.784718	0.089659
	H35	H	0.651657	0.778017	0.887792
	H36	H	0.327219	0.895747	0.209741
	H37	H	0.651396	0.098489	0.205106
	H38	H	0.324762	0.095691	0.776543
	H39	H	0.652169	0.894884	0.772287
	H40	H	0.888480	0.212126	0.332211
	H41	H	0.085651	0.205469	0.656651
	H42	H	0.090833	0.774749	0.332309
	H43	H	0.888030	0.782927	0.659389
	H44	H	0.203930	0.330179	0.896306
	H45	H	0.201035	0.658847	0.094433
	H46	H	0.770580	0.330742	0.096307
	H47	H	0.775215	0.658974	0.897914
	H48	H	0.394629	0.113220	0.583007
	H49	H	0.578133	0.881622	0.573538
	H50	H	0.589963	0.115990	0.393355
	H51	H	0.393870	0.876430	0.397543
	H52	H	0.579228	0.400716	0.110144
	H53	H	0.586490	0.583499	0.876255
	H54	H	0.396610	0.591808	0.109086
	H55	H	0.391368	0.398682	0.872409
	H56	H	0.104905	0.582514	0.399961
	H57	H	0.868076	0.591553	0.596701
	H58	H	0.108289	0.406815	0.602054
	H59	H	0.868960	0.397490	0.400612
	H60	H	0.109171	0.383931	0.584737
	H61	H	0.872725	0.589347	0.582142
	H62	H	0.105365	0.585307	0.402378
	H63	H	0.872980	0.399660	0.411274
	H64	H	0.391863	0.589693	0.110544
	H65	H	0.580301	0.584012	0.877535
	H66	H	0.578944	0.403922	0.108326
	H67	H	0.393914	0.409085	0.877151
	H68	H	0.577904	0.110998	0.393145
	H69	H	0.584889	0.875961	0.581633
	H70	H	0.398199	0.111383	0.583092
	H71	H	0.402333	0.877675	0.393766
	H72	H	0.891397	0.609140	0.081622
	H73	H	0.078874	0.375252	0.092354
	H74	H	0.087272	0.612252	0.908575
	H75	H	0.895693	0.377848	0.908183
	H76	H	0.073705	0.903449	0.607134
	H77	H	0.081019	0.080756	0.377193
	H78	H	0.883678	0.078337	0.611840
	H79	H	0.900127	0.899851	0.377537
	H80	H	0.605783	0.091247	0.896289
	H81	H	0.372794	0.085404	0.084086
	H82	H	0.601507	0.910368	0.073106
	H83	H	0.368811	0.900366	0.890726
	H84	H	0.607035	0.907102	0.088603
	H85	H	0.370552	0.087739	0.087705
	H86	H	0.602999	0.085148	0.900974
	H87	H	0.372182	0.898237	0.902940
	H88	H	0.904204	0.076339	0.604547
	H89	H	0.078283	0.088999	0.374991
	H90	H	0.085825	0.895011	0.614114
	H91	H	0.900058	0.900497	0.377982
	H92	H	0.082414	0.614298	0.894231
	H93	H	0.077967	0.378713	0.082505
	H94	H	0.886646	0.615181	0.097460
	H95	H	0.898391	0.377196	0.900412
	H96	H	0.396245	0.111733	0.580552
	H97	H	0.573772	0.879795	0.583765
	H98	H	0.583903	0.109895	0.403929
	H99	H	0.401429	0.879316	0.402806
	H100	H	0.576573	0.401917	0.108485
	H101	H	0.583382	0.588651	0.875310
	H102	H	0.395439	0.586978	0.108707
	H103	H	0.402649	0.401167	0.877535
	H104	H	0.103728	0.582352	0.403590
	H105	H	0.873080	0.577048	0.591503
	H106	H	0.099025	0.407741	0.574301
	H107	H	0.873450	0.407440	0.403357
	H108	H	0.903205	0.609407	0.094484
	H109	H	0.086998	0.374023	0.086601
	H110	H	0.072727	0.607683	0.905224
	H111	H	0.902948	0.379643	0.905269
	H112	H	0.087803	0.909720	0.609978
	H113	H	0.086303	0.087138	0.372700
	H114	H	0.897743	0.096058	0.612342
	H115	H	0.900959	0.899948	0.377160
	H116	H	0.605114	0.084207	0.892780
	H117	H	0.371994	0.089903	0.083714
	H118	H	0.606693	0.894231	0.077250
	H119	H	0.373029	0.909332	0.898606
	C120	C	0.367072	0.003892	0.611953
	C121	C	0.609141	0.987030	0.609791
	C122	C	0.613354	0.003899	0.366628
	C123	C	0.369151	0.986441	0.369642
	C124	C	0.609752	0.373359	0.001134
	C125	C	0.609703	0.616152	0.984345
	C126	C	0.366221	0.616955	0.001420
	C127	C	0.366871	0.373330	0.983993
	C128	C	-0.003463	0.613905	0.374822
	C129	C	0.979533	0.615276	0.618162
	C130	C	-0.002820	0.371277	0.617318
	C131	C	0.979415	0.371379	0.374314
	C132	C	0.864658	0.502724	0.119224
	C133	C	0.109394	0.484819	0.116596
	C134	C	0.110480	0.502913	0.872986
	C135	C	0.868700	0.486169	0.874961
	C136	C	0.111814	0.871282	0.502453
	C137	C	0.110189	0.114512	0.483188
	C138	C	0.867390	0.114441	0.501826
	C139	C	0.868219	0.871995	0.485079
	C140	C	0.496604	0.116672	0.868904
	C141	C	0.479924	0.117296	0.112443
	C142	C	0.497438	0.875185	0.110791
	C143	C	0.479563	0.872873	0.867388
	C144	C	0.368555	0.880555	0.668031
	C145	C	0.607937	0.110555	0.666542
	C146	C	0.611562	0.880527	0.310090
	C147	C	0.370248	0.110302	0.315102
	C148	C	0.668565	0.375176	0.878956
	C149	C	0.662041	0.615342	0.108344
	C150	C	0.310895	0.613553	0.878549
	C151	C	0.310690	0.374128	0.107333
	C152	C	0.873396	0.670093	0.379350
	C153	C	0.102424	0.670736	0.615966
	C154	C	0.874124	0.315523	0.617045
	C155	C	0.102962	0.315575	0.374920
	C156	C	0.874182	0.374091	0.674437
	C157	C	0.103137	0.612688	0.671916
	C158	C	0.873281	0.613039	0.320966
	C159	C	0.102052	0.370956	0.315796
	C160	C	0.369043	0.670292	0.877199
	C161	C	0.605268	0.673840	0.106840
	C162	C	0.609445	0.319135	0.877285
	C163	C	0.367989	0.316963	0.106621
	C164	C	0.669304	0.880432	0.367235
	C165	C	0.665006	0.110483	0.607877
	C166	C	0.311192	0.880368	0.611105
	C167	C	0.311021	0.109137	0.370936
	C168	C	0.866589	0.378708	0.173868
	C169	C	0.105608	0.608581	0.172519
	C170	C	0.109733	0.379410	0.816830
	C171	C	0.868792	0.609287	0.818609
	C172	C	0.168192	0.871129	0.379202
	C173	C	0.165693	0.113428	0.605687
	C174	C	0.814949	0.113860	0.378109
	C175	C	0.807090	0.872769	0.606201
	C176	C	0.373667	0.173057	0.871971
	C177	C	0.602996	0.172575	0.108263
	C178	C	0.373711	0.820933	0.110082
	C179	C	0.602624	0.815957	0.867772
	C180	C	0.375322	0.876268	0.169846
	C181	C	0.602804	0.117007	0.166913
	C182	C	0.373456	0.115592	0.814385
	C183	C	0.602782	0.874211	0.810315
	C184	C	0.869270	0.172814	0.380203
	C185	C	0.106901	0.168844	0.607076
	C186	C	0.110747	0.813333	0.380633
	C187	C	0.867921	0.818717	0.609277
	C188	C	0.166228	0.379220	0.875494
	C189	C	0.163736	0.609050	0.114841
	C190	C	0.808619	0.379482	0.116651
	C191	C	0.812821	0.609830	0.877365
	C192	C	0.389865	0.089905	0.589039
	C193	C	0.585792	0.901277	0.586538
	C194	C	0.590526	0.090054	0.389838
	C195	C	0.392449	0.900077	0.391633
	C196	C	0.585359	0.395681	0.086848
	C197	C	0.589217	0.592300	0.898557
	C198	C	0.388159	0.595833	0.087094
	C199	C	0.389365	0.396469	0.898001
	C200	C	0.082360	0.590477	0.395908
	C201	C	0.893540	0.592613	0.596295
	C202	C	0.083294	0.393072	0.593758
	C203	C	0.893899	0.394722	0.398153
	C204	C	0.887163	0.588748	0.097753
	C205	C	0.087769	0.398565	0.093979
	C206	C	0.087452	0.589066	0.895947
	C207	C	0.892133	0.400301	0.897888
	C208	C	0.088919	0.895596	0.588208
	C209	C	0.088277	0.092194	0.397296
	C210	C	0.888796	0.090475	0.587403
	C211	C	0.893076	0.893640	0.399673
	C212	C	0.582348	0.093536	0.890165
	C213	C	0.394039	0.094282	0.091347
	C214	C	0.582915	0.897427	0.086582
	C215	C	0.393481	0.895833	0.890679
	Zn216	Zn	0.488252	-0.004329	0.739762
	Zn217	Zn	0.490093	-0.004002	0.240510
	Zn218	Zn	0.738905	0.494634	-0.004771
	Zn219	Zn	0.238691	0.494769	-0.005521
	Zn220	Zn	-0.010903	0.743074	0.496684
	Zn221	Zn	-0.011601	0.241843	0.494356
	Zn222	Zn	-0.011125	0.494464	0.745304
	Zn223	Zn	-0.012297	0.492572	0.246175
	Zn224	Zn	0.487882	0.745381	-0.009512
	Zn225	Zn	0.488194	0.244752	-0.009045
	Zn226	Zn	0.739877	-0.005765	0.489859
	Zn227	Zn	0.239364	-0.005800	0.490802
	N228	N	0.402488	0.958315	0.668861
	N229	N	0.574046	0.032686	0.667913
	N230	N	0.577738	0.958500	0.309428
	N231	N	0.405894	0.033014	0.314312
	N232	N	0.669038	0.407882	0.957047
	N233	N	0.665123	0.580297	0.031171
	N234	N	0.308933	0.580970	0.956685
	N235	N	0.309652	0.408347	0.029931
	N236	N	0.951265	0.670939	0.411819
	N237	N	0.024545	0.672606	0.583500
	N238	N	0.951697	0.313420	0.582123
	N239	N	0.025910	0.315638	0.410717
	N240	N	0.951725	0.407629	0.674745
	N241	N	0.025616	0.578983	0.673330
	N242	N	0.950823	0.578691	0.318189
	N243	N	0.024251	0.404783	0.315226
	N244	N	0.402584	0.672641	0.954422
	N245	N	0.573638	0.674632	0.028743
	N246	N	0.573502	0.317928	0.954202
	N247	N	0.402229	0.316363	0.028900
	N248	N	0.670790	0.958272	0.401482
	N249	N	0.665697	0.032767	0.573215
	N250	N	0.310141	0.958080	0.576996
	N251	N	0.310195	0.031011	0.404045
	N252	N	0.900687	0.456328	0.175756
	N253	N	0.072897	0.530372	0.173942
	N254	N	0.075811	0.457470	0.815248
	N255	N	0.902837	0.531470	0.817104
	N256	N	0.169095	0.906494	0.456128
	N257	N	0.167878	0.080447	0.527797
	N258	N	0.813473	0.078356	0.454865
	N259	N	0.806993	0.905101	0.528080
	N260	N	0.451306	0.173940	0.904946
	N261	N	0.525527	0.172795	0.075285
	N262	N	0.450704	0.820030	0.074041
	N263	N	0.524946	0.814874	0.902169
	N264	N	0.453159	0.909093	0.170511
	N265	N	0.525315	0.083196	0.169747
	N266	N	0.450813	0.080896	0.812526
	N267	N	0.525320	0.908769	0.810091
	N268	N	0.901135	0.173313	0.458186
	N269	N	0.073164	0.169751	0.529760
	N270	N	0.076744	0.813265	0.458454
	N271	N	0.905037	0.817928	0.532916
	N272	N	0.166849	0.457129	0.909621
	N273	N	0.166388	0.531068	0.080923
	N274	N	0.807245	0.457537	0.083548
	N275	N	0.812631	0.532242	0.911857
	O276	O	0.873049	-0.026782	1.050650
	H277	H	0.866811	-0.038129	1.059481
	H278	H	0.866490	-0.030067	1.050776
	O279	O	0.612598	0.540825	0.498461
	H280	H	0.603427	0.540180	0.490009
	H281	H	0.616501	0.548482	0.498144
	O282	O	0.373522	0.399427	0.459473
	H283	H	0.375616	0.400883	0.454031
	H284	H	0.369936	0.390424	0.460087
	O285	O	0.496384	0.466791	0.522971
	H286	H	0.503199	0.467748	0.522799
	H287	H	0.504631	0.485755	0.517903
	O288	O	0.500347	0.389591	0.524093
	H289	H	0.503498	0.391274	0.518491
	H290	H	0.496938	0.395773	0.517057
	O291	O	-0.137442	-0.052251	1.128087
	H292	H	-0.144245	-0.056905	1.134347
	H293	H	-0.140752	-0.047907	1.128588
	O294	O	0.325219	1.492925	0.423779
	H295	H	0.321559	1.498610	0.406396
	H296	H	0.322526	1.482709	0.423592
	O297	O	0.906528	0.867110	0.061499
	H298	H	0.902499	0.856240	0.054455
	H299	H	0.903948	0.876325	0.065674
	O300	O	0.557948	0.448202	0.347594
	H301	H	0.554553	0.463925	0.346956
	H302	H	0.563930	0.454035	0.339323
	O303	O	0.503122	0.466588	0.592216
	H304	H	0.511666	0.477809	0.592400
	H305	H	0.509117	0.473861	0.599587
	O306	O	1.110907	0.887018	0.950548
	H307	H	1.116070	0.892952	0.946419
	H308	H	1.111408	0.897236	0.956429
	O309	O	0.526423	0.481705	0.476712
	H310	H	0.533874	0.473648	0.480694
	H311	H	0.528977	0.483360	0.476622
	O312	O	1.087044	0.936556	0.961084
	H313	H	1.092696	0.939482	0.954490
	H314	H	1.102955	0.937487	0.956399
	O315	O	0.840188	0.851750	0.072491
	H316	H	0.851883	0.844522	0.077496
	H317	H	0.820635	0.843459	0.083246
	O318	O	0.607248	0.596044	0.372631
	H319	H	0.593816	0.600564	0.369791
	H320	H	0.607836	0.598730	0.383330
	O321	O	0.496734	0.465465	0.568999
	H322	H	0.491994	0.451547	0.562044
	H323	H	0.490339	0.471258	0.572263
	O324	O	-0.037668	1.082474	1.054446
	H325	H	-0.037603	1.092814	1.054899
	H326	H	-0.041591	1.074045	1.057086
	O327	O	-0.041143	1.100139	1.003193
	H328	H	-0.038982	1.109693	0.998698
	H329	H	-0.045545	1.099616	0.989921
	O330	O	-0.026941	0.114024	0.078975
	H331	H	-0.023200	0.105050	0.076096
	H332	H	-0.032160	0.118395	0.078158
	O333	O	0.425164	0.553882	0.398733
	H334	H	0.418689	0.552136	0.387609
	H335	H	0.439332	0.552594	0.407800
	O336	O	0.098298	0.122646	-0.069483
	H337	H	0.095509	0.131322	-0.063517
	H338	H	0.092711	0.115237	-0.077663
	O339	O	-0.086201	0.003292	-0.075993
	H340	H	-0.075001	0.003907	-0.080843
	H341	H	-0.094681	-0.000425	-0.072861
	O342	O	0.503106	0.443513	0.458892
	H343	H	0.495360	0.429239	0.461416
	H344	H	0.495102	0.434164	0.465423
	O345	O	0.038335	0.906276	1.024622
	H346	H	0.036970	0.895524	1.020925
	H347	H	0.033540	0.919395	1.026999
	O348	O	-0.035732	-0.025366	0.898488
	H349	H	-0.028186	-0.031462	0.886769
	H350	H	-0.035351	-0.027361	0.892538
	O351	O	0.433762	0.556487	0.516415
	H352	H	0.440818	0.559718	0.515865
	H353	H	0.429930	0.553002	0.514140
	O354	O	0.493059	0.520352	0.563700
	H355	H	0.500577	0.532575	0.578409
	H356	H	0.495651	0.504496	0.561920
	O357	O	1.082981	0.978778	0.053689
	H358	H	1.078742	0.985008	0.060984
	H359	H	1.084760	0.973250	0.052629
	O360	O	1.027091	-0.034457	0.900933
	H361	H	1.024019	-0.037831	0.906201
	H362	H	1.035072	-0.029609	0.894480
	O363	O	0.437327	0.542660	0.598109
	H364	H	0.434778	0.541674	0.609641
	H365	H	0.433696	0.535032	0.588659
	O366	O	0.983864	1.043072	-0.010392
	H367	H	0.973522	1.040807	-0.012427
	H368	H	0.986718	1.044731	-0.002699
	O369	O	1.329832	0.648949	0.368718
	H370	H	1.336181	0.647398	0.369766
	H371	H	1.309021	0.671956	0.354667
	O372	O	0.580182	0.519769	0.559941
	H373	H	0.569161	0.512685	0.570520
	H374	H	0.589872	0.512176	0.551619
	O375	O	0.978156	0.081730	0.959245
	H376	H	0.989119	0.098787	0.970887
	H377	H	0.974433	0.079501	0.963024
	O378	O	-0.003031	0.983545	0.056735
	H379	H	-0.000622	0.986688	0.047762
	H380	H	-0.004448	0.986585	0.049791
	O381	O	0.572897	0.439512	0.533092
	H382	H	0.575760	0.430985	0.517866
	H383	H	0.570934	0.433153	0.540511
	O384	O	1.049733	0.990491	-0.125552
	H385	H	1.045101	0.981399	-0.133795
	H386	H	1.045316	0.991879	-0.136036
	O387	O	0.879309	0.027213	0.925466
	H388	H	0.878184	0.032644	0.922734
	H389	H	0.880082	0.030029	0.921319
	O390	O	1.096649	0.981308	0.000518
	H391	H	1.098455	0.979757	-0.007906
	H392	H	1.090949	0.971688	-0.010841
	O393	O	0.426329	0.465676	0.443220
	H394	H	0.428751	0.478834	0.438567
	H395	H	0.440027	0.456418	0.437561
