data_Molecule from HDF5

_cell_length_a		16.353943
_cell_length_b		16.205670
_cell_length_c		16.467839
_cell_angle_alpha	90.129886
_cell_angle_beta	89.900112
_cell_angle_gamma	89.870577
_symmetry_space_group_name_H-M	'P 1'
_symmetry_Int_Tables_number		1

loop_
	_symmetry_equiv_pos_as_xyz
	x,y,z

loop_
	_atom_site_label
	_atom_site_type_symbol
	_atom_site_fract_x
	_atom_site_fract_y
	_atom_site_fract_z
	H0	H	0.394949	0.837414	0.715550
	H1	H	0.604963	0.158987	0.713985
	H2	H	0.605897	0.835574	0.275795
	H3	H	0.398920	0.159735	0.277350
	H4	H	0.721791	0.392349	0.834064
	H5	H	0.721638	0.600986	0.152732
	H6	H	0.279371	0.603286	0.835392
	H7	H	0.281164	0.390824	0.152382
	H8	H	0.839995	0.712843	0.394442
	H9	H	0.162394	0.717474	0.598375
	H10	H	0.840538	0.282965	0.593667
	H11	H	0.163893	0.280208	0.394853
	H12	H	0.843690	0.392058	0.715527
	H13	H	0.161327	0.606514	0.717302
	H14	H	0.843098	0.602822	0.273258
	H15	H	0.162761	0.391730	0.274413
	H16	H	0.396119	0.718783	0.836266
	H17	H	0.605798	0.717610	0.153212
	H18	H	0.602650	0.277882	0.834790
	H19	H	0.403719	0.283278	0.155449
	H20	H	0.719043	0.834701	0.392260
	H21	H	0.718189	0.160064	0.595112
	H22	H	0.281799	0.837284	0.598378
	H23	H	0.283333	0.160045	0.393096
	H24	H	0.900604	0.334426	0.211264
	H25	H	0.111375	0.655842	0.218150
	H26	H	0.109262	0.336382	0.772106
	H27	H	0.894752	0.657735	0.772102
	H28	H	0.223552	0.892164	0.336750
	H29	H	0.224231	0.107953	0.652351
	H30	H	0.782792	0.099162	0.335000
	H31	H	0.777767	0.889394	0.653183
	H32	H	0.340881	0.215375	0.895060
	H33	H	0.663507	0.212292	0.094315
	H34	H	0.341142	0.778027	0.099261
	H35	H	0.661277	0.776878	0.890751
	H36	H	0.342580	0.891581	0.217395
	H37	H	0.661568	0.101399	0.214748
	H38	H	0.342868	0.107830	0.773047
	H39	H	0.659126	0.889527	0.771383
	H40	H	0.900144	0.214654	0.334921
	H41	H	0.104318	0.218456	0.653570
	H42	H	0.105536	0.776869	0.335256
	H43	H	0.895735	0.774726	0.652962
	H44	H	0.220501	0.333748	0.890316
	H45	H	0.225357	0.656030	0.100199
	H46	H	0.785783	0.333823	0.095063
	H47	H	0.779326	0.657340	0.887687
	H48	H	0.421119	0.109275	0.579154
	H49	H	0.587495	0.882568	0.584223
	H50	H	0.589315	0.110442	0.409350
	H51	H	0.404514	0.879629	0.403899
	H52	H	0.595305	0.406888	0.108959
	H53	H	0.593372	0.583652	0.880739
	H54	H	0.412347	0.585247	0.106638
	H55	H	0.406007	0.406733	0.877819
	H56	H	0.118653	0.587054	0.400592
	H57	H	0.892793	0.573300	0.584055
	H58	H	0.117623	0.413323	0.589480
	H59	H	0.883642	0.403410	0.392896
	H60	H	0.120076	0.401457	0.584997
	H61	H	0.884947	0.588070	0.592229
	H62	H	0.115627	0.586766	0.409368
	H63	H	0.886980	0.400304	0.408539
	H64	H	0.412016	0.584138	0.105821
	H65	H	0.588648	0.583377	0.882508
	H66	H	0.595119	0.403144	0.110123
	H67	H	0.413917	0.409970	0.881442
	H68	H	0.597986	0.115234	0.403578
	H69	H	0.589293	0.883858	0.582318
	H70	H	0.402641	0.114962	0.579783
	H71	H	0.418116	0.882482	0.398988
	H72	H	0.916775	0.611429	0.086278
	H73	H	0.082622	0.381604	0.091673
	H74	H	0.087485	0.612691	0.899268
	H75	H	0.916270	0.382883	0.903486
	H76	H	0.097800	0.910165	0.610084
	H77	H	0.087928	0.086844	0.382497
	H78	H	0.909129	0.087093	0.608930
	H79	H	0.910513	0.902220	0.380161
	H80	H	0.615172	0.087489	0.907562
	H81	H	0.389288	0.086519	0.079621
	H82	H	0.613447	0.904438	0.076661
	H83	H	0.386623	0.910834	0.902981
	H84	H	0.612619	0.917757	0.087266
	H85	H	0.386454	0.081531	0.095400
	H86	H	0.613691	0.081001	0.903003
	H87	H	0.387182	0.907522	0.907470
	H88	H	0.910177	0.089077	0.609195
	H89	H	0.094333	0.091299	0.378972
	H90	H	0.086727	0.915524	0.604321
	H91	H	0.906291	0.909365	0.381447
	H92	H	0.086163	0.607391	0.911893
	H93	H	0.088816	0.386269	0.073070
	H94	H	0.911164	0.611054	0.079704
	H95	H	0.915577	0.383388	0.906259
	H96	H	0.413978	0.116374	0.595247
	H97	H	0.589945	0.882167	0.584362
	H98	H	0.587688	0.113652	0.398538
	H99	H	0.414853	0.885740	0.413063
	H100	H	0.598013	0.404622	0.109250
	H101	H	0.590410	0.588117	0.880420
	H102	H	0.413310	0.584380	0.107400
	H103	H	0.413298	0.400541	0.878765
	H104	H	0.114204	0.579681	0.403697
	H105	H	0.891046	0.590141	0.574945
	H106	H	0.114455	0.410335	0.577605
	H107	H	0.889981	0.415276	0.401886
	H108	H	0.908959	0.614369	0.088107
	H109	H	0.101672	0.377471	0.085545
	H110	H	0.098029	0.612838	0.907838
	H111	H	0.913223	0.382789	0.903988
	H112	H	0.086960	0.902600	0.608283
	H113	H	0.095012	0.083048	0.381250
	H114	H	0.907617	0.089288	0.608943
	H115	H	0.914244	0.908705	0.383541
	H116	H	0.617371	0.087562	0.900387
	H117	H	0.381801	0.097434	0.090339
	H118	H	0.619673	0.903584	0.092122
	H119	H	0.389072	0.913160	0.907857
	C120	C	0.380270	0.007021	0.616259
	C121	C	0.621722	0.988978	0.615561
	C122	C	0.622677	0.005628	0.373258
	C123	C	0.380693	0.989495	0.374437
	C124	C	0.625522	0.374046	0.003429
	C125	C	0.623088	0.617892	0.985757
	C126	C	0.379706	0.617831	0.002478
	C127	C	0.380626	0.375004	0.984982
	C128	C	0.010500	0.617172	0.373232
	C129	C	0.994261	0.618606	0.616623
	C130	C	0.011442	0.376824	0.615332
	C131	C	0.993414	0.374848	0.371641
	C132	C	0.881747	0.505024	0.114786
	C133	C	0.124129	0.487644	0.115894
	C134	C	0.123338	0.504629	0.873469
	C135	C	0.881474	0.488911	0.872505
	C136	C	0.122709	0.876331	0.502950
	C137	C	0.123305	0.120033	0.485964
	C138	C	0.879123	0.118699	0.503379
	C139	C	0.878482	0.874044	0.486203
	C140	C	0.509996	0.118614	0.873346
	C141	C	0.492563	0.118771	0.117427
	C142	C	0.509981	0.876130	0.116861
	C143	C	0.492490	0.876864	0.873444
	C144	C	0.377303	0.885874	0.675764
	C145	C	0.623760	0.110570	0.674745
	C146	C	0.624019	0.883999	0.314995
	C147	C	0.380060	0.111217	0.316518
	C148	C	0.682228	0.373732	0.882100
	C149	C	0.682252	0.619999	0.105122
	C150	C	0.319442	0.621126	0.883218
	C151	C	0.321528	0.373467	0.105023
	C152	C	0.889029	0.675017	0.374086
	C153	C	0.114244	0.678531	0.617437
	C154	C	0.889522	0.320314	0.614166
	C155	C	0.115209	0.317617	0.373722
	C156	C	0.891040	0.374777	0.674885
	C157	C	0.113639	0.623192	0.676909
	C158	C	0.890399	0.619777	0.313921
	C159	C	0.114639	0.373444	0.314127
	C160	C	0.377630	0.678747	0.883558
	C161	C	0.624003	0.677657	0.105376
	C162	C	0.623430	0.316644	0.882420
	C163	C	0.382517	0.319644	0.106658
	C164	C	0.680469	0.883483	0.373227
	C165	C	0.680061	0.111012	0.615731
	C166	C	0.321105	0.885606	0.617246
	C167	C	0.322504	0.111434	0.374183
	C168	C	0.881365	0.383178	0.172574
	C169	C	0.128088	0.607949	0.177102
	C170	C	0.126698	0.384399	0.812349
	C171	C	0.877712	0.609440	0.812339
	C172	C	0.183531	0.873559	0.384229
	C173	C	0.183638	0.124284	0.605006
	C174	C	0.821511	0.118521	0.382981
	C175	C	0.818037	0.871578	0.605545
	C176	C	0.389353	0.177463	0.874787
	C177	C	0.614636	0.175049	0.115135
	C178	C	0.389396	0.816762	0.118588
	C179	C	0.612967	0.816558	0.872111
	C180	C	0.390007	0.873599	0.177294
	C181	C	0.613776	0.119599	0.174904
	C182	C	0.390173	0.123430	0.814135
	C183	C	0.611977	0.872661	0.812463
	C184	C	0.880325	0.175736	0.382775
	C185	C	0.123653	0.179334	0.605910
	C186	C	0.124687	0.816314	0.383350
	C187	C	0.876805	0.814347	0.605494
	C188	C	0.182053	0.382927	0.871358
	C189	C	0.184965	0.608134	0.118451
	C190	C	0.824539	0.382704	0.114297
	C191	C	0.819933	0.609234	0.869757
	C192	C	0.405519	0.091573	0.591931
	C193	C	0.596474	0.904801	0.590849
	C194	C	0.598658	0.091001	0.396947
	C195	C	0.405319	0.904555	0.398314
	C196	C	0.602903	0.397785	0.087446
	C197	C	0.597951	0.592432	0.902896
	C198	C	0.405030	0.591841	0.085122
	C199	C	0.404007	0.398857	0.901212
	C200	C	0.094453	0.591805	0.397534
	C201	C	0.911090	0.591654	0.591309
	C202	C	0.095352	0.401172	0.591295
	C203	C	0.908890	0.399209	0.394501
	C204	C	0.905565	0.590104	0.091514
	C205	C	0.098655	0.403695	0.090578
	C206	C	0.097797	0.589003	0.899114
	C207	C	0.907514	0.404881	0.897575
	C208	C	0.097542	0.901941	0.585977
	C209	C	0.099276	0.094467	0.402638
	C210	C	0.902188	0.095308	0.587329
	C211	C	0.903454	0.899325	0.403421
	C212	C	0.593953	0.092731	0.896713
	C213	C	0.408040	0.095454	0.094898
	C214	C	0.593455	0.901108	0.092325
	C215	C	0.409429	0.903002	0.898855
	Zn216	Zn	0.500459	-0.001610	0.744513
	Zn217	Zn	0.501840	-0.002760	0.245792
	Zn218	Zn	0.753191	0.496577	-0.006436
	Zn219	Zn	0.251587	0.495096	-0.006873
	Zn220	Zn	0.002245	0.745900	0.494686
	Zn221	Zn	0.002208	0.247861	0.494674
	Zn222	Zn	0.003131	0.497547	0.744648
	Zn223	Zn	0.002168	0.496612	0.243679
	Zn224	Zn	0.500864	0.747514	-0.004910
	Zn225	Zn	0.501791	0.246543	-0.005032
	Zn226	Zn	0.749929	-0.003388	0.494558
	Zn227	Zn	0.252120	-0.001198	0.495718
	N228	N	0.413066	0.962675	0.675426
	N229	N	0.588288	0.033624	0.674937
	N230	N	0.588706	0.961095	0.315124
	N231	N	0.415457	0.034257	0.316487
	N232	N	0.683849	0.408264	0.958400
	N233	N	0.682122	0.583941	0.029523
	N234	N	0.320344	0.584157	0.958254
	N235	N	0.320238	0.407232	0.028536
	N236	N	0.964826	0.673543	0.410169
	N237	N	0.038835	0.675714	0.580767
	N238	N	0.965426	0.321412	0.577885
	N239	N	0.038915	0.318258	0.408638
	N240	N	0.967637	0.409302	0.675571
	N241	N	0.037909	0.586497	0.676348
	N242	N	0.967142	0.584863	0.313205
	N243	N	0.037983	0.408166	0.312678
	N244	N	0.414231	0.676963	0.958599
	N245	N	0.588111	0.676728	0.029946
	N246	N	0.589143	0.316492	0.958633
	N247	N	0.418711	0.320662	0.031220
	N248	N	0.679876	0.960309	0.408637
	N249	N	0.679005	0.034330	0.579970
	N250	N	0.322613	0.962094	0.581394
	N251	N	0.322843	0.034604	0.409445
	N252	N	0.916205	0.460231	0.172931
	N253	N	0.090857	0.532078	0.175378
	N254	N	0.090793	0.461269	0.813514
	N255	N	0.915444	0.533555	0.813855
	N256	N	0.182608	0.910028	0.459683
	N257	N	0.183371	0.087969	0.529516
	N258	N	0.820534	0.083943	0.459022
	N259	N	0.818880	0.908102	0.530353
	N260	N	0.464980	0.174574	0.910945
	N261	N	0.538288	0.174816	0.080250
	N262	N	0.464734	0.818377	0.081562
	N263	N	0.537687	0.818880	0.909238
	N264	N	0.466021	0.909558	0.176653
	N265	N	0.536943	0.085557	0.176805
	N266	N	0.466333	0.087503	0.813217
	N267	N	0.536224	0.909509	0.813112
	N268	N	0.915353	0.176338	0.458610
	N269	N	0.086917	0.176897	0.530883
	N270	N	0.087547	0.817994	0.458135
	N271	N	0.913632	0.815661	0.530550
	N272	N	0.180245	0.458870	0.908473
	N273	N	0.182738	0.532220	0.080965
	N274	N	0.824468	0.459586	0.079084
	N275	N	0.822144	0.533060	0.906321
	O276	O	0.657957	0.507750	0.521385
	H277	H	0.661455	0.518178	0.522511
	H278	H	0.658798	0.513997	0.522377
	O279	O	0.561860	0.673013	0.663537
	H280	H	0.550393	0.685545	0.662790
	H281	H	0.562362	0.668825	0.642730
	O282	O	0.412182	0.455468	0.496136
	H283	H	0.422888	0.440093	0.502271
	H284	H	0.410608	0.443430	0.488343
	O285	O	1.439078	0.448502	0.467122
	H286	H	1.437236	0.455632	0.478977
	H287	H	1.450743	0.453177	0.460550
	O288	O	0.183728	-0.180737	0.814608
	H289	H	0.192429	-0.191166	0.867836
	H290	H	0.130994	-0.192900	0.805269
	O291	O	0.606073	0.453106	0.469434
	H292	H	0.615170	0.441796	0.482962
	H293	H	0.614416	0.433289	0.459824
	O294	O	0.979966	1.162256	0.975477
	H295	H	0.968482	1.167685	0.977947
	H296	H	0.984089	1.175765	0.986894
	O297	O	0.888965	1.158437	1.101312
	H298	H	0.902928	1.154926	1.102548
	H299	H	0.887784	1.162172	1.079349
	O300	O	-0.197385	0.054695	-0.212559
	H301	H	-0.207035	0.039865	-0.217243
	H302	H	-0.200778	0.053464	-0.215646
	O303	O	-0.134317	0.944462	0.919760
	H304	H	-0.149502	0.946596	0.929131
	H305	H	-0.119016	0.963749	0.925808
	O306	O	1.008000	-0.200514	-0.201598
	H307	H	0.989573	-0.201423	-0.189059
	H308	H	0.997548	-0.218573	-0.210215
	O309	O	0.679581	0.616013	0.597023
	H310	H	0.687982	0.640023	0.591706
	H311	H	0.690481	0.606171	0.606833
	O312	O	0.796195	1.201327	-0.035816
	H313	H	0.784176	1.213713	-0.055124
	H314	H	0.790956	1.214220	-0.070315
	O315	O	0.308266	0.567062	0.297383
	H316	H	0.313203	0.577813	0.290495
	H317	H	0.304118	0.561202	0.274521
	O318	O	0.418439	0.580482	0.447894
	H319	H	0.419310	0.578905	0.429591
	H320	H	0.407358	0.578244	0.437161
	O321	O	0.814832	-0.155235	1.183583
	H322	H	0.812641	-0.112292	1.193731
	H323	H	0.835150	-0.169443	1.174263
	O324	O	-0.138480	0.193834	0.798500
	H325	H	-0.129509	0.148861	0.789172
	H326	H	-0.107733	0.212584	0.778694
	O327	O	0.028340	0.927516	1.058891
	H328	H	0.019053	0.915288	1.063640
	H329	H	0.028197	0.930326	1.047225
	O330	O	0.505460	0.400910	0.638157
	H331	H	0.510660	0.396026	0.645126
	H332	H	0.494944	0.396730	0.629565
	O333	O	1.135515	1.030300	1.156909
	H334	H	1.129182	1.018966	1.154004
	H335	H	1.140116	1.016463	1.154278
	O336	O	0.536627	0.406951	0.430697
	H337	H	0.542926	0.414982	0.439340
	H338	H	0.522324	0.417201	0.427852
	O339	O	0.606832	0.349119	0.510126
	H340	H	0.594560	0.362127	0.510698
	H341	H	0.610807	0.356675	0.510932
	O342	O	-0.195188	0.954660	1.062133
	H343	H	-0.209479	0.944362	1.061393
	H344	H	-0.185819	0.988045	1.072560
	O345	O	0.111239	1.141444	1.174305
	H346	H	0.120261	1.149856	1.169154
	H347	H	0.100350	1.143610	1.173962
	O348	O	0.511922	0.473502	0.382545
	H349	H	0.516307	0.474213	0.373363
	H350	H	0.503638	0.482637	0.385781
	O351	O	0.140654	0.090285	-0.041948
	H352	H	0.147026	0.075300	-0.066306
	H353	H	0.140834	0.098381	-0.046851
	O354	O	0.572389	0.679734	-0.565095
	H355	H	0.570142	0.689117	-0.572222
	H356	H	0.575071	0.684218	-0.556751
	O357	O	0.197730	1.129742	0.180969
	H358	H	0.201392	1.129419	0.170249
	H359	H	0.196429	1.132489	0.195329
	O360	O	0.004677	0.075703	-0.172523
	H361	H	0.000565	0.062872	-0.177316
	H362	H	0.020844	0.074320	-0.157621
	O363	O	0.616973	0.464621	0.468017
	H364	H	0.621913	0.458598	0.454510
	H365	H	0.610124	0.462800	0.484845
	O366	O	0.559586	0.634223	0.427254
	H367	H	0.565340	0.636076	0.421816
	H368	H	0.546182	0.628511	0.426378
	O369	O	0.362715	0.489699	0.595800
	H370	H	0.368707	0.497779	0.598539
	H371	H	0.356716	0.481169	0.604618
	O372	O	0.697843	0.362807	0.417449
	H373	H	0.694834	0.351889	0.426583
	H374	H	0.705168	0.361731	0.433138
	O375	O	1.205796	-0.137139	-0.030627
	H376	H	1.219539	-0.151326	-0.023677
	H377	H	1.209758	-0.130536	-0.020456
	O378	O	0.415277	0.338945	0.429941
	H379	H	0.422053	0.324879	0.414891
	H380	H	0.427896	0.350196	0.445610
	O381	O	0.486277	0.579649	0.599593
	H382	H	0.469628	0.564708	0.600833
	H383	H	0.494319	0.584474	0.601455
	O384	O	0.523227	0.579337	1.648296
	H385	H	0.501524	0.585418	1.638497
	H386	H	0.521332	0.557647	1.658044
	O387	O	0.981478	0.786211	0.199853
	H388	H	0.992527	0.773959	0.194151
	H389	H	0.972446	0.772841	0.204147
	O390	O	0.400907	0.678296	0.409711
	H391	H	0.394420	0.658881	0.407091
	H392	H	0.403176	0.690167	0.403042
	O393	O	1.006445	0.035458	0.866728
	H394	H	1.002639	0.040010	0.868020
	H395	H	1.011031	0.015707	0.854657
	O396	O	0.219128	0.975785	0.773302
	H397	H	0.214740	0.929767	0.779544
	H398	H	0.249941	0.963542	0.744352
	O399	O	0.358296	0.367022	0.534539
	H400	H	0.365835	0.375389	0.529543
	H401	H	0.364681	0.366447	0.539104
	O402	O	0.969657	0.100134	1.171460
	H403	H	0.992901	0.114789	1.175788
	H404	H	0.988221	0.095723	1.163405
	O405	O	-0.037789	-0.204651	-0.080645
	H406	H	-0.062104	-0.205845	-0.068866
	H407	H	-0.046057	-0.193229	-0.071165
	O408	O	0.924413	1.012630	0.877412
	H409	H	0.925597	1.004253	0.887288
	H410	H	0.926907	1.020666	0.871509
	O411	O	1.099880	0.790496	0.039553
	H412	H	1.100141	0.790304	0.028197
	H413	H	1.091645	0.798523	0.047022
	O414	O	0.147810	-0.063794	1.069332
	H415	H	0.143531	-0.052086	1.054178
	H416	H	0.144264	-0.053800	1.076071
	O417	O	0.455494	0.334057	0.573120
	H418	H	0.477554	0.337907	0.566392
	H419	H	0.439163	0.329656	0.560610
	O420	O	0.118893	1.185078	-0.072278
	H421	H	0.134048	1.186855	-0.080948
	H422	H	0.126584	1.177737	-0.066859
	O423	O	0.915667	0.020268	0.175193
	H424	H	0.926199	0.035683	0.171147
	H425	H	0.916543	0.028515	0.175142
	O426	O	-0.199082	-0.208581	1.045890
	H427	H	-0.194320	-0.187871	1.066841
	H428	H	-0.222426	-0.231272	1.051114
	O429	O	0.410067	0.580812	0.321626
	H430	H	0.420435	0.575769	0.330061
	H431	H	0.434626	0.585495	0.331347
