data_Molecule from HDF5

_cell_length_a		16.429578
_cell_length_b		16.166530
_cell_length_c		16.205973
_cell_angle_alpha	90.203683
_cell_angle_beta	89.925197
_cell_angle_gamma	90.057869
_symmetry_space_group_name_H-M	'P 1'
_symmetry_Int_Tables_number		1

loop_
	_symmetry_equiv_pos_as_xyz
	x,y,z

loop_
	_atom_site_label
	_atom_site_type_symbol
	_atom_site_fract_x
	_atom_site_fract_y
	_atom_site_fract_z
	H0	H	0.400356	0.835417	0.716419
	H1	H	0.600987	0.162998	0.718719
	H2	H	0.598945	0.836148	0.285569
	H3	H	0.399870	0.164399	0.287322
	H4	H	0.719197	0.391986	0.840289
	H5	H	0.717854	0.605296	0.162978
	H6	H	0.282525	0.602573	0.838420
	H7	H	0.278139	0.396211	0.162134
	H8	H	0.840868	0.717949	0.396743
	H9	H	0.160475	0.719408	0.602601
	H10	H	0.839204	0.282582	0.601182
	H11	H	0.161932	0.282256	0.398323
	H12	H	0.839482	0.396380	0.719034
	H13	H	0.160470	0.602386	0.719355
	H14	H	0.840978	0.604237	0.282547
	H15	H	0.161716	0.399134	0.283195
	H16	H	0.400714	0.714277	0.837576
	H17	H	0.598114	0.715015	0.164627
	H18	H	0.597968	0.282842	0.838794
	H19	H	0.398294	0.286202	0.166122
	H20	H	0.718169	0.837385	0.395502
	H21	H	0.719596	0.161950	0.605070
	H22	H	0.279202	0.838266	0.606574
	H23	H	0.282501	0.162987	0.399689
	H24	H	0.901817	0.336322	0.215526
	H25	H	0.099595	0.664861	0.214573
	H26	H	0.096873	0.335716	0.786314
	H27	H	0.900309	0.664739	0.786254
	H28	H	0.220078	0.895776	0.338876
	H29	H	0.217461	0.104120	0.663668
	H30	H	0.783164	0.102033	0.337451
	H31	H	0.782636	0.896526	0.662131
	H32	H	0.337792	0.215463	0.902555
	H33	H	0.660328	0.218556	0.104388
	H34	H	0.337612	0.782846	0.101165
	H35	H	0.659943	0.781313	0.899686
	H36	H	0.338172	0.898851	0.219081
	H37	H	0.661806	0.099795	0.217407
	H38	H	0.338382	0.100996	0.784245
	H39	H	0.659966	0.896253	0.782472
	H40	H	0.902863	0.214088	0.336361
	H41	H	0.098740	0.215766	0.664758
	H42	H	0.099120	0.785357	0.335676
	H43	H	0.901730	0.786508	0.663106
	H44	H	0.217737	0.337732	0.895654
	H45	H	0.217523	0.663108	0.102911
	H46	H	0.781478	0.337377	0.104592
	H47	H	0.780961	0.662653	0.898472
	H48	H	0.409059	0.112766	0.581723
	H49	H	0.582835	0.883924	0.598207
	H50	H	0.590072	0.116101	0.409954
	H51	H	0.412027	0.883693	0.408078
	H52	H	0.587846	0.412302	0.116099
	H53	H	0.594424	0.585858	0.884850
	H54	H	0.407761	0.590882	0.117594
	H55	H	0.403259	0.403140	0.881721
	H56	H	0.113337	0.587279	0.413123
	H57	H	0.885339	0.582811	0.601277
	H58	H	0.114758	0.409694	0.592326
	H59	H	0.884376	0.404968	0.406316
	H60	H	0.115040	0.408913	0.593725
	H61	H	0.881057	0.603364	0.596125
	H62	H	0.117388	0.590093	0.402374
	H63	H	0.886788	0.407657	0.413644
	H64	H	0.405570	0.591556	0.118577
	H65	H	0.586959	0.586315	0.886976
	H66	H	0.591131	0.408223	0.119165
	H67	H	0.405565	0.413560	0.886809
	H68	H	0.593757	0.115658	0.415725
	H69	H	0.591250	0.886656	0.580064
	H70	H	0.399110	0.120271	0.596548
	H71	H	0.409939	0.885861	0.416323
	H72	H	0.906807	0.612432	0.077881
	H73	H	0.093191	0.383152	0.089095
	H74	H	0.089949	0.618282	0.905059
	H75	H	0.911278	0.384856	0.912929
	H76	H	0.082385	0.915929	0.612083
	H77	H	0.090935	0.093985	0.383947
	H78	H	0.908844	0.084033	0.614723
	H79	H	0.911215	0.911900	0.384884
	H80	H	0.615722	0.098901	0.912012
	H81	H	0.386861	0.089671	0.090459
	H82	H	0.611714	0.911907	0.090796
	H83	H	0.382613	0.899959	0.909957
	H84	H	0.615970	0.909157	0.099881
	H85	H	0.384928	0.087983	0.099338
	H86	H	0.611684	0.087330	0.917060
	H87	H	0.387665	0.911022	0.915707
	H88	H	0.913193	0.094054	0.616254
	H89	H	0.097343	0.089192	0.383375
	H90	H	0.089518	0.899557	0.619283
	H91	H	0.909136	0.905992	0.381814
	H92	H	0.090387	0.615142	0.914942
	H93	H	0.090239	0.383288	0.092807
	H94	H	0.896773	0.622248	0.098108
	H95	H	0.905149	0.383760	0.912809
	H96	H	0.417408	0.114796	0.598918
	H97	H	0.601628	0.879009	0.595141
	H98	H	0.596480	0.118749	0.409385
	H99	H	0.404257	0.881889	0.411063
	H100	H	0.593100	0.413048	0.117711
	H101	H	0.591251	0.593137	0.883869
	H102	H	0.405805	0.589233	0.117847
	H103	H	0.413772	0.405856	0.885984
	H104	H	0.116789	0.597984	0.410381
	H105	H	0.889464	0.590043	0.581180
	H106	H	0.115187	0.407419	0.592328
	H107	H	0.887297	0.412626	0.407092
	H108	H	0.919271	0.615729	0.098090
	H109	H	0.089134	0.385104	0.088544
	H110	H	0.098741	0.619790	0.910657
	H111	H	0.907921	0.382685	0.907180
	H112	H	0.100636	0.914979	0.617452
	H113	H	0.090629	0.086219	0.386012
	H114	H	0.902510	0.092754	0.619240
	H115	H	0.904712	0.910460	0.381957
	H116	H	0.614950	0.087479	0.903991
	H117	H	0.383253	0.096625	0.095839
	H118	H	0.615019	0.902665	0.092430
	H119	H	0.383385	0.911017	0.903704
	C120	C	0.378013	0.008365	0.623065
	C121	C	0.622224	0.990627	0.622616
	C122	C	0.622100	0.008798	0.380170
	C123	C	0.378759	0.991706	0.381324
	C124	C	0.621110	0.378594	0.010657
	C125	C	0.620793	0.620435	0.992422
	C126	C	0.378016	0.620543	0.009822
	C127	C	0.377017	0.377752	0.992569
	C128	C	0.009722	0.621995	0.378494
	C129	C	0.991768	0.622343	0.622726
	C130	C	0.008693	0.377978	0.622760
	C131	C	0.992451	0.378076	0.378345
	C132	C	0.878298	0.509117	0.122304
	C133	C	0.121232	0.491872	0.120966
	C134	C	0.121441	0.509303	0.879562
	C135	C	0.878150	0.491898	0.880245
	C136	C	0.121287	0.879073	0.508818
	C137	C	0.121902	0.120947	0.492379
	C138	C	0.878707	0.121123	0.509116
	C139	C	0.878933	0.878730	0.490792
	C140	C	0.507453	0.121136	0.880603
	C141	C	0.491241	0.122067	0.124801
	C142	C	0.507514	0.878119	0.123787
	C143	C	0.490991	0.877065	0.879437
	C144	C	0.379798	0.884721	0.679082
	C145	C	0.620896	0.113950	0.679866
	C146	C	0.619703	0.885569	0.323102
	C147	C	0.380159	0.115108	0.325167
	C148	C	0.679551	0.375164	0.888814
	C149	C	0.678573	0.622646	0.114558
	C150	C	0.321543	0.621107	0.886977
	C151	C	0.318265	0.377801	0.114251
	C152	C	0.888775	0.679135	0.378557
	C153	C	0.112476	0.680359	0.622319
	C154	C	0.887579	0.320821	0.621418
	C155	C	0.113472	0.320656	0.378920
	C156	C	0.887739	0.377548	0.680143
	C157	C	0.112458	0.622276	0.680604
	C158	C	0.889022	0.622625	0.321282
	C159	C	0.113395	0.378760	0.321271
	C160	C	0.379997	0.676769	0.886560
	C161	C	0.619195	0.677853	0.115319
	C162	C	0.619125	0.320547	0.887987
	C163	C	0.377847	0.322756	0.116168
	C164	C	0.678734	0.885933	0.378241
	C165	C	0.680180	0.113257	0.623790
	C166	C	0.319376	0.886357	0.624532
	C167	C	0.321546	0.114334	0.381071
	C168	C	0.880970	0.385713	0.178422
	C169	C	0.119624	0.615434	0.177160
	C170	C	0.118389	0.385272	0.823550
	C171	C	0.880085	0.615413	0.824260
	C172	C	0.180037	0.877722	0.386861
	C173	C	0.178331	0.122197	0.615166
	C174	C	0.822048	0.121014	0.386215
	C175	C	0.821706	0.877956	0.613441
	C176	C	0.386147	0.177240	0.882307
	C177	C	0.612482	0.179559	0.123880
	C178	C	0.385970	0.821321	0.121896
	C179	C	0.612055	0.819847	0.880094
	C180	C	0.386430	0.879055	0.180618
	C181	C	0.613040	0.120801	0.180405
	C182	C	0.386612	0.120458	0.823167
	C183	C	0.611823	0.877152	0.821958
	C184	C	0.881732	0.176672	0.385514
	C185	C	0.119468	0.177837	0.615705
	C186	C	0.120085	0.822536	0.385350
	C187	C	0.880993	0.823227	0.613919
	C188	C	0.178484	0.386281	0.877989
	C189	C	0.178342	0.614572	0.121417
	C190	C	0.821286	0.386130	0.122976
	C191	C	0.820518	0.614403	0.879708
	C192	C	0.401519	0.093770	0.599175
	C193	C	0.598853	0.905284	0.598329
	C194	C	0.599783	0.094582	0.404498
	C195	C	0.401959	0.906054	0.404908
	C196	C	0.597521	0.403867	0.095658
	C197	C	0.597603	0.595670	0.907385
	C198	C	0.400040	0.597542	0.095580
	C199	C	0.400693	0.400784	0.906843
	C200	C	0.093973	0.598505	0.401926
	C201	C	0.907355	0.598906	0.599493
	C202	C	0.093110	0.401706	0.599516
	C203	C	0.907940	0.401545	0.402170
	C204	C	0.900975	0.594651	0.098482
	C205	C	0.097681	0.406213	0.096998
	C206	C	0.099522	0.595347	0.903211
	C207	C	0.901242	0.405998	0.903977
	C208	C	0.097589	0.902923	0.594168
	C209	C	0.099552	0.096938	0.406731
	C210	C	0.901245	0.097328	0.594507
	C211	C	0.901535	0.902426	0.405139
	C212	C	0.592232	0.097946	0.904114
	C213	C	0.406996	0.098475	0.101878
	C214	C	0.592339	0.901015	0.100963
	C215	C	0.406361	0.900577	0.902962
	Zn216	Zn	0.500072	-0.000666	0.750660
	Zn217	Zn	0.499923	0.000334	0.253846
	Zn218	Zn	0.749291	0.500044	0.000968
	Zn219	Zn	0.249722	0.500240	0.000283
	Zn220	Zn	-0.000148	0.750750	0.499074
	Zn221	Zn	0.000704	0.249115	0.500590
	Zn222	Zn	-0.000205	0.500211	0.752025
	Zn223	Zn	0.000952	0.500984	0.250303
	Zn224	Zn	0.499295	0.748353	0.001167
	Zn225	Zn	0.498953	0.250733	0.002969
	Zn226	Zn	0.750551	-0.000861	0.500286
	Zn227	Zn	0.249917	0.000076	0.501472
	N228	N	0.415684	0.961628	0.678167
	N229	N	0.585817	0.036777	0.679449
	N230	N	0.584994	0.962913	0.324397
	N231	N	0.414925	0.037795	0.325011
	N232	N	0.680963	0.410628	0.966188
	N233	N	0.679813	0.587810	0.037114
	N234	N	0.320190	0.586629	0.964354
	N235	N	0.317586	0.411007	0.036301
	N236	N	0.964780	0.678879	0.413746
	N237	N	0.036342	0.680706	0.587141
	N238	N	0.963719	0.320938	0.586435
	N239	N	0.037068	0.320056	0.413627
	N240	N	0.964136	0.412474	0.681159
	N241	N	0.036358	0.587048	0.680905
	N242	N	0.965180	0.587710	0.320988
	N243	N	0.037153	0.413722	0.320874
	N244	N	0.414453	0.676665	0.963833
	N245	N	0.583791	0.676588	0.038498
	N246	N	0.583384	0.322588	0.964589
	N247	N	0.413742	0.322686	0.039423
	N248	N	0.680451	0.963510	0.413086
	N249	N	0.681079	0.035573	0.588696
	N250	N	0.318091	0.964160	0.590584
	N251	N	0.320654	0.036607	0.415465
	N252	N	0.915595	0.463181	0.178245
	N253	N	0.084846	0.538037	0.177062
	N254	N	0.083974	0.462734	0.824298
	N255	N	0.915140	0.538086	0.824358
	N256	N	0.180720	0.912183	0.464581
	N257	N	0.179944	0.087671	0.537476
	N258	N	0.819999	0.087132	0.464065
	N259	N	0.820057	0.911564	0.535677
	N260	N	0.462399	0.177774	0.917353
	N261	N	0.535801	0.180573	0.090104
	N262	N	0.462474	0.820538	0.087361
	N263	N	0.535688	0.819710	0.915175
	N264	N	0.463002	0.913499	0.181837
	N265	N	0.536672	0.085941	0.181194
	N266	N	0.463249	0.086398	0.822010
	N267	N	0.535553	0.911811	0.821516
	N268	N	0.915961	0.176917	0.462831
	N269	N	0.084979	0.177050	0.538429
	N270	N	0.084321	0.823204	0.462222
	N271	N	0.915545	0.823403	0.536621
	N272	N	0.180648	0.464475	0.911987
	N273	N	0.179381	0.536693	0.087163
	N274	N	0.819292	0.463846	0.088887
	N275	N	0.819156	0.536459	0.913459
	O276	O	0.117056	-0.059979	0.030513
	H277	H	0.121239	-0.064308	0.025048
	H278	H	0.110400	-0.049466	0.032450
	O279	O	0.511107	0.558597	0.335938
	H280	H	0.503232	0.554239	0.328751
	H281	H	0.507454	0.554346	0.327526
	O282	O	0.692210	-0.380350	-0.534601
	H283	H	0.692263	-0.394852	-0.547762
	H284	H	0.691507	-0.377340	-0.543409
	O285	O	-0.011824	0.948054	-0.149968
	H286	H	-0.018953	0.949151	-0.150468
	H287	H	0.003790	0.945141	-0.159059
	O288	O	0.605702	0.439136	0.605584
	H289	H	0.613815	0.443522	0.628922
	H290	H	0.605522	0.465179	0.606269
	O291	O	0.447767	0.485329	0.460052
	H292	H	0.459854	0.479430	0.464044
	H293	H	0.443101	0.499501	0.446705
	O294	O	0.851197	0.976172	0.894360
	H295	H	0.836468	0.979722	0.884629
	H296	H	0.858954	0.997429	0.899419
	O297	O	0.065839	0.053260	0.033100
	H298	H	0.075294	0.050381	0.041978
	H299	H	0.066511	0.059633	0.022940
	O300	O	0.515162	0.481682	0.640930
	H301	H	0.515153	0.486254	0.655558
	H302	H	0.519288	0.490524	0.641698
	O303	O	-0.058498	1.000587	1.107835
	H304	H	-0.059568	1.000364	1.101026
	H305	H	-0.054890	0.980923	1.109242
	O306	O	0.708406	0.517396	0.456325
	H307	H	0.725464	0.506978	0.461129
	H308	H	0.708867	0.518796	0.446268
	O309	O	0.929842	0.017738	-0.056110
	H310	H	0.931539	0.019863	-0.056928
	H311	H	0.927357	0.020297	-0.064705
	O312	O	0.096209	-0.078672	0.933986
	H313	H	0.095193	-0.092148	0.930706
	H314	H	0.088871	-0.077262	0.938532
	O315	O	0.490422	0.351365	0.508104
	H316	H	0.506791	0.371992	0.514383
	H317	H	0.491328	0.350790	0.507064
	O318	O	0.681478	0.387156	0.337846
	H319	H	0.669813	0.370114	0.366591
	H320	H	0.702987	0.374353	0.332611
	O321	O	0.592372	0.603680	0.600238
	H322	H	0.596746	0.601190	0.578652
	H323	H	0.579494	0.620148	0.602667
	O324	O	0.483056	0.642399	0.575506
	H325	H	0.468649	0.636283	0.572153
	H326	H	0.477897	0.654338	0.562613
	O327	O	0.097488	0.928253	0.891779
	H328	H	0.093273	0.926397	0.890266
	H329	H	0.082115	0.932781	0.888885
	O330	O	0.361320	0.346146	0.507140
	H331	H	0.365561	0.342124	0.503098
	H332	H	0.371156	0.341172	0.515008
	O333	O	-0.068294	0.909660	1.008381
	H334	H	-0.071531	0.909729	1.017308
	H335	H	-0.069433	0.905736	1.021331
	O336	O	1.023153	0.910867	1.101346
	H337	H	1.020523	0.902549	1.109129
	H338	H	1.023057	0.916621	1.100274
	O339	O	0.516026	0.568384	0.553882
	H340	H	0.522967	0.573880	0.539391
	H341	H	0.524952	0.561765	0.530831
	O342	O	1.071303	0.116055	0.035710
	H343	H	1.075258	0.122473	0.039814
	H344	H	1.065334	0.118813	0.035570
	O345	O	0.527234	0.326528	0.430934
	H346	H	0.522379	0.330461	0.434982
	H347	H	0.537381	0.324213	0.431205
	O348	O	0.996439	1.108411	0.979205
	H349	H	0.995142	1.107468	0.976758
	H350	H	0.997429	1.113805	0.969811
	O351	O	1.034543	1.173270	-0.054109
	H352	H	1.042465	1.180692	-0.059617
	H353	H	1.048344	1.176972	-0.058811
	O354	O	0.468430	0.641000	0.455271
	H355	H	0.461916	0.643522	0.445489
	H356	H	0.477085	0.643119	0.459836
	O357	O	0.586339	0.556909	0.653317
	H358	H	0.576523	0.569047	0.655999
	H359	H	0.590919	0.574945	0.655359
	O360	O	-0.008025	0.068211	-0.096961
	H361	H	-0.008057	0.049056	-0.096097
	H362	H	-0.000781	0.081245	-0.091432
	O363	O	0.403962	0.559148	0.492748
	H364	H	0.407119	0.549369	0.504008
	H365	H	0.415836	0.565035	0.509158
	O366	O	0.511773	0.447448	0.595029
	H367	H	0.495857	0.445924	0.603936
	H368	H	0.517584	0.458575	0.606928
	O369	O	0.532618	0.378464	0.406335
	H370	H	0.521429	0.393866	0.417450
	H371	H	0.535898	0.363309	0.413244
	O372	O	0.403200	0.555951	0.467326
	H373	H	0.398905	0.551300	0.457430
	H374	H	0.389562	0.542966	0.470061
	O375	O	0.467653	0.331725	0.513959
	H376	H	0.473627	0.332562	0.504149
	H377	H	0.478563	0.328949	0.506896
	O378	O	0.340494	0.586405	0.398616
	H379	H	0.350645	0.579046	0.394914
	H380	H	0.331765	0.572604	0.415264
	O381	O	0.505334	0.453978	0.512909
	H382	H	0.489475	0.452198	0.507882
	H383	H	0.503744	0.448227	0.512047
	O384	O	-0.035389	1.041980	0.048859
	H385	H	-0.021197	1.048190	0.048330
	H386	H	-0.049684	1.043350	0.040160
	O387	O	1.081616	0.083450	0.984072
	H388	H	1.084964	0.073113	0.972987
	H389	H	1.082663	0.085241	0.992644
	O390	O	-0.018048	1.044273	0.145677
	H391	H	-0.023599	1.054179	0.141286
	H392	H	-0.010448	1.044407	0.152159
	O393	O	0.878978	0.893866	0.008835
	H394	H	0.875925	0.892792	-0.002625
	H395	H	0.872250	0.905986	0.012840
	O396	O	0.320249	0.641953	0.542009
	H397	H	0.317488	0.630970	0.535602
	H398	H	0.306622	0.643122	0.538310
	O399	O	0.038795	0.894232	1.105878
	H400	H	0.041196	0.898511	1.100171
	H401	H	0.042967	0.901142	1.101235
	O402	O	0.962165	1.013015	0.978206
	H403	H	0.966452	1.010140	1.000252
	H404	H	0.947130	1.002169	0.967431
	O405	O	0.550795	0.555891	0.481896
	H406	H	0.551092	0.555683	0.474171
	H407	H	0.536231	0.562641	0.481818
