data_Molecule from HDF5

_cell_length_a		16.277898
_cell_length_b		16.213330
_cell_length_c		16.059505
_cell_angle_alpha	89.889019
_cell_angle_beta	90.001858
_cell_angle_gamma	89.251232
_symmetry_space_group_name_H-M	'P 1'
_symmetry_Int_Tables_number		1

loop_
	_symmetry_equiv_pos_as_xyz
	x,y,z

loop_
	_atom_site_label
	_atom_site_type_symbol
	_atom_site_fract_x
	_atom_site_fract_y
	_atom_site_fract_z
	H0	H	0.424291	0.831289	0.713461
	H1	H	0.612251	0.162028	0.711212
	H2	H	0.617809	0.830805	0.287775
	H3	H	0.417706	0.161475	0.287913
	H4	H	0.736816	0.393128	0.834148
	H5	H	0.732560	0.592629	0.165123
	H6	H	0.303668	0.598555	0.833694
	H7	H	0.307824	0.399646	0.164546
	H8	H	0.855479	0.714612	0.397236
	H9	H	0.183501	0.708583	0.597623
	H10	H	0.854492	0.283428	0.599343
	H11	H	0.180647	0.276103	0.396204
	H12	H	0.855463	0.398550	0.714529
	H13	H	0.183992	0.590161	0.710928
	H14	H	0.855240	0.596071	0.283205
	H15	H	0.184414	0.397940	0.287646
	H16	H	0.420476	0.711343	0.833361
	H17	H	0.616044	0.707458	0.165876
	H18	H	0.618793	0.281203	0.832884
	H19	H	0.422193	0.285525	0.165280
	H20	H	0.737463	0.832496	0.398704
	H21	H	0.731997	0.159881	0.601336
	H22	H	0.306366	0.830337	0.600268
	H23	H	0.298143	0.158547	0.398984
	H24	H	0.925516	0.330526	0.211740
	H25	H	0.114259	0.660677	0.211088
	H26	H	0.120663	0.330499	0.786111
	H27	H	0.921280	0.660600	0.786419
	H28	H	0.234638	0.893178	0.334689
	H29	H	0.229914	0.091776	0.665390
	H30	H	0.801487	0.098140	0.334580
	H31	H	0.805366	0.896600	0.664722
	H32	H	0.355018	0.213413	0.900453
	H33	H	0.683404	0.208026	0.099177
	H34	H	0.354519	0.783200	0.099874
	H35	H	0.681786	0.778439	0.898917
	H36	H	0.353895	0.900829	0.213724
	H37	H	0.682968	0.091506	0.214289
	H38	H	0.354021	0.095983	0.786420
	H39	H	0.683462	0.896311	0.786186
	H40	H	0.917166	0.210708	0.332855
	H41	H	0.114773	0.207779	0.664612
	H42	H	0.117634	0.782753	0.332642
	H43	H	0.920505	0.782867	0.665010
	H44	H	0.239426	0.332533	0.898184
	H45	H	0.229816	0.660838	0.097072
	H46	H	0.808457	0.331436	0.099555
	H47	H	0.800557	0.658909	0.896550
	H48	H	0.412336	0.113602	0.585686
	H49	H	0.608131	0.880318	0.588869
	H50	H	0.617370	0.114513	0.411487
	H51	H	0.419801	0.873624	0.401166
	H52	H	0.616768	0.394104	0.120433
	H53	H	0.625516	0.582303	0.877236
	H54	H	0.427451	0.590258	0.116961
	H55	H	0.432057	0.397833	0.878272
	H56	H	0.134891	0.591733	0.412309
	H57	H	0.904345	0.585927	0.588966
	H58	H	0.135919	0.394017	0.582958
	H59	H	0.901637	0.409316	0.399538
	H60	H	0.133411	0.407128	0.590384
	H61	H	0.900422	0.591484	0.594878
	H62	H	0.135269	0.582990	0.402069
	H63	H	0.899231	0.397901	0.403021
	H64	H	0.421502	0.594987	0.119852
	H65	H	0.599024	0.578452	0.886712
	H66	H	0.619386	0.408486	0.118524
	H67	H	0.420449	0.405001	0.877302
	H68	H	0.609449	0.115565	0.399086
	H69	H	0.620218	0.878276	0.587594
	H70	H	0.422160	0.116059	0.601415
	H71	H	0.435185	0.879335	0.403281
	H72	H	0.923128	0.612193	0.086271
	H73	H	0.116320	0.374300	0.104011
	H74	H	0.109744	0.612038	0.907799
	H75	H	0.919433	0.373865	0.902052
	H76	H	0.114154	0.907480	0.617174
	H77	H	0.113238	0.085227	0.379883
	H78	H	0.931591	0.091835	0.616938
	H79	H	0.933415	0.908332	0.383093
	H80	H	0.636997	0.084759	0.898881
	H81	H	0.398039	0.097422	0.100949
	H82	H	0.633313	0.903556	0.085937
	H83	H	0.404528	0.913977	0.908191
	H84	H	0.637005	0.905075	0.100558
	H85	H	0.402403	0.098962	0.084372
	H86	H	0.637596	0.095791	0.905298
	H87	H	0.398040	0.901649	0.897583
	H88	H	0.919276	0.095369	0.620889
	H89	H	0.106016	0.082744	0.382821
	H90	H	0.106416	0.898026	0.617745
	H91	H	0.926436	0.897118	0.378695
	H92	H	0.116914	0.615693	0.904809
	H93	H	0.107366	0.382214	0.084848
	H94	H	0.922843	0.614829	0.092215
	H95	H	0.937478	0.378073	0.901230
	H96	H	0.429661	0.109532	0.585984
	H97	H	0.615139	0.876902	0.599366
	H98	H	0.603723	0.110851	0.411660
	H99	H	0.424172	0.880603	0.415845
	H100	H	0.606499	0.403956	0.115621
	H101	H	0.607364	0.603984	0.877454
	H102	H	0.420261	0.587726	0.118751
	H103	H	0.431689	0.411559	0.882364
	H104	H	0.139158	0.594585	0.400204
	H105	H	0.902555	0.594997	0.587006
	H106	H	0.138376	0.395282	0.597358
	H107	H	0.902812	0.405865	0.411430
	H108	H	0.927793	0.611592	0.090154
	H109	H	0.128779	0.375981	0.086131
	H110	H	0.109402	0.614293	0.900166
	H111	H	0.927926	0.380286	0.917280
	H112	H	0.116961	0.896732	0.621733
	H113	H	0.107783	0.090598	0.379466
	H114	H	0.921290	0.082140	0.616468
	H115	H	0.920239	0.909536	0.379760
	H116	H	0.634105	0.086001	0.911729
	H117	H	0.404316	0.083161	0.092395
	H118	H	0.637162	0.892361	0.092508
	H119	H	0.401103	0.897667	0.914383
	C120	C	0.395824	0.004033	0.620458
	C121	C	0.640665	0.987777	0.620956
	C122	C	0.640442	0.004791	0.378380
	C123	C	0.396003	0.986631	0.377871
	C124	C	0.642393	0.373013	0.007938
	C125	C	0.639243	0.615778	0.990466
	C126	C	0.395957	0.619757	0.008499
	C127	C	0.399630	0.376753	0.989656
	C128	C	0.027986	0.618995	0.375597
	C129	C	1.011097	0.617317	0.619148
	C130	C	0.027159	0.373104	0.619737
	C131	C	1.009742	0.374258	0.376182
	C132	C	0.898380	0.504240	0.119367
	C133	C	0.142226	0.487087	0.119764
	C134	C	0.142013	0.505012	0.876143
	C135	C	0.898050	0.486420	0.877072
	C136	C	0.141012	0.872417	0.508758
	C137	C	0.137772	0.114853	0.490135
	C138	C	0.895277	0.118989	0.508359
	C139	C	0.898253	0.876057	0.489945
	C140	C	0.527456	0.118636	0.876988
	C141	C	0.510176	0.119107	0.121663
	C142	C	0.527149	0.873825	0.121878
	C143	C	0.510022	0.874733	0.877800
	C144	C	0.401867	0.880203	0.676200
	C145	C	0.634459	0.112226	0.674900
	C146	C	0.638874	0.880634	0.324022
	C147	C	0.397459	0.111557	0.324496
	C148	C	0.698101	0.373834	0.883349
	C149	C	0.694568	0.613108	0.115479
	C150	C	0.341503	0.618199	0.883243
	C151	C	0.345330	0.379831	0.115040
	C152	C	0.904394	0.675469	0.377455
	C153	C	0.134600	0.670580	0.617131
	C154	C	0.903764	0.319945	0.619217
	C155	C	0.132564	0.316143	0.377337
	C156	C	0.904123	0.377789	0.676115
	C157	C	0.134763	0.611850	0.673677
	C158	C	0.904309	0.616626	0.320773
	C159	C	0.134459	0.376614	0.323222
	C160	C	0.399540	0.674271	0.883008
	C161	C	0.636816	0.670271	0.115848
	C162	C	0.639436	0.318132	0.882932
	C163	C	0.402102	0.322706	0.115281
	C164	C	0.698583	0.881690	0.379245
	C165	C	0.694082	0.111046	0.620026
	C166	C	0.343320	0.879691	0.619872
	C167	C	0.337564	0.109879	0.379291
	C168	C	0.903753	0.380128	0.174650
	C169	C	0.136345	0.611438	0.174123
	C170	C	0.141114	0.380290	0.822450
	C171	C	0.900111	0.610791	0.822641
	C172	C	0.196412	0.874027	0.383986
	C173	C	0.192474	0.112098	0.615482
	C174	C	0.839603	0.117520	0.383731
	C175	C	0.843494	0.877248	0.615220
	C176	C	0.403973	0.175204	0.879967
	C177	C	0.634239	0.171021	0.119191
	C178	C	0.403481	0.820748	0.119706
	C179	C	0.633211	0.817760	0.879700
	C180	C	0.403252	0.879397	0.176302
	C181	C	0.633830	0.113408	0.176857
	C182	C	0.403371	0.116469	0.823468
	C183	C	0.633827	0.876131	0.823082
	C184	C	0.896930	0.173825	0.383022
	C185	C	0.135067	0.169795	0.615162
	C186	C	0.137995	0.819346	0.382853
	C187	C	0.900506	0.820451	0.615287
	C188	C	0.200258	0.381356	0.878203
	C189	C	0.193779	0.611342	0.117302
	C190	C	0.845151	0.380743	0.119097
	C191	C	0.840065	0.609877	0.877469
	C192	C	0.415395	0.090542	0.597552
	C193	C	0.620407	0.900947	0.598570
	C194	C	0.617047	0.091467	0.400909
	C195	C	0.419539	0.900200	0.400141
	C196	C	0.620793	0.395442	0.095547
	C197	C	0.617156	0.594471	0.903223
	C198	C	0.416892	0.597708	0.096018
	C199	C	0.421535	0.398619	0.901956
	C200	C	0.114052	0.596386	0.398293
	C201	C	0.924693	0.596940	0.596901
	C202	C	0.113637	0.393002	0.596778
	C203	C	0.923581	0.397416	0.398192
	C204	C	0.918664	0.590664	0.096439
	C205	C	0.123125	0.400093	0.098102
	C206	C	0.118802	0.591539	0.897723
	C207	C	0.921437	0.399840	0.900153
	C208	C	0.119022	0.894215	0.596184
	C209	C	0.115416	0.092654	0.403087
	C210	C	0.917443	0.096427	0.595416
	C211	C	0.920275	0.898545	0.402944
	C212	C	0.613839	0.095511	0.898809
	C213	C	0.423870	0.099277	0.099201
	C214	C	0.613486	0.894319	0.099688
	C215	C	0.423453	0.897719	0.900284
	Zn216	Zn	0.518358	-0.003756	0.749083
	Zn217	Zn	0.518150	-0.003476	0.250318
	Zn218	Zn	0.768990	0.494944	-0.000990
	Zn219	Zn	0.270392	0.496822	-0.001645
	Zn220	Zn	0.019117	0.747716	0.498621
	Zn221	Zn	0.017055	0.245021	0.497835
	Zn222	Zn	0.019915	0.494939	0.748126
	Zn223	Zn	0.020136	0.495671	0.247577
	Zn224	Zn	0.518206	0.745421	-0.000633
	Zn225	Zn	0.519700	0.247474	-0.000751
	Zn226	Zn	0.769832	-0.003384	0.500038
	Zn227	Zn	0.266942	-0.006070	0.499190
	N228	N	0.433753	0.958518	0.676854
	N229	N	0.601860	0.034279	0.675736
	N230	N	0.603536	0.958243	0.323324
	N231	N	0.433166	0.033954	0.323435
	N232	N	0.700077	0.406998	0.962203
	N233	N	0.696168	0.579966	0.036490
	N234	N	0.338988	0.585071	0.962180
	N235	N	0.343295	0.412542	0.035597
	N236	N	0.982209	0.677148	0.410720
	N237	N	0.056642	0.674076	0.583801
	N238	N	0.981408	0.316930	0.584827
	N239	N	0.054143	0.314477	0.409519
	N240	N	0.982130	0.409708	0.676993
	N241	N	0.056882	0.579475	0.675067
	N242	N	0.982260	0.582331	0.319148
	N243	N	0.057131	0.412062	0.322225
	N244	N	0.432717	0.675275	0.961785
	N245	N	0.603087	0.672206	0.037230
	N246	N	0.605671	0.317311	0.961579
	N247	N	0.435327	0.320879	0.036494
	N248	N	0.699498	0.960095	0.412565
	N249	N	0.698231	0.032529	0.587586
	N250	N	0.339504	0.957541	0.585919
	N251	N	0.336489	0.031281	0.411841
	N252	N	0.936211	0.458044	0.175159
	N253	N	0.104924	0.532991	0.175869
	N254	N	0.105654	0.458064	0.820934
	N255	N	0.935270	0.532841	0.822043
	N256	N	0.198358	0.906279	0.463224
	N257	N	0.194271	0.078675	0.536758
	N258	N	0.838407	0.084015	0.462601
	N259	N	0.841797	0.910936	0.536380
	N260	N	0.482196	0.176453	0.912738
	N261	N	0.556429	0.174805	0.085722
	N262	N	0.481487	0.817099	0.086465
	N263	N	0.555083	0.816544	0.912750
	N264	N	0.481232	0.911555	0.177824
	N265	N	0.555701	0.081659	0.178383
	N266	N	0.481115	0.081970	0.821367
	N267	N	0.556096	0.910975	0.821952
	N268	N	0.930963	0.174693	0.461472
	N269	N	0.101937	0.171680	0.536204
	N270	N	0.104234	0.818104	0.461567
	N271	N	0.933743	0.819448	0.536383
	N272	N	0.201198	0.459954	0.910676
	N273	N	0.197679	0.533056	0.084552
	N274	N	0.841668	0.458887	0.085442
	N275	N	0.838681	0.531457	0.910532
	O276	O	-0.515533	0.475889	-0.531110
	H277	H	-0.502189	0.481467	-0.527893
	H278	H	-0.508779	0.475863	-0.526412
	O279	O	-0.013677	0.880528	0.964214
	H280	H	-0.011478	0.869718	0.969385
	H281	H	-0.008299	0.880526	0.963158
	O282	O	0.551389	0.603600	0.514314
	H283	H	0.552342	0.594775	0.517716
	H284	H	0.557825	0.588444	0.521893
	O285	O	0.583817	-0.582129	1.486485
	H286	H	0.586481	-0.574587	1.478209
	H287	H	0.593815	-0.581557	1.490160
	O288	O	0.973875	-0.076239	-0.025710
	H289	H	0.971825	-0.079793	-0.029094
	H290	H	0.976907	-0.069002	-0.019003
	O291	O	0.487460	0.539528	0.522126
	H292	H	0.480441	0.537413	0.514315
	H293	H	0.488798	0.546727	0.521228
	O294	O	1.028114	0.013651	0.966146
	H295	H	1.035548	0.010605	0.975048
	H296	H	1.032478	0.020476	0.963794
	O297	O	0.085096	0.113102	0.078913
	H298	H	0.080376	0.116292	0.077957
	H299	H	0.093981	0.120755	0.076306
	O300	O	0.569625	0.595114	0.521681
	H301	H	0.581409	0.598894	0.525594
	H302	H	0.569592	0.601388	0.515569
	O303	O	0.521347	0.496399	0.490053
	H304	H	0.513653	0.490198	0.490581
	H305	H	0.514142	0.498249	0.482869
	O306	O	1.019086	-0.051768	0.066823
	H307	H	1.020505	-0.050306	0.061326
	H308	H	1.015925	-0.048231	0.063068
	O309	O	0.022705	0.029793	1.006790
	H310	H	0.035500	0.023467	1.011571
	H311	H	0.013701	0.026632	1.007927
	O312	O	1.036405	1.012564	1.007383
	H313	H	1.041864	1.029689	1.006042
	H314	H	1.027527	1.022628	1.012525
	O315	O	0.474606	0.518975	0.522184
	H316	H	0.476929	0.513148	0.517823
	H317	H	0.474469	0.523366	0.525845
	O318	O	-0.046173	1.051615	0.000993
	H319	H	-0.048610	1.047200	0.002535
	H320	H	-0.059333	1.045260	-0.001694
	O321	O	0.006828	0.909031	0.972488
	H322	H	0.005773	0.905492	0.977652
	H323	H	0.022936	0.911224	0.967342
	O324	O	0.601848	0.478307	0.522077
	H325	H	0.596542	0.484083	0.524789
	H326	H	0.607523	0.480991	0.525463
	O327	O	-0.045629	1.059349	-0.047807
	H328	H	-0.048599	1.054081	-0.050063
	H329	H	-0.043475	1.057325	-0.047163
	O330	O	0.459292	0.495982	0.482456
	H331	H	0.452898	0.498442	0.484334
	H332	H	0.442336	0.500668	0.479745
	O333	O	0.505747	0.473430	0.603909
	H334	H	0.516118	0.469087	0.615684
	H335	H	0.491848	0.475570	0.602092
	O336	O	0.555556	0.499187	0.446713
	H337	H	0.553673	0.494630	0.440669
	H338	H	0.552191	0.505559	0.445932
	O339	O	0.985738	1.084874	0.025826
	H340	H	0.979457	1.089317	0.011255
	H341	H	0.977331	1.081129	0.030515
	O342	O	0.461748	0.481533	0.434841
	H343	H	0.465325	0.481152	0.444298
	H344	H	0.456428	0.478902	0.441366
	O345	O	0.608932	0.501545	0.489298
	H346	H	0.602617	0.509635	0.479561
	H347	H	0.620868	0.498548	0.499250
	O348	O	-0.002603	0.018911	0.060877
	H349	H	-0.002324	0.027809	0.063130
	H350	H	0.002320	0.018339	0.073703
	O351	O	-0.016236	0.992277	0.992692
	H352	H	-0.029302	0.993303	0.979852
	H353	H	-0.019569	0.976388	0.987638
	O354	O	0.532062	0.388895	0.491422
	H355	H	0.511715	0.384326	0.484019
	H356	H	0.536995	0.382397	0.474681
	O357	O	0.058674	0.934208	1.047898
	H358	H	0.065382	0.925752	1.041738
	H359	H	0.041888	0.922328	1.053946
