data_Molecule from HDF5

_cell_length_a		16.647333
_cell_length_b		16.686914
_cell_length_c		16.571881
_cell_angle_alpha	89.865042
_cell_angle_beta	90.151488
_cell_angle_gamma	89.815481
_symmetry_space_group_name_H-M	'P 1'
_symmetry_Int_Tables_number		1

loop_
	_symmetry_equiv_pos_as_xyz
	x,y,z

loop_
	_atom_site_label
	_atom_site_type_symbol
	_atom_site_fract_x
	_atom_site_fract_y
	_atom_site_fract_z
	H0	H	0.386506	0.856781	0.721487
	H1	H	0.593848	0.167271	0.714668
	H2	H	0.598733	0.854187	0.277913
	H3	H	0.391565	0.165762	0.277264
	H4	H	0.716867	0.402273	0.843617
	H5	H	0.715780	0.614245	0.152832
	H6	H	0.275570	0.614031	0.840568
	H7	H	0.272386	0.404564	0.152107
	H8	H	0.838391	0.733275	0.390845
	H9	H	0.149215	0.731974	0.602577
	H10	H	0.837923	0.290601	0.602756
	H11	H	0.147524	0.288625	0.390940
	H12	H	0.838683	0.406488	0.718653
	H13	H	0.149229	0.614845	0.718071
	H14	H	0.839749	0.617333	0.274058
	H15	H	0.149932	0.406767	0.277138
	H16	H	0.391678	0.728685	0.840739
	H17	H	0.599832	0.730559	0.152584
	H18	H	0.601383	0.287051	0.843906
	H19	H	0.388509	0.288996	0.152341
	H20	H	0.716536	0.855816	0.393300
	H21	H	0.709250	0.167916	0.597974
	H22	H	0.270787	0.856876	0.604674
	H23	H	0.273608	0.166241	0.392447
	H24	H	0.888324	0.357691	0.221783
	H25	H	0.102500	0.664848	0.220455
	H26	H	0.098958	0.356556	0.775329
	H27	H	0.885516	0.664248	0.773401
	H28	H	0.212713	0.908886	0.340158
	H29	H	0.215262	0.115850	0.652720
	H30	H	0.775834	0.113090	0.339322
	H31	H	0.775620	0.907969	0.654072
	H32	H	0.339784	0.232533	0.891489
	H33	H	0.646927	0.234893	0.107916
	H34	H	0.339878	0.787559	0.103015
	H35	H	0.649116	0.787871	0.890962
	H36	H	0.339215	0.904021	0.218994
	H37	H	0.648971	0.114540	0.219408
	H38	H	0.338650	0.115007	0.776687
	H39	H	0.649480	0.906075	0.777286
	H40	H	0.891022	0.228701	0.338860
	H41	H	0.098160	0.231213	0.652707
	H42	H	0.098004	0.792495	0.340700
	H43	H	0.889801	0.790396	0.653203
	H44	H	0.218073	0.357463	0.889882
	H45	H	0.218808	0.664721	0.104642
	H46	H	0.772380	0.357293	0.105568
	H47	H	0.769691	0.663137	0.888732
	H48	H	0.399581	0.125476	0.593141
	H49	H	0.586044	0.897334	0.589039
	H50	H	0.589836	0.122162	0.412747
	H51	H	0.396663	0.898345	0.414165
	H52	H	0.594446	0.424853	0.112586
	H53	H	0.578073	0.600612	0.886008
	H54	H	0.405273	0.599274	0.109803
	H55	H	0.404636	0.424257	0.885689
	H56	H	0.105082	0.595114	0.403692
	H57	H	0.883998	0.595058	0.587292
	H58	H	0.103998	0.427893	0.588646
	H59	H	0.881840	0.424456	0.404814
	H60	H	0.107815	0.415970	0.589410
	H61	H	0.879685	0.605639	0.588503
	H62	H	0.108738	0.608972	0.406530
	H63	H	0.881961	0.419690	0.410070
	H64	H	0.405604	0.598999	0.109493
	H65	H	0.586503	0.600545	0.883976
	H66	H	0.575515	0.431925	0.103320
	H67	H	0.408541	0.421876	0.886539
	H68	H	0.586095	0.125306	0.399006
	H69	H	0.582782	0.898864	0.587918
	H70	H	0.414875	0.118591	0.587155
	H71	H	0.402267	0.895472	0.399747
	H72	H	0.908599	0.622473	0.087283
	H73	H	0.088571	0.398214	0.088402
	H74	H	0.082554	0.621729	0.909486
	H75	H	0.902513	0.399723	0.912222
	H76	H	0.081183	0.922988	0.607827
	H77	H	0.082838	0.100084	0.385145
	H78	H	0.897093	0.104880	0.612938
	H79	H	0.908194	0.921487	0.385907
	H80	H	0.607296	0.102759	0.909806
	H81	H	0.380127	0.103625	0.089680
	H82	H	0.605569	0.917503	0.085066
	H83	H	0.381186	0.916271	0.911128
	H84	H	0.604494	0.921475	0.084678
	H85	H	0.385286	0.101875	0.077157
	H86	H	0.604587	0.096780	0.911393
	H87	H	0.385931	0.923724	0.910412
	H88	H	0.903347	0.098242	0.608192
	H89	H	0.081823	0.100461	0.385058
	H90	H	0.083746	0.919087	0.610145
	H91	H	0.901918	0.921173	0.384083
	H92	H	0.085382	0.622918	0.907421
	H93	H	0.076980	0.402384	0.087985
	H94	H	0.907548	0.618942	0.080513
	H95	H	0.905843	0.397877	0.903690
	H96	H	0.400225	0.118899	0.576518
	H97	H	0.585235	0.899196	0.585817
	H98	H	0.576542	0.119231	0.407914
	H99	H	0.411503	0.902727	0.410619
	H100	H	0.577139	0.411121	0.111431
	H101	H	0.582528	0.592953	0.886832
	H102	H	0.405932	0.599449	0.109942
	H103	H	0.405672	0.420445	0.884085
	H104	H	0.102794	0.600992	0.416894
	H105	H	0.884744	0.602685	0.578628
	H106	H	0.102786	0.420225	0.578980
	H107	H	0.884006	0.426280	0.410721
	H108	H	0.901835	0.622870	0.084227
	H109	H	0.083937	0.402911	0.077685
	H110	H	0.082281	0.623032	0.905880
	H111	H	0.911097	0.401156	0.910241
	H112	H	0.085693	0.923225	0.610133
	H113	H	0.082272	0.100989	0.384755
	H114	H	0.906116	0.107800	0.610910
	H115	H	0.904964	0.926557	0.385934
	H116	H	0.606523	0.098016	0.904894
	H117	H	0.385341	0.091684	0.086276
	H118	H	0.606040	0.920045	0.088400
	H119	H	0.380556	0.920713	0.904315
	C120	C	0.372337	0.018993	0.618856
	C121	C	0.614557	1.002029	0.618123
	C122	C	0.615912	0.019091	0.375614
	C123	C	0.372325	1.001923	0.376120
	C124	C	0.615492	0.388763	0.007011
	C125	C	0.615332	0.630588	0.988665
	C126	C	0.373964	0.630873	0.005948
	C127	C	0.373363	0.389599	0.988334
	C128	C	0.002933	0.633882	0.375369
	C129	C	0.985606	0.632634	0.617801
	C130	C	0.001781	0.390158	0.617785
	C131	C	0.985202	0.390768	0.376070
	C132	C	0.873566	0.519536	0.118084
	C133	C	0.116559	0.502888	0.118221
	C134	C	0.115714	0.519898	0.875128
	C135	C	0.872656	0.501360	0.875419
	C136	C	0.115428	0.890214	0.505987
	C137	C	0.114410	0.132254	0.488238
	C138	C	0.872248	0.133155	0.505659
	C139	C	0.873404	0.890981	0.488547
	C140	C	0.503242	0.132113	0.876122
	C141	C	0.485609	0.131316	0.118258
	C142	C	0.502692	0.887764	0.118683
	C143	C	0.485390	0.888546	0.876186
	C144	C	0.369092	0.903102	0.680469
	C145	C	0.613194	0.120093	0.675474
	C146	C	0.617160	0.901255	0.317568
	C147	C	0.371970	0.119239	0.316851
	C148	C	0.676548	0.384656	0.890365
	C149	C	0.675825	0.632730	0.105953
	C150	C	0.315268	0.632401	0.887711
	C151	C	0.312961	0.386698	0.105413
	C152	C	0.885678	0.693403	0.372559
	C153	C	0.102471	0.691866	0.620567
	C154	C	0.884762	0.330696	0.620472
	C155	C	0.101480	0.329465	0.373487
	C156	C	0.884971	0.388375	0.678036
	C157	C	0.102479	0.633590	0.677896
	C158	C	0.886285	0.636028	0.314380
	C159	C	0.102567	0.388230	0.316775
	C160	C	0.372950	0.689450	0.887764
	C161	C	0.618169	0.690434	0.105730
	C162	C	0.619164	0.327368	0.890447
	C163	C	0.370696	0.329074	0.105677
	C164	C	0.675827	0.902018	0.374770
	C165	C	0.670687	0.120510	0.617561
	C166	C	0.311307	0.903228	0.622530
	C167	C	0.313622	0.119556	0.374113
	C168	C	0.870581	0.403893	0.180680
	C169	C	0.120418	0.618520	0.179907
	C170	C	0.117977	0.403197	0.815167
	C171	C	0.868335	0.617484	0.813949
	C172	C	0.173920	0.889529	0.387721
	C173	C	0.174765	0.134388	0.605748
	C174	C	0.814612	0.132750	0.386933
	C175	C	0.814960	0.889305	0.606958
	C176	C	0.386368	0.192364	0.873269
	C177	C	0.601181	0.193106	0.123849
	C178	C	0.386310	0.827527	0.121615
	C179	C	0.602377	0.828514	0.873405
	C180	C	0.385992	0.885665	0.178947
	C181	C	0.602130	0.133661	0.179810
	C182	C	0.385760	0.133890	0.816311
	C183	C	0.602662	0.887133	0.816625
	C184	C	0.871957	0.190342	0.386691
	C185	C	0.116551	0.191659	0.605789
	C186	C	0.116873	0.831785	0.388015
	C187	C	0.871630	0.830875	0.606400
	C188	C	0.177090	0.403710	0.871955
	C189	C	0.178108	0.618467	0.122132
	C190	C	0.812821	0.403569	0.122900
	C191	C	0.810370	0.616816	0.871290
	C192	C	0.397759	0.100089	0.592985
	C193	C	0.591570	0.919904	0.594467
	C194	C	0.591195	0.100900	0.399720
	C195	C	0.396378	0.920005	0.401053
	C196	C	0.589606	0.414928	0.087892
	C197	C	0.589758	0.605307	0.906871
	C198	C	0.398550	0.606277	0.088289
	C199	C	0.398778	0.414992	0.906706
	C200	C	0.084535	0.608750	0.401499
	C201	C	0.903795	0.608174	0.592092
	C202	C	0.083574	0.414572	0.592844
	C203	C	0.903768	0.416215	0.401211
	C204	C	0.898812	0.600359	0.091446
	C205	C	0.090489	0.422228	0.091948
	C206	C	0.090436	0.601219	0.900326
	C207	C	0.899022	0.420641	0.901293
	C208	C	0.090651	0.914733	0.588040
	C209	C	0.089608	0.107612	0.406282
	C210	C	0.895507	0.110285	0.588984
	C211	C	0.897921	0.915851	0.406709
	C212	C	0.584840	0.106468	0.901623
	C213	C	0.404626	0.106191	0.091911
	C214	C	0.584130	0.912657	0.093252
	C215	C	0.403968	0.913218	0.901444
	Zn216	Zn	0.494044	0.010098	0.747871
	Zn217	Zn	0.493860	0.009725	0.247013
	Zn218	Zn	0.744051	0.509553	-0.002761
	Zn219	Zn	0.244915	0.510826	-0.003192
	Zn220	Zn	-0.006003	0.762426	0.496824
	Zn221	Zn	-0.007171	0.261225	0.497116
	Zn222	Zn	-0.006047	0.510719	0.746597
	Zn223	Zn	-0.004951	0.511797	0.247033
	Zn224	Zn	0.494229	0.759437	-0.003086
	Zn225	Zn	0.494169	0.260751	-0.002428
	Zn226	Zn	0.744516	0.011602	0.497805
	Zn227	Zn	0.243397	0.011145	0.497374
	N228	N	0.406537	0.976147	0.678154
	N229	N	0.579273	0.045203	0.676228
	N230	N	0.580593	0.975170	0.317853
	N231	N	0.407597	0.044947	0.317762
	N232	N	0.674719	0.422107	0.963881
	N233	N	0.674390	0.596453	0.031812
	N234	N	0.315486	0.596970	0.962408
	N235	N	0.314349	0.423470	0.031326
	N236	N	0.959388	0.692381	0.409610
	N237	N	0.028610	0.691484	0.583865
	N238	N	0.958629	0.331159	0.583970
	N239	N	0.027351	0.330649	0.409497
	N240	N	0.958841	0.424593	0.676381
	N241	N	0.028537	0.597416	0.676385
	N242	N	0.960357	0.599722	0.315918
	N243	N	0.029030	0.425323	0.317922
	N244	N	0.408508	0.688916	0.962381
	N245	N	0.581303	0.689234	0.031593
	N246	N	0.581952	0.329637	0.964159
	N247	N	0.407437	0.330641	0.031750
	N248	N	0.675413	0.976521	0.409835
	N249	N	0.671944	0.046103	0.582559
	N250	N	0.313176	0.976385	0.584720
	N251	N	0.313577	0.045382	0.410072
	N252	N	0.907466	0.477257	0.178027
	N253	N	0.082621	0.545639	0.177482
	N254	N	0.080767	0.476636	0.816868
	N255	N	0.906382	0.544502	0.816275
	N256	N	0.173369	0.925129	0.462315
	N257	N	0.173918	0.098581	0.531380
	N258	N	0.814387	0.098015	0.462226
	N259	N	0.815691	0.925973	0.532674
	N260	N	0.460565	0.191539	0.909683
	N261	N	0.527662	0.192091	0.086409
	N262	N	0.460136	0.828546	0.084869
	N263	N	0.528434	0.829038	0.909629
	N264	N	0.459568	0.922200	0.177437
	N265	N	0.529204	0.095824	0.176532
	N266	N	0.459724	0.097229	0.817753
	N267	N	0.528855	0.923610	0.817923
	N268	N	0.906911	0.190761	0.461820
	N269	N	0.079854	0.190773	0.531575
	N270	N	0.081332	0.831754	0.462656
	N271	N	0.907184	0.831681	0.531865
	N272	N	0.175980	0.477468	0.908461
	N273	N	0.176034	0.545333	0.084648
	N274	N	0.814379	0.476565	0.084707
	N275	N	0.812773	0.543547	0.908953
	O276	O	0.218816	1.058248	0.215182
	H277	H	0.211801	1.035409	0.201581
	H278	H	0.238786	1.042359	0.239703
	O279	O	0.284229	0.301550	0.703937
	H280	H	0.321162	0.304878	0.707721
	H281	H	0.253640	0.269783	0.738740
	O282	O	0.739992	0.263961	0.747587
	H283	H	0.715174	0.284400	0.727788
	H284	H	0.769434	0.273834	0.743681
	O285	O	0.701804	0.717101	0.703900
	H286	H	0.693359	0.726384	0.664679
	H287	H	0.733771	0.750931	0.734619
	O288	O	0.688965	0.512546	0.558095
	H289	H	0.683834	0.504453	0.576300
	H290	H	0.697514	0.487192	0.573729
	O291	O	0.277973	0.729981	0.465882
	H292	H	0.259166	0.748696	0.475088
	H293	H	0.271979	0.708537	0.487355
	O294	O	0.965585	0.057362	0.986887
	H295	H	0.961661	0.073843	0.986866
	H296	H	0.957404	0.060715	0.988838
	O297	O	0.221082	0.823863	-0.009297
	H298	H	0.222536	0.815215	-0.037147
	H299	H	0.235642	0.807527	-0.019227
	O300	O	0.632081	0.402139	0.546829
	H301	H	0.633337	0.417820	0.545539
	H302	H	0.634058	0.382621	0.526281
	O303	O	0.546560	0.715803	0.450525
	H304	H	0.545338	0.720859	0.443921
	H305	H	0.565316	0.714929	0.453092
	O306	O	0.498846	0.570330	0.361745
	H307	H	0.516189	0.580633	0.352660
	H308	H	0.502862	0.560595	0.383259
	O309	O	0.453136	0.358064	0.340659
	H310	H	0.438491	0.355807	0.336908
	H311	H	0.455385	0.369909	0.334398
	O312	O	0.339330	0.509872	0.698463
	H313	H	0.345942	0.491544	0.702288
	H314	H	0.329151	0.510589	0.712181
	O315	O	1.026127	1.242311	1.216705
	H316	H	1.059564	1.248505	1.227119
	H317	H	1.045723	1.255235	1.236377
	O318	O	0.269077	0.291430	0.525667
	H319	H	0.261092	0.282765	0.554089
	H320	H	0.258160	0.277009	0.539323
	O321	O	0.494532	0.562600	0.368635
	H322	H	0.509009	0.553408	0.378937
	H323	H	0.497954	0.568181	0.377622
	O324	O	1.283228	1.524385	-0.717661
	H325	H	1.296236	1.546800	-0.722731
	H326	H	1.267422	1.550072	-0.731163
	O327	O	-0.215101	-0.203356	1.038990
	H328	H	-0.200567	-0.201221	1.056808
	H329	H	-0.236194	-0.231812	1.039455
	O330	O	1.187702	0.205670	0.805887
	H331	H	1.159659	0.201681	0.830299
	H332	H	1.176217	0.173455	0.818440
	O333	O	0.762269	0.070778	0.058484
	H334	H	0.758855	0.072521	0.056656
	H335	H	0.757811	0.072651	0.054021
	O336	O	0.258708	0.454287	0.451429
	H337	H	0.254920	0.445836	0.449726
	H338	H	0.255632	0.448815	0.437725
	O339	O	1.180372	-0.168627	1.180962
	H340	H	1.200901	-0.196874	1.201323
	H341	H	1.172015	-0.169105	1.168455
	O342	O	-0.035999	-0.213175	0.215345
	H343	H	-0.028432	-0.235502	0.210274
	H344	H	-0.041764	-0.226067	0.218460
	O345	O	0.003318	0.985927	0.789703
	H346	H	0.010941	0.976321	0.790019
	H347	H	-0.004344	0.986394	0.793401
	O348	O	0.194430	0.068640	-0.105250
	H349	H	0.190728	0.060580	-0.099845
	H350	H	0.182318	0.075677	-0.097843
	O351	O	1.066767	0.056612	0.785693
	H352	H	1.067556	0.039021	0.795704
	H353	H	1.074442	0.056425	0.786475
	O354	O	0.033811	-0.208103	0.778225
	H355	H	0.046088	-0.221664	0.768177
	H356	H	0.045073	-0.211016	0.768654
	O357	O	0.321246	0.563307	0.606725
	H358	H	0.321881	0.544298	0.599558
	H359	H	0.319357	0.556617	0.622566
	O360	O	0.464778	0.719354	0.283388
	H361	H	0.490555	0.699672	0.282781
	H362	H	0.477511	0.741353	0.271101
	O363	O	-0.082324	0.074118	0.210826
	H364	H	-0.060120	0.092315	0.212406
	H365	H	-0.061831	0.077707	0.206862
	O366	O	0.491715	0.297656	0.461017
	H367	H	0.495582	0.295538	0.470487
	H368	H	0.490787	0.301669	0.467840
	O369	O	1.305033	0.317591	0.310141
	H370	H	1.319680	0.351115	0.315113
	H371	H	1.324731	0.325349	0.339359
	O372	O	0.711278	0.729276	0.534174
	H373	H	0.728202	0.734280	0.521512
	H374	H	0.718833	0.715529	0.534367
	O375	O	0.935440	-0.161533	-0.126968
	H376	H	0.938124	-0.158085	-0.119412
	H377	H	0.940265	-0.157426	-0.126270
	O378	O	1.182602	0.039711	0.015987
	H379	H	1.184053	0.039367	0.026041
	H380	H	1.183091	0.044506	0.015966
	O381	O	0.204026	1.225577	1.205636
	H382	H	0.238741	1.253433	1.240311
	H383	H	0.213465	1.171320	1.212297
	O384	O	0.955112	0.239277	1.052396
	H385	H	0.953580	0.246877	1.049381
	H386	H	0.961117	0.242563	1.078678
	O387	O	0.991688	1.233501	-0.163788
	H388	H	0.999343	1.238185	-0.176195
	H389	H	1.015782	1.231482	-0.157469
	O390	O	0.463684	0.461361	0.569528
	H391	H	0.471868	0.466339	0.568162
	H392	H	0.456135	0.459833	0.573383
	O393	O	0.513997	0.301217	0.338362
	H394	H	0.511383	0.297391	0.322339
	H395	H	0.504717	0.306512	0.338622
	O396	O	0.064204	1.039259	1.178899
	H397	H	0.074476	1.012154	1.174536
	H398	H	0.062297	1.045980	1.170883
	O399	O	-0.227838	0.039841	0.776348
	H400	H	-0.234832	0.066258	0.775873
	H401	H	-0.241834	0.047562	0.759777
	O402	O	0.504306	0.461209	0.641525
	H403	H	0.504108	0.466294	0.640349
	H404	H	0.494697	0.459945	0.651426
	O405	O	1.033111	-0.158680	1.000714
	H406	H	1.038312	-0.155853	0.987185
	H407	H	1.047030	-0.162406	0.985433
	O408	O	-0.079422	0.060979	-0.170003
	H409	H	-0.085174	0.063791	-0.171431
	H410	H	-0.087840	0.059871	-0.168242
	O411	O	0.523362	0.730760	0.718663
	H412	H	0.544383	0.743137	0.730844
	H413	H	0.526323	0.737047	0.721900
	O414	O	0.552309	0.512279	0.440471
	H415	H	0.558384	0.515855	0.448561
	H416	H	0.552803	0.507715	0.448432
	O417	O	0.721399	0.579210	0.428609
	H418	H	0.718683	0.559659	0.439711
	H419	H	0.724839	0.564017	0.427520
	O420	O	0.396914	0.503482	0.377547
	H421	H	0.405638	0.509544	0.379870
	H422	H	0.397448	0.509884	0.380219
	O423	O	0.015887	-0.113797	0.985574
	H424	H	0.020187	-0.099063	0.975392
	H425	H	0.010292	-0.111312	1.002258
	O426	O	0.701896	0.306733	0.290662
	H427	H	0.715256	0.276812	0.261815
	H428	H	0.677602	0.321096	0.292082
	O429	O	0.765938	0.931612	0.967201
	H430	H	0.761198	0.910224	0.976871
	H431	H	0.769150	0.932059	0.967530
	O432	O	0.474121	0.320431	0.649553
	H433	H	0.487731	0.324815	0.642524
	H434	H	0.479093	0.306687	0.655893
	O435	O	-0.010192	0.946300	0.063461
	H436	H	-0.011669	0.944717	0.064596
	H437	H	-0.009049	0.955123	0.068243
	O438	O	0.081988	-0.056237	0.141648
	H439	H	0.077059	-0.065800	0.144746
	H440	H	0.085123	-0.076278	0.150247
	O441	O	-0.042003	-0.149994	0.016832
	H442	H	-0.049391	-0.140234	0.005177
	H443	H	-0.021180	-0.147904	0.023228
	O444	O	0.801346	0.202600	0.185264
	H445	H	0.819294	0.197498	0.167788
	H446	H	0.812902	0.187293	0.169552
	O447	O	0.201492	0.911405	0.842053
	H448	H	0.217592	0.913285	0.825586
	H449	H	0.180356	0.912793	0.857686
	O450	O	-0.199684	0.817501	0.804436
	H451	H	-0.177647	0.826990	0.827905
	H452	H	-0.185956	0.844351	0.820731
	O453	O	0.402086	0.700256	0.468324
	H454	H	0.434104	0.709369	0.457661
	H455	H	0.396881	0.703824	0.483968
	O456	O	-0.231275	-0.029101	1.213840
	H457	H	-0.244209	-0.018605	1.232367
	H458	H	-0.221267	-0.010619	1.218112
	O459	O	0.723006	0.288999	0.462273
	H460	H	0.751496	0.261305	0.456251
	H461	H	0.711936	0.285637	0.429885
	O462	O	0.478147	0.631083	0.630674
	H463	H	0.471129	0.637495	0.606528
	H464	H	0.496715	0.641486	0.638054
	O465	O	0.671204	-0.306270	0.311197
	H466	H	0.673873	-0.320088	0.328701
	H467	H	0.694551	-0.298297	0.293341
	O468	O	0.600945	0.364691	0.670192
	H469	H	0.581544	0.376234	0.663775
	H470	H	0.592102	0.361476	0.660087
	O471	O	0.313722	0.693599	0.684166
	H472	H	0.325205	0.667440	0.671712
	H473	H	0.342692	0.684152	0.667320
	O474	O	0.199488	0.800422	0.789184
	H475	H	0.231809	0.778570	0.757016
	H476	H	0.187577	0.819770	0.805477
	O477	O	0.668174	0.512461	1.715933
	H478	H	0.654505	0.542345	1.716588
	H479	H	0.688325	0.521436	1.741804
	O480	O	0.214746	0.233012	0.024606
	H481	H	0.239057	0.256976	0.034133
	H482	H	0.210288	0.230909	0.064397
	O483	O	0.450400	0.426768	0.700159
	H484	H	0.452164	0.429703	0.691061
	H485	H	0.437403	0.420705	0.717491
	O486	O	0.991827	0.155199	0.974690
	H487	H	1.007921	0.158644	0.988036
	H488	H	0.968356	0.147864	0.972032
	O489	O	0.920848	1.208611	-0.116458
	H490	H	0.923354	1.210393	-0.103537
	H491	H	0.907694	1.212573	-0.110651
	O492	O	-0.231458	0.232798	-0.019957
	H493	H	-0.226857	0.231145	-0.048577
	H494	H	-0.252955	0.255509	-0.030161
	O495	O	0.278574	0.727670	1.283731
	H496	H	0.311390	0.722189	1.289529
	H497	H	0.287521	0.721354	1.320707
	O498	O	0.782045	0.798885	1.203244
	H499	H	0.785900	0.832951	1.210307
	H500	H	0.803499	0.807534	1.187882
	O501	O	0.708321	0.475840	0.284254
	H502	H	0.717180	0.462261	0.277232
	H503	H	0.720846	0.471242	0.282276
