data_Molecule from HDF5

_cell_length_a		16.255788
_cell_length_b		16.330636
_cell_length_c		16.123916
_cell_angle_alpha	90.126119
_cell_angle_beta	89.806063
_cell_angle_gamma	90.297809
_symmetry_space_group_name_H-M	'P 1'
_symmetry_Int_Tables_number		1

loop_
	_symmetry_equiv_pos_as_xyz
	x,y,z

loop_
	_atom_site_label
	_atom_site_type_symbol
	_atom_site_fract_x
	_atom_site_fract_y
	_atom_site_fract_z
	H0	H	0.408861	0.835293	0.715805
	H1	H	0.606286	0.162540	0.713785
	H2	H	0.605087	0.835492	0.285750
	H3	H	0.413233	0.162854	0.288265
	H4	H	0.721289	0.401757	0.836184
	H5	H	0.721890	0.598233	0.166125
	H6	H	0.297496	0.596566	0.835387
	H7	H	0.291228	0.399160	0.165272
	H8	H	0.843861	0.713629	0.401154
	H9	H	0.170221	0.717037	0.600278
	H10	H	0.843995	0.282760	0.600964
	H11	H	0.170304	0.283446	0.397510
	H12	H	0.842862	0.402113	0.714098
	H13	H	0.172184	0.598255	0.712877
	H14	H	0.843121	0.594505	0.288603
	H15	H	0.172179	0.403808	0.286369
	H16	H	0.411668	0.711890	0.836904
	H17	H	0.608014	0.714287	0.165529
	H18	H	0.608253	0.286291	0.837045
	H19	H	0.407068	0.284794	0.166587
	H20	H	0.722464	0.835754	0.400519
	H21	H	0.723221	0.161624	0.599898
	H22	H	0.291865	0.835846	0.599801
	H23	H	0.293660	0.161928	0.400854
	H24	H	0.908719	0.336157	0.214141
	H25	H	0.107565	0.662885	0.215767
	H26	H	0.104682	0.335700	0.785444
	H27	H	0.913982	0.663921	0.789770
	H28	H	0.221421	0.900654	0.336630
	H29	H	0.220763	0.097662	0.666863
	H30	H	0.795497	0.096505	0.336017
	H31	H	0.792405	0.899615	0.665302
	H32	H	0.346184	0.215508	0.900827
	H33	H	0.672390	0.215881	0.100652
	H34	H	0.345507	0.781784	0.103044
	H35	H	0.672113	0.785307	0.899924
	H36	H	0.343648	0.902246	0.213875
	H37	H	0.672770	0.097608	0.214607
	H38	H	0.344213	0.095154	0.788797
	H39	H	0.672266	0.903337	0.787321
	H40	H	0.909636	0.211097	0.335966
	H41	H	0.107292	0.215060	0.665400
	H42	H	0.107787	0.785332	0.336593
	H43	H	0.907374	0.785850	0.665165
	H44	H	0.224229	0.336653	0.898776
	H45	H	0.223645	0.662527	0.099376
	H46	H	0.793088	0.336696	0.098998
	H47	H	0.794108	0.662629	0.901695
	H48	H	0.399272	0.117044	0.585776
	H49	H	0.592198	0.884489	0.592450
	H50	H	0.592106	0.111702	0.409301
	H51	H	0.409926	0.877800	0.397563
	H52	H	0.596904	0.398152	0.120246
	H53	H	0.593312	0.594618	0.884882
	H54	H	0.424361	0.593377	0.117600
	H55	H	0.417324	0.398997	0.881459
	H56	H	0.121119	0.582781	0.406916
	H57	H	0.887473	0.603812	0.591414
	H58	H	0.123626	0.413063	0.596138
	H59	H	0.890250	0.405187	0.406278
	H60	H	0.126374	0.400115	0.592908
	H61	H	0.893931	0.587093	0.586693
	H62	H	0.129622	0.600546	0.399357
	H63	H	0.889556	0.402049	0.407540
	H64	H	0.410286	0.597040	0.123438
	H65	H	0.608541	0.600458	0.878618
	H66	H	0.610722	0.408718	0.123393
	H67	H	0.410458	0.409373	0.883069
	H68	H	0.609340	0.114481	0.416671
	H69	H	0.606151	0.882762	0.586081
	H70	H	0.415687	0.120220	0.612161
	H71	H	0.423740	0.886197	0.409350
	H72	H	0.922357	0.617758	0.107654
	H73	H	0.095059	0.382565	0.101661
	H74	H	0.099475	0.616056	0.901844
	H75	H	0.917251	0.382753	0.904944
	H76	H	0.105214	0.910200	0.620285
	H77	H	0.101258	0.089276	0.384004
	H78	H	0.913622	0.089257	0.618694
	H79	H	0.911386	0.903632	0.380543
	H80	H	0.627476	0.084842	0.892295
	H81	H	0.391474	0.091817	0.098095
	H82	H	0.622142	0.909463	0.084364
	H83	H	0.390766	0.895235	0.912608
	H84	H	0.625963	0.912054	0.100446
	H85	H	0.392158	0.097223	0.090925
	H86	H	0.631513	0.111369	0.908938
	H87	H	0.394692	0.910538	0.916720
	H88	H	0.918108	0.092179	0.618723
	H89	H	0.099299	0.092143	0.383848
	H90	H	0.094391	0.910709	0.616333
	H91	H	0.915075	0.910725	0.384028
	H92	H	0.102372	0.613317	0.913260
	H93	H	0.093428	0.387948	0.083517
	H94	H	0.922675	0.611137	0.081891
	H95	H	0.914227	0.384614	0.911423
	H96	H	0.429261	0.108026	0.586332
	H97	H	0.603959	0.878692	0.600931
	H98	H	0.606563	0.119345	0.398981
	H99	H	0.405169	0.882795	0.416367
	H100	H	0.596029	0.415232	0.116874
	H101	H	0.606151	0.583962	0.884274
	H102	H	0.413319	0.583156	0.116963
	H103	H	0.423014	0.409415	0.886896
	H104	H	0.123399	0.599213	0.418752
	H105	H	0.888540	0.590141	0.604845
	H106	H	0.120509	0.408514	0.583385
	H107	H	0.891404	0.404627	0.410392
	H108	H	0.900037	0.620598	0.093276
	H109	H	0.110429	0.381407	0.090190
	H110	H	0.110001	0.619369	0.905378
	H111	H	0.910256	0.381058	0.906049
	H112	H	0.097556	0.901976	0.620748
	H113	H	0.103525	0.092879	0.381974
	H114	H	0.913862	0.094048	0.620261
	H115	H	0.919275	0.903764	0.383430
	H116	H	0.619416	0.085704	0.922653
	H117	H	0.393738	0.089461	0.090548
	H118	H	0.628113	0.897645	0.093800
	H119	H	0.389091	0.906781	0.901107
	C120	C	0.385577	0.007222	0.623405
	C121	C	0.629779	0.990138	0.622253
	C122	C	0.630475	0.007491	0.378801
	C123	C	0.385763	0.990457	0.379288
	C124	C	0.629332	0.379009	0.010450
	C125	C	0.630692	0.621359	0.992152
	C126	C	0.388011	0.619724	0.009962
	C127	C	0.386629	0.377307	0.992838
	C128	C	0.016120	0.621367	0.379337
	C129	C	0.998700	0.621923	0.622033
	C130	C	0.015723	0.377936	0.620843
	C131	C	0.998865	0.376701	0.378188
	C132	C	0.886248	0.508371	0.122410
	C133	C	0.129022	0.491419	0.121450
	C134	C	0.131430	0.508160	0.877559
	C135	C	0.886647	0.491081	0.879438
	C136	C	0.128306	0.878665	0.510241
	C137	C	0.129672	0.120751	0.492326
	C138	C	0.886846	0.119841	0.509659
	C139	C	0.885867	0.877556	0.491751
	C140	C	0.517644	0.121631	0.879664
	C141	C	0.500431	0.121599	0.122658
	C142	C	0.517187	0.877296	0.122412
	C143	C	0.499803	0.876994	0.880214
	C144	C	0.388104	0.884039	0.678078
	C145	C	0.627165	0.113170	0.676885
	C146	C	0.626502	0.884403	0.323312
	C147	C	0.390690	0.113884	0.325286
	C148	C	0.683733	0.381765	0.885664
	C149	C	0.685046	0.618750	0.116572
	C150	C	0.334109	0.617012	0.885329
	C151	C	0.330071	0.379365	0.116485
	C152	C	0.892814	0.675882	0.381168
	C153	C	0.121753	0.678375	0.620463
	C154	C	0.892817	0.321309	0.620597
	C155	C	0.121679	0.321645	0.378376
	C156	C	0.892168	0.380668	0.676800
	C157	C	0.122588	0.619431	0.676288
	C158	C	0.892401	0.616588	0.325451
	C159	C	0.122643	0.381476	0.322983
	C160	C	0.390881	0.674345	0.885790
	C161	C	0.628473	0.676544	0.116308
	C162	C	0.627477	0.324214	0.886192
	C163	C	0.387495	0.322423	0.117073
	C164	C	0.685095	0.884681	0.380202
	C165	C	0.685363	0.112773	0.620104
	C166	C	0.330105	0.884321	0.620470
	C167	C	0.331363	0.113154	0.381260
	C168	C	0.888077	0.385306	0.177142
	C169	C	0.127312	0.614241	0.177346
	C170	C	0.126806	0.384757	0.822600
	C171	C	0.891720	0.614624	0.826047
	C172	C	0.183730	0.880694	0.385902
	C173	C	0.183760	0.118425	0.616966
	C174	C	0.832494	0.117086	0.385437
	C175	C	0.830358	0.880161	0.615868
	C176	C	0.394686	0.176723	0.881565
	C177	C	0.623574	0.177689	0.121020
	C178	C	0.394055	0.820901	0.121875
	C179	C	0.623216	0.822775	0.880911
	C180	C	0.393177	0.880683	0.177172
	C181	C	0.623933	0.118721	0.177100
	C182	C	0.393515	0.116731	0.825960
	C183	C	0.623308	0.881369	0.824545
	C184	C	0.889303	0.174095	0.385324
	C185	C	0.127467	0.176641	0.616338
	C186	C	0.127015	0.823457	0.385755
	C187	C	0.887085	0.823041	0.615812
	C188	C	0.185967	0.385296	0.879025
	C189	C	0.185241	0.613916	0.119672
	C190	C	0.830714	0.385357	0.119652
	C191	C	0.832476	0.614065	0.882069
	C192	C	0.408113	0.092965	0.601480
	C193	C	0.607303	0.904088	0.599736
	C194	C	0.608833	0.093211	0.401526
	C195	C	0.406750	0.904684	0.401320
	C196	C	0.607661	0.400994	0.097570
	C197	C	0.609026	0.599591	0.904995
	C198	C	0.409598	0.597644	0.096796
	C199	C	0.410082	0.399309	0.906262
	C200	C	0.102463	0.600339	0.401695
	C201	C	0.912390	0.600130	0.600516
	C202	C	0.101338	0.400439	0.597514
	C203	C	0.912646	0.397824	0.401046
	C204	C	0.908416	0.594416	0.100620
	C205	C	0.106269	0.405910	0.098573
	C206	C	0.110262	0.593769	0.899992
	C207	C	0.907934	0.405015	0.901065
	C208	C	0.105648	0.900966	0.596668
	C209	C	0.107742	0.098237	0.405706
	C210	C	0.908924	0.098318	0.596669
	C211	C	0.908670	0.899557	0.405032
	C212	C	0.603780	0.100409	0.901401
	C213	C	0.414608	0.099341	0.100036
	C214	C	0.603147	0.899723	0.099633
	C215	C	0.413706	0.898093	0.903025
	Zn216	Zn	0.508305	-0.001413	0.751555
	Zn217	Zn	0.508403	-0.000481	0.250446
	Zn218	Zn	0.757767	0.499823	0.001001
	Zn219	Zn	0.259604	0.499107	0.000627
	Zn220	Zn	0.007172	0.750591	0.500733
	Zn221	Zn	0.007820	0.247919	0.500384
	Zn222	Zn	0.007964	0.499554	0.749754
	Zn223	Zn	0.007654	0.499707	0.250882
	Zn224	Zn	0.508594	0.748244	0.001270
	Zn225	Zn	0.509088	0.250922	0.002211
	Zn226	Zn	0.759031	-0.001217	0.500847
	Zn227	Zn	0.256876	-0.001341	0.501283
	N228	N	0.421933	0.961451	0.680000
	N229	N	0.593397	0.035705	0.678489
	N230	N	0.593318	0.961769	0.322371
	N231	N	0.423774	0.036572	0.323787
	N232	N	0.684897	0.415449	0.964003
	N233	N	0.686547	0.585068	0.038327
	N234	N	0.332103	0.583755	0.963713
	N235	N	0.329264	0.412472	0.038223
	N236	N	0.970989	0.679077	0.414135
	N237	N	0.043749	0.680152	0.587552
	N238	N	0.970585	0.319607	0.586380
	N239	N	0.043732	0.318559	0.412047
	N240	N	0.969460	0.415355	0.676923
	N241	N	0.045152	0.584826	0.677302
	N242	N	0.969934	0.583427	0.324423
	N243	N	0.045216	0.414948	0.322877
	N244	N	0.423696	0.675974	0.964177
	N245	N	0.595360	0.678048	0.037893
	N246	N	0.594217	0.322622	0.964732
	N247	N	0.421805	0.320933	0.038873
	N248	N	0.687824	0.962174	0.413808
	N249	N	0.686845	0.035158	0.586716
	N250	N	0.328273	0.961912	0.587426
	N251	N	0.328182	0.035459	0.414030
	N252	N	0.921801	0.462790	0.179107
	N253	N	0.093266	0.537089	0.178609
	N254	N	0.093810	0.462154	0.821385
	N255	N	0.924453	0.537076	0.824193
	N256	N	0.184621	0.914251	0.464011
	N257	N	0.185272	0.084345	0.538867
	N258	N	0.830926	0.083997	0.463789
	N259	N	0.829541	0.913337	0.537556
	N260	N	0.472685	0.179926	0.914140
	N261	N	0.545638	0.179544	0.087767
	N262	N	0.472126	0.818634	0.088722
	N263	N	0.545348	0.819853	0.914720
	N264	N	0.470616	0.915165	0.177567
	N265	N	0.546456	0.084538	0.178152
	N266	N	0.470977	0.083356	0.824397
	N267	N	0.545698	0.914359	0.824001
	N268	N	0.922581	0.175874	0.463639
	N269	N	0.094682	0.178311	0.537724
	N270	N	0.093203	0.821844	0.464054
	N271	N	0.921336	0.821681	0.537791
	N272	N	0.189011	0.462869	0.912506
	N273	N	0.186206	0.536572	0.085373
	N274	N	0.829341	0.462850	0.086392
	N275	N	0.829004	0.536201	0.914363
	O276	O	1.013475	0.990075	0.011861
	H277	H	1.009867	0.994513	0.007572
	H278	H	1.012149	0.994740	0.007252
	O279	O	0.042938	0.031914	0.065880
	H280	H	0.041404	0.035477	0.060216
	H281	H	0.041901	0.021623	0.052170
	O282	O	0.018759	0.060643	1.100090
	H283	H	0.008258	0.060990	1.104506
	H284	H	0.021568	0.063530	1.099018
	O285	O	0.457718	0.460959	0.611236
	H286	H	0.449347	0.465300	0.621340
	H287	H	0.451304	0.456568	0.606385
	O288	O	0.436581	0.431512	0.589919
	H289	H	0.433179	0.435370	0.596280
	H290	H	0.434105	0.434127	0.583450
	O291	O	0.426465	0.385574	0.618925
	H292	H	0.430892	0.374117	0.622115
	H293	H	0.432390	0.391826	0.626464
	O294	O	0.044245	0.003087	0.035271
	H295	H	0.051862	0.006000	0.043288
	H296	H	0.051566	0.009031	0.040961
	O297	O	0.042114	0.039673	-0.035090
	H298	H	0.036354	0.042172	-0.043784
	H299	H	0.046161	0.036500	-0.024659
	O300	O	-0.027005	1.001674	0.943998
	H301	H	-0.031467	1.003900	0.936215
	H302	H	-0.022240	1.003998	0.939911
	O303	O	0.396971	0.457149	0.593625
	H304	H	0.398000	0.444194	0.594546
	H305	H	0.382477	0.450326	0.597868
	O306	O	0.041113	-0.042600	1.066923
	H307	H	0.032678	-0.048506	1.067867
	H308	H	0.051349	-0.049774	1.065046
	O309	O	0.987222	1.020155	1.082116
	H310	H	0.983212	1.019032	1.090170
	H311	H	0.995146	1.024712	1.090936
	O312	O	0.436359	0.371715	0.630296
	H313	H	0.450730	0.365487	0.645836
	H314	H	0.430197	0.381807	0.625192
	O315	O	0.034493	1.059797	0.017356
	H316	H	0.039196	1.062119	0.037693
	H317	H	0.029793	1.064938	0.027001
	O318	O	0.087936	0.981367	0.001639
	H319	H	0.086575	0.978426	0.004485
	H320	H	0.089928	0.986727	0.010539
	O321	O	0.988824	0.995632	-0.012126
	H322	H	0.997881	0.993540	-0.009170
	H323	H	0.989235	0.996470	-0.021559
