data_Molecule from HDF5

_cell_length_a		16.581654
_cell_length_b		16.312399
_cell_length_c		16.265259
_cell_angle_alpha	90.053585
_cell_angle_beta	90.122597
_cell_angle_gamma	89.942770
_symmetry_space_group_name_H-M	'P 1'
_symmetry_Int_Tables_number		1

loop_
	_symmetry_equiv_pos_as_xyz
	x,y,z

loop_
	_atom_site_label
	_atom_site_type_symbol
	_atom_site_fract_x
	_atom_site_fract_y
	_atom_site_fract_z
	H0	H	0.395803	0.834306	0.715742
	H1	H	0.606376	0.153512	0.722542
	H2	H	0.600812	0.836023	0.279561
	H3	H	0.391566	0.154092	0.274437
	H4	H	0.725206	0.379749	0.839603
	H5	H	0.722120	0.601689	0.153947
	H6	H	0.273432	0.606176	0.838082
	H7	H	0.276313	0.386352	0.153708
	H8	H	0.843564	0.720626	0.388382
	H9	H	0.155705	0.720055	0.605445
	H10	H	0.843091	0.271133	0.606359
	H11	H	0.155960	0.272837	0.391306
	H12	H	0.842368	0.389177	0.720552
	H13	H	0.154021	0.605539	0.723845
	H14	H	0.843396	0.601979	0.271331
	H15	H	0.156781	0.389259	0.274514
	H16	H	0.394348	0.715320	0.834829
	H17	H	0.601984	0.713587	0.156327
	H18	H	0.605657	0.269584	0.837541
	H19	H	0.393256	0.272682	0.155520
	H20	H	0.724648	0.841575	0.387138
	H21	H	0.724608	0.153733	0.610390
	H22	H	0.273415	0.838294	0.607888
	H23	H	0.274009	0.152284	0.386831
	H24	H	0.899290	0.333297	0.213031
	H25	H	0.101324	0.656170	0.214594
	H26	H	0.101513	0.334757	0.777579
	H27	H	0.895696	0.655815	0.780430
	H28	H	0.219427	0.890033	0.337872
	H29	H	0.221915	0.103958	0.656450
	H30	H	0.775185	0.107300	0.338282
	H31	H	0.777465	0.890614	0.655827
	H32	H	0.341493	0.216492	0.889276
	H33	H	0.657283	0.214970	0.101354
	H34	H	0.340654	0.774298	0.100789
	H35	H	0.656765	0.774023	0.893647
	H36	H	0.339992	0.891666	0.216553
	H37	H	0.657018	0.097777	0.217831
	H38	H	0.342496	0.100445	0.772118
	H39	H	0.657285	0.889301	0.776222
	H40	H	0.895891	0.215319	0.335735
	H41	H	0.100847	0.214155	0.659240
	H42	H	0.103344	0.775897	0.336540
	H43	H	0.895448	0.776890	0.657148
	H44	H	0.221528	0.336649	0.888561
	H45	H	0.223143	0.653181	0.105144
	H46	H	0.776254	0.335624	0.105547
	H47	H	0.773617	0.651349	0.887675
	H48	H	0.410633	0.108306	0.586411
	H49	H	0.592338	0.882911	0.579814
	H50	H	0.588973	0.113158	0.404845
	H51	H	0.404788	0.879199	0.407948
	H52	H	0.583625	0.408328	0.108430
	H53	H	0.587585	0.577426	0.883299
	H54	H	0.412489	0.587259	0.110429
	H55	H	0.409623	0.407477	0.881482
	H56	H	0.111692	0.584063	0.405545
	H57	H	0.886731	0.589388	0.582672
	H58	H	0.111833	0.411860	0.593368
	H59	H	0.887215	0.408079	0.405924
	H60	H	0.113024	0.399041	0.584408
	H61	H	0.889326	0.582257	0.583775
	H62	H	0.112491	0.586497	0.407533
	H63	H	0.885624	0.405375	0.404751
	H64	H	0.405477	0.582689	0.110954
	H65	H	0.583430	0.584295	0.881126
	H66	H	0.588523	0.402571	0.111327
	H67	H	0.410897	0.409108	0.882833
	H68	H	0.581008	0.109001	0.409537
	H69	H	0.591121	0.881689	0.585775
	H70	H	0.412520	0.106785	0.581147
	H71	H	0.410715	0.880860	0.407292
	H72	H	0.912256	0.606253	0.079252
	H73	H	0.085051	0.382780	0.081874
	H74	H	0.090637	0.610330	0.910786
	H75	H	0.906963	0.377211	0.904014
	H76	H	0.094926	0.914988	0.611348
	H77	H	0.093776	0.084869	0.380915
	H78	H	0.907869	0.071077	0.607368
	H79	H	0.910401	0.909821	0.383784
	H80	H	0.608868	0.084213	0.915009
	H81	H	0.387760	0.086449	0.079740
	H82	H	0.613711	0.902257	0.092723
	H83	H	0.385784	0.908137	0.902551
	H84	H	0.610775	0.900804	0.083457
	H85	H	0.388440	0.078455	0.085873
	H86	H	0.607980	0.075598	0.910419
	H87	H	0.384262	0.901340	0.904770
	H88	H	0.922208	0.089813	0.609086
	H89	H	0.086332	0.077735	0.386122
	H90	H	0.079660	0.910933	0.607944
	H91	H	0.909707	0.910228	0.382018
	H92	H	0.085139	0.608999	0.908032
	H93	H	0.094173	0.380924	0.080367
	H94	H	0.904102	0.609438	0.080624
	H95	H	0.917579	0.382327	0.907838
	H96	H	0.407184	0.109037	0.582038
	H97	H	0.586847	0.884202	0.582331
	H98	H	0.589562	0.109977	0.414613
	H99	H	0.408071	0.882700	0.413026
	H100	H	0.591710	0.410577	0.110030
	H101	H	0.591727	0.583811	0.879103
	H102	H	0.412323	0.579404	0.107914
	H103	H	0.412064	0.406423	0.881972
	H104	H	0.110376	0.584323	0.408610
	H105	H	0.885683	0.586081	0.589236
	H106	H	0.106269	0.412551	0.578446
	H107	H	0.888016	0.404919	0.407794
	H108	H	0.909387	0.609424	0.087346
	H109	H	0.090131	0.378778	0.088624
	H110	H	0.086423	0.606710	0.915133
	H111	H	0.907474	0.381353	0.916372
	H112	H	0.089891	0.899820	0.615444
	H113	H	0.083649	0.088799	0.383450
	H114	H	0.899898	0.091353	0.616757
	H115	H	0.910542	0.911179	0.382709
	H116	H	0.611576	0.083061	0.905552
	H117	H	0.384879	0.086842	0.089128
	H118	H	0.610006	0.909233	0.087904
	H119	H	0.388328	0.905389	0.909328
	C120	C	0.378096	0.003097	0.616846
	C121	C	0.622295	0.987322	0.618022
	C122	C	0.619136	0.005852	0.376794
	C123	C	0.375965	0.986042	0.375590
	C124	C	0.620897	0.372197	0.005104
	C125	C	0.619968	0.614529	0.986872
	C126	C	0.376906	0.616514	0.004517
	C127	C	0.378306	0.374366	0.987408
	C128	C	0.008035	0.618324	0.373556
	C129	C	0.990601	0.618576	0.619100
	C130	C	0.007166	0.374269	0.618928
	C131	C	0.990849	0.373452	0.374592
	C132	C	0.877727	0.502985	0.116390
	C133	C	0.121213	0.486492	0.116879
	C134	C	0.119903	0.503788	0.876685
	C135	C	0.877134	0.485278	0.875707
	C136	C	0.120149	0.875530	0.506013
	C137	C	0.120156	0.116937	0.489008
	C138	C	0.877406	0.118212	0.505597
	C139	C	0.878443	0.877063	0.488402
	C140	C	0.506958	0.115532	0.875020
	C141	C	0.490737	0.116232	0.118384
	C142	C	0.507102	0.872631	0.119254
	C143	C	0.490712	0.872785	0.874535
	C144	C	0.376518	0.882736	0.676649
	C145	C	0.624384	0.106142	0.681410
	C146	C	0.620911	0.884881	0.317789
	C147	C	0.373434	0.105751	0.314221
	C148	C	0.683699	0.364673	0.886636
	C149	C	0.680908	0.618511	0.106556
	C150	C	0.315115	0.621711	0.885115
	C151	C	0.316918	0.369316	0.106432
	C152	C	0.890323	0.679513	0.370140
	C153	C	0.108195	0.679942	0.623326
	C154	C	0.889716	0.312320	0.623065
	C155	C	0.109180	0.313302	0.372830
	C156	C	0.889557	0.370976	0.680447
	C157	C	0.107622	0.622533	0.682269
	C158	C	0.889913	0.620654	0.312182
	C159	C	0.109240	0.371173	0.314530
	C160	C	0.374796	0.676755	0.883806
	C161	C	0.621442	0.674571	0.107518
	C162	C	0.624293	0.309385	0.885588
	C163	C	0.375318	0.312776	0.107089
	C164	C	0.682071	0.887623	0.371525
	C165	C	0.683493	0.106469	0.625440
	C166	C	0.315415	0.884869	0.623006
	C167	C	0.314788	0.105153	0.370375
	C168	C	0.878401	0.382005	0.175270
	C169	C	0.120994	0.607787	0.175704
	C170	C	0.120878	0.383138	0.816544
	C171	C	0.875645	0.606420	0.817584
	C172	C	0.179701	0.872160	0.385561
	C173	C	0.180980	0.120767	0.608916
	C174	C	0.816111	0.123562	0.385896
	C175	C	0.818060	0.873246	0.608087
	C176	C	0.388969	0.176471	0.871141
	C177	C	0.609701	0.175699	0.120361
	C178	C	0.388001	0.814031	0.119444
	C179	C	0.609658	0.813633	0.874346
	C180	C	0.387751	0.872216	0.177407
	C181	C	0.609645	0.116994	0.178059
	C182	C	0.389339	0.118519	0.812792
	C183	C	0.609622	0.871050	0.815852
	C184	C	0.876267	0.177539	0.384636
	C185	C	0.120693	0.175725	0.610373
	C186	C	0.121814	0.815448	0.385156
	C187	C	0.876907	0.816435	0.608746
	C188	C	0.180609	0.384062	0.871858
	C189	C	0.181417	0.606483	0.121192
	C190	C	0.817274	0.383231	0.121572
	C191	C	0.814987	0.604212	0.871150
	C192	C	0.403077	0.086197	0.590773
	C193	C	0.597178	0.904553	0.590465
	C194	C	0.593574	0.089077	0.402424
	C195	C	0.401042	0.902624	0.401836
	C196	C	0.595253	0.399332	0.088134
	C197	C	0.594984	0.589043	0.903095
	C198	C	0.402574	0.590462	0.088010
	C199	C	0.403563	0.400331	0.903950
	C200	C	0.090159	0.592345	0.399519
	C201	C	0.908538	0.592855	0.592836
	C202	C	0.088815	0.400245	0.592869
	C203	C	0.908461	0.398864	0.399100
	C204	C	0.901741	0.586569	0.090058
	C205	C	0.096964	0.402699	0.091244
	C206	C	0.094825	0.586971	0.903524
	C207	C	0.902998	0.402064	0.901826
	C208	C	0.095363	0.901161	0.589773
	C209	C	0.095232	0.091336	0.405441
	C210	C	0.902701	0.091787	0.589236
	C211	C	0.903128	0.902985	0.404596
	C212	C	0.588477	0.088755	0.902213
	C213	C	0.408559	0.091146	0.092524
	C214	C	0.589860	0.897137	0.095031
	C215	C	0.407679	0.897706	0.898690
	Zn216	Zn	0.499379	-0.005971	0.744977
	Zn217	Zn	0.498129	-0.005237	0.248582
	Zn218	Zn	0.748954	0.492790	-0.004018
	Zn219	Zn	0.249533	0.495511	-0.003940
	Zn220	Zn	-0.000967	0.747653	0.496611
	Zn221	Zn	-0.000940	0.245250	0.496918
	Zn222	Zn	-0.001190	0.495893	0.748455
	Zn223	Zn	-0.000580	0.494941	0.244510
	Zn224	Zn	0.498431	0.743543	-0.003844
	Zn225	Zn	0.498969	0.245723	-0.003575
	Zn226	Zn	0.749383	-0.001625	0.496351
	Zn227	Zn	0.248392	-0.004410	0.497176
	N228	N	0.415025	0.957088	0.672965
	N229	N	0.586740	0.031278	0.676774
	N230	N	0.582535	0.959377	0.320795
	N231	N	0.410817	0.030632	0.317461
	N232	N	0.681845	0.403020	0.961944
	N233	N	0.680189	0.581719	0.030489
	N234	N	0.316223	0.584936	0.961314
	N235	N	0.318599	0.407115	0.031032
	N236	N	0.964604	0.677953	0.407546
	N237	N	0.034434	0.677595	0.584731
	N238	N	0.963874	0.314122	0.585626
	N239	N	0.034682	0.314650	0.409390
	N240	N	0.963378	0.409049	0.678019
	N241	N	0.033438	0.585174	0.679916
	N242	N	0.964240	0.583353	0.314097
	N243	N	0.034679	0.407992	0.315387
	N244	N	0.412495	0.673736	0.959002
	N245	N	0.584174	0.672190	0.032116
	N246	N	0.585958	0.314060	0.960275
	N247	N	0.412852	0.315865	0.032006
	N248	N	0.681219	0.963870	0.407407
	N249	N	0.682022	0.031760	0.586452
	N250	N	0.316269	0.960744	0.586438
	N251	N	0.316243	0.029728	0.407959
	N252	N	0.915218	0.457424	0.172347
	N253	N	0.084299	0.532367	0.173127
	N254	N	0.084018	0.458617	0.819372
	N255	N	0.913454	0.531486	0.820145
	N256	N	0.178886	0.908598	0.461751
	N257	N	0.180899	0.085020	0.532413
	N258	N	0.816579	0.087583	0.462283
	N259	N	0.818669	0.909969	0.532018
	N260	N	0.463258	0.174846	0.908892
	N261	N	0.534616	0.175527	0.084300
	N262	N	0.463231	0.814058	0.084076
	N263	N	0.534659	0.814609	0.909932
	N264	N	0.462841	0.907908	0.177489
	N265	N	0.534526	0.081076	0.177200
	N266	N	0.463783	0.081542	0.814942
	N267	N	0.534414	0.906728	0.815630
	N268	N	0.913517	0.174608	0.460351
	N269	N	0.083609	0.173462	0.534771
	N270	N	0.085640	0.817235	0.461057
	N271	N	0.913506	0.818547	0.533024
	N272	N	0.180272	0.460278	0.908140
	N273	N	0.181726	0.530052	0.085449
	N274	N	0.816600	0.459697	0.085838
	N275	N	0.815425	0.527595	0.906237
	O276	O	0.541002	0.597388	0.471276
	H277	H	0.543065	0.594433	0.481673
	H278	H	0.552691	0.580795	0.471834
	O279	O	0.464674	0.284255	0.706179
	H280	H	0.463955	0.253807	0.714717
	H281	H	0.463659	0.280988	0.693308
	O282	O	0.634344	0.689960	0.373351
	H283	H	0.622258	0.687119	0.388226
	H284	H	0.620988	0.677703	0.393810
	O285	O	0.906203	1.052296	-0.076590
	H286	H	0.904392	1.059325	-0.079672
	H287	H	0.905115	1.049809	-0.093692
	O288	O	0.522365	0.274387	0.276753
	H289	H	0.575210	0.289273	0.289916
	H290	H	0.527772	0.237959	0.240318
	O291	O	0.559062	0.277087	0.556235
	H292	H	0.567647	0.280390	0.563995
	H293	H	0.561208	0.291226	0.539766
	O294	O	0.982014	1.083920	0.960766
	H295	H	0.987206	1.070822	0.965469
	H296	H	0.957213	1.080515	0.964483
	O297	O	0.432496	0.694025	0.571876
	H298	H	0.418271	0.665427	0.559278
	H299	H	0.433150	0.705075	0.556919
	O300	O	0.281967	0.311465	0.555938
	H301	H	0.299157	0.291072	0.536293
	H302	H	0.260639	0.290634	0.548636
	O303	O	0.286697	0.706182	0.472136
	H304	H	0.280583	0.683079	0.496242
	H305	H	0.256933	0.722679	0.476928
	O306	O	0.134616	0.113433	1.106062
	H307	H	0.146913	0.114964	1.098566
	H308	H	0.135804	0.108843	1.116569
	O309	O	1.049541	0.102455	0.000883
	H310	H	1.043539	0.104851	-0.000638
	H311	H	1.056135	0.113441	0.011521
	O312	O	0.554437	0.539860	0.295943
	H313	H	0.521299	0.529985	0.286659
	H314	H	0.547826	0.542155	0.312870
	O315	O	0.388512	0.416738	0.350065
	H316	H	0.394841	0.380154	0.343199
	H317	H	0.365701	0.430746	0.339950
	O318	O	0.175919	0.082429	0.163664
	H319	H	0.170897	0.098729	0.152660
	H320	H	0.169672	0.071397	0.160133
	O321	O	0.317084	0.458458	0.712325
	H322	H	0.291592	0.452849	0.742937
	H323	H	0.334574	0.427956	0.703571
	O324	O	0.816484	-0.166819	0.988687
	H325	H	0.819383	-0.174666	0.991700
	H326	H	0.807942	-0.163026	0.989270
	O327	O	0.690094	0.678970	0.674164
	H328	H	0.675466	0.653657	0.684378
	H329	H	0.682660	0.660347	0.679537
	O330	O	-0.179416	0.965723	0.950790
	H331	H	-0.182491	0.962281	0.965414
	H332	H	-0.169300	0.959193	0.957829
	O333	O	0.085932	1.165394	0.114832
	H334	H	0.096502	1.160584	0.107629
	H335	H	0.081613	1.168564	0.108483
	O336	O	0.920094	1.029541	-0.129755
	H337	H	0.913269	1.022148	-0.134952
	H338	H	0.929046	1.022528	-0.127305
	O339	O	-0.044440	0.913560	0.830422
	H340	H	-0.044527	0.904227	0.847508
	H341	H	-0.056446	0.900050	0.825252
	O342	O	0.479929	0.698633	0.296042
	H343	H	0.484571	0.703119	0.285608
	H344	H	0.491069	0.710251	0.327548
	O345	O	0.099908	0.035552	0.996169
	H346	H	0.102846	0.038976	0.993305
	H347	H	0.097833	0.030596	0.998342
	O348	O	0.700447	0.537424	0.301766
	H349	H	0.687753	0.542139	0.283354
	H350	H	0.688801	0.548731	0.302557
	O351	O	0.316757	0.675267	0.310141
	H352	H	0.337844	0.686199	0.325173
	H353	H	0.334469	0.684734	0.338861
	O354	O	0.866365	0.987218	1.128788
	H355	H	0.865213	0.986357	1.119679
	H356	H	0.865227	0.983876	1.136837
	O357	O	-0.127447	0.117861	-0.129998
	H358	H	-0.114633	0.119474	-0.119955
	H359	H	-0.130944	0.121821	-0.138067
	O360	O	0.487938	0.501692	0.472911
	H361	H	0.504703	0.493092	0.482089
	H362	H	0.469288	0.488645	0.460356
	O363	O	0.985234	0.042358	0.144391
	H364	H	0.983820	0.040576	0.135112
	H365	H	0.976102	0.029436	0.144789
	O366	O	0.013897	-0.123889	0.957985
	H367	H	0.032136	-0.133611	0.958947
	H368	H	0.020623	-0.125140	0.961996
	O369	O	1.308172	0.303419	0.689823
	H370	H	1.341316	0.309795	0.687654
	H371	H	1.295954	0.283584	0.648673
	O372	O	0.727689	0.524624	0.404571
	H373	H	0.730140	0.549804	0.386203
	H374	H	0.728261	0.537494	0.395132
	O375	O	0.177534	0.037747	0.938159
	H376	H	0.179183	0.046710	0.922884
	H377	H	0.169187	0.031292	0.939926
	O378	O	0.290594	0.560225	0.566907
	H379	H	0.300458	0.533524	0.553587
	H380	H	0.278198	0.534512	0.595659
	O381	O	-0.098440	1.101752	0.080619
	H382	H	-0.098460	1.090711	0.081724
	H383	H	-0.099267	1.111066	0.066950
	O384	O	0.582834	0.443245	0.695236
	H385	H	0.559468	0.408933	0.695869
	H386	H	0.553937	0.460017	0.685484
	O387	O	0.453848	0.543910	0.703078
	H388	H	0.426210	0.536596	0.701292
	H389	H	0.458981	0.581460	0.698750
	O390	O	0.969124	0.839634	0.173460
	H391	H	0.950113	0.843286	0.175099
	H392	H	0.966886	0.822633	0.178346
	O393	O	1.168438	-0.187078	0.943411
	H394	H	1.144598	-0.185136	0.948091
	H395	H	1.183801	-0.186246	0.947815
	O396	O	0.284329	0.513676	0.283924
	H397	H	0.294236	0.542240	0.289992
	H398	H	0.259941	0.535890	0.257819
	O399	O	0.714197	0.277039	0.476167
	H400	H	0.728402	0.253600	0.484799
	H401	H	0.731780	0.292465	0.494390
	O402	O	1.071857	0.878676	0.113371
	H403	H	1.065394	0.870779	0.121272
	H404	H	1.082137	0.877945	0.124363
	O405	O	0.298175	0.417606	0.425716
	H406	H	0.293416	0.392706	0.419279
	H407	H	0.303178	0.420434	0.403307
	O408	O	0.416267	0.286713	0.411324
	H409	H	0.437569	0.287372	0.403326
	H410	H	0.433352	0.291802	0.406456
	O411	O	1.113349	0.823930	0.895772
	H412	H	1.115475	0.810677	0.903083
	H413	H	1.101005	0.836336	0.899108
	O414	O	0.716570	0.516572	0.712370
	H415	H	0.747207	0.517842	0.755857
	H416	H	0.675907	0.490957	0.715528
	O417	O	0.064028	0.996550	0.840672
	H418	H	0.047602	0.989569	0.838867
	H419	H	0.067325	0.987899	0.849889
	O420	O	-0.161263	0.811147	1.197077
	H421	H	-0.160775	0.822105	1.196983
	H422	H	-0.173520	0.805024	1.209196
	O423	O	0.018502	0.916618	-0.005546
	H424	H	0.020390	0.929160	0.006834
	H425	H	0.015401	0.904335	0.007454
	O426	O	0.492754	0.444364	0.457481
	H427	H	0.466922	0.447371	0.461168
	H428	H	0.509979	0.434462	0.465880
	O429	O	0.692583	0.696841	0.506656
	H430	H	0.699982	0.709545	0.523238
	H431	H	0.697546	0.688084	0.530150
	O432	O	0.532448	0.708388	0.710719
	H433	H	0.525400	0.740437	0.730227
	H434	H	0.524435	0.708424	0.695976
	O435	O	-0.038641	0.026498	-0.100040
	H436	H	-0.040123	0.016213	-0.090427
	H437	H	-0.022071	0.032465	-0.094961
	O438	O	-0.324189	1.316277	1.316385
	H439	H	-0.310293	1.303653	1.369935
	H440	H	-0.310360	1.369170	1.308698
	O441	O	0.726016	0.446665	0.536566
	H442	H	0.731536	0.465349	0.510110
	H443	H	0.731466	0.460567	0.574127
