data_Molecule from HDF5

_cell_length_a		16.323446
_cell_length_b		16.380429
_cell_length_c		16.595943
_cell_angle_alpha	90.012732
_cell_angle_beta	89.876482
_cell_angle_gamma	90.004273
_symmetry_space_group_name_H-M	'P 1'
_symmetry_Int_Tables_number		1

loop_
	_symmetry_equiv_pos_as_xyz
	x,y,z

loop_
	_atom_site_label
	_atom_site_type_symbol
	_atom_site_fract_x
	_atom_site_fract_y
	_atom_site_fract_z
	H0	H	0.384862	0.843018	0.715342
	H1	H	0.606645	0.156338	0.719198
	H2	H	0.601713	0.842725	0.267516
	H3	H	0.382568	0.154683	0.264507
	H4	H	0.723359	0.388052	0.837201
	H5	H	0.718785	0.606567	0.147228
	H6	H	0.271041	0.606786	0.837000
	H7	H	0.270356	0.391866	0.147243
	H8	H	0.836852	0.722326	0.386331
	H9	H	0.152241	0.721031	0.596809
	H10	H	0.834919	0.278667	0.596323
	H11	H	0.154056	0.278974	0.386407
	H12	H	0.837372	0.389449	0.716152
	H13	H	0.151129	0.607017	0.714282
	H14	H	0.839004	0.610976	0.266298
	H15	H	0.152359	0.392858	0.268056
	H16	H	0.389390	0.721311	0.835365
	H17	H	0.602166	0.723148	0.146092
	H18	H	0.605018	0.273765	0.835796
	H19	H	0.385390	0.273948	0.145521
	H20	H	0.716673	0.842793	0.386069
	H21	H	0.716421	0.159335	0.597733
	H22	H	0.271710	0.842008	0.597483
	H23	H	0.276344	0.159399	0.389172
	H24	H	0.884125	0.343632	0.218621
	H25	H	0.104273	0.657709	0.216503
	H26	H	0.106120	0.343224	0.766329
	H27	H	0.885400	0.657001	0.768195
	H28	H	0.215056	0.895723	0.332893
	H29	H	0.214623	0.103379	0.649364
	H30	H	0.771789	0.105788	0.334314
	H31	H	0.769519	0.894473	0.648451
	H32	H	0.335211	0.220344	0.887919
	H33	H	0.653357	0.221122	0.097508
	H34	H	0.335204	0.777854	0.094551
	H35	H	0.654926	0.779786	0.887212
	H36	H	0.334574	0.891123	0.211570
	H37	H	0.650502	0.109225	0.216859
	H38	H	0.334379	0.106152	0.771578
	H39	H	0.651753	0.891463	0.767006
	H40	H	0.888789	0.221723	0.334119
	H41	H	0.100787	0.222898	0.648162
	H42	H	0.099754	0.777134	0.333883
	H43	H	0.886638	0.777080	0.648820
	H44	H	0.215893	0.340519	0.888276
	H45	H	0.217425	0.658687	0.098235
	H46	H	0.773384	0.341100	0.098216
	H47	H	0.773762	0.658148	0.887767
	H48	H	0.407601	0.112291	0.579591
	H49	H	0.578284	0.886254	0.588162
	H50	H	0.578509	0.112361	0.403618
	H51	H	0.401728	0.882062	0.393964
	H52	H	0.577495	0.408596	0.101338
	H53	H	0.587391	0.583198	0.879427
	H54	H	0.408487	0.588959	0.104222
	H55	H	0.410096	0.413618	0.881008
	H56	H	0.108198	0.588182	0.402945
	H57	H	0.879778	0.585981	0.582162
	H58	H	0.107646	0.411895	0.576986
	H59	H	0.881744	0.417381	0.400782
	H60	H	0.106364	0.415340	0.580080
	H61	H	0.879115	0.588596	0.582436
	H62	H	0.106799	0.585709	0.406527
	H63	H	0.879062	0.409198	0.400746
	H64	H	0.405897	0.589108	0.104644
	H65	H	0.580179	0.587891	0.881268
	H66	H	0.586880	0.406427	0.105000
	H67	H	0.407833	0.408355	0.879418
	H68	H	0.577524	0.112139	0.403282
	H69	H	0.574348	0.892154	0.575377
	H70	H	0.403112	0.115021	0.580695
	H71	H	0.412387	0.887167	0.399944
	H72	H	0.908793	0.612252	0.082845
	H73	H	0.080037	0.386857	0.084860
	H74	H	0.085050	0.611697	0.909950
	H75	H	0.916240	0.389616	0.904903
	H76	H	0.081357	0.912373	0.601768
	H77	H	0.086404	0.084281	0.380525
	H78	H	0.908100	0.092407	0.603571
	H79	H	0.900826	0.914506	0.379780
	H80	H	0.605516	0.084899	0.910308
	H81	H	0.384612	0.079926	0.076388
	H82	H	0.607089	0.909382	0.076504
	H83	H	0.380997	0.904898	0.909934
	H84	H	0.605903	0.916659	0.080325
	H85	H	0.378847	0.086048	0.084276
	H86	H	0.606499	0.079623	0.899416
	H87	H	0.383972	0.920475	0.903351
	H88	H	0.901823	0.090763	0.604332
	H89	H	0.078444	0.091042	0.380833
	H90	H	0.082253	0.909427	0.602513
	H91	H	0.911003	0.915235	0.383318
	H92	H	0.086472	0.617033	0.895933
	H93	H	0.076440	0.390582	0.077559
	H94	H	0.909908	0.611676	0.079713
	H95	H	0.906101	0.387160	0.908314
	H96	H	0.407292	0.114418	0.584529
	H97	H	0.587950	0.886788	0.576796
	H98	H	0.577931	0.111533	0.404170
	H99	H	0.400755	0.885755	0.406641
	H100	H	0.584840	0.415951	0.101970
	H101	H	0.586224	0.591445	0.876848
	H102	H	0.406784	0.587006	0.103632
	H103	H	0.403966	0.413174	0.879230
	H104	H	0.107775	0.583358	0.402855
	H105	H	0.880414	0.587631	0.580015
	H106	H	0.108720	0.411440	0.581285
	H107	H	0.882466	0.412302	0.408323
	H108	H	0.907261	0.613327	0.080078
	H109	H	0.084843	0.387408	0.077620
	H110	H	0.073611	0.609918	0.900191
	H111	H	0.908682	0.385636	0.897719
	H112	H	0.084189	0.912011	0.602971
	H113	H	0.088103	0.094131	0.376634
	H114	H	0.905967	0.086129	0.601956
	H115	H	0.907069	0.906558	0.379329
	H116	H	0.610011	0.091397	0.900747
	H117	H	0.381510	0.090166	0.074022
	H118	H	0.610904	0.910201	0.084288
	H119	H	0.376656	0.907539	0.893916
	C120	C	0.372935	0.009062	0.613294
	C121	C	0.614833	0.992460	0.613423
	C122	C	0.613032	0.008121	0.370602
	C123	C	0.372083	0.989939	0.368680
	C124	C	0.617661	0.376549	0.000055
	C125	C	0.617409	0.620730	0.982485
	C126	C	0.373531	0.621258	0.000796
	C127	C	0.373254	0.378163	0.982747
	C128	C	0.003770	0.620477	0.370921
	C129	C	0.984765	0.620547	0.613339
	C130	C	0.002902	0.378983	0.612552
	C131	C	0.985956	0.379224	0.370266
	C132	C	0.873994	0.508649	0.114423
	C133	C	0.115183	0.492391	0.113261
	C134	C	0.116043	0.508161	0.869784
	C135	C	0.875151	0.491343	0.870975
	C136	C	0.115740	0.878200	0.499120
	C137	C	0.116268	0.122084	0.483295
	C138	C	0.872345	0.122419	0.499568
	C139	C	0.872046	0.878370	0.483821
	C140	C	0.502539	0.119964	0.870543
	C141	C	0.485643	0.119888	0.112078
	C142	C	0.502927	0.878413	0.112141
	C143	C	0.485804	0.878539	0.870168
	C144	C	0.368578	0.890240	0.674332
	C145	C	0.621938	0.109833	0.677178
	C146	C	0.618708	0.889788	0.308879
	C147	C	0.367157	0.108319	0.306872
	C148	C	0.681966	0.371160	0.883800
	C149	C	0.678297	0.624223	0.100198
	C150	C	0.312081	0.624289	0.883380
	C151	C	0.310986	0.374123	0.099927
	C152	C	0.884606	0.682515	0.367651
	C153	C	0.104360	0.681162	0.615526
	C154	C	0.883218	0.318297	0.615001
	C155	C	0.105882	0.318585	0.367716
	C156	C	0.884423	0.373519	0.674745
	C157	C	0.104147	0.624420	0.673755
	C158	C	0.885420	0.626907	0.308308
	C159	C	0.105166	0.375207	0.308971
	C160	C	0.371032	0.681189	0.882624
	C161	C	0.620429	0.682579	0.099628
	C162	C	0.622719	0.314303	0.882994
	C163	C	0.368238	0.315279	0.099302
	C164	C	0.675559	0.889754	0.367844
	C165	C	0.676768	0.111322	0.616556
	C166	C	0.312232	0.889666	0.615358
	C167	C	0.313940	0.110609	0.368693
	C168	C	0.868121	0.390618	0.177068
	C169	C	0.121102	0.610343	0.175687
	C170	C	0.121908	0.390041	0.808038
	C171	C	0.869367	0.609828	0.809315
	C172	C	0.175292	0.876838	0.380323
	C173	C	0.175592	0.122949	0.601729
	C174	C	0.811967	0.124325	0.381473
	C175	C	0.810222	0.875670	0.601481
	C176	C	0.383114	0.180585	0.868954
	C177	C	0.605212	0.181299	0.115423
	C178	C	0.382964	0.817800	0.113332
	C179	C	0.606381	0.818677	0.868055
	C180	C	0.382723	0.874318	0.171668
	C181	C	0.603722	0.125526	0.174930
	C182	C	0.382705	0.123844	0.810808
	C183	C	0.604942	0.874409	0.808468
	C184	C	0.870594	0.181890	0.381283
	C185	C	0.118632	0.182402	0.601137
	C186	C	0.118184	0.817628	0.380983
	C187	C	0.868863	0.817564	0.601809
	C188	C	0.176619	0.388642	0.868753
	C189	C	0.177356	0.611008	0.116468
	C190	C	0.812919	0.389206	0.116968
	C191	C	0.813721	0.610537	0.868974
	C192	C	0.398760	0.092112	0.588543
	C193	C	0.587905	0.909997	0.587567
	C194	C	0.585680	0.090436	0.396416
	C195	C	0.397503	0.906684	0.393368
	C196	C	0.590839	0.402805	0.081375
	C197	C	0.592023	0.594867	0.900474
	C198	C	0.399373	0.595674	0.082919
	C199	C	0.399655	0.404293	0.901075
	C200	C	0.086154	0.593543	0.396937
	C201	C	0.901523	0.594671	0.588674
	C202	C	0.085953	0.405324	0.586719
	C203	C	0.902837	0.405399	0.395986
	C204	C	0.900788	0.591019	0.088396
	C205	C	0.088106	0.409824	0.087279
	C206	C	0.089457	0.591217	0.894867
	C207	C	0.902341	0.409073	0.896411
	C208	C	0.090080	0.903907	0.581088
	C209	C	0.091415	0.097015	0.400878
	C210	C	0.897744	0.096953	0.581747
	C211	C	0.898458	0.904578	0.402258
	C212	C	0.585734	0.093021	0.895886
	C213	C	0.403102	0.093165	0.085653
	C214	C	0.586188	0.904706	0.087641
	C215	C	0.402365	0.903683	0.895221
	Zn216	Zn	0.494013	0.000243	0.742047
	Zn217	Zn	0.493223	-0.001098	0.240663
	Zn218	Zn	0.746492	0.499062	-0.007845
	Zn219	Zn	0.243864	0.500054	-0.007936
	Zn220	Zn	-0.006154	0.748452	0.491645
	Zn221	Zn	-0.005757	0.251226	0.491428
	Zn222	Zn	-0.005379	0.499068	0.741332
	Zn223	Zn	-0.004818	0.500558	0.242349
	Zn224	Zn	0.495251	0.749983	-0.008646
	Zn225	Zn	0.494801	0.248564	-0.008872
	Zn226	Zn	0.742718	0.000687	0.491108
	Zn227	Zn	0.245121	-0.000148	0.491068
	N228	N	0.405784	0.965564	0.673344
	N229	N	0.583952	0.034848	0.675158
	N230	N	0.580529	0.964423	0.310583
	N231	N	0.402336	0.032046	0.306611
	N232	N	0.679405	0.408933	0.957695
	N233	N	0.676546	0.586583	0.026180
	N234	N	0.313652	0.587803	0.957894
	N235	N	0.313947	0.412506	0.026447
	N236	N	0.958991	0.678526	0.405769
	N237	N	0.029166	0.678813	0.578628
	N238	N	0.957791	0.321899	0.576700
	N239	N	0.030687	0.320966	0.404975
	N240	N	0.960025	0.410362	0.673477
	N241	N	0.028762	0.587470	0.672539
	N242	N	0.960459	0.588965	0.310273
	N243	N	0.029566	0.412106	0.310507
	N244	N	0.408503	0.679368	0.956672
	N245	N	0.583406	0.680376	0.025478
	N246	N	0.583676	0.317308	0.956316
	N247	N	0.406527	0.317919	0.025560
	N248	N	0.672146	0.964343	0.405539
	N249	N	0.672491	0.037476	0.577653
	N250	N	0.314982	0.964400	0.577956
	N251	N	0.316871	0.036046	0.406443
	N252	N	0.905266	0.465903	0.175724
	N253	N	0.083232	0.535385	0.173610
	N254	N	0.085200	0.465454	0.808496
	N255	N	0.906714	0.534602	0.810289
	N256	N	0.174237	0.913406	0.454884
	N257	N	0.174176	0.086209	0.527311
	N258	N	0.812736	0.088377	0.456311
	N259	N	0.812028	0.912516	0.527183
	N260	N	0.458815	0.178297	0.905080
	N261	N	0.530750	0.177834	0.076977
	N262	N	0.458627	0.820045	0.077178
	N263	N	0.531044	0.820866	0.905481
	N264	N	0.458357	0.911406	0.171010
	N265	N	0.528425	0.088064	0.172999
	N266	N	0.458465	0.086946	0.811662
	N267	N	0.529133	0.910640	0.809389
	N268	N	0.907087	0.181108	0.455803
	N269	N	0.082707	0.182035	0.526325
	N270	N	0.082165	0.818181	0.455975
	N271	N	0.906476	0.818968	0.527559
	N272	N	0.173162	0.463387	0.906490
	N273	N	0.173708	0.536649	0.078283
	N274	N	0.816379	0.463539	0.078760
	N275	N	0.817153	0.535884	0.906620
	O276	O	0.593173	0.574889	0.504888
	H277	H	0.592793	0.580780	0.521960
	H278	H	0.599812	0.580688	0.507937
	O279	O	0.882766	-0.011663	0.991832
	H280	H	0.887864	0.002468	0.992013
	H281	H	0.886201	-0.023368	1.003559
	O282	O	0.623456	0.312326	0.300865
	H283	H	0.642033	0.297712	0.335054
	H284	H	0.631361	0.344955	0.301741
	O285	O	0.512705	0.608339	0.287708
	H286	H	0.524698	0.582007	0.292301
	H287	H	0.518249	0.601044	0.301711
	O288	O	0.660013	0.677095	0.258083
	H289	H	0.668871	0.686221	0.236301
	H290	H	0.671528	0.681488	0.261954
	O291	O	0.706910	0.510675	0.699906
	H292	H	0.726938	0.515030	0.708570
	H293	H	0.696129	0.531022	0.701544
	O294	O	0.191511	-0.197448	0.793769
	H295	H	0.166960	-0.194516	0.806017
	H296	H	0.205636	-0.201526	0.782028
	O297	O	0.273339	0.719221	0.465532
	H298	H	0.283111	0.709613	0.416973
	H299	H	0.237720	0.752300	0.455299
	O300	O	0.520669	0.721884	0.473299
	H301	H	0.512068	0.721472	0.472105
	H302	H	0.517279	0.718393	0.448884
	O303	O	0.360310	0.356532	0.295359
	H304	H	0.384794	0.357832	0.298000
	H305	H	0.386778	0.368621	0.305310
	O306	O	0.645330	0.459902	0.424415
	H307	H	0.640975	0.457231	0.444985
	H308	H	0.646349	0.452647	0.432862
	O309	O	0.341509	0.568957	0.450602
	H310	H	0.351105	0.575835	0.448521
	H311	H	0.337243	0.578285	0.430864
	O312	O	0.023050	0.790053	0.781153
	H313	H	0.025811	0.773092	0.775261
	H314	H	0.022219	0.791172	0.775708
	O315	O	0.506824	0.520901	0.464461
	H316	H	0.506673	0.523830	0.475203
	H317	H	0.504392	0.545838	0.464533
	O318	O	1.018644	-0.108348	-0.059028
	H319	H	1.026991	-0.100983	-0.053890
	H320	H	1.020323	-0.113663	-0.050878
	O321	O	0.107896	0.005007	0.170836
	H322	H	0.115579	0.010397	0.166244
	H323	H	0.102169	-0.000403	0.160484
	O324	O	0.693952	0.699729	0.415098
	H325	H	0.697297	0.721229	0.394910
	H326	H	0.693410	0.714639	0.415823
	O327	O	0.485212	0.303533	0.503271
	H328	H	0.483809	0.307943	0.496331
	H329	H	0.460996	0.306667	0.500067
	O330	O	-0.199267	0.809781	0.107510
	H331	H	-0.175789	0.805922	0.102643
	H332	H	-0.206992	0.804193	0.086022
	O333	O	0.705604	0.481707	0.273671
	H334	H	0.735286	0.478399	0.254565
	H335	H	0.710424	0.498134	0.301141
	O336	O	0.116796	-0.010121	0.199970
	H337	H	0.100762	-0.011439	0.208168
	H338	H	0.130202	-0.006317	0.201040
	O339	O	-0.128686	1.018503	1.003740
	H340	H	-0.128083	1.020783	0.999874
	H341	H	-0.129000	1.036867	0.977943
	O342	O	0.018729	1.213884	1.204104
	H343	H	0.044553	1.225585	1.220304
	H344	H	0.048922	1.223276	1.214957
	O345	O	1.183356	1.193809	0.180382
	H346	H	1.194953	1.176947	0.160700
	H347	H	1.206197	1.185569	0.193181
	O348	O	0.314676	0.680612	0.313350
	H349	H	0.339155	0.667096	0.298837
	H350	H	0.331792	0.650533	0.303564
	O351	O	0.170693	1.009287	0.810873
	H352	H	0.170688	1.010661	0.805650
	H353	H	0.170990	0.990757	0.810370
	O354	O	0.182702	0.788705	-0.023198
	H355	H	0.186475	0.779790	-0.018857
	H356	H	0.194172	0.785623	-0.028880
	O357	O	0.096017	0.010865	0.927478
	H358	H	0.111794	0.013988	0.915115
	H359	H	0.091158	0.010068	0.919764
	O360	O	0.544784	0.449415	0.702997
	H361	H	0.534950	0.463712	0.689487
	H362	H	0.556090	0.470348	0.705720
	O363	O	-0.016256	0.205471	0.783716
	H364	H	-0.038711	0.225512	0.764754
	H365	H	-0.046628	0.194179	0.782578
	O366	O	0.330311	0.500340	0.273329
	H367	H	0.344656	0.483982	0.259769
	H368	H	0.334429	0.485376	0.256894
	O369	O	0.384852	0.596165	0.581576
	H370	H	0.362881	0.603889	0.583473
	H371	H	0.382127	0.613160	0.594091
	O372	O	0.916306	-0.089649	1.130483
	H373	H	0.905100	-0.081668	1.133677
	H374	H	0.913532	-0.066821	1.142333
	O375	O	0.525815	0.530789	0.393421
	H376	H	0.543152	0.529585	0.419198
	H377	H	0.535037	0.537158	0.390734
	O378	O	1.067734	1.199626	0.926173
	H379	H	1.056289	1.203232	0.899949
	H380	H	1.067386	1.190712	0.933013
	O381	O	0.473781	0.602304	0.680248
	H382	H	0.473284	0.617644	0.682644
	H383	H	0.446235	0.604875	0.664947
	O384	O	0.707667	0.284847	0.463448
	H385	H	0.720843	0.263044	0.475194
	H386	H	0.698034	0.276179	0.487142
	O387	O	0.064421	-0.166624	1.104590
	H388	H	0.062895	-0.160052	1.089306
	H389	H	0.065247	-0.168944	1.120203
	O390	O	0.125174	0.072284	-0.086231
	H391	H	0.110851	0.078492	-0.095949
	H392	H	0.139228	0.074609	-0.090511
	O393	O	1.167838	1.103904	1.056907
	H394	H	1.170982	1.111878	1.057088
	H395	H	1.158053	1.099454	1.054711
	O396	O	0.789330	0.207367	-0.027595
	H397	H	0.787077	0.230988	-0.024219
	H398	H	0.806202	0.225505	-0.013739
	O399	O	0.791678	-0.016258	1.183767
	H400	H	0.798049	-0.006321	1.183721
	H401	H	0.776453	-0.009093	1.175670
	O402	O	0.944922	1.202266	1.045728
	H403	H	0.963507	1.204279	1.073002
	H404	H	0.972440	1.202841	1.037837
	O405	O	1.001849	0.923620	0.161928
	H406	H	1.005683	0.935275	0.161803
	H407	H	1.000046	0.928967	0.171152
	O408	O	1.071045	-0.035567	-0.150629
	H409	H	1.085564	-0.028089	-0.146492
	H410	H	1.063194	-0.022882	-0.149405
	O411	O	1.337520	1.491092	0.644197
	H412	H	1.333183	1.457459	0.644700
	H413	H	1.326698	1.485953	0.658884
	O414	O	0.300591	0.656501	0.652154
	H415	H	0.302942	0.647918	0.642344
	H416	H	0.304795	0.648584	0.651151
	O417	O	0.604552	0.337951	0.561060
	H418	H	0.599456	0.351941	0.567915
	H419	H	0.584699	0.322753	0.563863
	O420	O	0.574279	0.398212	0.589298
	H421	H	0.582853	0.375453	0.613939
	H422	H	0.581609	0.413269	0.593724
	O423	O	0.675952	0.674275	0.671331
	H424	H	0.645682	0.665674	0.681358
	H425	H	0.664924	0.686870	0.648590
	O426	O	0.487796	0.280888	0.318775
	H427	H	0.510030	0.281355	0.334450
	H428	H	0.502566	0.266409	0.307478
	O429	O	0.562727	0.353099	0.652479
	H430	H	0.567007	0.348014	0.669957
	H431	H	0.579659	0.369844	0.662208
	O432	O	0.287630	0.306059	0.505953
	H433	H	0.276290	0.324147	0.498646
	H434	H	0.259621	0.299417	0.506517
	O435	O	0.310859	0.327661	0.669788
	H436	H	0.354163	0.310046	0.675375
	H437	H	0.307102	0.319980	0.644836
	O438	O	-0.118141	-0.025894	-0.215816
	H439	H	-0.121722	-0.042052	-0.211849
	H440	H	-0.121099	-0.034276	-0.212615
	O441	O	0.788551	-0.010314	-0.148414
	H442	H	0.777662	-0.030148	-0.151831
	H443	H	0.798391	-0.016892	-0.130789
	O444	O	-0.135690	0.796225	0.979438
	H445	H	-0.144966	0.789978	0.966453
	H446	H	-0.100768	0.790623	0.976191
	O447	O	0.822415	0.177708	0.813071
	H448	H	0.813798	0.184126	0.858090
	H449	H	0.813370	0.127796	0.803636
	O450	O	0.438155	0.633447	0.708026
	H451	H	0.421427	0.640642	0.716387
	H452	H	0.427121	0.627153	0.708875
	O453	O	0.413322	0.636798	0.366845
	H454	H	0.426877	0.618727	0.361976
	H455	H	0.413626	0.649285	0.348867
