data_Molecule from HDF5

_cell_length_a		16.292972
_cell_length_b		16.295151
_cell_length_c		16.181563
_cell_angle_alpha	90.291348
_cell_angle_beta	90.038304
_cell_angle_gamma	90.384329
_symmetry_space_group_name_H-M	'P 1'
_symmetry_Int_Tables_number		1

loop_
	_symmetry_equiv_pos_as_xyz
	x,y,z

loop_
	_atom_site_label
	_atom_site_type_symbol
	_atom_site_fract_x
	_atom_site_fract_y
	_atom_site_fract_z
	H0	H	0.400598	0.840205	0.715246
	H1	H	0.606108	0.165321	0.722043
	H2	H	0.601075	0.841781	0.283957
	H3	H	0.403651	0.167774	0.286442
	H4	H	0.718071	0.404049	0.839501
	H5	H	0.720373	0.611236	0.166034
	H6	H	0.287098	0.602835	0.840289
	H7	H	0.286282	0.403118	0.167175
	H8	H	0.841464	0.720146	0.401067
	H9	H	0.165908	0.723529	0.605000
	H10	H	0.842973	0.282692	0.607458
	H11	H	0.165863	0.290051	0.400650
	H12	H	0.839926	0.404603	0.718915
	H13	H	0.165899	0.606811	0.720350
	H14	H	0.839891	0.604217	0.289261
	H15	H	0.164708	0.406121	0.286532
	H16	H	0.400741	0.717686	0.839091
	H17	H	0.602902	0.723318	0.166230
	H18	H	0.603377	0.286617	0.840605
	H19	H	0.398141	0.287511	0.165528
	H20	H	0.717951	0.841165	0.397410
	H21	H	0.723691	0.165080	0.606988
	H22	H	0.283892	0.842380	0.600626
	H23	H	0.286372	0.166580	0.398063
	H24	H	0.902518	0.341825	0.217820
	H25	H	0.102148	0.668641	0.220561
	H26	H	0.102316	0.342380	0.786456
	H27	H	0.903305	0.668290	0.788289
	H28	H	0.216416	0.904531	0.337164
	H29	H	0.222427	0.107619	0.663767
	H30	H	0.786870	0.104786	0.338692
	H31	H	0.785182	0.901936	0.664222
	H32	H	0.339585	0.220475	0.898488
	H33	H	0.661820	0.226950	0.106890
	H34	H	0.339864	0.787910	0.101137
	H35	H	0.663014	0.785794	0.897334
	H36	H	0.338500	0.906447	0.214523
	H37	H	0.664191	0.109353	0.220568
	H38	H	0.339762	0.102865	0.784530
	H39	H	0.663531	0.901610	0.784356
	H40	H	0.905770	0.218345	0.338555
	H41	H	0.108644	0.222530	0.664940
	H42	H	0.102318	0.787670	0.339156
	H43	H	0.901686	0.789439	0.665304
	H44	H	0.217185	0.341477	0.902749
	H45	H	0.221589	0.667147	0.107101
	H46	H	0.782731	0.343600	0.105629
	H47	H	0.786264	0.667326	0.901857
	H48	H	0.416117	0.117109	0.590917
	H49	H	0.603286	0.886691	0.588946
	H50	H	0.589703	0.119833	0.406999
	H51	H	0.412216	0.887756	0.403999
	H52	H	0.597060	0.422882	0.117696
	H53	H	0.594227	0.593991	0.887113
	H54	H	0.404743	0.597469	0.122423
	H55	H	0.412056	0.405761	0.885107
	H56	H	0.117247	0.596514	0.418114
	H57	H	0.891978	0.588342	0.588241
	H58	H	0.118217	0.419091	0.599758
	H59	H	0.888816	0.418475	0.413673
	H60	H	0.120606	0.409331	0.594943
	H61	H	0.884591	0.594140	0.607631
	H62	H	0.118948	0.594563	0.408191
	H63	H	0.884247	0.407516	0.407547
	H64	H	0.414981	0.592008	0.118167
	H65	H	0.593586	0.596858	0.885560
	H66	H	0.582289	0.417090	0.115059
	H67	H	0.402552	0.413963	0.885470
	H68	H	0.595253	0.116900	0.421094
	H69	H	0.589912	0.886451	0.600567
	H70	H	0.409418	0.120592	0.591988
	H71	H	0.410095	0.890005	0.412922
	H72	H	0.909227	0.622701	0.100229
	H73	H	0.083340	0.395925	0.084696
	H74	H	0.095168	0.616887	0.924759
	H75	H	0.903521	0.389347	0.915699
	H76	H	0.092791	0.918261	0.616815
	H77	H	0.095839	0.107028	0.380325
	H78	H	0.915663	0.090072	0.616201
	H79	H	0.909863	0.903061	0.381277
	H80	H	0.618522	0.103379	0.915526
	H81	H	0.382444	0.103774	0.094652
	H82	H	0.617928	0.912453	0.091557
	H83	H	0.386842	0.914733	0.911917
	H84	H	0.617792	0.916303	0.092697
	H85	H	0.389552	0.092903	0.086696
	H86	H	0.613210	0.090815	0.920084
	H87	H	0.383789	0.910135	0.903413
	H88	H	0.917442	0.096347	0.618191
	H89	H	0.104059	0.090632	0.383818
	H90	H	0.092933	0.911599	0.618641
	H91	H	0.904265	0.917507	0.383756
	H92	H	0.106070	0.624468	0.911080
	H93	H	0.110478	0.386178	0.090951
	H94	H	0.915527	0.619877	0.097043
	H95	H	0.911515	0.388319	0.905756
	H96	H	0.415424	0.120116	0.596959
	H97	H	0.588359	0.893497	0.584612
	H98	H	0.603902	0.122419	0.409630
	H99	H	0.403123	0.886002	0.406753
	H100	H	0.593782	0.408591	0.122503
	H101	H	0.596557	0.596121	0.885718
	H102	H	0.415848	0.604199	0.121412
	H103	H	0.413693	0.417858	0.889000
	H104	H	0.121551	0.603095	0.411834
	H105	H	0.884826	0.608988	0.591188
	H106	H	0.115764	0.417257	0.588695
	H107	H	0.888091	0.406258	0.420259
	H108	H	0.909020	0.620754	0.092121
	H109	H	0.089770	0.385536	0.112470
	H110	H	0.087909	0.620568	0.906939
	H111	H	0.916522	0.392566	0.917219
	H112	H	0.098623	0.915943	0.619594
	H113	H	0.085821	0.093382	0.388806
	H114	H	0.911742	0.094343	0.618612
	H115	H	0.918145	0.912989	0.388743
	H116	H	0.617598	0.092170	0.906831
	H117	H	0.385692	0.090770	0.100782
	H118	H	0.619960	0.913783	0.094854
	H119	H	0.385230	0.904148	0.912096
	C120	C	0.381708	0.012274	0.622704
	C121	C	0.625383	0.995187	0.623902
	C122	C	0.624854	0.012504	0.380606
	C123	C	0.380463	0.995858	0.379263
	C124	C	0.621895	0.385066	0.011127
	C125	C	0.624535	0.627158	0.994299
	C126	C	0.381853	0.625651	0.012077
	C127	C	0.379632	0.382617	0.994449
	C128	C	0.011569	0.626263	0.382792
	C129	C	0.994613	0.627844	0.625875
	C130	C	0.011390	0.383438	0.624795
	C131	C	0.994226	0.382673	0.382541
	C132	C	0.880402	0.513953	0.125986
	C133	C	0.124700	0.496639	0.126699
	C134	C	0.124738	0.513021	0.883356
	C135	C	0.881320	0.497255	0.882733
	C136	C	0.123775	0.884501	0.510366
	C137	C	0.126488	0.127307	0.492421
	C138	C	0.884115	0.124009	0.510170
	C139	C	0.881082	0.882002	0.492657
	C140	C	0.509527	0.124629	0.882531
	C141	C	0.492819	0.127355	0.124784
	C142	C	0.510828	0.884142	0.122035
	C143	C	0.492739	0.880713	0.879301
	C144	C	0.381548	0.889453	0.677638
	C145	C	0.625517	0.116810	0.682687
	C146	C	0.622043	0.890678	0.322055
	C147	C	0.383364	0.118820	0.324042
	C148	C	0.680031	0.384123	0.888794
	C149	C	0.681465	0.629057	0.117199
	C150	C	0.325096	0.623252	0.889003
	C151	C	0.323842	0.383700	0.118018
	C152	C	0.889816	0.682409	0.382247
	C153	C	0.116961	0.685022	0.624821
	C154	C	0.890646	0.323336	0.625999
	C155	C	0.116778	0.327537	0.381461
	C156	C	0.889075	0.383724	0.681588
	C157	C	0.117106	0.626944	0.682318
	C158	C	0.888999	0.624065	0.326920
	C159	C	0.116193	0.385080	0.324629
	C160	C	0.382188	0.680043	0.888386
	C161	C	0.623170	0.685339	0.117148
	C162	C	0.622679	0.326150	0.888965
	C163	C	0.379356	0.325673	0.116867
	C164	C	0.679940	0.890096	0.379041
	C165	C	0.684372	0.116587	0.625501
	C166	C	0.323270	0.890513	0.620823
	C167	C	0.324745	0.118113	0.379709
	C168	C	0.881637	0.390975	0.181173
	C169	C	0.122732	0.619441	0.182942
	C170	C	0.122563	0.391082	0.825050
	C171	C	0.883199	0.619410	0.826302
	C172	C	0.178707	0.885048	0.386528
	C173	C	0.183439	0.126529	0.615238
	C174	C	0.826231	0.123948	0.387660
	C175	C	0.824196	0.883007	0.615655
	C176	C	0.387931	0.181447	0.880593
	C177	C	0.613974	0.187147	0.125619
	C178	C	0.388080	0.827348	0.120386
	C179	C	0.614484	0.823810	0.878348
	C180	C	0.387525	0.886197	0.176994
	C181	C	0.615330	0.128455	0.181952
	C182	C	0.388139	0.123093	0.823598
	C183	C	0.614835	0.881717	0.822177
	C184	C	0.885118	0.180565	0.387495
	C185	C	0.126873	0.183982	0.615797
	C186	C	0.121874	0.827082	0.387405
	C187	C	0.882072	0.827033	0.616217
	C188	C	0.179525	0.390330	0.883192
	C189	C	0.182331	0.618782	0.126614
	C190	C	0.822276	0.391676	0.125245
	C191	C	0.824762	0.619003	0.882703
	C192	C	0.406325	0.097221	0.599974
	C193	C	0.600859	0.910600	0.598722
	C194	C	0.602850	0.097744	0.405411
	C195	C	0.402081	0.910158	0.401328
	C196	C	0.598090	0.409256	0.096276
	C197	C	0.601468	0.602770	0.908528
	C198	C	0.405020	0.604072	0.098292
	C199	C	0.402806	0.405572	0.908926
	C200	C	0.097059	0.604375	0.405886
	C201	C	0.909195	0.604223	0.602465
	C202	C	0.096156	0.407985	0.601288
	C203	C	0.909282	0.404498	0.406829
	C204	C	0.904157	0.598977	0.103161
	C205	C	0.101358	0.411240	0.102969
	C206	C	0.102829	0.598567	0.907288
	C207	C	0.903869	0.412183	0.906276
	C208	C	0.101337	0.908353	0.596070
	C209	C	0.102334	0.103814	0.406546
	C210	C	0.907887	0.100417	0.595584
	C211	C	0.904197	0.904549	0.407025
	C212	C	0.594356	0.102089	0.907036
	C213	C	0.408030	0.102863	0.100948
	C214	C	0.596311	0.907245	0.099570
	C215	C	0.407529	0.903052	0.902419
	Zn216	Zn	0.502103	0.002937	0.752648
	Zn217	Zn	0.502509	0.004866	0.252229
	Zn218	Zn	0.752293	0.505783	0.003617
	Zn219	Zn	0.253807	0.504299	0.004281
	Zn220	Zn	0.002904	0.755448	0.502581
	Zn221	Zn	0.004447	0.254230	0.502865
	Zn222	Zn	0.002966	0.505731	0.754209
	Zn223	Zn	0.001761	0.504888	0.255097
	Zn224	Zn	0.502432	0.754099	0.001258
	Zn225	Zn	0.500513	0.255674	0.002624
	Zn226	Zn	0.754120	0.002719	0.501191
	Zn227	Zn	0.253143	0.005103	0.500659
	N228	N	0.417268	0.966146	0.678851
	N229	N	0.589571	0.040226	0.681904
	N230	N	0.588253	0.967873	0.323074
	N231	N	0.417555	0.041898	0.323708
	N232	N	0.679564	0.420074	0.965799
	N233	N	0.682537	0.593818	0.039835
	N234	N	0.324599	0.590082	0.967088
	N235	N	0.323597	0.418116	0.040737
	N236	N	0.967048	0.683952	0.416504
	N237	N	0.039590	0.685895	0.590644
	N238	N	0.967865	0.322808	0.591760
	N239	N	0.039946	0.325780	0.416845
	N240	N	0.965338	0.420407	0.680975
	N241	N	0.039927	0.592352	0.683203
	N242	N	0.965876	0.589943	0.326826
	N243	N	0.039088	0.418657	0.325111
	N244	N	0.416609	0.681932	0.965917
	N245	N	0.588540	0.684318	0.039528
	N246	N	0.587312	0.326285	0.966140
	N247	N	0.413523	0.325035	0.039165
	N248	N	0.681965	0.966975	0.414574
	N249	N	0.684283	0.039945	0.589574
	N250	N	0.323133	0.967923	0.587301
	N251	N	0.322824	0.040681	0.413254
	N252	N	0.916937	0.467851	0.181773
	N253	N	0.087687	0.542509	0.182917
	N254	N	0.089306	0.468463	0.824949
	N255	N	0.917881	0.542647	0.826228
	N256	N	0.179971	0.920227	0.463936
	N257	N	0.183422	0.092137	0.537407
	N258	N	0.825374	0.089495	0.465189
	N259	N	0.823391	0.916291	0.537812
	N260	N	0.464531	0.182730	0.916417
	N261	N	0.536896	0.186535	0.090824
	N262	N	0.465663	0.826138	0.086921
	N263	N	0.537570	0.822997	0.913038
	N264	N	0.464871	0.920732	0.178351
	N265	N	0.538984	0.092193	0.181790
	N266	N	0.464746	0.088339	0.824777
	N267	N	0.538039	0.916235	0.822435
	N268	N	0.920247	0.180644	0.464763
	N269	N	0.092348	0.184759	0.538284
	N270	N	0.088633	0.826572	0.465433
	N271	N	0.916808	0.826346	0.538880
	N272	N	0.181046	0.467233	0.918651
	N273	N	0.183921	0.541222	0.092601
	N274	N	0.821072	0.469166	0.091908
	N275	N	0.823669	0.542113	0.917133
	O276	O	0.151741	0.018416	-0.089300
	H277	H	0.154532	0.018923	-0.089046
	H278	H	0.161392	0.029476	-0.068469
	O279	O	0.606480	0.686702	0.530272
	H280	H	0.602179	0.682949	0.531600
	H281	H	0.620138	0.699081	0.533809
	O282	O	0.469600	-0.322518	-0.562646
	H283	H	0.461916	-0.318449	-0.557408
	H284	H	0.488094	-0.318722	-0.561210
	O285	O	0.152735	1.034379	0.055160
	H286	H	0.157857	1.055577	0.049999
	H287	H	0.147326	1.035765	0.049772
	O288	O	0.444741	0.388616	0.447651
	H289	H	0.422864	0.384857	0.452239
	H290	H	0.448158	0.397307	0.462011
	O291	O	0.744966	0.343042	0.731204
	H292	H	0.747592	0.350495	0.726600
	H293	H	0.738019	0.333312	0.738282
	O294	O	0.952274	1.016301	1.057504
	H295	H	0.952571	1.020117	1.052840
	H296	H	0.945143	1.022043	1.070896
	O297	O	-0.152291	0.006631	-0.106246
	H298	H	-0.147806	0.007643	-0.103052
	H299	H	-0.162740	0.002274	-0.115522
	O300	O	0.420083	0.429927	0.536028
	H301	H	0.421777	0.447200	0.555089
	H302	H	0.406363	0.413071	0.537954
	O303	O	-0.032514	1.165886	0.885619
	H304	H	-0.033287	1.161980	0.886178
	H305	H	-0.040374	1.175503	0.887440
	O306	O	0.381895	0.566558	0.418976
	H307	H	0.382990	0.565652	0.418870
	H308	H	0.373097	0.584688	0.411355
	O309	O	1.090394	-0.126536	-0.123645
	H310	H	1.103014	-0.130480	-0.133785
	H311	H	1.089309	-0.116486	-0.115966
	O312	O	-0.040984	-0.034326	1.098678
	H313	H	-0.039821	-0.039499	1.103472
	H314	H	-0.051947	-0.033930	1.100762
	O315	O	0.584897	0.533277	0.441575
	H316	H	0.586594	0.517511	0.432158
	H317	H	0.587765	0.526475	0.441010
	O318	O	0.548841	0.600552	0.622517
	H319	H	0.551874	0.590947	0.631104
	H320	H	0.546023	0.597125	0.611153
	O321	O	0.515316	0.562376	0.447421
	H322	H	0.509675	0.567540	0.427867
	H323	H	0.525362	0.558438	0.435701
	O324	O	0.488035	0.440773	0.684012
	H325	H	0.491566	0.455159	0.684564
	H326	H	0.491062	0.432513	0.690087
	O327	O	-0.105672	1.116488	1.019286
	H328	H	-0.097036	1.112287	1.018177
	H329	H	-0.098538	1.108145	1.035014
	O330	O	0.026074	0.002606	-0.091735
	H331	H	0.035625	0.003269	-0.100344
	H332	H	0.017729	0.001729	-0.079990
	O333	O	0.099711	1.074363	1.051635
	H334	H	0.093266	1.071557	1.036616
	H335	H	0.087995	1.068433	1.057482
	O336	O	0.941808	0.910490	1.040901
	H337	H	0.951031	0.916647	1.044312
	H338	H	0.942001	0.904505	1.029567
	O339	O	0.435282	0.555985	0.580136
	H340	H	0.437220	0.548137	0.575360
	H341	H	0.444052	0.548153	0.589673
	O342	O	0.893360	0.145241	-0.083503
	H343	H	0.897223	0.141611	-0.080319
	H344	H	0.882606	0.140576	-0.090680
	O345	O	0.538535	0.540140	0.415316
	H346	H	0.541031	0.539465	0.417107
	H347	H	0.537368	0.537501	0.406659
	O348	O	1.018091	0.925845	0.859777
	H349	H	1.029107	0.905786	0.842180
	H350	H	1.025542	0.935143	0.869364
	O351	O	1.038292	0.900412	0.015957
	H352	H	1.036213	0.899260	0.013128
	H353	H	1.027889	0.896852	0.010863
	O354	O	0.596346	0.519710	0.471889
	H355	H	0.591927	0.509488	0.452882
	H356	H	0.600725	0.511354	0.483849
	O357	O	0.555662	0.460040	0.403066
	H358	H	0.557509	0.458246	0.417124
	H359	H	0.548025	0.437301	0.390122
	O360	O	0.105280	0.076845	0.073642
	H361	H	0.104691	0.084821	0.057899
	H362	H	0.092595	0.079924	0.078299
	O363	O	0.369049	0.486271	0.543785
	H364	H	0.376595	0.487751	0.552228
	H365	H	0.371596	0.508793	0.550677
	O366	O	0.516441	0.433761	0.458427
	H367	H	0.511488	0.433824	0.470625
	H368	H	0.501093	0.438299	0.460003
	O369	O	0.606648	0.418146	0.572193
	H370	H	0.587519	0.417328	0.555123
	H371	H	0.625568	0.413156	0.580963
	O372	O	0.383079	0.566258	0.441314
	H373	H	0.393643	0.567560	0.446495
	H374	H	0.385714	0.571512	0.434524
	O375	O	0.574500	0.363851	0.579694
	H376	H	0.585622	0.360629	0.568770
	H377	H	0.568149	0.353628	0.585144
	O378	O	0.598016	0.394938	0.453700
	H379	H	0.572456	0.399276	0.443956
	H380	H	0.588177	0.391807	0.451947
	O381	O	0.499599	0.389095	0.451032
	H382	H	0.494910	0.385488	0.462845
	H383	H	0.500555	0.384916	0.442998
	O384	O	-0.136140	1.008080	0.109042
	H385	H	-0.132968	1.006386	0.108904
	H386	H	-0.135164	0.994643	0.121686
	O387	O	0.850115	-0.164230	1.047061
	H388	H	0.853552	-0.169866	1.046800
	H389	H	0.836678	-0.160923	1.034211
	O390	O	0.020856	1.066500	0.149960
	H391	H	0.014055	1.072358	0.147693
	H392	H	0.018488	1.069291	0.140890
	O393	O	0.953288	0.924295	0.014540
	H394	H	0.952823	0.918712	0.004451
	H395	H	0.970108	0.928461	0.014553
	O396	O	0.506836	0.507536	0.498588
	H397	H	0.506865	0.506417	0.491584
	H398	H	0.519311	0.508491	0.487909
	O399	O	0.002318	1.093145	1.047677
	H400	H	0.001718	1.088023	1.047348
	H401	H	-0.012724	1.099702	1.050114
	O402	O	1.102289	0.932106	0.845111
	H403	H	1.113279	0.920872	0.856793
	H404	H	1.104245	0.922330	0.833323
	O405	O	0.531486	0.405296	0.643228
	H406	H	0.534190	0.399943	0.643139
	H407	H	0.521947	0.417353	0.648021
