data_Molecule from HDF5

_cell_length_a		16.475688
_cell_length_b		16.136869
_cell_length_c		16.279786
_cell_angle_alpha	89.944516
_cell_angle_beta	89.889552
_cell_angle_gamma	90.036723
_symmetry_space_group_name_H-M	'P 1'
_symmetry_Int_Tables_number		1

loop_
	_symmetry_equiv_pos_as_xyz
	x,y,z

loop_
	_atom_site_label
	_atom_site_type_symbol
	_atom_site_fract_x
	_atom_site_fract_y
	_atom_site_fract_z
	H0	H	0.399778	0.826650	0.732418
	H1	H	0.599851	0.154149	0.733191
	H2	H	0.602635	0.827544	0.297190
	H3	H	0.396423	0.154120	0.299197
	H4	H	0.719229	0.385776	0.853990
	H5	H	0.722604	0.600472	0.172943
	H6	H	0.280270	0.597286	0.853199
	H7	H	0.275139	0.382126	0.172835
	H8	H	0.840057	0.711509	0.408689
	H9	H	0.158959	0.709221	0.615047
	H10	H	0.838815	0.272389	0.615540
	H11	H	0.159147	0.270971	0.410044
	H12	H	0.840659	0.383920	0.734885
	H13	H	0.158526	0.595787	0.732971
	H14	H	0.841151	0.597757	0.290125
	H15	H	0.158486	0.385596	0.291936
	H16	H	0.400489	0.707334	0.852286
	H17	H	0.600948	0.707201	0.176752
	H18	H	0.599257	0.274423	0.853263
	H19	H	0.398780	0.276818	0.178064
	H20	H	0.719674	0.827955	0.410070
	H21	H	0.720504	0.151810	0.622764
	H22	H	0.279251	0.828792	0.623428
	H23	H	0.282267	0.153796	0.414993
	H24	H	0.898402	0.328153	0.230040
	H25	H	0.103924	0.652210	0.230640
	H26	H	0.099195	0.327075	0.796090
	H27	H	0.898526	0.654236	0.795930
	H28	H	0.221471	0.885762	0.355548
	H29	H	0.215011	0.095445	0.677737
	H30	H	0.777364	0.095365	0.355260
	H31	H	0.779133	0.881203	0.675571
	H32	H	0.337960	0.206233	0.917999
	H33	H	0.659091	0.210580	0.119918
	H34	H	0.338927	0.769531	0.119636
	H35	H	0.660013	0.773716	0.915566
	H36	H	0.338214	0.886652	0.236381
	H37	H	0.658661	0.093573	0.236820
	H38	H	0.339172	0.093064	0.798322
	H39	H	0.656598	0.883988	0.794879
	H40	H	0.898666	0.205537	0.351498
	H41	H	0.095816	0.207035	0.676755
	H42	H	0.100903	0.776061	0.351500
	H43	H	0.899192	0.772089	0.676107
	H44	H	0.219126	0.328871	0.906415
	H45	H	0.218187	0.651588	0.116163
	H46	H	0.777817	0.330860	0.120819
	H47	H	0.780013	0.653244	0.907382
	H48	H	0.397583	0.110598	0.607770
	H49	H	0.589388	0.876918	0.599984
	H50	H	0.588365	0.102815	0.435177
	H51	H	0.406421	0.874279	0.429429
	H52	H	0.597026	0.407054	0.130284
	H53	H	0.592218	0.586833	0.897088
	H54	H	0.407583	0.576865	0.127912
	H55	H	0.405663	0.404146	0.899186
	H56	H	0.116638	0.590243	0.418107
	H57	H	0.883166	0.586031	0.607988
	H58	H	0.113093	0.395378	0.601161
	H59	H	0.885655	0.403952	0.417833
	H60	H	0.111354	0.403689	0.602296
	H61	H	0.887139	0.580901	0.596064
	H62	H	0.109471	0.580483	0.430663
	H63	H	0.883645	0.395171	0.419771
	H64	H	0.406790	0.578056	0.129894
	H65	H	0.595247	0.576636	0.898820
	H66	H	0.585153	0.407483	0.127130
	H67	H	0.412333	0.399667	0.900756
	H68	H	0.592591	0.106528	0.428017
	H69	H	0.594170	0.871899	0.608717
	H70	H	0.409363	0.109499	0.616716
	H71	H	0.408058	0.873635	0.426187
	H72	H	0.909390	0.607160	0.100210
	H73	H	0.093267	0.374413	0.096676
	H74	H	0.086695	0.606888	0.917831
	H75	H	0.918476	0.376993	0.920904
	H76	H	0.088427	0.903418	0.629481
	H77	H	0.098498	0.085988	0.396482
	H78	H	0.904837	0.079595	0.630571
	H79	H	0.907093	0.911023	0.401635
	H80	H	0.611517	0.079795	0.930940
	H81	H	0.383656	0.087284	0.111585
	H82	H	0.615830	0.895735	0.116057
	H83	H	0.386768	0.900021	0.929972
	H84	H	0.610871	0.894779	0.098848
	H85	H	0.386449	0.082491	0.104473
	H86	H	0.613528	0.077274	0.920044
	H87	H	0.384747	0.903723	0.922309
	H88	H	0.910471	0.075319	0.627301
	H89	H	0.096104	0.071145	0.400860
	H90	H	0.088330	0.897236	0.630572
	H91	H	0.914893	0.899262	0.400665
	H92	H	0.090813	0.604573	0.928285
	H93	H	0.088841	0.372015	0.105590
	H94	H	0.910962	0.607435	0.101426
	H95	H	0.905755	0.377565	0.933888
	H96	H	0.410666	0.104615	0.602150
	H97	H	0.583368	0.875372	0.608972
	H98	H	0.584379	0.103823	0.426861
	H99	H	0.409809	0.875311	0.428511
	H100	H	0.589917	0.396870	0.132415
	H101	H	0.584426	0.579745	0.900690
	H102	H	0.406007	0.576808	0.129389
	H103	H	0.405903	0.395708	0.896284
	H104	H	0.112095	0.573365	0.414813
	H105	H	0.886575	0.572416	0.606389
	H106	H	0.114952	0.399038	0.609199
	H107	H	0.887444	0.400522	0.426299
	H108	H	0.911146	0.605963	0.099538
	H109	H	0.082705	0.376914	0.098637
	H110	H	0.096996	0.609806	0.920315
	H111	H	0.901729	0.370648	0.918148
	H112	H	0.093753	0.900434	0.631931
	H113	H	0.084101	0.081128	0.400892
	H114	H	0.911965	0.082596	0.630097
	H115	H	0.901361	0.899082	0.396397
	H116	H	0.615920	0.087935	0.923963
	H117	H	0.384687	0.078449	0.112492
	H118	H	0.608447	0.910248	0.108094
	H119	H	0.383140	0.895430	0.924277
	C120	C	0.376775	-0.000309	0.638833
	C121	C	0.620637	0.981931	0.637948
	C122	C	0.619842	-0.002132	0.396919
	C123	C	0.378190	0.982243	0.397041
	C124	C	0.621168	0.370944	0.023689
	C125	C	0.621165	0.612353	1.005579
	C126	C	0.377557	0.610501	0.022761
	C127	C	0.377223	0.369228	1.005648
	C128	C	0.007718	0.613662	0.389613
	C129	C	0.990871	0.611550	0.634394
	C130	C	0.007750	0.368000	0.635170
	C131	C	0.991189	0.368741	0.390794
	C132	C	0.878481	0.500086	0.133548
	C133	C	0.120028	0.481377	0.132215
	C134	C	0.121431	0.499559	0.890696
	C135	C	0.878151	0.482565	0.892149
	C136	C	0.121398	0.869523	0.523760
	C137	C	0.120923	0.111629	0.506375
	C138	C	0.877505	0.111239	0.523328
	C139	C	0.877713	0.869498	0.506003
	C140	C	0.507387	0.111862	0.895333
	C141	C	0.490424	0.113586	0.140221
	C142	C	0.506708	0.867844	0.139363
	C143	C	0.490522	0.868632	0.894820
	C144	C	0.379149	0.876123	0.694908
	C145	C	0.620137	0.104858	0.695153
	C146	C	0.621140	0.876235	0.336862
	C147	C	0.377892	0.105197	0.338423
	C148	C	0.679654	0.367602	0.902278
	C149	C	0.681632	0.616395	0.125632
	C150	C	0.319943	0.614257	0.901364
	C151	C	0.316460	0.366068	0.125621
	C152	C	0.888265	0.672885	0.389009
	C153	C	0.111248	0.670005	0.634363
	C154	C	0.886968	0.310622	0.635033
	C155	C	0.111136	0.309889	0.390464
	C156	C	0.887959	0.366347	0.694484
	C157	C	0.110894	0.613307	0.693016
	C158	C	0.888588	0.615749	0.330108
	C159	C	0.110858	0.366897	0.331654
	C160	C	0.379713	0.669362	0.900980
	C161	C	0.620860	0.669739	0.127655
	C162	C	0.619948	0.312162	0.902113
	C163	C	0.378010	0.313358	0.128409
	C164	C	0.679490	0.876198	0.393278
	C165	C	0.680537	0.103449	0.640398
	C166	C	0.319249	0.877303	0.640603
	C167	C	0.320838	0.105111	0.395901
	C168	C	0.878494	0.377471	0.192053
	C169	C	0.121950	0.603449	0.191340
	C170	C	0.119645	0.376433	0.833891
	C171	C	0.878663	0.605268	0.834125
	C172	C	0.181120	0.868092	0.403200
	C173	C	0.176746	0.113491	0.628626
	C174	C	0.817524	0.113586	0.402914
	C175	C	0.818928	0.864660	0.627188
	C176	C	0.386165	0.168204	0.897341
	C177	C	0.611011	0.171495	0.139557
	C178	C	0.386797	0.808883	0.139345
	C179	C	0.611110	0.811472	0.895286
	C180	C	0.386575	0.866930	0.197641
	C181	C	0.610911	0.112981	0.197716
	C182	C	0.386749	0.111536	0.838162
	C183	C	0.609654	0.866570	0.835203
	C184	C	0.878222	0.168041	0.400786
	C185	C	0.117234	0.168887	0.628340
	C186	C	0.120564	0.813772	0.400899
	C187	C	0.878611	0.810303	0.627510
	C188	C	0.179459	0.377417	0.888675
	C189	C	0.178635	0.603250	0.134015
	C190	C	0.818637	0.378607	0.137344
	C191	C	0.819722	0.604676	0.889986
	C192	C	0.399291	0.085896	0.615506
	C193	C	0.596140	0.896819	0.613141
	C194	C	0.595368	0.082483	0.422615
	C195	C	0.401302	0.896857	0.421032
	C196	C	0.597639	0.396518	0.107874
	C197	C	0.597377	0.588166	0.921009
	C198	C	0.400149	0.584655	0.107099
	C199	C	0.401118	0.393039	0.920840
	C200	C	0.091056	0.588582	0.414093
	C201	C	0.907205	0.587009	0.610355
	C202	C	0.091275	0.392260	0.611121
	C203	C	0.907433	0.392911	0.414465
	C204	C	0.903227	0.584897	0.107952
	C205	C	0.095370	0.396439	0.107551
	C206	C	0.098223	0.585013	0.914983
	C207	C	0.901827	0.396945	0.917192
	C208	C	0.097257	0.893430	0.608657
	C209	C	0.099304	0.086693	0.421278
	C210	C	0.901806	0.086268	0.607427
	C211	C	0.901152	0.895458	0.421651
	C212	C	0.591644	0.088392	0.918150
	C213	C	0.406678	0.089667	0.116643
	C214	C	0.590210	0.892852	0.114960
	C215	C	0.406579	0.892719	0.918722
	Zn216	Zn	0.498586	-0.009738	0.765679
	Zn217	Zn	0.498501	-0.010069	0.268893
	Zn218	Zn	0.750117	0.492132	0.013733
	Zn219	Zn	0.248636	0.489756	0.012681
	Zn220	Zn	-0.000526	0.741590	0.513448
	Zn221	Zn	-0.000945	0.239784	0.513033
	Zn222	Zn	-0.001153	0.490518	0.763895
	Zn223	Zn	-0.000164	0.490895	0.260849
	Zn224	Zn	0.498944	0.739119	0.015637
	Zn225	Zn	0.498926	0.242102	0.016211
	Zn226	Zn	0.748951	-0.010658	0.516552
	Zn227	Zn	0.249922	-0.009084	0.517140
	N228	N	0.414151	0.953483	0.694090
	N229	N	0.583913	0.028174	0.693993
	N230	N	0.584765	0.952891	0.339091
	N231	N	0.412713	0.027713	0.338753
	N232	N	0.680686	0.403250	0.978927
	N233	N	0.682097	0.581533	0.048546
	N234	N	0.318387	0.578364	0.977898
	N235	N	0.315827	0.400021	0.048139
	N236	N	0.963408	0.671516	0.425457
	N237	N	0.035782	0.668969	0.598453
	N238	N	0.962258	0.311666	0.598681
	N239	N	0.035685	0.310963	0.426603
	N240	N	0.964013	0.401499	0.694852
	N241	N	0.034977	0.577736	0.693177
	N242	N	0.964002	0.579562	0.330397
	N243	N	0.035233	0.402733	0.331567
	N244	N	0.414797	0.667356	0.977558
	N245	N	0.584084	0.667564	0.052167
	N246	N	0.584476	0.313825	0.978718
	N247	N	0.415113	0.315100	0.052818
	N248	N	0.678768	0.952846	0.430131
	N249	N	0.680999	0.025811	0.605670
	N250	N	0.317623	0.955372	0.606601
	N251	N	0.320963	0.027851	0.431668
	N252	N	0.914735	0.454178	0.189898
	N253	N	0.085987	0.526562	0.190299
	N254	N	0.084338	0.453511	0.834823
	N255	N	0.914149	0.528065	0.835371
	N256	N	0.181839	0.901843	0.480687
	N257	N	0.179153	0.078482	0.551687
	N258	N	0.817112	0.078809	0.480102
	N259	N	0.818192	0.900759	0.550850
	N260	N	0.462231	0.168513	0.932143
	N261	N	0.535115	0.172093	0.104608
	N262	N	0.462723	0.809049	0.104004
	N263	N	0.536044	0.812810	0.931837
	N264	N	0.462268	0.902527	0.197834
	N265	N	0.534861	0.078091	0.198416
	N266	N	0.463128	0.077579	0.836549
	N267	N	0.533696	0.901757	0.835053
	N268	N	0.914843	0.166759	0.476572
	N269	N	0.083753	0.168212	0.551166
	N270	N	0.084177	0.814357	0.476995
	N271	N	0.914393	0.812816	0.550928
	N272	N	0.180761	0.455124	0.923164
	N273	N	0.177737	0.526303	0.098132
	N274	N	0.818706	0.455838	0.101621
	N275	N	0.819199	0.527086	0.925213
	O276	O	0.352474	0.607279	0.350218
	H277	H	0.361735	0.587268	0.349041
	H278	H	0.358269	0.595997	0.336778
	O279	O	0.385873	0.422401	0.344758
	H280	H	0.400321	0.409624	0.343716
	H281	H	0.388576	0.408112	0.355760
	O282	O	1.090603	-0.062017	0.902479
	H283	H	1.095185	-0.069194	0.928199
	H284	H	1.091648	-0.064263	0.907063
	O285	O	0.689722	0.374201	0.574262
	H286	H	0.703562	0.377246	0.586368
	H287	H	0.664712	0.381901	0.583252
	O288	O	0.893948	1.171450	0.845782
	H289	H	0.914640	1.166609	0.849007
	H290	H	0.897692	1.171999	0.844124
	O291	O	0.512198	1.534000	-0.300181
	H292	H	0.497528	1.541454	-0.297044
	H293	H	0.517320	1.543939	-0.314686
	O294	O	0.677814	0.504777	0.401312
	H295	H	0.688606	0.497152	0.403271
	H296	H	0.673336	0.491760	0.399211
	O297	O	0.357926	0.599167	0.572743
	H298	H	0.357122	0.587192	0.554271
	H299	H	0.349194	0.613714	0.558963
	O300	O	0.594037	0.462141	0.369689
	H301	H	0.607134	0.464347	0.372359
	H302	H	0.606212	0.462507	0.380539
	O303	O	0.395728	0.433251	0.575886
	H304	H	0.385211	0.433065	0.582782
	H305	H	0.394899	0.427066	0.579895
	O306	O	0.682566	0.412141	0.402257
	H307	H	0.701487	0.407715	0.392631
	H308	H	0.684207	0.420349	0.422056
	O309	O	0.548698	0.382847	0.448337
	H310	H	0.557705	0.384389	0.447807
	H311	H	0.555521	0.369244	0.449148
	O312	O	-0.181888	0.158211	0.004837
	H313	H	-0.179693	0.145916	-0.000024
	H314	H	-0.188415	0.169873	0.003878
	O315	O	0.572960	0.654609	0.604537
	H316	H	0.567858	0.667069	0.599489
	H317	H	0.563139	0.663214	0.588205
	O318	O	-0.092057	1.063359	1.066919
	H319	H	-0.084561	1.052336	1.062934
	H320	H	-0.087750	1.075078	1.065100
	O321	O	0.562795	0.534561	0.548776
	H322	H	0.577549	0.550849	0.554203
	H323	H	0.554115	0.543370	0.555101
	O324	O	0.084466	0.970361	-0.070171
	H325	H	0.070603	0.968224	-0.062046
	H326	H	0.069963	0.964187	-0.070261
	O327	O	-0.054404	0.000613	0.015774
	H328	H	-0.044139	0.009372	0.012063
	H329	H	-0.065792	-0.003979	0.005106
	O330	O	-0.118966	-0.083573	0.856179
	H331	H	-0.120754	-0.077662	0.842025
	H332	H	-0.103548	-0.082527	0.847633
	O333	O	0.028072	-0.076965	0.885967
	H334	H	0.018890	-0.072929	0.899970
	H335	H	0.027100	-0.084154	0.883714
	O336	O	0.357129	0.693601	0.394715
	H337	H	0.344077	0.698316	0.389827
	H338	H	0.355538	0.701208	0.369783
	O339	O	1.100280	-0.002684	0.079005
	H340	H	1.103384	0.000156	0.065919
	H341	H	1.093569	-0.003873	0.067199
	O342	O	0.030666	-0.053019	0.131458
	H343	H	0.033642	-0.050379	0.134452
	H344	H	0.042371	-0.039964	0.122147
	O345	O	0.917195	-0.047536	1.094554
	H346	H	0.908559	-0.049989	1.067287
	H347	H	0.906901	-0.024892	1.098498
	O348	O	0.936007	0.942240	0.012096
	H349	H	0.936443	0.947032	0.015264
	H350	H	0.926917	0.938791	0.001249
	O351	O	0.593842	0.561238	0.667114
	H352	H	0.597642	0.555674	0.670013
	H353	H	0.579758	0.567381	0.656413
	O354	O	0.851066	-0.037556	0.968749
	H355	H	0.855841	-0.036187	0.952686
	H356	H	0.837948	-0.025937	0.973323
	O357	O	0.526472	0.535184	0.597563
	H358	H	0.513579	0.529234	0.590691
	H359	H	0.523312	0.540582	0.594404
	O360	O	0.463783	0.559011	0.595607
	H361	H	0.459016	0.542211	0.593173
	H362	H	0.450334	0.558665	0.578925
	O363	O	0.145140	1.021585	0.894246
	H364	H	0.148679	1.015846	0.902658
	H365	H	0.164180	1.019192	0.883368
	O366	O	0.363136	0.338244	0.654514
	H367	H	0.350467	0.320354	0.671803
	H368	H	0.366676	0.362429	0.667671
	O369	O	-0.189722	0.943108	-0.025652
	H370	H	-0.193815	0.950954	-0.027296
	H371	H	-0.187404	0.938271	-0.031004
	O372	O	0.393318	0.391180	0.442574
	H373	H	0.402633	0.396553	0.438893
	H374	H	0.398686	0.396635	0.416216
	O375	O	0.553676	0.296767	0.460601
	H376	H	0.559978	0.287694	0.487049
	H377	H	0.543722	0.312533	0.454244
	O378	O	0.959814	1.016565	0.118079
	H379	H	0.969665	1.028048	0.130476
	H380	H	0.964354	1.016392	0.116278
	O381	O	1.024358	0.045343	0.124377
	H382	H	1.016359	0.037903	0.111251
	H383	H	1.020682	0.036735	0.125680
	O384	O	1.344177	1.439953	-0.449794
	H385	H	1.339618	1.447359	-0.448666
	H386	H	1.357111	1.458556	-0.450171
	O387	O	0.050817	0.088342	-0.044920
	H388	H	0.053540	0.093182	-0.060968
	H389	H	0.044004	0.066862	-0.044161
	O390	O	0.118823	1.147108	0.007048
	H391	H	0.125028	1.144793	0.012921
	H392	H	0.129712	1.140237	0.012609
	O393	O	0.549098	0.461920	0.510167
	H394	H	0.540995	0.451790	0.504880
	H395	H	0.542525	0.463176	0.515169
	O396	O	0.501043	0.530988	0.484420
	H397	H	0.514307	0.522891	0.469833
	H398	H	0.484272	0.533544	0.478869
	O399	O	0.057583	0.861908	1.054182
	H400	H	0.071698	0.867508	1.085838
	H401	H	0.035041	0.879785	1.060758
	O402	O	0.503790	0.585600	0.335863
	H403	H	0.515384	0.591796	0.327578
	H404	H	0.515173	0.579059	0.351793
	O405	O	1.115989	1.001223	-0.007359
	H406	H	1.116519	1.004070	-0.004726
	H407	H	1.095564	0.999161	-0.004669
	O408	O	1.087581	0.859027	0.099834
	H409	H	1.091123	0.861919	0.103658
	H410	H	1.079399	0.858411	0.105138
	O411	O	0.973085	-0.166589	1.184006
	H412	H	0.955179	-0.157626	1.184947
	H413	H	0.973963	-0.184866	1.201747
	O414	O	0.658545	0.553597	0.553066
	H415	H	0.652567	0.552977	0.577124
	H416	H	0.669450	0.579774	0.547533
	O417	O	0.315879	0.349787	0.551998
	H418	H	0.318873	0.329528	0.553753
	H419	H	0.321072	0.357522	0.551149
