data_Molecule from HDF5

_cell_length_a		16.552489
_cell_length_b		16.365760
_cell_length_c		16.661983
_cell_angle_alpha	90.079674
_cell_angle_beta	89.935348
_cell_angle_gamma	89.940891
_symmetry_space_group_name_H-M	'P 1'
_symmetry_Int_Tables_number		1

loop_
	_symmetry_equiv_pos_as_xyz
	x,y,z

loop_
	_atom_site_label
	_atom_site_type_symbol
	_atom_site_fract_x
	_atom_site_fract_y
	_atom_site_fract_z
	H0	H	0.416625	0.875524	0.730967
	H1	H	0.626515	0.191716	0.731201
	H2	H	0.623806	0.874852	0.291438
	H3	H	0.413649	0.191182	0.288517
	H4	H	0.744857	0.426287	0.855654
	H5	H	0.742355	0.639574	0.165254
	H6	H	0.297163	0.641926	0.855382
	H7	H	0.295710	0.426141	0.165193
	H8	H	0.862825	0.750366	0.412576
	H9	H	0.178813	0.754149	0.615147
	H10	H	0.865182	0.311893	0.614791
	H11	H	0.179702	0.314670	0.407573
	H12	H	0.865602	0.426885	0.733488
	H13	H	0.175633	0.644431	0.736806
	H14	H	0.865754	0.640519	0.289251
	H15	H	0.176320	0.424595	0.285040
	H16	H	0.416827	0.755735	0.853535
	H17	H	0.622973	0.754512	0.166262
	H18	H	0.624699	0.312854	0.853350
	H19	H	0.413838	0.309996	0.165584
	H20	H	0.738126	0.874144	0.409312
	H21	H	0.741866	0.191952	0.614475
	H22	H	0.303795	0.873962	0.612391
	H23	H	0.299645	0.192182	0.405673
	H24	H	0.913820	0.377125	0.232813
	H25	H	0.124143	0.692896	0.229889
	H26	H	0.130041	0.378235	0.785981
	H27	H	0.915010	0.691984	0.790921
	H28	H	0.244150	0.925985	0.355027
	H29	H	0.245936	0.141453	0.664732
	H30	H	0.800457	0.139310	0.354615
	H31	H	0.799737	0.929076	0.665914
	H32	H	0.363801	0.255546	0.906278
	H33	H	0.677710	0.254416	0.113065
	H34	H	0.364127	0.811566	0.116719
	H35	H	0.679798	0.816829	0.909612
	H36	H	0.367380	0.922212	0.237351
	H37	H	0.675985	0.142689	0.233605
	H38	H	0.364876	0.142632	0.785861
	H39	H	0.677447	0.928589	0.788309
	H40	H	0.919965	0.253239	0.353213
	H41	H	0.128341	0.258449	0.664529
	H42	H	0.125350	0.811438	0.354212
	H43	H	0.918860	0.815442	0.667649
	H44	H	0.244134	0.377284	0.903630
	H45	H	0.239109	0.693359	0.112833
	H46	H	0.798868	0.376869	0.116242
	H47	H	0.802444	0.692745	0.908544
	H48	H	0.431823	0.146677	0.597094
	H49	H	0.610109	0.922254	0.594573
	H50	H	0.605371	0.147330	0.418179
	H51	H	0.429201	0.920984	0.425018
	H52	H	0.614971	0.444528	0.123198
	H53	H	0.618203	0.621067	0.896652
	H54	H	0.429374	0.624108	0.121966
	H55	H	0.430080	0.448869	0.900012
	H56	H	0.133978	0.622144	0.419312
	H57	H	0.905819	0.625918	0.607488
	H58	H	0.131608	0.448833	0.597050
	H59	H	0.908776	0.440450	0.423295
	H60	H	0.131944	0.450145	0.600485
	H61	H	0.909137	0.626559	0.596665
	H62	H	0.134718	0.621606	0.420068
	H63	H	0.912237	0.450211	0.424476
	H64	H	0.430683	0.621820	0.120549
	H65	H	0.607482	0.620009	0.900785
	H66	H	0.609226	0.449017	0.120074
	H67	H	0.435160	0.449383	0.902240
	H68	H	0.610126	0.146270	0.426328
	H69	H	0.614331	0.917130	0.600999
	H70	H	0.432328	0.147919	0.600210
	H71	H	0.435801	0.919341	0.416558
	H72	H	0.933027	0.649394	0.105751
	H73	H	0.109741	0.422079	0.092978
	H74	H	0.103935	0.648008	0.916185
	H75	H	0.932395	0.418528	0.918868
	H76	H	0.108762	0.939468	0.622748
	H77	H	0.113101	0.119394	0.399293
	H78	H	0.935728	0.121727	0.619994
	H79	H	0.927884	0.948472	0.398891
	H80	H	0.631697	0.122417	0.921483
	H81	H	0.413030	0.115660	0.092118
	H82	H	0.635909	0.940757	0.104737
	H83	H	0.411157	0.950656	0.921996
	H84	H	0.630384	0.945146	0.093193
	H85	H	0.409113	0.116030	0.105440
	H86	H	0.632555	0.118767	0.918137
	H87	H	0.406707	0.946399	0.914367
	H88	H	0.930957	0.126138	0.624095
	H89	H	0.107720	0.121057	0.400249
	H90	H	0.119263	0.943187	0.624213
	H91	H	0.936741	0.941611	0.398907
	H92	H	0.103938	0.643025	0.928664
	H93	H	0.112525	0.418108	0.102323
	H94	H	0.936515	0.645473	0.097529
	H95	H	0.936090	0.421213	0.922151
	H96	H	0.434834	0.146380	0.598761
	H97	H	0.606264	0.920795	0.602934
	H98	H	0.614895	0.150017	0.418611
	H99	H	0.439247	0.925020	0.425683
	H100	H	0.608102	0.441576	0.121370
	H101	H	0.611133	0.630189	0.895737
	H102	H	0.432007	0.624311	0.120633
	H103	H	0.433971	0.444281	0.899945
	H104	H	0.134674	0.620979	0.419844
	H105	H	0.911125	0.616623	0.602636
	H106	H	0.132727	0.446344	0.599671
	H107	H	0.908098	0.447385	0.415185
	H108	H	0.927263	0.648429	0.098197
	H109	H	0.102736	0.422321	0.100593
	H110	H	0.115353	0.648951	0.924149
	H111	H	0.930920	0.420581	0.923815
	H112	H	0.111154	0.950344	0.620484
	H113	H	0.112065	0.124967	0.398220
	H114	H	0.928456	0.119250	0.621588
	H115	H	0.926974	0.937956	0.395474
	H116	H	0.633935	0.123741	0.917102
	H117	H	0.407155	0.127473	0.097547
	H118	H	0.631318	0.953610	0.103677
	H119	H	0.408078	0.941740	0.922508
	C120	C	0.401082	0.042009	0.630465
	C121	C	0.642140	1.025254	0.630730
	C122	C	0.641900	0.042976	0.389416
	C123	C	0.400688	1.025404	0.389238
	C124	C	0.643008	0.412106	0.018630
	C125	C	0.642933	0.655737	1.001323
	C126	C	0.398572	0.656860	0.018486
	C127	C	0.399257	0.412967	1.002556
	C128	C	0.029927	0.653897	0.390149
	C129	C	1.012147	0.656267	0.634250
	C130	C	0.029616	0.413792	0.632066
	C131	C	1.013065	0.412744	0.388426
	C132	C	0.899452	0.543150	0.132317
	C133	C	0.140749	0.525629	0.130562
	C134	C	0.141732	0.542859	0.889609
	C135	C	0.900505	0.525034	0.890368
	C136	C	0.144124	0.911090	0.519204
	C137	C	0.143799	0.155168	0.501929
	C138	C	0.900290	0.155121	0.518664
	C139	C	0.899793	0.912239	0.501785
	C140	C	0.529421	0.155567	0.887180
	C141	C	0.512633	0.153941	0.130874
	C142	C	0.529410	0.912795	0.132476
	C143	C	0.512778	0.913965	0.888655
	C144	C	0.398726	0.922717	0.690279
	C145	C	0.644743	0.144326	0.690907
	C146	C	0.642831	0.922860	0.330864
	C147	C	0.396303	0.144139	0.328799
	C148	C	0.703780	0.408873	0.901867
	C149	C	0.701943	0.657758	0.118818
	C150	C	0.337923	0.659667	0.901688
	C151	C	0.337073	0.408580	0.118829
	C152	C	0.910453	0.711837	0.392030
	C153	C	0.130775	0.715696	0.635215
	C154	C	0.912243	0.351994	0.634268
	C155	C	0.131796	0.353480	0.387686
	C156	C	0.912373	0.409119	0.693090
	C157	C	0.129224	0.660625	0.695478
	C158	C	0.911903	0.657185	0.330940
	C159	C	0.130060	0.408093	0.326667
	C160	C	0.397075	0.716748	0.901055
	C161	C	0.643223	0.715189	0.119213
	C162	C	0.643941	0.352400	0.900790
	C163	C	0.395766	0.350859	0.119078
	C164	C	0.699849	0.922450	0.389198
	C165	C	0.702179	0.144500	0.633129
	C166	C	0.342756	0.921878	0.631348
	C167	C	0.339385	0.144181	0.386812
	C168	C	0.896214	0.424424	0.192422
	C169	C	0.142773	0.645203	0.190223
	C170	C	0.147084	0.425028	0.827305
	C171	C	0.897560	0.644607	0.831084
	C172	C	0.203846	0.908078	0.401762
	C173	C	0.204915	0.159351	0.618343
	C174	C	0.840539	0.157627	0.401279
	C175	C	0.840205	0.910919	0.619289
	C176	C	0.411066	0.215987	0.886647
	C177	C	0.630473	0.214699	0.132479
	C178	C	0.411860	0.851223	0.135136
	C179	C	0.631856	0.855271	0.888849
	C180	C	0.413205	0.906676	0.195193
	C181	C	0.629464	0.159117	0.192404
	C182	C	0.411546	0.159622	0.826921
	C183	C	0.630888	0.911163	0.829066
	C184	C	0.899985	0.214362	0.400806
	C185	C	0.146395	0.217166	0.618514
	C186	C	0.144958	0.850914	0.401547
	C187	C	0.899577	0.854447	0.620218
	C188	C	0.203923	0.424573	0.885596
	C189	C	0.199671	0.645509	0.131862
	C190	C	0.838987	0.424349	0.134418
	C191	C	0.841199	0.644834	0.889348
	C192	C	0.425962	0.125261	0.605862
	C193	C	0.617294	0.941740	0.606246
	C194	C	0.617202	0.126175	0.413969
	C195	C	0.427164	0.943138	0.415023
	C196	C	0.617877	0.437676	0.100351
	C197	C	0.619041	0.630850	0.919253
	C198	C	0.423508	0.630925	0.100085
	C199	C	0.425553	0.439676	0.921788
	C200	C	0.112923	0.628892	0.413235
	C201	C	0.930071	0.630352	0.609390
	C202	C	0.110973	0.440799	0.606489
	C203	C	0.931111	0.438650	0.413580
	C204	C	0.924959	0.626186	0.107720
	C205	C	0.115533	0.442563	0.105762
	C206	C	0.115337	0.625291	0.915648
	C207	C	0.925930	0.441898	0.914573
	C208	C	0.119910	0.936785	0.601005
	C209	C	0.118348	0.129022	0.420474
	C210	C	0.924734	0.129717	0.600645
	C211	C	0.923696	0.936020	0.419371
	C212	C	0.611362	0.129175	0.911736
	C213	C	0.430938	0.127418	0.105610
	C214	C	0.611099	0.939098	0.107493
	C215	C	0.430155	0.939019	0.912779
	Zn216	Zn	0.521030	0.033853	0.758690
	Zn217	Zn	0.520684	0.034510	0.260955
	Zn218	Zn	0.772287	0.534090	0.010210
	Zn219	Zn	0.269720	0.534510	0.010449
	Zn220	Zn	0.021340	0.783291	0.511081
	Zn221	Zn	0.021987	0.284531	0.510212
	Zn222	Zn	0.020560	0.534194	0.761847
	Zn223	Zn	0.021049	0.533883	0.259656
	Zn224	Zn	0.521319	0.784952	0.009857
	Zn225	Zn	0.520819	0.283201	0.010366
	Zn226	Zn	0.770615	0.033845	0.510090
	Zn227	Zn	0.272661	0.033074	0.510367
	N228	N	0.434059	0.998617	0.690052
	N229	N	0.608152	0.069095	0.689504
	N230	N	0.607899	0.999000	0.330577
	N231	N	0.433520	0.069154	0.329985
	N232	N	0.703429	0.444981	0.976241
	N233	N	0.701998	0.621673	0.044436
	N234	N	0.338812	0.623001	0.975769
	N235	N	0.339188	0.446618	0.045529
	N236	N	0.985034	0.710090	0.427917
	N237	N	0.056969	0.713344	0.597788
	N238	N	0.986173	0.354651	0.596883
	N239	N	0.058001	0.356079	0.425165
	N240	N	0.986545	0.446509	0.691856
	N241	N	0.054361	0.624618	0.695126
	N242	N	0.987210	0.621951	0.329577
	N243	N	0.055113	0.444344	0.327077
	N244	N	0.433770	0.715248	0.974960
	N245	N	0.607121	0.713802	0.045144
	N246	N	0.607076	0.354009	0.974622
	N247	N	0.433842	0.353520	0.045785
	N248	N	0.699947	0.998294	0.424461
	N249	N	0.700562	0.069333	0.596327
	N250	N	0.344028	0.997197	0.595029
	N251	N	0.341866	0.069284	0.423696
	N252	N	0.933080	0.499467	0.191253
	N253	N	0.107258	0.569339	0.189804
	N254	N	0.109286	0.499609	0.829569
	N255	N	0.933795	0.569100	0.831568
	N256	N	0.203525	0.944807	0.475865
	N257	N	0.203264	0.121569	0.544809
	N258	N	0.840451	0.121487	0.475714
	N259	N	0.840053	0.946109	0.544511
	N260	N	0.485150	0.213381	0.923482
	N261	N	0.556790	0.211617	0.094762
	N262	N	0.485211	0.854835	0.096718
	N263	N	0.557404	0.856888	0.925333
	N264	N	0.487194	0.944370	0.193733
	N265	N	0.555116	0.122170	0.191332
	N266	N	0.486345	0.122996	0.826850
	N267	N	0.555592	0.946510	0.828537
	N268	N	0.936099	0.213014	0.474903
	N269	N	0.108953	0.214522	0.545129
	N270	N	0.108693	0.852527	0.475687
	N271	N	0.935892	0.855062	0.546142
	N272	N	0.200826	0.498996	0.923562
	N273	N	0.198896	0.569983	0.095936
	N274	N	0.840820	0.499366	0.097758
	N275	N	0.842851	0.569514	0.925476
	O276	O	1.103980	1.248441	0.930938
	H277	H	1.093348	1.242815	0.924820
	H278	H	1.096023	1.245012	0.937670
	O279	O	-0.049925	0.179330	1.076107
	H280	H	-0.064386	0.180279	1.064194
	H281	H	-0.045024	0.180972	1.065188
	O282	O	0.673100	0.375875	0.699671
	H283	H	0.662302	0.391116	0.685107
	H284	H	0.654516	0.375852	0.687220
	O285	O	0.222912	-0.163479	0.808480
	H286	H	0.198189	-0.149291	0.809328
	H287	H	0.218174	-0.163775	0.818940
	O288	O	0.870516	-0.135592	0.867006
	H289	H	0.877258	-0.125975	0.867933
	H290	H	0.879565	-0.132489	0.897525
	O291	O	0.203020	0.205319	0.187645
	H292	H	0.172368	0.215828	0.179561
	H293	H	0.203135	0.196131	0.174523
	O294	O	-0.184566	0.054171	-0.197488
	H295	H	-0.197784	0.063873	-0.202783
	H296	H	-0.176548	0.046080	-0.197394
	O297	O	0.807109	-0.181813	0.042119
	H298	H	0.804681	-0.182914	0.075703
	H299	H	0.787836	-0.199085	0.058084
	O300	O	0.238727	-0.176984	-0.023837
	H301	H	0.262414	-0.183288	-0.017741
	H302	H	0.248275	-0.170949	-0.031290
	O303	O	-0.110831	0.152636	0.213450
	H304	H	-0.089096	0.140199	0.210439
	H305	H	-0.101425	0.159406	0.199423
	O306	O	0.799262	-0.004415	0.231392
	H307	H	0.784435	0.010102	0.234599
	H308	H	0.801032	0.007377	0.244185
	O309	O	0.533974	0.490077	0.707580
	H310	H	0.531382	0.517226	0.711891
	H311	H	0.547689	0.487341	0.708247
	O312	O	-0.684593	-0.664683	0.711876
	H313	H	-0.649963	-0.648844	0.719872
	H314	H	-0.698667	-0.680577	0.692209
	O315	O	0.671098	0.736143	0.497407
	H316	H	0.662947	0.725387	0.517057
	H317	H	0.665437	0.749067	0.503941
	O318	O	1.000481	1.246117	-0.201506
	H319	H	1.009696	1.232265	-0.208166
	H320	H	1.004340	1.250969	-0.224282
	O321	O	0.104894	0.881984	1.164783
	H322	H	0.102102	0.903100	1.158886
	H323	H	0.088147	0.874651	1.169518
	O324	O	1.072604	0.086681	1.132188
	H325	H	1.081308	0.072930	1.131357
	H326	H	1.092181	0.084306	1.132683
	O327	O	0.516343	0.500802	0.537758
	H328	H	0.531706	0.503465	0.544763
	H329	H	0.512386	0.497190	0.546945
	O330	O	0.478906	0.724459	0.555232
	H331	H	0.480384	0.726223	0.556201
	H332	H	0.470633	0.713694	0.551498
	O333	O	0.387675	0.549006	0.487449
	H334	H	0.396403	0.552801	0.487185
	H335	H	0.399661	0.555234	0.483548
	O336	O	0.319814	0.728972	0.307288
	H337	H	0.313141	0.750911	0.311171
	H338	H	0.319062	0.724777	0.325902
	O339	O	0.534529	0.558850	0.290935
	H340	H	0.514693	0.566103	0.288953
	H341	H	0.508805	0.563707	0.285888
	O342	O	-0.289515	0.718264	-0.679083
	H343	H	-0.311076	0.697322	-0.668824
	H344	H	-0.304744	0.698529	-0.657042
	O345	O	0.397987	0.319580	0.328250
	H346	H	0.400961	0.321907	0.330520
	H347	H	0.395445	0.311131	0.311787
	O348	O	0.304576	0.503813	0.472684
	H349	H	0.301950	0.507950	0.451577
	H350	H	0.312980	0.502798	0.486059
	O351	O	-0.701183	-0.438467	1.285524
	H352	H	-0.731771	-0.434911	1.256938
	H353	H	-0.695488	-0.411354	1.294628
	O354	O	1.065187	-0.050206	0.792346
	H355	H	1.080042	-0.063514	0.776479
	H356	H	1.054865	-0.067686	0.806867
	O357	O	0.332034	0.346985	0.544127
	H358	H	0.311403	0.359746	0.536491
	H359	H	0.328801	0.335794	0.549352
	O360	O	0.610321	0.572216	0.563083
	H361	H	0.599791	0.562732	0.547403
	H362	H	0.615233	0.575648	0.550847
	O363	O	1.239519	0.038235	0.203290
	H364	H	1.227026	0.054720	0.191999
	H365	H	1.261678	0.044919	0.222273
	O366	O	-0.000619	0.031479	1.165125
	H367	H	-0.009503	0.038798	1.179630
	H368	H	-0.003015	0.027822	1.159029
	O369	O	-0.032737	0.109291	0.984273
	H370	H	-0.033379	0.099227	0.978061
	H371	H	-0.048623	0.119228	0.981000
	O372	O	0.028757	0.828405	0.963807
	H373	H	0.040361	0.835409	0.974665
	H374	H	0.021600	0.837483	0.986593
	O375	O	1.213897	0.080390	-0.068843
	H376	H	1.204600	0.069706	-0.052163
	H377	H	1.206449	0.092354	-0.072815
	O378	O	0.499328	0.708487	0.314423
	H379	H	0.491255	0.710826	0.319515
	H380	H	0.494713	0.730447	0.308674
	O381	O	0.241610	0.947209	0.091078
	H382	H	0.230154	0.951705	0.088439
	H383	H	0.235939	0.957764	0.105830
	O384	O	0.379645	0.511425	0.669257
	H385	H	0.369408	0.481074	0.670427
	H386	H	0.371695	0.508340	0.682789
	O387	O	0.721897	0.332409	0.306859
	H388	H	0.713167	0.351367	0.307960
	H389	H	0.731522	0.324481	0.332101
	O390	O	0.030311	0.906153	0.791897
	H391	H	0.035244	0.884771	0.801150
	H392	H	0.021425	0.887709	0.791806
	O393	O	0.798336	0.201140	0.004496
	H394	H	0.780973	0.225091	-0.011729
	H395	H	0.795463	0.195192	-0.024017
	O396	O	0.409599	0.425221	0.576980
	H397	H	0.412796	0.426977	0.582034
	H398	H	0.391213	0.427548	0.568763
	O399	O	0.469591	0.512526	0.293757
	H400	H	0.467072	0.501923	0.283737
	H401	H	0.451154	0.497083	0.286015
	O402	O	1.168023	0.173572	0.832942
	H403	H	1.140578	0.161619	0.827131
	H404	H	1.185879	0.175550	0.822067
	O405	O	1.014333	0.045151	-0.080849
	H406	H	1.028174	0.034268	-0.077237
	H407	H	1.009475	0.039122	-0.076782
	O408	O	0.981540	0.960502	1.189267
	H409	H	0.965737	0.956736	1.191276
	H410	H	0.961523	0.962692	1.186225
	O411	O	0.679240	1.420108	0.430076
	H412	H	0.673424	1.426759	0.425543
	H413	H	0.674749	1.401669	0.422288
	O414	O	0.075043	-0.172261	0.154691
	H415	H	0.052677	-0.180237	0.162446
	H416	H	0.081652	-0.165153	0.147669
	O417	O	0.314721	0.742487	0.473938
	H418	H	0.319972	0.720274	0.495225
	H419	H	0.285970	0.759501	0.475692
	O420	O	0.321110	-0.332169	0.645207
	H421	H	0.318818	-0.351699	0.644069
	H422	H	0.321806	-0.332939	0.661896
	O423	O	1.234185	1.003503	-0.208363
	H424	H	1.262539	1.000982	-0.234903
	H425	H	1.241111	1.000327	-0.183310
	O426	O	0.486381	0.320607	0.724983
	H427	H	0.497637	0.321773	0.731914
	H428	H	0.478376	0.310430	0.733370
	O429	O	0.822767	0.229319	0.812931
	H430	H	0.822870	0.241099	0.791071
	H431	H	0.839679	0.213225	0.801110
	O432	O	1.044532	0.236152	1.218164
	H433	H	1.032011	0.244137	1.210360
	H434	H	1.036959	0.247503	1.213649
	O435	O	0.540122	0.627534	0.710558
	H436	H	0.527174	0.621862	0.714472
	H437	H	0.544018	0.631612	0.713684
	O438	O	0.813839	0.822849	0.218004
	H439	H	0.799354	0.846685	0.235528
	H440	H	0.797247	0.813747	0.242680
	O441	O	0.713582	0.553603	0.724577
	H442	H	0.708179	0.558067	0.720077
	H443	H	0.731357	0.556472	0.734653
	O444	O	0.614954	0.451372	0.508904
	H445	H	0.613231	0.450806	0.509584
	H446	H	0.622770	0.468943	0.498292
	O447	O	-0.132502	0.999446	-0.037568
	H448	H	-0.145794	1.012012	-0.029044
	H449	H	-0.138577	0.995784	-0.032294
	O450	O	0.634031	-0.256746	-0.277064
	H451	H	0.646566	-0.235639	-0.269398
	H452	H	0.638288	-0.244785	-0.278833
	O453	O	0.734753	0.537626	0.371108
	H454	H	0.709894	0.560327	0.375659
	H455	H	0.752858	0.533828	0.330333
	O456	O	-0.244078	0.749186	0.678177
	H457	H	-0.244469	0.742003	0.693508
	H458	H	-0.216009	0.775388	0.683377
	O459	O	0.559266	0.359764	0.323488
	H460	H	0.570089	0.352125	0.332181
	H461	H	0.574430	0.353967	0.316848
	O462	O	0.698290	0.464777	0.463170
	H463	H	0.681813	0.463164	0.455332
	H464	H	0.708403	0.443954	0.467039
	O465	O	0.505166	0.731611	0.604305
	H466	H	0.499547	0.726750	0.594551
	H467	H	0.493161	0.735657	0.619116
	O468	O	-0.177418	0.048861	0.041586
	H469	H	-0.171256	0.060278	0.054487
	H470	H	-0.176239	0.063847	0.039918
	O471	O	0.115254	0.245593	0.045330
	H472	H	0.098886	0.234376	0.050684
	H473	H	0.115946	0.260679	0.041806
	O474	O	1.070341	1.076507	0.031123
	H475	H	1.069295	1.072115	0.023911
	H476	H	1.075719	1.077271	0.020876
	O477	O	0.656682	0.317885	0.520487
	H478	H	0.636860	0.332692	0.520390
	H479	H	0.663490	0.300061	0.524860
