data_Molecule from HDF5

_cell_length_a		16.131394
_cell_length_b		16.286500
_cell_length_c		16.284645
_cell_angle_alpha	89.989311
_cell_angle_beta	90.518806
_cell_angle_gamma	90.103446
_symmetry_space_group_name_H-M	'P 1'
_symmetry_Int_Tables_number		1

loop_
	_symmetry_equiv_pos_as_xyz
	x,y,z

loop_
	_atom_site_label
	_atom_site_type_symbol
	_atom_site_fract_x
	_atom_site_fract_y
	_atom_site_fract_z
	H0	H	0.390273	0.838440	0.712006
	H1	H	0.594927	0.162985	0.713422
	H2	H	0.592204	0.838271	0.279169
	H3	H	0.388041	0.162681	0.274871
	H4	H	0.703156	0.400042	0.833364
	H5	H	0.705214	0.596054	0.160545
	H6	H	0.271666	0.600444	0.835352
	H7	H	0.277416	0.399146	0.160410
	H8	H	0.826276	0.717455	0.394416
	H9	H	0.153133	0.719462	0.600892
	H10	H	0.827747	0.284337	0.595883
	H11	H	0.154186	0.285650	0.396386
	H12	H	0.825301	0.400945	0.709065
	H13	H	0.152647	0.603370	0.715860
	H14	H	0.825931	0.600636	0.281250
	H15	H	0.154245	0.400672	0.282951
	H16	H	0.386888	0.716570	0.834063
	H17	H	0.596981	0.717659	0.158410
	H18	H	0.588563	0.285719	0.832971
	H19	H	0.390744	0.281896	0.158445
	H20	H	0.705831	0.837371	0.396851
	H21	H	0.705402	0.164742	0.592748
	H22	H	0.275046	0.838398	0.594138
	H23	H	0.274496	0.163999	0.391947
	H24	H	0.887225	0.338584	0.215366
	H25	H	0.092115	0.664372	0.214438
	H26	H	0.091611	0.339405	0.778812
	H27	H	0.886767	0.664048	0.780078
	H28	H	0.203284	0.901626	0.332486
	H29	H	0.211507	0.104467	0.656882
	H30	H	0.773982	0.100938	0.332705
	H31	H	0.777863	0.902513	0.658372
	H32	H	0.326198	0.213044	0.894436
	H33	H	0.655054	0.215723	0.097081
	H34	H	0.327727	0.783614	0.094456
	H35	H	0.655648	0.783946	0.896781
	H36	H	0.327044	0.898110	0.208588
	H37	H	0.655249	0.099373	0.211667
	H38	H	0.328607	0.101167	0.776997
	H39	H	0.656725	0.900772	0.783330
	H40	H	0.888901	0.217954	0.333255
	H41	H	0.095517	0.218933	0.657908
	H42	H	0.092644	0.781601	0.335513
	H43	H	0.888193	0.785960	0.657449
	H44	H	0.201827	0.336150	0.900344
	H45	H	0.207970	0.663602	0.098052
	H46	H	0.777711	0.336052	0.094227
	H47	H	0.773107	0.663320	0.898283
	H48	H	0.407972	0.112646	0.578488
	H49	H	0.593689	0.878951	0.596804
	H50	H	0.587666	0.117870	0.405540
	H51	H	0.400314	0.883374	0.395576
	H52	H	0.582283	0.399654	0.114864
	H53	H	0.570413	0.598971	0.881292
	H54	H	0.407093	0.591192	0.111331
	H55	H	0.397330	0.406290	0.880778
	H56	H	0.105061	0.585847	0.408015
	H57	H	0.869055	0.590319	0.598724
	H58	H	0.108091	0.411771	0.590549
	H59	H	0.870672	0.404781	0.401985
	H60	H	0.107859	0.410512	0.590032
	H61	H	0.868896	0.606419	0.585190
	H62	H	0.109752	0.595629	0.401546
	H63	H	0.874581	0.409396	0.410551
	H64	H	0.400724	0.595306	0.113622
	H65	H	0.591136	0.598889	0.875481
	H66	H	0.589566	0.408308	0.114506
	H67	H	0.394320	0.405239	0.878816
	H68	H	0.581008	0.118907	0.396892
	H69	H	0.575385	0.885432	0.595515
	H70	H	0.393847	0.118845	0.585500
	H71	H	0.402594	0.888712	0.406693
	H72	H	0.891188	0.619661	0.090709
	H73	H	0.083240	0.383367	0.092868
	H74	H	0.083930	0.617240	0.909005
	H75	H	0.898045	0.383849	0.900423
	H76	H	0.092868	0.913468	0.613719
	H77	H	0.086479	0.086642	0.380435
	H78	H	0.898810	0.091904	0.611649
	H79	H	0.900848	0.911933	0.380370
	H80	H	0.608467	0.090132	0.903751
	H81	H	0.374701	0.091485	0.081071
	H82	H	0.610695	0.899979	0.086639
	H83	H	0.374278	0.906990	0.904346
	H84	H	0.604989	0.913335	0.081311
	H85	H	0.374636	0.087718	0.086884
	H86	H	0.611507	0.097256	0.902419
	H87	H	0.375450	0.909956	0.903601
	H88	H	0.903116	0.094864	0.612215
	H89	H	0.071933	0.094516	0.382566
	H90	H	0.077783	0.918219	0.607579
	H91	H	0.900768	0.904136	0.377976
	H92	H	0.080785	0.617688	0.903181
	H93	H	0.079091	0.385816	0.092225
	H94	H	0.902529	0.617291	0.095186
	H95	H	0.899272	0.385662	0.903752
	H96	H	0.407446	0.117406	0.594155
	H97	H	0.586381	0.886146	0.579223
	H98	H	0.577568	0.114236	0.406271
	H99	H	0.391128	0.883748	0.404095
	H100	H	0.578507	0.410286	0.110937
	H101	H	0.582384	0.580370	0.883835
	H102	H	0.400047	0.587930	0.111763
	H103	H	0.394251	0.408508	0.879976
	H104	H	0.107092	0.597102	0.413635
	H105	H	0.876379	0.588114	0.579784
	H106	H	0.107967	0.412358	0.588726
	H107	H	0.873922	0.415625	0.401503
	H108	H	0.900458	0.614545	0.084108
	H109	H	0.082565	0.385702	0.088958
	H110	H	0.077690	0.615020	0.908096
	H111	H	0.895813	0.383593	0.903205
	H112	H	0.079049	0.902736	0.613519
	H113	H	0.084470	0.102102	0.376284
	H114	H	0.898858	0.096292	0.613613
	H115	H	0.893908	0.909884	0.376998
	H116	H	0.608622	0.095314	0.908835
	H117	H	0.371897	0.094726	0.086867
	H118	H	0.610148	0.912497	0.095886
	H119	H	0.373368	0.907861	0.900760
	C120	C	0.371791	0.009063	0.615715
	C121	C	0.614920	0.991726	0.619130
	C122	C	0.611743	0.009156	0.374395
	C123	C	0.368525	0.992559	0.371789
	C124	C	0.611356	0.377925	0.005157
	C125	C	0.612294	0.621596	0.987830
	C126	C	0.370515	0.621062	0.005213
	C127	C	0.367487	0.377385	0.987730
	C128	C	-0.001132	0.622651	0.376330
	C129	C	0.980124	0.624382	0.618788
	C130	C	-0.000869	0.380829	0.618006
	C131	C	0.981790	0.380345	0.375462
	C132	C	0.869149	0.508880	0.118589
	C133	C	0.112344	0.492483	0.120571
	C134	C	0.110700	0.509283	0.876468
	C135	C	0.867272	0.492080	0.873909
	C136	C	0.112237	0.880571	0.504519
	C137	C	0.113292	0.124573	0.486514
	C138	C	0.869964	0.123362	0.504674
	C139	C	0.869224	0.879941	0.486350
	C140	C	0.500660	0.122419	0.874174
	C141	C	0.481892	0.121332	0.116182
	C142	C	0.500453	0.878320	0.116735
	C143	C	0.483136	0.878764	0.874473
	C144	C	0.371352	0.887040	0.672857
	C145	C	0.614321	0.114226	0.675082
	C146	C	0.611398	0.886659	0.317891
	C147	C	0.368927	0.114385	0.313894
	C148	C	0.666122	0.379910	0.882225
	C149	C	0.668528	0.618036	0.111200
	C150	C	0.311256	0.620138	0.883425
	C151	C	0.313935	0.378952	0.111149
	C152	C	0.875392	0.679009	0.375559
	C153	C	0.103856	0.681165	0.619995
	C154	C	0.876402	0.323295	0.615701
	C155	C	0.105252	0.324046	0.376978
	C156	C	0.875206	0.381279	0.672333
	C157	C	0.103728	0.623461	0.677111
	C158	C	0.875348	0.621261	0.318810
	C159	C	0.105051	0.381200	0.320290
	C160	C	0.368579	0.677935	0.882947
	C161	C	0.614159	0.678261	0.110028
	C162	C	0.608708	0.323191	0.881887
	C163	C	0.370545	0.320856	0.110111
	C164	C	0.667966	0.886400	0.376546
	C165	C	0.669203	0.115101	0.614993
	C166	C	0.313883	0.887025	0.614192
	C167	C	0.312098	0.114924	0.372122
	C168	C	0.869597	0.386659	0.175478
	C169	C	0.112378	0.615159	0.176683
	C170	C	0.110150	0.387632	0.818468
	C171	C	0.867445	0.615043	0.818423
	C172	C	0.166785	0.881358	0.381657
	C173	C	0.172266	0.123821	0.608537
	C174	C	0.812669	0.121170	0.381601
	C175	C	0.814791	0.882371	0.609444
	C176	C	0.376150	0.176580	0.874521
	C177	C	0.605781	0.177686	0.116457
	C178	C	0.376761	0.821802	0.114575
	C179	C	0.606712	0.822484	0.877077
	C180	C	0.376495	0.879092	0.171120
	C181	C	0.605829	0.119782	0.173437
	C182	C	0.377235	0.120530	0.816430
	C183	C	0.607182	0.880663	0.820451
	C184	C	0.869617	0.179559	0.381995
	C185	C	0.114317	0.180645	0.609213
	C186	C	0.111752	0.821592	0.383181
	C187	C	0.869717	0.824100	0.608971
	C188	C	0.165187	0.385910	0.879014
	C189	C	0.169876	0.614921	0.118596
	C190	C	0.814428	0.385445	0.115505
	C191	C	0.810910	0.614615	0.877062
	C192	C	0.396022	0.094203	0.592495
	C193	C	0.591945	0.905844	0.596994
	C194	C	0.588731	0.094659	0.396410
	C195	C	0.391480	0.907397	0.395309
	C196	C	0.589850	0.399647	0.091087
	C197	C	0.588269	0.599226	0.902263
	C198	C	0.395331	0.598091	0.090276
	C199	C	0.388925	0.400117	0.902229
	C200	C	0.084918	0.599666	0.400817
	C201	C	0.893810	0.601660	0.594758
	C202	C	0.085660	0.404506	0.596172
	C203	C	0.895439	0.403098	0.398179
	C204	C	0.891588	0.594798	0.096438
	C205	C	0.088581	0.407240	0.097888
	C206	C	0.087572	0.594533	0.899918
	C207	C	0.890904	0.406498	0.896029
	C208	C	0.089685	0.904397	0.589469
	C209	C	0.088260	0.101389	0.401620
	C210	C	0.893560	0.100975	0.590394
	C211	C	0.891841	0.902057	0.400664
	C212	C	0.587172	0.100477	0.897967
	C213	C	0.395899	0.098183	0.092123
	C214	C	0.586343	0.901749	0.094567
	C215	C	0.396682	0.901467	0.896336
	Zn216	Zn	0.492699	0.000790	0.747033
	Zn217	Zn	0.490649	-0.000042	0.244289
	Zn218	Zn	0.739658	0.499143	-0.003265
	Zn219	Zn	0.240342	0.500233	-0.001988
	Zn220	Zn	-0.009816	0.751769	0.496910
	Zn221	Zn	-0.008795	0.252517	0.496172
	Zn222	Zn	-0.010932	0.501992	0.746085
	Zn223	Zn	-0.009930	0.501261	0.248600
	Zn224	Zn	0.491421	0.750492	-0.003878
	Zn225	Zn	0.490657	0.249952	-0.004626
	Zn226	Zn	0.741696	0.000800	0.495698
	Zn227	Zn	0.240962	0.002036	0.494622
	N228	N	0.406595	0.963886	0.673965
	N229	N	0.581449	0.036302	0.677889
	N230	N	0.576934	0.964005	0.316264
	N231	N	0.403160	0.037139	0.313506
	N232	N	0.668088	0.413086	0.959902
	N233	N	0.667699	0.583629	0.034086
	N234	N	0.312587	0.585201	0.960282
	N235	N	0.311931	0.413495	0.034132
	N236	N	0.953287	0.680090	0.410781
	N237	N	0.026015	0.682012	0.584606
	N238	N	0.954717	0.322628	0.582959
	N239	N	0.027384	0.323434	0.410693
	N240	N	0.952682	0.416464	0.673599
	N241	N	0.025826	0.589063	0.676602
	N242	N	0.953087	0.586958	0.319233
	N243	N	0.027286	0.415297	0.319417
	N244	N	0.404993	0.678453	0.959546
	N245	N	0.579828	0.680537	0.032394
	N246	N	0.575626	0.321614	0.959395
	N247	N	0.403077	0.319499	0.032347
	N248	N	0.668247	0.963420	0.410892
	N249	N	0.670079	0.037675	0.581177
	N250	N	0.313995	0.964159	0.579445
	N251	N	0.311326	0.038105	0.407174
	N252	N	0.902975	0.464491	0.177417
	N253	N	0.077726	0.538146	0.178311
	N254	N	0.077097	0.465368	0.816652
	N255	N	0.901672	0.537751	0.816202
	N256	N	0.167136	0.917328	0.458078
	N257	N	0.171737	0.089721	0.531295
	N258	N	0.812803	0.086919	0.458744
	N259	N	0.814348	0.916472	0.532186
	N260	N	0.454036	0.177937	0.909688
	N261	N	0.527701	0.178819	0.081661
	N262	N	0.454760	0.821035	0.081601
	N263	N	0.528407	0.821157	0.909840
	N264	N	0.454423	0.913497	0.172766
	N265	N	0.527811	0.085671	0.173485
	N266	N	0.455795	0.087704	0.816051
	N267	N	0.529292	0.914884	0.818576
	N268	N	0.904605	0.180926	0.459410
	N269	N	0.078276	0.181279	0.532376
	N270	N	0.078476	0.820957	0.460539
	N271	N	0.903033	0.822642	0.531551
	N272	N	0.165652	0.462705	0.914534
	N273	N	0.170266	0.537400	0.084659
	N274	N	0.813986	0.462419	0.080778
	N275	N	0.810783	0.537114	0.910910
	O276	O	0.972917	0.076889	1.022088
	H277	H	0.986295	0.081888	1.018302
	H278	H	0.975808	0.079772	1.037261
	O279	O	0.429975	0.514292	0.494719
	H280	H	0.427785	0.506757	0.485654
	H281	H	0.430570	0.518185	0.506471
	O282	O	0.447688	0.429828	0.533861
	H283	H	0.437627	0.415027	0.530213
	H284	H	0.454347	0.431205	0.533639
	O285	O	0.439725	0.642091	0.399060
	H286	H	0.433235	0.645885	0.391204
	H287	H	0.432697	0.629134	0.389068
	O288	O	0.573912	0.608733	0.479275
	H289	H	0.574254	0.607321	0.475786
	H290	H	0.564745	0.614551	0.474921
	O291	O	-0.097668	0.049111	0.953725
	H292	H	-0.101566	0.046711	0.936976
	H293	H	-0.091386	0.055325	0.953950
	O294	O	0.989061	1.078868	-0.012426
	H295	H	0.985786	1.081501	-0.015117
	H296	H	0.993019	1.078203	-0.013022
	O297	O	0.977129	0.925906	0.062626
	H298	H	0.984030	0.930007	0.063451
	H299	H	0.985524	0.924903	0.053008
	O300	O	0.340376	0.520145	0.345059
	H301	H	0.337812	0.522838	0.346571
	H302	H	0.328374	0.510682	0.341013
	O303	O	0.450818	0.496884	0.511071
	H304	H	0.444379	0.506328	0.503615
	H305	H	0.458334	0.498422	0.511530
	O306	O	1.026368	0.891724	0.870474
	H307	H	1.041503	0.887216	0.860105
	H308	H	1.019030	0.881191	0.867163
	O309	O	0.457745	0.493436	0.498563
	H310	H	0.451998	0.481058	0.507924
	H311	H	0.452200	0.509622	0.500146
	O312	O	0.967629	1.086443	0.980439
	H313	H	0.963354	1.096151	0.968206
	H314	H	0.962969	1.082681	0.984106
	O315	O	0.986609	1.012967	0.129478
	H316	H	0.981481	1.024867	0.131876
	H317	H	0.985678	1.010850	0.118250
	O318	O	0.518569	0.511713	0.366816
	H319	H	0.517995	0.513521	0.366772
	H320	H	0.524910	0.511514	0.377161
	O321	O	0.518546	0.519711	0.561078
	H322	H	0.514441	0.517575	0.578444
	H323	H	0.517251	0.529013	0.559383
	O324	O	0.026369	0.942579	1.158714
	H325	H	0.035504	0.945399	1.163524
	H326	H	0.032277	0.960737	1.156378
	O327	O	-0.081098	1.075135	1.014764
	H328	H	-0.085533	1.077308	1.020253
	H329	H	-0.084541	1.076173	1.008424
	O330	O	-0.047161	-0.026844	0.010661
	H331	H	-0.053563	-0.042371	0.021512
	H332	H	-0.052924	-0.014497	0.006465
	O333	O	0.456888	0.525800	0.456783
	H334	H	0.447159	0.525729	0.452993
	H335	H	0.462139	0.519176	0.462337
	O336	O	0.086495	-0.089979	0.004943
	H337	H	0.079211	-0.100098	0.004354
	H338	H	0.086478	-0.082219	0.013570
	O339	O	0.157104	0.003376	-0.041055
	H340	H	0.154714	0.001098	-0.029521
	H341	H	0.163146	0.007786	-0.034766
	O342	O	0.572092	0.455083	0.532107
	H343	H	0.573038	0.473950	0.516736
	H344	H	0.585461	0.466110	0.545453
	O345	O	0.000370	0.887958	1.027392
	H346	H	-0.005319	0.895737	1.025448
	H347	H	-0.010518	0.889181	1.047333
	O348	O	0.563553	0.604439	0.421743
	H349	H	0.568703	0.610070	0.408765
	H350	H	0.556914	0.602515	0.414463
	O351	O	0.403811	0.409106	0.603580
	H352	H	0.397618	0.409386	0.600685
	H353	H	0.398201	0.405949	0.620094
	O354	O	0.412914	0.321908	0.499255
	H355	H	0.412409	0.320540	0.500478
	H356	H	0.411738	0.315624	0.495542
	O357	O	0.487163	0.572054	0.461824
	H358	H	0.492525	0.582998	0.462961
	H359	H	0.482864	0.560252	0.471108
	O360	O	1.028903	0.108465	0.893375
	H361	H	1.019800	0.105088	0.888928
	H362	H	1.016479	0.102717	0.883171
	O363	O	0.545955	0.562163	0.603178
	H364	H	0.550150	0.569231	0.597800
	H365	H	0.526386	0.560274	0.611641
	O366	O	0.461492	0.623156	0.471295
	H367	H	0.461680	0.615876	0.471764
	H368	H	0.454842	0.626758	0.456091
	O369	O	0.997805	0.041662	-0.117385
	H370	H	0.996040	0.042052	-0.110176
	H371	H	1.003274	0.034968	-0.107774
	O372	O	0.544191	0.379360	0.522845
	H373	H	0.553871	0.382226	0.515933
	H374	H	0.547203	0.397960	0.528712
	O375	O	0.963303	0.131590	0.976542
	H376	H	0.958968	0.137728	0.974354
	H377	H	0.972670	0.128058	0.971540
	O378	O	-0.026139	1.066515	-0.014509
	H379	H	-0.028630	1.067196	-0.023343
	H380	H	-0.033505	1.071348	-0.019766
	O381	O	0.490963	0.415621	0.604415
	H382	H	0.489159	0.416999	0.605280
	H383	H	0.492030	0.415399	0.611439
	O384	O	1.040370	1.029870	0.027657
	H385	H	1.036542	1.029471	0.033461
	H386	H	1.037425	1.025793	0.025955
	O387	O	1.052422	-0.122455	0.889043
	H388	H	1.049674	-0.129417	0.892035
	H389	H	1.045644	-0.116202	0.887467
	O390	O	0.951456	0.962865	-0.140235
	H391	H	0.951586	0.962192	-0.139303
	H392	H	0.957264	0.971058	-0.143001
	O393	O	0.479914	0.523095	0.554871
	H394	H	0.488738	0.528689	0.547872
	H395	H	0.481437	0.522232	0.561300
