data_Molecule from HDF5

_cell_length_a		16.195142
_cell_length_b		16.334786
_cell_length_c		16.216212
_cell_angle_alpha	89.974395
_cell_angle_beta	90.038302
_cell_angle_gamma	90.065186
_symmetry_space_group_name_H-M	'P 1'
_symmetry_Int_Tables_number		1

loop_
	_symmetry_equiv_pos_as_xyz
	x,y,z

loop_
	_atom_site_label
	_atom_site_type_symbol
	_atom_site_fract_x
	_atom_site_fract_y
	_atom_site_fract_z
	H0	H	0.396865	0.831848	0.715566
	H1	H	0.594452	0.158443	0.715017
	H2	H	0.594869	0.831199	0.286040
	H3	H	0.397193	0.158965	0.285157
	H4	H	0.707793	0.398768	0.834490
	H5	H	0.711375	0.592528	0.164068
	H6	H	0.284066	0.590073	0.835218
	H7	H	0.282929	0.395902	0.164748
	H8	H	0.830999	0.709117	0.400230
	H9	H	0.159659	0.710141	0.598826
	H10	H	0.831790	0.279645	0.600130
	H11	H	0.159290	0.281130	0.400902
	H12	H	0.830329	0.399294	0.711581
	H13	H	0.160278	0.592614	0.712460
	H14	H	0.831646	0.592449	0.286807
	H15	H	0.161007	0.398105	0.287921
	H16	H	0.396986	0.709268	0.835935
	H17	H	0.596750	0.709326	0.164131
	H18	H	0.596265	0.279082	0.836283
	H19	H	0.397806	0.279909	0.164316
	H20	H	0.709858	0.832055	0.402512
	H21	H	0.708901	0.159106	0.597171
	H22	H	0.280337	0.832545	0.599447
	H23	H	0.282153	0.159173	0.402378
	H24	H	0.896103	0.332365	0.215675
	H25	H	0.095292	0.658844	0.215018
	H26	H	0.095331	0.331593	0.784176
	H27	H	0.898943	0.658549	0.787612
	H28	H	0.208214	0.899561	0.334814
	H29	H	0.209422	0.092503	0.664894
	H30	H	0.782108	0.092697	0.335179
	H31	H	0.784501	0.899675	0.665040
	H32	H	0.331810	0.209244	0.901240
	H33	H	0.660608	0.208838	0.100008
	H34	H	0.332310	0.778782	0.100954
	H35	H	0.660624	0.781459	0.902558
	H36	H	0.330767	0.898116	0.212612
	H37	H	0.660783	0.091321	0.212786
	H38	H	0.331188	0.092092	0.787210
	H39	H	0.661301	0.897862	0.788331
	H40	H	0.897063	0.209732	0.335872
	H41	H	0.095695	0.210688	0.664126
	H42	H	0.094651	0.780712	0.335889
	H43	H	0.896325	0.780721	0.663387
	H44	H	0.209203	0.330703	0.902676
	H45	H	0.210923	0.658570	0.097498
	H46	H	0.781904	0.331617	0.097839
	H47	H	0.781959	0.657978	0.901255
	H48	H	0.402093	0.111433	0.593908
	H49	H	0.586029	0.882142	0.586705
	H50	H	0.585448	0.109863	0.409871
	H51	H	0.407021	0.880587	0.406326
	H52	H	0.583349	0.401239	0.115453
	H53	H	0.591026	0.587560	0.882292
	H54	H	0.409078	0.593155	0.117442
	H55	H	0.399591	0.396370	0.880233
	H56	H	0.115638	0.600114	0.409501
	H57	H	0.873902	0.591302	0.604538
	H58	H	0.110400	0.411408	0.591584
	H59	H	0.877858	0.395925	0.412445
	H60	H	0.116952	0.398753	0.600310
	H61	H	0.877280	0.599035	0.586486
	H62	H	0.109322	0.584431	0.417444
	H63	H	0.881206	0.408997	0.411806
	H64	H	0.398179	0.588045	0.118851
	H65	H	0.586678	0.588723	0.883415
	H66	H	0.591029	0.396247	0.119726
	H67	H	0.401376	0.406818	0.884072
	H68	H	0.593848	0.112615	0.406924
	H69	H	0.598892	0.875507	0.594971
	H70	H	0.403746	0.112533	0.594766
	H71	H	0.400555	0.880056	0.410404
	H72	H	0.906985	0.609156	0.091740
	H73	H	0.093238	0.378868	0.091357
	H74	H	0.092208	0.612038	0.905669
	H75	H	0.910293	0.380120	0.906067
	H76	H	0.092221	0.912749	0.614917
	H77	H	0.087176	0.085315	0.384023
	H78	H	0.914331	0.082259	0.611859
	H79	H	0.901089	0.899772	0.381069
	H80	H	0.610339	0.083077	0.913118
	H81	H	0.380346	0.083329	0.089457
	H82	H	0.614650	0.904052	0.098911
	H83	H	0.376682	0.892911	0.911519
	H84	H	0.615750	0.896110	0.093650
	H85	H	0.376655	0.088450	0.099233
	H86	H	0.615591	0.086793	0.901089
	H87	H	0.382732	0.907764	0.914742
	H88	H	0.903947	0.101933	0.620551
	H89	H	0.085802	0.092918	0.382739
	H90	H	0.076811	0.898866	0.614888
	H91	H	0.901217	0.903199	0.382302
	H92	H	0.088116	0.610296	0.905275
	H93	H	0.090201	0.376982	0.099312
	H94	H	0.899798	0.612147	0.090854
	H95	H	0.898151	0.378352	0.912624
	H96	H	0.404206	0.111466	0.593449
	H97	H	0.583662	0.878477	0.602937
	H98	H	0.587191	0.112185	0.401479
	H99	H	0.400261	0.877122	0.402937
	H100	H	0.592285	0.405916	0.116395
	H101	H	0.589226	0.591265	0.881834
	H102	H	0.407128	0.581383	0.115026
	H103	H	0.409894	0.399228	0.884667
	H104	H	0.114367	0.584727	0.399425
	H105	H	0.881032	0.579629	0.590019
	H106	H	0.112097	0.396605	0.584509
	H107	H	0.876329	0.402550	0.400191
	H108	H	0.903101	0.612504	0.097604
	H109	H	0.084716	0.380404	0.093382
	H110	H	0.090683	0.610210	0.908634
	H111	H	0.899523	0.375089	0.899352
	H112	H	0.096119	0.893833	0.622182
	H113	H	0.092372	0.089963	0.381835
	H114	H	0.891182	0.081933	0.619312
	H115	H	0.904228	0.901411	0.382438
	H116	H	0.614814	0.095566	0.911316
	H117	H	0.377849	0.094588	0.090387
	H118	H	0.611649	0.903762	0.089294
	H119	H	0.376613	0.903879	0.899547
	C120	C	0.374509	0.003740	0.622378
	C121	C	0.617420	0.986690	0.622628
	C122	C	0.617303	0.003511	0.378037
	C123	C	0.374145	0.987433	0.378142
	C124	C	0.617788	0.372914	0.008412
	C125	C	0.617713	0.616737	0.991353
	C126	C	0.375834	0.615877	0.008502
	C127	C	0.374819	0.372726	0.991539
	C128	C	0.004455	0.617454	0.379101
	C129	C	0.986602	0.617828	0.621435
	C130	C	0.004391	0.374117	0.621037
	C131	C	0.987169	0.374159	0.379095
	C132	C	0.874687	0.503302	0.121705
	C133	C	0.118445	0.486785	0.122751
	C134	C	0.118064	0.502850	0.878117
	C135	C	0.874424	0.486212	0.877980
	C136	C	0.116978	0.873956	0.508471
	C137	C	0.117294	0.117525	0.491719
	C138	C	0.874014	0.117209	0.508509
	C139	C	0.874080	0.873819	0.490690
	C140	C	0.504677	0.116235	0.879580
	C141	C	0.487603	0.116433	0.121622
	C142	C	0.504896	0.873073	0.122342
	C143	C	0.487595	0.873347	0.879431
	C144	C	0.376575	0.880748	0.677565
	C145	C	0.614888	0.109949	0.677063
	C146	C	0.614628	0.880193	0.323869
	C147	C	0.376695	0.110230	0.323236
	C148	C	0.671346	0.377063	0.884127
	C149	C	0.673244	0.613193	0.115218
	C150	C	0.320998	0.612083	0.884388
	C151	C	0.320403	0.375521	0.115503
	C152	C	0.880261	0.671655	0.380595
	C153	C	0.110555	0.672437	0.619146
	C154	C	0.880620	0.318512	0.619525
	C155	C	0.110582	0.318916	0.380781
	C156	C	0.879927	0.377522	0.675218
	C157	C	0.111014	0.613887	0.675443
	C158	C	0.880596	0.613730	0.324229
	C159	C	0.111410	0.377326	0.324838
	C160	C	0.377317	0.671062	0.884819
	C161	C	0.616674	0.671452	0.115212
	C162	C	0.615899	0.317593	0.884984
	C163	C	0.377368	0.317724	0.115444
	C164	C	0.671732	0.880478	0.381990
	C165	C	0.671938	0.110089	0.618783
	C166	C	0.318916	0.880886	0.619569
	C167	C	0.319543	0.110398	0.381475
	C168	C	0.876572	0.380845	0.177214
	C169	C	0.115805	0.609860	0.177244
	C170	C	0.115594	0.380083	0.822402
	C171	C	0.877879	0.609618	0.824577
	C172	C	0.170948	0.878209	0.384147
	C173	C	0.171782	0.113476	0.615676
	C174	C	0.819489	0.113624	0.384589
	C175	C	0.820528	0.877680	0.615299
	C176	C	0.380739	0.171236	0.881076
	C177	C	0.611463	0.170945	0.119755
	C178	C	0.381093	0.817370	0.120322
	C179	C	0.611523	0.818882	0.881887
	C180	C	0.380367	0.876480	0.175972
	C181	C	0.611674	0.112387	0.175670
	C182	C	0.380539	0.113381	0.824267
	C183	C	0.611953	0.876839	0.825480
	C184	C	0.876453	0.172056	0.384798
	C185	C	0.115675	0.172533	0.615249
	C186	C	0.114677	0.819172	0.384681
	C187	C	0.876315	0.818968	0.614608
	C188	C	0.172062	0.379692	0.881471
	C189	C	0.173591	0.609686	0.119262
	C190	C	0.819812	0.380362	0.118607
	C191	C	0.819785	0.609179	0.881211
	C192	C	0.396790	0.089609	0.600411
	C193	C	0.595879	0.900942	0.601192
	C194	C	0.595363	0.089519	0.399570
	C195	C	0.396104	0.901483	0.400184
	C196	C	0.595600	0.394789	0.094835
	C197	C	0.595567	0.595430	0.904927
	C198	C	0.398245	0.593975	0.094778
	C199	C	0.397035	0.394385	0.905356
	C200	C	0.090864	0.595903	0.401803
	C201	C	0.899835	0.596327	0.600023
	C202	C	0.090819	0.395962	0.598735
	C203	C	0.900714	0.396095	0.401494
	C204	C	0.896822	0.589181	0.099812
	C205	C	0.096076	0.400965	0.101080
	C206	C	0.096654	0.588634	0.899986
	C207	C	0.896144	0.400111	0.899724
	C208	C	0.094955	0.895415	0.594984
	C209	C	0.095074	0.095885	0.404966
	C210	C	0.896471	0.095245	0.595104
	C211	C	0.895757	0.895101	0.404280
	C212	C	0.591107	0.094877	0.902018
	C213	C	0.400480	0.095115	0.099455
	C214	C	0.591663	0.894859	0.100404
	C215	C	0.401105	0.895264	0.901797
	Zn216	Zn	0.496152	-0.005106	0.751853
	Zn217	Zn	0.495614	-0.004914	0.249367
	Zn218	Zn	0.745597	0.494773	-0.000354
	Zn219	Zn	0.247128	0.494408	0.000304
	Zn220	Zn	-0.004828	0.745566	0.499503
	Zn221	Zn	-0.004352	0.245740	0.500069
	Zn222	Zn	-0.004149	0.495114	0.749213
	Zn223	Zn	-0.003922	0.495542	0.251602
	Zn224	Zn	0.496560	0.745357	0.000518
	Zn225	Zn	0.496255	0.244757	0.000260
	Zn226	Zn	0.745783	-0.004912	0.500179
	Zn227	Zn	0.245331	-0.004490	0.500298
	N228	N	0.410492	0.958090	0.679355
	N229	N	0.581752	0.032355	0.679650
	N230	N	0.581584	0.957808	0.321255
	N231	N	0.409777	0.032601	0.321033
	N232	N	0.672225	0.411050	0.961787
	N233	N	0.673886	0.579658	0.037289
	N234	N	0.319852	0.578511	0.962231
	N235	N	0.318841	0.409025	0.037671
	N236	N	0.958495	0.674060	0.413982
	N237	N	0.032342	0.674897	0.586399
	N238	N	0.958870	0.316261	0.586643
	N239	N	0.032315	0.316760	0.413724
	N240	N	0.957865	0.411393	0.676413
	N241	N	0.032870	0.580514	0.677074
	N242	N	0.958557	0.580630	0.323185
	N243	N	0.033588	0.411142	0.323809
	N244	N	0.410611	0.673545	0.962943
	N245	N	0.582861	0.673806	0.037359
	N246	N	0.583135	0.314917	0.963314
	N247	N	0.410878	0.315989	0.037430
	N248	N	0.673371	0.958034	0.414988
	N249	N	0.673530	0.032608	0.585449
	N250	N	0.317387	0.958375	0.586189
	N251	N	0.318061	0.032997	0.415023
	N252	N	0.910045	0.458397	0.179226
	N253	N	0.082161	0.532420	0.179474
	N254	N	0.082724	0.457743	0.820246
	N255	N	0.910932	0.532087	0.822298
	N256	N	0.172526	0.911476	0.462189
	N257	N	0.172950	0.080283	0.537688
	N258	N	0.817876	0.080415	0.462654
	N259	N	0.818968	0.911243	0.537422
	N260	N	0.458820	0.173165	0.914842
	N261	N	0.533103	0.173702	0.086756
	N262	N	0.459669	0.814973	0.087759
	N263	N	0.533301	0.816753	0.915064
	N264	N	0.458219	0.910354	0.177086
	N265	N	0.533538	0.079170	0.176626
	N266	N	0.458563	0.079940	0.823366
	N267	N	0.533833	0.909983	0.823838
	N268	N	0.909594	0.174306	0.462943
	N269	N	0.082208	0.174933	0.537184
	N270	N	0.081830	0.816669	0.462873
	N271	N	0.908663	0.816196	0.536155
	N272	N	0.173805	0.456945	0.915318
	N273	N	0.175247	0.532247	0.086097
	N274	N	0.818559	0.457555	0.084720
	N275	N	0.817513	0.531350	0.913804
	O276	O	0.448907	0.532827	0.485825
	H277	H	0.442666	0.527751	0.483172
	H278	H	0.444570	0.531881	0.496393
	O279	O	0.449587	0.514086	0.438163
	H280	H	0.440511	0.515536	0.427883
	H281	H	0.443191	0.515202	0.440692
	O282	O	0.478207	0.515130	0.495923
	H283	H	0.492296	0.512421	0.491989
	H284	H	0.481820	0.511528	0.484757
	O285	O	0.491564	0.493236	0.471263
	H286	H	0.486675	0.485179	0.481943
	H287	H	0.500337	0.495041	0.466944
	O288	O	0.429434	0.519324	0.445569
	H289	H	0.436519	0.522158	0.444027
	H290	H	0.420477	0.523038	0.455263
	O291	O	0.048164	0.949324	0.985057
	H292	H	0.053834	0.947730	0.986013
	H293	H	0.050768	0.947440	0.982604
	O294	O	0.461995	0.478862	0.478393
	H295	H	0.465354	0.480217	0.480044
	H296	H	0.456165	0.483024	0.472502
	O297	O	1.462928	0.544332	0.463009
	H298	H	1.462806	0.543560	0.461895
	H299	H	1.468428	0.547558	0.466884
