data_Molecule from HDF5

_cell_length_a		16.238650
_cell_length_b		16.366254
_cell_length_c		15.927208
_cell_angle_alpha	90.465842
_cell_angle_beta	89.390071
_cell_angle_gamma	89.712651
_symmetry_space_group_name_H-M	'P 1'
_symmetry_Int_Tables_number		1

loop_
	_symmetry_equiv_pos_as_xyz
	x,y,z

loop_
	_atom_site_label
	_atom_site_type_symbol
	_atom_site_fract_x
	_atom_site_fract_y
	_atom_site_fract_z
	H0	H	0.398281	0.833017	0.708858
	H1	H	0.589753	0.161749	0.711835
	H2	H	0.593595	0.832358	0.282585
	H3	H	0.402694	0.162741	0.288137
	H4	H	0.712300	0.396192	0.830259
	H5	H	0.706980	0.596152	0.164438
	H6	H	0.286514	0.594224	0.829669
	H7	H	0.282671	0.397796	0.162053
	H8	H	0.833208	0.715699	0.399190
	H9	H	0.158677	0.717998	0.600891
	H10	H	0.834286	0.283951	0.601890
	H11	H	0.158674	0.278437	0.390739
	H12	H	0.830960	0.406357	0.708899
	H13	H	0.162303	0.595009	0.707835
	H14	H	0.830672	0.593514	0.289300
	H15	H	0.161474	0.401122	0.285010
	H16	H	0.396575	0.710927	0.831065
	H17	H	0.593765	0.711910	0.163534
	H18	H	0.602390	0.279027	0.830922
	H19	H	0.397069	0.287158	0.163511
	H20	H	0.715924	0.834946	0.392500
	H21	H	0.710450	0.160532	0.597994
	H22	H	0.275857	0.836592	0.599993
	H23	H	0.281245	0.161909	0.399416
	H24	H	0.902189	0.331751	0.209122
	H25	H	0.091718	0.661327	0.211014
	H26	H	0.095855	0.334271	0.779173
	H27	H	0.902248	0.663015	0.790103
	H28	H	0.208478	0.900949	0.330765
	H29	H	0.206953	0.101902	0.663843
	H30	H	0.786057	0.093660	0.328619
	H31	H	0.781477	0.901648	0.663624
	H32	H	0.334122	0.215441	0.896803
	H33	H	0.660821	0.212055	0.096432
	H34	H	0.333080	0.781264	0.102962
	H35	H	0.659537	0.779774	0.893347
	H36	H	0.330056	0.906208	0.208747
	H37	H	0.663786	0.089814	0.206167
	H38	H	0.329875	0.091605	0.790713
	H39	H	0.660981	0.900418	0.783916
	H40	H	0.895613	0.213078	0.330693
	H41	H	0.092444	0.213806	0.663186
	H42	H	0.100075	0.781775	0.333018
	H43	H	0.893804	0.788096	0.663977
	H44	H	0.214903	0.334688	0.892587
	H45	H	0.212832	0.659021	0.097914
	H46	H	0.780023	0.333479	0.097798
	H47	H	0.779275	0.658443	0.898386
	H48	H	0.408125	0.114100	0.599377
	H49	H	0.580126	0.880983	0.597339
	H50	H	0.583923	0.109953	0.409571
	H51	H	0.397519	0.878532	0.397232
	H52	H	0.586297	0.405721	0.115917
	H53	H	0.598360	0.590216	0.873986
	H54	H	0.401058	0.587761	0.116613
	H55	H	0.405696	0.412168	0.877888
	H56	H	0.113767	0.593366	0.407873
	H57	H	0.875459	0.598185	0.599556
	H58	H	0.113636	0.405233	0.585918
	H59	H	0.875781	0.398686	0.404238
	H60	H	0.114702	0.403685	0.586114
	H61	H	0.878689	0.600162	0.587702
	H62	H	0.112894	0.589581	0.406767
	H63	H	0.879472	0.404465	0.410216
	H64	H	0.407620	0.589003	0.115207
	H65	H	0.588066	0.580843	0.880480
	H66	H	0.587938	0.402075	0.117745
	H67	H	0.415751	0.399243	0.876787
	H68	H	0.601853	0.115328	0.408685
	H69	H	0.589985	0.885598	0.573679
	H70	H	0.400588	0.111418	0.582697
	H71	H	0.409002	0.883721	0.405533
	H72	H	0.899835	0.612878	0.093061
	H73	H	0.097816	0.379359	0.086780
	H74	H	0.091210	0.615163	0.901222
	H75	H	0.903356	0.377434	0.894108
	H76	H	0.081793	0.910638	0.615768
	H77	H	0.090079	0.086108	0.378136
	H78	H	0.908163	0.089571	0.614002
	H79	H	0.902200	0.904317	0.375469
	H80	H	0.615942	0.089738	0.899604
	H81	H	0.377068	0.092085	0.102414
	H82	H	0.614159	0.898216	0.085886
	H83	H	0.377495	0.902257	0.907490
	H84	H	0.613218	0.904599	0.086421
	H85	H	0.377205	0.104882	0.089919
	H86	H	0.615283	0.094694	0.905940
	H87	H	0.377949	0.901704	0.904608
	H88	H	0.901998	0.101070	0.618641
	H89	H	0.085831	0.090826	0.377883
	H90	H	0.086083	0.903873	0.620701
	H91	H	0.907887	0.909482	0.378915
	H92	H	0.091429	0.612865	0.906594
	H93	H	0.089309	0.379751	0.094548
	H94	H	0.899365	0.613385	0.091785
	H95	H	0.911858	0.382973	0.905758
	H96	H	0.390353	0.118170	0.597523
	H97	H	0.604201	0.876142	0.592624
	H98	H	0.591761	0.116597	0.393591
	H99	H	0.396355	0.881717	0.411422
	H100	H	0.589261	0.405141	0.117774
	H101	H	0.583421	0.594059	0.877256
	H102	H	0.403695	0.594335	0.117667
	H103	H	0.399973	0.397643	0.871900
	H104	H	0.115410	0.591814	0.403645
	H105	H	0.880430	0.589947	0.592990
	H106	H	0.114489	0.403670	0.584160
	H107	H	0.877687	0.406765	0.401515
	H108	H	0.898462	0.613623	0.092978
	H109	H	0.087175	0.383150	0.083224
	H110	H	0.096771	0.614671	0.904650
	H111	H	0.896497	0.379294	0.907392
	H112	H	0.089823	0.910687	0.618358
	H113	H	0.090993	0.092049	0.375542
	H114	H	0.895079	0.089799	0.617776
	H115	H	0.910512	0.902077	0.376877
	H116	H	0.612003	0.087225	0.907176
	H117	H	0.383454	0.088862	0.085295
	H118	H	0.615280	0.901602	0.090980
	H119	H	0.377171	0.899568	0.905369
	C120	C	0.371541	0.006388	0.621149
	C121	C	0.618215	0.989180	0.618093
	C122	C	0.620370	0.005882	0.374121
	C123	C	0.374163	0.989598	0.376497
	C124	C	0.618222	0.375225	0.006160
	C125	C	0.617000	0.617452	0.987965
	C126	C	0.375635	0.618279	0.006226
	C127	C	0.377034	0.375460	0.986341
	C128	C	0.005217	0.620045	0.377412
	C129	C	0.987193	0.623164	0.620810
	C130	C	0.005424	0.377991	0.616759
	C131	C	0.986629	0.374616	0.375229
	C132	C	0.872576	0.505124	0.120840
	C133	C	0.119106	0.488396	0.117964
	C134	C	0.121113	0.506244	0.873515
	C135	C	0.875799	0.488490	0.876115
	C136	C	0.116547	0.878533	0.507788
	C137	C	0.116201	0.119727	0.487824
	C138	C	0.874369	0.120357	0.505835
	C139	C	0.876159	0.878207	0.487529
	C140	C	0.505408	0.118777	0.876661
	C141	C	0.488509	0.121100	0.119852
	C142	C	0.504986	0.875155	0.118386
	C143	C	0.486583	0.873738	0.875633
	C144	C	0.376183	0.882824	0.673443
	C145	C	0.612356	0.112587	0.674048
	C146	C	0.615819	0.881839	0.319389
	C147	C	0.379897	0.113384	0.323637
	C148	C	0.674831	0.376371	0.880255
	C149	C	0.670291	0.616226	0.114110
	C150	C	0.322675	0.614675	0.879987
	C151	C	0.320466	0.378101	0.112160
	C152	C	0.882009	0.676563	0.379450
	C153	C	0.110098	0.679001	0.619794
	C154	C	0.882536	0.322994	0.619184
	C155	C	0.109998	0.318013	0.373712
	C156	C	0.880921	0.383746	0.672635
	C157	C	0.112097	0.617758	0.672993
	C158	C	0.880788	0.615729	0.324591
	C159	C	0.111485	0.378577	0.320462
	C160	C	0.377474	0.673014	0.880744
	C161	C	0.614123	0.673941	0.113528
	C162	C	0.619954	0.318142	0.880721
	C163	C	0.377589	0.322992	0.112801
	C164	C	0.676559	0.883158	0.374100
	C165	C	0.672340	0.111958	0.617306
	C166	C	0.315229	0.884610	0.618953
	C167	C	0.319722	0.113070	0.379448
	C168	C	0.878785	0.381268	0.173503
	C169	C	0.114177	0.611893	0.173683
	C170	C	0.117466	0.383331	0.816842
	C171	C	0.880238	0.612969	0.825135
	C172	C	0.172079	0.879992	0.381279
	C173	C	0.169688	0.119695	0.613679
	C174	C	0.821652	0.115831	0.379277
	C175	C	0.819238	0.881265	0.613601
	C176	C	0.382309	0.175610	0.878447
	C177	C	0.612146	0.174229	0.116909
	C178	C	0.381718	0.820420	0.120040
	C179	C	0.610469	0.818106	0.874832
	C180	C	0.380178	0.882315	0.172924
	C181	C	0.613535	0.113503	0.171272
	C182	C	0.380175	0.114084	0.825294
	C183	C	0.611372	0.878138	0.820243
	C184	C	0.876281	0.174917	0.380376
	C185	C	0.112636	0.175748	0.613524
	C186	C	0.117832	0.821081	0.382412
	C187	C	0.875218	0.824956	0.613988
	C188	C	0.176813	0.383671	0.873302
	C189	C	0.174416	0.610788	0.117281
	C190	C	0.818272	0.382173	0.117982
	C191	C	0.818918	0.610722	0.879080
	C192	C	0.393314	0.092445	0.599598
	C193	C	0.597422	0.903128	0.594881
	C194	C	0.598747	0.091602	0.397176
	C195	C	0.394956	0.903593	0.398342
	C196	C	0.594812	0.397772	0.094218
	C197	C	0.596184	0.595039	0.899913
	C198	C	0.397644	0.596741	0.093808
	C199	C	0.400312	0.396680	0.898298
	C200	C	0.091797	0.598045	0.399623
	C201	C	0.900749	0.602208	0.599739
	C202	C	0.091856	0.398460	0.592690
	C203	C	0.899995	0.396697	0.398530
	C204	C	0.893282	0.591015	0.099171
	C205	C	0.097817	0.402842	0.094799
	C206	C	0.099383	0.592064	0.897235
	C207	C	0.897662	0.402111	0.896408
	C208	C	0.092913	0.901449	0.595432
	C209	C	0.095170	0.096590	0.399872
	C210	C	0.895385	0.099532	0.593967
	C211	C	0.899960	0.899068	0.399782
	C212	C	0.591885	0.097006	0.897773
	C213	C	0.401699	0.101189	0.098837
	C214	C	0.591621	0.895362	0.094770
	C215	C	0.400144	0.894859	0.898870
	Zn216	Zn	0.495311	-0.003031	0.748541
	Zn217	Zn	0.496949	-0.002732	0.246909
	Zn218	Zn	0.745104	0.495945	-0.002838
	Zn219	Zn	0.250255	0.496461	-0.003857
	Zn220	Zn	-0.003846	0.751165	0.498510
	Zn221	Zn	-0.003840	0.247609	0.496850
	Zn222	Zn	-0.002665	0.498639	0.745945
	Zn223	Zn	-0.003582	0.497139	0.248994
	Zn224	Zn	0.496053	0.745502	-0.002693
	Zn225	Zn	0.497246	0.249110	-0.002811
	Zn226	Zn	0.749454	-0.002433	0.496121
	Zn227	Zn	0.243313	-0.001050	0.498085
	N228	N	0.410569	0.959633	0.674903
	N229	N	0.579481	0.035042	0.674690
	N230	N	0.581590	0.959022	0.319085
	N231	N	0.413093	0.035734	0.321658
	N232	N	0.673794	0.411297	0.959243
	N233	N	0.672201	0.581789	0.035043
	N234	N	0.321490	0.581201	0.959028
	N235	N	0.319938	0.410220	0.032538
	N236	N	0.960515	0.679448	0.411486
	N237	N	0.031406	0.682674	0.588252
	N238	N	0.960982	0.319287	0.585243
	N239	N	0.031288	0.315309	0.407064
	N240	N	0.958484	0.417357	0.671288
	N241	N	0.034664	0.583914	0.674054
	N242	N	0.958360	0.581307	0.323383
	N243	N	0.033761	0.413036	0.321221
	N244	N	0.409703	0.675456	0.960382
	N245	N	0.581372	0.674741	0.034046
	N246	N	0.585477	0.317122	0.960082
	N247	N	0.412185	0.321157	0.033569
	N248	N	0.679438	0.961151	0.407446
	N249	N	0.676087	0.034252	0.583366
	N250	N	0.312172	0.962744	0.587404
	N251	N	0.316123	0.035134	0.411578
	N252	N	0.911913	0.458666	0.175521
	N253	N	0.080311	0.534864	0.174150
	N254	N	0.083809	0.460584	0.816606
	N255	N	0.914747	0.536061	0.822965
	N256	N	0.171557	0.915045	0.460178
	N257	N	0.171803	0.085304	0.534542
	N258	N	0.820201	0.082676	0.458412
	N259	N	0.819901	0.913724	0.534010
	N260	N	0.461107	0.178588	0.909751
	N261	N	0.533471	0.179044	0.085809
	N262	N	0.460376	0.815952	0.086845
	N263	N	0.532032	0.815045	0.908490
	N264	N	0.457992	0.915415	0.172239
	N265	N	0.535395	0.081454	0.173725
	N266	N	0.457492	0.079152	0.824160
	N267	N	0.533422	0.912123	0.820392
	N268	N	0.908258	0.178086	0.460059
	N269	N	0.080128	0.176060	0.533934
	N270	N	0.084203	0.819973	0.462143
	N271	N	0.909900	0.822596	0.534761
	N272	N	0.179254	0.461124	0.907685
	N273	N	0.177410	0.533156	0.083280
	N274	N	0.814251	0.460175	0.086073
	N275	N	0.816148	0.532276	0.909907
	O276	O	0.023492	-0.082968	0.049487
	H277	H	0.030890	-0.091911	0.062350
	H278	H	0.022246	-0.101361	0.048956
	O279	O	0.390447	0.421571	0.577499
	H280	H	0.390315	0.424538	0.581364
	H281	H	0.378007	0.424810	0.586832
	O282	O	0.528311	0.514619	0.356337
	H283	H	0.527269	0.505112	0.359210
	H284	H	0.530300	0.508768	0.353040
	O285	O	0.042521	1.048318	1.020851
	H286	H	0.044830	1.045502	1.022228
	H287	H	0.046203	1.048770	1.026825
	O288	O	0.537089	0.349781	0.510973
	H289	H	0.558690	0.354346	0.506569
	H290	H	0.538937	0.344380	0.501222
	O291	O	1.003752	0.941133	0.972392
	H292	H	1.008404	0.938732	0.980045
	H293	H	1.010606	0.953583	0.976391
	O294	O	0.963445	0.995851	0.935601
	H295	H	0.959087	0.991317	0.935804
	H296	H	0.965260	0.997999	0.924614
	O297	O	0.998862	-0.012320	0.922855
	H298	H	1.007528	-0.001438	0.903941
	H299	H	0.995916	-0.015622	0.926088
	O300	O	0.550398	0.471187	0.396608
	H301	H	0.549919	0.451533	0.387627
	H302	H	0.555571	0.472648	0.388781
	O303	O	1.005420	-0.023493	0.009752
	H304	H	0.997772	-0.031733	-0.000781
	H305	H	1.007639	-0.022454	0.021338
	O306	O	-0.010884	0.970418	1.073598
	H307	H	-0.007326	0.968125	1.074447
	H308	H	-0.009464	0.974924	1.071762
	O309	O	0.444825	0.503579	0.388203
	H310	H	0.422565	0.502822	0.388864
	H311	H	0.454399	0.494836	0.385351
	O312	O	1.410006	0.612240	0.403212
	H313	H	1.412466	0.617921	0.397709
	H314	H	1.425331	0.619436	0.414700
	O315	O	0.481712	0.550324	0.430477
	H316	H	0.460824	0.548985	0.415126
	H317	H	0.476176	0.557908	0.442893
	O318	O	0.492894	0.461093	0.570342
	H319	H	0.497257	0.470141	0.569327
	H320	H	0.496102	0.463546	0.560808
	O321	O	0.995440	1.100199	0.968716
	H322	H	0.990417	1.093761	0.962710
	H323	H	1.000517	1.111231	0.978996
	O324	O	0.492169	0.404155	0.583395
	H325	H	0.494451	0.407500	0.594386
	H326	H	0.503407	0.403726	0.572868
	O327	O	0.556211	0.532352	0.578973
	H328	H	0.551855	0.544822	0.577792
	H329	H	0.549647	0.538300	0.579459
	O330	O	1.011983	-0.073272	1.002330
	H331	H	1.013441	-0.070466	1.008606
	H332	H	1.015365	-0.080337	1.001080
	O333	O	1.071093	1.059329	-0.025223
	H334	H	1.069401	1.060138	-0.032889
	H335	H	1.057886	1.059499	-0.021477
	O336	O	0.460732	0.645596	0.603780
	H337	H	0.462471	0.657842	0.593917
	H338	H	0.473483	0.658707	0.593917
	O339	O	0.526124	0.418915	0.507755
	H340	H	0.523408	0.419739	0.523010
	H341	H	0.513655	0.415445	0.516701
	O342	O	0.031307	0.942128	-0.042113
	H343	H	0.035720	0.949121	-0.039024
	H344	H	0.035701	0.948282	-0.049109
	O345	O	-0.054143	0.014806	-0.032255
	H346	H	-0.044922	0.009597	-0.038108
	H347	H	-0.064584	0.010102	-0.032066
	O348	O	0.075934	0.917686	0.971271
	H349	H	0.077335	0.929747	0.960145
	H350	H	0.070510	0.925466	0.978960
	O351	O	0.533702	0.549218	0.554072
	H352	H	0.537690	0.563513	0.542207
	H353	H	0.522573	0.551595	0.550884
	O354	O	0.611917	0.512656	0.532535
	H355	H	0.612172	0.514699	0.531088
	H356	H	0.601818	0.514913	0.538204
	O357	O	0.434850	0.399785	0.479406
	H358	H	0.457813	0.392642	0.499522
	H359	H	0.428569	0.394113	0.497012
	O360	O	-0.048255	0.010293	0.020753
	H361	H	-0.036673	0.010890	0.027017
	H362	H	-0.052759	0.007983	0.009508
	O363	O	0.472183	0.461027	0.492738
	H364	H	0.468158	0.456778	0.488999
	H365	H	0.484105	0.450818	0.493174
	O366	O	-0.028547	-0.001987	1.005738
	H367	H	-0.031143	-0.004617	1.006076
	H368	H	-0.042429	-0.015618	1.013483
	O369	O	0.498427	0.556833	0.460448
	H370	H	0.500263	0.541114	0.464971
	H371	H	0.508350	0.553417	0.456260
