data_Molecule from HDF5

_cell_length_a		16.264507
_cell_length_b		16.267796
_cell_length_c		16.225099
_cell_angle_alpha	89.857611
_cell_angle_beta	90.108357
_cell_angle_gamma	89.996931
_symmetry_space_group_name_H-M	'P 1'
_symmetry_Int_Tables_number		1

loop_
	_symmetry_equiv_pos_as_xyz
	x,y,z

loop_
	_atom_site_label
	_atom_site_type_symbol
	_atom_site_fract_x
	_atom_site_fract_y
	_atom_site_fract_z
	H0	H	0.391859	0.828379	0.720833
	H1	H	0.585957	0.157225	0.719905
	H2	H	0.585865	0.827613	0.297271
	H3	H	0.391797	0.156469	0.291849
	H4	H	0.704009	0.395413	0.843423
	H5	H	0.704316	0.589313	0.172677
	H6	H	0.276233	0.590877	0.843745
	H7	H	0.278707	0.393156	0.173136
	H8	H	0.826581	0.708303	0.409146
	H9	H	0.154941	0.707349	0.605447
	H10	H	0.826374	0.279033	0.607203
	H11	H	0.154677	0.280350	0.411262
	H12	H	0.825827	0.397613	0.720756
	H13	H	0.154558	0.592000	0.722722
	H14	H	0.826782	0.592727	0.292610
	H15	H	0.154942	0.396243	0.295464
	H16	H	0.392528	0.706699	0.843600
	H17	H	0.589758	0.705545	0.172478
	H18	H	0.588403	0.279207	0.842720
	H19	H	0.394507	0.278437	0.171794
	H20	H	0.704781	0.829910	0.409315
	H21	H	0.703267	0.157624	0.605687
	H22	H	0.276327	0.828934	0.604714
	H23	H	0.277309	0.158073	0.409713
	H24	H	0.894154	0.329191	0.221222
	H25	H	0.087910	0.657398	0.220852
	H26	H	0.088611	0.328926	0.794710
	H27	H	0.894487	0.658071	0.795893
	H28	H	0.202570	0.897612	0.342469
	H29	H	0.204116	0.091097	0.671951
	H30	H	0.775385	0.092962	0.342768
	H31	H	0.776937	0.897030	0.672061
	H32	H	0.326610	0.207856	0.907861
	H33	H	0.655305	0.203956	0.103956
	H34	H	0.326320	0.778310	0.104839
	H35	H	0.654528	0.778821	0.909902
	H36	H	0.325938	0.894919	0.220392
	H37	H	0.654493	0.088027	0.220815
	H38	H	0.325235	0.088737	0.794757
	H39	H	0.654740	0.895030	0.793978
	H40	H	0.892810	0.207712	0.342750
	H41	H	0.086856	0.205753	0.672902
	H42	H	0.087580	0.781362	0.342611
	H43	H	0.892486	0.780262	0.672204
	H44	H	0.203006	0.327948	0.913517
	H45	H	0.206035	0.656383	0.107542
	H46	H	0.777948	0.328612	0.106267
	H47	H	0.775680	0.656319	0.909578
	H48	H	0.395741	0.111520	0.605590
	H49	H	0.586864	0.875708	0.600024
	H50	H	0.576862	0.106390	0.419539
	H51	H	0.399337	0.873968	0.403033
	H52	H	0.588607	0.387441	0.129559
	H53	H	0.589922	0.582584	0.890058
	H54	H	0.395324	0.593549	0.127908
	H55	H	0.385314	0.393959	0.885892
	H56	H	0.107202	0.585451	0.412072
	H57	H	0.876006	0.581743	0.600231
	H58	H	0.106342	0.394153	0.592128
	H59	H	0.871275	0.397052	0.409910
	H60	H	0.104431	0.410096	0.603286
	H61	H	0.871705	0.588716	0.607003
	H62	H	0.107914	0.590304	0.414315
	H63	H	0.874480	0.397636	0.419453
	H64	H	0.392883	0.578798	0.124888
	H65	H	0.577803	0.582043	0.894076
	H66	H	0.591645	0.405789	0.124978
	H67	H	0.395812	0.411572	0.893840
	H68	H	0.590381	0.111866	0.415369
	H69	H	0.583197	0.875297	0.604306
	H70	H	0.400650	0.108384	0.599269
	H71	H	0.401672	0.879967	0.421921
	H72	H	0.888511	0.612884	0.101611
	H73	H	0.078461	0.378096	0.100397
	H74	H	0.079184	0.610696	0.904812
	H75	H	0.900461	0.377827	0.916498
	H76	H	0.075249	0.899092	0.622554
	H77	H	0.082538	0.090772	0.389685
	H78	H	0.899486	0.101540	0.627480
	H79	H	0.902298	0.900129	0.392556
	H80	H	0.602507	0.077131	0.921494
	H81	H	0.374688	0.079222	0.101479
	H82	H	0.610827	0.889699	0.105496
	H83	H	0.377807	0.902312	0.923210
	H84	H	0.605315	0.898604	0.093734
	H85	H	0.370406	0.091213	0.105174
	H86	H	0.609303	0.083310	0.900898
	H87	H	0.372779	0.906193	0.906436
	H88	H	0.881910	0.081442	0.626914
	H89	H	0.086201	0.088220	0.389251
	H90	H	0.087962	0.893462	0.628339
	H91	H	0.893582	0.895813	0.387735
	H92	H	0.078440	0.605322	0.924289
	H93	H	0.090646	0.375651	0.097823
	H94	H	0.902401	0.611374	0.107436
	H95	H	0.894262	0.376053	0.917164
	H96	H	0.391859	0.109544	0.597761
	H97	H	0.581871	0.877010	0.599454
	H98	H	0.579356	0.111770	0.405109
	H99	H	0.384325	0.873296	0.415556
	H100	H	0.573897	0.397992	0.121966
	H101	H	0.583470	0.592904	0.888928
	H102	H	0.406983	0.584519	0.122447
	H103	H	0.407374	0.392486	0.890904
	H104	H	0.106296	0.585975	0.417851
	H105	H	0.873231	0.591586	0.597048
	H106	H	0.111827	0.393456	0.610869
	H107	H	0.874959	0.406007	0.413374
	H108	H	0.899042	0.607266	0.092415
	H109	H	0.086319	0.373484	0.109460
	H110	H	0.096150	0.612462	0.916431
	H111	H	0.897876	0.374511	0.911100
	H112	H	0.086999	0.907436	0.623245
	H113	H	0.081870	0.086871	0.391061
	H114	H	0.906658	0.077380	0.618879
	H115	H	0.893013	0.905804	0.391038
	H116	H	0.609399	0.098483	0.917582
	H117	H	0.374518	0.088465	0.093087
	H118	H	0.607109	0.904708	0.108037
	H119	H	0.371160	0.889623	0.913049
	C120	C	0.368004	0.001207	0.628898
	C121	C	0.611279	0.984702	0.628775
	C122	C	0.610674	0.001418	0.386292
	C123	C	0.367324	0.984477	0.385334
	C124	C	0.612129	0.370318	0.016152
	C125	C	0.612273	0.613747	0.999870
	C126	C	0.369451	0.613959	0.016346
	C127	C	0.368990	0.370916	0.999277
	C128	C	-0.001271	0.615513	0.386207
	C129	C	0.982231	0.615384	0.629466
	C130	C	-0.001475	0.371968	0.630016
	C131	C	0.982243	0.372348	0.386672
	C132	C	0.869123	0.501740	0.128963
	C133	C	0.113230	0.484373	0.130530
	C134	C	0.112336	0.501107	0.887290
	C135	C	0.869113	0.484428	0.886553
	C136	C	0.111334	0.872644	0.515584
	C137	C	0.111481	0.115264	0.499101
	C138	C	0.867667	0.115813	0.515985
	C139	C	0.868675	0.872641	0.499446
	C140	C	0.498532	0.114177	0.885331
	C141	C	0.481944	0.113370	0.128152
	C142	C	0.499096	0.869719	0.129683
	C143	C	0.482135	0.870909	0.885883
	C144	C	0.371319	0.877516	0.683437
	C145	C	0.607411	0.108427	0.682820
	C146	C	0.607247	0.877084	0.333532
	C147	C	0.370856	0.107833	0.330037
	C148	C	0.666592	0.374179	0.892508
	C149	C	0.666658	0.610222	0.123637
	C150	C	0.314346	0.610963	0.892627
	C151	C	0.315762	0.373228	0.123566
	C152	C	0.875412	0.670427	0.388553
	C153	C	0.105896	0.669905	0.626378
	C154	C	0.875148	0.317450	0.627190
	C155	C	0.105765	0.317886	0.390281
	C156	C	0.874996	0.375808	0.684191
	C157	C	0.105756	0.612544	0.684383
	C158	C	0.875380	0.612796	0.330829
	C159	C	0.105922	0.375663	0.332744
	C160	C	0.372023	0.668511	0.892518
	C161	C	0.609701	0.667855	0.123465
	C162	C	0.608958	0.316853	0.891828
	C163	C	0.373508	0.316078	0.123134
	C164	C	0.666150	0.878158	0.389511
	C165	C	0.665788	0.108482	0.626249
	C166	C	0.313489	0.877746	0.626115
	C167	C	0.314107	0.108638	0.388604
	C168	C	0.873374	0.378006	0.183436
	C169	C	0.109304	0.608309	0.183794
	C170	C	0.109181	0.377683	0.832736
	C171	C	0.872687	0.608577	0.832509
	C172	C	0.165172	0.876580	0.391605
	C173	C	0.166101	0.111615	0.623137
	C174	C	0.813401	0.113335	0.391708
	C175	C	0.814451	0.876048	0.623045
	C176	C	0.375294	0.169403	0.887780
	C177	C	0.605973	0.166936	0.125211
	C178	C	0.375304	0.815771	0.125817
	C179	C	0.605696	0.816355	0.889105
	C180	C	0.375037	0.873348	0.183403
	C181	C	0.605797	0.108877	0.182756
	C182	C	0.374604	0.110536	0.831418
	C183	C	0.605720	0.874165	0.831627
	C184	C	0.871441	0.170568	0.391976
	C185	C	0.107804	0.168454	0.623689
	C186	C	0.108289	0.818658	0.391762
	C187	C	0.871906	0.817969	0.623031
	C188	C	0.165912	0.377060	0.891441
	C189	C	0.168076	0.607544	0.127635
	C190	C	0.815935	0.377560	0.126169
	C191	C	0.813888	0.607756	0.889018
	C192	C	0.389803	0.087474	0.607244
	C193	C	0.590215	0.898312	0.607545
	C194	C	0.588758	0.087689	0.407064
	C195	C	0.388587	0.898063	0.407078
	C196	C	0.591048	0.390863	0.102887
	C197	C	0.590297	0.592121	0.913258
	C198	C	0.391741	0.591999	0.102786
	C199	C	0.390008	0.392725	0.912498
	C200	C	0.084875	0.593599	0.408209
	C201	C	0.895911	0.593769	0.607708
	C202	C	0.085232	0.392997	0.608418
	C203	C	0.895851	0.393875	0.407958
	C204	C	0.890185	0.588144	0.106808
	C205	C	0.091241	0.397962	0.109178
	C206	C	0.091046	0.587237	0.908916
	C207	C	0.891258	0.398430	0.908418
	C208	C	0.089895	0.893828	0.602369
	C209	C	0.089958	0.094687	0.412420
	C210	C	0.889438	0.093396	0.602154
	C211	C	0.889886	0.894364	0.412764
	C212	C	0.584788	0.092576	0.906747
	C213	C	0.395539	0.092536	0.106407
	C214	C	0.585521	0.891188	0.108642
	C215	C	0.395945	0.892725	0.907856
	Zn216	Zn	0.490010	-0.007415	0.756942
	Zn217	Zn	0.489641	-0.008160	0.257778
	Zn218	Zn	0.740100	0.492202	0.008090
	Zn219	Zn	0.241300	0.492338	0.008777
	Zn220	Zn	-0.009251	0.744126	0.507769
	Zn221	Zn	-0.010017	0.243631	0.508158
	Zn222	Zn	-0.009434	0.493509	0.758085
	Zn223	Zn	-0.009470	0.493796	0.257558
	Zn224	Zn	0.491179	0.742078	0.007790
	Zn225	Zn	0.490624	0.242592	0.006893
	Zn226	Zn	0.739580	-0.005767	0.506955
	Zn227	Zn	0.239513	-0.006437	0.507358
	N228	N	0.404304	0.955317	0.685416
	N229	N	0.574165	0.030674	0.684426
	N230	N	0.573507	0.954586	0.331432
	N231	N	0.403428	0.029725	0.328020
	N232	N	0.668886	0.406505	0.970810
	N233	N	0.668368	0.577351	0.045727
	N234	N	0.312623	0.577870	0.970848
	N235	N	0.313021	0.406566	0.045640
	N236	N	0.952826	0.671869	0.422446
	N237	N	0.028069	0.671567	0.592755
	N238	N	0.953051	0.315156	0.594248
	N239	N	0.027893	0.315944	0.423221
	N240	N	0.952784	0.408811	0.686127
	N241	N	0.028004	0.579409	0.686477
	N242	N	0.953201	0.579438	0.329073
	N243	N	0.028050	0.408667	0.330331
	N244	N	0.405630	0.670460	0.970371
	N245	N	0.576478	0.670044	0.045292
	N246	N	0.575934	0.314353	0.969709
	N247	N	0.405736	0.314296	0.044672
	N248	N	0.668285	0.956482	0.421608
	N249	N	0.668260	0.030655	0.593257
	N250	N	0.311419	0.955548	0.592865
	N251	N	0.312022	0.030960	0.422335
	N252	N	0.905864	0.456139	0.185326
	N253	N	0.076119	0.530585	0.185847
	N254	N	0.076554	0.455632	0.829922
	N255	N	0.906302	0.530968	0.830956
	N256	N	0.167234	0.909040	0.469728
	N257	N	0.168377	0.079437	0.544812
	N258	N	0.811061	0.080110	0.469666
	N259	N	0.812286	0.909296	0.544947
	N260	N	0.453288	0.171783	0.920644
	N261	N	0.528092	0.169497	0.091882
	N262	N	0.453462	0.813269	0.093479
	N263	N	0.527839	0.814270	0.922125
	N264	N	0.452810	0.906607	0.185551
	N265	N	0.527663	0.076308	0.184962
	N266	N	0.452094	0.076783	0.830117
	N267	N	0.527988	0.907403	0.829473
	N268	N	0.904699	0.172175	0.470114
	N269	N	0.074645	0.171124	0.545660
	N270	N	0.075391	0.816348	0.469957
	N271	N	0.904942	0.815882	0.545193
	N272	N	0.167882	0.454784	0.924670
	N273	N	0.170608	0.529331	0.095405
	N274	N	0.813222	0.455400	0.093028
	N275	N	0.811502	0.529629	0.921815
	O276	O	1.486844	0.495671	0.508076
	H277	H	1.484520	0.492933	0.509834
	H278	H	1.481993	0.489226	0.512254
	O279	O	0.509508	0.520428	0.480877
	H280	H	0.504001	0.516858	0.474815
	H281	H	0.505952	0.536837	0.477150
	O282	O	1.517765	1.470060	-0.493289
	H283	H	1.519518	1.469335	-0.498536
	H284	H	1.527469	1.472488	-0.491258
	O285	O	0.463276	0.522737	0.479015
	H286	H	0.470730	0.515384	0.492059
	H287	H	0.460206	0.526624	0.473439
