data_Molecule from HDF5

_cell_length_a		16.209104
_cell_length_b		16.241279
_cell_length_c		16.314520
_cell_angle_alpha	90.042679
_cell_angle_beta	89.947416
_cell_angle_gamma	90.030295
_symmetry_space_group_name_H-M	'P 1'
_symmetry_Int_Tables_number		1

loop_
	_symmetry_equiv_pos_as_xyz
	x,y,z

loop_
	_atom_site_label
	_atom_site_type_symbol
	_atom_site_fract_x
	_atom_site_fract_y
	_atom_site_fract_z
	H0	H	0.389441	0.829096	0.720261
	H1	H	0.589740	0.156904	0.720762
	H2	H	0.588375	0.829485	0.290024
	H3	H	0.392559	0.157483	0.291776
	H4	H	0.703503	0.395733	0.842186
	H5	H	0.703968	0.591547	0.169611
	H6	H	0.275328	0.589975	0.842033
	H7	H	0.275202	0.395170	0.169327
	H8	H	0.824702	0.706303	0.409729
	H9	H	0.154992	0.705884	0.601420
	H10	H	0.825348	0.280271	0.604396
	H11	H	0.154526	0.281022	0.408269
	H12	H	0.825560	0.394936	0.720530
	H13	H	0.154460	0.592585	0.719493
	H14	H	0.824484	0.591484	0.293262
	H15	H	0.153538	0.394732	0.291344
	H16	H	0.390966	0.706924	0.842232
	H17	H	0.588564	0.709144	0.169130
	H18	H	0.588066	0.278772	0.842607
	H19	H	0.391628	0.279325	0.169570
	H20	H	0.701679	0.827993	0.408278
	H21	H	0.700100	0.158818	0.600031
	H22	H	0.276248	0.828286	0.600932
	H23	H	0.277589	0.158072	0.408074
	H24	H	0.890409	0.329207	0.219954
	H25	H	0.086667	0.658277	0.219075
	H26	H	0.089250	0.329714	0.790774
	H27	H	0.891183	0.657540	0.792674
	H28	H	0.201929	0.897424	0.340934
	H29	H	0.204931	0.091184	0.668729
	H30	H	0.776600	0.089946	0.341291
	H31	H	0.774820	0.895701	0.669124
	H32	H	0.324527	0.205982	0.908013
	H33	H	0.654203	0.205838	0.102246
	H34	H	0.325047	0.779827	0.103085
	H35	H	0.654192	0.779245	0.907153
	H36	H	0.324980	0.894274	0.219184
	H37	H	0.653826	0.092195	0.218659
	H38	H	0.325297	0.090871	0.791561
	H39	H	0.653543	0.893950	0.790564
	H40	H	0.892137	0.207725	0.342031
	H41	H	0.087879	0.207443	0.669451
	H42	H	0.087601	0.778823	0.341726
	H43	H	0.892006	0.780138	0.669877
	H44	H	0.200460	0.327870	0.910865
	H45	H	0.203101	0.658111	0.102658
	H46	H	0.777119	0.328333	0.102425
	H47	H	0.776836	0.657975	0.910423
	H48	H	0.392908	0.110444	0.597666
	H49	H	0.578916	0.876827	0.599281
	H50	H	0.586137	0.110828	0.413555
	H51	H	0.401572	0.877919	0.413034
	H52	H	0.588869	0.403869	0.123104
	H53	H	0.586471	0.573970	0.892383
	H54	H	0.399613	0.589786	0.122432
	H55	H	0.404007	0.397156	0.890282
	H56	H	0.107085	0.593130	0.416759
	H57	H	0.870461	0.585504	0.606759
	H58	H	0.109318	0.397463	0.601476
	H59	H	0.872766	0.405444	0.410231
	H60	H	0.105639	0.400772	0.594263
	H61	H	0.871155	0.593071	0.597613
	H62	H	0.104765	0.579438	0.413397
	H63	H	0.870105	0.396410	0.409505
	H64	H	0.391662	0.587321	0.123934
	H65	H	0.570586	0.589418	0.892313
	H66	H	0.576030	0.400452	0.120626
	H67	H	0.390338	0.392563	0.885490
	H68	H	0.583061	0.112019	0.407416
	H69	H	0.582491	0.877275	0.595360
	H70	H	0.399645	0.110109	0.603927
	H71	H	0.391449	0.875799	0.414921
	H72	H	0.892457	0.611680	0.101115
	H73	H	0.079485	0.376480	0.102353
	H74	H	0.075904	0.609771	0.906945
	H75	H	0.898230	0.374531	0.905641
	H76	H	0.088915	0.899910	0.624347
	H77	H	0.085934	0.093689	0.386313
	H78	H	0.891068	0.090544	0.624014
	H79	H	0.898702	0.908607	0.392389
	H80	H	0.607371	0.087841	0.912455
	H81	H	0.373609	0.086421	0.092250
	H82	H	0.608306	0.894125	0.099014
	H83	H	0.371188	0.888914	0.918458
	H84	H	0.604439	0.903010	0.091955
	H85	H	0.372470	0.080041	0.103023
	H86	H	0.606364	0.083976	0.911428
	H87	H	0.376923	0.910228	0.916784
	H88	H	0.894340	0.082279	0.621490
	H89	H	0.087312	0.082825	0.389246
	H90	H	0.081027	0.902702	0.619804
	H91	H	0.902682	0.891905	0.389180
	H92	H	0.081482	0.607871	0.920618
	H93	H	0.082532	0.377226	0.097592
	H94	H	0.900052	0.610606	0.103495
	H95	H	0.900393	0.377938	0.915947
	H96	H	0.401262	0.107312	0.595471
	H97	H	0.584046	0.875161	0.600180
	H98	H	0.579251	0.109081	0.412674
	H99	H	0.395132	0.873045	0.404896
	H100	H	0.584804	0.390765	0.125520
	H101	H	0.591252	0.594360	0.885015
	H102	H	0.397053	0.582004	0.119920
	H103	H	0.392280	0.406562	0.890455
	H104	H	0.110422	0.588927	0.403759
	H105	H	0.875112	0.581782	0.596248
	H106	H	0.106430	0.405306	0.601545
	H107	H	0.873630	0.400078	0.417663
	H108	H	0.898230	0.608817	0.096136
	H109	H	0.085314	0.374984	0.101680
	H110	H	0.089922	0.614005	0.910016
	H111	H	0.890684	0.375140	0.913727
	H112	H	0.081833	0.893877	0.623273
	H113	H	0.077351	0.087434	0.390611
	H114	H	0.900388	0.090039	0.621080
	H115	H	0.886640	0.897047	0.385833
	H116	H	0.608239	0.087324	0.908822
	H117	H	0.369478	0.092191	0.102242
	H118	H	0.607050	0.905405	0.103287
	H119	H	0.368516	0.900116	0.899842
	C120	C	0.368465	0.001222	0.626695
	C121	C	0.610709	0.985032	0.626552
	C122	C	0.611169	0.001774	0.383103
	C123	C	0.368462	0.984834	0.383550
	C124	C	0.611449	0.370846	0.014501
	C125	C	0.611274	0.614629	0.997738
	C126	C	0.367811	0.614589	0.014145
	C127	C	0.367556	0.370832	0.997272
	C128	C	-0.001749	0.614753	0.384490
	C129	C	0.981386	0.614815	0.627518
	C130	C	-0.001889	0.372656	0.627382
	C131	C	0.980984	0.372191	0.384257
	C132	C	0.868467	0.501327	0.127870
	C133	C	0.110973	0.484967	0.127988
	C134	C	0.111069	0.502107	0.884201
	C135	C	0.868318	0.484733	0.884474
	C136	C	0.111506	0.871511	0.513682
	C137	C	0.111731	0.115630	0.497005
	C138	C	0.867614	0.115599	0.513891
	C139	C	0.867558	0.871205	0.497380
	C140	C	0.498097	0.114404	0.883526
	C141	C	0.480755	0.114606	0.126940
	C142	C	0.497966	0.871817	0.126942
	C143	C	0.481001	0.871098	0.883287
	C144	C	0.369987	0.877861	0.681784
	C145	C	0.608712	0.108374	0.681850
	C146	C	0.608744	0.878241	0.328329
	C147	C	0.372002	0.108448	0.329251
	C148	C	0.666054	0.374561	0.891285
	C149	C	0.666106	0.612270	0.120913
	C150	C	0.312902	0.611145	0.890836
	C151	C	0.313040	0.374331	0.120484
	C152	C	0.873789	0.668740	0.388394
	C153	C	0.105716	0.668845	0.622980
	C154	C	0.874341	0.317993	0.624561
	C155	C	0.105129	0.318092	0.387556
	C156	C	0.874508	0.374841	0.682502
	C157	C	0.105365	0.612770	0.681745
	C158	C	0.873694	0.611902	0.330678
	C159	C	0.104904	0.374948	0.329772
	C160	C	0.370385	0.669115	0.890970
	C161	C	0.608870	0.670822	0.120541
	C162	C	0.608535	0.316687	0.891265
	C163	C	0.371053	0.316908	0.120735
	C164	C	0.665226	0.877672	0.387026
	C165	C	0.664456	0.109056	0.622539
	C166	C	0.313756	0.877477	0.622589
	C167	C	0.314824	0.108792	0.387070
	C168	C	0.870399	0.378122	0.182314
	C169	C	0.108160	0.609119	0.181944
	C170	C	0.108699	0.378375	0.829289
	C171	C	0.870770	0.608395	0.830197
	C172	C	0.165208	0.875638	0.389920
	C173	C	0.166314	0.111870	0.620380
	C174	C	0.813766	0.111350	0.390407
	C175	C	0.813078	0.875181	0.620548
	C176	C	0.373902	0.168824	0.886957
	C177	C	0.605067	0.168655	0.123163
	C178	C	0.374295	0.816895	0.124166
	C179	C	0.604888	0.816480	0.886412
	C180	C	0.374378	0.873949	0.181955
	C181	C	0.604651	0.112620	0.181494
	C182	C	0.374125	0.111779	0.828904
	C183	C	0.604741	0.873582	0.828710
	C184	C	0.871003	0.169668	0.390643
	C185	C	0.108665	0.169720	0.620613
	C186	C	0.108246	0.816852	0.390434
	C187	C	0.871356	0.817652	0.620831
	C188	C	0.163910	0.377392	0.888819
	C189	C	0.165613	0.608915	0.123967
	C190	C	0.814101	0.377646	0.123651
	C191	C	0.814033	0.608733	0.888671
	C192	C	0.391263	0.087269	0.605275
	C193	C	0.588511	0.898665	0.604790
	C194	C	0.589213	0.088484	0.404739
	C195	C	0.389850	0.898000	0.404618
	C196	C	0.589629	0.392061	0.100936
	C197	C	0.589251	0.592486	0.912009
	C198	C	0.389859	0.592816	0.099873
	C199	C	0.389273	0.392370	0.910858
	C200	C	0.084863	0.593470	0.405117
	C201	C	0.894744	0.593278	0.606462
	C202	C	0.084806	0.394645	0.605436
	C203	C	0.894465	0.394164	0.405889
	C204	C	0.890518	0.588049	0.106524
	C205	C	0.088858	0.398622	0.106979
	C206	C	0.088865	0.588168	0.906054
	C207	C	0.890020	0.398186	0.905520
	C208	C	0.090308	0.892720	0.600132
	C209	C	0.090045	0.094262	0.411055
	C210	C	0.888945	0.093865	0.599842
	C211	C	0.889558	0.892809	0.411207
	C212	C	0.584784	0.092789	0.904744
	C213	C	0.394357	0.092522	0.105591
	C214	C	0.584447	0.894203	0.104684
	C215	C	0.394617	0.893167	0.905376
	Zn216	Zn	0.489834	-0.006994	0.755754
	Zn217	Zn	0.489582	-0.006862	0.254931
	Zn218	Zn	0.739688	0.492870	0.006422
	Zn219	Zn	0.239203	0.492766	0.005545
	Zn220	Zn	-0.010182	0.742731	0.506019
	Zn221	Zn	-0.010115	0.244648	0.505954
	Zn222	Zn	-0.009923	0.493436	0.755517
	Zn223	Zn	-0.010809	0.493625	0.256581
	Zn224	Zn	0.489525	0.743550	0.005674
	Zn225	Zn	0.489343	0.242391	0.005647
	Zn226	Zn	0.738985	-0.006449	0.505285
	Zn227	Zn	0.239996	-0.006628	0.504831
	N228	N	0.403301	0.955903	0.684505
	N229	N	0.576090	0.030020	0.684537
	N230	N	0.576083	0.956402	0.325792
	N231	N	0.404586	0.030189	0.326888
	N232	N	0.667904	0.407510	0.968991
	N233	N	0.667505	0.577999	0.043825
	N234	N	0.311012	0.578023	0.968446
	N235	N	0.310885	0.407068	0.042659
	N236	N	0.951920	0.670595	0.421193
	N237	N	0.027570	0.670261	0.590016
	N238	N	0.952296	0.316398	0.591046
	N239	N	0.027132	0.316652	0.421060
	N240	N	0.952615	0.408127	0.684155
	N241	N	0.027185	0.579947	0.684661
	N242	N	0.952063	0.579188	0.327844
	N243	N	0.026715	0.407766	0.327470
	N244	N	0.403833	0.671314	0.968452
	N245	N	0.575349	0.672233	0.042906
	N246	N	0.575282	0.314300	0.968850
	N247	N	0.404351	0.314852	0.043103
	N248	N	0.666724	0.955670	0.420375
	N249	N	0.665516	0.031512	0.588709
	N250	N	0.312719	0.955100	0.589161
	N251	N	0.312798	0.030982	0.420130
	N252	N	0.903361	0.456219	0.185109
	N253	N	0.074946	0.531206	0.184740
	N254	N	0.076629	0.456645	0.826341
	N255	N	0.903715	0.530288	0.827445
	N256	N	0.167196	0.908852	0.467536
	N257	N	0.168521	0.079160	0.542519
	N258	N	0.811485	0.078369	0.467984
	N259	N	0.810768	0.907869	0.542773
	N260	N	0.451962	0.170493	0.920163
	N261	N	0.527038	0.170086	0.089938
	N262	N	0.452071	0.815584	0.090792
	N263	N	0.526959	0.814978	0.919980
	N264	N	0.452449	0.907692	0.183450
	N265	N	0.526526	0.079564	0.183863
	N266	N	0.452279	0.078769	0.826690
	N267	N	0.526740	0.906720	0.826757
	N268	N	0.903754	0.172481	0.468362
	N269	N	0.075512	0.172259	0.543001
	N270	N	0.075531	0.814288	0.468295
	N271	N	0.904524	0.815192	0.543124
	N272	N	0.165753	0.455215	0.922186
	N273	N	0.167204	0.530850	0.090859
	N274	N	0.812860	0.455492	0.090613
	N275	N	0.812456	0.530880	0.921926
	O276	O	1.511394	0.483968	0.548160
	H277	H	1.508317	0.481444	0.551270
	H278	H	1.514269	0.480235	0.547692
	O279	O	0.519209	0.510844	0.580103
	H280	H	0.517394	0.506395	0.580457
	H281	H	0.518966	0.514264	0.578754
	O282	O	1.537534	1.484673	-0.420440
	H283	H	1.536568	1.492980	-0.434323
	H284	H	1.547928	1.480657	-0.410588
	O285	O	0.517791	0.493060	0.585199
	H286	H	0.512373	0.494761	0.596151
	H287	H	0.525488	0.489386	0.581680
