data_Molecule from HDF5

_cell_length_a		16.261152
_cell_length_b		16.333542
_cell_length_c		16.169486
_cell_angle_alpha	90.326488
_cell_angle_beta	90.204396
_cell_angle_gamma	90.174543
_symmetry_space_group_name_H-M	'P 1'
_symmetry_Int_Tables_number		1

loop_
	_symmetry_equiv_pos_as_xyz
	x,y,z

loop_
	_atom_site_label
	_atom_site_type_symbol
	_atom_site_fract_x
	_atom_site_fract_y
	_atom_site_fract_z
	H0	H	0.389601	0.826421	0.715703
	H1	H	0.585203	0.154793	0.718629
	H2	H	0.582876	0.827100	0.290744
	H3	H	0.390608	0.154921	0.292484
	H4	H	0.699709	0.391994	0.839937
	H5	H	0.702233	0.591030	0.170518
	H6	H	0.272978	0.586159	0.840151
	H7	H	0.275763	0.393776	0.170076
	H8	H	0.824088	0.704056	0.405749
	H9	H	0.150636	0.708361	0.607689
	H10	H	0.824026	0.275974	0.602573
	H11	H	0.151601	0.276786	0.406984
	H12	H	0.822729	0.394035	0.716037
	H13	H	0.152632	0.587924	0.719534
	H14	H	0.823406	0.585270	0.293376
	H15	H	0.152512	0.393440	0.292057
	H16	H	0.387507	0.703095	0.839753
	H17	H	0.587003	0.706719	0.169677
	H18	H	0.584874	0.275759	0.840150
	H19	H	0.388752	0.276585	0.168903
	H20	H	0.700814	0.827284	0.405353
	H21	H	0.703709	0.153687	0.605001
	H22	H	0.272169	0.828013	0.601150
	H23	H	0.273036	0.154317	0.406437
	H24	H	0.891031	0.326124	0.216594
	H25	H	0.084471	0.654244	0.219250
	H26	H	0.082407	0.326430	0.791436
	H27	H	0.890129	0.655026	0.792215
	H28	H	0.197284	0.893925	0.338835
	H29	H	0.201567	0.089667	0.669266
	H30	H	0.775386	0.086427	0.339212
	H31	H	0.773719	0.893983	0.669685
	H32	H	0.323728	0.204030	0.904713
	H33	H	0.650116	0.206869	0.105779
	H34	H	0.323422	0.776882	0.100914
	H35	H	0.651564	0.774087	0.904768
	H36	H	0.322604	0.893542	0.215993
	H37	H	0.651733	0.086739	0.217078
	H38	H	0.322558	0.083738	0.792600
	H39	H	0.652507	0.893168	0.790768
	H40	H	0.889648	0.202733	0.340063
	H41	H	0.087078	0.205969	0.669056
	H42	H	0.085579	0.775205	0.341473
	H43	H	0.889704	0.777820	0.670444
	H44	H	0.200369	0.326434	0.906649
	H45	H	0.203529	0.653199	0.105217
	H46	H	0.773242	0.326925	0.101553
	H47	H	0.772219	0.654055	0.907328
	H48	H	0.400282	0.109323	0.610987
	H49	H	0.587725	0.873679	0.593312
	H50	H	0.582908	0.104323	0.422304
	H51	H	0.392606	0.877609	0.420839
	H52	H	0.580505	0.400880	0.121758
	H53	H	0.578263	0.581461	0.889220
	H54	H	0.404120	0.585820	0.120717
	H55	H	0.395661	0.394181	0.886899
	H56	H	0.104270	0.582366	0.417747
	H57	H	0.869608	0.589388	0.597803
	H58	H	0.105432	0.401176	0.606436
	H59	H	0.872010	0.399851	0.409417
	H60	H	0.107525	0.388867	0.597970
	H61	H	0.873851	0.581703	0.591979
	H62	H	0.104898	0.581624	0.408841
	H63	H	0.867916	0.391711	0.407223
	H64	H	0.390284	0.592161	0.126122
	H65	H	0.578915	0.583027	0.888041
	H66	H	0.577208	0.395838	0.121810
	H67	H	0.390543	0.394813	0.885530
	H68	H	0.591764	0.111891	0.406022
	H69	H	0.580019	0.872587	0.603840
	H70	H	0.401132	0.102038	0.588119
	H71	H	0.382604	0.870509	0.405304
	H72	H	0.888434	0.607627	0.096511
	H73	H	0.078127	0.373114	0.104579
	H74	H	0.070160	0.602139	0.916720
	H75	H	0.892169	0.373406	0.908114
	H76	H	0.077387	0.904237	0.620316
	H77	H	0.073066	0.084173	0.388939
	H78	H	0.898969	0.083563	0.621608
	H79	H	0.896324	0.893573	0.387366
	H80	H	0.603426	0.083755	0.914189
	H81	H	0.365848	0.094203	0.101284
	H82	H	0.603339	0.895153	0.090963
	H83	H	0.372688	0.894843	0.915635
	H84	H	0.602461	0.904199	0.099211
	H85	H	0.372918	0.083315	0.086802
	H86	H	0.604670	0.083123	0.911766
	H87	H	0.371262	0.899847	0.907459
	H88	H	0.894395	0.088329	0.624022
	H89	H	0.083240	0.090358	0.383748
	H90	H	0.077546	0.894332	0.623119
	H91	H	0.891147	0.893931	0.385974
	H92	H	0.091075	0.606984	0.922331
	H93	H	0.078771	0.375841	0.093055
	H94	H	0.893867	0.609073	0.106450
	H95	H	0.895407	0.375323	0.910754
	H96	H	0.381025	0.111415	0.597460
	H97	H	0.575387	0.877352	0.592824
	H98	H	0.572178	0.106857	0.405480
	H99	H	0.401513	0.875007	0.403383
	H100	H	0.583027	0.395684	0.123804
	H101	H	0.580019	0.580993	0.888698
	H102	H	0.390981	0.577038	0.121117
	H103	H	0.393926	0.398950	0.887741
	H104	H	0.107044	0.589206	0.413376
	H105	H	0.871065	0.579998	0.601642
	H106	H	0.101945	0.401714	0.591954
	H107	H	0.871806	0.393126	0.415789
	H108	H	0.899730	0.605273	0.097002
	H109	H	0.088471	0.371955	0.098143
	H110	H	0.084439	0.611077	0.900992
	H111	H	0.890986	0.375262	0.912806
	H112	H	0.085968	0.900109	0.624093
	H113	H	0.083980	0.077908	0.386681
	H114	H	0.892410	0.081151	0.622464
	H115	H	0.893519	0.898287	0.388537
	H116	H	0.604926	0.085523	0.913125
	H117	H	0.369919	0.076186	0.104885
	H118	H	0.606995	0.893434	0.102414
	H119	H	0.368968	0.890722	0.907820
	C120	C	0.365712	-0.000993	0.625741
	C121	C	0.609607	0.982592	0.626066
	C122	C	0.609181	-0.000608	0.382725
	C123	C	0.364888	0.982624	0.381904
	C124	C	0.608453	0.368359	0.013593
	C125	C	0.608315	0.611419	0.997336
	C126	C	0.366334	0.611819	0.013288
	C127	C	0.366246	0.368764	0.996066
	C128	C	-0.003520	0.611579	0.384768
	C129	C	0.979622	0.612675	0.626985
	C130	C	-0.003795	0.369308	0.626275
	C131	C	0.979231	0.368007	0.383116
	C132	C	0.866305	0.498559	0.126709
	C133	C	0.110114	0.481662	0.127419
	C134	C	0.108848	0.498723	0.884327
	C135	C	0.864726	0.482513	0.882529
	C136	C	0.108249	0.870074	0.513767
	C137	C	0.108897	0.112515	0.495818
	C138	C	0.866541	0.111968	0.513385
	C139	C	0.865373	0.868229	0.496468
	C140	C	0.495799	0.111027	0.884265
	C141	C	0.478313	0.112773	0.126406
	C142	C	0.495811	0.869446	0.125573
	C143	C	0.479495	0.867221	0.881821
	C144	C	0.368791	0.875687	0.678838
	C145	C	0.606563	0.105551	0.681526
	C146	C	0.604462	0.875975	0.328203
	C147	C	0.369098	0.106045	0.329187
	C148	C	0.662898	0.371054	0.889466
	C149	C	0.663639	0.610329	0.121307
	C150	C	0.310732	0.607555	0.889273
	C151	C	0.312460	0.372577	0.120586
	C152	C	0.873038	0.666045	0.386360
	C153	C	0.102627	0.668754	0.626456
	C154	C	0.872807	0.313849	0.623371
	C155	C	0.102750	0.314018	0.386156
	C156	C	0.872240	0.372710	0.679599
	C157	C	0.103327	0.609232	0.682125
	C158	C	0.872564	0.606963	0.330263
	C159	C	0.103325	0.372335	0.329381
	C160	C	0.367985	0.665449	0.888971
	C161	C	0.606971	0.668458	0.120567
	C162	C	0.605759	0.313344	0.889529
	C163	C	0.368545	0.314305	0.119948
	C164	C	0.663303	0.876101	0.384971
	C165	C	0.664907	0.105344	0.624527
	C166	C	0.310242	0.876469	0.621831
	C167	C	0.310402	0.105549	0.385543
	C168	C	0.870098	0.375045	0.179487
	C169	C	0.106229	0.605071	0.182098
	C170	C	0.104158	0.375215	0.828998
	C171	C	0.868552	0.605929	0.829073
	C172	C	0.160960	0.872953	0.388721
	C173	C	0.163793	0.109929	0.619983
	C174	C	0.812246	0.107895	0.388987
	C175	C	0.811520	0.873026	0.620828
	C176	C	0.372177	0.165339	0.885677
	C177	C	0.601489	0.168132	0.124844
	C178	C	0.372286	0.814421	0.122147
	C179	C	0.602850	0.812620	0.884536
	C180	C	0.371908	0.872648	0.179120
	C181	C	0.602285	0.109114	0.180797
	C182	C	0.371740	0.106103	0.829631
	C183	C	0.603394	0.871633	0.828113
	C184	C	0.869146	0.165353	0.389242
	C185	C	0.106692	0.167660	0.620021
	C186	C	0.105556	0.814015	0.389960
	C187	C	0.868822	0.815132	0.621099
	C188	C	0.162445	0.375141	0.886411
	C189	C	0.165081	0.604646	0.125269
	C190	C	0.811409	0.375423	0.122433
	C191	C	0.810386	0.605535	0.886821
	C192	C	0.387761	0.085319	0.605047
	C193	C	0.587510	0.896763	0.603292
	C194	C	0.588507	0.085493	0.404783
	C195	C	0.386120	0.896561	0.403286
	C196	C	0.586595	0.390817	0.099945
	C197	C	0.585690	0.588457	0.910806
	C198	C	0.388550	0.591073	0.100182
	C199	C	0.387257	0.389637	0.909210
	C200	C	0.082891	0.590659	0.406803
	C201	C	0.893836	0.590328	0.603791
	C202	C	0.082547	0.390764	0.604933
	C203	C	0.892960	0.388714	0.404544
	C204	C	0.887766	0.585033	0.106132
	C205	C	0.088358	0.395771	0.105086
	C206	C	0.088015	0.584603	0.906645
	C207	C	0.886444	0.396631	0.903982
	C208	C	0.086630	0.892671	0.600239
	C209	C	0.086505	0.090513	0.408781
	C210	C	0.888660	0.090725	0.600374
	C211	C	0.887160	0.889012	0.409783
	C212	C	0.581980	0.090175	0.906440
	C213	C	0.391848	0.090849	0.104302
	C214	C	0.582021	0.891332	0.103952
	C215	C	0.393291	0.888730	0.903863
	Zn216	Zn	0.487823	-0.009980	0.754664
	Zn217	Zn	0.486898	-0.009006	0.254052
	Zn218	Zn	0.736307	0.490553	0.005449
	Zn219	Zn	0.238558	0.489750	0.005455
	Zn220	Zn	-0.011841	0.741035	0.505709
	Zn221	Zn	-0.012630	0.239993	0.504762
	Zn222	Zn	-0.012566	0.490891	0.754831
	Zn223	Zn	-0.012197	0.490099	0.255903
	Zn224	Zn	0.487765	0.740116	0.004482
	Zn225	Zn	0.486842	0.240871	0.004729
	Zn226	Zn	0.738408	-0.009056	0.504748
	Zn227	Zn	0.236672	-0.008781	0.503923
	N228	N	0.402575	0.952934	0.681316
	N229	N	0.572933	0.028086	0.682712
	N230	N	0.571509	0.953366	0.326752
	N231	N	0.402096	0.028662	0.326734
	N232	N	0.664649	0.404827	0.967637
	N233	N	0.664510	0.575564	0.043660
	N234	N	0.309787	0.574837	0.967471
	N235	N	0.310872	0.405667	0.042523
	N236	N	0.951019	0.668838	0.419696
	N237	N	0.024809	0.670961	0.592921
	N238	N	0.950931	0.311559	0.590859
	N239	N	0.024712	0.311146	0.418711
	N240	N	0.949818	0.406343	0.681548
	N241	N	0.025799	0.575215	0.682527
	N242	N	0.950249	0.573823	0.329239
	N243	N	0.025504	0.404959	0.327150
	N244	N	0.401949	0.668142	0.967116
	N245	N	0.573130	0.669075	0.042365
	N246	N	0.572586	0.311796	0.967539
	N247	N	0.401291	0.312079	0.041621
	N248	N	0.666216	0.953846	0.418300
	N249	N	0.666910	0.027861	0.590906
	N250	N	0.308512	0.954233	0.589372
	N251	N	0.307805	0.027742	0.417722
	N252	N	0.903331	0.452671	0.182286
	N253	N	0.072707	0.527740	0.183566
	N254	N	0.071499	0.452895	0.827800
	N255	N	0.901521	0.528595	0.826394
	N256	N	0.162662	0.907371	0.466677
	N257	N	0.165044	0.076363	0.541772
	N258	N	0.810753	0.075156	0.467230
	N259	N	0.809494	0.905277	0.542473
	N260	N	0.450312	0.168695	0.918672
	N261	N	0.523444	0.170535	0.091730
	N262	N	0.450207	0.812505	0.089521
	N263	N	0.524709	0.809701	0.916831
	N264	N	0.449507	0.906324	0.181154
	N265	N	0.524836	0.075201	0.181529
	N266	N	0.449282	0.072820	0.828817
	N267	N	0.525634	0.904673	0.826169
	N268	N	0.902155	0.167915	0.467625
	N269	N	0.073260	0.169321	0.541688
	N270	N	0.073475	0.812134	0.468480
	N271	N	0.901571	0.811870	0.542713
	N272	N	0.165573	0.452736	0.920094
	N273	N	0.167545	0.526930	0.092126
	N274	N	0.809011	0.453352	0.090391
	N275	N	0.807519	0.527726	0.919149
	O276	O	1.604353	0.592304	0.588671
	H277	H	1.598303	0.593317	0.593820
	H278	H	1.600545	0.588976	0.585699
	O279	O	0.633923	0.619743	0.609893
	H280	H	0.646000	0.627752	0.609621
	H281	H	0.637286	0.613223	0.608458
	O282	O	1.595658	1.578018	-0.405074
	H283	H	1.584965	1.578567	-0.400109
	H284	H	1.596863	1.579064	-0.400959
	O285	O	0.580532	0.603858	0.616324
	H286	H	0.585680	0.612156	0.613768
	H287	H	0.595612	0.612349	0.629311
