data_Molecule from HDF5

_cell_length_a		16.290581
_cell_length_b		16.214440
_cell_length_c		16.261213
_cell_angle_alpha	90.033385
_cell_angle_beta	90.013480
_cell_angle_gamma	89.946811
_symmetry_space_group_name_H-M	'P 1'
_symmetry_Int_Tables_number		1

loop_
	_symmetry_equiv_pos_as_xyz
	x,y,z

loop_
	_atom_site_label
	_atom_site_type_symbol
	_atom_site_fract_x
	_atom_site_fract_y
	_atom_site_fract_z
	H0	H	0.402729	0.835165	0.712913
	H1	H	0.597843	0.164808	0.712844
	H2	H	0.597572	0.835736	0.285703
	H3	H	0.403181	0.165411	0.288359
	H4	H	0.714394	0.402464	0.836420
	H5	H	0.714919	0.599395	0.164061
	H6	H	0.285073	0.599657	0.836423
	H7	H	0.285492	0.402045	0.164053
	H8	H	0.835762	0.712953	0.402418
	H9	H	0.163537	0.711649	0.596571
	H10	H	0.835606	0.286047	0.597633
	H11	H	0.164082	0.287097	0.403508
	H12	H	0.835911	0.401285	0.714136
	H13	H	0.163188	0.597621	0.713888
	H14	H	0.836128	0.596841	0.286263
	H15	H	0.163533	0.401338	0.285305
	H16	H	0.402736	0.713075	0.835432
	H17	H	0.596774	0.713327	0.165146
	H18	H	0.597379	0.287455	0.836074
	H19	H	0.403560	0.288122	0.164904
	H20	H	0.714916	0.835528	0.400862
	H21	H	0.715608	0.163449	0.599451
	H22	H	0.286881	0.835541	0.597699
	H23	H	0.285949	0.164063	0.402004
	H24	H	0.902961	0.335476	0.213147
	H25	H	0.097929	0.664011	0.214377
	H26	H	0.097457	0.335782	0.786367
	H27	H	0.901357	0.664616	0.786620
	H28	H	0.213576	0.901103	0.335926
	H29	H	0.214270	0.098679	0.663494
	H30	H	0.785492	0.097927	0.335954
	H31	H	0.785406	0.900628	0.663439
	H32	H	0.336469	0.214681	0.901746
	H33	H	0.664658	0.212392	0.097510
	H34	H	0.335526	0.786502	0.097653
	H35	H	0.664535	0.787015	0.902713
	H36	H	0.335384	0.902208	0.214662
	H37	H	0.663330	0.098681	0.215700
	H38	H	0.336013	0.098398	0.785576
	H39	H	0.664003	0.901623	0.785387
	H40	H	0.902265	0.213085	0.335547
	H41	H	0.096966	0.213589	0.663875
	H42	H	0.096822	0.785328	0.335880
	H43	H	0.903313	0.786687	0.664754
	H44	H	0.214360	0.336056	0.901531
	H45	H	0.214508	0.664354	0.099291
	H46	H	0.786718	0.335969	0.098058
	H47	H	0.785193	0.664696	0.902010
	H48	H	0.406724	0.118730	0.597747
	H49	H	0.598194	0.882606	0.588323
	H50	H	0.597781	0.117648	0.409685
	H51	H	0.404697	0.882180	0.408037
	H52	H	0.598440	0.413973	0.116647
	H53	H	0.601933	0.585471	0.883290
	H54	H	0.406483	0.601573	0.119065
	H55	H	0.405176	0.416108	0.885267
	H56	H	0.118437	0.599863	0.408505
	H57	H	0.881155	0.603603	0.589132
	H58	H	0.118979	0.403134	0.601868
	H59	H	0.883592	0.407020	0.406071
	H60	H	0.116504	0.401254	0.586400
	H61	H	0.886948	0.585146	0.588794
	H62	H	0.113810	0.587362	0.411017
	H63	H	0.883173	0.407488	0.405349
	H64	H	0.399374	0.589451	0.117812
	H65	H	0.582641	0.590437	0.887600
	H66	H	0.585578	0.406813	0.114938
	H67	H	0.415445	0.403739	0.884863
	H68	H	0.592408	0.118676	0.402790
	H69	H	0.593836	0.881067	0.598483
	H70	H	0.410410	0.116112	0.590475
	H71	H	0.405524	0.881521	0.404480
	H72	H	0.893410	0.620043	0.091002
	H73	H	0.097259	0.381603	0.094191
	H74	H	0.094958	0.620130	0.899894
	H75	H	0.904103	0.380349	0.901879
	H76	H	0.093216	0.902088	0.618195
	H77	H	0.088514	0.103231	0.381267
	H78	H	0.919235	0.093362	0.613248
	H79	H	0.912476	0.901994	0.383729
	H80	H	0.615836	0.086764	0.901881
	H81	H	0.381400	0.093838	0.099625
	H82	H	0.620202	0.906453	0.106297
	H83	H	0.386425	0.910178	0.911114
	H84	H	0.616765	0.896528	0.086531
	H85	H	0.382302	0.098554	0.091017
	H86	H	0.619868	0.099395	0.902480
	H87	H	0.382869	0.910485	0.900290
	H88	H	0.901894	0.102410	0.620663
	H89	H	0.105436	0.090745	0.379608
	H90	H	0.098160	0.906671	0.618288
	H91	H	0.901055	0.903837	0.380528
	H92	H	0.086196	0.615165	0.907921
	H93	H	0.089843	0.382915	0.093975
	H94	H	0.911504	0.620042	0.105568
	H95	H	0.911738	0.385527	0.907398
	H96	H	0.402252	0.118349	0.591038
	H97	H	0.587587	0.884916	0.590317
	H98	H	0.590141	0.114852	0.409718
	H99	H	0.408305	0.882681	0.407199
	H100	H	0.597730	0.399771	0.120558
	H101	H	0.595513	0.603900	0.880120
	H102	H	0.412926	0.589821	0.114493
	H103	H	0.399856	0.401776	0.879605
	H104	H	0.118432	0.590698	0.398896
	H105	H	0.879296	0.592494	0.605414
	H106	H	0.113441	0.415125	0.593754
	H107	H	0.882801	0.406352	0.405663
	H108	H	0.914161	0.612592	0.083872
	H109	H	0.094068	0.383856	0.087931
	H110	H	0.097712	0.617245	0.912767
	H111	H	0.902121	0.383053	0.912043
	H112	H	0.091827	0.908030	0.615530
	H113	H	0.087271	0.083445	0.387653
	H114	H	0.901500	0.081979	0.615407
	H115	H	0.907518	0.913231	0.385853
	H116	H	0.614822	0.093273	0.913685
	H117	H	0.386000	0.089452	0.091757
	H118	H	0.610868	0.917868	0.088888
	H119	H	0.381976	0.901524	0.906863
	C120	C	0.378505	0.008494	0.621272
	C121	C	0.621462	0.991401	0.621027
	C122	C	0.621664	0.008299	0.378722
	C123	C	0.378591	0.991550	0.378884
	C124	C	0.622373	0.378507	0.008993
	C125	C	0.621648	0.621892	0.991937
	C126	C	0.378341	0.621890	0.008482
	C127	C	0.378511	0.378723	0.991918
	C128	C	0.008581	0.621123	0.377852
	C129	C	0.991095	0.621406	0.622031
	C130	C	0.007983	0.378171	0.621889
	C131	C	0.991433	0.378459	0.377811
	C132	C	0.878673	0.508722	0.121396
	C133	C	0.121581	0.491402	0.120997
	C134	C	0.121204	0.508752	0.878678
	C135	C	0.878006	0.491905	0.878802
	C136	C	0.121891	0.877840	0.508380
	C137	C	0.121910	0.121451	0.491149
	C138	C	0.878646	0.121320	0.508186
	C139	C	0.878724	0.878045	0.491628
	C140	C	0.508378	0.121897	0.877803
	C141	C	0.491832	0.121841	0.122023
	C142	C	0.507750	0.878692	0.122012
	C143	C	0.492001	0.878633	0.877804
	C144	C	0.382178	0.884414	0.675324
	C145	C	0.618381	0.115517	0.675328
	C146	C	0.618509	0.884530	0.323620
	C147	C	0.381882	0.115760	0.325052
	C148	C	0.676784	0.381812	0.885486
	C149	C	0.676344	0.619446	0.115640
	C150	C	0.323592	0.619235	0.885003
	C151	C	0.323551	0.381564	0.115181
	C152	C	0.884836	0.675419	0.381511
	C153	C	0.114686	0.674789	0.618180
	C154	C	0.884639	0.323493	0.618473
	C155	C	0.115024	0.324312	0.381740
	C156	C	0.884785	0.380778	0.676484
	C157	C	0.114467	0.617909	0.676230
	C158	C	0.885030	0.618167	0.323530
	C159	C	0.114929	0.381036	0.323290
	C160	C	0.381495	0.676060	0.884637
	C161	C	0.618133	0.676417	0.115852
	C162	C	0.618685	0.324711	0.885111
	C163	C	0.381936	0.324771	0.115456
	C164	C	0.676597	0.884371	0.380800
	C165	C	0.676986	0.114959	0.619007
	C166	C	0.324276	0.884558	0.618298
	C167	C	0.323791	0.115320	0.381588
	C168	C	0.881946	0.384464	0.175705
	C169	C	0.118589	0.615282	0.176299
	C170	C	0.118017	0.384732	0.824242
	C171	C	0.880802	0.615592	0.824216
	C172	C	0.176038	0.880629	0.384732
	C173	C	0.176302	0.118871	0.614637
	C174	C	0.823343	0.118617	0.384895
	C175	C	0.823574	0.880341	0.614948
	C176	C	0.385178	0.176859	0.881114
	C177	C	0.615551	0.175450	0.118519
	C178	C	0.384358	0.824193	0.118453
	C179	C	0.615400	0.824033	0.881326
	C180	C	0.384334	0.881489	0.176636
	C181	C	0.614889	0.118928	0.177165
	C182	C	0.384989	0.119157	0.823331
	C183	C	0.615203	0.880994	0.822999
	C184	C	0.881078	0.175920	0.384614
	C185	C	0.118167	0.176062	0.614787
	C186	C	0.118126	0.823276	0.384818
	C187	C	0.882099	0.823740	0.615460
	C188	C	0.176373	0.384964	0.880950
	C189	C	0.176371	0.615535	0.119121
	C190	C	0.824307	0.384785	0.118593
	C191	C	0.823401	0.615816	0.881945
	C192	C	0.400099	0.095297	0.599483
	C193	C	0.599617	0.905256	0.598908
	C194	C	0.599968	0.094539	0.400962
	C195	C	0.399909	0.904553	0.400295
	C196	C	0.600413	0.400187	0.095369
	C197	C	0.599840	0.599954	0.905983
	C198	C	0.399826	0.600135	0.094748
	C199	C	0.400363	0.400609	0.905366
	C200	C	0.094522	0.599140	0.399580
	C201	C	0.904811	0.600167	0.600669
	C202	C	0.094276	0.400094	0.600305
	C203	C	0.905433	0.400548	0.399421
	C204	C	0.899997	0.595236	0.099892
	C205	C	0.100124	0.405154	0.098638
	C206	C	0.099533	0.595125	0.900599
	C207	C	0.899615	0.405331	0.900690
	C208	C	0.100654	0.899227	0.594890
	C209	C	0.100077	0.099235	0.405125
	C210	C	0.900902	0.099162	0.594229
	C211	C	0.900413	0.899924	0.405591
	C212	C	0.594632	0.099652	0.899665
	C213	C	0.405690	0.100417	0.100340
	C214	C	0.593791	0.900535	0.100535
	C215	C	0.405955	0.900762	0.899825
	Zn216	Zn	0.500010	0.000146	0.749283
	Zn217	Zn	0.499246	0.000530	0.250910
	Zn218	Zn	0.750067	0.500467	0.000809
	Zn219	Zn	0.250099	0.500461	-0.000305
	Zn220	Zn	-0.000078	0.749284	0.500103
	Zn221	Zn	-0.000235	0.250163	0.499335
	Zn222	Zn	-0.000502	0.499522	0.750422
	Zn223	Zn	0.000011	0.499779	0.249329
	Zn224	Zn	0.500018	0.750063	0.000060
	Zn225	Zn	0.500287	0.250305	0.000215
	Zn226	Zn	0.750344	-0.000300	0.499986
	Zn227	Zn	0.250513	-0.000231	0.499670
	N228	N	0.414889	0.962580	0.677393
	N229	N	0.584424	0.037858	0.676620
	N230	N	0.585043	0.962347	0.322223
	N231	N	0.415438	0.037788	0.323533
	N232	N	0.678970	0.414452	0.963582
	N233	N	0.678713	0.586473	0.037799
	N234	N	0.321366	0.586293	0.962883
	N235	N	0.321320	0.414417	0.037165
	N236	N	0.962569	0.677297	0.414702
	N237	N	0.037100	0.676916	0.584960
	N238	N	0.962303	0.321981	0.584986
	N239	N	0.037298	0.322538	0.414706
	N240	N	0.962380	0.414011	0.678720
	N241	N	0.036598	0.585328	0.678668
	N242	N	0.962850	0.585206	0.321183
	N243	N	0.036979	0.413853	0.320673
	N244	N	0.415059	0.677791	0.962261
	N245	N	0.584826	0.678050	0.038090
	N246	N	0.585289	0.322787	0.962906
	N247	N	0.415356	0.323017	0.037755
	N248	N	0.678628	0.962244	0.414442
	N249	N	0.679107	0.036890	0.585881
	N250	N	0.321978	0.962754	0.585298
	N251	N	0.321623	0.037044	0.414160
	N252	N	0.915239	0.462433	0.177482
	N253	N	0.085384	0.537344	0.177720
	N254	N	0.084359	0.462600	0.822707
	N255	N	0.913953	0.537564	0.822169
	N256	N	0.178253	0.913911	0.462612
	N257	N	0.178689	0.085540	0.536800
	N258	N	0.821852	0.085237	0.462793
	N259	N	0.821585	0.913311	0.537061
	N260	N	0.462925	0.178678	0.914373
	N261	N	0.537947	0.177404	0.084957
	N262	N	0.462016	0.822519	0.085104
	N263	N	0.537803	0.822399	0.914724
	N264	N	0.462084	0.914471	0.179087
	N265	N	0.536975	0.086427	0.179457
	N266	N	0.462636	0.085728	0.821323
	N267	N	0.537377	0.913979	0.820619
	N268	N	0.914773	0.177666	0.462093
	N269	N	0.084907	0.177665	0.537050
	N270	N	0.085226	0.821337	0.462549
	N271	N	0.915831	0.822123	0.537759
	N272	N	0.178202	0.462890	0.914362
	N273	N	0.178277	0.537672	0.085266
	N274	N	0.822094	0.462891	0.085868
	N275	N	0.821412	0.537687	0.914970
