data_Molecule from HDF5

_cell_length_a		16.300914
_cell_length_b		16.281193
_cell_length_c		16.159982
_cell_angle_alpha	90.131506
_cell_angle_beta	89.843185
_cell_angle_gamma	89.663285
_symmetry_space_group_name_H-M	'P 1'
_symmetry_Int_Tables_number		1

loop_
	_symmetry_equiv_pos_as_xyz
	x,y,z

loop_
	_atom_site_label
	_atom_site_type_symbol
	_atom_site_fract_x
	_atom_site_fract_y
	_atom_site_fract_z
	H0	H	0.415610	0.835834	0.722066
	H1	H	0.606568	0.165142	0.723535
	H2	H	0.610293	0.835510	0.296305
	H3	H	0.413655	0.165286	0.297446
	H4	H	0.726882	0.399834	0.845799
	H5	H	0.724082	0.598601	0.174325
	H6	H	0.298474	0.598691	0.844919
	H7	H	0.297769	0.402899	0.174272
	H8	H	0.847772	0.716305	0.411964
	H9	H	0.174490	0.715143	0.608001
	H10	H	0.847871	0.287797	0.610878
	H11	H	0.173838	0.283338	0.408349
	H12	H	0.847827	0.405535	0.724315
	H13	H	0.175697	0.597594	0.721704
	H14	H	0.847548	0.599121	0.296876
	H15	H	0.175812	0.401807	0.295063
	H16	H	0.414219	0.712957	0.844703
	H17	H	0.608532	0.713908	0.174071
	H18	H	0.612065	0.285166	0.845334
	H19	H	0.413562	0.287954	0.174342
	H20	H	0.729019	0.837941	0.409797
	H21	H	0.723041	0.165331	0.607637
	H22	H	0.297350	0.837098	0.608455
	H23	H	0.294433	0.163717	0.410704
	H24	H	0.915276	0.336314	0.224186
	H25	H	0.106235	0.665766	0.221293
	H26	H	0.111228	0.337609	0.793827
	H27	H	0.915717	0.665647	0.799580
	H28	H	0.226542	0.900907	0.345432
	H29	H	0.223837	0.098944	0.675053
	H30	H	0.796459	0.100844	0.345577
	H31	H	0.798588	0.905051	0.674883
	H32	H	0.348537	0.216842	0.911203
	H33	H	0.675094	0.214511	0.108797
	H34	H	0.347741	0.786655	0.110749
	H35	H	0.673718	0.784041	0.909944
	H36	H	0.348071	0.903903	0.224777
	H37	H	0.675662	0.096669	0.223135
	H38	H	0.346465	0.098078	0.797764
	H39	H	0.674859	0.902402	0.796489
	H40	H	0.911910	0.216711	0.345828
	H41	H	0.108036	0.215006	0.674479
	H42	H	0.110009	0.787202	0.344855
	H43	H	0.914156	0.790489	0.675485
	H44	H	0.228243	0.337584	0.908872
	H45	H	0.225522	0.664297	0.109557
	H46	H	0.796601	0.336304	0.110165
	H47	H	0.795153	0.662984	0.910988
	H48	H	0.421859	0.119928	0.615149
	H49	H	0.603951	0.882419	0.608685
	H50	H	0.613293	0.121047	0.412362
	H51	H	0.419168	0.885772	0.422731
	H52	H	0.605327	0.411818	0.126124
	H53	H	0.598577	0.589369	0.894173
	H54	H	0.415136	0.592625	0.127990
	H55	H	0.415318	0.400014	0.888153
	H56	H	0.127274	0.594751	0.419080
	H57	H	0.893724	0.596115	0.605881
	H58	H	0.129862	0.403300	0.603066
	H59	H	0.892755	0.408025	0.410337
	H60	H	0.126772	0.406386	0.597388
	H61	H	0.893765	0.598903	0.605144
	H62	H	0.128916	0.592816	0.412843
	H63	H	0.895199	0.402624	0.424099
	H64	H	0.420646	0.592936	0.126633
	H65	H	0.603967	0.599427	0.889816
	H66	H	0.600027	0.405317	0.127279
	H67	H	0.414991	0.415887	0.892691
	H68	H	0.594668	0.116049	0.410574
	H69	H	0.603967	0.885109	0.597973
	H70	H	0.422489	0.112754	0.593847
	H71	H	0.415110	0.882690	0.415911
	H72	H	0.914122	0.617198	0.102408
	H73	H	0.107693	0.384959	0.099481
	H74	H	0.103996	0.614634	0.925816
	H75	H	0.916807	0.384369	0.920194
	H76	H	0.102227	0.909617	0.626936
	H77	H	0.095559	0.090139	0.395754
	H78	H	0.911496	0.092867	0.628690
	H79	H	0.925014	0.901509	0.391557
	H80	H	0.630235	0.098604	0.914233
	H81	H	0.398456	0.085335	0.100841
	H82	H	0.628876	0.901042	0.100532
	H83	H	0.393659	0.909405	0.914816
	H84	H	0.625579	0.909654	0.098116
	H85	H	0.391556	0.097574	0.112018
	H86	H	0.625415	0.092695	0.923723
	H87	H	0.392378	0.904089	0.914556
	H88	H	0.921405	0.092100	0.625543
	H89	H	0.104397	0.099850	0.389954
	H90	H	0.104964	0.904040	0.629258
	H91	H	0.911741	0.909035	0.389861
	H92	H	0.114745	0.621904	0.914434
	H93	H	0.105975	0.383067	0.104179
	H94	H	0.916647	0.617929	0.105754
	H95	H	0.918045	0.382163	0.913308
	H96	H	0.404045	0.120374	0.602435
	H97	H	0.612891	0.881982	0.602893
	H98	H	0.604157	0.113610	0.428128
	H99	H	0.423553	0.884455	0.415294
	H100	H	0.608525	0.404681	0.129521
	H101	H	0.610326	0.588290	0.891330
	H102	H	0.417761	0.597680	0.128583
	H103	H	0.428969	0.407611	0.894724
	H104	H	0.129555	0.598702	0.415521
	H105	H	0.894389	0.596825	0.602753
	H106	H	0.127668	0.410768	0.603988
	H107	H	0.898702	0.417064	0.419925
	H108	H	0.917672	0.615877	0.101572
	H109	H	0.102760	0.385378	0.099608
	H110	H	0.098988	0.618011	0.909218
	H111	H	0.923873	0.384312	0.917860
	H112	H	0.108762	0.909293	0.628266
	H113	H	0.109389	0.086140	0.393040
	H114	H	0.918073	0.101462	0.629359
	H115	H	0.923760	0.915927	0.395722
	H116	H	0.627490	0.086689	0.912977
	H117	H	0.395774	0.101565	0.095462
	H118	H	0.629052	0.907700	0.106613
	H119	H	0.394157	0.905733	0.919090
	C120	C	0.389174	0.009070	0.631842
	C121	C	0.633371	0.992077	0.631604
	C122	C	0.633461	0.008887	0.387950
	C123	C	0.390004	0.992327	0.388702
	C124	C	0.633321	0.378466	0.018554
	C125	C	0.632301	0.620912	1.000701
	C126	C	0.389836	0.622354	0.018835
	C127	C	0.390757	0.379506	1.000834
	C128	C	0.019935	0.623414	0.388358
	C129	C	1.002479	0.624156	0.631985
	C130	C	0.019998	0.379798	0.630939
	C131	C	1.003198	0.379098	0.387818
	C132	C	0.888681	0.508704	0.131973
	C133	C	0.133023	0.492567	0.130599
	C134	C	0.134574	0.509776	0.887149
	C135	C	0.890620	0.491805	0.888980
	C136	C	0.133731	0.878905	0.518904
	C137	C	0.131458	0.121455	0.501607
	C138	C	0.888438	0.124162	0.519177
	C139	C	0.891543	0.881549	0.501658
	C140	C	0.519530	0.121820	0.888700
	C141	C	0.503241	0.122476	0.131574
	C142	C	0.519728	0.878651	0.130922
	C143	C	0.501938	0.878116	0.887780
	C144	C	0.394061	0.885164	0.685121
	C145	C	0.628077	0.116015	0.685809
	C146	C	0.631460	0.885273	0.332919
	C147	C	0.392336	0.115839	0.334168
	C148	C	0.688841	0.379956	0.894695
	C149	C	0.686868	0.618803	0.125012
	C150	C	0.335871	0.619171	0.894209
	C151	C	0.335296	0.382388	0.124911
	C152	C	0.896732	0.678450	0.391390
	C153	C	0.125891	0.677559	0.628519
	C154	C	0.896691	0.326036	0.629675
	C155	C	0.125449	0.322138	0.388642
	C156	C	0.896601	0.384359	0.686387
	C157	C	0.126390	0.619358	0.685110
	C158	C	0.896528	0.620018	0.334434
	C159	C	0.126471	0.381001	0.332312
	C160	C	0.392913	0.676154	0.894263
	C161	C	0.629142	0.675921	0.124985
	C162	C	0.631611	0.323139	0.894536
	C163	C	0.393388	0.325610	0.125152
	C164	C	0.690003	0.886086	0.389888
	C165	C	0.686066	0.116024	0.628284
	C166	C	0.335045	0.885838	0.628981
	C167	C	0.333092	0.115092	0.390411
	C168	C	0.893554	0.385171	0.186735
	C169	C	0.128629	0.616181	0.185352
	C170	C	0.131886	0.386415	0.831898
	C171	C	0.893929	0.615998	0.835643
	C172	C	0.188581	0.881151	0.394575
	C173	C	0.186295	0.119453	0.625694
	C174	C	0.834078	0.121466	0.394827
	C175	C	0.836437	0.884695	0.625779
	C176	C	0.396871	0.178173	0.890911
	C177	C	0.626287	0.176959	0.129233
	C178	C	0.396727	0.824315	0.130105
	C179	C	0.625169	0.822721	0.890247
	C180	C	0.396731	0.882503	0.186861
	C181	C	0.626655	0.118370	0.185972
	C182	C	0.395921	0.119295	0.834560
	C183	C	0.625891	0.881380	0.833730
	C184	C	0.891254	0.178954	0.394869
	C185	C	0.128766	0.176972	0.625618
	C186	C	0.131141	0.824164	0.394529
	C187	C	0.893628	0.827449	0.625907
	C188	C	0.190084	0.386482	0.888925
	C189	C	0.187568	0.615527	0.129138
	C190	C	0.834942	0.385168	0.129693
	C191	C	0.834143	0.614715	0.890996
	C192	C	0.409988	0.095441	0.610224
	C193	C	0.612965	0.905561	0.609696
	C194	C	0.610803	0.094821	0.410516
	C195	C	0.412798	0.906406	0.411246
	C196	C	0.611211	0.400716	0.105193
	C197	C	0.610733	0.598704	0.914167
	C198	C	0.411487	0.600837	0.105465
	C199	C	0.413114	0.401355	0.914345
	C200	C	0.106347	0.601733	0.409657
	C201	C	0.916173	0.603491	0.610815
	C202	C	0.105849	0.400675	0.608203
	C203	C	0.917662	0.402482	0.411248
	C204	C	0.909810	0.594594	0.109859
	C205	C	0.111655	0.406607	0.108019
	C206	C	0.112528	0.595873	0.909760
	C207	C	0.912924	0.405867	0.910672
	C208	C	0.111829	0.901075	0.605908
	C209	C	0.109520	0.098728	0.415144
	C210	C	0.910439	0.102144	0.605695
	C211	C	0.913651	0.902617	0.414773
	C212	C	0.605486	0.099373	0.910471
	C213	C	0.417356	0.101166	0.109254
	C214	C	0.605581	0.899815	0.108211
	C215	C	0.415712	0.900006	0.909640
	Zn216	Zn	0.511010	0.000329	0.760147
	Zn217	Zn	0.511650	0.000149	0.259783
	Zn218	Zn	0.760688	0.499383	0.009756
	Zn219	Zn	0.262295	0.501254	0.009481
	Zn220	Zn	0.011591	0.751984	0.510493
	Zn221	Zn	0.010648	0.250560	0.509702
	Zn222	Zn	0.011817	0.501582	0.759799
	Zn223	Zn	0.011852	0.500996	0.260199
	Zn224	Zn	0.510882	0.749782	0.009948
	Zn225	Zn	0.512169	0.251274	0.009871
	Zn226	Zn	0.762088	0.001650	0.509652
	Zn227	Zn	0.260600	0.000658	0.510005
	N228	N	0.426935	0.962744	0.687079
	N229	N	0.596061	0.038066	0.687934
	N230	N	0.596805	0.962603	0.331825
	N231	N	0.427075	0.038511	0.332985
	N232	N	0.689733	0.413781	0.972699
	N233	N	0.688880	0.585295	0.046728
	N234	N	0.333694	0.586362	0.972635
	N235	N	0.333926	0.415660	0.046733
	N236	N	0.974497	0.680645	0.424091
	N237	N	0.047965	0.680612	0.596175
	N238	N	0.974442	0.322931	0.596038
	N239	N	0.047858	0.320879	0.422287
	N240	N	0.974181	0.417073	0.687329
	N241	N	0.048746	0.586861	0.687510
	N242	N	0.974205	0.586354	0.332628
	N243	N	0.049398	0.415815	0.331797
	N244	N	0.425692	0.678313	0.972645
	N245	N	0.595999	0.677404	0.046882
	N246	N	0.597831	0.322104	0.972754
	N247	N	0.427097	0.323680	0.047083
	N248	N	0.691380	0.963918	0.423112
	N249	N	0.689514	0.037953	0.595452
	N250	N	0.331964	0.963983	0.596513
	N251	N	0.331733	0.037364	0.423695
	N252	N	0.926356	0.462855	0.188183
	N253	N	0.095147	0.538797	0.186064
	N254	N	0.097922	0.463991	0.830784
	N255	N	0.928497	0.538677	0.834245
	N256	N	0.190135	0.914460	0.472831
	N257	N	0.188111	0.085631	0.547595
	N258	N	0.832214	0.088232	0.473009
	N259	N	0.834907	0.917550	0.547390
	N260	N	0.474661	0.179838	0.923734
	N261	N	0.548555	0.179479	0.096026
	N262	N	0.474332	0.821815	0.096166
	N263	N	0.547231	0.820773	0.923081
	N264	N	0.474086	0.915695	0.187500
	N265	N	0.549158	0.085408	0.187668
	N266	N	0.473202	0.084957	0.833075
	N267	N	0.548338	0.915331	0.832046
	N268	N	0.924040	0.180833	0.473251
	N269	N	0.095290	0.178148	0.547551
	N270	N	0.097672	0.822717	0.472839
	N271	N	0.927422	0.825535	0.547866
	N272	N	0.191549	0.464172	0.922779
	N273	N	0.190490	0.537676	0.095892
	N274	N	0.831697	0.462892	0.096587
	N275	N	0.832014	0.536606	0.923500
	O276	O	0.485988	0.463849	0.488468
	H277	H	0.478853	0.467787	0.494386
	H278	H	0.490741	0.456387	0.493011
	O279	O	-0.501869	0.475061	-0.571872
	H280	H	-0.511932	0.470764	-0.570107
	H281	H	-0.497301	0.475339	-0.569881
	O282	O	0.526464	0.456773	0.470694
	H283	H	0.532972	0.446641	0.466326
	H284	H	0.532980	0.454772	0.457786
	O285	O	0.442208	0.496415	0.501308
	H286	H	0.447355	0.490638	0.505464
	H287	H	0.441024	0.499242	0.496871
	O288	O	1.011520	-0.007220	0.084418
	H289	H	1.015472	0.001231	0.079732
	H290	H	1.005250	-0.008408	0.096733
	O291	O	-1.006110	0.969253	-0.928635
	H292	H	-1.001083	0.978989	-0.932326
	H293	H	-1.013138	0.966671	-0.926914
	O294	O	0.552203	0.451527	0.440301
	H295	H	0.551642	0.456857	0.437066
	H296	H	0.554422	0.440846	0.443476
	O297	O	0.005388	1.022377	0.021040
	H298	H	0.006484	1.031878	0.013825
	H299	H	0.011497	1.019832	0.011362
	O300	O	1.036287	-0.014097	1.018625
	H301	H	1.041322	-0.018562	1.018879
	H302	H	1.026387	-0.016389	1.025659
	O303	O	0.516345	0.477272	0.477678
	H304	H	0.514240	0.479507	0.471402
	H305	H	0.513955	0.487777	0.484678
	O306	O	0.019631	1.006268	1.041087
	H307	H	0.023562	1.001629	1.049903
	H308	H	0.017592	1.003839	1.045995
	O309	O	0.537529	0.451006	0.415301
	H310	H	0.541612	0.443419	0.401268
	H311	H	0.529075	0.451189	0.417396
