data_Molecule from HDF5

_cell_length_a		16.194491
_cell_length_b		16.301283
_cell_length_c		16.214653
_cell_angle_alpha	89.716492
_cell_angle_beta	90.433292
_cell_angle_gamma	88.998999
_symmetry_space_group_name_H-M	'P 1'
_symmetry_Int_Tables_number		1

loop_
	_symmetry_equiv_pos_as_xyz
	x,y,z

loop_
	_atom_site_label
	_atom_site_type_symbol
	_atom_site_fract_x
	_atom_site_fract_y
	_atom_site_fract_z
	H0	H	0.397812	0.839887	0.717242
	H1	H	0.593220	0.164807	0.717749
	H2	H	0.598278	0.839414	0.286497
	H3	H	0.388766	0.163215	0.281262
	H4	H	0.713304	0.400245	0.837629
	H5	H	0.709296	0.597386	0.165288
	H6	H	0.277498	0.603527	0.837904
	H7	H	0.288649	0.403830	0.165995
	H8	H	0.836080	0.724472	0.395553
	H9	H	0.161436	0.712828	0.604059
	H10	H	0.832691	0.288077	0.603344
	H11	H	0.159306	0.283148	0.404737
	H12	H	0.832174	0.403038	0.716874
	H13	H	0.159777	0.596797	0.718541
	H14	H	0.834818	0.607400	0.282792
	H15	H	0.160646	0.399612	0.291088
	H16	H	0.391029	0.720654	0.837666
	H17	H	0.596836	0.715870	0.163779
	H18	H	0.599269	0.283330	0.837038
	H19	H	0.397232	0.283921	0.162321
	H20	H	0.717297	0.841004	0.398849
	H21	H	0.710078	0.165631	0.602984
	H22	H	0.285846	0.837864	0.599886
	H23	H	0.275614	0.164484	0.399536
	H24	H	0.901409	0.338221	0.217502
	H25	H	0.096356	0.663532	0.219012
	H26	H	0.097743	0.337362	0.788950
	H27	H	0.891453	0.664160	0.783109
	H28	H	0.211758	0.901873	0.337027
	H29	H	0.209645	0.096796	0.665328
	H30	H	0.776775	0.106454	0.338111
	H31	H	0.781998	0.902382	0.664274
	H32	H	0.333058	0.221678	0.896709
	H33	H	0.660118	0.211795	0.101326
	H34	H	0.331857	0.789534	0.100033
	H35	H	0.657591	0.782288	0.899997
	H36	H	0.332220	0.903275	0.215746
	H37	H	0.658286	0.098649	0.218811
	H38	H	0.331297	0.103685	0.785445
	H39	H	0.658846	0.898892	0.786656
	H40	H	0.891181	0.222043	0.338868
	H41	H	0.095886	0.213576	0.665306
	H42	H	0.101038	0.782495	0.339206
	H43	H	0.897699	0.785997	0.664443
	H44	H	0.214620	0.338263	0.904758
	H45	H	0.209693	0.664103	0.100344
	H46	H	0.784460	0.338224	0.102006
	H47	H	0.774176	0.663626	0.897928
	H48	H	0.395313	0.119728	0.589528
	H49	H	0.600308	0.883199	0.597607
	H50	H	0.580151	0.115510	0.413505
	H51	H	0.401117	0.884401	0.410060
	H52	H	0.591223	0.407776	0.116709
	H53	H	0.588900	0.596347	0.881727
	H54	H	0.399103	0.591171	0.118353
	H55	H	0.403851	0.409913	0.882307
	H56	H	0.113577	0.588436	0.412756
	H57	H	0.881041	0.596381	0.585510
	H58	H	0.117863	0.399674	0.606098
	H59	H	0.879448	0.409321	0.415799
	H60	H	0.112661	0.399529	0.584820
	H61	H	0.881050	0.590569	0.592894
	H62	H	0.113968	0.591252	0.408841
	H63	H	0.881217	0.420868	0.408641
	H64	H	0.410139	0.594430	0.116550
	H65	H	0.585661	0.585046	0.885784
	H66	H	0.587525	0.406164	0.117154
	H67	H	0.403610	0.413339	0.883461
	H68	H	0.589512	0.119151	0.409286
	H69	H	0.580190	0.887800	0.599081
	H70	H	0.400444	0.120152	0.597537
	H71	H	0.404455	0.884372	0.404142
	H72	H	0.904483	0.617014	0.091511
	H73	H	0.096904	0.382978	0.100742
	H74	H	0.080985	0.615016	0.913744
	H75	H	0.898489	0.382576	0.904795
	H76	H	0.089065	0.917443	0.613896
	H77	H	0.087742	0.099898	0.381327
	H78	H	0.908505	0.082805	0.613074
	H79	H	0.908594	0.911969	0.385111
	H80	H	0.609617	0.085117	0.913598
	H81	H	0.378727	0.097107	0.088388
	H82	H	0.609578	0.909359	0.085920
	H83	H	0.382198	0.917833	0.916983
	H84	H	0.612782	0.911719	0.099581
	H85	H	0.379783	0.093241	0.088807
	H86	H	0.614765	0.089265	0.900639
	H87	H	0.376136	0.917855	0.896730
	H88	H	0.910831	0.107315	0.619282
	H89	H	0.089310	0.089529	0.384335
	H90	H	0.082562	0.900315	0.617948
	H91	H	0.905440	0.915618	0.385488
	H92	H	0.091056	0.617766	0.912023
	H93	H	0.088913	0.384952	0.098435
	H94	H	0.900711	0.616955	0.090731
	H95	H	0.913488	0.386955	0.905767
	H96	H	0.403456	0.116811	0.589662
	H97	H	0.590066	0.890392	0.581228
	H98	H	0.580745	0.118694	0.403351
	H99	H	0.406857	0.886512	0.409529
	H100	H	0.590904	0.403481	0.118603
	H101	H	0.577629	0.594795	0.885927
	H102	H	0.402078	0.603312	0.120699
	H103	H	0.406567	0.411765	0.883132
	H104	H	0.114366	0.593263	0.413623
	H105	H	0.877807	0.599744	0.594635
	H106	H	0.110248	0.417229	0.595830
	H107	H	0.876214	0.409848	0.402775
	H108	H	0.901911	0.618229	0.093954
	H109	H	0.095623	0.384048	0.092918
	H110	H	0.083816	0.618323	0.903868
	H111	H	0.904623	0.387987	0.918416
	H112	H	0.101153	0.904063	0.621387
	H113	H	0.080321	0.093925	0.385717
	H114	H	0.889256	0.095746	0.623089
	H115	H	0.910487	0.915394	0.387358
	H116	H	0.613602	0.098784	0.912529
	H117	H	0.377982	0.095430	0.091488
	H118	H	0.615313	0.899038	0.094777
	H119	H	0.374522	0.900466	0.908232
	C120	C	0.373759	0.010601	0.621456
	C121	C	0.618014	0.994458	0.622725
	C122	C	0.615956	0.010659	0.379357
	C123	C	0.372740	0.992890	0.378119
	C124	C	0.619541	0.377056	0.009252
	C125	C	0.614871	0.621241	0.992309
	C126	C	0.372835	0.625532	0.010019
	C127	C	0.376968	0.381573	0.991649
	C128	C	0.006627	0.623788	0.379919
	C129	C	0.988004	0.622551	0.622281
	C130	C	0.005052	0.378664	0.624383
	C131	C	0.987133	0.380998	0.381155
	C132	C	0.875600	0.509937	0.122306
	C133	C	0.120553	0.492230	0.125471
	C134	C	0.116647	0.509361	0.881304
	C135	C	0.873315	0.492931	0.878827
	C136	C	0.120402	0.878052	0.510111
	C137	C	0.115409	0.121832	0.492546
	C138	C	0.871950	0.125731	0.510440
	C139	C	0.877476	0.882986	0.493220
	C140	C	0.504703	0.123063	0.878311
	C141	C	0.487202	0.122218	0.120879
	C142	C	0.504332	0.879643	0.122155
	C143	C	0.485636	0.880543	0.878675
	C144	C	0.377794	0.888164	0.678249
	C145	C	0.614370	0.116316	0.679374
	C146	C	0.617752	0.888232	0.324016
	C147	C	0.370943	0.115046	0.320588
	C148	C	0.675573	0.379642	0.886401
	C149	C	0.671448	0.618337	0.115981
	C150	C	0.314997	0.624273	0.887148
	C151	C	0.324204	0.383194	0.115979
	C152	C	0.884262	0.684098	0.377701
	C153	C	0.111719	0.675939	0.623285
	C154	C	0.881853	0.325482	0.622559
	C155	C	0.110407	0.322304	0.384146
	C156	C	0.881609	0.382872	0.679194
	C157	C	0.111110	0.618175	0.680413
	C158	C	0.883820	0.625780	0.321583
	C159	C	0.111156	0.380318	0.327791
	C160	C	0.371381	0.682540	0.887015
	C161	C	0.615356	0.677141	0.115245
	C162	C	0.618517	0.321715	0.886072
	C163	C	0.378355	0.323607	0.114155
	C164	C	0.677031	0.889282	0.379804
	C165	C	0.672333	0.116760	0.621854
	C166	C	0.321649	0.887365	0.619885
	C167	C	0.314440	0.115700	0.379221
	C168	C	0.880072	0.387187	0.179056
	C169	C	0.116788	0.614971	0.180630
	C170	C	0.116930	0.386192	0.826521
	C171	C	0.872129	0.615313	0.821492
	C172	C	0.175036	0.880778	0.386440
	C173	C	0.171667	0.117934	0.616199
	C174	C	0.814956	0.125828	0.387280
	C175	C	0.820904	0.883371	0.615672
	C176	C	0.381723	0.182203	0.877780
	C177	C	0.610536	0.175496	0.121142
	C178	C	0.380900	0.826420	0.120033
	C179	C	0.608938	0.821715	0.880167
	C180	C	0.381062	0.883288	0.177318
	C181	C	0.609668	0.118751	0.179401
	C182	C	0.380872	0.123833	0.822087
	C183	C	0.609490	0.879860	0.823673
	C184	C	0.871928	0.183363	0.387660
	C185	C	0.114673	0.175591	0.616322
	C186	C	0.120112	0.821410	0.387511
	C187	C	0.878143	0.824944	0.615634
	C188	C	0.175455	0.386845	0.884058
	C189	C	0.173090	0.615376	0.121735
	C190	C	0.822034	0.387005	0.121412
	C191	C	0.813744	0.615091	0.878604
	C192	C	0.393891	0.096663	0.598993
	C193	C	0.596521	0.909240	0.599523
	C194	C	0.590736	0.095857	0.402076
	C195	C	0.397044	0.907255	0.401229
	C196	C	0.596619	0.399289	0.095098
	C197	C	0.590908	0.598573	0.906757
	C198	C	0.396783	0.602968	0.096031
	C199	C	0.398357	0.404786	0.905403
	C200	C	0.091845	0.598512	0.404561
	C201	C	0.902359	0.601844	0.597948
	C202	C	0.091349	0.399457	0.602230
	C203	C	0.901217	0.405972	0.402736
	C204	C	0.896344	0.595204	0.098904
	C205	C	0.099969	0.406312	0.103811
	C206	C	0.092199	0.594892	0.903311
	C207	C	0.898230	0.407884	0.902643
	C208	C	0.097566	0.900536	0.595575
	C209	C	0.092360	0.100691	0.406242
	C210	C	0.895667	0.102286	0.596333
	C211	C	0.901207	0.907161	0.408053
	C212	C	0.590449	0.098333	0.901940
	C213	C	0.401120	0.101302	0.096636
	C214	C	0.590319	0.900564	0.099944
	C215	C	0.399902	0.904833	0.900820
	Zn216	Zn	0.495248	0.002250	0.750827
	Zn217	Zn	0.494873	0.000965	0.250313
	Zn218	Zn	0.745043	0.500973	0.001252
	Zn219	Zn	0.247863	0.501809	0.002234
	Zn220	Zn	-0.001950	0.751737	0.501260
	Zn221	Zn	-0.004900	0.251847	0.501843
	Zn222	Zn	-0.004178	0.500953	0.750924
	Zn223	Zn	-0.002729	0.501551	0.252810
	Zn224	Zn	0.494912	0.752519	0.000610
	Zn225	Zn	0.496303	0.250949	-0.000567
	Zn226	Zn	0.745826	0.003153	0.500565
	Zn227	Zn	0.245436	0.001413	0.500330
	N228	N	0.409507	0.965883	0.679233
	N229	N	0.581274	0.039046	0.680188
	N230	N	0.580418	0.964626	0.323593
	N231	N	0.406492	0.037690	0.319808
	N232	N	0.676572	0.413130	0.964049
	N233	N	0.671480	0.584545	0.038457
	N234	N	0.315545	0.589756	0.964725
	N235	N	0.323053	0.418645	0.038719
	N236	N	0.961570	0.683038	0.413154
	N237	N	0.034261	0.678834	0.587789
	N238	N	0.959679	0.322522	0.589151
	N239	N	0.032157	0.322607	0.416732
	N240	N	0.959385	0.415320	0.680388
	N241	N	0.033316	0.585689	0.680049
	N242	N	0.960991	0.588962	0.322726
	N243	N	0.033736	0.416361	0.326072
	N244	N	0.406224	0.684012	0.964664
	N245	N	0.580890	0.679292	0.037353
	N246	N	0.584537	0.319854	0.963551
	N247	N	0.410547	0.322535	0.035835
	N248	N	0.675790	0.966405	0.413767
	N249	N	0.674493	0.039947	0.587324
	N250	N	0.318990	0.964573	0.585197
	N251	N	0.315090	0.038578	0.413955
	N252	N	0.912628	0.464668	0.179873
	N253	N	0.084863	0.537392	0.183075
	N254	N	0.081104	0.463269	0.824710
	N255	N	0.908146	0.538314	0.821346
	N256	N	0.175460	0.915078	0.463736
	N257	N	0.172281	0.085143	0.538302
	N258	N	0.814819	0.090870	0.464608
	N259	N	0.820385	0.918695	0.538553
	N260	N	0.459645	0.181894	0.911958
	N261	N	0.533249	0.177686	0.085352
	N262	N	0.458410	0.824143	0.086328
	N263	N	0.531103	0.822027	0.913619
	N264	N	0.458952	0.915464	0.179085
	N265	N	0.531880	0.086516	0.179392
	N266	N	0.458273	0.087695	0.822347
	N267	N	0.532056	0.915987	0.822813
	N268	N	0.906791	0.183566	0.465305
	N269	N	0.080273	0.178111	0.538435
	N270	N	0.087000	0.819329	0.465344
	N271	N	0.912853	0.824655	0.538297
	N272	N	0.175179	0.464290	0.917551
	N273	N	0.175744	0.538061	0.088365
	N274	N	0.819064	0.464113	0.086702
	N275	N	0.814136	0.537946	0.913381
	O276	O	1.050293	0.082091	1.047047
	H277	H	1.054150	0.084998	1.047736
	H278	H	1.049335	0.088766	1.041226
	O279	O	0.557872	0.606760	0.573982
	H280	H	0.562887	0.617870	0.583428
	H281	H	0.559139	0.618011	0.580672
	O282	O	0.482055	0.411891	0.461057
	H283	H	0.466239	0.415462	0.451954
	H284	H	0.479082	0.401402	0.456420
	O285	O	0.540968	0.430525	0.506826
	H286	H	0.533977	0.415890	0.513978
	H287	H	0.535612	0.428463	0.503882
	O288	O	0.500369	0.552626	0.499947
	H289	H	0.509062	0.543805	0.511610
	H290	H	0.496485	0.548936	0.502769
	O291	O	-0.064841	0.019830	0.959935
	H292	H	-0.058397	0.012245	0.961677
	H293	H	-0.073743	0.011636	0.958174
	O294	O	0.958145	0.881842	-0.006771
	H295	H	0.965137	0.881187	-0.006205
	H296	H	0.964517	0.873462	-0.002324
	O297	O	0.857872	0.882155	-0.012027
	H298	H	0.854159	0.893938	-0.005023
	H299	H	0.865823	0.886318	-0.017723
	O300	O	0.613584	0.636789	0.485715
	H301	H	0.624810	0.630972	0.483461
	H302	H	0.609367	0.640793	0.480451
	O303	O	0.452562	0.620297	0.423342
	H304	H	0.458472	0.609958	0.424984
	H305	H	0.454847	0.620105	0.420569
	O306	O	0.499363	0.474647	0.430847
	H307	H	0.504703	0.479570	0.427216
	H308	H	0.497752	0.473768	0.435953
	O309	O	0.535512	0.466859	0.400305
	H310	H	0.553278	0.463467	0.414230
	H311	H	0.545990	0.461579	0.400900
	O312	O	0.978342	0.995436	1.012956
	H313	H	0.978992	0.986272	1.007172
	H314	H	0.971107	0.991885	1.002462
	O315	O	1.053464	0.928123	0.106735
	H316	H	1.051134	0.931411	0.097291
	H317	H	1.046608	0.937801	0.108111
	O318	O	0.512776	0.540343	0.523216
	H319	H	0.502918	0.545835	0.522692
	H320	H	0.516764	0.550171	0.508778
	O321	O	0.645647	0.523009	0.597973
	H322	H	0.642222	0.535080	0.597793
	H323	H	0.651285	0.514123	0.594877
	O324	O	-0.038814	0.998921	0.864328
	H325	H	-0.040477	1.010613	0.870409
	H326	H	-0.046669	0.983712	0.870821
	O327	O	-0.060667	0.978682	1.086676
	H328	H	-0.056701	0.969665	1.072517
	H329	H	-0.063040	0.981143	1.083842
	O330	O	-0.045096	0.012524	-0.067886
	H331	H	-0.033723	0.012965	-0.073868
	H332	H	-0.034193	0.004973	-0.069746
	O333	O	0.381882	0.615829	0.473499
	H334	H	0.366891	0.618510	0.467814
	H335	H	0.393446	0.601508	0.462942
	O336	O	-0.105427	0.073232	0.051358
	H337	H	-0.098089	0.067946	0.043658
	H338	H	-0.106845	0.091953	0.051800
	O339	O	0.072634	0.063184	0.119558
	H340	H	0.063603	0.070052	0.123018
	H341	H	0.064273	0.066178	0.119776
	O342	O	0.618321	0.459295	0.440268
	H343	H	0.621557	0.454316	0.438200
	H344	H	0.625041	0.457298	0.447026
	O345	O	0.025712	0.913402	0.957351
	H346	H	0.026064	0.914023	0.963510
	H347	H	0.034399	0.910368	0.974260
	O348	O	0.392261	0.576264	0.539950
	H349	H	0.393927	0.575005	0.539776
	H350	H	0.381114	0.574219	0.528218
	O351	O	0.561831	0.589389	0.402050
	H352	H	0.558477	0.586077	0.411616
	H353	H	0.562423	0.590266	0.393599
	O354	O	0.026779	1.057059	0.052081
	H355	H	0.032331	1.065854	0.051983
	H356	H	0.016680	1.053183	0.049697
	O357	O	0.535568	0.417863	0.484513
	H358	H	0.551406	0.429810	0.490718
	H359	H	0.530128	0.409295	0.488994
	O360	O	0.988053	-0.048046	1.012482
	H361	H	0.996177	-0.058583	1.018756
	H362	H	0.973931	-0.046307	1.008099
	O363	O	0.458696	0.427091	0.594398
	H364	H	0.454520	0.426980	0.598608
	H365	H	0.454119	0.433917	0.584816
	O366	O	0.468350	0.406118	0.457719
	H367	H	0.473882	0.410383	0.466628
	H368	H	0.474591	0.402559	0.463277
	O369	O	1.017119	0.045357	0.094064
	H370	H	1.022911	0.053509	0.086710
	H371	H	1.014280	0.041461	0.099697
	O372	O	0.458483	0.376100	0.466166
	H373	H	0.452639	0.377748	0.459620
	H374	H	0.448436	0.376761	0.467191
	O375	O	0.928152	-0.013436	0.939783
	H376	H	0.929092	-0.015773	0.935288
	H377	H	0.920153	-0.005876	0.939946
	O378	O	0.094290	1.061885	-0.098911
	H379	H	0.102961	1.066049	-0.088735
	H380	H	0.107606	1.041716	-0.101937
	O381	O	0.397246	0.575702	0.510578
	H382	H	0.392217	0.574456	0.492785
	H383	H	0.399887	0.594938	0.507149
	O384	O	0.974173	0.993192	0.094813
	H385	H	0.979811	0.997190	0.085378
	H386	H	0.963606	0.980129	0.091020
	O387	O	1.127624	-0.122877	0.888384
	H388	H	1.128295	-0.123047	0.885473
	H389	H	1.119393	-0.126306	0.900867
	O390	O	0.890635	1.080766	-0.136247
	H391	H	0.888740	1.076610	-0.138158
	H392	H	0.878804	1.087245	-0.149482
	O393	O	0.422257	0.557721	0.641032
	H394	H	0.416388	0.554486	0.642166
	H395	H	0.424248	0.567991	0.647235
