data_Molecule from HDF5

_cell_length_a		16.157634
_cell_length_b		16.251040
_cell_length_c		16.267275
_cell_angle_alpha	90.012303
_cell_angle_beta	90.235471
_cell_angle_gamma	90.135445
_symmetry_space_group_name_H-M	'P 1'
_symmetry_Int_Tables_number		1

loop_
	_symmetry_equiv_pos_as_xyz
	x,y,z

loop_
	_atom_site_label
	_atom_site_type_symbol
	_atom_site_fract_x
	_atom_site_fract_y
	_atom_site_fract_z
	H0	H	0.394299	0.838468	0.711765
	H1	H	0.593841	0.166972	0.715285
	H2	H	0.591288	0.839147	0.286190
	H3	H	0.392449	0.165763	0.280077
	H4	H	0.706331	0.403293	0.834263
	H5	H	0.707345	0.599805	0.161981
	H6	H	0.279170	0.600886	0.834005
	H7	H	0.278991	0.404296	0.162376
	H8	H	0.828178	0.718218	0.397659
	H9	H	0.157015	0.718939	0.597109
	H10	H	0.827768	0.289958	0.596072
	H11	H	0.157044	0.290695	0.398022
	H12	H	0.827807	0.404406	0.711650
	H13	H	0.156710	0.605437	0.713880
	H14	H	0.828102	0.604240	0.282763
	H15	H	0.157782	0.407989	0.284330
	H16	H	0.393389	0.717658	0.835520
	H17	H	0.593612	0.716187	0.162532
	H18	H	0.593990	0.285306	0.835440
	H19	H	0.394947	0.286802	0.162229
	H20	H	0.706726	0.840475	0.400818
	H21	H	0.706915	0.168818	0.597432
	H22	H	0.278187	0.839334	0.595781
	H23	H	0.280374	0.168475	0.399721
	H24	H	0.892743	0.341822	0.213681
	H25	H	0.092246	0.669068	0.211147
	H26	H	0.091625	0.341213	0.781888
	H27	H	0.892791	0.667821	0.783306
	H28	H	0.204864	0.908148	0.333945
	H29	H	0.208139	0.103218	0.662864
	H30	H	0.778447	0.101664	0.334359
	H31	H	0.780649	0.906409	0.662556
	H32	H	0.329997	0.217145	0.897196
	H33	H	0.657748	0.217416	0.098979
	H34	H	0.329034	0.788050	0.096304
	H35	H	0.658319	0.789162	0.900776
	H36	H	0.329169	0.901369	0.212769
	H37	H	0.658614	0.101224	0.213319
	H38	H	0.329542	0.101468	0.783184
	H39	H	0.657682	0.902601	0.784322
	H40	H	0.893568	0.218717	0.334087
	H41	H	0.093731	0.221383	0.661666
	H42	H	0.091493	0.790753	0.334286
	H43	H	0.893492	0.788637	0.661083
	H44	H	0.205290	0.339382	0.898862
	H45	H	0.207692	0.668328	0.094626
	H46	H	0.780537	0.339337	0.094960
	H47	H	0.777718	0.667475	0.899083
	H48	H	0.398641	0.121314	0.592483
	H49	H	0.591953	0.884934	0.595154
	H50	H	0.584866	0.120287	0.407975
	H51	H	0.406303	0.883469	0.390082
	H52	H	0.600961	0.414945	0.117770
	H53	H	0.588632	0.603315	0.878193
	H54	H	0.396495	0.598642	0.118444
	H55	H	0.403562	0.404462	0.881744
	H56	H	0.111773	0.596863	0.399868
	H57	H	0.874115	0.599620	0.589021
	H58	H	0.109509	0.410580	0.585832
	H59	H	0.873667	0.406468	0.406678
	H60	H	0.107862	0.419079	0.589090
	H61	H	0.875857	0.595575	0.587760
	H62	H	0.112314	0.603631	0.404638
	H63	H	0.877782	0.417081	0.407883
	H64	H	0.399249	0.589405	0.114322
	H65	H	0.589307	0.589668	0.881654
	H66	H	0.575281	0.418778	0.108243
	H67	H	0.395238	0.409833	0.879996
	H68	H	0.587219	0.122305	0.403412
	H69	H	0.581724	0.886735	0.595324
	H70	H	0.405744	0.119808	0.595189
	H71	H	0.407301	0.894188	0.417553
	H72	H	0.901185	0.620851	0.090419
	H73	H	0.084687	0.388972	0.087882
	H74	H	0.080510	0.619610	0.904988
	H75	H	0.893443	0.387387	0.912838
	H76	H	0.083673	0.904481	0.616398
	H77	H	0.088558	0.090211	0.383189
	H78	H	0.902973	0.096601	0.613923
	H79	H	0.894391	0.911068	0.379922
	H80	H	0.611075	0.092066	0.906963
	H81	H	0.375158	0.092645	0.093513
	H82	H	0.606833	0.914909	0.080761
	H83	H	0.375486	0.911811	0.902556
	H84	H	0.613449	0.916577	0.105345
	H85	H	0.376238	0.097216	0.087499
	H86	H	0.611023	0.094009	0.905628
	H87	H	0.375275	0.906709	0.905336
	H88	H	0.901643	0.101433	0.616710
	H89	H	0.077399	0.100470	0.383585
	H90	H	0.092019	0.913133	0.616610
	H91	H	0.900868	0.915045	0.383137
	H92	H	0.089916	0.620782	0.910215
	H93	H	0.087152	0.386298	0.092759
	H94	H	0.899195	0.621080	0.088831
	H95	H	0.896810	0.383450	0.894130
	H96	H	0.403923	0.117821	0.587352
	H97	H	0.587568	0.888861	0.586820
	H98	H	0.582629	0.119827	0.403293
	H99	H	0.382257	0.881695	0.406827
	H100	H	0.582646	0.394390	0.118344
	H101	H	0.577109	0.597418	0.883382
	H102	H	0.406199	0.596736	0.113894
	H103	H	0.403370	0.413679	0.884665
	H104	H	0.108818	0.595660	0.408323
	H105	H	0.874404	0.596229	0.592092
	H106	H	0.111017	0.412638	0.595191
	H107	H	0.873884	0.413071	0.398515
	H108	H	0.898672	0.623320	0.091488
	H109	H	0.082033	0.387847	0.093281
	H110	H	0.089384	0.623934	0.899825
	H111	H	0.910812	0.390902	0.905164
	H112	H	0.080751	0.915833	0.612573
	H113	H	0.091106	0.105336	0.378173
	H114	H	0.898018	0.098254	0.615249
	H115	H	0.901245	0.907766	0.380281
	H116	H	0.610896	0.094523	0.908359
	H117	H	0.378554	0.089453	0.087464
	H118	H	0.615267	0.894365	0.092681
	H119	H	0.377313	0.911194	0.908536
	C120	C	0.372665	0.011375	0.620014
	C121	C	0.615653	0.995268	0.621306
	C122	C	0.613800	0.012284	0.377390
	C123	C	0.370511	0.994886	0.375502
	C124	C	0.615039	0.380553	0.006591
	C125	C	0.614847	0.624662	0.989481
	C126	C	0.372089	0.623610	0.007149
	C127	C	0.371162	0.379935	0.989943
	C128	C	0.001796	0.626920	0.375546
	C129	C	0.983583	0.625991	0.619005
	C130	C	0.000756	0.384281	0.618567
	C131	C	0.984075	0.383807	0.375859
	C132	C	0.871286	0.513209	0.119028
	C133	C	0.114522	0.495914	0.119541
	C134	C	0.114406	0.512797	0.875972
	C135	C	0.870452	0.495236	0.875378
	C136	C	0.113848	0.883323	0.506736
	C137	C	0.115400	0.127621	0.489811
	C138	C	0.871379	0.126872	0.506900
	C139	C	0.870910	0.882624	0.489521
	C140	C	0.502702	0.123184	0.877207
	C141	C	0.485390	0.122573	0.119144
	C142	C	0.502453	0.880051	0.120458
	C143	C	0.484769	0.880725	0.876899
	C144	C	0.373738	0.887976	0.674516
	C145	C	0.613902	0.118312	0.677193
	C146	C	0.611531	0.888487	0.323399
	C147	C	0.372962	0.117519	0.319291
	C148	C	0.669128	0.383176	0.883260
	C149	C	0.669753	0.620927	0.113375
	C150	C	0.316969	0.621192	0.883191
	C151	C	0.316147	0.382924	0.113128
	C152	C	0.877439	0.681035	0.377767
	C153	C	0.107863	0.681695	0.617720
	C154	C	0.876972	0.327927	0.616185
	C155	C	0.107967	0.328917	0.378348
	C156	C	0.876813	0.384963	0.673635
	C157	C	0.107574	0.624883	0.675573
	C158	C	0.877577	0.624336	0.320445
	C159	C	0.108281	0.386938	0.321568
	C160	C	0.373952	0.679186	0.883989
	C161	C	0.613432	0.679162	0.113367
	C162	C	0.613296	0.324087	0.884097
	C163	C	0.373878	0.324591	0.113258
	C164	C	0.669250	0.889231	0.380398
	C165	C	0.669781	0.119474	0.618121
	C166	C	0.316154	0.888334	0.616760
	C167	C	0.316942	0.118815	0.378537
	C168	C	0.872906	0.390316	0.175269
	C169	C	0.112696	0.619857	0.173811
	C170	C	0.111916	0.389799	0.820297
	C171	C	0.872151	0.618641	0.820592
	C172	C	0.167909	0.887202	0.383149
	C173	C	0.170870	0.124520	0.613535
	C174	C	0.816012	0.123226	0.383305
	C175	C	0.817301	0.885596	0.613342
	C176	C	0.379032	0.179082	0.877827
	C177	C	0.608877	0.178830	0.118319
	C178	C	0.378372	0.825278	0.117414
	C179	C	0.608843	0.826217	0.880133
	C180	C	0.378433	0.881890	0.175073
	C181	C	0.609406	0.121317	0.175186
	C182	C	0.378549	0.121493	0.821358
	C183	C	0.608626	0.882800	0.822270
	C184	C	0.873579	0.180924	0.383195
	C185	C	0.113717	0.183027	0.613131
	C186	C	0.111363	0.828859	0.383187
	C187	C	0.873555	0.826882	0.612474
	C188	C	0.168574	0.388966	0.878242
	C189	C	0.170344	0.619353	0.116134
	C190	C	0.817310	0.388831	0.116171
	C191	C	0.814994	0.618519	0.878159
	C192	C	0.395892	0.097607	0.598048
	C193	C	0.593453	0.909040	0.599154
	C194	C	0.591485	0.098741	0.398696
	C195	C	0.392112	0.908668	0.398085
	C196	C	0.592908	0.402853	0.092752
	C197	C	0.591909	0.603097	0.903589
	C198	C	0.394191	0.601436	0.093227
	C199	C	0.393983	0.402486	0.904326
	C200	C	0.088670	0.605213	0.397751
	C201	C	0.897259	0.603815	0.596358
	C202	C	0.087187	0.407303	0.596496
	C203	C	0.897320	0.405728	0.397872
	C204	C	0.893123	0.599377	0.096838
	C205	C	0.091479	0.409895	0.097747
	C206	C	0.092832	0.599143	0.898332
	C207	C	0.893559	0.409413	0.897433
	C208	C	0.091948	0.904849	0.592992
	C209	C	0.092649	0.105302	0.403898
	C210	C	0.893934	0.105192	0.592914
	C211	C	0.892496	0.904800	0.403337
	C212	C	0.588767	0.100195	0.900106
	C213	C	0.398991	0.099703	0.096286
	C214	C	0.589404	0.902134	0.099353
	C215	C	0.398267	0.903190	0.898983
	Zn216	Zn	0.493726	0.002357	0.749248
	Zn217	Zn	0.493510	0.002481	0.247677
	Zn218	Zn	0.742718	0.503150	-0.002496
	Zn219	Zn	0.242685	0.503108	-0.002506
	Zn220	Zn	-0.007299	0.754038	0.497409
	Zn221	Zn	-0.007099	0.255802	0.498066
	Zn222	Zn	-0.007913	0.504651	0.747416
	Zn223	Zn	-0.007054	0.505553	0.247649
	Zn224	Zn	0.493306	0.752781	-0.001254
	Zn225	Zn	0.493889	0.250937	-0.001666
	Zn226	Zn	0.742787	0.004733	0.498726
	Zn227	Zn	0.243353	0.004436	0.498593
	N228	N	0.408180	0.965610	0.676397
	N229	N	0.580901	0.040133	0.679173
	N230	N	0.577693	0.965993	0.321461
	N231	N	0.405314	0.039422	0.317147
	N232	N	0.670411	0.417451	0.960626
	N233	N	0.670974	0.588054	0.035421
	N234	N	0.315701	0.587366	0.960630
	N235	N	0.314133	0.416377	0.035421
	N236	N	0.955639	0.682505	0.411592
	N237	N	0.030069	0.682374	0.583055
	N238	N	0.955069	0.327485	0.582690
	N239	N	0.029836	0.326953	0.411481
	N240	N	0.954613	0.419533	0.675060
	N241	N	0.029406	0.590955	0.676595
	N242	N	0.955912	0.591264	0.319002
	N243	N	0.030086	0.420324	0.319819
	N244	N	0.407391	0.680861	0.962004
	N245	N	0.579631	0.681348	0.035458
	N246	N	0.580331	0.322493	0.961922
	N247	N	0.407392	0.322624	0.035719
	N248	N	0.670495	0.967166	0.413450
	N249	N	0.670994	0.041961	0.584018
	N250	N	0.315605	0.966186	0.583410
	N251	N	0.315232	0.041404	0.412717
	N252	N	0.905683	0.468514	0.177125
	N253	N	0.078829	0.542149	0.176091
	N254	N	0.079034	0.467868	0.818650
	N255	N	0.905842	0.540999	0.818741
	N256	N	0.169377	0.920351	0.460848
	N257	N	0.171984	0.090667	0.535936
	N258	N	0.814576	0.090220	0.461093
	N259	N	0.815344	0.919446	0.535826
	N260	N	0.457022	0.180175	0.911912
	N261	N	0.530875	0.179455	0.084064
	N262	N	0.456521	0.823995	0.084094
	N263	N	0.530731	0.824953	0.913498
	N264	N	0.456629	0.915317	0.177140
	N265	N	0.531346	0.087241	0.175921
	N266	N	0.456445	0.087416	0.820691
	N267	N	0.530340	0.915763	0.820146
	N268	N	0.907325	0.183270	0.460964
	N269	N	0.080278	0.185240	0.535223
	N270	N	0.078418	0.826275	0.461113
	N271	N	0.906100	0.824814	0.534482
	N272	N	0.170322	0.466569	0.912033
	N273	N	0.171515	0.541395	0.083082
	N274	N	0.816125	0.466118	0.081642
	N275	N	0.813595	0.540592	0.911315
	O276	O	0.365846	0.398934	0.486775
	H277	H	0.354959	0.385308	0.497309
	H278	H	0.366242	0.394173	0.507700
	O279	O	0.513419	0.591578	0.546807
	H280	H	0.523034	0.589663	0.545354
	H281	H	0.503885	0.589038	0.530270
	O282	O	0.507135	0.477668	0.498116
	H283	H	0.506555	0.474651	0.497376
	H284	H	0.503857	0.465921	0.495379
	O285	O	0.109156	1.104833	0.990865
	H286	H	0.111661	1.110342	1.005839
	H287	H	0.106578	1.106196	1.004139
	O288	O	0.424777	0.521106	0.431896
	H289	H	0.417938	0.518801	0.434647
	H290	H	0.412158	0.506662	0.433673
	O291	O	0.057120	0.052577	1.026089
	H292	H	0.058111	0.058503	1.021314
	H293	H	0.053781	0.057434	1.025321
	O294	O	0.447467	0.403115	0.563104
	H295	H	0.441953	0.395307	0.569833
	H296	H	0.453634	0.409091	0.566243
	O297	O	0.509929	0.484493	0.493782
	H298	H	0.504245	0.484196	0.488046
	H299	H	0.510055	0.484920	0.494094
	O300	O	0.562640	0.570674	0.504574
	H301	H	0.557906	0.571185	0.499865
	H302	H	0.564534	0.568512	0.495203
	O303	O	0.425839	0.447991	0.640801
	H304	H	0.428392	0.459893	0.649052
	H305	H	0.444824	0.447445	0.647748
	O306	O	1.077012	0.114959	1.089574
	H307	H	1.073495	0.120802	1.096351
	H308	H	1.070675	0.118572	1.080732
	O309	O	0.410658	0.460312	0.569529
	H310	H	0.422143	0.457140	0.570110
	H311	H	0.400537	0.465232	0.569307
	O312	O	0.433556	0.468938	0.565984
	H313	H	0.432887	0.471223	0.570367
	H314	H	0.438837	0.465444	0.573557
	O315	O	1.047382	0.083901	0.996815
	H316	H	1.049417	0.082088	0.993576
	H317	H	1.061209	0.073977	0.997604
	O318	O	0.041790	0.078797	0.059594
	H319	H	0.046045	0.073784	0.050574
	H320	H	0.044264	0.066835	0.060697
	O321	O	0.546791	0.438258	0.553544
	H322	H	0.552800	0.451394	0.557856
	H323	H	0.547314	0.443090	0.546051
	O324	O	1.534045	-0.452033	-0.495982
	H325	H	1.537543	-0.441299	-0.503000
	H326	H	1.528972	-0.436563	-0.506868
	O327	O	1.050559	1.087950	0.072217
	H328	H	1.046623	1.103321	0.070918
	H329	H	1.058145	1.096540	0.069575
	O330	O	0.525749	0.461681	0.548200
	H331	H	0.514846	0.461296	0.544054
	H332	H	0.534179	0.457975	0.547631
	O333	O	0.524106	0.522077	0.404687
	H334	H	0.519439	0.519028	0.394914
	H335	H	0.519275	0.514593	0.388782
