data_Molecule from HDF5

_cell_length_a		16.255777
_cell_length_b		16.264093
_cell_length_c		16.250932
_cell_angle_alpha	90.056188
_cell_angle_beta	90.062189
_cell_angle_gamma	89.921516
_symmetry_space_group_name_H-M	'P 1'
_symmetry_Int_Tables_number		1

loop_
	_symmetry_equiv_pos_as_xyz
	x,y,z

loop_
	_atom_site_label
	_atom_site_type_symbol
	_atom_site_fract_x
	_atom_site_fract_y
	_atom_site_fract_z
	H0	H	0.393674	0.828843	0.722158
	H1	H	0.588807	0.156327	0.723728
	H2	H	0.590353	0.829374	0.294092
	H3	H	0.392786	0.157788	0.294697
	H4	H	0.704525	0.395681	0.844942
	H5	H	0.704716	0.590649	0.173634
	H6	H	0.277368	0.592161	0.845495
	H7	H	0.278801	0.395655	0.174141
	H8	H	0.827178	0.706923	0.411352
	H9	H	0.154554	0.707301	0.608944
	H10	H	0.827555	0.278909	0.608581
	H11	H	0.155682	0.278720	0.412149
	H12	H	0.827954	0.393960	0.724885
	H13	H	0.155720	0.590869	0.723471
	H14	H	0.827812	0.592568	0.294544
	H15	H	0.156086	0.394389	0.296190
	H16	H	0.393421	0.705945	0.844681
	H17	H	0.590213	0.708177	0.172895
	H18	H	0.590532	0.278277	0.845414
	H19	H	0.394018	0.279729	0.173644
	H20	H	0.707147	0.829324	0.409347
	H21	H	0.704507	0.156814	0.607906
	H22	H	0.276773	0.829402	0.607362
	H23	H	0.275768	0.157161	0.409749
	H24	H	0.895049	0.328232	0.222232
	H25	H	0.089237	0.657655	0.224622
	H26	H	0.089893	0.328766	0.796648
	H27	H	0.894913	0.657123	0.797054
	H28	H	0.204300	0.895549	0.344394
	H29	H	0.206534	0.092469	0.672494
	H30	H	0.777180	0.091070	0.344946
	H31	H	0.778085	0.894658	0.673049
	H32	H	0.326357	0.207640	0.911933
	H33	H	0.655554	0.206297	0.106621
	H34	H	0.326844	0.779925	0.106138
	H35	H	0.654840	0.780663	0.911657
	H36	H	0.326924	0.895694	0.222682
	H37	H	0.655608	0.091162	0.223024
	H38	H	0.326322	0.092249	0.794677
	H39	H	0.654854	0.896265	0.796121
	H40	H	0.892114	0.208400	0.346330
	H41	H	0.089271	0.206006	0.673931
	H42	H	0.089388	0.777981	0.345607
	H43	H	0.893574	0.778713	0.673104
	H44	H	0.206214	0.329649	0.912310
	H45	H	0.206030	0.657913	0.108464
	H46	H	0.777124	0.329162	0.107601
	H47	H	0.777674	0.656940	0.912070
	H48	H	0.402015	0.108215	0.599825
	H49	H	0.583666	0.873652	0.608908
	H50	H	0.589655	0.108865	0.423031
	H51	H	0.395992	0.875858	0.414222
	H52	H	0.595950	0.407351	0.127391
	H53	H	0.589765	0.582416	0.892070
	H54	H	0.402455	0.595456	0.128158
	H55	H	0.393234	0.408191	0.894088
	H56	H	0.105574	0.581591	0.419186
	H57	H	0.876443	0.581551	0.600750
	H58	H	0.109564	0.400189	0.608397
	H59	H	0.879276	0.404789	0.425912
	H60	H	0.109836	0.394639	0.602076
	H61	H	0.872947	0.585433	0.608790
	H62	H	0.109034	0.585407	0.413469
	H63	H	0.874251	0.406888	0.406766
	H64	H	0.390774	0.583741	0.127265
	H65	H	0.580316	0.586598	0.893682
	H66	H	0.573405	0.405059	0.121511
	H67	H	0.407342	0.399454	0.895277
	H68	H	0.586572	0.112482	0.409823
	H69	H	0.580958	0.878226	0.598157
	H70	H	0.393730	0.110445	0.599987
	H71	H	0.400690	0.877118	0.414141
	H72	H	0.897363	0.607489	0.096160
	H73	H	0.085683	0.379950	0.092112
	H74	H	0.084009	0.611192	0.913034
	H75	H	0.895188	0.379178	0.931981
	H76	H	0.087894	0.902597	0.626816
	H77	H	0.086956	0.086631	0.391410
	H78	H	0.895807	0.090339	0.628479
	H79	H	0.895059	0.897687	0.389756
	H80	H	0.608613	0.089141	0.914747
	H81	H	0.373717	0.082611	0.108952
	H82	H	0.610096	0.897336	0.107167
	H83	H	0.375934	0.914353	0.911146
	H84	H	0.607358	0.896762	0.096804
	H85	H	0.371669	0.094699	0.102868
	H86	H	0.606406	0.085991	0.918851
	H87	H	0.367570	0.889660	0.904434
	H88	H	0.895051	0.084045	0.626314
	H89	H	0.083338	0.082879	0.393498
	H90	H	0.080980	0.901434	0.624350
	H91	H	0.898723	0.905186	0.393798
	H92	H	0.083010	0.608794	0.918185
	H93	H	0.095166	0.373562	0.108152
	H94	H	0.892858	0.613181	0.107135
	H95	H	0.886320	0.369599	0.906669
	H96	H	0.398051	0.111405	0.607131
	H97	H	0.591880	0.874865	0.600367
	H98	H	0.576595	0.106654	0.417907
	H99	H	0.398509	0.878486	0.417801
	H100	H	0.585515	0.386708	0.130241
	H101	H	0.587164	0.591569	0.889574
	H102	H	0.406720	0.580632	0.122382
	H103	H	0.394163	0.392002	0.888704
	H104	H	0.108409	0.588573	0.420094
	H105	H	0.874044	0.590747	0.600881
	H106	H	0.107130	0.402852	0.601032
	H107	H	0.871434	0.388841	0.415876
	H108	H	0.905123	0.608806	0.106071
	H109	H	0.075826	0.377008	0.109560
	H110	H	0.088158	0.610961	0.917155
	H111	H	0.912821	0.378492	0.910369
	H112	H	0.085345	0.896068	0.627413
	H113	H	0.081298	0.088715	0.392316
	H114	H	0.900677	0.087106	0.626070
	H115	H	0.903434	0.897120	0.393445
	H116	H	0.607283	0.083983	0.913533
	H117	H	0.377402	0.083957	0.095715
	H118	H	0.606384	0.906128	0.102191
	H119	H	0.376166	0.894435	0.929661
	C120	C	0.369727	0.001453	0.630242
	C121	C	0.613165	0.984127	0.630967
	C122	C	0.613438	0.001399	0.387319
	C123	C	0.369452	0.985336	0.386756
	C124	C	0.613128	0.371640	0.017662
	C125	C	0.613527	0.615105	1.000646
	C126	C	0.371047	0.614468	0.017467
	C127	C	0.370192	0.371894	1.001255
	C128	C	-0.000661	0.614130	0.388553
	C129	C	0.983146	0.614013	0.631346
	C130	C	0.000428	0.371271	0.631829
	C131	C	0.983552	0.371600	0.388310
	C132	C	0.870239	0.501441	0.131124
	C133	C	0.113856	0.485339	0.131792
	C134	C	0.113368	0.501678	0.888282
	C135	C	0.870032	0.484245	0.888176
	C136	C	0.113134	0.871043	0.517731
	C137	C	0.112844	0.114599	0.500607
	C138	C	0.869144	0.115171	0.518274
	C139	C	0.870681	0.871814	0.500823
	C140	C	0.498864	0.115016	0.887381
	C141	C	0.483131	0.114774	0.130600
	C142	C	0.499522	0.871624	0.130362
	C143	C	0.482033	0.871842	0.887618
	C144	C	0.372962	0.877985	0.684539
	C145	C	0.609621	0.107532	0.685746
	C146	C	0.611146	0.878371	0.331687
	C147	C	0.371987	0.108718	0.332012
	C148	C	0.667556	0.374664	0.894082
	C149	C	0.667427	0.611687	0.124406
	C150	C	0.315369	0.611872	0.894351
	C151	C	0.315572	0.374693	0.124835
	C152	C	0.876387	0.669660	0.390534
	C153	C	0.106071	0.669218	0.628807
	C154	C	0.876490	0.316925	0.628709
	C155	C	0.106841	0.316264	0.391113
	C156	C	0.876508	0.374056	0.686533
	C157	C	0.106504	0.611239	0.685869
	C158	C	0.876451	0.612177	0.333089
	C159	C	0.106963	0.373828	0.333564
	C160	C	0.373023	0.668592	0.893769
	C161	C	0.610652	0.670128	0.124062
	C162	C	0.610462	0.316611	0.894191
	C163	C	0.372971	0.317163	0.124680
	C164	C	0.669021	0.878278	0.389154
	C165	C	0.667098	0.107606	0.628124
	C166	C	0.314549	0.878397	0.627900
	C167	C	0.313797	0.108280	0.389294
	C168	C	0.873710	0.377418	0.184963
	C169	C	0.110412	0.608797	0.186799
	C170	C	0.110611	0.377963	0.834202
	C171	C	0.873499	0.608056	0.834201
	C172	C	0.167462	0.874050	0.393948
	C173	C	0.167932	0.112109	0.624100
	C174	C	0.814680	0.112061	0.394362
	C175	C	0.816046	0.874654	0.624221
	C176	C	0.375246	0.169589	0.890906
	C177	C	0.606614	0.168967	0.127407
	C178	C	0.375858	0.817277	0.127216
	C179	C	0.605728	0.817571	0.890418
	C180	C	0.375929	0.874559	0.185169
	C181	C	0.606736	0.111418	0.184972
	C182	C	0.375300	0.112247	0.832829
	C183	C	0.605913	0.875205	0.833287
	C184	C	0.871807	0.170221	0.394884
	C185	C	0.110057	0.168826	0.624599
	C186	C	0.110300	0.815741	0.394323
	C187	C	0.873181	0.816934	0.624465
	C188	C	0.168214	0.378350	0.891787
	C189	C	0.168256	0.608881	0.129185
	C190	C	0.815022	0.378014	0.128408
	C191	C	0.815671	0.608108	0.891458
	C192	C	0.391587	0.087772	0.608675
	C193	C	0.591630	0.897863	0.609045
	C194	C	0.590770	0.087242	0.410021
	C195	C	0.392021	0.899359	0.408742
	C196	C	0.591315	0.393268	0.104056
	C197	C	0.592030	0.593202	0.914069
	C198	C	0.393515	0.593108	0.103569
	C199	C	0.391809	0.393337	0.915026
	C200	C	0.085527	0.591683	0.411011
	C201	C	0.896679	0.592185	0.609774
	C202	C	0.086623	0.392755	0.610186
	C203	C	0.897296	0.393649	0.409838
	C204	C	0.892014	0.587599	0.109561
	C205	C	0.092031	0.399131	0.109787
	C206	C	0.091576	0.587972	0.909656
	C207	C	0.891592	0.398038	0.909873
	C208	C	0.091108	0.893263	0.603776
	C209	C	0.090548	0.092506	0.414770
	C210	C	0.890828	0.093616	0.604552
	C211	C	0.892706	0.893551	0.414657
	C212	C	0.585039	0.093169	0.909400
	C213	C	0.396445	0.093227	0.108890
	C214	C	0.585614	0.893552	0.108604
	C215	C	0.395576	0.893330	0.908768
	Zn216	Zn	0.490588	-0.007223	0.759124
	Zn217	Zn	0.491329	-0.006907	0.258613
	Zn218	Zn	0.741767	0.492875	0.009229
	Zn219	Zn	0.242015	0.493860	0.009886
	Zn220	Zn	-0.008706	0.742829	0.509868
	Zn221	Zn	-0.008268	0.243104	0.509985
	Zn222	Zn	-0.008460	0.492727	0.760170
	Zn223	Zn	-0.008488	0.492777	0.259869
	Zn224	Zn	0.491305	0.743143	0.008719
	Zn225	Zn	0.491599	0.243531	0.009467
	Zn226	Zn	0.741582	-0.007368	0.509365
	Zn227	Zn	0.241348	-0.006515	0.509064
	N228	N	0.406330	0.955596	0.686258
	N229	N	0.576771	0.029699	0.687788
	N230	N	0.577086	0.955995	0.330620
	N231	N	0.405893	0.031182	0.330460
	N232	N	0.669161	0.408101	0.971862
	N233	N	0.669371	0.578345	0.046626
	N234	N	0.313998	0.578936	0.972268
	N235	N	0.313807	0.408174	0.047081
	N236	N	0.953899	0.670782	0.424555
	N237	N	0.028278	0.671232	0.595686
	N238	N	0.954367	0.315027	0.595389
	N239	N	0.029169	0.314807	0.424492
	N240	N	0.954472	0.406973	0.688735
	N241	N	0.028944	0.577865	0.687596
	N242	N	0.954235	0.578704	0.331410
	N243	N	0.029270	0.407342	0.331629
	N244	N	0.406986	0.670423	0.971293
	N245	N	0.577871	0.672351	0.046028
	N246	N	0.577357	0.314671	0.972052
	N247	N	0.406252	0.315371	0.046905
	N248	N	0.670379	0.955673	0.423157
	N249	N	0.669421	0.029822	0.594840
	N250	N	0.312607	0.956154	0.594746
	N251	N	0.312396	0.030615	0.422803
	N252	N	0.907239	0.455093	0.186909
	N253	N	0.077409	0.530831	0.188728
	N254	N	0.077192	0.455691	0.832050
	N255	N	0.906450	0.530101	0.832062
	N256	N	0.169377	0.907622	0.471577
	N257	N	0.169734	0.079098	0.546265
	N258	N	0.813001	0.078541	0.471958
	N259	N	0.814324	0.907960	0.546440
	N260	N	0.453081	0.171302	0.924142
	N261	N	0.528666	0.170975	0.094444
	N262	N	0.453682	0.815309	0.093929
	N263	N	0.527856	0.815489	0.923550
	N264	N	0.453717	0.907702	0.187173
	N265	N	0.528699	0.078545	0.187065
	N266	N	0.453146	0.079081	0.830405
	N267	N	0.528040	0.908082	0.831264
	N268	N	0.904995	0.172346	0.472807
	N269	N	0.076207	0.170413	0.546933
	N270	N	0.077368	0.813813	0.472311
	N271	N	0.906456	0.814996	0.546762
	N272	N	0.170086	0.456250	0.924685
	N273	N	0.170348	0.531171	0.095820
	N274	N	0.812681	0.455951	0.095825
	N275	N	0.813602	0.530191	0.924341
	O276	O	1.441701	0.512373	0.456049
	H277	H	1.452212	0.516349	0.453981
	H278	H	1.443288	0.514201	0.463707
	O279	O	0.425473	0.485058	0.407105
	H280	H	0.422124	0.487306	0.412288
	H281	H	0.411445	0.479096	0.395689
	O282	O	1.483016	1.496010	-0.576018
	H283	H	1.485156	1.497544	-0.580564
	H284	H	1.478138	1.495059	-0.577048
	O285	O	0.453013	0.500086	0.432986
	H286	H	0.447836	0.504180	0.433769
	H287	H	0.454820	0.496168	0.431201
