data_Molecule from HDF5

_cell_length_a		16.218781
_cell_length_b		16.246247
_cell_length_c		16.366407
_cell_angle_alpha	90.029945
_cell_angle_beta	90.182814
_cell_angle_gamma	90.043416
_symmetry_space_group_name_H-M	'P 1'
_symmetry_Int_Tables_number		1

loop_
	_symmetry_equiv_pos_as_xyz
	x,y,z

loop_
	_atom_site_label
	_atom_site_type_symbol
	_atom_site_fract_x
	_atom_site_fract_y
	_atom_site_fract_z
	H0	H	0.398699	0.839781	0.717814
	H1	H	0.597100	0.167341	0.718723
	H2	H	0.597268	0.841030	0.287153
	H3	H	0.397214	0.167724	0.287885
	H4	H	0.711685	0.406601	0.839170
	H5	H	0.714474	0.603089	0.166161
	H6	H	0.283307	0.601796	0.839374
	H7	H	0.283867	0.406786	0.166638
	H8	H	0.832351	0.715146	0.404596
	H9	H	0.162366	0.716733	0.600735
	H10	H	0.832808	0.290795	0.599074
	H11	H	0.161870	0.289246	0.405592
	H12	H	0.834338	0.403367	0.717218
	H13	H	0.161483	0.602194	0.717795
	H14	H	0.834591	0.602198	0.286694
	H15	H	0.162176	0.403851	0.288312
	H16	H	0.401282	0.717214	0.839074
	H17	H	0.597068	0.719059	0.166691
	H18	H	0.596476	0.288468	0.840379
	H19	H	0.400385	0.289848	0.167120
	H20	H	0.708405	0.838268	0.407908
	H21	H	0.711801	0.167665	0.602098
	H22	H	0.285104	0.839670	0.599574
	H23	H	0.284440	0.168621	0.407145
	H24	H	0.897241	0.339495	0.218032
	H25	H	0.098526	0.666014	0.219637
	H26	H	0.097030	0.339159	0.788252
	H27	H	0.899088	0.666219	0.786539
	H28	H	0.211107	0.905712	0.339662
	H29	H	0.211455	0.101366	0.666584
	H30	H	0.781629	0.100801	0.339842
	H31	H	0.784588	0.905678	0.667305
	H32	H	0.333531	0.216140	0.906477
	H33	H	0.662284	0.217297	0.102044
	H34	H	0.333633	0.789942	0.100488
	H35	H	0.663130	0.791556	0.906552
	H36	H	0.333535	0.905551	0.217186
	H37	H	0.660879	0.104791	0.220176
	H38	H	0.334382	0.102502	0.788602
	H39	H	0.661536	0.903895	0.788054
	H40	H	0.898190	0.217619	0.340037
	H41	H	0.096432	0.218689	0.665875
	H42	H	0.094231	0.789248	0.339144
	H43	H	0.899717	0.787699	0.665947
	H44	H	0.210088	0.338537	0.907304
	H45	H	0.210871	0.668291	0.100851
	H46	H	0.784474	0.339346	0.099565
	H47	H	0.785616	0.668256	0.905163
	H48	H	0.409003	0.117378	0.589374
	H49	H	0.586624	0.888996	0.593179
	H50	H	0.594069	0.118265	0.420755
	H51	H	0.406072	0.886265	0.403098
	H52	H	0.601066	0.408078	0.122464
	H53	H	0.585015	0.598842	0.889206
	H54	H	0.403785	0.602441	0.119855
	H55	H	0.409494	0.410358	0.889443
	H56	H	0.113044	0.591922	0.413271
	H57	H	0.880787	0.594792	0.595890
	H58	H	0.116676	0.401364	0.591896
	H59	H	0.879554	0.410185	0.406203
	H60	H	0.111145	0.418325	0.590132
	H61	H	0.880135	0.595970	0.595975
	H62	H	0.115556	0.595413	0.404903
	H63	H	0.880794	0.408925	0.410363
	H64	H	0.400906	0.592497	0.117843
	H65	H	0.595579	0.602552	0.884739
	H66	H	0.590450	0.419936	0.115636
	H67	H	0.402503	0.404758	0.885834
	H68	H	0.594044	0.124289	0.403248
	H69	H	0.596536	0.884826	0.596017
	H70	H	0.394919	0.123915	0.597151
	H71	H	0.410385	0.889956	0.412942
	H72	H	0.908044	0.618545	0.092988
	H73	H	0.088625	0.387561	0.094875
	H74	H	0.094669	0.619324	0.913673
	H75	H	0.906456	0.384540	0.900686
	H76	H	0.099462	0.913998	0.619735
	H77	H	0.084723	0.094301	0.389369
	H78	H	0.906398	0.091372	0.616941
	H79	H	0.900210	0.908063	0.386195
	H80	H	0.616475	0.093894	0.903982
	H81	H	0.379612	0.094466	0.105659
	H82	H	0.611395	0.921546	0.097259
	H83	H	0.383749	0.912533	0.915432
	H84	H	0.619171	0.907837	0.105701
	H85	H	0.378740	0.106014	0.093221
	H86	H	0.616939	0.102532	0.913590
	H87	H	0.381467	0.915430	0.907023
	H88	H	0.908579	0.102122	0.619070
	H89	H	0.090340	0.102733	0.385267
	H90	H	0.082794	0.913752	0.615229
	H91	H	0.901873	0.912426	0.388390
	H92	H	0.091913	0.622308	0.902570
	H93	H	0.092504	0.385892	0.095264
	H94	H	0.904877	0.620809	0.096370
	H95	H	0.911993	0.389686	0.914082
	H96	H	0.409691	0.121847	0.606534
	H97	H	0.587967	0.885938	0.603203
	H98	H	0.578649	0.117472	0.410615
	H99	H	0.398931	0.887006	0.412462
	H100	H	0.584565	0.405022	0.118544
	H101	H	0.593991	0.591697	0.888844
	H102	H	0.411254	0.595915	0.116843
	H103	H	0.401354	0.413895	0.887504
	H104	H	0.115688	0.600931	0.412830
	H105	H	0.880820	0.595492	0.595083
	H106	H	0.117448	0.412388	0.606112
	H107	H	0.881790	0.413263	0.408908
	H108	H	0.910024	0.619686	0.098056
	H109	H	0.090161	0.386433	0.098151
	H110	H	0.084079	0.618029	0.909692
	H111	H	0.897131	0.385179	0.912836
	H112	H	0.090418	0.899955	0.620902
	H113	H	0.094790	0.092749	0.386716
	H114	H	0.898480	0.098203	0.621070
	H115	H	0.905120	0.908211	0.387520
	H116	H	0.612371	0.090661	0.915727
	H117	H	0.384518	0.090126	0.089724
	H118	H	0.613987	0.906573	0.088925
	H119	H	0.379192	0.906454	0.909027
	C120	C	0.376084	0.012425	0.625449
	C121	C	0.619341	0.995204	0.625393
	C122	C	0.618006	0.012109	0.382826
	C123	C	0.375912	0.995912	0.381575
	C124	C	0.620389	0.382215	0.011161
	C125	C	0.620739	0.626618	0.994943
	C126	C	0.376475	0.625418	0.010740
	C127	C	0.376052	0.381724	0.995366
	C128	C	0.005953	0.624161	0.381610
	C129	C	0.989399	0.624501	0.624161
	C130	C	0.006335	0.382189	0.623857
	C131	C	0.989239	0.381631	0.380465
	C132	C	0.877884	0.511585	0.124150
	C133	C	0.119607	0.494804	0.124872
	C134	C	0.119314	0.511641	0.880777
	C135	C	0.876444	0.494847	0.880777
	C136	C	0.119037	0.881315	0.510885
	C137	C	0.118665	0.124924	0.495235
	C138	C	0.875270	0.125154	0.511128
	C139	C	0.874792	0.880863	0.494998
	C140	C	0.506571	0.124398	0.882552
	C141	C	0.489202	0.125626	0.125274
	C142	C	0.506327	0.883073	0.124764
	C143	C	0.489686	0.882638	0.881901
	C144	C	0.378330	0.889111	0.680312
	C145	C	0.617257	0.118548	0.680660
	C146	C	0.616664	0.889158	0.326476
	C147	C	0.377452	0.119046	0.326291
	C148	C	0.674561	0.385537	0.888309
	C149	C	0.676169	0.623753	0.117723
	C150	C	0.321030	0.622968	0.888162
	C151	C	0.321640	0.385234	0.118065
	C152	C	0.882057	0.678578	0.383627
	C153	C	0.112995	0.679327	0.621304
	C154	C	0.882213	0.327982	0.620151
	C155	C	0.113031	0.326894	0.384265
	C156	C	0.882863	0.383899	0.678735
	C157	C	0.112737	0.622407	0.679581
	C158	C	0.882953	0.622235	0.325205
	C159	C	0.113043	0.383619	0.326007
	C160	C	0.379497	0.680462	0.888154
	C161	C	0.617948	0.681422	0.117983
	C162	C	0.617469	0.326682	0.888774
	C163	C	0.379865	0.327433	0.118192
	C164	C	0.671963	0.888043	0.386384
	C165	C	0.674113	0.118679	0.622378
	C166	C	0.321822	0.888867	0.621543
	C167	C	0.321156	0.119384	0.385338
	C168	C	0.878297	0.388417	0.179438
	C169	C	0.118195	0.617646	0.181002
	C170	C	0.117053	0.388072	0.826485
	C171	C	0.878884	0.617725	0.825096
	C172	C	0.173585	0.884609	0.388413
	C173	C	0.173770	0.121887	0.617821
	C174	C	0.819446	0.122051	0.388682
	C175	C	0.821510	0.884509	0.618278
	C176	C	0.382876	0.179052	0.885549
	C177	C	0.612800	0.180534	0.123085
	C178	C	0.382593	0.827529	0.121586
	C179	C	0.613766	0.828418	0.885274
	C180	C	0.382526	0.884821	0.179596
	C181	C	0.612148	0.124589	0.181694
	C182	C	0.383284	0.122908	0.826634
	C183	C	0.613139	0.884451	0.826788
	C184	C	0.877583	0.179815	0.388556
	C185	C	0.116499	0.180225	0.617510
	C186	C	0.115519	0.826772	0.388025
	C187	C	0.878642	0.825781	0.617625
	C188	C	0.173429	0.387842	0.885247
	C189	C	0.173768	0.618932	0.121732
	C190	C	0.822262	0.388209	0.120748
	C191	C	0.822860	0.618797	0.884259
	C192	C	0.398134	0.098745	0.604066
	C193	C	0.596788	0.908910	0.603952
	C194	C	0.595490	0.097799	0.404951
	C195	C	0.398456	0.909902	0.403098
	C196	C	0.598473	0.404437	0.096898
	C197	C	0.598126	0.604468	0.909644
	C198	C	0.398677	0.603490	0.096106
	C199	C	0.397833	0.403318	0.909620
	C200	C	0.092409	0.602377	0.403826
	C201	C	0.902829	0.602012	0.602232
	C202	C	0.092681	0.404086	0.602465
	C203	C	0.903114	0.404145	0.402051
	C204	C	0.900891	0.597442	0.102314
	C205	C	0.097140	0.408897	0.102825
	C206	C	0.096909	0.597716	0.902296
	C207	C	0.898609	0.408642	0.902731
	C208	C	0.097284	0.902868	0.596519
	C209	C	0.096454	0.102986	0.409245
	C210	C	0.897934	0.103637	0.596797
	C211	C	0.896112	0.902747	0.409380
	C212	C	0.592901	0.102114	0.904582
	C213	C	0.403139	0.103260	0.102906
	C214	C	0.592402	0.905489	0.103451
	C215	C	0.403786	0.905115	0.903913
	Zn216	Zn	0.497972	0.003730	0.753836
	Zn217	Zn	0.497435	0.004351	0.253173
	Zn218	Zn	0.749295	0.504192	0.003040
	Zn219	Zn	0.247197	0.503688	0.003174
	Zn220	Zn	-0.003088	0.752244	0.502511
	Zn221	Zn	-0.002395	0.254445	0.502626
	Zn222	Zn	-0.002264	0.502482	0.752114
	Zn223	Zn	-0.001823	0.502657	0.253042
	Zn224	Zn	0.498519	0.754931	0.003152
	Zn225	Zn	0.498566	0.252713	0.003666
	Zn226	Zn	0.746958	0.003385	0.503865
	Zn227	Zn	0.247879	0.003750	0.503303
	N228	N	0.411544	0.967001	0.682615
	N229	N	0.583917	0.040697	0.682490
	N230	N	0.584044	0.967228	0.323907
	N231	N	0.410834	0.041294	0.323913
	N232	N	0.676275	0.419330	0.965407
	N233	N	0.677997	0.590391	0.040532
	N234	N	0.319075	0.589549	0.965316
	N235	N	0.319416	0.418376	0.040917
	N236	N	0.959552	0.679743	0.417996
	N237	N	0.035233	0.680586	0.587638
	N238	N	0.960084	0.326646	0.586892
	N239	N	0.035276	0.325792	0.417544
	N240	N	0.961006	0.416781	0.681169
	N241	N	0.034698	0.588965	0.681533
	N242	N	0.960974	0.589125	0.323757
	N243	N	0.035016	0.416843	0.323758
	N244	N	0.413538	0.681969	0.965219
	N245	N	0.584265	0.683335	0.040673
	N246	N	0.584335	0.324628	0.966123
	N247	N	0.413032	0.325313	0.040807
	N248	N	0.672834	0.965266	0.420889
	N249	N	0.675500	0.040939	0.588889
	N250	N	0.320463	0.966408	0.588125
	N251	N	0.320249	0.041857	0.418970
	N252	N	0.911981	0.466056	0.181784
	N253	N	0.085177	0.539648	0.182926
	N254	N	0.084317	0.466023	0.823396
	N255	N	0.911615	0.539648	0.822924
	N256	N	0.175894	0.917719	0.465738
	N257	N	0.175253	0.088527	0.540435
	N258	N	0.818227	0.088796	0.465884
	N259	N	0.819066	0.917952	0.541178
	N260	N	0.460478	0.180060	0.919592
	N261	N	0.535495	0.181272	0.088719
	N262	N	0.460334	0.826245	0.088289
	N263	N	0.536101	0.827245	0.919157
	N264	N	0.460344	0.918550	0.181699
	N265	N	0.534234	0.090939	0.182974
	N266	N	0.461177	0.089745	0.824664
	N267	N	0.535117	0.917266	0.824543
	N268	N	0.911428	0.182101	0.465721
	N269	N	0.082866	0.182051	0.540342
	N270	N	0.082361	0.824551	0.465187
	N271	N	0.911020	0.823558	0.540087
	N272	N	0.174758	0.465647	0.918572
	N273	N	0.174821	0.541605	0.087535
	N274	N	0.821914	0.465792	0.086970
	N275	N	0.821293	0.541306	0.918034
	O276	O	0.018554	0.013657	0.975075
	H277	H	0.018973	0.007682	0.965572
	H278	H	0.009844	0.024448	0.980397
	O279	O	0.497276	0.560765	0.471958
	H280	H	0.498455	0.562366	0.470108
	H281	H	0.489429	0.552993	0.473459
	O282	O	0.489317	0.555674	0.450477
	H283	H	0.492540	0.560078	0.452823
	H284	H	0.494674	0.563070	0.450300
	O285	O	0.499072	0.573729	0.464714
	H286	H	0.494666	0.580010	0.466715
	H287	H	0.499212	0.567780	0.465129
	O288	O	1.023999	-0.009109	0.007863
	H289	H	1.016730	-0.008384	0.007491
	H290	H	1.034373	-0.015583	0.014294
	O291	O	-0.007167	1.021227	1.001523
	H292	H	-0.007453	1.027265	0.999080
	H293	H	-0.006842	1.020922	0.999397
	O294	O	0.472489	0.534884	0.459500
	H295	H	0.469182	0.538681	0.450427
	H296	H	0.470757	0.531890	0.461209
	O297	O	1.003490	0.021682	-0.012545
	H298	H	1.012478	0.019033	-0.010549
	H299	H	1.002844	0.014644	-0.009453
