data_Molecule from HDF5

_cell_length_a		16.324216
_cell_length_b		16.358760
_cell_length_c		16.141460
_cell_angle_alpha	89.782636
_cell_angle_beta	89.716136
_cell_angle_gamma	90.106369
_symmetry_space_group_name_H-M	'P 1'
_symmetry_Int_Tables_number		1

loop_
	_symmetry_equiv_pos_as_xyz
	x,y,z

loop_
	_atom_site_label
	_atom_site_type_symbol
	_atom_site_fract_x
	_atom_site_fract_y
	_atom_site_fract_z
	H0	H	0.396677	0.834887	0.717684
	H1	H	0.599723	0.157922	0.714014
	H2	H	0.591527	0.831638	0.286774
	H3	H	0.397004	0.158792	0.283894
	H4	H	0.712667	0.397663	0.838087
	H5	H	0.710636	0.596384	0.166148
	H6	H	0.281772	0.596164	0.836931
	H7	H	0.278583	0.393405	0.164512
	H8	H	0.833253	0.712187	0.400340
	H9	H	0.156224	0.712279	0.603892
	H10	H	0.834631	0.273940	0.605929
	H11	H	0.157531	0.276722	0.397057
	H12	H	0.832526	0.393803	0.717773
	H13	H	0.158484	0.590368	0.712664
	H14	H	0.832450	0.593839	0.287039
	H15	H	0.157937	0.394982	0.283662
	H16	H	0.395628	0.712726	0.837197
	H17	H	0.593715	0.710619	0.166084
	H18	H	0.601602	0.280521	0.837350
	H19	H	0.392882	0.276935	0.163247
	H20	H	0.713136	0.832874	0.395870
	H21	H	0.716230	0.155499	0.599976
	H22	H	0.278351	0.834881	0.603561
	H23	H	0.276851	0.156218	0.395355
	H24	H	0.894088	0.332863	0.219193
	H25	H	0.095451	0.657777	0.215736
	H26	H	0.094259	0.331465	0.786939
	H27	H	0.897761	0.657582	0.786151
	H28	H	0.212122	0.894911	0.335380
	H29	H	0.212467	0.095870	0.662724
	H30	H	0.782917	0.094564	0.334842
	H31	H	0.777868	0.892799	0.662383
	H32	H	0.335969	0.216775	0.895802
	H33	H	0.658755	0.213475	0.100467
	H34	H	0.334056	0.778639	0.104177
	H35	H	0.658493	0.778899	0.897757
	H36	H	0.332733	0.897968	0.214767
	H37	H	0.660503	0.094730	0.213673
	H38	H	0.334239	0.097446	0.783515
	H39	H	0.659383	0.898749	0.784090
	H40	H	0.894536	0.213914	0.337782
	H41	H	0.097538	0.209762	0.664224
	H42	H	0.096117	0.779541	0.336174
	H43	H	0.894362	0.780291	0.664874
	H44	H	0.215681	0.334624	0.897217
	H45	H	0.213346	0.656506	0.102875
	H46	H	0.776695	0.334458	0.105249
	H47	H	0.780747	0.658170	0.900400
	H48	H	0.402892	0.112233	0.591367
	H49	H	0.588576	0.880222	0.589665
	H50	H	0.592542	0.112080	0.405769
	H51	H	0.398712	0.879699	0.411073
	H52	H	0.578486	0.398814	0.117662
	H53	H	0.595093	0.581351	0.884693
	H54	H	0.400715	0.582394	0.117080
	H55	H	0.412291	0.414901	0.888880
	H56	H	0.111592	0.580457	0.402112
	H57	H	0.876167	0.594089	0.597089
	H58	H	0.113343	0.403709	0.603360
	H59	H	0.880737	0.398986	0.415696
	H60	H	0.112842	0.391018	0.588141
	H61	H	0.880872	0.587725	0.585573
	H62	H	0.114825	0.597146	0.407222
	H63	H	0.883631	0.408160	0.415304
	H64	H	0.408917	0.588195	0.115851
	H65	H	0.579212	0.586694	0.888114
	H66	H	0.593858	0.400259	0.121537
	H67	H	0.411724	0.397168	0.883208
	H68	H	0.589000	0.111183	0.405852
	H69	H	0.588935	0.879533	0.592418
	H70	H	0.407115	0.111066	0.588952
	H71	H	0.404086	0.878953	0.402469
	H72	H	0.897438	0.610737	0.088300
	H73	H	0.081354	0.381855	0.090940
	H74	H	0.090130	0.609619	0.912964
	H75	H	0.901570	0.378197	0.907203
	H76	H	0.083051	0.900567	0.616382
	H77	H	0.079296	0.081126	0.386997
	H78	H	0.908575	0.083620	0.615065
	H79	H	0.909301	0.906298	0.384332
	H80	H	0.611224	0.089477	0.910184
	H81	H	0.381293	0.086701	0.091576
	H82	H	0.614688	0.904267	0.101953
	H83	H	0.382268	0.908425	0.909081
	H84	H	0.613568	0.893318	0.086774
	H85	H	0.382259	0.088915	0.089193
	H86	H	0.612312	0.087619	0.905081
	H87	H	0.379593	0.902506	0.906876
	H88	H	0.902388	0.086962	0.618380
	H89	H	0.083969	0.093901	0.381504
	H90	H	0.091670	0.900095	0.619416
	H91	H	0.906579	0.895163	0.380930
	H92	H	0.093424	0.612923	0.904617
	H93	H	0.090306	0.381023	0.085597
	H94	H	0.902981	0.613593	0.099965
	H95	H	0.905584	0.380904	0.911883
	H96	H	0.402868	0.111204	0.586513
	H97	H	0.585965	0.880458	0.591532
	H98	H	0.590925	0.109881	0.408755
	H99	H	0.408662	0.883040	0.411333
	H100	H	0.585742	0.413061	0.116007
	H101	H	0.590254	0.596656	0.881441
	H102	H	0.400771	0.591836	0.121316
	H103	H	0.396358	0.408212	0.881785
	H104	H	0.107146	0.585948	0.419526
	H105	H	0.879223	0.581330	0.597794
	H106	H	0.106661	0.409335	0.585742
	H107	H	0.879711	0.403373	0.407330
	H108	H	0.909469	0.607785	0.089857
	H109	H	0.089302	0.378202	0.095885
	H110	H	0.083426	0.609128	0.905048
	H111	H	0.899015	0.379505	0.913767
	H112	H	0.088465	0.907369	0.616299
	H113	H	0.093250	0.082788	0.382472
	H114	H	0.901746	0.079996	0.615487
	H115	H	0.898469	0.904132	0.381321
	H116	H	0.613549	0.092753	0.906545
	H117	H	0.382021	0.085722	0.088742
	H118	H	0.608145	0.910557	0.085397
	H119	H	0.382371	0.902669	0.913210
	C120	C	0.374679	0.004508	0.620519
	C121	C	0.618574	0.986794	0.620497
	C122	C	0.618629	0.003481	0.377534
	C123	C	0.374311	0.987577	0.377786
	C124	C	0.617052	0.375447	0.010113
	C125	C	0.617036	0.617612	0.993214
	C126	C	0.374546	0.617317	0.009712
	C127	C	0.375704	0.375454	0.992446
	C128	C	0.003824	0.617254	0.379830
	C129	C	0.986288	0.616215	0.622480
	C130	C	0.003941	0.371539	0.623520
	C131	C	0.987741	0.373064	0.380304
	C132	C	0.872960	0.503959	0.123967
	C133	C	0.116857	0.487205	0.121456
	C134	C	0.118300	0.503445	0.878265
	C135	C	0.873459	0.486818	0.880464
	C136	C	0.117423	0.873356	0.508639
	C137	C	0.116325	0.115751	0.491433
	C138	C	0.875067	0.114608	0.508133
	C139	C	0.874520	0.872732	0.490780
	C140	C	0.505661	0.120137	0.876604
	C141	C	0.488876	0.117171	0.120149
	C142	C	0.504732	0.873645	0.122076
	C143	C	0.488311	0.875039	0.878611
	C144	C	0.376602	0.883040	0.678444
	C145	C	0.618529	0.109112	0.676158
	C146	C	0.614155	0.880580	0.322814
	C147	C	0.376468	0.109655	0.321344
	C148	C	0.674371	0.377353	0.886809
	C149	C	0.672417	0.615812	0.117082
	C150	C	0.319338	0.616206	0.886057
	C151	C	0.317494	0.374612	0.115341
	C152	C	0.881902	0.673462	0.380869
	C153	C	0.108197	0.672661	0.622155
	C154	C	0.882500	0.313604	0.624252
	C155	C	0.108954	0.315354	0.378458
	C156	C	0.881541	0.373139	0.680138
	C157	C	0.109196	0.612228	0.676421
	C158	C	0.881599	0.614679	0.324155
	C159	C	0.109437	0.374318	0.322163
	C160	C	0.376201	0.674225	0.886314
	C161	C	0.614799	0.673171	0.116870
	C162	C	0.619062	0.318800	0.886803
	C163	C	0.374314	0.316393	0.114643
	C164	C	0.674141	0.881154	0.377707
	C165	C	0.676630	0.107870	0.619553
	C166	C	0.317733	0.883031	0.621633
	C167	C	0.316696	0.108552	0.376907
	C168	C	0.873742	0.381790	0.181381
	C169	C	0.115209	0.609147	0.177961
	C170	C	0.115414	0.380802	0.823766
	C171	C	0.876900	0.609129	0.824224
	C172	C	0.174123	0.874609	0.385041
	C173	C	0.174172	0.115389	0.613943
	C174	C	0.820159	0.114449	0.384307
	C175	C	0.817065	0.873844	0.614021
	C176	C	0.384114	0.177612	0.876658
	C177	C	0.610643	0.174202	0.119737
	C178	C	0.382432	0.817241	0.122559
	C179	C	0.609960	0.817879	0.878321
	C180	C	0.382073	0.876523	0.178024
	C181	C	0.611557	0.114942	0.175889
	C182	C	0.383301	0.118228	0.820735
	C183	C	0.610816	0.877789	0.822146
	C184	C	0.875695	0.173775	0.385953
	C185	C	0.116521	0.171819	0.614844
	C186	C	0.116441	0.817129	0.385387
	C187	C	0.874911	0.817828	0.615160
	C188	C	0.176005	0.382319	0.878617
	C189	C	0.173880	0.608548	0.121721
	C190	C	0.815594	0.382472	0.124224
	C191	C	0.818647	0.609293	0.881144
	C192	C	0.397612	0.089414	0.596002
	C193	C	0.594811	0.902031	0.597769
	C194	C	0.597172	0.088861	0.400330
	C195	C	0.397095	0.902558	0.401497
	C196	C	0.592894	0.397611	0.095992
	C197	C	0.594876	0.594983	0.906966
	C198	C	0.396793	0.594119	0.095833
	C199	C	0.399717	0.399857	0.906802
	C200	C	0.089210	0.594450	0.402879
	C201	C	0.900860	0.594246	0.600053
	C202	C	0.088806	0.394576	0.599346
	C203	C	0.903175	0.396713	0.405414
	C204	C	0.896434	0.588635	0.099915
	C205	C	0.093702	0.402438	0.097782
	C206	C	0.095701	0.588196	0.901023
	C207	C	0.895558	0.401758	0.903921
	C208	C	0.094492	0.895974	0.594868
	C209	C	0.092559	0.092360	0.405923
	C210	C	0.897650	0.090481	0.593955
	C211	C	0.897940	0.895274	0.404491
	C212	C	0.590299	0.096875	0.900292
	C213	C	0.404033	0.094074	0.096645
	C214	C	0.589988	0.896215	0.098260
	C215	C	0.403463	0.897984	0.902475
	Zn216	Zn	0.497011	-0.002597	0.749090
	Zn217	Zn	0.496808	-0.003782	0.249472
	Zn218	Zn	0.744366	0.496240	0.002091
	Zn219	Zn	0.246487	0.495867	0.000815
	Zn220	Zn	-0.004575	0.745881	0.501546
	Zn221	Zn	-0.003839	0.243858	0.501219
	Zn222	Zn	-0.005158	0.494364	0.751001
	Zn223	Zn	-0.003877	0.494968	0.251163
	Zn224	Zn	0.495926	0.745216	0.000870
	Zn225	Zn	0.497042	0.247614	-0.000123
	Zn226	Zn	0.746926	-0.006189	0.498685
	Zn227	Zn	0.245108	-0.004408	0.498934
	N228	N	0.411091	0.959640	0.677887
	N229	N	0.583078	0.032886	0.676934
	N230	N	0.580450	0.957532	0.322468
	N231	N	0.411458	0.033232	0.321800
	N232	N	0.673445	0.411823	0.964358
	N233	N	0.673977	0.582288	0.039014
	N234	N	0.318060	0.581739	0.963831
	N235	N	0.318187	0.410622	0.038136
	N236	N	0.959231	0.675216	0.414611
	N237	N	0.030731	0.675511	0.589479
	N238	N	0.959621	0.312453	0.589827
	N239	N	0.032180	0.314658	0.414088
	N240	N	0.957938	0.408545	0.679718
	N241	N	0.032375	0.577696	0.676705
	N242	N	0.958434	0.580350	0.323321
	N243	N	0.033242	0.409712	0.323465
	N244	N	0.409592	0.675035	0.964326
	N245	N	0.581268	0.674439	0.038892
	N246	N	0.583673	0.317754	0.964363
	N247	N	0.409582	0.316686	0.037152
	N248	N	0.677109	0.958454	0.410945
	N249	N	0.676985	0.030866	0.585762
	N250	N	0.316265	0.959915	0.586515
	N251	N	0.315278	0.031612	0.411197
	N252	N	0.908923	0.458268	0.181320
	N253	N	0.080434	0.532530	0.177984
	N254	N	0.080431	0.457107	0.823129
	N255	N	0.910282	0.531922	0.823527
	N256	N	0.174948	0.908830	0.462751
	N257	N	0.174204	0.081175	0.536100
	N258	N	0.819658	0.078246	0.461248
	N259	N	0.816698	0.907314	0.535697
	N260	N	0.461279	0.179009	0.910477
	N261	N	0.533614	0.175482	0.085764
	N262	N	0.459866	0.815209	0.088501
	N263	N	0.532734	0.815741	0.912507
	N264	N	0.459052	0.910709	0.177989
	N265	N	0.534656	0.080305	0.176499
	N266	N	0.459886	0.083485	0.820209
	N267	N	0.534170	0.912639	0.822111
	N268	N	0.909304	0.173826	0.463876
	N269	N	0.081265	0.172241	0.537737
	N270	N	0.081953	0.816318	0.463286
	N271	N	0.909830	0.816927	0.537514
	N272	N	0.178021	0.459583	0.911696
	N273	N	0.175053	0.531751	0.087412
	N274	N	0.814830	0.459388	0.089544
	N275	N	0.816281	0.532225	0.915283
	O276	O	-0.099595	-0.154033	-0.050317
	H277	H	-0.098256	-0.150922	-0.036412
	H278	H	-0.091370	-0.151568	-0.049604
	O279	O	0.592413	0.552947	0.464577
	H280	H	0.595370	0.548418	0.469360
	H281	H	0.588159	0.559533	0.480046
	O282	O	1.002787	0.072682	0.075701
	H283	H	1.004576	0.069406	0.068145
	H284	H	1.006607	0.075628	0.076885
	O285	O	0.097695	1.015310	-0.067704
	H286	H	0.110346	1.007292	-0.066768
	H287	H	0.090061	1.004318	-0.062950
	O288	O	0.334087	0.366855	0.542165
	H289	H	0.344580	0.362531	0.553189
	H290	H	0.326519	0.365253	0.553722
	O291	O	0.341532	0.536883	0.377571
	H292	H	0.352872	0.538251	0.369293
	H293	H	0.349542	0.539623	0.365950
	O294	O	1.101276	1.038674	1.055600
	H295	H	1.103692	1.044187	1.061144
	H296	H	1.114994	1.040127	1.045762
	O297	O	-0.050801	-0.049420	0.004288
	H298	H	-0.046118	-0.040348	-0.004965
	H299	H	-0.053989	-0.053194	0.007695
	O300	O	0.623230	0.653165	0.665254
	H301	H	0.621030	0.645446	0.680605
	H302	H	0.612744	0.652717	0.663785
	O303	O	0.042815	0.858709	0.938111
	H304	H	0.054069	0.847981	0.926614
	H305	H	0.046964	0.857314	0.925690
	O306	O	1.025872	1.099914	-0.056450
	H307	H	1.028094	1.101846	-0.065472
	H308	H	1.028641	1.102266	-0.060590
	O309	O	1.056027	-0.052817	0.018691
	H310	H	1.065865	-0.054720	0.020581
	H311	H	1.057727	-0.052783	0.027663
	O312	O	0.049753	-0.002499	1.153455
	H313	H	0.045567	0.022723	1.149769
	H314	H	0.047163	0.002710	1.158339
	O315	O	0.672558	0.465971	0.601595
	H316	H	0.671296	0.463059	0.600999
	H317	H	0.671163	0.461814	0.609099
	O318	O	0.564012	0.401680	0.408782
	H319	H	0.558179	0.383930	0.412268
	H320	H	0.577681	0.398870	0.389690
	O321	O	0.599376	0.437461	0.512742
	H322	H	0.605500	0.451176	0.510532
	H323	H	0.585628	0.443738	0.527402
	O324	O	0.459386	0.632112	0.490562
	H325	H	0.475161	0.638032	0.488689
	H326	H	0.457438	0.623038	0.493504
	O327	O	0.056302	1.012036	0.910347
	H328	H	0.053214	1.013306	0.894077
	H329	H	0.052003	0.996199	0.920716
	O330	O	0.465982	0.368156	0.620957
	H331	H	0.463138	0.356929	0.625963
	H332	H	0.458373	0.364537	0.623951
	O333	O	-0.090569	1.078666	1.010597
	H334	H	-0.099572	1.079928	1.009433
	H335	H	-0.093354	1.074257	1.003725
	O336	O	0.866673	0.875901	1.079478
	H337	H	0.862162	0.865485	1.074711
	H338	H	0.860755	0.880177	1.088520
	O339	O	0.416743	0.583064	0.428532
	H340	H	0.424640	0.588420	0.429350
	H341	H	0.426464	0.572608	0.418215
	O342	O	1.012970	-0.053309	0.100216
	H343	H	1.012460	-0.046360	0.099454
	H344	H	1.007668	-0.051346	0.098932
	O345	O	0.535022	0.413232	0.652164
	H346	H	0.530820	0.406745	0.667556
	H347	H	0.516935	0.418554	0.642336
	O348	O	1.096191	1.104358	0.946678
	H349	H	1.098956	1.092942	0.938696
	H350	H	1.095433	1.111916	0.951114
	O351	O	0.838689	1.221883	-0.210944
	H352	H	0.833394	1.220835	-0.210745
	H353	H	0.821885	1.229531	-0.217937
	O354	O	0.526043	0.408027	0.455646
	H355	H	0.524302	0.407102	0.470460
	H356	H	0.513996	0.422124	0.436771
	O357	O	0.535672	0.608809	0.477103
	H358	H	0.547436	0.607142	0.492178
	H359	H	0.548606	0.603865	0.464160
	O360	O	-0.010033	-0.090570	-0.058485
	H361	H	-0.002008	-0.085111	-0.044830
	H362	H	-0.014357	-0.094817	-0.058973
	O363	O	0.373922	0.553673	0.432445
	H364	H	0.389548	0.554247	0.418155
	H365	H	0.367504	0.557743	0.426840
	O366	O	0.399204	0.522954	0.608697
	H367	H	0.406267	0.523827	0.597993
	H368	H	0.394945	0.518991	0.600216
	O369	O	0.508186	0.669698	0.529219
	H370	H	0.507715	0.669657	0.528500
	H371	H	0.515062	0.681882	0.530248
	O372	O	0.447600	0.516498	0.468401
	H373	H	0.439592	0.526486	0.469335
	H374	H	0.453719	0.521218	0.462971
	O375	O	0.672366	0.333276	0.404895
	H376	H	0.683034	0.329346	0.421027
	H377	H	0.669722	0.332953	0.413483
	O378	O	0.354608	0.390925	0.476676
	H379	H	0.333951	0.387865	0.485370
	H380	H	0.350382	0.405221	0.461968
	O381	O	0.433512	0.423370	0.459991
	H382	H	0.442119	0.425687	0.454484
	H383	H	0.433955	0.419276	0.451416
	O384	O	-0.086625	0.964862	0.021289
	H385	H	-0.094679	0.967584	0.015795
	H386	H	-0.077795	0.978707	0.023482
	O387	O	0.963221	0.038826	1.104815
	H388	H	0.947241	0.033774	1.111150
	H389	H	0.966298	0.028695	1.114463
	O390	O	0.045399	0.948507	-0.131496
	H391	H	0.045758	0.943168	-0.134468
	H392	H	0.048496	0.933225	-0.112133
	O393	O	1.082754	1.127791	0.050648
	H394	H	1.075971	1.138270	0.048076
	H395	H	1.090161	1.127390	0.051372
	O396	O	0.417913	0.433104	0.584714
	H397	H	0.411266	0.422767	0.600152
	H398	H	0.406845	0.443930	0.574863
	O399	O	0.036950	0.910105	0.961447
	H400	H	0.039745	0.902991	0.974265
	H401	H	0.038667	0.906657	0.972638
	O402	O	0.988519	0.895091	0.946127
	H403	H	0.980139	0.887845	0.945386
	H404	H	0.993761	0.883018	0.936911
	O405	O	0.553726	0.628691	0.572504
	H406	H	0.546145	0.618206	0.576185
	H407	H	0.552794	0.624670	0.578247
