data_Molecule from HDF5

_cell_length_a		16.422852
_cell_length_b		16.351385
_cell_length_c		16.404429
_cell_angle_alpha	90.158301
_cell_angle_beta	90.042944
_cell_angle_gamma	89.933425
_symmetry_space_group_name_H-M	'P 1'
_symmetry_Int_Tables_number		1

loop_
	_symmetry_equiv_pos_as_xyz
	x,y,z

loop_
	_atom_site_label
	_atom_site_type_symbol
	_atom_site_fract_x
	_atom_site_fract_y
	_atom_site_fract_z
	H0	H	0.394054	0.845882	0.717182
	H1	H	0.612878	0.161079	0.717025
	H2	H	0.606860	0.842641	0.272368
	H3	H	0.399884	0.163629	0.273378
	H4	H	0.727190	0.395942	0.834354
	H5	H	0.725617	0.609863	0.151390
	H6	H	0.280338	0.610715	0.834082
	H7	H	0.280942	0.396396	0.150296
	H8	H	0.843400	0.722881	0.388080
	H9	H	0.160608	0.724811	0.598572
	H10	H	0.843298	0.282023	0.595450
	H11	H	0.161786	0.280542	0.385479
	H12	H	0.845669	0.394181	0.714670
	H13	H	0.161396	0.608719	0.714167
	H14	H	0.844523	0.607931	0.270559
	H15	H	0.162284	0.396955	0.270706
	H16	H	0.396807	0.724604	0.834083
	H17	H	0.607409	0.722764	0.152243
	H18	H	0.611364	0.279658	0.834450
	H19	H	0.399660	0.283439	0.152203
	H20	H	0.725665	0.844032	0.385342
	H21	H	0.725275	0.161906	0.599063
	H22	H	0.281381	0.844372	0.598130
	H23	H	0.283740	0.163097	0.388472
	H24	H	0.899675	0.344150	0.211825
	H25	H	0.107352	0.662751	0.212903
	H26	H	0.109877	0.342694	0.769824
	H27	H	0.895832	0.660316	0.768798
	H28	H	0.224183	0.895811	0.334000
	H29	H	0.228820	0.112949	0.649236
	H30	H	0.782336	0.106357	0.333380
	H31	H	0.779860	0.896966	0.649869
	H32	H	0.345819	0.226630	0.885143
	H33	H	0.662554	0.223820	0.098293
	H34	H	0.345225	0.781355	0.097133
	H35	H	0.661680	0.779688	0.887059
	H36	H	0.345060	0.896199	0.214278
	H37	H	0.663277	0.105438	0.212367
	H38	H	0.347562	0.113049	0.766499
	H39	H	0.661950	0.895555	0.769775
	H40	H	0.899147	0.221930	0.333041
	H41	H	0.110335	0.226765	0.649637
	H42	H	0.105699	0.782333	0.333772
	H43	H	0.894557	0.781075	0.650586
	H44	H	0.228256	0.344635	0.883482
	H45	H	0.224681	0.662064	0.097916
	H46	H	0.782525	0.344225	0.098184
	H47	H	0.781344	0.661344	0.885994
	H48	H	0.422610	0.113434	0.579977
	H49	H	0.587057	0.892334	0.579400
	H50	H	0.593939	0.121147	0.390831
	H51	H	0.415174	0.889313	0.399904
	H52	H	0.582829	0.413661	0.102573
	H53	H	0.595753	0.586368	0.879473
	H54	H	0.412377	0.602963	0.109577
	H55	H	0.420317	0.408807	0.878903
	H56	H	0.116752	0.592847	0.402198
	H57	H	0.887532	0.595150	0.582033
	H58	H	0.117097	0.420254	0.587556
	H59	H	0.888560	0.415048	0.395588
	H60	H	0.118807	0.405316	0.579660
	H61	H	0.891126	0.589537	0.575971
	H62	H	0.116192	0.593227	0.404204
	H63	H	0.888445	0.406943	0.402974
	H64	H	0.405848	0.582789	0.105894
	H65	H	0.587320	0.589482	0.882062
	H66	H	0.598672	0.406902	0.109975
	H67	H	0.409814	0.415756	0.877698
	H68	H	0.583241	0.112987	0.406096
	H69	H	0.591730	0.891449	0.576374
	H70	H	0.415534	0.114114	0.573568
	H71	H	0.413482	0.889054	0.404681
	H72	H	0.912641	0.617775	0.081118
	H73	H	0.091971	0.388771	0.080742
	H74	H	0.095450	0.618203	0.898291
	H75	H	0.916573	0.389968	0.905794
	H76	H	0.087095	0.914356	0.604608
	H77	H	0.094878	0.097389	0.376167
	H78	H	0.916905	0.091526	0.605029
	H79	H	0.914531	0.910826	0.378652
	H80	H	0.617076	0.090282	0.904402
	H81	H	0.391139	0.095358	0.076896
	H82	H	0.618186	0.908388	0.081582
	H83	H	0.392243	0.920668	0.901390
	H84	H	0.615443	0.916144	0.078909
	H85	H	0.391562	0.087311	0.082767
	H86	H	0.615513	0.089806	0.906562
	H87	H	0.388876	0.910752	0.902012
	H88	H	0.913331	0.093148	0.606673
	H89	H	0.097634	0.085408	0.379497
	H90	H	0.095813	0.911129	0.608205
	H91	H	0.911379	0.914758	0.378483
	H92	H	0.084533	0.613295	0.902397
	H93	H	0.095096	0.388823	0.080271
	H94	H	0.914729	0.618145	0.082719
	H95	H	0.914278	0.389532	0.904530
	H96	H	0.414021	0.117524	0.582335
	H97	H	0.591201	0.889260	0.581840
	H98	H	0.602928	0.117416	0.409038
	H99	H	0.410838	0.887268	0.400677
	H100	H	0.597960	0.424959	0.103453
	H101	H	0.593595	0.595262	0.877565
	H102	H	0.425548	0.588846	0.100536
	H103	H	0.419200	0.420506	0.883320
	H104	H	0.116043	0.591464	0.403743
	H105	H	0.890239	0.586779	0.585148
	H106	H	0.111389	0.418398	0.572113
	H107	H	0.892115	0.416804	0.404999
	H108	H	0.915710	0.616907	0.080147
	H109	H	0.094042	0.388387	0.082865
	H110	H	0.094592	0.614096	0.909944
	H111	H	0.916554	0.389373	0.903250
	H112	H	0.094621	0.920395	0.604802
	H113	H	0.085833	0.090222	0.381655
	H114	H	0.912899	0.089546	0.605168
	H115	H	0.916200	0.916012	0.380265
	H116	H	0.614855	0.088287	0.904521
	H117	H	0.387785	0.096477	0.086781
	H118	H	0.617748	0.914760	0.086886
	H119	H	0.393137	0.915392	0.910851
	C120	C	0.382573	0.011283	0.613062
	C121	C	0.623938	0.995340	0.613008
	C122	C	0.624693	0.011245	0.370801
	C123	C	0.381735	0.994685	0.370278
	C124	C	0.626256	0.381383	0.001198
	C125	C	0.624979	0.623643	0.984211
	C126	C	0.382041	0.624344	0.000648
	C127	C	0.383250	0.382115	0.984440
	C128	C	0.011135	0.624246	0.371132
	C129	C	0.994054	0.624006	0.614385
	C130	C	0.011142	0.381183	0.612458
	C131	C	0.994728	0.380661	0.369384
	C132	C	0.882703	0.512144	0.113399
	C133	C	0.125214	0.494407	0.113290
	C134	C	0.125146	0.510407	0.870377
	C135	C	0.882494	0.494059	0.871352
	C136	C	0.124181	0.882233	0.501127
	C137	C	0.125456	0.124473	0.483358
	C138	C	0.882082	0.123657	0.500764
	C139	C	0.880569	0.881144	0.483433
	C140	C	0.511949	0.124063	0.871173
	C141	C	0.495267	0.124344	0.114194
	C142	C	0.512177	0.880877	0.114252
	C143	C	0.495553	0.881272	0.871222
	C144	C	0.377609	0.892893	0.675698
	C145	C	0.629001	0.113828	0.675643
	C146	C	0.626055	0.890782	0.311654
	C147	C	0.381116	0.115241	0.312220
	C148	C	0.687224	0.377849	0.881933
	C149	C	0.685350	0.626933	0.103911
	C150	C	0.320736	0.628047	0.881812
	C151	C	0.321873	0.379063	0.103072
	C152	C	0.891311	0.683419	0.369384
	C153	C	0.113217	0.684582	0.616462
	C154	C	0.891779	0.320937	0.614554
	C155	C	0.114065	0.320576	0.367408
	C156	C	0.892586	0.377298	0.673744
	C157	C	0.113447	0.626812	0.674374
	C158	C	0.891827	0.626070	0.310760
	C159	C	0.114552	0.378730	0.310355
	C160	C	0.378624	0.685276	0.881802
	C161	C	0.626600	0.683527	0.104313
	C162	C	0.629400	0.320026	0.881987
	C163	C	0.380945	0.322538	0.104100
	C164	C	0.685153	0.891398	0.367996
	C165	C	0.685269	0.114229	0.616917
	C166	C	0.321076	0.892288	0.616669
	C167	C	0.323227	0.115124	0.369673
	C168	C	0.881292	0.391851	0.172370
	C169	C	0.126385	0.614704	0.173011
	C170	C	0.128225	0.390857	0.809533
	C171	C	0.878521	0.612930	0.809701
	C172	C	0.184517	0.878038	0.381698
	C173	C	0.187369	0.129309	0.602078
	C174	C	0.822291	0.125300	0.381024
	C175	C	0.819837	0.878650	0.602475
	C176	C	0.393616	0.186198	0.867398
	C177	C	0.615234	0.183656	0.116417
	C178	C	0.392595	0.821126	0.115908
	C179	C	0.614337	0.819878	0.868472
	C180	C	0.392765	0.878358	0.174223
	C181	C	0.615522	0.124844	0.173122
	C182	C	0.394154	0.129449	0.808281
	C183	C	0.614405	0.877403	0.810240
	C184	C	0.880643	0.182279	0.380600
	C185	C	0.128534	0.186262	0.602303
	C186	C	0.125141	0.821733	0.381603
	C187	C	0.877223	0.821082	0.602943
	C188	C	0.187157	0.391848	0.866417
	C189	C	0.184421	0.614648	0.115463
	C190	C	0.822655	0.392331	0.115917
	C191	C	0.821116	0.613384	0.867843
	C192	C	0.409441	0.093546	0.586503
	C193	C	0.597519	0.912537	0.586724
	C194	C	0.600290	0.095246	0.395087
	C195	C	0.405967	0.910343	0.394664
	C196	C	0.600571	0.407454	0.083710
	C197	C	0.599629	0.597831	0.901439
	C198	C	0.407321	0.598787	0.083703
	C199	C	0.408943	0.407622	0.901447
	C200	C	0.094537	0.599441	0.396296
	C201	C	0.911175	0.597905	0.588606
	C202	C	0.094048	0.407140	0.587068
	C203	C	0.911522	0.405733	0.394066
	C204	C	0.907403	0.595763	0.088586
	C205	C	0.100794	0.410638	0.088380
	C206	C	0.099154	0.593576	0.896111
	C207	C	0.908616	0.411170	0.897213
	C208	C	0.099596	0.908039	0.584156
	C209	C	0.100030	0.098403	0.400669
	C210	C	0.907141	0.098628	0.583950
	C211	C	0.906574	0.906551	0.400680
	C212	C	0.594382	0.097277	0.897698
	C213	C	0.411930	0.099995	0.089416
	C214	C	0.595316	0.905889	0.089386
	C215	C	0.412902	0.907928	0.897332
	Zn216	Zn	0.504189	0.002735	0.742077
	Zn217	Zn	0.502854	0.002966	0.242343
	Zn218	Zn	0.753774	0.503259	-0.007308
	Zn219	Zn	0.253651	0.502960	-0.007876
	Zn220	Zn	0.001700	0.753252	0.492995
	Zn221	Zn	0.003152	0.252679	0.491562
	Zn222	Zn	0.003111	0.501662	0.741949
	Zn223	Zn	0.004066	0.502798	0.242099
	Zn224	Zn	0.503440	0.752322	-0.007519
	Zn225	Zn	0.504260	0.253064	-0.007199
	Zn226	Zn	0.752484	0.003191	0.492101
	Zn227	Zn	0.253753	0.003032	0.491763
	N228	N	0.415071	0.968109	0.673840
	N229	N	0.591417	0.038838	0.673243
	N230	N	0.589333	0.966304	0.313045
	N231	N	0.416381	0.038972	0.312358
	N232	N	0.685441	0.415233	0.956963
	N233	N	0.684673	0.590806	0.028152
	N234	N	0.322440	0.590968	0.956950
	N235	N	0.323243	0.415492	0.027632
	N236	N	0.966371	0.682409	0.406193
	N237	N	0.037626	0.683304	0.580154
	N238	N	0.966689	0.323236	0.577238
	N239	N	0.038520	0.321522	0.403385
	N240	N	0.967875	0.413865	0.672553
	N241	N	0.038317	0.590128	0.673319
	N242	N	0.967469	0.589856	0.311848
	N243	N	0.039351	0.415448	0.311320
	N244	N	0.415980	0.683036	0.956667
	N245	N	0.589768	0.681870	0.029025
	N246	N	0.592234	0.322029	0.956992
	N247	N	0.418197	0.324287	0.029173
	N248	N	0.684366	0.967350	0.404140
	N249	N	0.682103	0.039585	0.578350
	N250	N	0.324187	0.966732	0.578417
	N251	N	0.323420	0.038783	0.404820
	N252	N	0.917893	0.467267	0.171115
	N253	N	0.090457	0.538837	0.171918
	N254	N	0.090482	0.465844	0.811907
	N255	N	0.915899	0.537742	0.811703
	N256	N	0.184041	0.915016	0.456939
	N257	N	0.185476	0.091484	0.527214
	N258	N	0.823003	0.089573	0.456732
	N259	N	0.821604	0.915125	0.527150
	N260	N	0.467987	0.182800	0.905919
	N261	N	0.539561	0.183711	0.080575
	N262	N	0.467825	0.822559	0.079208
	N263	N	0.539221	0.822093	0.905417
	N264	N	0.468033	0.914590	0.173498
	N265	N	0.539919	0.088744	0.171877
	N266	N	0.468716	0.091397	0.810793
	N267	N	0.539362	0.914605	0.811647
	N268	N	0.916973	0.181507	0.456050
	N269	N	0.090639	0.183371	0.527762
	N270	N	0.088401	0.823952	0.456783
	N271	N	0.914304	0.822514	0.527912
	N272	N	0.185384	0.467267	0.903544
	N273	N	0.183838	0.538757	0.079201
	N274	N	0.823297	0.468219	0.080062
	N275	N	0.823575	0.538490	0.905641
	O276	O	0.451218	0.502197	0.297458
	H277	H	0.423983	0.508315	0.282409
	H278	H	0.458691	0.522266	0.301495
	O279	O	0.451146	0.489276	0.526364
	H280	H	0.452029	0.499209	0.535773
	H281	H	0.450871	0.482999	0.521558
	O282	O	0.502419	0.493620	0.385286
	H283	H	0.486139	0.497827	0.389999
	H284	H	0.497313	0.508597	0.375262
	O285	O	1.033699	1.173035	-0.027720
	H286	H	1.028604	1.173680	-0.035816
	H287	H	1.015921	1.163258	-0.024746
	O288	O	0.545002	0.375896	0.323021
	H289	H	0.562506	0.378520	0.309024
	H290	H	0.552837	0.370439	0.312151
	O291	O	0.676627	0.456685	0.315570
	H292	H	0.685169	0.461359	0.314086
	H293	H	0.678918	0.447688	0.300940
	O294	O	1.179120	1.184558	1.167517
	H295	H	1.156465	1.197057	1.157120
	H296	H	1.176568	1.151032	1.182646
	O297	O	0.607477	0.705102	0.690926
	H298	H	0.613534	0.683507	0.689628
	H299	H	0.609178	0.714856	0.676042
	O300	O	0.370774	0.526352	0.536935
	H301	H	0.387060	0.523630	0.527212
	H302	H	0.373108	0.531134	0.526901
	O303	O	0.512327	0.506067	0.486721
	H304	H	0.510294	0.497317	0.482411
	H305	H	0.515795	0.493276	0.486273
	O306	O	-0.139176	0.081342	0.803661
	H307	H	-0.122440	0.079537	0.795919
	H308	H	-0.133489	0.046635	0.797981
	O309	O	1.089993	-0.206182	-0.148243
	H310	H	1.112588	-0.207315	-0.149869
	H311	H	1.112915	-0.217073	-0.142681
	O312	O	0.317620	0.683486	0.307793
	H313	H	0.334295	0.700766	0.303700
	H314	H	0.315870	0.697571	0.339116
	O315	O	0.619154	0.425004	0.613300
	H316	H	0.604466	0.415038	0.607953
	H317	H	0.625249	0.419462	0.617810
	O318	O	0.055482	-0.088334	0.186878
	H319	H	0.050012	-0.080535	0.174303
	H320	H	0.053611	-0.075509	0.176030
	O321	O	0.397281	0.601325	0.550839
	H322	H	0.389070	0.588251	0.565765
	H323	H	0.401090	0.609493	0.540364
	O324	O	0.932148	0.018509	1.155857
	H325	H	0.930486	0.035024	1.148739
	H326	H	0.929898	0.023675	1.155903
	O327	O	0.328596	0.370980	0.673307
	H328	H	0.352761	0.381094	0.672464
	H329	H	0.316442	0.394966	0.685709
	O330	O	-0.089960	0.876220	1.020627
	H331	H	-0.101074	0.898556	1.013277
	H332	H	-0.088009	0.860869	1.019628
	O333	O	0.178070	0.963622	-0.142160
	H334	H	0.176713	0.990331	-0.130519
	H335	H	0.205108	0.954046	-0.170380
	O336	O	0.863823	0.885115	-0.145337
	H337	H	0.854340	0.874153	-0.144991
	H338	H	0.881145	0.900205	-0.144695
	O339	O	-0.017740	1.204387	0.788776
	H340	H	0.005693	1.174082	0.793250
	H341	H	-0.023048	1.230855	0.761594
	O342	O	0.663361	0.506821	0.469692
	H343	H	0.666601	0.497025	0.491307
	H344	H	0.659837	0.498517	0.462336
	O345	O	0.121829	-0.039830	0.839157
	H346	H	0.107072	-0.020030	0.853860
	H347	H	0.103775	-0.048510	0.833932
	O348	O	0.656826	0.692553	0.474632
	H349	H	0.649476	0.708891	0.456842
	H350	H	0.673824	0.693218	0.476716
	O351	O	1.175451	1.218201	0.000140
	H352	H	1.161385	1.209914	0.019545
	H353	H	1.191559	1.245310	-0.003787
	O354	O	1.198510	0.812419	1.048008
	H355	H	1.185538	0.819150	1.053966
	H356	H	1.199910	0.808353	1.053812
	O357	O	0.166818	0.126930	-0.112295
	H358	H	0.151266	0.113460	-0.107554
	H359	H	0.174476	0.137554	-0.102784
	O360	O	-0.190203	0.197402	0.905842
	H361	H	-0.181018	0.211385	0.890121
	H362	H	-0.189145	0.199591	0.896656
	O363	O	0.868082	0.182790	0.124311
	H364	H	0.848140	0.181183	0.128568
	H365	H	0.872315	0.177856	0.111207
	O366	O	0.018038	0.200300	1.194520
	H367	H	0.007173	0.207275	1.208975
	H368	H	0.007298	0.201473	1.184691
	O369	O	0.933999	-0.131348	0.995544
	H370	H	0.938479	-0.130573	1.008950
	H371	H	0.922454	-0.131330	1.011276
	O372	O	0.684335	0.355529	0.362681
	H373	H	0.680144	0.373012	0.355053
	H374	H	0.688658	0.347618	0.392811
	O375	O	-0.608399	-0.509448	1.526547
	H376	H	-0.598731	-0.514726	1.519402
	H377	H	-0.613719	-0.505375	1.514919
	O378	O	0.618119	0.648501	0.447544
	H379	H	0.610560	0.662045	0.443640
	H380	H	0.623527	0.629315	0.447063
	O381	O	-0.135109	0.797189	0.118203
	H382	H	-0.139226	0.807427	0.108787
	H383	H	-0.137617	0.773588	0.130962
	O384	O	0.500287	0.658038	0.295082
	H385	H	0.502107	0.683523	0.297952
	H386	H	0.484166	0.643571	0.288881
	O387	O	0.594676	0.505341	0.619314
	H388	H	0.587327	0.518172	0.610757
	H389	H	0.594144	0.497412	0.620030
	O390	O	1.040941	1.005013	-0.000085
	H391	H	1.040745	1.000337	-0.006471
	H392	H	1.037483	1.019839	-0.005886
	O393	O	1.217171	0.028785	1.203153
	H394	H	1.221527	0.023366	1.206606
	H395	H	1.230367	0.023844	1.216653
	O396	O	0.411085	0.590858	0.701641
	H397	H	0.403931	0.607161	0.725674
	H398	H	0.440279	0.585573	0.703825
	O399	O	0.367235	0.605430	0.390394
	H400	H	0.370072	0.603629	0.400777
	H401	H	0.360290	0.630638	0.392675
	O402	O	0.955425	1.004554	-0.180447
	H403	H	0.938327	0.988539	-0.188943
	H404	H	0.980415	0.990330	-0.183318
	O405	O	0.687258	0.586951	0.679405
	H406	H	0.682356	0.574514	0.673032
	H407	H	0.679365	0.585980	0.675201
	O408	O	0.438090	0.332281	0.594923
	H409	H	0.425869	0.316477	0.599745
	H410	H	0.426900	0.338869	0.583199
	O411	O	1.178507	0.838586	0.813456
	H412	H	1.189209	0.851431	0.835100
	H413	H	1.173191	0.836809	0.827627
	O414	O	-0.161500	-0.023665	1.016222
	H415	H	-0.158935	-0.030667	1.011979
	H416	H	-0.158374	-0.029303	1.019577
	O417	O	0.087282	0.938691	1.049531
	H418	H	0.087575	0.939383	1.022351
	H419	H	0.080183	0.931533	1.047998
	O420	O	-0.183530	0.875691	1.184827
	H421	H	-0.195442	0.882406	1.158263
	H422	H	-0.180142	0.890175	1.193815
	O423	O	-0.095553	0.944322	-0.130586
	H424	H	-0.095720	0.937737	-0.145781
	H425	H	-0.083882	0.948917	-0.124878
	O426	O	0.372356	0.441906	0.395355
	H427	H	0.366088	0.458305	0.400473
	H428	H	0.351157	0.457991	0.374751
	O429	O	0.480707	0.481582	0.580834
	H430	H	0.477377	0.471418	0.578930
	H431	H	0.471186	0.461290	0.583571
	O432	O	0.361505	0.316219	0.551684
	H433	H	0.343043	0.313331	0.553216
	H434	H	0.359753	0.306099	0.569984
	O435	O	0.029540	-0.059570	0.055551
	H436	H	0.038371	-0.054382	0.057803
	H437	H	0.027312	-0.060773	0.062857
	O438	O	-0.077804	1.132785	0.982448
	H439	H	-0.064766	1.139197	1.000895
	H440	H	-0.091046	1.131089	0.971353
	O441	O	0.615219	0.344576	0.496534
	H442	H	0.624992	0.324034	0.513861
	H443	H	0.598383	0.340306	0.508469
