data_Molecule from HDF5

_cell_length_a		16.324943
_cell_length_b		16.105460
_cell_length_c		16.299923
_cell_angle_alpha	89.753300
_cell_angle_beta	90.442452
_cell_angle_gamma	90.038543
_symmetry_space_group_name_H-M	'P 1'
_symmetry_Int_Tables_number		1

loop_
	_symmetry_equiv_pos_as_xyz
	x,y,z

loop_
	_atom_site_label
	_atom_site_type_symbol
	_atom_site_fract_x
	_atom_site_fract_y
	_atom_site_fract_z
	H0	H	0.408859	0.832252	0.715742
	H1	H	0.606041	0.162918	0.715324
	H2	H	0.603285	0.831685	0.290108
	H3	H	0.405732	0.162121	0.286250
	H4	H	0.719910	0.398760	0.838635
	H5	H	0.725119	0.598644	0.164225
	H6	H	0.288364	0.599184	0.840242
	H7	H	0.292021	0.394886	0.165720
	H8	H	0.843035	0.711157	0.402938
	H9	H	0.169681	0.710618	0.601964
	H10	H	0.841501	0.282585	0.599782
	H11	H	0.170277	0.284860	0.408571
	H12	H	0.842413	0.396607	0.717634
	H13	H	0.168139	0.597671	0.719980
	H14	H	0.843694	0.598004	0.284405
	H15	H	0.168934	0.397083	0.289096
	H16	H	0.407853	0.710518	0.838137
	H17	H	0.605793	0.710534	0.166012
	H18	H	0.600293	0.286253	0.836772
	H19	H	0.411273	0.282772	0.166361
	H20	H	0.719607	0.831978	0.404609
	H21	H	0.721510	0.162181	0.601734
	H22	H	0.293124	0.832753	0.601143
	H23	H	0.291014	0.162499	0.400968
	H24	H	0.909229	0.332176	0.214769
	H25	H	0.105942	0.661982	0.217324
	H26	H	0.102456	0.332007	0.792122
	H27	H	0.905913	0.662451	0.786154
	H28	H	0.220311	0.897720	0.339446
	H29	H	0.224107	0.096968	0.664884
	H30	H	0.788789	0.097291	0.339817
	H31	H	0.791310	0.894656	0.666039
	H32	H	0.341334	0.209093	0.905046
	H33	H	0.670051	0.209134	0.099593
	H34	H	0.342471	0.782226	0.098112
	H35	H	0.670530	0.785369	0.908821
	H36	H	0.342029	0.895964	0.216123
	H37	H	0.667877	0.097038	0.219674
	H38	H	0.343646	0.098268	0.784136
	H39	H	0.670154	0.899329	0.789541
	H40	H	0.907248	0.210210	0.338528
	H41	H	0.103234	0.208170	0.666779
	H42	H	0.100818	0.784175	0.338562
	H43	H	0.910957	0.782523	0.666914
	H44	H	0.219185	0.332335	0.905916
	H45	H	0.222086	0.661535	0.102983
	H46	H	0.793748	0.332365	0.100798
	H47	H	0.789867	0.662463	0.900925
	H48	H	0.421281	0.115435	0.598024
	H49	H	0.588974	0.883276	0.595097
	H50	H	0.601130	0.115038	0.411980
	H51	H	0.418536	0.879586	0.403006
	H52	H	0.599974	0.406680	0.117314
	H53	H	0.600189	0.585882	0.886105
	H54	H	0.407829	0.584581	0.119573
	H55	H	0.403213	0.410555	0.884742
	H56	H	0.124883	0.599356	0.411297
	H57	H	0.890151	0.590879	0.588269
	H58	H	0.120026	0.414776	0.605110
	H59	H	0.892979	0.407281	0.416194
	H60	H	0.127752	0.391231	0.606263
	H61	H	0.890989	0.582224	0.595304
	H62	H	0.118554	0.585111	0.417829
	H63	H	0.888504	0.410373	0.399329
	H64	H	0.420312	0.586669	0.116023
	H65	H	0.594431	0.589578	0.887701
	H66	H	0.599920	0.400774	0.119415
	H67	H	0.418033	0.408682	0.888788
	H68	H	0.595700	0.114912	0.407547
	H69	H	0.606929	0.878453	0.588465
	H70	H	0.414831	0.112556	0.585653
	H71	H	0.415445	0.882355	0.417212
	H72	H	0.920123	0.617797	0.105585
	H73	H	0.089547	0.380351	0.101913
	H74	H	0.097030	0.615080	0.910426
	H75	H	0.906731	0.378906	0.912158
	H76	H	0.111019	0.914230	0.619221
	H77	H	0.096846	0.089407	0.386169
	H78	H	0.913549	0.086651	0.618640
	H79	H	0.913389	0.902111	0.386518
	H80	H	0.621594	0.094838	0.914631
	H81	H	0.387872	0.089957	0.096945
	H82	H	0.625469	0.900617	0.105495
	H83	H	0.392111	0.910831	0.907959
	H84	H	0.621596	0.899812	0.090924
	H85	H	0.388940	0.091393	0.093666
	H86	H	0.620630	0.084332	0.908209
	H87	H	0.388110	0.903268	0.900835
	H88	H	0.912883	0.091342	0.620057
	H89	H	0.099352	0.093550	0.384685
	H90	H	0.088318	0.907644	0.613782
	H91	H	0.908281	0.905416	0.385189
	H92	H	0.099789	0.615889	0.911341
	H93	H	0.102013	0.381526	0.084806
	H94	H	0.923035	0.610768	0.083461
	H95	H	0.914720	0.378919	0.904209
	H96	H	0.407763	0.118188	0.596591
	H97	H	0.602343	0.874452	0.607551
	H98	H	0.595295	0.113086	0.414560
	H99	H	0.405188	0.876935	0.409129
	H100	H	0.605074	0.403033	0.119572
	H101	H	0.600546	0.592949	0.884591
	H102	H	0.413574	0.596739	0.121540
	H103	H	0.409708	0.396365	0.883365
	H104	H	0.123711	0.584426	0.401746
	H105	H	0.888201	0.592091	0.599347
	H106	H	0.118706	0.401380	0.585450
	H107	H	0.886457	0.394151	0.406682
	H108	H	0.902572	0.618495	0.090894
	H109	H	0.110085	0.373964	0.103381
	H110	H	0.099219	0.617215	0.908731
	H111	H	0.916589	0.382123	0.914544
	H112	H	0.103663	0.890811	0.624074
	H113	H	0.101637	0.089506	0.385235
	H114	H	0.909419	0.088353	0.620442
	H115	H	0.912927	0.907944	0.387879
	H116	H	0.625869	0.094945	0.903014
	H117	H	0.389684	0.087275	0.094627
	H118	H	0.619757	0.913264	0.098616
	H119	H	0.389962	0.900558	0.911512
	C120	C	0.386119	0.006284	0.622684
	C121	C	0.628286	0.988409	0.624739
	C122	C	0.626362	0.005413	0.382490
	C123	C	0.384262	0.988788	0.380299
	C124	C	0.628631	0.375362	0.010590
	C125	C	0.628186	0.618660	0.993811
	C126	C	0.384357	0.619276	0.011169
	C127	C	0.383841	0.375338	0.993912
	C128	C	0.014822	0.618838	0.380324
	C129	C	0.997546	0.617784	0.623834
	C130	C	0.014137	0.373815	0.626149
	C131	C	0.997384	0.375420	0.380977
	C132	C	0.886303	0.506391	0.122207
	C133	C	0.128693	0.488147	0.124909
	C134	C	0.126457	0.506638	0.882576
	C135	C	0.883728	0.488820	0.880374
	C136	C	0.127681	0.875652	0.510747
	C137	C	0.127971	0.118560	0.493558
	C138	C	0.883308	0.117885	0.511302
	C139	C	0.884036	0.875273	0.494711
	C140	C	0.514648	0.119812	0.879389
	C141	C	0.496945	0.118341	0.123997
	C142	C	0.514073	0.875351	0.124996
	C143	C	0.498118	0.876073	0.880391
	C144	C	0.388767	0.881770	0.677853
	C145	C	0.626228	0.113213	0.678375
	C146	C	0.623933	0.881128	0.327365
	C147	C	0.385727	0.112819	0.324243
	C148	C	0.682130	0.378504	0.887375
	C149	C	0.685916	0.618006	0.115882
	C150	C	0.327700	0.617970	0.888508
	C151	C	0.329609	0.375507	0.116860
	C152	C	0.891769	0.673749	0.382265
	C153	C	0.120496	0.673294	0.622388
	C154	C	0.890582	0.319754	0.621438
	C155	C	0.120879	0.321362	0.386502
	C156	C	0.891248	0.376732	0.679920
	C157	C	0.119633	0.617228	0.681203
	C158	C	0.892468	0.617836	0.323108
	C159	C	0.120316	0.377364	0.326950
	C160	C	0.387226	0.673422	0.887515
	C161	C	0.626302	0.673457	0.116810
	C162	C	0.622888	0.322190	0.886638
	C163	C	0.389284	0.320035	0.117236
	C164	C	0.681911	0.881255	0.384235
	C165	C	0.683518	0.112823	0.621664
	C166	C	0.331225	0.881820	0.620925
	C167	C	0.328690	0.112919	0.381304
	C168	C	0.888501	0.381882	0.177581
	C169	C	0.126180	0.612640	0.179693
	C170	C	0.123370	0.381787	0.828927
	C171	C	0.885450	0.613102	0.823946
	C172	C	0.182035	0.877625	0.387984
	C173	C	0.184809	0.116396	0.616586
	C174	C	0.827311	0.116744	0.388288
	C175	C	0.829462	0.875762	0.617418
	C176	C	0.390844	0.173274	0.883199
	C177	C	0.620655	0.172639	0.121125
	C178	C	0.391056	0.819883	0.120010
	C179	C	0.621561	0.822060	0.886071
	C180	C	0.391080	0.876260	0.178882
	C181	C	0.619492	0.117065	0.180882
	C182	C	0.391765	0.117865	0.823338
	C183	C	0.621335	0.878758	0.827071
	C184	C	0.886392	0.172674	0.387496
	C185	C	0.125005	0.171934	0.617480
	C186	C	0.122917	0.821252	0.387492
	C187	C	0.888571	0.819536	0.617804
	C188	C	0.181290	0.381726	0.885553
	C189	C	0.183924	0.612462	0.122908
	C190	C	0.831246	0.381891	0.120825
	C191	C	0.828084	0.613447	0.881219
	C192	C	0.408100	0.093045	0.600056
	C193	C	0.606087	0.901410	0.603241
	C194	C	0.603810	0.092128	0.404642
	C195	C	0.406379	0.901858	0.403251
	C196	C	0.607858	0.397005	0.096595
	C197	C	0.605131	0.596063	0.908162
	C198	C	0.407065	0.596035	0.096819
	C199	C	0.404185	0.398411	0.907814
	C200	C	0.100307	0.596375	0.403294
	C201	C	0.911863	0.595072	0.600956
	C202	C	0.099919	0.395896	0.605092
	C203	C	0.911523	0.397383	0.401530
	C204	C	0.908570	0.593255	0.099734
	C205	C	0.106862	0.401118	0.103148
	C206	C	0.105125	0.593521	0.904066
	C207	C	0.906076	0.402439	0.903513
	C208	C	0.107030	0.897803	0.596718
	C209	C	0.105816	0.097016	0.407659
	C210	C	0.905597	0.095550	0.597525
	C211	C	0.905367	0.898444	0.408560
	C212	C	0.600462	0.097641	0.901895
	C213	C	0.411077	0.096128	0.101633
	C214	C	0.600017	0.897995	0.104256
	C215	C	0.412274	0.898197	0.900881
	Zn216	Zn	0.506687	-0.001763	0.751043
	Zn217	Zn	0.505139	-0.002982	0.253697
	Zn218	Zn	0.757592	0.497406	0.002222
	Zn219	Zn	0.255630	0.497512	0.003124
	Zn220	Zn	0.006147	0.746615	0.502548
	Zn221	Zn	0.004892	0.246174	0.502733
	Zn222	Zn	0.005559	0.497284	0.753565
	Zn223	Zn	0.006400	0.497273	0.251576
	Zn224	Zn	0.506176	0.747127	0.002256
	Zn225	Zn	0.505880	0.247091	0.002161
	Zn226	Zn	0.754687	-0.003354	0.503172
	Zn227	Zn	0.257318	-0.002642	0.501762
	N228	N	0.422227	0.960255	0.678920
	N229	N	0.592588	0.034865	0.680504
	N230	N	0.590055	0.959385	0.326265
	N231	N	0.419490	0.034692	0.323597
	N232	N	0.685771	0.410960	0.965411
	N233	N	0.687073	0.584457	0.038408
	N234	N	0.325670	0.584858	0.966476
	N235	N	0.325950	0.409293	0.039038
	N236	N	0.968763	0.674345	0.417319
	N237	N	0.043392	0.673768	0.587260
	N238	N	0.967985	0.317722	0.588625
	N239	N	0.043559	0.320354	0.419538
	N240	N	0.969051	0.409450	0.682968
	N241	N	0.042369	0.583335	0.681793
	N242	N	0.969845	0.584195	0.321979
	N243	N	0.042533	0.410413	0.323401
	N244	N	0.421802	0.674110	0.964736
	N245	N	0.590902	0.673893	0.039983
	N246	N	0.590427	0.320167	0.964158
	N247	N	0.422244	0.320031	0.039908
	N248	N	0.683185	0.959428	0.417956
	N249	N	0.684925	0.034077	0.589167
	N250	N	0.329533	0.960266	0.587343
	N251	N	0.327801	0.034621	0.415647
	N252	N	0.922055	0.460205	0.178484
	N253	N	0.092704	0.534306	0.181018
	N254	N	0.090388	0.460201	0.826786
	N255	N	0.919144	0.534789	0.823409
	N256	N	0.185353	0.910487	0.465684
	N257	N	0.186992	0.084073	0.538523
	N258	N	0.825511	0.083463	0.466028
	N259	N	0.826667	0.909607	0.539767
	N260	N	0.468387	0.174787	0.917087
	N261	N	0.543452	0.173563	0.086679
	N262	N	0.468586	0.818836	0.087504
	N263	N	0.544015	0.820285	0.918412
	N264	N	0.468586	0.910229	0.181988
	N265	N	0.541697	0.083968	0.182731
	N266	N	0.469751	0.085577	0.820776
	N267	N	0.543518	0.911566	0.823209
	N268	N	0.920310	0.173833	0.465230
	N269	N	0.090320	0.173368	0.540328
	N270	N	0.089984	0.819890	0.464921
	N271	N	0.921771	0.819045	0.540499
	N272	N	0.183486	0.460491	0.918299
	N273	N	0.185788	0.534028	0.089764
	N274	N	0.829901	0.460376	0.086901
	N275	N	0.826538	0.535245	0.915268
	O276	O	0.574272	0.436577	0.616651
	H277	H	0.585554	0.448824	0.611730
	H278	H	0.585718	0.431156	0.624611
	O279	O	0.516947	0.488729	0.384972
	H280	H	0.528773	0.486027	0.399476
	H281	H	0.519689	0.476917	0.390021
	O282	O	0.502262	0.492306	0.503993
	H283	H	0.503182	0.483390	0.506144
	H284	H	0.489643	0.490548	0.514502
	O285	O	-0.020581	1.044952	0.934678
	H286	H	-0.015661	1.042994	0.939778
	H287	H	-0.027390	1.052794	0.939280
	O288	O	0.500248	0.510016	0.444146
	H289	H	0.494537	0.515462	0.447024
	H290	H	0.494434	0.514034	0.448063
	O291	O	-0.567316	0.525484	0.454664
	H292	H	-0.544629	0.521046	0.447349
	H293	H	-0.567866	0.521331	0.460953
	O294	O	0.572977	0.581699	0.595914
	H295	H	0.561757	0.584567	0.591761
	H296	H	0.569500	0.594977	0.587048
	O297	O	0.503364	0.558484	0.503344
	H298	H	0.507659	0.555696	0.496737
	H299	H	0.494863	0.565474	0.500779
	O300	O	0.542892	0.466947	0.494733
	H301	H	0.547227	0.468671	0.500182
	H302	H	0.539888	0.459033	0.497325
	O303	O	0.528533	0.516059	0.484121
	H304	H	0.521875	0.514295	0.477021
	H305	H	0.516706	0.517519	0.481100
	O306	O	0.508133	0.466130	1.466382
	H307	H	0.518091	0.461977	1.466384
	H308	H	0.503495	0.481651	1.462180
	O309	O	0.562080	0.493893	0.535776
	H310	H	0.562755	0.494090	0.543727
	H311	H	0.556133	0.492870	0.533992
	O312	O	0.544569	0.492230	0.489845
	H313	H	0.542194	0.484678	0.505538
	H314	H	0.550365	0.481652	0.493496
	O315	O	0.967118	0.036935	0.943133
	H316	H	0.963463	0.035842	0.941554
	H317	H	0.973878	0.027580	0.946060
	O318	O	-0.327741	-0.285329	-0.396704
	H319	H	-0.336118	-0.279754	-0.403822
	H320	H	-0.330090	-0.279854	-0.387814
	O321	O	0.522283	0.459906	0.493807
	H322	H	0.529765	0.453932	0.489726
	H323	H	0.522829	0.456979	0.500588
	O324	O	0.969276	0.053488	-0.060439
	H325	H	0.958326	0.058014	-0.068443
	H326	H	0.973173	0.057246	-0.074492
	O327	O	0.977839	1.022093	-0.038635
	H328	H	0.981426	1.020435	-0.040154
	H329	H	0.972071	1.021214	-0.042012
	O330	O	0.418799	0.469436	0.578487
	H331	H	0.415144	0.465980	0.572631
	H332	H	0.425016	0.465563	0.576664
	O333	O	0.346835	0.479750	0.446453
	H334	H	0.346547	0.489469	0.437716
	H335	H	0.344778	0.487568	0.437785
