data_Molecule from HDF5

_cell_length_a		16.237472
_cell_length_b		16.103008
_cell_length_c		16.282917
_cell_angle_alpha	89.391300
_cell_angle_beta	89.475669
_cell_angle_gamma	90.887871
_symmetry_space_group_name_H-M	'P 1'
_symmetry_Int_Tables_number		1

loop_
	_symmetry_equiv_pos_as_xyz
	x,y,z

loop_
	_atom_site_label
	_atom_site_type_symbol
	_atom_site_fract_x
	_atom_site_fract_y
	_atom_site_fract_z
	H0	H	0.399962	0.839581	0.713093
	H1	H	0.605761	0.169567	0.705708
	H2	H	0.602553	0.839344	0.280383
	H3	H	0.408813	0.169047	0.279192
	H4	H	0.720720	0.409172	0.831634
	H5	H	0.721532	0.604765	0.158352
	H6	H	0.293750	0.605129	0.830430
	H7	H	0.284434	0.399411	0.157684
	H8	H	0.839282	0.713489	0.397304
	H9	H	0.168642	0.719280	0.588486
	H10	H	0.841748	0.283769	0.598088
	H11	H	0.170994	0.296811	0.400156
	H12	H	0.841595	0.398161	0.713840
	H13	H	0.168825	0.605428	0.706766
	H14	H	0.841000	0.601534	0.280545
	H15	H	0.167888	0.407300	0.278535
	H16	H	0.412359	0.718025	0.830857
	H17	H	0.602704	0.716668	0.160562
	H18	H	0.602128	0.295443	0.830387
	H19	H	0.402296	0.286065	0.158839
	H20	H	0.715584	0.837968	0.396280
	H21	H	0.721341	0.167934	0.590797
	H22	H	0.286224	0.839259	0.596384
	H23	H	0.294480	0.170710	0.395919
	H24	H	0.901862	0.339369	0.211818
	H25	H	0.106374	0.669881	0.206442
	H26	H	0.102680	0.338220	0.782281
	H27	H	0.910004	0.668220	0.778406
	H28	H	0.221026	0.906741	0.331805
	H29	H	0.220349	0.104771	0.658229
	H30	H	0.792498	0.104565	0.331215
	H31	H	0.784416	0.898927	0.656597
	H32	H	0.339613	0.217838	0.896519
	H33	H	0.668631	0.219391	0.088624
	H34	H	0.341021	0.785267	0.096280
	H35	H	0.670373	0.798726	0.899499
	H36	H	0.340945	0.899893	0.213084
	H37	H	0.667831	0.107066	0.207712
	H38	H	0.340055	0.104682	0.778890
	H39	H	0.666659	0.908167	0.777886
	H40	H	0.910315	0.219867	0.331792
	H41	H	0.103415	0.216692	0.659950
	H42	H	0.098728	0.796915	0.329487
	H43	H	0.902156	0.785371	0.657657
	H44	H	0.216970	0.338565	0.896811
	H45	H	0.220638	0.669504	0.089395
	H46	H	0.786251	0.339980	0.097016
	H47	H	0.798422	0.671644	0.897520
	H48	H	0.404795	0.125119	0.588742
	H49	H	0.601810	0.881814	0.590013
	H50	H	0.594440	0.119238	0.404177
	H51	H	0.411210	0.884762	0.399630
	H52	H	0.591901	0.402167	0.113569
	H53	H	0.601905	0.602617	0.877612
	H54	H	0.407651	0.582231	0.108911
	H55	H	0.413705	0.414555	0.879327
	H56	H	0.119456	0.595818	0.404843
	H57	H	0.888461	0.593695	0.583078
	H58	H	0.120588	0.410665	0.583326
	H59	H	0.887654	0.406001	0.408661
	H60	H	0.120342	0.418064	0.589476
	H61	H	0.889816	0.585598	0.590493
	H62	H	0.124010	0.598291	0.391317
	H63	H	0.890501	0.416077	0.406580
	H64	H	0.422207	0.597748	0.110204
	H65	H	0.603479	0.603944	0.877347
	H66	H	0.604931	0.414603	0.113575
	H67	H	0.411283	0.408987	0.876967
	H68	H	0.605579	0.122409	0.403225
	H69	H	0.583920	0.885337	0.597331
	H70	H	0.418023	0.123337	0.593527
	H71	H	0.413763	0.888536	0.408629
	H72	H	0.924321	0.616053	0.078580
	H73	H	0.092102	0.385946	0.091160
	H74	H	0.112332	0.625302	0.900371
	H75	H	0.901193	0.382261	0.901643
	H76	H	0.094613	0.908077	0.612284
	H77	H	0.101819	0.092761	0.380642
	H78	H	0.912848	0.085992	0.609156
	H79	H	0.897881	0.909164	0.372492
	H80	H	0.620107	0.089856	0.889817
	H81	H	0.384268	0.105426	0.085867
	H82	H	0.619406	0.920893	0.085419
	H83	H	0.384467	0.901111	0.905591
	H84	H	0.624283	0.913487	0.096487
	H85	H	0.391413	0.085629	0.081080
	H86	H	0.625381	0.112493	0.894873
	H87	H	0.389899	0.915239	0.910109
	H88	H	0.915662	0.095852	0.611876
	H89	H	0.093286	0.102928	0.378918
	H90	H	0.096974	0.911937	0.612309
	H91	H	0.913521	0.919739	0.380430
	H92	H	0.096390	0.623930	0.888611
	H93	H	0.091278	0.388143	0.086196
	H94	H	0.898527	0.626254	0.082996
	H95	H	0.918651	0.386203	0.899278
	H96	H	0.415278	0.119482	0.580208
	H97	H	0.588713	0.890243	0.577978
	H98	H	0.598553	0.123944	0.394037
	H99	H	0.404198	0.885125	0.406742
	H100	H	0.588348	0.419762	0.107759
	H101	H	0.604031	0.601160	0.878194
	H102	H	0.402023	0.601730	0.116275
	H103	H	0.408467	0.414522	0.878731
	H104	H	0.124731	0.609051	0.400142
	H105	H	0.884253	0.596325	0.592931
	H106	H	0.124634	0.409729	0.592601
	H107	H	0.885283	0.409923	0.399407
	H108	H	0.916441	0.626542	0.103248
	H109	H	0.096111	0.385595	0.087528
	H110	H	0.095355	0.618040	0.907823
	H111	H	0.910194	0.389302	0.914902
	H112	H	0.092513	0.911832	0.610772
	H113	H	0.106355	0.104637	0.375445
	H114	H	0.904512	0.092452	0.613126
	H115	H	0.916100	0.899826	0.376095
	H116	H	0.616432	0.098006	0.911792
	H117	H	0.384230	0.089686	0.101082
	H118	H	0.622400	0.907279	0.084565
	H119	H	0.384395	0.912303	0.895564
	C120	C	0.382081	0.013348	0.617283
	C121	C	0.623481	0.995249	0.615468
	C122	C	0.626523	0.012507	0.372543
	C123	C	0.383153	0.995574	0.374934
	C124	C	0.624872	0.384773	0.003424
	C125	C	0.629517	0.628871	0.986640
	C126	C	0.384273	0.624540	0.003463
	C127	C	0.380879	0.381531	0.986330
	C128	C	0.013737	0.626995	0.371429
	C129	C	0.995757	0.624066	0.615775
	C130	C	0.013772	0.380624	0.618881
	C131	C	0.996528	0.383610	0.375184
	C132	C	0.882237	0.513708	0.117970
	C133	C	0.124573	0.495730	0.115191
	C134	C	0.127708	0.512745	0.872063
	C135	C	0.884288	0.495298	0.874969
	C136	C	0.123620	0.883894	0.503143
	C137	C	0.127867	0.127116	0.486975
	C138	C	0.883792	0.123277	0.503497
	C139	C	0.879600	0.879537	0.484839
	C140	C	0.512167	0.127471	0.871627
	C141	C	0.495397	0.124747	0.116105
	C142	C	0.513198	0.882369	0.118228
	C143	C	0.495372	0.883669	0.874460
	C144	C	0.381438	0.888837	0.674185
	C145	C	0.624405	0.119924	0.668530
	C146	C	0.622802	0.888488	0.318037
	C147	C	0.387560	0.120099	0.317928
	C148	C	0.681616	0.388623	0.880262
	C149	C	0.683577	0.625141	0.109811
	C150	C	0.330895	0.624443	0.879747
	C151	C	0.323342	0.380440	0.108976
	C152	C	0.888921	0.677861	0.376163
	C153	C	0.119538	0.681253	0.610293
	C154	C	0.890659	0.322391	0.618220
	C155	C	0.120988	0.332229	0.378441
	C156	C	0.890681	0.379330	0.675903
	C157	C	0.119670	0.624340	0.669007
	C158	C	0.889840	0.622056	0.318072
	C159	C	0.119350	0.386878	0.317751
	C160	C	0.389779	0.680731	0.879851
	C161	C	0.624722	0.681142	0.110725
	C162	C	0.623021	0.331747	0.879844
	C163	C	0.381766	0.323973	0.109555
	C164	C	0.679025	0.887697	0.375617
	C165	C	0.682366	0.118864	0.611587
	C166	C	0.324839	0.888646	0.616312
	C167	C	0.331148	0.120921	0.376031
	C168	C	0.882225	0.389198	0.174107
	C169	C	0.125288	0.620586	0.168748
	C170	C	0.123221	0.387756	0.819168
	C171	C	0.888981	0.619586	0.817768
	C172	C	0.181089	0.887147	0.380391
	C173	C	0.182367	0.124379	0.609676
	C174	C	0.830292	0.123531	0.380084
	C175	C	0.822920	0.879430	0.607816
	C176	C	0.388507	0.180823	0.875561
	C177	C	0.619190	0.181714	0.110887
	C178	C	0.389848	0.824238	0.116343
	C179	C	0.620326	0.833318	0.877593
	C180	C	0.389846	0.881171	0.174486
	C181	C	0.618933	0.125700	0.169844
	C182	C	0.388703	0.124622	0.816964
	C183	C	0.618486	0.888064	0.817445
	C184	C	0.888738	0.181043	0.380600
	C185	C	0.124085	0.180330	0.610526
	C186	C	0.120776	0.832050	0.378996
	C187	C	0.881211	0.822899	0.608384
	C188	C	0.180482	0.388013	0.875952
	C189	C	0.182297	0.620205	0.110785
	C190	C	0.825022	0.389264	0.116553
	C191	C	0.833761	0.621139	0.876895
	C192	C	0.405773	0.100163	0.594203
	C193	C	0.598683	0.908389	0.594662
	C194	C	0.605707	0.099332	0.394047
	C195	C	0.403683	0.908653	0.398153
	C196	C	0.601832	0.405958	0.089471
	C197	C	0.609134	0.608591	0.900133
	C198	C	0.404652	0.600857	0.089424
	C199	C	0.404387	0.405606	0.900517
	C200	C	0.100373	0.607047	0.392457
	C201	C	0.909635	0.599276	0.594905
	C202	C	0.099698	0.405501	0.595486
	C203	C	0.910197	0.404380	0.398114
	C204	C	0.906131	0.600696	0.095182
	C205	C	0.100320	0.409048	0.094399
	C206	C	0.107271	0.599876	0.892585
	C207	C	0.904182	0.408443	0.898301
	C208	C	0.101108	0.904421	0.589381
	C209	C	0.106739	0.106197	0.400633
	C210	C	0.904909	0.098720	0.589287
	C211	C	0.902428	0.902699	0.398732
	C212	C	0.598253	0.106238	0.892613
	C213	C	0.408955	0.100499	0.095462
	C214	C	0.599687	0.906886	0.095399
	C215	C	0.408865	0.903580	0.897057
	Zn216	Zn	0.502766	0.004877	0.744862
	Zn217	Zn	0.504448	0.003996	0.246135
	Zn218	Zn	0.755807	0.505725	-0.004663
	Zn219	Zn	0.253844	0.503749	-0.005843
	Zn220	Zn	0.003220	0.753222	0.493699
	Zn221	Zn	0.005576	0.253551	0.496454
	Zn222	Zn	0.005405	0.503017	0.745978
	Zn223	Zn	0.004412	0.504933	0.244966
	Zn224	Zn	0.505568	0.754804	-0.004340
	Zn225	Zn	0.503464	0.254333	-0.005338
	Zn226	Zn	0.752986	0.002490	0.493819
	Zn227	Zn	0.254353	0.004924	0.495630
	N228	N	0.416211	0.967447	0.674998
	N229	N	0.588381	0.041998	0.671018
	N230	N	0.590912	0.967130	0.315876
	N231	N	0.419304	0.041345	0.317187
	N232	N	0.683198	0.420594	0.958386
	N233	N	0.686953	0.593717	0.031608
	N234	N	0.327424	0.589954	0.957501
	N235	N	0.322601	0.415401	0.031447
	N236	N	0.966872	0.680991	0.408694
	N237	N	0.041413	0.681109	0.577934
	N238	N	0.968141	0.323203	0.583506
	N239	N	0.043370	0.329773	0.413267
	N240	N	0.968309	0.414969	0.676350
	N241	N	0.041871	0.589187	0.672244
	N242	N	0.968384	0.591117	0.315063
	N243	N	0.040828	0.417966	0.315612
	N244	N	0.422275	0.680915	0.957627
	N245	N	0.591672	0.683466	0.033106
	N246	N	0.588340	0.329460	0.957340
	N247	N	0.416918	0.324441	0.032134
	N248	N	0.681585	0.965936	0.408626
	N249	N	0.681929	0.040167	0.579365
	N250	N	0.324956	0.966921	0.581619
	N251	N	0.328295	0.042466	0.410634
	N252	N	0.917337	0.467645	0.174841
	N253	N	0.090047	0.542318	0.171643
	N254	N	0.091314	0.466493	0.816407
	N255	N	0.919807	0.540510	0.816516
	N256	N	0.182950	0.918467	0.458555
	N257	N	0.184708	0.092079	0.531884
	N258	N	0.827371	0.088228	0.457569
	N259	N	0.821707	0.913863	0.530056
	N260	N	0.466221	0.182808	0.908746
	N261	N	0.541265	0.181186	0.078157
	N262	N	0.467808	0.824754	0.082262
	N263	N	0.542776	0.830574	0.912553
	N264	N	0.467625	0.916372	0.175715
	N265	N	0.540904	0.090982	0.173157
	N266	N	0.466696	0.092367	0.814260
	N267	N	0.539838	0.918679	0.815588
	N268	N	0.921271	0.180956	0.458268
	N269	N	0.090664	0.181992	0.533175
	N270	N	0.085298	0.830340	0.456356
	N271	N	0.915652	0.822618	0.530875
	N272	N	0.183263	0.466541	0.908234
	N273	N	0.181643	0.541727	0.077997
	N274	N	0.824865	0.467747	0.082491
	N275	N	0.830677	0.542833	0.911752
	O276	O	0.087503	0.076267	0.047777
	H277	H	0.095248	0.073951	0.050012
	H278	H	0.080719	0.073943	0.058160
	O279	O	0.450209	0.475450	0.549863
	H280	H	0.451481	0.478524	0.549354
	H281	H	0.452433	0.479219	0.551476
	O282	O	0.479323	0.565177	0.501796
	H283	H	0.482991	0.561943	0.505366
	H284	H	0.471034	0.562749	0.508056
	O285	O	0.951046	-0.024725	1.058353
	H286	H	0.947857	-0.025727	1.059084
	H287	H	0.942132	-0.024144	1.055346
	O288	O	0.967932	0.058539	0.019614
	H289	H	0.964745	0.059585	0.017301
	H290	H	0.967085	0.058566	0.019744
	O291	O	0.515151	0.539496	0.608377
	H292	H	0.514371	0.525357	0.608590
	H293	H	0.513053	0.529256	0.617506
	O294	O	0.961631	-0.047611	1.001721
	H295	H	0.948931	-0.042470	1.001577
	H296	H	0.962504	-0.052559	1.007718
	O297	O	0.038553	0.036195	-0.044515
	H298	H	0.038634	0.041043	-0.046829
	H299	H	0.047932	0.035621	-0.037783
	O300	O	0.574459	0.482675	0.443837
	H301	H	0.570640	0.479102	0.443443
	H302	H	0.578281	0.487356	0.446780
	O303	O	0.484152	0.519477	0.453993
	H304	H	0.486574	0.520170	0.451200
	H305	H	0.485809	0.519087	0.451332
	O306	O	0.995951	0.077544	-0.027197
	H307	H	1.006119	0.066361	-0.030487
	H308	H	0.989144	0.085685	-0.019078
	O309	O	0.046608	0.031058	0.967817
	H310	H	0.060798	0.036908	0.973143
	H311	H	0.049929	0.037199	0.972927
	O312	O	0.969327	0.976461	1.001325
	H313	H	0.968927	0.973934	1.004486
	H314	H	0.975301	0.981035	0.994297
	O315	O	0.591897	0.506974	0.434587
	H316	H	0.588707	0.506807	0.432305
	H317	H	0.588486	0.512946	0.434506
	O318	O	0.487727	0.569871	0.494188
	H319	H	0.486502	0.577566	0.496052
	H320	H	0.482337	0.572541	0.496857
	O321	O	-0.018621	0.995956	1.060661
	H322	H	-0.023876	1.003786	1.060619
	H323	H	-0.005457	0.997855	1.055285
	O324	O	0.509004	0.490024	0.482775
	H325	H	0.523124	0.487149	0.482628
	H326	H	0.507913	0.476410	0.486165
	O327	O	0.528431	0.446916	0.504041
	H328	H	0.542855	0.443843	0.508874
	H329	H	0.525748	0.446713	0.491961
	O330	O	0.526506	0.539782	0.483943
	H331	H	0.523553	0.548564	0.480351
	H332	H	0.536391	0.536265	0.490206
	O333	O	0.507873	0.465052	0.551351
	H334	H	0.504581	0.466603	0.548897
	H335	H	0.511596	0.460267	0.542606
	O336	O	0.535422	0.539948	0.497093
	H337	H	0.531957	0.545064	0.500277
	H338	H	0.542246	0.543211	0.512319
	O339	O	0.970455	1.035670	-0.010600
	H340	H	0.968215	1.040997	-0.003275
	H341	H	0.974878	1.035705	-0.016806
	O342	O	0.562917	0.492300	0.521513
	H343	H	0.558374	0.484511	0.514858
	H344	H	0.556804	0.488854	0.520511
	O345	O	0.498705	0.383347	0.573447
	H346	H	0.494849	0.374487	0.568679
	H347	H	0.504053	0.384109	0.573909
	O348	O	0.076415	0.048352	0.053857
	H349	H	0.061639	0.045659	0.060569
	H350	H	0.068954	0.042925	0.044297
	O351	O	-0.009920	0.975364	0.961372
	H352	H	-0.011064	0.962951	0.963532
	H353	H	-0.007737	0.975972	0.960626
	O354	O	0.436280	0.430273	0.519114
	H355	H	0.439334	0.426933	0.521622
	H356	H	0.430086	0.427899	0.526871
	O357	O	-0.035051	1.001488	0.997540
	H358	H	-0.045281	1.001706	0.991469
	H359	H	-0.029382	0.999099	0.998889
