data_Molecule from HDF5

_cell_length_a		16.518059
_cell_length_b		16.518489
_cell_length_c		16.565839
_cell_angle_alpha	89.976195
_cell_angle_beta	90.017021
_cell_angle_gamma	90.083717
_symmetry_space_group_name_H-M	'P 1'
_symmetry_Int_Tables_number		1

loop_
	_symmetry_equiv_pos_as_xyz
	x,y,z

loop_
	_atom_site_label
	_atom_site_type_symbol
	_atom_site_fract_x
	_atom_site_fract_y
	_atom_site_fract_z
	H0	H	0.398897	0.855980	0.719490
	H1	H	0.607857	0.171895	0.721780
	H2	H	0.605010	0.855767	0.279726
	H3	H	0.397401	0.171251	0.279627
	H4	H	0.721990	0.407411	0.841799
	H5	H	0.720358	0.615545	0.157136
	H6	H	0.282763	0.613560	0.841157
	H7	H	0.280174	0.409423	0.157723
	H8	H	0.842409	0.730806	0.399626
	H9	H	0.159843	0.728993	0.601259
	H10	H	0.843181	0.289503	0.606379
	H11	H	0.156949	0.292176	0.396119
	H12	H	0.842820	0.405844	0.722100
	H13	H	0.158249	0.615202	0.719697
	H14	H	0.841708	0.615041	0.282438
	H15	H	0.156952	0.408169	0.278405
	H16	H	0.399839	0.730485	0.841159
	H17	H	0.602638	0.732036	0.157362
	H18	H	0.604630	0.292434	0.842208
	H19	H	0.396445	0.292318	0.157684
	H20	H	0.719513	0.855237	0.398680
	H21	H	0.723207	0.171769	0.604378
	H22	H	0.283482	0.855410	0.601457
	H23	H	0.282479	0.171376	0.397564
	H24	H	0.892050	0.357191	0.223704
	H25	H	0.100381	0.671350	0.216686
	H26	H	0.105457	0.355493	0.777943
	H27	H	0.898992	0.671401	0.782374
	H28	H	0.220604	0.910297	0.342918
	H29	H	0.223228	0.119308	0.656041
	H30	H	0.781192	0.115795	0.342935
	H31	H	0.779716	0.908693	0.657288
	H32	H	0.343558	0.234351	0.895399
	H33	H	0.658137	0.233692	0.102773
	H34	H	0.342114	0.794667	0.100221
	H35	H	0.658890	0.793494	0.896541
	H36	H	0.342724	0.908831	0.218983
	H37	H	0.658411	0.117259	0.219303
	H38	H	0.344848	0.119992	0.777035
	H39	H	0.658916	0.911040	0.780201
	H40	H	0.898072	0.232519	0.342459
	H41	H	0.106940	0.236666	0.656029
	H42	H	0.104657	0.792539	0.343355
	H43	H	0.897033	0.792661	0.657813
	H44	H	0.223549	0.356196	0.893242
	H45	H	0.218220	0.671396	0.101316
	H46	H	0.777899	0.356008	0.104769
	H47	H	0.784719	0.672126	0.900820
	H48	H	0.407750	0.129185	0.591810
	H49	H	0.596635	0.899118	0.591373
	H50	H	0.591149	0.126153	0.409052
	H51	H	0.415012	0.902672	0.411427
	H52	H	0.587757	0.416490	0.113121
	H53	H	0.596775	0.606127	0.883928
	H54	H	0.408123	0.598453	0.111634
	H55	H	0.417668	0.431747	0.894041
	H56	H	0.113209	0.602756	0.411882
	H57	H	0.887169	0.603412	0.593046
	H58	H	0.111531	0.427172	0.590713
	H59	H	0.887071	0.426323	0.406622
	H60	H	0.111030	0.422608	0.587479
	H61	H	0.885880	0.605176	0.591077
	H62	H	0.113841	0.600741	0.405020
	H63	H	0.887135	0.419360	0.413487
	H64	H	0.414274	0.607142	0.112808
	H65	H	0.591891	0.598389	0.887718
	H66	H	0.597344	0.429182	0.111664
	H67	H	0.415611	0.414995	0.886820
	H68	H	0.588503	0.126053	0.409516
	H69	H	0.584353	0.902797	0.595244
	H70	H	0.418042	0.125958	0.592366
	H71	H	0.403861	0.899536	0.411797
	H72	H	0.910680	0.623297	0.084187
	H73	H	0.089687	0.398651	0.091776
	H74	H	0.092865	0.624317	0.915270
	H75	H	0.908088	0.399445	0.909550
	H76	H	0.087891	0.921069	0.611530
	H77	H	0.090119	0.098397	0.389091
	H78	H	0.907754	0.105796	0.614812
	H79	H	0.909609	0.923725	0.387735
	H80	H	0.614887	0.106395	0.909571
	H81	H	0.388679	0.103361	0.087507
	H82	H	0.614700	0.922622	0.091392
	H83	H	0.386759	0.924495	0.904602
	H84	H	0.613982	0.921912	0.090651
	H85	H	0.389018	0.100168	0.089381
	H86	H	0.611745	0.102716	0.915002
	H87	H	0.387652	0.918538	0.910668
	H88	H	0.910967	0.094843	0.610521
	H89	H	0.086557	0.103996	0.389289
	H90	H	0.093612	0.919488	0.614775
	H91	H	0.911965	0.922360	0.388353
	H92	H	0.091169	0.626801	0.906008
	H93	H	0.087580	0.400786	0.089771
	H94	H	0.904319	0.628318	0.092773
	H95	H	0.911662	0.399332	0.907465
	H96	H	0.412342	0.124346	0.582891
	H97	H	0.588089	0.905413	0.583063
	H98	H	0.590196	0.125139	0.411137
	H99	H	0.410044	0.898305	0.402062
	H100	H	0.582282	0.429874	0.107121
	H101	H	0.587148	0.606921	0.887704
	H102	H	0.403335	0.607109	0.114895
	H103	H	0.402026	0.426980	0.885778
	H104	H	0.115285	0.607473	0.406850
	H105	H	0.887049	0.602685	0.589704
	H106	H	0.109775	0.427785	0.586067
	H107	H	0.890365	0.428457	0.415552
	H108	H	0.915348	0.625785	0.095265
	H109	H	0.090578	0.399089	0.088002
	H110	H	0.083911	0.621967	0.911294
	H111	H	0.911718	0.399879	0.911532
	H112	H	0.093004	0.925914	0.612184
	H113	H	0.093114	0.104029	0.387275
	H114	H	0.918893	0.103728	0.610571
	H115	H	0.909789	0.920291	0.387884
	H116	H	0.612984	0.098939	0.908637
	H117	H	0.387407	0.103315	0.091243
	H118	H	0.614192	0.922778	0.090588
	H119	H	0.390370	0.926730	0.911836
	C120	C	0.380931	0.022402	0.620756
	C121	C	0.622788	1.006228	0.621896
	C122	C	0.621686	0.021554	0.379039
	C123	C	0.378961	1.004717	0.377656
	C124	C	0.621540	0.392382	0.007276
	C125	C	0.621912	0.634441	0.991281
	C126	C	0.378883	0.634186	0.008155
	C127	C	0.379337	0.391933	0.992285
	C128	C	0.009123	0.634450	0.378394
	C129	C	0.991600	0.633977	0.621650
	C130	C	0.007562	0.391790	0.621221
	C131	C	0.991706	0.392370	0.379268
	C132	C	0.877924	0.521693	0.122229
	C133	C	0.120298	0.504255	0.119992
	C134	C	0.121742	0.520631	0.878237
	C135	C	0.879614	0.504100	0.879020
	C136	C	0.122653	0.891194	0.509036
	C137	C	0.122555	0.134803	0.491761
	C138	C	0.880331	0.133724	0.508499
	C139	C	0.879134	0.890811	0.491963
	C140	C	0.509172	0.134832	0.878619
	C141	C	0.492361	0.134245	0.120934
	C142	C	0.509354	0.891275	0.121499
	C143	C	0.492520	0.892327	0.878352
	C144	C	0.379982	0.903336	0.679503
	C145	C	0.625776	0.124841	0.681564
	C146	C	0.623141	0.902766	0.320062
	C147	C	0.378321	0.123512	0.319050
	C148	C	0.681673	0.389712	0.889165
	C149	C	0.680587	0.634812	0.110024
	C150	C	0.321874	0.633269	0.888537
	C151	C	0.319679	0.390448	0.110597
	C152	C	0.889658	0.691830	0.379686
	C153	C	0.111697	0.690614	0.620969
	C154	C	0.889966	0.330276	0.623913
	C155	C	0.110006	0.332422	0.377236
	C156	C	0.889829	0.388039	0.681800
	C157	C	0.110817	0.634321	0.680146
	C158	C	0.889364	0.634397	0.321511
	C159	C	0.110028	0.390142	0.319104
	C160	C	0.379719	0.691650	0.888891
	C161	C	0.622333	0.692576	0.110106
	C162	C	0.623296	0.332283	0.889239
	C163	C	0.377483	0.332238	0.110418
	C164	C	0.680233	0.902695	0.378783
	C165	C	0.683400	0.124487	0.623488
	C166	C	0.322641	0.902929	0.621040
	C167	C	0.321436	0.124094	0.377955
	C168	C	0.874637	0.403759	0.182801
	C169	C	0.120383	0.623750	0.177979
	C170	C	0.124346	0.402607	0.817864
	C171	C	0.879735	0.623897	0.821619
	C172	C	0.181285	0.890754	0.390266
	C173	C	0.183042	0.137578	0.609348
	C174	C	0.820958	0.134706	0.389882
	C175	C	0.819977	0.889895	0.610362
	C176	C	0.390894	0.194586	0.876602
	C177	C	0.610906	0.193797	0.121930
	C178	C	0.389755	0.833425	0.120714
	C179	C	0.611494	0.833296	0.877381
	C180	C	0.390129	0.890102	0.179576
	C181	C	0.610910	0.136078	0.179947
	C182	C	0.391463	0.137716	0.817901
	C183	C	0.611672	0.891680	0.819807
	C184	C	0.879020	0.192690	0.389641
	C185	C	0.125126	0.195640	0.609385
	C186	C	0.123755	0.832294	0.390659
	C187	C	0.878198	0.832155	0.610458
	C188	C	0.182676	0.402814	0.875345
	C189	C	0.178729	0.623775	0.120626
	C190	C	0.817838	0.403265	0.123913
	C191	C	0.822867	0.624253	0.880296
	C192	C	0.405533	0.104790	0.596114
	C193	C	0.597068	0.923813	0.597001
	C194	C	0.596965	0.104248	0.403041
	C195	C	0.402842	0.921637	0.401615
	C196	C	0.596253	0.417745	0.089314
	C197	C	0.598469	0.610763	0.908035
	C198	C	0.401895	0.610917	0.091510
	C199	C	0.404425	0.417222	0.910075
	C200	C	0.092477	0.610505	0.401278
	C201	C	0.908470	0.610432	0.598095
	C202	C	0.089548	0.418292	0.595464
	C203	C	0.909623	0.417456	0.404654
	C204	C	0.903089	0.604225	0.097702
	C205	C	0.096413	0.421167	0.096588
	C206	C	0.096394	0.602630	0.903577
	C207	C	0.903584	0.420916	0.902752
	C208	C	0.098404	0.915343	0.591587
	C209	C	0.097126	0.109471	0.409771
	C210	C	0.905395	0.108680	0.590707
	C211	C	0.903384	0.915146	0.409580
	C212	C	0.591704	0.109747	0.903773
	C213	C	0.409863	0.109477	0.096477
	C214	C	0.592435	0.915393	0.097697
	C215	C	0.409777	0.916415	0.902158
	Zn216	Zn	0.501941	0.014816	0.749951
	Zn217	Zn	0.501122	0.012562	0.249332
	Zn218	Zn	0.750858	0.512721	-0.000595
	Zn219	Zn	0.249915	0.512478	-0.000088
	Zn220	Zn	0.000954	0.762356	0.500443
	Zn221	Zn	0.000258	0.263269	0.500315
	Zn222	Zn	-0.000309	0.512313	0.750106
	Zn223	Zn	-0.000062	0.512709	0.249964
	Zn224	Zn	0.500937	0.763501	-0.000314
	Zn225	Zn	0.500508	0.263123	-0.000236
	Zn226	Zn	0.750724	0.013343	0.500523
	Zn227	Zn	0.251265	0.013414	0.500035
	N228	N	0.415342	0.978624	0.679738
	N229	N	0.588714	0.050234	0.680492
	N230	N	0.587459	0.977767	0.319984
	N231	N	0.413108	0.048101	0.318367
	N232	N	0.680919	0.426115	0.963768
	N233	N	0.680573	0.599438	0.034962
	N234	N	0.320861	0.598610	0.963985
	N235	N	0.320447	0.426491	0.035814
	N236	N	0.965195	0.692001	0.414168
	N237	N	0.036542	0.690701	0.585601
	N238	N	0.964497	0.332418	0.587255
	N239	N	0.035602	0.333754	0.413867
	N240	N	0.964075	0.425709	0.680257
	N241	N	0.035064	0.599777	0.680968
	N242	N	0.964749	0.599575	0.320330
	N243	N	0.035384	0.426654	0.320123
	N244	N	0.414231	0.692458	0.964344
	N245	N	0.586849	0.692533	0.035104
	N246	N	0.586580	0.333831	0.963728
	N247	N	0.413721	0.333073	0.035857
	N248	N	0.679659	0.977754	0.414465
	N249	N	0.681577	0.049828	0.587155
	N250	N	0.322876	0.977987	0.585464
	N251	N	0.321660	0.049034	0.413602
	N252	N	0.910939	0.478593	0.182101
	N253	N	0.084953	0.548417	0.178026
	N254	N	0.087179	0.476814	0.819493
	N255	N	0.914017	0.548122	0.820530
	N256	N	0.180768	0.926897	0.464874
	N257	N	0.181430	0.100464	0.535211
	N258	N	0.821716	0.098908	0.464692
	N259	N	0.820394	0.925734	0.535758
	N260	N	0.465112	0.192810	0.913563
	N261	N	0.535978	0.193185	0.086196
	N262	N	0.464990	0.833689	0.085536
	N263	N	0.536509	0.833560	0.913061
	N264	N	0.465593	0.925083	0.180232
	N265	N	0.536094	0.099936	0.179555
	N266	N	0.466126	0.101232	0.819314
	N267	N	0.536658	0.927551	0.820036
	N268	N	0.915058	0.192227	0.464377
	N269	N	0.087994	0.193983	0.535258
	N270	N	0.087890	0.832560	0.465410
	N271	N	0.914528	0.832761	0.535944
	N272	N	0.181433	0.477248	0.911957
	N273	N	0.178946	0.548604	0.085257
	N274	N	0.819754	0.477627	0.086983
	N275	N	0.822394	0.548547	0.914825
	O276	O	0.960380	0.801512	0.205436
	H277	H	0.972066	0.807329	0.205127
	H278	H	0.982477	0.800995	0.198762
	O279	O	0.180976	0.191389	0.831555
	H280	H	0.171161	0.187116	0.834249
	H281	H	0.175580	0.171096	0.857420
	O282	O	0.501827	0.547640	0.692111
	H283	H	0.515944	0.535397	0.699330
	H284	H	0.505252	0.544997	0.698438
	O285	O	0.404775	0.514195	0.358538
	H286	H	0.419995	0.514747	0.356686
	H287	H	0.400232	0.520720	0.356527
	O288	O	1.028935	-0.033067	1.199753
	H289	H	1.040714	-0.023731	1.202748
	H290	H	1.014994	-0.012497	1.197175
	O291	O	0.429818	0.667446	0.483437
	H292	H	0.429453	0.662563	0.481051
	H293	H	0.439956	0.664868	0.478600
	O294	O	0.116404	-0.082029	-0.152625
	H295	H	0.112716	-0.085129	-0.168451
	H296	H	0.101873	-0.082471	-0.151360
	O297	O	0.716224	-0.410277	-0.280476
	H298	H	0.718071	-0.383151	-0.282795
	H299	H	0.725636	-0.407852	-0.255790
	O300	O	-0.205651	0.036462	-0.203426
	H301	H	-0.208889	0.059564	-0.186698
	H302	H	-0.206488	0.030528	-0.216591
	O303	O	-0.222858	0.022854	0.089025
	H304	H	-0.230394	0.018070	0.110142
	H305	H	-0.221776	0.004925	0.091191
	O306	O	0.930687	0.152919	0.129755
	H307	H	0.952878	0.156980	0.127987
	H308	H	0.941318	0.152044	0.110791
	O309	O	0.333317	0.485962	0.717836
	H310	H	0.341033	0.465736	0.725872
	H311	H	0.322476	0.476427	0.727178
	O312	O	0.193292	0.211815	0.197184
	H313	H	0.193175	0.171785	0.195789
	H314	H	0.217833	0.218674	0.208849
	O315	O	0.343190	0.349622	0.319743
	H316	H	0.346228	0.361509	0.327891
	H317	H	0.371963	0.360931	0.325947
	O318	O	0.882725	1.115234	0.197603
	H319	H	0.900961	1.125103	0.193614
	H320	H	0.870443	1.093888	0.196541
	O321	O	0.223609	0.979811	0.777267
	H322	H	0.241748	0.955886	0.759818
	H323	H	0.229896	0.953627	0.766329
	O324	O	0.879757	-0.039872	1.211817
	H325	H	0.867767	-0.054249	1.209122
	H326	H	0.878979	-0.047998	1.219568
	O327	O	0.715392	0.301555	0.462843
	H328	H	0.722223	0.276862	0.471415
	H329	H	0.713614	0.307396	0.453612
	O330	O	0.298697	0.713347	0.434372
	H331	H	0.296029	0.724003	0.432574
	H332	H	0.308402	0.706858	0.444180
	O333	O	0.285875	0.331253	0.513122
	H334	H	0.285578	0.327535	0.520748
	H335	H	0.274573	0.333674	0.510688
	O336	O	0.687153	0.695656	0.313747
	H337	H	0.660287	0.672740	0.317843
	H338	H	0.680093	0.678380	0.342864
	O339	O	0.423160	0.633195	0.616455
	H340	H	0.427798	0.622391	0.601465
	H341	H	0.435731	0.630186	0.612909
	O342	O	-0.092888	1.036813	0.020713
	H343	H	-0.109108	1.045545	0.005053
	H344	H	-0.084839	1.040767	0.026547
	O345	O	0.762690	0.225098	0.762951
	H346	H	0.785218	0.215942	0.761060
	H347	H	0.771563	0.226283	0.781781
	O348	O	0.303910	0.620056	0.664145
	H349	H	0.322625	0.593703	0.668617
	H350	H	0.310709	0.613420	0.650134
	O351	O	0.216375	0.231717	1.031864
	H352	H	0.214087	0.231874	1.052325
	H353	H	0.237420	0.249021	1.036068
	O354	O	0.787408	-0.195378	1.032987
	H355	H	0.785770	-0.207750	1.055290
	H356	H	0.783483	-0.205345	1.060691
	O357	O	0.319321	0.593874	0.434900
	H358	H	0.326978	0.588971	0.439361
	H359	H	0.314391	0.597113	0.434970
	O360	O	0.360396	0.713982	0.301803
	H361	H	0.357596	0.694877	0.307753
	H362	H	0.346221	0.710024	0.299573
	O363	O	0.703353	0.390265	0.292939
	H364	H	0.716435	0.396241	0.295123
	H365	H	0.719600	0.373020	0.285331
	O366	O	0.982161	-0.109670	0.784062
	H367	H	0.972427	-0.098854	0.775874
	H368	H	0.993895	-0.110249	0.787998
	O369	O	0.034729	0.092923	1.027868
	H370	H	0.040641	0.103101	1.045091
	H371	H	0.021928	0.085554	1.029510
	O372	O	-0.032692	1.118272	1.106878
	H373	H	-0.039452	1.123868	1.138393
	H374	H	-0.015892	1.107062	1.087786
	O375	O	1.129237	0.108228	-0.002243
	H376	H	1.132262	0.097273	-0.015854
	H377	H	1.124076	0.104789	-0.012389
	O378	O	0.608121	0.375215	0.296793
	H379	H	0.595410	0.359430	0.289018
	H380	H	0.632173	0.379985	0.287517
	O381	O	0.214664	1.048425	0.214867
	H382	H	0.219240	1.037218	0.198180
	H383	H	0.236847	1.031839	0.221426
	O384	O	0.466274	0.306305	0.706284
	H385	H	0.477614	0.311148	0.709087
	H386	H	0.469561	0.300280	0.718501
	O387	O	0.033197	0.938359	1.018529
	H388	H	0.043425	0.942146	1.027219
	H389	H	0.016053	0.939757	1.009417
	O390	O	-0.027492	1.219508	0.795681
	H391	H	-0.009731	1.210654	0.798562
	H392	H	-0.018377	1.233321	0.787356
	O393	O	1.016018	0.059263	-0.161292
	H394	H	1.021932	0.050835	-0.162565
	H395	H	1.014315	0.056160	-0.155237
	O396	O	0.504390	0.674694	0.669355
	H397	H	0.521786	0.683857	0.676930
	H398	H	0.506844	0.660395	0.665859
	O399	O	0.467360	0.534036	0.484895
	H400	H	0.472738	0.538382	0.506937
	H401	H	0.464554	0.538661	0.497367
	O402	O	0.861786	-0.152446	0.809623
	H403	H	0.889122	-0.136042	0.804679
	H404	H	0.866452	-0.141461	0.838260
	O405	O	0.632996	0.425364	0.561801
	H406	H	0.634719	0.409109	0.565243
	H407	H	0.628215	0.423472	0.567420
	O408	O	0.953199	1.093891	0.906248
	H409	H	0.948710	1.086790	0.900057
	H410	H	0.965573	1.104331	0.909342
	O411	O	0.791218	0.805023	0.207070
	H412	H	0.846260	0.797495	0.214371
	H413	H	0.764037	0.769412	0.240757
	O414	O	0.181635	-0.189702	0.184778
	H415	H	0.177520	-0.188146	0.188422
	H416	H	0.172345	-0.180469	0.184833
	O417	O	0.695994	0.519363	0.509986
	H418	H	0.707626	0.503834	0.516281
	H419	H	0.691540	0.513863	0.501537
	O420	O	0.838412	-0.094205	0.918051
	H421	H	0.828725	-0.059383	0.925590
	H422	H	0.847206	-0.125120	0.943751
	O423	O	1.210884	1.011051	-0.015760
	H424	H	1.213076	1.002921	-0.028752
	H425	H	1.201631	1.017095	-0.026484
	O426	O	0.460764	0.323326	0.469625
	H427	H	0.466286	0.328295	0.469586
	H428	H	0.450761	0.328398	0.465769
	O429	O	0.472616	0.486793	0.428367
	H430	H	0.457227	0.489719	0.428173
	H431	H	0.457249	0.495421	0.420642
	O432	O	1.006293	0.214331	1.098711
	H433	H	1.038229	0.208586	1.098288
	H434	H	1.012526	0.230549	1.104178
	O435	O	0.546148	0.632625	0.383633
	H436	H	0.549091	0.625226	0.376036
	H437	H	0.522395	0.632471	0.384083
	O438	O	0.423959	0.487347	0.470781
	H439	H	0.423150	0.481523	0.468745
	H440	H	0.433243	0.485822	0.482080
	O441	O	0.708677	0.717664	0.654685
	H442	H	0.738109	0.749522	0.671448
	H443	H	0.705809	0.711529	0.647488
	O444	O	0.606199	0.386209	0.577351
	H445	H	0.627252	0.386359	0.573422
	H446	H	0.591851	0.382672	0.574483
	O447	O	1.026220	-0.051065	1.038630
	H448	H	1.036511	-0.060315	1.028213
	H449	H	0.999201	-0.046107	1.030493
	O450	O	0.790485	0.225597	-0.065375
	H451	H	0.780690	0.233469	-0.075369
	H452	H	0.797502	0.240279	-0.056319
	O453	O	0.465706	0.491263	0.301102
	H454	H	0.464877	0.485502	0.293684
	H455	H	0.472363	0.482248	0.302308
	O456	O	0.211665	0.805955	0.788560
	H457	H	0.179991	0.797766	0.805764
	H458	H	0.240727	0.770498	0.756155
	O459	O	0.662600	0.688688	0.530102
	H460	H	0.660125	0.684209	0.535172
	H461	H	0.666768	0.686596	0.526123
	O462	O	0.608780	0.301159	0.285349
	H463	H	0.617764	0.295710	0.309248
	H464	H	0.633192	0.281161	0.262797
	O465	O	0.501152	0.735441	0.338609
	H466	H	0.471237	0.726204	0.333409
	H467	H	0.507562	0.759697	0.324992
	O468	O	0.222430	0.792246	-0.043729
	H469	H	0.229277	0.786355	-0.052601
	H470	H	0.237291	0.783241	-0.050655
	O471	O	0.543497	0.549914	0.705356
	H472	H	0.546066	0.557286	0.692504
	H473	H	0.558528	0.559664	0.710832
	O474	O	0.952871	0.860807	0.000422
	H475	H	0.951288	0.866045	-0.004865
	H476	H	0.949174	0.869684	0.013878
	O477	O	0.296162	0.316525	0.688027
	H478	H	0.304021	0.314279	0.678757
	H479	H	0.298881	0.298981	0.696122
