data_Molecule from HDF5

_cell_length_a		16.373357
_cell_length_b		16.175017
_cell_length_c		16.214739
_cell_angle_alpha	89.815614
_cell_angle_beta	89.934302
_cell_angle_gamma	89.898396
_symmetry_space_group_name_H-M	'P 1'
_symmetry_Int_Tables_number		1

loop_
	_symmetry_equiv_pos_as_xyz
	x,y,z

loop_
	_atom_site_label
	_atom_site_type_symbol
	_atom_site_fract_x
	_atom_site_fract_y
	_atom_site_fract_z
	H0	H	0.392303	0.834866	0.720968
	H1	H	0.589676	0.163724	0.717383
	H2	H	0.589653	0.834442	0.290654
	H3	H	0.393313	0.164179	0.290744
	H4	H	0.710936	0.395681	0.844301
	H5	H	0.706983	0.600698	0.168537
	H6	H	0.272621	0.600678	0.843181
	H7	H	0.274736	0.394258	0.168452
	H8	H	0.827384	0.716116	0.407443
	H9	H	0.152999	0.715399	0.606394
	H10	H	0.827509	0.283053	0.607396
	H11	H	0.152895	0.283581	0.406866
	H12	H	0.828328	0.398373	0.724237
	H13	H	0.152262	0.599554	0.724149
	H14	H	0.827528	0.601505	0.289430
	H15	H	0.152183	0.399472	0.290938
	H16	H	0.392936	0.712106	0.840549
	H17	H	0.589176	0.713389	0.169039
	H18	H	0.588858	0.287412	0.839504
	H19	H	0.392897	0.281721	0.167757
	H20	H	0.708806	0.835483	0.402893
	H21	H	0.706396	0.162781	0.604394
	H22	H	0.275416	0.834884	0.606683
	H23	H	0.272611	0.161254	0.399890
	H24	H	0.893071	0.334659	0.222074
	H25	H	0.088972	0.663514	0.220395
	H26	H	0.090184	0.335255	0.792460
	H27	H	0.888344	0.661970	0.790987
	H28	H	0.207667	0.896587	0.341664
	H29	H	0.209765	0.100169	0.667484
	H30	H	0.775371	0.100683	0.342257
	H31	H	0.773946	0.897104	0.668249
	H32	H	0.329120	0.216371	0.903230
	H33	H	0.653646	0.214579	0.101805
	H34	H	0.328425	0.782586	0.104623
	H35	H	0.653754	0.781211	0.903516
	H36	H	0.329369	0.897745	0.222598
	H37	H	0.653520	0.099220	0.219185
	H38	H	0.329693	0.101132	0.786446
	H39	H	0.654937	0.899149	0.788257
	H40	H	0.891949	0.214597	0.342099
	H41	H	0.090068	0.212422	0.670367
	H42	H	0.088452	0.784424	0.341229
	H43	H	0.892599	0.786454	0.670338
	H44	H	0.206908	0.335373	0.905090
	H45	H	0.209202	0.660553	0.109931
	H46	H	0.774273	0.335176	0.110049
	H47	H	0.773503	0.661425	0.905421
	H48	H	0.402462	0.113196	0.591336
	H49	H	0.578802	0.882793	0.599112
	H50	H	0.586564	0.116738	0.412319
	H51	H	0.395698	0.880693	0.412729
	H52	H	0.581650	0.406517	0.121926
	H53	H	0.573262	0.584594	0.893463
	H54	H	0.396652	0.590021	0.123204
	H55	H	0.399546	0.416272	0.891507
	H56	H	0.107212	0.602243	0.416589
	H57	H	0.876990	0.585439	0.600112
	H58	H	0.104110	0.405988	0.593351
	H59	H	0.872926	0.408329	0.407955
	H60	H	0.105346	0.412414	0.602992
	H61	H	0.872589	0.595869	0.605052
	H62	H	0.099788	0.584388	0.422446
	H63	H	0.873199	0.400961	0.417183
	H64	H	0.399838	0.588487	0.120822
	H65	H	0.583691	0.599728	0.885038
	H66	H	0.582741	0.406144	0.121696
	H67	H	0.402642	0.403313	0.888506
	H68	H	0.584849	0.116835	0.409461
	H69	H	0.583343	0.884475	0.589343
	H70	H	0.394916	0.115876	0.591895
	H71	H	0.402602	0.882511	0.411980
	H72	H	0.898813	0.614579	0.095851
	H73	H	0.078547	0.382716	0.099844
	H74	H	0.078207	0.615717	0.912932
	H75	H	0.896162	0.376170	0.902936
	H76	H	0.082558	0.906063	0.621904
	H77	H	0.083462	0.088285	0.389959
	H78	H	0.897381	0.088450	0.621877
	H79	H	0.903100	0.904907	0.389768
	H80	H	0.604064	0.092731	0.919162
	H81	H	0.375338	0.086923	0.105063
	H82	H	0.605249	0.904578	0.095294
	H83	H	0.378301	0.910469	0.915165
	H84	H	0.605781	0.908521	0.096412
	H85	H	0.372507	0.100309	0.095520
	H86	H	0.605944	0.084224	0.905656
	H87	H	0.375930	0.907968	0.907626
	H88	H	0.898731	0.090878	0.622011
	H89	H	0.079798	0.091974	0.389964
	H90	H	0.087526	0.906210	0.622068
	H91	H	0.894472	0.907985	0.387607
	H92	H	0.081038	0.613453	0.921631
	H93	H	0.085065	0.382646	0.095392
	H94	H	0.896563	0.615458	0.096298
	H95	H	0.913545	0.387450	0.920082
	H96	H	0.400217	0.115673	0.598177
	H97	H	0.588309	0.880198	0.597155
	H98	H	0.582895	0.115283	0.412467
	H99	H	0.399244	0.883224	0.417458
	H100	H	0.582440	0.407408	0.122066
	H101	H	0.592238	0.581961	0.888267
	H102	H	0.399983	0.591724	0.121962
	H103	H	0.390421	0.407882	0.885907
	H104	H	0.106788	0.587174	0.403558
	H105	H	0.875695	0.595237	0.593467
	H106	H	0.108184	0.401192	0.603436
	H107	H	0.877388	0.412044	0.418493
	H108	H	0.897654	0.615279	0.098390
	H109	H	0.085202	0.380702	0.102179
	H110	H	0.087101	0.617305	0.915555
	H111	H	0.888981	0.381994	0.927462
	H112	H	0.084977	0.910946	0.621571
	H113	H	0.084981	0.093255	0.387593
	H114	H	0.895725	0.090311	0.624166
	H115	H	0.900236	0.913718	0.391110
	H116	H	0.610585	0.099529	0.906043
	H117	H	0.378984	0.086192	0.089497
	H118	H	0.607531	0.905380	0.098856
	H119	H	0.376188	0.902697	0.913798
	C120	C	0.369973	0.007037	0.625019
	C121	C	0.612544	0.990699	0.624681
	C122	C	0.613466	0.007623	0.382727
	C123	C	0.369790	0.990182	0.382953
	C124	C	0.612350	0.377074	0.013973
	C125	C	0.612433	0.619353	0.996825
	C126	C	0.368833	0.620188	0.014163
	C127	C	0.368948	0.377210	0.996381
	C128	C	-0.002058	0.621578	0.384677
	C129	C	0.982140	0.621681	0.629102
	C130	C	-0.001494	0.376669	0.629297
	C131	C	0.981713	0.377769	0.385192
	C132	C	0.868876	0.507202	0.127620
	C133	C	0.112275	0.489824	0.128786
	C134	C	0.111470	0.507297	0.886391
	C135	C	0.869017	0.489736	0.886026
	C136	C	0.112827	0.877872	0.513590
	C137	C	0.112613	0.120529	0.497113
	C138	C	0.868786	0.120211	0.514445
	C139	C	0.869569	0.878443	0.497071
	C140	C	0.500057	0.122055	0.880700
	C141	C	0.482940	0.120778	0.125314
	C142	C	0.499231	0.876333	0.126627
	C143	C	0.483767	0.877204	0.882555
	C144	C	0.371908	0.883885	0.682434
	C145	C	0.610173	0.114349	0.679979
	C146	C	0.610746	0.883703	0.327694
	C147	C	0.372178	0.114171	0.327411
	C148	C	0.670621	0.377465	0.892057
	C149	C	0.668355	0.619362	0.119801
	C150	C	0.311617	0.619918	0.891591
	C151	C	0.313147	0.375855	0.119392
	C152	C	0.875990	0.678493	0.386475
	C153	C	0.104466	0.677250	0.626726
	C154	C	0.876637	0.320785	0.627485
	C155	C	0.103866	0.321509	0.386697
	C156	C	0.876743	0.378428	0.685444
	C157	C	0.104112	0.619886	0.685511
	C158	C	0.875955	0.621010	0.328050
	C159	C	0.103849	0.379334	0.329141
	C160	C	0.371290	0.675529	0.890412
	C161	C	0.609886	0.675504	0.120132
	C162	C	0.610162	0.323486	0.889716
	C163	C	0.371805	0.319893	0.119042
	C164	C	0.669913	0.884425	0.383575
	C165	C	0.668596	0.113788	0.624024
	C166	C	0.313968	0.883746	0.625492
	C167	C	0.312184	0.112940	0.381774
	C168	C	0.871678	0.383892	0.184519
	C169	C	0.109965	0.613889	0.183745
	C170	C	0.110020	0.384069	0.830266
	C171	C	0.869111	0.612917	0.829173
	C172	C	0.168715	0.877805	0.390452
	C173	C	0.170302	0.119460	0.619332
	C174	C	0.813577	0.119903	0.391134
	C175	C	0.812386	0.878105	0.619693
	C176	C	0.377844	0.178331	0.882695
	C177	C	0.605087	0.176573	0.122673
	C178	C	0.377145	0.820577	0.124831
	C179	C	0.605487	0.819839	0.883401
	C180	C	0.377569	0.877796	0.183613
	C181	C	0.605002	0.119126	0.181004
	C182	C	0.378024	0.120748	0.824864
	C183	C	0.606089	0.878963	0.826654
	C184	C	0.871753	0.176482	0.391097
	C185	C	0.110724	0.175167	0.620760
	C186	C	0.109974	0.821445	0.390499
	C187	C	0.871300	0.822942	0.620778
	C188	C	0.168261	0.384200	0.886326
	C189	C	0.169794	0.612369	0.128599
	C190	C	0.812806	0.384188	0.128609
	C191	C	0.811918	0.612548	0.886154
	C192	C	0.392422	0.092684	0.600883
	C193	C	0.589980	0.904637	0.601768
	C194	C	0.591374	0.093855	0.404808
	C195	C	0.392606	0.904250	0.406881
	C196	C	0.589008	0.399828	0.099538
	C197	C	0.589764	0.595725	0.911370
	C198	C	0.392001	0.596980	0.099851
	C199	C	0.391027	0.402014	0.910920
	C200	C	0.082631	0.598157	0.407449
	C201	C	0.897283	0.599006	0.606208
	C202	C	0.083687	0.399743	0.606835
	C203	C	0.896639	0.400466	0.407910
	C204	C	0.891334	0.593081	0.103887
	C205	C	0.089623	0.404123	0.105944
	C206	C	0.088723	0.593070	0.909856
	C207	C	0.892778	0.403921	0.909662
	C208	C	0.091314	0.900991	0.599519
	C209	C	0.089649	0.097751	0.411362
	C210	C	0.890933	0.096813	0.600488
	C211	C	0.892528	0.902018	0.411564
	C212	C	0.584946	0.099025	0.903589
	C213	C	0.397765	0.097905	0.103141
	C214	C	0.584206	0.899459	0.103673
	C215	C	0.398941	0.900500	0.905391
	Zn216	Zn	0.492059	-0.000872	0.752897
	Zn217	Zn	0.491163	-0.000833	0.255116
	Zn218	Zn	0.740458	0.498132	0.006468
	Zn219	Zn	0.240390	0.498097	0.006349
	Zn220	Zn	-0.009750	0.750831	0.506494
	Zn221	Zn	-0.009900	0.248481	0.506548
	Zn222	Zn	-0.009757	0.499014	0.758354
	Zn223	Zn	-0.010255	0.499293	0.255887
	Zn224	Zn	0.491337	0.747593	0.004427
	Zn225	Zn	0.490929	0.249798	0.003523
	Zn226	Zn	0.740908	-0.001107	0.504822
	Zn227	Zn	0.241561	-0.001388	0.503903
	N228	N	0.405952	0.961552	0.682476
	N229	N	0.576006	0.036731	0.680513
	N230	N	0.576369	0.961255	0.326891
	N231	N	0.407327	0.036813	0.328108
	N232	N	0.672113	0.410084	0.970231
	N233	N	0.669948	0.585069	0.042314
	N234	N	0.309681	0.586543	0.969759
	N235	N	0.311192	0.410781	0.041911
	N236	N	0.952651	0.679052	0.420773
	N237	N	0.027596	0.678656	0.592619
	N238	N	0.953439	0.319743	0.593289
	N239	N	0.026929	0.320483	0.420793
	N240	N	0.953708	0.412608	0.686844
	N241	N	0.027126	0.586001	0.687135
	N242	N	0.952919	0.586669	0.326469
	N243	N	0.026983	0.413737	0.328031
	N244	N	0.406060	0.675803	0.967636
	N245	N	0.575883	0.675814	0.042595
	N246	N	0.574607	0.323090	0.966616
	N247	N	0.405774	0.320746	0.041661
	N248	N	0.671782	0.962420	0.416927
	N249	N	0.669686	0.036017	0.590029
	N250	N	0.312513	0.961433	0.590535
	N251	N	0.310595	0.034828	0.415750
	N252	N	0.905847	0.461360	0.184068
	N253	N	0.075098	0.536719	0.184135
	N254	N	0.075439	0.461570	0.830129
	N255	N	0.904168	0.535439	0.829096
	N256	N	0.170749	0.911889	0.468007
	N257	N	0.171625	0.086091	0.541290
	N258	N	0.811826	0.085621	0.468809
	N259	N	0.810885	0.911786	0.541655
	N260	N	0.454731	0.179402	0.916628
	N261	N	0.528242	0.177472	0.088589
	N262	N	0.453870	0.819604	0.090046
	N263	N	0.528527	0.818658	0.917600
	N264	N	0.454400	0.911773	0.184705
	N265	N	0.527927	0.085244	0.182909
	N266	N	0.455005	0.086693	0.823224
	N267	N	0.529352	0.913691	0.825681
	N268	N	0.905127	0.176954	0.469092
	N269	N	0.075802	0.176057	0.543757
	N270	N	0.075835	0.821494	0.468036
	N271	N	0.906260	0.823203	0.543713
	N272	N	0.169135	0.461689	0.920767
	N273	N	0.171640	0.534292	0.095191
	N274	N	0.810837	0.462005	0.094035
	N275	N	0.811639	0.534822	0.920635
	O276	O	0.637125	-0.421374	1.611594
	H277	H	0.634189	-0.414537	1.608273
	H278	H	0.641697	-0.424091	1.613212
	O279	O	0.437082	0.558483	0.562787
	H280	H	0.432540	0.561299	0.560991
	H281	H	0.436204	0.552433	0.559409
	O282	O	0.329678	0.320744	0.550902
	H283	H	0.315944	0.305381	0.567012
	H284	H	0.333968	0.320390	0.574876
	O285	O	0.543796	0.553989	0.474668
	H286	H	0.552233	0.556137	0.465413
	H287	H	0.549557	0.574309	0.480530
	O288	O	0.426100	0.624584	0.482266
	H289	H	0.432589	0.619267	0.475562
	H290	H	0.434347	0.628459	0.477485
	O291	O	0.417415	-0.543077	1.377189
	H292	H	0.400329	-0.528784	1.371715
	H293	H	0.409808	-0.544355	1.376199
	O294	O	0.943742	1.015697	0.047917
	H295	H	0.942598	1.009522	0.040482
	H296	H	0.946926	1.018863	0.065234
	O297	O	0.985053	0.969017	0.125555
	H298	H	0.983065	0.966401	0.121287
	H299	H	0.984921	0.970751	0.128337
	O300	O	0.556595	0.564498	0.473952
	H301	H	0.562662	0.561979	0.478131
	H302	H	0.551224	0.553426	0.462868
	O303	O	0.598317	0.460915	0.500364
	H304	H	0.586676	0.456453	0.495883
	H305	H	0.596475	0.450838	0.503388
	O306	O	0.461918	0.472779	0.637198
	H307	H	0.464508	0.479441	0.635324
	H308	H	0.469799	0.481257	0.626155
	O309	O	0.435705	0.488713	0.481559
	H310	H	0.440536	0.476772	0.483597
	H311	H	0.444063	0.484222	0.495629
	O312	O	1.109590	1.015899	0.972117
	H313	H	1.116683	1.012685	0.961715
	H314	H	1.102421	1.019383	0.968758
	O315	O	1.067507	1.019789	0.109479
	H316	H	1.067676	1.024854	0.105242
	H317	H	1.068534	1.013478	0.112298
	O318	O	1.123373	-0.096954	-0.131859
	H319	H	1.134266	-0.096626	-0.119629
	H320	H	1.134876	-0.099289	-0.147462
	O321	O	0.400437	0.582774	0.441339
	H322	H	0.401980	0.592388	0.436393
	H323	H	0.409008	0.587406	0.438679
	O324	O	0.072849	0.952713	0.873455
	H325	H	0.079826	0.936975	0.869905
	H326	H	0.081046	0.978969	0.873306
	O327	O	-0.025677	0.965742	0.982904
	H328	H	-0.027997	0.964460	0.977906
	H329	H	-0.034386	0.951899	0.990171
	O330	O	-0.647987	0.364548	0.656022
	H331	H	-0.639660	0.369895	0.663996
	H332	H	-0.636560	0.379289	0.667536
	O333	O	0.378933	0.538787	0.377558
	H334	H	0.363946	0.555559	0.367368
	H335	H	0.377016	0.529776	0.394626
	O336	O	-0.032266	-0.064006	0.015312
	H337	H	-0.039099	-0.071215	0.005298
	H338	H	-0.033973	-0.060993	0.014380
	O339	O	-0.085997	0.030194	0.051629
	H340	H	-0.081457	0.040599	0.054408
	H341	H	-0.097153	0.033525	0.059356
	O342	O	0.505256	0.426120	0.452525
	H343	H	0.505114	0.404077	0.456740
	H344	H	0.487380	0.425538	0.439788
	O345	O	-0.121067	0.976710	0.986429
	H346	H	-0.116516	0.986177	0.987628
	H347	H	-0.113621	0.981491	0.973318
	O348	O	0.550183	0.505277	0.544258
	H349	H	0.539896	0.505513	0.538184
	H350	H	0.542558	0.497108	0.548445
	O351	O	0.538889	0.496409	0.505616
	H352	H	0.543487	0.497071	0.492605
	H353	H	0.532326	0.498136	0.506978
	O354	O	0.938348	1.075455	-0.968366
	H355	H	0.941817	1.072735	-0.977399
	H356	H	0.938352	1.072673	-0.963028
	O357	O	0.960187	0.962263	0.950835
	H358	H	0.959287	0.972081	0.957112
	H359	H	0.942136	0.960220	0.955014
	O360	O	1.002577	-0.102993	0.944542
	H361	H	1.001513	-0.094599	0.946526
	H362	H	1.012922	-0.098705	0.940060
	O363	O	-0.156572	0.946395	0.146677
	H364	H	-0.152662	0.939861	0.141399
	H365	H	-0.168203	0.943560	0.165884
	O366	O	0.517051	0.491302	0.486328
	H367	H	0.514750	0.488520	0.483583
	H368	H	0.527536	0.492957	0.489728
	O369	O	1.085609	0.064051	-0.004782
	H370	H	1.091540	0.057508	-0.000775
	H371	H	1.089911	0.078028	0.003358
	O372	O	0.473658	0.427620	0.614870
	H373	H	0.479362	0.426786	0.618078
	H374	H	0.476972	0.437757	0.612938
	O375	O	1.157332	-0.053986	1.009685
	H376	H	1.148888	-0.059641	1.014336
	H377	H	1.160549	-0.059823	1.000640
	O378	O	-0.436843	1.401653	-0.629567
	H379	H	-0.450173	1.400706	-0.638456
	H380	H	-0.441625	1.401804	-0.635330
	O381	O	0.444471	0.569888	0.479076
	H382	H	0.452032	0.574187	0.472704
	H383	H	0.434306	0.571878	0.473157
	O384	O	0.956112	1.026733	-0.046835
	H385	H	0.951933	1.039013	-0.043650
	H386	H	0.944435	1.036188	-0.045951
	O387	O	0.966804	0.071916	1.081541
	H388	H	0.968291	0.074455	1.078361
	H389	H	0.973591	0.065805	1.084847
	O390	O	0.959500	0.968469	0.137103
	H391	H	0.956830	0.962771	0.142781
	H392	H	0.954957	0.964216	0.138652
	O393	O	1.077782	0.926780	-0.144339
	H394	H	1.081463	0.915531	-0.139724
	H395	H	1.077091	0.925159	-0.142299
