data_Molecule from HDF5

_cell_length_a		16.581103
_cell_length_b		16.549545
_cell_length_c		16.445358
_cell_angle_alpha	89.938341
_cell_angle_beta	89.894339
_cell_angle_gamma	89.993451
_symmetry_space_group_name_H-M	'P 1'
_symmetry_Int_Tables_number		1

loop_
	_symmetry_equiv_pos_as_xyz
	x,y,z

loop_
	_atom_site_label
	_atom_site_type_symbol
	_atom_site_fract_x
	_atom_site_fract_y
	_atom_site_fract_z
	H0	H	0.393453	0.858836	0.708034
	H1	H	0.598158	0.174738	0.706026
	H2	H	0.598698	0.859184	0.268028
	H3	H	0.389689	0.174331	0.265404
	H4	H	0.715427	0.414745	0.830011
	H5	H	0.717170	0.622931	0.145818
	H6	H	0.275844	0.622339	0.831197
	H7	H	0.274788	0.411677	0.145815
	H8	H	0.840642	0.737783	0.383280
	H9	H	0.153547	0.737547	0.592356
	H10	H	0.838270	0.298945	0.588953
	H11	H	0.152134	0.292130	0.378539
	H12	H	0.838271	0.415646	0.705845
	H13	H	0.154753	0.617750	0.705433
	H14	H	0.839849	0.620331	0.268065
	H15	H	0.153068	0.410110	0.264233
	H16	H	0.391381	0.738296	0.831496
	H17	H	0.602199	0.740075	0.145005
	H18	H	0.597659	0.299601	0.829384
	H19	H	0.392373	0.296947	0.147215
	H20	H	0.715071	0.857986	0.384900
	H21	H	0.717125	0.173089	0.591687
	H22	H	0.273901	0.860267	0.594596
	H23	H	0.271769	0.172832	0.380652
	H24	H	0.892548	0.360700	0.208956
	H25	H	0.101840	0.674119	0.208461
	H26	H	0.098606	0.358451	0.769001
	H27	H	0.896093	0.676270	0.770230
	H28	H	0.220491	0.908698	0.330924
	H29	H	0.215938	0.121264	0.645662
	H30	H	0.778003	0.117253	0.329013
	H31	H	0.779415	0.914345	0.647107
	H32	H	0.339542	0.239290	0.881544
	H33	H	0.654102	0.234379	0.088630
	H34	H	0.340764	0.793682	0.097139
	H35	H	0.651866	0.795140	0.882911
	H36	H	0.340528	0.910705	0.212289
	H37	H	0.654027	0.118480	0.206288
	H38	H	0.338937	0.121486	0.767359
	H39	H	0.653689	0.914731	0.769148
	H40	H	0.893649	0.235396	0.328847
	H41	H	0.098849	0.236157	0.645722
	H42	H	0.102037	0.795552	0.329593
	H43	H	0.894670	0.797012	0.646344
	H44	H	0.219562	0.361391	0.880076
	H45	H	0.221108	0.672671	0.095306
	H46	H	0.774143	0.361913	0.094511
	H47	H	0.776957	0.675592	0.885214
	H48	H	0.407840	0.127481	0.574467
	H49	H	0.588212	0.902245	0.579905
	H50	H	0.590148	0.130546	0.398619
	H51	H	0.408854	0.905753	0.399821
	H52	H	0.580329	0.426679	0.100796
	H53	H	0.587357	0.606842	0.874325
	H54	H	0.402968	0.607019	0.103754
	H55	H	0.407326	0.424043	0.874317
	H56	H	0.109489	0.608549	0.401272
	H57	H	0.882302	0.611563	0.579442
	H58	H	0.111719	0.427082	0.584472
	H59	H	0.886433	0.429908	0.399774
	H60	H	0.111202	0.418320	0.575851
	H61	H	0.885239	0.606618	0.574131
	H62	H	0.107820	0.602697	0.400063
	H63	H	0.884362	0.427600	0.396828
	H64	H	0.409394	0.597075	0.098577
	H65	H	0.585545	0.604380	0.876592
	H66	H	0.588877	0.420278	0.105219
	H67	H	0.405064	0.430886	0.875015
	H68	H	0.585983	0.129315	0.396210
	H69	H	0.587435	0.903133	0.578773
	H70	H	0.404970	0.129728	0.575629
	H71	H	0.410127	0.907599	0.402645
	H72	H	0.905037	0.629151	0.070892
	H73	H	0.085583	0.403591	0.079482
	H74	H	0.083532	0.629650	0.895430
	H75	H	0.904673	0.403179	0.894571
	H76	H	0.088068	0.926724	0.601535
	H77	H	0.092000	0.104092	0.372916
	H78	H	0.913088	0.112583	0.600511
	H79	H	0.904246	0.926305	0.373039
	H80	H	0.607945	0.108445	0.898883
	H81	H	0.382564	0.108269	0.080575
	H82	H	0.607869	0.930188	0.079597
	H83	H	0.384161	0.930021	0.898919
	H84	H	0.607881	0.924849	0.074989
	H85	H	0.383242	0.108944	0.074513
	H86	H	0.608124	0.106717	0.896765
	H87	H	0.383319	0.926878	0.898622
	H88	H	0.897618	0.112019	0.605869
	H89	H	0.081714	0.096332	0.378925
	H90	H	0.083516	0.932529	0.597908
	H91	H	0.907037	0.926642	0.374622
	H92	H	0.086185	0.628181	0.901385
	H93	H	0.079120	0.408799	0.073869
	H94	H	0.902567	0.632942	0.080882
	H95	H	0.907842	0.406257	0.899060
	H96	H	0.407646	0.128859	0.577929
	H97	H	0.589040	0.902698	0.578435
	H98	H	0.586467	0.127931	0.400683
	H99	H	0.406784	0.906042	0.402421
	H100	H	0.591105	0.431313	0.102597
	H101	H	0.583995	0.607773	0.876135
	H102	H	0.415121	0.608656	0.099915
	H103	H	0.411656	0.429194	0.876938
	H104	H	0.110448	0.606024	0.395323
	H105	H	0.884429	0.604451	0.581221
	H106	H	0.106524	0.429525	0.573642
	H107	H	0.885480	0.426180	0.400596
	H108	H	0.912838	0.629459	0.079046
	H109	H	0.088036	0.405620	0.070280
	H110	H	0.090043	0.630740	0.896653
	H111	H	0.901915	0.404272	0.900056
	H112	H	0.080527	0.925337	0.599427
	H113	H	0.078806	0.109547	0.374742
	H114	H	0.904817	0.098115	0.599254
	H115	H	0.906144	0.923824	0.372641
	H116	H	0.609033	0.109152	0.897278
	H117	H	0.384481	0.103403	0.077305
	H118	H	0.605546	0.931513	0.073359
	H119	H	0.384355	0.927934	0.901733
	C120	C	0.374833	0.024976	0.609158
	C121	C	0.618825	1.007310	0.609933
	C122	C	0.617806	0.024735	0.367035
	C123	C	0.375083	1.009334	0.367372
	C124	C	0.617915	0.395552	-0.002329
	C125	C	0.617415	0.638563	0.979597
	C126	C	0.375927	0.637134	-0.003135
	C127	C	0.375771	0.395734	0.979870
	C128	C	0.005764	0.638079	0.366451
	C129	C	0.988209	0.638398	0.609240
	C130	C	0.005061	0.394784	0.608859
	C131	C	0.988391	0.394981	0.365593
	C132	C	0.874764	0.526783	0.109632
	C133	C	0.118028	0.508875	0.108306
	C134	C	0.118232	0.525830	0.865712
	C135	C	0.874457	0.508992	0.866509
	C136	C	0.117795	0.895329	0.495955
	C137	C	0.116473	0.136343	0.479538
	C138	C	0.874599	0.137861	0.496594
	C139	C	0.875370	0.894446	0.478637
	C140	C	0.504665	0.139528	0.865828
	C141	C	0.487553	0.138140	0.109186
	C142	C	0.504548	0.895497	0.110009
	C143	C	0.487385	0.896334	0.867632
	C144	C	0.374119	0.906312	0.668616
	C145	C	0.618308	0.126764	0.667552
	C146	C	0.617775	0.906021	0.308115
	C147	C	0.371870	0.127006	0.305857
	C148	C	0.675982	0.395495	0.877735
	C149	C	0.677328	0.641085	0.098420
	C150	C	0.315830	0.640355	0.878540
	C151	C	0.315009	0.393220	0.098613
	C152	C	0.887657	0.697839	0.364446
	C153	C	0.106735	0.697204	0.610197
	C154	C	0.885574	0.337972	0.608367
	C155	C	0.105337	0.332951	0.361283
	C156	C	0.885738	0.395960	0.666498
	C157	C	0.107249	0.637876	0.666800
	C158	C	0.887354	0.639298	0.307290
	C159	C	0.106023	0.392004	0.304516
	C160	C	0.373200	0.698063	0.878487
	C161	C	0.619962	0.699165	0.098240
	C162	C	0.617884	0.338069	0.877488
	C163	C	0.373792	0.336482	0.099376
	C164	C	0.675762	0.905592	0.365950
	C165	C	0.677483	0.126024	0.610824
	C166	C	0.314803	0.906937	0.612274
	C167	C	0.312990	0.126324	0.363075
	C168	C	0.873390	0.408409	0.169705
	C169	C	0.120637	0.626851	0.168738
	C170	C	0.118515	0.406437	0.807416
	C171	C	0.875435	0.628565	0.808812
	C172	C	0.179265	0.891905	0.377895
	C173	C	0.175989	0.138994	0.598380
	C174	C	0.816874	0.137565	0.376653
	C175	C	0.817934	0.894376	0.599013
	C176	C	0.386484	0.198938	0.863861
	C177	C	0.606708	0.195580	0.108716
	C178	C	0.387621	0.834310	0.114332
	C179	C	0.605263	0.835906	0.864870
	C180	C	0.387447	0.892620	0.171680
	C181	C	0.606495	0.138151	0.167204
	C182	C	0.386120	0.140315	0.806817
	C183	C	0.606052	0.895242	0.808230
	C184	C	0.874318	0.195819	0.376517
	C185	C	0.118036	0.196500	0.598151
	C186	C	0.120600	0.835237	0.377200
	C187	C	0.875184	0.836142	0.598617
	C188	C	0.178408	0.407742	0.862966
	C189	C	0.179789	0.626095	0.112136
	C190	C	0.814345	0.409035	0.112874
	C191	C	0.816585	0.628209	0.866104
	C192	C	0.399520	0.107124	0.583405
	C193	C	0.595175	0.924430	0.585941
	C194	C	0.594332	0.107645	0.391491
	C195	C	0.401153	0.927669	0.393974
	C196	C	0.593752	0.419183	0.081083
	C197	C	0.592597	0.613583	0.897049
	C198	C	0.401763	0.611525	0.079295
	C199	C	0.400755	0.420714	0.897024
	C200	C	0.087847	0.613118	0.391625
	C201	C	0.905433	0.614467	0.585220
	C202	C	0.088021	0.418148	0.584933
	C203	C	0.906770	0.420567	0.391661
	C204	C	0.899537	0.609041	0.084348
	C205	C	0.091842	0.427254	0.082070
	C206	C	0.093706	0.608073	0.890638
	C207	C	0.897927	0.426208	0.890754
	C208	C	0.091642	0.920948	0.578205
	C209	C	0.091358	0.110707	0.396999
	C210	C	0.898306	0.114277	0.580030
	C211	C	0.898969	0.918576	0.395165
	C212	C	0.586861	0.115005	0.890472
	C213	C	0.404956	0.113888	0.084637
	C214	C	0.585992	0.921461	0.083435
	C215	C	0.405283	0.920881	0.892548
	Zn216	Zn	0.495822	0.017247	0.737875
	Zn217	Zn	0.496496	0.017123	0.238175
	Zn218	Zn	0.745886	0.517855	-0.011927
	Zn219	Zn	0.246978	0.516418	-0.012641
	Zn220	Zn	-0.002735	0.767003	0.487679
	Zn221	Zn	-0.003714	0.265990	0.486941
	Zn222	Zn	-0.003392	0.516910	0.738025
	Zn223	Zn	-0.002638	0.517566	0.237573
	Zn224	Zn	0.495697	0.766656	-0.011310
	Zn225	Zn	0.496164	0.267277	-0.012186
	Zn226	Zn	0.747127	0.015682	0.487563
	Zn227	Zn	0.245877	0.016528	0.488258
	N228	N	0.410647	0.980810	0.667019
	N229	N	0.582581	0.051875	0.667327
	N230	N	0.582628	0.981155	0.308518
	N231	N	0.409856	0.053220	0.308409
	N232	N	0.676534	0.430144	0.953654
	N233	N	0.675838	0.604234	0.023693
	N234	N	0.317240	0.603484	0.953222
	N235	N	0.316039	0.429303	0.023299
	N236	N	0.962286	0.697354	0.400556
	N237	N	0.031629	0.697673	0.575094
	N238	N	0.960896	0.337015	0.573454
	N239	N	0.031056	0.334550	0.398493
	N240	N	0.961075	0.430383	0.667220
	N241	N	0.032506	0.602415	0.666637
	N242	N	0.961935	0.603144	0.308283
	N243	N	0.032334	0.429830	0.306917
	N244	N	0.409801	0.696398	0.953326
	N245	N	0.583481	0.698088	0.023341
	N246	N	0.582779	0.337637	0.953223
	N247	N	0.410527	0.337638	0.024408
	N248	N	0.676054	0.980553	0.401802
	N249	N	0.678145	0.050678	0.576027
	N250	N	0.315072	0.981713	0.576144
	N251	N	0.314702	0.052031	0.400380
	N252	N	0.910147	0.482731	0.167955
	N253	N	0.082948	0.552952	0.166519
	N254	N	0.081810	0.480801	0.809012
	N255	N	0.910656	0.553464	0.808795
	N256	N	0.177957	0.928139	0.453090
	N257	N	0.175237	0.102551	0.523450
	N258	N	0.816695	0.102679	0.452442
	N259	N	0.817788	0.929857	0.523393
	N260	N	0.461148	0.198650	0.899847
	N261	N	0.531546	0.195865	0.073647
	N262	N	0.461464	0.836104	0.076578
	N263	N	0.530459	0.836453	0.900981
	N264	N	0.461185	0.930139	0.169011
	N265	N	0.531185	0.103579	0.167849
	N266	N	0.460592	0.104125	0.807792
	N267	N	0.531784	0.931952	0.809576
	N268	N	0.909206	0.196374	0.452192
	N269	N	0.081761	0.195165	0.523083
	N270	N	0.083149	0.837008	0.451604
	N271	N	0.909827	0.835880	0.522766
	N272	N	0.178506	0.482856	0.898636
	N273	N	0.178294	0.551588	0.075346
	N274	N	0.814893	0.483782	0.076466
	N275	N	0.815737	0.552786	0.901086
	O276	O	1.220348	1.242259	0.012873
	H277	H	1.245177	1.260867	0.023347
	H278	H	1.219796	1.241280	0.054181
	O279	O	0.004272	-0.130743	0.789108
	H280	H	0.020454	-0.118023	0.791092
	H281	H	0.004966	-0.126943	0.766995
	O282	O	0.296052	0.317061	0.683213
	H283	H	0.309159	0.303662	0.665798
	H284	H	0.300776	0.331587	0.678719
	O285	O	0.542346	0.411425	0.666565
	H286	H	0.533586	0.416175	0.668599
	H287	H	0.534723	0.404450	0.674709
	O288	O	1.306000	-0.289774	1.292173
	H289	H	1.321593	-0.278441	1.310596
	H290	H	1.302549	-0.326092	1.284963
	O291	O	0.465398	0.550371	0.704572
	H292	H	0.470120	0.548404	0.708877
	H293	H	0.453801	0.560343	0.702113
	O294	O	0.111546	0.830170	-0.895174
	H295	H	0.092997	0.830679	-0.895706
	H296	H	0.098974	0.831789	-0.889936
	O297	O	0.284719	-0.515958	-0.296134
	H298	H	0.256820	-0.515383	-0.273115
	H299	H	0.297006	-0.532436	-0.308238
	O300	O	-0.220346	0.231790	-0.048949
	H301	H	-0.213312	0.236109	-0.052972
	H302	H	-0.235960	0.246452	-0.045687
	O303	O	-0.059363	-0.184079	-0.048905
	H304	H	-0.071589	-0.193281	-0.062018
	H305	H	-0.044162	-0.175681	-0.063685
	O306	O	1.268410	-0.261493	0.713405
	H307	H	1.270230	-0.279634	0.724868
	H308	H	1.270458	-0.270470	0.690043
	O309	O	0.486221	0.353740	0.435793
	H310	H	0.485777	0.358782	0.416518
	H311	H	0.489486	0.356632	0.428482
	O312	O	0.211756	-0.193498	-0.109640
	H313	H	0.233268	-0.204739	-0.111692
	H314	H	0.195633	-0.199171	-0.081714
	O315	O	0.789386	0.225303	0.784987
	H316	H	0.754503	0.256842	0.754255
	H317	H	0.781609	0.205525	0.812119
	O318	O	0.282422	0.733378	0.463921
	H319	H	0.258312	0.758415	0.468945
	H320	H	0.296275	0.731136	0.447015
	O321	O	0.027454	0.927831	1.003390
	H322	H	0.033649	0.923844	1.004808
	H323	H	0.022463	0.932300	0.991107
	O324	O	1.122510	-0.121972	0.821568
	H325	H	1.139718	-0.143796	0.800479
	H326	H	1.137324	-0.121918	0.841661
	O327	O	1.491105	-0.338734	0.476848
	H328	H	1.496814	-0.330608	0.476702
	H329	H	1.494019	-0.340060	0.469419
	O330	O	0.389318	0.279922	0.721160
	H331	H	0.393628	0.280638	0.716415
	H332	H	0.383437	0.259560	0.735181
	O333	O	0.390671	0.568482	0.513121
	H334	H	0.414398	0.569754	0.506503
	H335	H	0.403999	0.571987	0.513838
	O336	O	0.971908	-0.196369	1.179985
	H337	H	0.964080	-0.207272	1.198286
	H338	H	0.946858	-0.196966	1.179970
	O339	O	0.482641	0.486095	0.475244
	H340	H	0.487271	0.492217	0.486461
	H341	H	0.483510	0.490869	0.484662
	O342	O	-0.216052	0.985764	0.198137
	H343	H	-0.200696	0.979467	0.196116
	H344	H	-0.233086	0.995048	0.203574
	O345	O	0.528001	0.726056	0.702028
	H346	H	0.537539	0.727721	0.718756
	H347	H	0.551818	0.738439	0.707304
	O348	O	-0.185304	0.934046	0.878640
	H349	H	-0.180742	0.948937	0.895609
	H350	H	-0.164065	0.955181	0.876882
	O351	O	-0.047762	0.075075	1.201923
	H352	H	-0.043411	0.058519	1.203360
	H353	H	-0.037952	0.057429	1.184591
	O354	O	1.282803	-0.697146	1.505889
	H355	H	1.268694	-0.691620	1.503803
	H356	H	1.273407	-0.695315	1.502995
	O357	O	0.711660	0.480949	0.508545
	H358	H	0.710260	0.484138	0.547081
	H359	H	0.721013	0.444420	0.495090
	O360	O	0.501290	0.588055	0.369267
	H361	H	0.508130	0.566077	0.379895
	H362	H	0.490496	0.590352	0.376273
	O363	O	0.477810	0.649689	0.374904
	H364	H	0.483133	0.660015	0.370115
	H365	H	0.492360	0.631549	0.377084
	O366	O	0.787414	-0.185161	1.013569
	H367	H	0.774550	-0.189663	1.012489
	H368	H	0.795496	-0.182534	1.011954
	O369	O	0.021428	0.173991	0.890877
	H370	H	0.044936	0.172463	0.893108
	H371	H	0.009973	0.182440	0.864254
	O372	O	0.461303	1.468173	0.492594
	H373	H	0.464838	1.474092	0.503496
	H374	H	0.479628	1.479593	0.490829
	O375	O	0.827221	0.034860	-0.163866
	H376	H	0.828196	0.038810	-0.161553
	H377	H	0.828184	0.055415	-0.162048
	O378	O	1.206088	1.044897	1.193326
	H379	H	1.202774	1.040044	1.195132
	H380	H	1.219037	1.036460	1.199403
	O381	O	0.019280	0.957978	0.151028
	H382	H	0.021748	0.936915	0.156059
	H383	H	0.020265	0.954068	0.137521
	O384	O	0.684847	0.327278	0.677183
	H385	H	0.661863	0.346923	0.665835
	H386	H	0.665025	0.341324	0.655985
	O387	O	0.213301	0.976527	0.823292
	H388	H	0.229951	0.969027	0.805117
	H389	H	0.218318	0.944925	0.820343
	O390	O	0.019862	0.995168	0.789114
	H391	H	0.039572	1.009154	0.780408
	H392	H	0.012908	1.018324	0.791178
	O393	O	1.170622	-0.000057	-0.002344
	H394	H	1.165995	-0.000021	-0.011674
	H395	H	1.180280	-0.001865	-0.005556
	O396	O	1.188074	0.204641	0.173671
	H397	H	1.191417	0.164295	0.170639
	H398	H	1.144732	0.218691	0.186532
	O399	O	0.123167	0.185098	0.890449
	H400	H	0.137858	0.206717	0.875109
	H401	H	0.138378	0.176710	0.902023
	O402	O	0.783924	0.008673	0.848139
	H403	H	0.789981	0.013201	0.852715
	H404	H	0.774255	0.009865	0.834209
	O405	O	0.602013	0.389258	0.426177
	H406	H	0.607769	0.375874	0.405432
	H407	H	0.600844	0.391323	0.410211
	O408	O	0.970416	1.044101	0.995082
	H409	H	0.975216	1.056463	0.982665
	H410	H	0.985429	1.038727	0.980247
	O411	O	1.287916	1.522653	0.470515
	H412	H	1.297889	1.529012	0.473837
	H413	H	1.283363	1.540120	0.459076
	O414	O	0.099868	0.042117	-0.127407
	H415	H	0.110305	0.059622	-0.123871
	H416	H	0.115864	0.050430	-0.139158
	O417	O	-0.323006	-0.300827	0.517302
	H418	H	-0.313405	-0.312418	0.503025
	H419	H	-0.323921	-0.283018	0.531697
	O420	O	1.172886	-0.133538	1.068533
	H421	H	1.165536	-0.143607	1.072469
	H422	H	1.178479	-0.139274	1.058938
	O423	O	1.017254	1.220780	0.187824
	H424	H	1.006955	1.232823	0.197816
	H425	H	1.008972	1.204084	0.192474
	O426	O	0.700946	0.310711	0.283031
	H427	H	0.695802	0.336379	0.289770
	H428	H	0.734145	0.279631	0.249337
	O429	O	0.796690	0.816605	0.183404
	H430	H	0.788846	0.836775	0.153515
	H431	H	0.782662	0.809651	0.200626
	O432	O	1.421173	-0.512260	1.334028
	H433	H	1.440783	-0.528136	1.342862
	H434	H	1.401229	-0.511150	1.336503
	O435	O	-0.195496	1.210475	1.177246
	H436	H	-0.180733	1.181683	1.163938
	H437	H	-0.169267	1.202254	1.154134
	O438	O	0.715153	0.611382	0.406116
	H439	H	0.711598	0.582735	0.397533
	H440	H	0.709422	0.593445	0.420428
	O441	O	0.284903	0.523266	0.278607
	H442	H	0.300793	0.504764	0.287061
	H443	H	0.269288	0.523034	0.258716
	O444	O	0.493472	0.652262	0.343184
	H445	H	0.472515	0.654758	0.334641
	H446	H	0.497442	0.648309	0.354499
	O447	O	0.711612	0.540003	0.697844
	H448	H	0.713276	0.577058	0.702369
	H449	H	0.721005	0.551355	0.718354
	O450	O	0.541788	0.616170	-0.591428
	H451	H	0.526038	0.627592	-0.584195
	H452	H	0.525495	0.620655	-0.585156
	O453	O	-0.256982	0.766457	0.737223
	H454	H	-0.258003	0.775677	0.728820
	H455	H	-0.229842	0.792354	0.746732
	O456	O	-0.032668	1.219026	1.044053
	H457	H	-0.021038	1.221670	1.048114
	H458	H	-0.008518	1.218443	1.026247
	O459	O	0.710607	0.730824	0.524904
	H460	H	0.731050	0.746728	0.510584
	H461	H	0.717288	0.706676	0.503605
	O462	O	0.528556	0.291892	0.268534
	H463	H	0.552958	0.287599	0.275637
	H464	H	0.536739	0.265317	0.244388
	O465	O	0.715721	0.483105	0.273440
	H466	H	0.696501	0.478553	0.268987
	H467	H	0.736028	0.485298	0.242322
	O468	O	-0.169031	1.113536	0.049891
	H469	H	-0.172994	1.116828	0.020639
	H470	H	-0.158648	1.100996	0.047560
	O471	O	0.404145	0.403477	0.496990
	H472	H	0.397142	0.401326	0.495539
	H473	H	0.398368	0.409251	0.499351
	O474	O	0.956892	1.238551	-0.233097
	H475	H	0.925848	1.250203	-0.246137
	H476	H	0.935917	1.250121	-0.244445
	O477	O	0.610665	0.304692	0.518007
	H478	H	0.603389	0.302297	0.497590
	H479	H	0.621090	0.301743	0.510658
