data_Molecule from HDF5

_cell_length_a		16.488968
_cell_length_b		16.283669
_cell_length_c		16.177627
_cell_angle_alpha	90.130720
_cell_angle_beta	89.756031
_cell_angle_gamma	89.636507
_symmetry_space_group_name_H-M	'P 1'
_symmetry_Int_Tables_number		1

loop_
	_symmetry_equiv_pos_as_xyz
	x,y,z

loop_
	_atom_site_label
	_atom_site_type_symbol
	_atom_site_fract_x
	_atom_site_fract_y
	_atom_site_fract_z
	H0	H	0.396782	0.830164	0.715755
	H1	H	0.597176	0.154073	0.715086
	H2	H	0.599895	0.830600	0.280319
	H3	H	0.396076	0.155111	0.282445
	H4	H	0.717134	0.388129	0.834319
	H5	H	0.717471	0.598113	0.157626
	H6	H	0.277859	0.598453	0.835160
	H7	H	0.275314	0.386282	0.156486
	H8	H	0.836808	0.712711	0.393249
	H9	H	0.156576	0.711620	0.598084
	H10	H	0.836377	0.276042	0.598124
	H11	H	0.154646	0.267735	0.387331
	H12	H	0.837609	0.392324	0.714945
	H13	H	0.157474	0.594139	0.713536
	H14	H	0.836163	0.594852	0.277860
	H15	H	0.157135	0.388327	0.275756
	H16	H	0.394812	0.712015	0.835475
	H17	H	0.596467	0.706987	0.161072
	H18	H	0.601888	0.272800	0.835020
	H19	H	0.397728	0.278284	0.160679
	H20	H	0.716633	0.830982	0.394199
	H21	H	0.716580	0.152275	0.604776
	H22	H	0.275793	0.833139	0.605537
	H23	H	0.275375	0.151752	0.391818
	H24	H	0.895730	0.330586	0.213879
	H25	H	0.094588	0.654292	0.211129
	H26	H	0.098702	0.330747	0.777822
	H27	H	0.897236	0.654970	0.779589
	H28	H	0.219628	0.885891	0.336507
	H29	H	0.215444	0.099433	0.658701
	H30	H	0.776319	0.096243	0.335961
	H31	H	0.779531	0.889693	0.659690
	H32	H	0.339008	0.213948	0.894797
	H33	H	0.657063	0.211717	0.102975
	H34	H	0.336882	0.774132	0.102858
	H35	H	0.656600	0.769286	0.892767
	H36	H	0.337749	0.892639	0.217709
	H37	H	0.656917	0.093819	0.217176
	H38	H	0.338261	0.096291	0.780018
	H39	H	0.656850	0.886848	0.777235
	H40	H	0.894297	0.207674	0.333063
	H41	H	0.096166	0.211230	0.657952
	H42	H	0.096561	0.778330	0.332547
	H43	H	0.896471	0.776848	0.659818
	H44	H	0.219724	0.332592	0.887039
	H45	H	0.214678	0.652178	0.101049
	H46	H	0.778295	0.332586	0.100829
	H47	H	0.774665	0.651812	0.887807
	H48	H	0.406691	0.108120	0.592951
	H49	H	0.587359	0.875055	0.594024
	H50	H	0.587544	0.107194	0.411842
	H51	H	0.410571	0.881423	0.416225
	H52	H	0.588488	0.403679	0.112653
	H53	H	0.586431	0.577094	0.883187
	H54	H	0.405514	0.577498	0.110069
	H55	H	0.413020	0.399525	0.881350
	H56	H	0.108700	0.584788	0.410519
	H57	H	0.880141	0.589538	0.593754
	H58	H	0.113034	0.398494	0.590536
	H59	H	0.884117	0.392875	0.414925
	H60	H	0.109903	0.395919	0.578146
	H61	H	0.884819	0.588861	0.580353
	H62	H	0.109212	0.578003	0.401596
	H63	H	0.887683	0.413405	0.407824
	H64	H	0.407436	0.583244	0.112046
	H65	H	0.584273	0.581352	0.881721
	H66	H	0.589439	0.402018	0.113357
	H67	H	0.404235	0.402546	0.879706
	H68	H	0.589559	0.108308	0.408243
	H69	H	0.584214	0.880466	0.582542
	H70	H	0.408827	0.104973	0.584911
	H71	H	0.400677	0.875347	0.410408
	H72	H	0.910970	0.607616	0.091445
	H73	H	0.093376	0.374544	0.084336
	H74	H	0.089657	0.608951	0.904570
	H75	H	0.905860	0.376714	0.905032
	H76	H	0.096085	0.901825	0.615499
	H77	H	0.081604	0.074526	0.384851
	H78	H	0.909629	0.084602	0.611752
	H79	H	0.901038	0.908821	0.381777
	H80	H	0.612635	0.084416	0.903941
	H81	H	0.386879	0.081421	0.083220
	H82	H	0.611707	0.902089	0.092614
	H83	H	0.384053	0.904982	0.906209
	H84	H	0.612429	0.894139	0.088386
	H85	H	0.382437	0.082781	0.096224
	H86	H	0.610735	0.084068	0.912089
	H87	H	0.382962	0.899068	0.908781
	H88	H	0.900922	0.087215	0.615022
	H89	H	0.086486	0.084826	0.379637
	H90	H	0.084645	0.911511	0.609741
	H91	H	0.911115	0.901996	0.382317
	H92	H	0.086159	0.606304	0.906126
	H93	H	0.084493	0.376649	0.088065
	H94	H	0.906345	0.605004	0.078407
	H95	H	0.910481	0.378206	0.906008
	H96	H	0.399995	0.107901	0.585924
	H97	H	0.595968	0.875151	0.584215
	H98	H	0.585738	0.106646	0.407981
	H99	H	0.411548	0.876645	0.403807
	H100	H	0.591169	0.403895	0.112756
	H101	H	0.589301	0.580919	0.880793
	H102	H	0.401747	0.581066	0.114900
	H103	H	0.410814	0.409005	0.882997
	H104	H	0.112517	0.588831	0.400757
	H105	H	0.884928	0.577581	0.588141
	H106	H	0.108029	0.407736	0.583091
	H107	H	0.879067	0.398824	0.393732
	H108	H	0.898719	0.610882	0.088267
	H109	H	0.086378	0.378786	0.078318
	H110	H	0.089352	0.607468	0.908339
	H111	H	0.906625	0.378603	0.909690
	H112	H	0.081509	0.895924	0.613320
	H113	H	0.093005	0.074085	0.381199
	H114	H	0.902890	0.078364	0.612086
	H115	H	0.901822	0.898016	0.377070
	H116	H	0.610603	0.077015	0.907797
	H117	H	0.381427	0.093343	0.088040
	H118	H	0.609656	0.900590	0.083744
	H119	H	0.385915	0.903927	0.912253
	C120	C	0.374880	0.000893	0.620005
	C121	C	0.618817	0.983405	0.619140
	C122	C	0.618526	0.000747	0.377438
	C123	C	0.376347	0.984148	0.378104
	C124	C	0.620344	0.370935	0.005770
	C125	C	0.617401	0.612060	0.988666
	C126	C	0.374946	0.613173	0.005330
	C127	C	0.377923	0.372555	0.988438
	C128	C	0.004648	0.614556	0.373585
	C129	C	0.988781	0.615489	0.618045
	C130	C	0.005224	0.370874	0.616345
	C131	C	0.988589	0.369657	0.372851
	C132	C	0.875409	0.501104	0.117310
	C133	C	0.117834	0.483225	0.115941
	C134	C	0.119769	0.501174	0.873952
	C135	C	0.876633	0.484327	0.875048
	C136	C	0.118585	0.871579	0.505725
	C137	C	0.117640	0.111952	0.488268
	C138	C	0.874109	0.113712	0.505349
	C139	C	0.875229	0.872042	0.488047
	C140	C	0.506214	0.114159	0.876667
	C141	C	0.489086	0.115561	0.120257
	C142	C	0.505981	0.869633	0.120100
	C143	C	0.489351	0.870167	0.876572
	C144	C	0.376096	0.879363	0.678095
	C145	C	0.617185	0.105305	0.677099
	C146	C	0.618869	0.878990	0.319272
	C147	C	0.376425	0.105981	0.320465
	C148	C	0.678318	0.369053	0.883223
	C149	C	0.676681	0.614692	0.109909
	C150	C	0.316995	0.616059	0.883693
	C151	C	0.316698	0.369445	0.108935
	C152	C	0.884513	0.673105	0.373903
	C153	C	0.108830	0.672829	0.617579
	C154	C	0.884641	0.314655	0.617241
	C155	C	0.107571	0.308800	0.370014
	C156	C	0.885100	0.372621	0.675612
	C157	C	0.109366	0.614141	0.674933
	C158	C	0.884098	0.614061	0.316536
	C159	C	0.108739	0.368683	0.314284
	C160	C	0.375063	0.672837	0.883928
	C161	C	0.616761	0.669484	0.111490
	C162	C	0.620947	0.311933	0.883601
	C163	C	0.377569	0.315484	0.110992
	C164	C	0.677248	0.879432	0.375832
	C165	C	0.676503	0.104556	0.621724
	C166	C	0.316016	0.880530	0.623030
	C167	C	0.316226	0.104355	0.374978
	C168	C	0.875914	0.379599	0.175336
	C169	C	0.116061	0.605271	0.173636
	C170	C	0.119347	0.379534	0.815497
	C171	C	0.876665	0.606011	0.817151
	C172	C	0.178650	0.868827	0.384248
	C173	C	0.175734	0.116269	0.609883
	C174	C	0.815743	0.114737	0.384034
	C175	C	0.818120	0.870929	0.610794
	C176	C	0.386629	0.174121	0.875754
	C177	C	0.609041	0.173030	0.121631
	C178	C	0.385183	0.812823	0.121670
	C179	C	0.608941	0.809437	0.874160
	C180	C	0.385475	0.871753	0.178777
	C181	C	0.609222	0.113923	0.178163
	C182	C	0.386132	0.115365	0.818768
	C183	C	0.609070	0.867982	0.816745
	C184	C	0.874704	0.170068	0.382524
	C185	C	0.116468	0.172198	0.609674
	C186	C	0.117829	0.814739	0.382495
	C187	C	0.876454	0.814858	0.610833
	C188	C	0.179559	0.380680	0.869904
	C189	C	0.175401	0.604216	0.118444
	C190	C	0.817561	0.380368	0.118914
	C191	C	0.815965	0.604622	0.871414
	C192	C	0.398167	0.085196	0.595000
	C193	C	0.595889	0.898767	0.594196
	C194	C	0.594532	0.085500	0.402136
	C195	C	0.400637	0.899608	0.403069
	C196	C	0.596658	0.395927	0.090823
	C197	C	0.593407	0.587174	0.903841
	C198	C	0.398346	0.587876	0.090135
	C199	C	0.402445	0.396727	0.903405
	C200	C	0.088442	0.590584	0.397278
	C201	C	0.904893	0.592279	0.594371
	C202	C	0.088739	0.393866	0.591190
	C203	C	0.905206	0.394547	0.398100
	C204	C	0.898726	0.585721	0.092964
	C205	C	0.094803	0.398826	0.090914
	C206	C	0.095547	0.585691	0.899203
	C207	C	0.900764	0.399928	0.899848
	C208	C	0.094566	0.895979	0.590713
	C209	C	0.093987	0.085595	0.403695
	C210	C	0.897686	0.090231	0.590796
	C211	C	0.898142	0.896066	0.402670
	C212	C	0.589626	0.089174	0.900775
	C213	C	0.405439	0.092556	0.096213
	C214	C	0.589387	0.892309	0.095518
	C215	C	0.406147	0.895218	0.901761
	Zn216	Zn	0.497785	-0.007748	0.747341
	Zn217	Zn	0.497291	-0.007328	0.249125
	Zn218	Zn	0.747008	0.492706	-0.004203
	Zn219	Zn	0.247270	0.491633	-0.004728
	Zn220	Zn	-0.003269	0.744729	0.496129
	Zn221	Zn	-0.003966	0.240415	0.495007
	Zn222	Zn	-0.002143	0.492791	0.746542
	Zn223	Zn	-0.002708	0.492280	0.244622
	Zn224	Zn	0.496534	0.740592	-0.002159
	Zn225	Zn	0.498514	0.244268	-0.002281
	Zn226	Zn	0.746720	-0.007054	0.497972
	Zn227	Zn	0.247024	-0.008026	0.498011
	N228	N	0.412088	0.955230	0.676316
	N229	N	0.581769	0.029099	0.675284
	N230	N	0.583149	0.955475	0.320092
	N231	N	0.413139	0.029931	0.322214
	N232	N	0.678165	0.404887	0.960186
	N233	N	0.677191	0.579795	0.032341
	N234	N	0.316821	0.579708	0.960267
	N235	N	0.316734	0.404194	0.031609
	N236	N	0.960373	0.673419	0.408865
	N237	N	0.032885	0.673742	0.583074
	N238	N	0.960198	0.313600	0.581074
	N239	N	0.031853	0.309074	0.405654
	N240	N	0.961134	0.406958	0.675118
	N241	N	0.033714	0.579157	0.675304
	N242	N	0.959827	0.578392	0.316343
	N243	N	0.033700	0.405725	0.315840
	N244	N	0.410334	0.671223	0.960601
	N245	N	0.580361	0.667846	0.035191
	N246	N	0.585722	0.312991	0.960833
	N247	N	0.415145	0.317612	0.035062
	N248	N	0.677397	0.956406	0.410995
	N249	N	0.677699	0.027710	0.586701
	N250	N	0.315167	0.957127	0.587599
	N251	N	0.316193	0.027600	0.409950
	N252	N	0.911243	0.455772	0.174475
	N253	N	0.081114	0.529075	0.172285
	N254	N	0.083118	0.455699	0.817603
	N255	N	0.913622	0.530305	0.819309
	N256	N	0.179392	0.903418	0.461897
	N257	N	0.176377	0.079423	0.533318
	N258	N	0.815200	0.080633	0.461621
	N259	N	0.817292	0.906119	0.533581
	N260	N	0.462362	0.173372	0.911169
	N261	N	0.533399	0.174249	0.086462
	N262	N	0.460931	0.811157	0.086089
	N263	N	0.533517	0.810675	0.910594
	N264	N	0.461318	0.906339	0.178102
	N265	N	0.533545	0.078998	0.177722
	N266	N	0.461497	0.078905	0.819000
	N267	N	0.533882	0.904977	0.818101
	N268	N	0.910333	0.169597	0.459268
	N269	N	0.081206	0.169646	0.532831
	N270	N	0.081098	0.816474	0.458953
	N271	N	0.911136	0.815353	0.533517
	N272	N	0.180147	0.457466	0.905273
	N273	N	0.176830	0.527201	0.083204
	N274	N	0.817031	0.456998	0.083526
	N275	N	0.815644	0.527845	0.906616
	O276	O	0.488294	0.523784	0.564223
	H277	H	0.485837	0.518996	0.562202
	H278	H	0.489046	0.513592	0.586280
	O279	O	0.595347	0.631548	0.665040
	H280	H	0.596821	0.640853	0.679665
	H281	H	0.606990	0.610156	0.661573
	O282	O	1.052263	0.196146	1.036387
	H283	H	1.063584	0.194754	1.039036
	H284	H	1.055651	0.212154	1.050860
	O285	O	0.856426	0.809339	1.038478
	H286	H	0.866366	0.794646	1.040623
	H287	H	0.863904	0.821001	1.051578
	O288	O	0.861472	1.026963	1.184765
	H289	H	0.843117	1.035666	1.191361
	H290	H	0.874999	1.030264	1.179072
	O291	O	0.093000	0.839424	0.018115
	H292	H	0.088138	0.835416	0.004679
	H293	H	0.093493	0.860548	0.021145
	O294	O	0.574176	0.554066	0.486139
	H295	H	0.555925	0.564833	0.483214
	H296	H	0.577335	0.555250	0.491867
	O297	O	0.370492	0.301015	0.578638
	H298	H	0.363931	0.298560	0.582329
	H299	H	0.372873	0.302731	0.576342
	O300	O	0.523860	0.399708	0.384390
	H301	H	0.524174	0.405499	0.391125
	H302	H	0.529662	0.401153	0.376081
	O303	O	0.454124	0.657627	0.378976
	H304	H	0.452238	0.678604	0.368325
	H305	H	0.433723	0.648178	0.364962
	O306	O	0.367936	0.472118	0.467356
	H307	H	0.363437	0.474897	0.460321
	H308	H	0.358127	0.472166	0.467655
	O309	O	0.511963	0.611425	0.524377
	H310	H	0.516576	0.616983	0.536145
	H311	H	0.527356	0.612231	0.529349
	O312	O	-0.024015	0.114176	-0.065059
	H313	H	-0.009180	0.109292	-0.062742
	H314	H	-0.026079	0.113391	-0.051947
	O315	O	0.579300	0.479697	0.580637
	H316	H	0.593920	0.475264	0.587461
	H317	H	0.586760	0.486332	0.575534
	O318	O	-0.020231	1.062724	0.866718
	H319	H	-0.030994	1.079163	0.859750
	H320	H	-0.026572	1.070010	0.864583
	O321	O	0.861277	-0.016475	0.857456
	H322	H	0.854006	-0.016992	0.845001
	H323	H	0.855672	-0.037197	0.872802
	O324	O	0.120900	0.917116	0.037765
	H325	H	0.132188	0.913064	0.028504
	H326	H	0.125359	0.914918	0.036367
	O327	O	0.647142	0.545051	0.390086
	H328	H	0.658433	0.549472	0.386885
	H329	H	0.647287	0.557711	0.392345
	O330	O	0.130506	-0.123273	0.850646
	H331	H	0.117665	-0.128596	0.858071
	H332	H	0.129465	-0.126223	0.865393
	O333	O	-0.108294	-0.002970	1.032907
	H334	H	-0.091332	-0.011969	1.029185
	H335	H	-0.124856	0.009352	1.002943
	O336	O	0.471148	0.442183	0.338285
	H337	H	0.465487	0.435314	0.335000
	H338	H	0.464901	0.450106	0.337963
	O339	O	1.074958	0.167927	-0.060098
	H340	H	1.065074	0.163209	-0.066496
	H341	H	1.073607	0.157961	-0.069867
	O342	O	-0.101772	0.152991	-0.075158
	H343	H	-0.115050	0.128869	-0.073810
	H344	H	-0.084230	0.161200	-0.087454
	O345	O	0.917692	-0.161326	1.160648
	H346	H	0.920200	-0.159933	1.159297
	H347	H	0.935090	-0.164446	1.168778
	O348	O	1.075564	0.978456	0.133020
	H349	H	1.069682	1.001661	0.134961
	H350	H	1.067576	0.964356	0.112485
	O351	O	0.587900	0.347213	0.352731
	H352	H	0.588450	0.337323	0.348121
	H353	H	0.572629	0.337808	0.354684
	O354	O	0.815344	0.125068	0.984858
	H355	H	0.822706	0.130154	0.968965
	H356	H	0.804085	0.144854	0.981559
	O357	O	0.462634	0.630420	0.526836
	H358	H	0.472621	0.632000	0.521770
	H359	H	0.465392	0.622900	0.537669
	O360	O	0.395106	0.667408	0.359963
	H361	H	0.401688	0.641872	0.356314
	H362	H	0.386622	0.672752	0.370693
	O363	O	0.086932	1.023876	0.922791
	H364	H	0.087384	1.032457	0.925318
	H365	H	0.079700	1.023363	0.914546
	O366	O	0.582069	0.385361	0.620823
	H367	H	0.586325	0.373725	0.613131
	H368	H	0.568632	0.393641	0.605422
	O369	O	0.105025	1.093043	0.134445
	H370	H	0.095912	1.088891	0.120660
	H371	H	0.116642	1.085093	0.140205
	O372	O	0.456069	0.695180	0.408422
	H373	H	0.445926	0.699016	0.399793
	H374	H	0.467187	0.705110	0.419454
	O375	O	0.456877	0.388643	0.521361
	H376	H	0.466488	0.378028	0.527222
	H377	H	0.446318	0.407022	0.515791
	O378	O	0.409344	0.608304	0.515589
	H379	H	0.388435	0.618132	0.519895
	H380	H	0.425669	0.616085	0.517946
	O381	O	1.189734	0.065853	-0.061425
	H382	H	1.196167	0.060004	-0.076166
	H383	H	1.194778	0.050574	-0.070454
	O384	O	0.982831	1.059383	-0.071472
	H385	H	0.976793	1.065608	-0.073885
	H386	H	0.985544	1.047910	-0.072308
	O387	O	-0.069368	-0.140272	-0.130967
	H388	H	-0.082239	-0.151085	-0.135578
	H389	H	-0.055507	-0.138861	-0.129828
	O390	O	-0.190162	0.934235	-0.021229
	H391	H	-0.183092	0.926051	-0.009262
	H392	H	-0.187638	0.935622	-0.018087
	O393	O	1.103929	0.837847	0.950362
	H394	H	1.113292	0.837900	0.946049
	H395	H	1.114057	0.851565	0.964213
	O396	O	0.433712	0.346651	0.480404
	H397	H	0.419671	0.335146	0.484276
	H398	H	0.426610	0.355750	0.478499
	O399	O	-0.078099	0.961336	1.029305
	H400	H	-0.080158	0.961351	1.041017
	H401	H	-0.084179	0.967633	1.028512
	O402	O	0.331283	0.366879	0.653667
	H403	H	0.358165	0.360217	0.657733
	H404	H	0.326643	0.373240	0.633390
	O405	O	1.355152	1.538617	0.678420
	H406	H	1.355794	1.549118	0.687645
	H407	H	1.364970	1.517538	0.683705
	O408	O	1.178201	0.979916	0.064031
	H409	H	1.167514	0.986689	0.073383
	H410	H	1.159025	0.980717	0.065197
	O411	O	0.674614	-0.667027	0.334890
	H412	H	0.671926	-0.659240	0.329870
	H413	H	0.655840	-0.656566	0.326985
	O414	O	0.425842	0.424559	0.430391
	H415	H	0.423325	0.428006	0.432280
	H416	H	0.428526	0.421045	0.425906
	O417	O	0.531601	0.444456	0.549326
	H418	H	0.532891	0.434493	0.547766
	H419	H	0.538074	0.451714	0.534636
