data_Molecule from HDF5

_cell_length_a		16.319401
_cell_length_b		16.209521
_cell_length_c		16.274068
_cell_angle_alpha	90.085447
_cell_angle_beta	90.156660
_cell_angle_gamma	90.054883
_symmetry_space_group_name_H-M	'P 1'
_symmetry_Int_Tables_number		1

loop_
	_symmetry_equiv_pos_as_xyz
	x,y,z

loop_
	_atom_site_label
	_atom_site_type_symbol
	_atom_site_fract_x
	_atom_site_fract_y
	_atom_site_fract_z
	H0	H	0.405997	0.826498	0.706219
	H1	H	0.600991	0.156641	0.708473
	H2	H	0.598632	0.825937	0.282000
	H3	H	0.404460	0.155801	0.279856
	H4	H	0.714910	0.392523	0.830187
	H5	H	0.716954	0.589823	0.157664
	H6	H	0.287064	0.589504	0.830790
	H7	H	0.287227	0.393571	0.158576
	H8	H	0.838347	0.704973	0.397200
	H9	H	0.165370	0.706691	0.592314
	H10	H	0.838034	0.278553	0.590259
	H11	H	0.166623	0.278331	0.396932
	H12	H	0.837854	0.394012	0.707285
	H13	H	0.164635	0.592450	0.711033
	H14	H	0.838290	0.589968	0.279942
	H15	H	0.166236	0.394453	0.280081
	H16	H	0.404644	0.704429	0.830066
	H17	H	0.599385	0.703995	0.158826
	H18	H	0.598844	0.277222	0.830834
	H19	H	0.405151	0.278008	0.158592
	H20	H	0.715671	0.826651	0.396836
	H21	H	0.717421	0.155840	0.593857
	H22	H	0.287498	0.827288	0.592898
	H23	H	0.288049	0.155986	0.395222
	H24	H	0.904586	0.327464	0.207421
	H25	H	0.100293	0.656826	0.208186
	H26	H	0.099027	0.328340	0.779837
	H27	H	0.903300	0.656764	0.780978
	H28	H	0.217630	0.891306	0.331301
	H29	H	0.218586	0.092104	0.658044
	H30	H	0.787182	0.089927	0.330485
	H31	H	0.788227	0.893059	0.658131
	H32	H	0.338841	0.205126	0.895717
	H33	H	0.665252	0.206425	0.093944
	H34	H	0.338194	0.778429	0.090259
	H35	H	0.666011	0.778107	0.897652
	H36	H	0.339114	0.891998	0.209421
	H37	H	0.665527	0.090124	0.209833
	H38	H	0.338961	0.088446	0.779811
	H39	H	0.665673	0.892136	0.779612
	H40	H	0.904247	0.204977	0.329607
	H41	H	0.100295	0.206510	0.658534
	H42	H	0.098491	0.778346	0.329993
	H43	H	0.904902	0.778288	0.658431
	H44	H	0.215660	0.327763	0.894861
	H45	H	0.216772	0.656445	0.093386
	H46	H	0.788057	0.327385	0.092100
	H47	H	0.787290	0.656315	0.896252
	H48	H	0.403554	0.110236	0.587186
	H49	H	0.592480	0.870174	0.604342
	H50	H	0.595375	0.106396	0.408601
	H51	H	0.413015	0.877737	0.410054
	H52	H	0.588076	0.397740	0.108786
	H53	H	0.591266	0.583099	0.879870
	H54	H	0.404594	0.577375	0.109960
	H55	H	0.404468	0.405680	0.879569
	H56	H	0.118409	0.591141	0.407939
	H57	H	0.888537	0.584406	0.579479
	H58	H	0.122203	0.382450	0.585433
	H59	H	0.885512	0.400698	0.395277
	H60	H	0.111042	0.409399	0.574550
	H61	H	0.885447	0.579314	0.594237
	H62	H	0.115513	0.576550	0.402550
	H63	H	0.884454	0.392235	0.399314
	H64	H	0.416958	0.585652	0.109345
	H65	H	0.596395	0.589813	0.875295
	H66	H	0.600053	0.392266	0.115107
	H67	H	0.415686	0.396485	0.879877
	H68	H	0.600958	0.110793	0.398588
	H69	H	0.582985	0.881370	0.577705
	H70	H	0.412941	0.109666	0.592224
	H71	H	0.399249	0.871089	0.400883
	H72	H	0.919875	0.605828	0.085845
	H73	H	0.095127	0.377108	0.081293
	H74	H	0.093437	0.606302	0.909953
	H75	H	0.915266	0.375336	0.896531
	H76	H	0.093540	0.901876	0.609463
	H77	H	0.090859	0.080953	0.380690
	H78	H	0.917861	0.081885	0.607427
	H79	H	0.899096	0.903434	0.376368
	H80	H	0.620337	0.080248	0.893013
	H81	H	0.386740	0.077311	0.090522
	H82	H	0.616898	0.901527	0.084411
	H83	H	0.385002	0.892566	0.902277
	H84	H	0.619683	0.900393	0.095272
	H85	H	0.383327	0.088906	0.091346
	H86	H	0.621005	0.092909	0.903136
	H87	H	0.388064	0.902504	0.902516
	H88	H	0.909221	0.094422	0.613176
	H89	H	0.095466	0.089719	0.376281
	H90	H	0.094917	0.896568	0.611342
	H91	H	0.915662	0.902742	0.381186
	H92	H	0.102280	0.612378	0.900017
	H93	H	0.099175	0.372984	0.089891
	H94	H	0.900791	0.608702	0.078446
	H95	H	0.907843	0.377240	0.907994
	H96	H	0.411792	0.106921	0.582109
	H97	H	0.611530	0.871717	0.581115
	H98	H	0.589396	0.107365	0.398688
	H99	H	0.414411	0.874079	0.392509
	H100	H	0.599722	0.406471	0.110057
	H101	H	0.599427	0.581294	0.876575
	H102	H	0.404038	0.591540	0.114368
	H103	H	0.403035	0.392493	0.874335
	H104	H	0.121487	0.587801	0.393439
	H105	H	0.882226	0.594249	0.590632
	H106	H	0.120378	0.406676	0.604350
	H107	H	0.888253	0.400091	0.404366
	H108	H	0.905506	0.613206	0.098244
	H109	H	0.088769	0.375575	0.089689
	H110	H	0.088992	0.609122	0.896779
	H111	H	0.902140	0.371956	0.896651
	H112	H	0.098799	0.900990	0.611010
	H113	H	0.100889	0.080398	0.377854
	H114	H	0.901570	0.079365	0.610898
	H115	H	0.907698	0.888607	0.374146
	H116	H	0.615511	0.078735	0.908061
	H117	H	0.387817	0.084419	0.080630
	H118	H	0.619910	0.891381	0.088340
	H119	H	0.384284	0.898233	0.893275
	C120	C	0.381415	0.000154	0.615359
	C121	C	0.624166	0.983647	0.616204
	C122	C	0.623607	-0.000566	0.373331
	C123	C	0.380557	0.983075	0.372803
	C124	C	0.623791	0.369735	0.002864
	C125	C	0.623784	0.612729	0.985720
	C126	C	0.380203	0.612819	0.002888
	C127	C	0.379558	0.369984	0.986296
	C128	C	0.010350	0.613160	0.373257
	C129	C	0.993206	0.614543	0.616608
	C130	C	0.009863	0.370765	0.615850
	C131	C	0.994389	0.369636	0.371868
	C132	C	0.880439	0.500667	0.115794
	C133	C	0.123436	0.483864	0.115771
	C134	C	0.122963	0.500664	0.873026
	C135	C	0.880152	0.483645	0.873025
	C136	C	0.123988	0.870493	0.502756
	C137	C	0.124251	0.113109	0.486280
	C138	C	0.880760	0.113004	0.502077
	C139	C	0.880183	0.870075	0.486015
	C140	C	0.510846	0.112575	0.872927
	C141	C	0.494057	0.112375	0.116048
	C142	C	0.510784	0.869462	0.116720
	C143	C	0.494043	0.869411	0.872249
	C144	C	0.384424	0.875919	0.669375
	C145	C	0.621632	0.107327	0.671058
	C146	C	0.620190	0.875522	0.319042
	C147	C	0.383696	0.107024	0.317936
	C148	C	0.678091	0.372017	0.879583
	C149	C	0.678707	0.610277	0.109215
	C150	C	0.325074	0.610281	0.879379
	C151	C	0.324868	0.372524	0.109451
	C152	C	0.887093	0.667615	0.376073
	C153	C	0.116740	0.668746	0.613441
	C154	C	0.886821	0.316148	0.611554
	C155	C	0.117733	0.315735	0.375968
	C156	C	0.886766	0.373742	0.669542
	C157	C	0.116271	0.612121	0.672178
	C158	C	0.887115	0.610314	0.318066
	C159	C	0.117395	0.373073	0.317393
	C160	C	0.383673	0.666983	0.879152
	C161	C	0.620671	0.667289	0.109458
	C162	C	0.619920	0.315004	0.879564
	C163	C	0.383589	0.315391	0.109655
	C164	C	0.678273	0.875984	0.376047
	C165	C	0.679387	0.106996	0.613892
	C166	C	0.325908	0.876247	0.612988
	C167	C	0.325911	0.107044	0.375281
	C168	C	0.883385	0.376555	0.170269
	C169	C	0.120951	0.607832	0.170695
	C170	C	0.119689	0.377120	0.817846
	C171	C	0.882779	0.607675	0.818584
	C172	C	0.179490	0.871570	0.379892
	C173	C	0.180287	0.112418	0.609219
	C174	C	0.825410	0.110223	0.379194
	C175	C	0.825813	0.872807	0.609224
	C176	C	0.387546	0.167171	0.875581
	C177	C	0.616920	0.167978	0.113935
	C178	C	0.387216	0.815308	0.112162
	C179	C	0.617147	0.815023	0.876057
	C180	C	0.387550	0.871728	0.171244
	C181	C	0.616854	0.110563	0.171784
	C182	C	0.387635	0.109300	0.817868
	C183	C	0.617041	0.871955	0.817610
	C184	C	0.883441	0.167418	0.378780
	C185	C	0.121334	0.168879	0.609584
	C186	C	0.120329	0.815397	0.379225
	C187	C	0.883856	0.815767	0.609522
	C188	C	0.177326	0.376771	0.875226
	C189	C	0.179010	0.607455	0.113989
	C190	C	0.825680	0.376564	0.112902
	C191	C	0.825217	0.607401	0.875825
	C192	C	0.403213	0.086704	0.593743
	C193	C	0.602118	0.896888	0.594152
	C194	C	0.601531	0.085997	0.395291
	C195	C	0.402353	0.896750	0.394723
	C196	C	0.602259	0.392189	0.089132
	C197	C	0.602075	0.591040	0.899575
	C198	C	0.401906	0.591145	0.088922
	C199	C	0.401314	0.391835	0.900145
	C200	C	0.096233	0.591464	0.395078
	C201	C	0.907538	0.592437	0.594584
	C202	C	0.095752	0.392940	0.594325
	C203	C	0.908254	0.391313	0.393412
	C204	C	0.902367	0.586964	0.093892
	C205	C	0.101102	0.397483	0.093419
	C206	C	0.101242	0.587142	0.895708
	C207	C	0.901887	0.397009	0.894169
	C208	C	0.102119	0.893158	0.588395
	C209	C	0.102255	0.090383	0.400546
	C210	C	0.903028	0.091488	0.588408
	C211	C	0.901529	0.891759	0.399598
	C212	C	0.596725	0.090512	0.895093
	C213	C	0.408126	0.090131	0.093991
	C214	C	0.596575	0.891484	0.095655
	C215	C	0.408016	0.891277	0.893208
	Zn216	Zn	0.502665	-0.008633	0.743618
	Zn217	Zn	0.502188	-0.008606	0.244984
	Zn218	Zn	0.752026	0.491823	-0.006038
	Zn219	Zn	0.250839	0.492044	-0.005383
	Zn220	Zn	0.002021	0.742379	0.494373
	Zn221	Zn	0.002468	0.241286	0.493941
	Zn222	Zn	0.001424	0.492610	0.744986
	Zn223	Zn	0.002420	0.492098	0.243697
	Zn224	Zn	0.502136	0.741255	-0.005529
	Zn225	Zn	0.502048	0.241429	-0.005206
	Zn226	Zn	0.752071	-0.008199	0.494561
	Zn227	Zn	0.252971	-0.008413	0.494569
	N228	N	0.418182	0.953811	0.670904
	N229	N	0.588101	0.029447	0.672588
	N230	N	0.586699	0.953373	0.317416
	N231	N	0.416881	0.029124	0.316404
	N232	N	0.680502	0.405420	0.957402
	N233	N	0.680609	0.577044	0.031510
	N234	N	0.322916	0.577283	0.957248
	N235	N	0.322179	0.405454	0.031671
	N236	N	0.964545	0.669464	0.409779
	N237	N	0.039448	0.670388	0.579556
	N238	N	0.964306	0.314298	0.578627
	N239	N	0.040155	0.313535	0.408806
	N240	N	0.964425	0.406855	0.672331
	N241	N	0.038530	0.579146	0.674442
	N242	N	0.964758	0.577198	0.316126
	N243	N	0.039600	0.405789	0.314761
	N244	N	0.417128	0.668915	0.956852
	N245	N	0.586802	0.668630	0.031779
	N246	N	0.586831	0.313608	0.957137
	N247	N	0.416794	0.313566	0.031955
	N248	N	0.680273	0.954133	0.409137
	N249	N	0.681056	0.028969	0.580551
	N250	N	0.323880	0.954467	0.580203
	N251	N	0.323809	0.028914	0.408538
	N252	N	0.916775	0.454617	0.172288
	N253	N	0.087192	0.529908	0.171952
	N254	N	0.086528	0.455029	0.816664
	N255	N	0.916525	0.529832	0.816850
	N256	N	0.181807	0.905322	0.457520
	N257	N	0.182071	0.078232	0.531746
	N258	N	0.823721	0.077178	0.457105
	N259	N	0.823459	0.905774	0.531450
	N260	N	0.465287	0.169325	0.908909
	N261	N	0.539667	0.169123	0.079965
	N262	N	0.464677	0.813909	0.078922
	N263	N	0.539831	0.813443	0.909271
	N264	N	0.465158	0.904696	0.174148
	N265	N	0.539462	0.076699	0.173233
	N266	N	0.465202	0.076167	0.815920
	N267	N	0.539329	0.905019	0.815077
	N268	N	0.917222	0.169312	0.456356
	N269	N	0.087266	0.169446	0.532056
	N270	N	0.086570	0.814539	0.456552
	N271	N	0.917100	0.814214	0.531851
	N272	N	0.179574	0.454848	0.908671
	N273	N	0.180422	0.529456	0.080492
	N274	N	0.823735	0.454599	0.079754
	N275	N	0.823543	0.529328	0.908909
	O276	O	1.043733	0.043464	1.003855
	H277	H	1.052286	0.046711	1.008777
	H278	H	1.046869	0.045365	1.006918
	O279	O	0.064724	1.068624	1.016687
	H280	H	0.060304	1.072288	1.012592
	H281	H	0.067693	1.070767	1.015533
	O282	O	1.044633	1.067125	-0.012094
	H283	H	1.041368	1.070808	-0.017072
	H284	H	1.043016	1.063255	-0.016056
	O285	O	0.038955	1.030840	0.987915
	H286	H	0.032173	1.032331	0.989608
	H287	H	0.048077	1.035146	0.991204
