data_Molecule from HDF5

_cell_length_a		16.232394
_cell_length_b		16.158837
_cell_length_c		16.425591
_cell_angle_alpha	89.682116
_cell_angle_beta	89.710760
_cell_angle_gamma	89.825017
_symmetry_space_group_name_H-M	'P 1'
_symmetry_Int_Tables_number		1

loop_
	_symmetry_equiv_pos_as_xyz
	x,y,z

loop_
	_atom_site_label
	_atom_site_type_symbol
	_atom_site_fract_x
	_atom_site_fract_y
	_atom_site_fract_z
	H0	H	0.404266	0.840936	0.711854
	H1	H	0.611581	0.165313	0.709945
	H2	H	0.613183	0.841001	0.275400
	H3	H	0.404862	0.165781	0.274730
	H4	H	0.727565	0.400455	0.831642
	H5	H	0.725126	0.604477	0.153299
	H6	H	0.292253	0.608393	0.830448
	H7	H	0.288659	0.401340	0.151892
	H8	H	0.844416	0.722145	0.393944
	H9	H	0.173628	0.718522	0.586736
	H10	H	0.845263	0.290709	0.591116
	H11	H	0.171009	0.290279	0.389041
	H12	H	0.847174	0.402502	0.710814
	H13	H	0.171325	0.608297	0.707456
	H14	H	0.846188	0.613499	0.272179
	H15	H	0.169423	0.403553	0.270455
	H16	H	0.408804	0.723750	0.831369
	H17	H	0.607474	0.718897	0.154157
	H18	H	0.611211	0.284952	0.832279
	H19	H	0.406970	0.288129	0.154102
	H20	H	0.727954	0.841224	0.391062
	H21	H	0.723224	0.166983	0.591819
	H22	H	0.292230	0.840757	0.593924
	H23	H	0.294819	0.168563	0.392676
	H24	H	0.901815	0.346121	0.214411
	H25	H	0.109558	0.669911	0.205236
	H26	H	0.113373	0.342766	0.773626
	H27	H	0.905905	0.669065	0.773902
	H28	H	0.226707	0.906002	0.330694
	H29	H	0.225222	0.106194	0.652887
	H30	H	0.791304	0.108112	0.330456
	H31	H	0.790821	0.900563	0.651632
	H32	H	0.345398	0.220360	0.894578
	H33	H	0.671331	0.218385	0.093248
	H34	H	0.344258	0.788438	0.092534
	H35	H	0.672794	0.790661	0.895608
	H36	H	0.346071	0.898335	0.214056
	H37	H	0.669635	0.105069	0.210653
	H38	H	0.347184	0.109179	0.773836
	H39	H	0.669401	0.896468	0.772147
	H40	H	0.909366	0.223536	0.329414
	H41	H	0.109830	0.223002	0.652370
	H42	H	0.109910	0.791379	0.329427
	H43	H	0.907457	0.787815	0.651705
	H44	H	0.225214	0.341554	0.892126
	H45	H	0.223051	0.668832	0.088725
	H46	H	0.794200	0.341788	0.093474
	H47	H	0.791104	0.668589	0.890331
	H48	H	0.411646	0.122096	0.581053
	H49	H	0.596484	0.888166	0.582800
	H50	H	0.601601	0.122445	0.397526
	H51	H	0.426908	0.887455	0.397133
	H52	H	0.603047	0.409502	0.108838
	H53	H	0.599166	0.598358	0.877451
	H54	H	0.414882	0.602952	0.109124
	H55	H	0.417887	0.403217	0.874034
	H56	H	0.123691	0.589285	0.391450
	H57	H	0.892308	0.600056	0.583280
	H58	H	0.130486	0.403598	0.587474
	H59	H	0.892968	0.415690	0.403395
	H60	H	0.120443	0.415961	0.569764
	H61	H	0.893268	0.594233	0.582068
	H62	H	0.127252	0.603756	0.392669
	H63	H	0.894293	0.421128	0.403759
	H64	H	0.407965	0.591214	0.107710
	H65	H	0.602303	0.595253	0.877160
	H66	H	0.601305	0.415715	0.106147
	H67	H	0.408434	0.419205	0.876558
	H68	H	0.594176	0.119521	0.399228
	H69	H	0.602661	0.886693	0.582059
	H70	H	0.419759	0.122706	0.591562
	H71	H	0.418405	0.889971	0.413241
	H72	H	0.914433	0.624929	0.084359
	H73	H	0.099596	0.389210	0.078280
	H74	H	0.109375	0.625862	0.898145
	H75	H	0.913692	0.387708	0.898630
	H76	H	0.106385	0.906232	0.610046
	H77	H	0.106526	0.094180	0.376470
	H78	H	0.917087	0.096438	0.606356
	H79	H	0.923553	0.922161	0.380498
	H80	H	0.621243	0.086529	0.904096
	H81	H	0.392946	0.090425	0.087697
	H82	H	0.624347	0.917054	0.092929
	H83	H	0.392172	0.907986	0.907935
	H84	H	0.626397	0.904325	0.086509
	H85	H	0.390042	0.096700	0.088053
	H86	H	0.626257	0.092883	0.893269
	H87	H	0.396000	0.922164	0.904158
	H88	H	0.916229	0.098070	0.605803
	H89	H	0.097432	0.096193	0.379091
	H90	H	0.103178	0.921310	0.605380
	H91	H	0.921731	0.906816	0.374341
	H92	H	0.095017	0.623345	0.889414
	H93	H	0.099213	0.387939	0.087146
	H94	H	0.920661	0.620998	0.080892
	H95	H	0.923970	0.388882	0.895592
	H96	H	0.423980	0.116808	0.579993
	H97	H	0.600325	0.884772	0.587631
	H98	H	0.600040	0.119176	0.405041
	H99	H	0.409112	0.883384	0.399210
	H100	H	0.597283	0.410754	0.106080
	H101	H	0.598522	0.594825	0.878846
	H102	H	0.421195	0.591162	0.103808
	H103	H	0.427301	0.416971	0.881504
	H104	H	0.122186	0.596732	0.404891
	H105	H	0.892558	0.595203	0.587424
	H106	H	0.124348	0.426599	0.590677
	H107	H	0.892376	0.418511	0.399160
	H108	H	0.914376	0.621990	0.077363
	H109	H	0.091945	0.390794	0.082888
	H110	H	0.095558	0.618660	0.904977
	H111	H	0.920838	0.390896	0.905288
	H112	H	0.091469	0.910163	0.605262
	H113	H	0.102945	0.102386	0.375013
	H114	H	0.914802	0.097103	0.606347
	H115	H	0.909065	0.917826	0.373737
	H116	H	0.624774	0.099298	0.904803
	H117	H	0.392918	0.094504	0.081608
	H118	H	0.621483	0.915091	0.079363
	H119	H	0.389507	0.913139	0.894177
	C120	C	0.387160	0.012538	0.614820
	C121	C	0.629575	0.994550	0.613595
	C122	C	0.629925	0.012614	0.371100
	C123	C	0.387730	0.994897	0.372404
	C124	C	0.631085	0.381113	0.001178
	C125	C	0.629969	0.625586	0.984239
	C126	C	0.385779	0.626689	0.000196
	C127	C	0.386833	0.382622	0.983503
	C128	C	0.017029	0.628595	0.367894
	C129	C	1.000755	0.626901	0.612569
	C130	C	0.017657	0.384288	0.613444
	C131	C	0.999733	0.386552	0.369890
	C132	C	0.886411	0.515072	0.112346
	C133	C	0.127561	0.497266	0.111400
	C134	C	0.130853	0.514347	0.868910
	C135	C	0.887640	0.496924	0.869649
	C136	C	0.130760	0.883674	0.500177
	C137	C	0.131829	0.127916	0.483035
	C138	C	0.886435	0.127750	0.499517
	C139	C	0.887710	0.884549	0.482434
	C140	C	0.517037	0.124773	0.871000
	C141	C	0.499320	0.124328	0.115069
	C142	C	0.516652	0.881817	0.115978
	C143	C	0.499932	0.883102	0.871932
	C144	C	0.385632	0.889893	0.672771
	C145	C	0.629745	0.116892	0.670803
	C146	C	0.631166	0.889741	0.314367
	C147	C	0.386778	0.117565	0.314183
	C148	C	0.688998	0.381093	0.880093
	C149	C	0.686730	0.624369	0.105042
	C150	C	0.330370	0.627235	0.878930
	C151	C	0.328178	0.382434	0.104231
	C152	C	0.893832	0.685174	0.372055
	C153	C	0.124103	0.681980	0.608633
	C154	C	0.894785	0.327824	0.612201
	C155	C	0.122200	0.328811	0.369605
	C156	C	0.895621	0.383579	0.671625
	C157	C	0.123154	0.626600	0.668536
	C158	C	0.894667	0.631096	0.311568
	C159	C	0.121219	0.385097	0.310491
	C160	C	0.388108	0.685161	0.879328
	C161	C	0.628159	0.681464	0.105623
	C162	C	0.631000	0.323589	0.880309
	C163	C	0.386804	0.325491	0.105111
	C164	C	0.688512	0.889828	0.371819
	C165	C	0.685514	0.117764	0.612073
	C166	C	0.329723	0.890130	0.614246
	C167	C	0.332216	0.118960	0.373148
	C168	C	0.884245	0.393717	0.173589
	C169	C	0.128137	0.620730	0.166925
	C170	C	0.131924	0.391490	0.812393
	C171	C	0.886879	0.619915	0.812586
	C172	C	0.188173	0.885732	0.378762
	C173	C	0.187340	0.126446	0.604614
	C174	C	0.829853	0.127537	0.378529
	C175	C	0.829825	0.882773	0.603559
	C176	C	0.394588	0.182368	0.873372
	C177	C	0.622062	0.180768	0.113195
	C178	C	0.393439	0.825648	0.113839
	C179	C	0.623260	0.827093	0.874239
	C180	C	0.394361	0.880592	0.174059
	C181	C	0.621529	0.124032	0.171591
	C182	C	0.395463	0.126843	0.813406
	C183	C	0.621698	0.880321	0.813065
	C184	C	0.888911	0.184639	0.377838
	C185	C	0.130079	0.184671	0.604056
	C186	C	0.130039	0.828688	0.378115
	C187	C	0.888072	0.826662	0.603793
	C188	C	0.187454	0.390876	0.871371
	C189	C	0.184840	0.620290	0.109047
	C190	C	0.830712	0.391492	0.113394
	C191	C	0.829786	0.619567	0.870687
	C192	C	0.411408	0.098278	0.591175
	C193	C	0.606441	0.908848	0.590818
	C194	C	0.605663	0.098015	0.393811
	C195	C	0.411405	0.909184	0.396193
	C196	C	0.607410	0.404994	0.085052
	C197	C	0.606734	0.602933	0.899614
	C198	C	0.408073	0.602230	0.085036
	C199	C	0.410956	0.406242	0.899213
	C200	C	0.102314	0.603902	0.389966
	C201	C	0.915083	0.603466	0.590846
	C202	C	0.102910	0.408214	0.589696
	C203	C	0.915111	0.411298	0.394887
	C204	C	0.909891	0.600378	0.088033
	C205	C	0.103712	0.411571	0.089330
	C206	C	0.106999	0.600263	0.891115
	C207	C	0.912417	0.411285	0.893183
	C208	C	0.107204	0.905904	0.584759
	C209	C	0.108979	0.104654	0.398717
	C210	C	0.909345	0.104220	0.584137
	C211	C	0.911337	0.908510	0.398206
	C212	C	0.602189	0.099979	0.894019
	C213	C	0.413909	0.100801	0.092494
	C214	C	0.601989	0.905162	0.092992
	C215	C	0.414707	0.907133	0.895369
	Zn216	Zn	0.508648	0.002536	0.742354
	Zn217	Zn	0.507373	0.003091	0.244260
	Zn218	Zn	0.759633	0.504220	-0.008034
	Zn219	Zn	0.257088	0.504858	-0.008676
	Zn220	Zn	0.008850	0.755639	0.491039
	Zn221	Zn	0.009301	0.257001	0.491150
	Zn222	Zn	0.009487	0.505720	0.741809
	Zn223	Zn	0.007144	0.507546	0.240000
	Zn224	Zn	0.508635	0.755307	-0.006990
	Zn225	Zn	0.508521	0.252865	-0.006770
	Zn226	Zn	0.758024	0.004531	0.491909
	Zn227	Zn	0.260267	0.005181	0.492771
	N228	N	0.420609	0.967267	0.673267
	N229	N	0.595727	0.039121	0.671899
	N230	N	0.595651	0.967079	0.313505
	N231	N	0.420676	0.039453	0.313656
	N232	N	0.689322	0.416092	0.956192
	N233	N	0.688005	0.590469	0.028463
	N234	N	0.328950	0.591713	0.955151
	N235	N	0.327874	0.417168	0.027639
	N236	N	0.971126	0.684172	0.406144
	N237	N	0.046907	0.682181	0.574552
	N238	N	0.971808	0.327822	0.577083
	N239	N	0.045692	0.329455	0.405787
	N240	N	0.973126	0.417768	0.672574
	N241	N	0.045236	0.593304	0.671438
	N242	N	0.972196	0.596736	0.308761
	N243	N	0.043903	0.420248	0.310646
	N244	N	0.421762	0.684935	0.955988
	N245	N	0.593505	0.682225	0.029436
	N246	N	0.595895	0.323212	0.956616
	N247	N	0.422796	0.325587	0.029150
	N248	N	0.688094	0.967179	0.406231
	N249	N	0.685646	0.040709	0.577141
	N250	N	0.330393	0.967639	0.579023
	N251	N	0.332645	0.041700	0.408704
	N252	N	0.918086	0.471535	0.173075
	N253	N	0.093333	0.543346	0.168372
	N254	N	0.097453	0.469342	0.810705
	N255	N	0.922314	0.542541	0.811792
	N256	N	0.188992	0.919103	0.455616
	N257	N	0.188638	0.091983	0.528273
	N258	N	0.828104	0.093181	0.455381
	N259	N	0.829599	0.918250	0.527333
	N260	N	0.471310	0.181216	0.908450
	N261	N	0.545014	0.181048	0.078755
	N262	N	0.470416	0.826118	0.078460
	N263	N	0.546573	0.828670	0.910225
	N264	N	0.471874	0.914731	0.175495
	N265	N	0.544005	0.089901	0.173140
	N266	N	0.472638	0.091524	0.812020
	N267	N	0.544187	0.914694	0.811642
	N268	N	0.923360	0.185025	0.454118
	N269	N	0.096392	0.185754	0.527433
	N270	N	0.095201	0.827152	0.454564
	N271	N	0.923180	0.827226	0.527534
	N272	N	0.186985	0.468400	0.905371
	N273	N	0.184667	0.542580	0.075140
	N274	N	0.831994	0.467729	0.075980
	N275	N	0.830211	0.541819	0.905240
	O276	O	0.141203	0.057785	0.038501
	H277	H	0.144256	0.065237	0.026932
	H278	H	0.130022	0.050772	0.030607
	O279	O	0.583877	0.469280	0.517362
	H280	H	0.574723	0.471002	0.501505
	H281	H	0.602943	0.455751	0.521712
	O282	O	0.963393	-0.050645	-0.010542
	H283	H	0.967764	-0.042159	0.001950
	H284	H	0.951201	-0.042259	-0.010045
	O285	O	-0.009860	0.905842	0.112498
	H286	H	-0.020840	0.896259	0.108841
	H287	H	-0.007778	0.896136	0.114222
	O288	O	0.022928	-0.003156	0.986452
	H289	H	0.031294	0.008070	0.988946
	H290	H	0.019992	-0.003439	0.985461
	O291	O	0.454134	0.577740	0.525096
	H292	H	0.451321	0.573745	0.533875
	H293	H	0.451563	0.582386	0.525459
	O294	O	1.116685	0.924144	1.039712
	H295	H	1.129750	0.913410	1.035286
	H296	H	1.101788	0.911280	1.055460
	O297	O	-0.042806	0.108467	-0.033317
	H298	H	-0.055789	0.113700	-0.041495
	H299	H	-0.041928	0.120995	-0.023115
	O300	O	0.424795	0.426981	0.586935
	H301	H	0.435685	0.427446	0.576387
	H302	H	0.421982	0.425485	0.594600
	O303	O	-0.049557	0.874403	0.925400
	H304	H	-0.045950	0.881363	0.924921
	H305	H	-0.041534	0.865481	0.922259
	O306	O	0.703243	1.212958	-0.247242
	H307	H	0.706099	1.207704	-0.241685
	H308	H	0.702787	1.221344	-0.247104
	O309	O	0.906166	0.072180	-0.083148
	H310	H	0.901837	0.069853	-0.077899
	H311	H	0.908018	0.086248	-0.100712
	O312	O	-0.041351	0.129927	0.943839
	H313	H	-0.050303	0.125832	0.942504
	H314	H	-0.042903	0.137976	0.940809
	O315	O	0.393847	0.501869	0.478833
	H316	H	0.396370	0.512643	0.471755
	H317	H	0.382642	0.506997	0.486765
	O318	O	0.604370	0.505577	0.483142
	H319	H	0.595955	0.510132	0.484120
	H320	H	0.611337	0.508190	0.473720
	O321	O	0.368398	0.446118	0.483879
	H322	H	0.371490	0.457818	0.493558
	H323	H	0.376812	0.450712	0.489958
	O324	O	0.444366	0.563188	0.454143
	H325	H	0.437283	0.557779	0.446477
	H326	H	0.439173	0.566265	0.449522
	O327	O	-0.057025	0.959858	1.161215
	H328	H	-0.072957	0.945532	1.154908
	H329	H	-0.045532	0.952006	1.181368
	O330	O	0.504436	0.417955	0.398526
	H331	H	0.501990	0.417198	0.405732
	H332	H	0.499227	0.411238	0.403221
	O333	O	-0.468924	0.523831	0.439531
	H334	H	-0.469882	0.531867	0.447025
	H335	H	-0.467677	0.519513	0.439862
	O336	O	1.052975	1.048153	0.911083
	H337	H	1.055937	1.048072	0.900556
	H338	H	1.046750	1.026142	0.907309
	O339	O	0.494517	0.506031	0.429158
	H340	H	0.503561	0.501377	0.424131
	H341	H	0.488662	0.498136	0.425655
	O342	O	1.540312	-0.500236	0.547022
	H343	H	1.541863	-0.499318	0.554497
	H344	H	1.536695	-0.503230	0.547594
	O345	O	0.607630	0.610569	0.635860
	H346	H	0.619118	0.612571	0.634869
	H347	H	0.612944	0.615279	0.632949
	O348	O	0.998887	1.120453	1.079134
	H349	H	1.012300	1.129785	1.060232
	H350	H	1.004608	1.137843	1.087996
	O351	O	0.511025	1.443050	-0.590325
	H352	H	0.499355	1.439737	-0.586070
	H353	H	0.513646	1.455813	-0.588351
	O354	O	0.065913	0.041445	-0.003929
	H355	H	0.062238	0.038404	-0.004328
	H356	H	0.076094	0.040548	-0.000570
	O357	O	0.016349	0.876603	0.972079
	H358	H	0.015522	0.896686	0.975906
	H359	H	0.024119	0.876800	0.977427
	O360	O	0.534719	0.654049	0.520285
	H361	H	0.549947	0.661077	0.530842
	H362	H	0.523571	0.654679	0.520646
	O363	O	0.567859	0.463046	0.470906
	H364	H	0.569124	0.449267	0.470045
	H365	H	0.564776	0.476944	0.463969
	O366	O	-0.134668	-0.000268	0.918292
	H367	H	-0.132699	-0.004414	0.909693
	H368	H	-0.140060	-0.002936	0.927155
	O369	O	0.515607	0.481454	0.356780
	H370	H	0.521360	0.465060	0.347657
	H371	H	0.501971	0.466899	0.358633
	O372	O	0.567336	0.400308	0.565522
	H373	H	0.570610	0.421737	0.570655
	H374	H	0.563193	0.391963	0.559620
	O375	O	1.082230	-0.039854	1.059956
	H376	H	1.080495	-0.029645	1.065449
	H377	H	1.083147	-0.049156	1.061928
	O378	O	-0.540018	0.487385	0.444727
	H379	H	-0.535880	0.491171	0.450779
	H380	H	-0.537875	0.479686	0.451050
	O381	O	0.525942	0.492244	0.570111
	H382	H	0.518109	0.488905	0.577631
	H383	H	0.525339	0.485367	0.558837
	O384	O	0.134506	1.026060	-0.105587
	H385	H	0.145370	1.024822	-0.110132
	H386	H	0.122169	1.034449	-0.105189
	O387	O	1.396343	-0.474975	1.581219
	H388	H	1.394934	-0.468489	1.587311
	H389	H	1.389354	-0.478965	1.587146
	O390	O	0.017781	1.011720	0.026672
	H391	H	0.018808	1.005462	0.031325
	H392	H	0.014768	0.997364	0.030028
	O393	O	0.944975	1.117827	-0.005096
	H394	H	0.953414	1.121563	-0.010338
	H395	H	0.947750	1.130541	-0.007583
	O396	O	0.684289	0.374382	0.369210
	H397	H	0.687592	0.361957	0.366958
	H398	H	0.679916	0.360594	0.362006
	O399	O	-0.137310	1.047858	0.956487
	H400	H	-0.142043	1.047989	0.961698
	H401	H	-0.144552	1.062507	0.945280
	O402	O	1.080097	0.919123	0.880238
	H403	H	1.085202	0.921736	0.874498
	H404	H	1.089698	0.914759	0.873471
	O405	O	0.464947	0.593846	0.521103
	H406	H	0.475071	0.597854	0.509751
	H407	H	0.467253	0.589184	0.527435
