data_Molecule from HDF5

_cell_length_a		16.494329
_cell_length_b		16.512180
_cell_length_c		16.441600
_cell_angle_alpha	89.947244
_cell_angle_beta	90.072083
_cell_angle_gamma	90.120199
_symmetry_space_group_name_H-M	'P 1'
_symmetry_Int_Tables_number		1

loop_
	_symmetry_equiv_pos_as_xyz
	x,y,z

loop_
	_atom_site_label
	_atom_site_type_symbol
	_atom_site_fract_x
	_atom_site_fract_y
	_atom_site_fract_z
	H0	H	0.399345	0.836030	0.711518
	H1	H	0.607355	0.151748	0.710565
	H2	H	0.608892	0.836064	0.269244
	H3	H	0.401082	0.150588	0.269424
	H4	H	0.723431	0.390093	0.831370
	H5	H	0.723573	0.595962	0.148324
	H6	H	0.286732	0.593839	0.830582
	H7	H	0.283024	0.387808	0.146833
	H8	H	0.844813	0.712166	0.387903
	H9	H	0.159992	0.717829	0.598392
	H10	H	0.845292	0.272828	0.594563
	H11	H	0.160706	0.273474	0.387344
	H12	H	0.845692	0.389171	0.710742
	H13	H	0.160957	0.599229	0.712241
	H14	H	0.844788	0.595119	0.270632
	H15	H	0.162585	0.392597	0.273032
	H16	H	0.400693	0.712939	0.831097
	H17	H	0.610418	0.714726	0.147415
	H18	H	0.608401	0.272618	0.831583
	H19	H	0.400638	0.272972	0.147947
	H20	H	0.722493	0.834902	0.388361
	H21	H	0.726416	0.150648	0.596876
	H22	H	0.281866	0.836040	0.595416
	H23	H	0.283415	0.150605	0.386432
	H24	H	0.899455	0.334774	0.210338
	H25	H	0.106397	0.651832	0.207906
	H26	H	0.107852	0.336451	0.768281
	H27	H	0.898836	0.650932	0.767940
	H28	H	0.221014	0.892040	0.331319
	H29	H	0.223554	0.096933	0.648473
	H30	H	0.783990	0.094757	0.331044
	H31	H	0.784380	0.889011	0.650262
	H32	H	0.345410	0.212276	0.887214
	H33	H	0.662804	0.215417	0.095811
	H34	H	0.348151	0.771092	0.094961
	H35	H	0.662481	0.774102	0.885072
	H36	H	0.346623	0.890868	0.209126
	H37	H	0.662929	0.097920	0.211635
	H38	H	0.345406	0.096885	0.769749
	H39	H	0.661741	0.891339	0.769573
	H40	H	0.898858	0.212603	0.331322
	H41	H	0.105981	0.212165	0.649402
	H42	H	0.104301	0.775452	0.331365
	H43	H	0.899797	0.772903	0.649632
	H44	H	0.223678	0.335853	0.885789
	H45	H	0.226436	0.649922	0.094776
	H46	H	0.781890	0.334713	0.095288
	H47	H	0.782616	0.650691	0.884846
	H48	H	0.413537	0.106593	0.579532
	H49	H	0.590643	0.882595	0.578361
	H50	H	0.594827	0.105078	0.404980
	H51	H	0.417407	0.879744	0.393531
	H52	H	0.588292	0.404617	0.101132
	H53	H	0.604069	0.587697	0.871363
	H54	H	0.416935	0.585080	0.103948
	H55	H	0.414681	0.402705	0.876347
	H56	H	0.116013	0.584425	0.402200
	H57	H	0.891772	0.581365	0.578456
	H58	H	0.118329	0.394705	0.578071
	H59	H	0.887970	0.400288	0.397698
	H60	H	0.112716	0.407949	0.573828
	H61	H	0.891581	0.582413	0.578201
	H62	H	0.116388	0.582995	0.398137
	H63	H	0.890367	0.401880	0.403723
	H64	H	0.413260	0.582001	0.103736
	H65	H	0.592976	0.572020	0.880664
	H66	H	0.593871	0.401248	0.104029
	H67	H	0.414222	0.401867	0.875274
	H68	H	0.593590	0.106811	0.399299
	H69	H	0.596302	0.879860	0.578893
	H70	H	0.415142	0.105833	0.579059
	H71	H	0.416119	0.882762	0.407192
	H72	H	0.917355	0.602663	0.073901
	H73	H	0.097571	0.379639	0.078571
	H74	H	0.090042	0.606805	0.895700
	H75	H	0.916520	0.379060	0.893609
	H76	H	0.087717	0.902275	0.602743
	H77	H	0.095970	0.080889	0.376433
	H78	H	0.909487	0.088619	0.606645
	H79	H	0.914024	0.903302	0.377105
	H80	H	0.616253	0.082987	0.901809
	H81	H	0.391244	0.089178	0.074844
	H82	H	0.616749	0.902812	0.074620
	H83	H	0.390161	0.905099	0.895415
	H84	H	0.616692	0.908888	0.079525
	H85	H	0.395126	0.076273	0.077108
	H86	H	0.616100	0.082953	0.899011
	H87	H	0.390028	0.897349	0.902782
	H88	H	0.910478	0.075077	0.601560
	H89	H	0.089359	0.081561	0.378718
	H90	H	0.096055	0.901614	0.606435
	H91	H	0.912026	0.902236	0.376589
	H92	H	0.090963	0.603646	0.906629
	H93	H	0.094567	0.378589	0.084718
	H94	H	0.906962	0.607289	0.078265
	H95	H	0.919165	0.383837	0.906016
	H96	H	0.413605	0.105546	0.577748
	H97	H	0.592446	0.879895	0.583592
	H98	H	0.589934	0.103746	0.402469
	H99	H	0.405538	0.877689	0.400305
	H100	H	0.594806	0.408329	0.102345
	H101	H	0.583749	0.591499	0.877019
	H102	H	0.417325	0.580746	0.102059
	H103	H	0.413190	0.403342	0.875091
	H104	H	0.117167	0.587014	0.399130
	H105	H	0.891942	0.581257	0.577466
	H106	H	0.117884	0.406277	0.587630
	H107	H	0.890807	0.406612	0.398784
	H108	H	0.916607	0.606414	0.085705
	H109	H	0.090713	0.381333	0.079109
	H110	H	0.099894	0.607864	0.901603
	H111	H	0.907073	0.379680	0.903112
	H112	H	0.093521	0.909316	0.602206
	H113	H	0.092208	0.087274	0.375888
	H114	H	0.922444	0.084295	0.601868
	H115	H	0.911906	0.904111	0.377821
	H116	H	0.617155	0.085019	0.900223
	H117	H	0.389985	0.083932	0.088035
	H118	H	0.619835	0.901927	0.081555
	H119	H	0.393970	0.906544	0.905690
	C120	C	0.381808	0.002097	0.611497
	C121	C	0.625501	0.984902	0.612475
	C122	C	0.624804	0.001024	0.370018
	C123	C	0.381836	0.984375	0.368324
	C124	C	0.624836	0.372260	-0.001722
	C125	C	0.626021	0.615084	0.980888
	C126	C	0.384257	0.613911	-0.001898
	C127	C	0.382741	0.371284	0.980671
	C128	C	0.011798	0.615661	0.367942
	C129	C	0.995736	0.614381	0.610852
	C130	C	0.011905	0.371654	0.611981
	C131	C	0.994394	0.372401	0.369172
	C132	C	0.881917	0.501043	0.111140
	C133	C	0.125835	0.484485	0.111659
	C134	C	0.124755	0.501780	0.869163
	C135	C	0.882369	0.485009	0.868587
	C136	C	0.124095	0.872589	0.498987
	C137	C	0.124315	0.114629	0.481786
	C138	C	0.881964	0.113987	0.498576
	C139	C	0.881646	0.871604	0.482528
	C140	C	0.512229	0.115041	0.868800
	C141	C	0.496548	0.115080	0.111822
	C142	C	0.513576	0.872333	0.110854
	C143	C	0.495674	0.872195	0.869039
	C144	C	0.380423	0.883351	0.671365
	C145	C	0.626522	0.104251	0.671241
	C146	C	0.626864	0.882837	0.310075
	C147	C	0.381546	0.103272	0.309194
	C148	C	0.684167	0.370499	0.878976
	C149	C	0.684642	0.615362	0.100594
	C150	C	0.325508	0.614028	0.878398
	C151	C	0.323023	0.369257	0.099752
	C152	C	0.892442	0.673302	0.367867
	C153	C	0.113188	0.676563	0.615416
	C154	C	0.892730	0.312649	0.613247
	C155	C	0.113692	0.313610	0.368481
	C156	C	0.892833	0.370625	0.670937
	C157	C	0.113627	0.617755	0.672274
	C158	C	0.892570	0.615632	0.309397
	C159	C	0.114477	0.372648	0.311643
	C160	C	0.382461	0.672970	0.878679
	C161	C	0.628522	0.674466	0.100031
	C162	C	0.626858	0.312238	0.879214
	C163	C	0.381547	0.312315	0.100261
	C164	C	0.683690	0.882308	0.368822
	C165	C	0.685548	0.103547	0.614518
	C166	C	0.321542	0.883480	0.614268
	C167	C	0.323026	0.103346	0.366907
	C168	C	0.880495	0.382108	0.170737
	C169	C	0.126307	0.603863	0.169637
	C170	C	0.126359	0.383417	0.808871
	C171	C	0.880260	0.603672	0.808319
	C172	C	0.182030	0.872274	0.379007
	C173	C	0.183670	0.115913	0.601117
	C174	C	0.823209	0.114018	0.378573
	C175	C	0.823771	0.870508	0.602446
	C176	C	0.392890	0.173429	0.867753
	C177	C	0.615361	0.175136	0.114077
	C178	C	0.394897	0.811914	0.113149
	C179	C	0.615099	0.813757	0.867039
	C180	C	0.394091	0.871331	0.169556
	C181	C	0.615423	0.116998	0.171996
	C182	C	0.392928	0.116062	0.809628
	C183	C	0.614676	0.871873	0.809443
	C184	C	0.880276	0.172711	0.378731
	C185	C	0.125317	0.173243	0.601410
	C186	C	0.124537	0.814177	0.379172
	C187	C	0.881129	0.812519	0.602117
	C188	C	0.183966	0.383002	0.867177
	C189	C	0.185825	0.602825	0.113247
	C190	C	0.822100	0.382185	0.113359
	C191	C	0.822584	0.603596	0.866451
	C192	C	0.406867	0.084532	0.586086
	C193	C	0.600308	0.902405	0.587606
	C194	C	0.599808	0.083777	0.395069
	C195	C	0.405947	0.901505	0.393157
	C196	C	0.599711	0.397469	0.080845
	C197	C	0.600851	0.590605	0.897777
	C198	C	0.408734	0.589598	0.081560
	C199	C	0.406978	0.395691	0.897322
	C200	C	0.095006	0.591623	0.392740
	C201	C	0.913349	0.588880	0.585276
	C202	C	0.094691	0.396027	0.586996
	C203	C	0.911306	0.396093	0.393196
	C204	C	0.906630	0.583796	0.086328
	C205	C	0.101278	0.401379	0.087697
	C206	C	0.100536	0.584605	0.894230
	C207	C	0.907077	0.402451	0.893532
	C208	C	0.099602	0.897056	0.582089
	C209	C	0.099709	0.090206	0.398607
	C210	C	0.906928	0.089668	0.581711
	C211	C	0.905866	0.896169	0.399055
	C212	C	0.594880	0.090719	0.893241
	C213	C	0.413873	0.090316	0.087164
	C214	C	0.596181	0.897307	0.085803
	C215	C	0.413019	0.896220	0.894068
	Zn216	Zn	0.503556	-0.006262	0.740459
	Zn217	Zn	0.505242	-0.007063	0.240265
	Zn218	Zn	0.753506	0.493140	-0.010304
	Zn219	Zn	0.254633	0.493048	-0.010504
	Zn220	Zn	0.002733	0.743807	0.490501
	Zn221	Zn	0.002836	0.242920	0.490130
	Zn222	Zn	0.003596	0.493958	0.739994
	Zn223	Zn	0.003476	0.493341	0.239756
	Zn224	Zn	0.505228	0.743159	-0.010138
	Zn225	Zn	0.504254	0.243655	-0.010047
	Zn226	Zn	0.753644	-0.007153	0.490785
	Zn227	Zn	0.253123	-0.006649	0.490134
	N228	N	0.416931	0.958265	0.670010
	N229	N	0.589894	0.029489	0.670083
	N230	N	0.591407	0.957952	0.310620
	N231	N	0.417342	0.028246	0.309874
	N232	N	0.682741	0.407206	0.953795
	N233	N	0.683343	0.579243	0.025352
	N234	N	0.326392	0.578106	0.953853
	N235	N	0.323605	0.405156	0.024370
	N236	N	0.967822	0.673542	0.403233
	N237	N	0.038827	0.674608	0.577731
	N238	N	0.967867	0.312879	0.577476
	N239	N	0.038008	0.313075	0.403338
	N240	N	0.968135	0.406154	0.670605
	N241	N	0.039695	0.579795	0.669277
	N242	N	0.968065	0.580573	0.309355
	N243	N	0.039324	0.408356	0.311862
	N244	N	0.418097	0.673051	0.954260
	N245	N	0.592807	0.674255	0.024574
	N246	N	0.590897	0.312986	0.954504
	N247	N	0.417748	0.313368	0.025151
	N248	N	0.682430	0.956987	0.405420
	N249	N	0.685270	0.028279	0.579023
	N250	N	0.322392	0.958336	0.577781
	N251	N	0.323019	0.028241	0.402899
	N252	N	0.917110	0.457026	0.169422
	N253	N	0.089932	0.529100	0.168969
	N254	N	0.090326	0.458310	0.809840
	N255	N	0.916582	0.528890	0.809427
	N256	N	0.182101	0.907315	0.454671
	N257	N	0.183369	0.080340	0.525627
	N258	N	0.823803	0.078689	0.454320
	N259	N	0.823799	0.906250	0.526915
	N260	N	0.467967	0.172891	0.903876
	N261	N	0.540443	0.174244	0.077508
	N262	N	0.470142	0.812508	0.077435
	N263	N	0.539883	0.813631	0.903127
	N264	N	0.468952	0.907994	0.168481
	N265	N	0.540472	0.080549	0.170854
	N266	N	0.468113	0.080519	0.810015
	N267	N	0.539514	0.907307	0.810341
	N268	N	0.916094	0.172743	0.454249
	N269	N	0.089177	0.172683	0.526160
	N270	N	0.089453	0.814013	0.454779
	N271	N	0.916368	0.813077	0.526392
	N272	N	0.183009	0.457636	0.903946
	N273	N	0.185759	0.527543	0.078011
	N274	N	0.822832	0.457180	0.077053
	N275	N	0.823587	0.528756	0.902996
	O276	O	0.473787	0.494847	0.314613
	H277	H	0.475312	0.499284	0.335547
	H278	H	0.455044	0.514869	0.308372
	O279	O	0.713841	0.669468	0.545679
	H280	H	0.718654	0.672096	0.562821
	H281	H	0.728662	0.686482	0.567194
	O282	O	1.190203	0.807824	0.176410
	H283	H	1.170763	0.832603	0.165919
	H284	H	1.175450	0.819470	0.148326
	O285	O	0.698770	0.689678	0.679898
	H286	H	0.675436	0.707338	0.697785
	H287	H	0.690441	0.676544	0.695312
	O288	O	-0.205222	-0.199813	0.010200
	H289	H	-0.213872	-0.211078	0.019514
	H290	H	-0.206946	-0.203385	0.038896
	O291	O	1.057843	1.036473	0.013958
	H292	H	1.062837	1.040726	-0.000250
	H293	H	1.058684	1.039504	0.011561
	O294	O	-0.195946	1.136392	0.025627
	H295	H	-0.206600	1.113240	0.046491
	H296	H	-0.217038	1.141872	0.028445
	O297	O	0.508454	0.586256	0.279000
	H298	H	0.484511	0.583089	0.275430
	H299	H	0.487505	0.595586	0.275049
	O300	O	0.312143	0.304456	0.678312
	H301	H	0.292620	0.301148	0.700074
	H302	H	0.313226	0.315557	0.677235
	O303	O	0.507517	0.279245	0.570036
	H304	H	0.515829	0.271376	0.596701
	H305	H	0.500064	0.283745	0.572326
	O306	O	0.197962	1.051995	0.924749
	H307	H	0.185542	1.061826	0.940496
	H308	H	0.192720	1.048895	0.931778
	O309	O	0.925913	0.954923	0.992650
	H310	H	0.920674	0.943541	0.995562
	H311	H	0.927274	0.962367	0.982911
	O312	O	0.542681	0.657593	0.635242
	H313	H	0.538673	0.647444	0.642862
	H314	H	0.551812	0.661590	0.629229
	O315	O	-0.075010	-0.075454	0.861430
	H316	H	-0.068261	-0.069663	0.869872
	H317	H	-0.058614	-0.074007	0.854537
	O318	O	-0.317145	0.455517	0.565175
	H319	H	-0.310027	0.463667	0.555355
	H320	H	-0.311299	0.451594	0.561328
	O321	O	0.499957	0.688754	0.642286
	H322	H	0.494751	0.688725	0.628286
	H323	H	0.483023	0.698235	0.640855
	O324	O	0.983113	0.185887	0.784646
	H325	H	0.991732	0.209392	0.777086
	H326	H	0.962426	0.196133	0.787192
	O327	O	1.307875	0.681228	0.553286
	H328	H	1.313603	0.669284	0.557018
	H329	H	1.307877	0.676055	0.557725
	O330	O	1.184153	0.064609	-0.214514
	H331	H	1.161735	0.083590	-0.199149
	H332	H	1.198176	0.053063	-0.226731
	O333	O	1.005338	0.937577	1.127480
	H334	H	0.982030	0.932408	1.121574
	H335	H	1.017285	0.937261	1.113427
	O336	O	0.785715	0.022634	0.776113
	H337	H	0.781729	0.046632	0.768102
	H338	H	0.769728	0.033914	0.759315
	O339	O	0.299235	0.290071	0.506302
	H340	H	0.304537	0.276869	0.529050
	H341	H	0.294744	0.284081	0.510398
	O342	O	0.778487	0.742685	0.227740
	H343	H	0.767078	0.746652	0.250857
	H344	H	0.815098	0.737135	0.226800
	O345	O	-0.301848	0.303352	0.298286
	H346	H	-0.294071	0.344103	0.295521
	H347	H	-0.298617	0.297686	0.277968
	O348	O	1.027401	0.208736	1.199494
	H349	H	1.054051	0.198690	1.203029
	H350	H	1.049661	0.226351	1.220760
	O351	O	0.808021	1.189432	-0.202121
	H352	H	0.815095	1.199729	-0.218293
	H353	H	0.802998	1.198086	-0.152925
	O354	O	0.429686	0.365006	0.632489
	H355	H	0.414353	0.349571	0.643856
	H356	H	0.428777	0.348841	0.626424
	O357	O	1.059765	0.799291	0.954216
	H358	H	1.058383	0.809581	0.946968
	H359	H	1.067372	0.797323	0.937549
	O360	O	0.333892	0.496843	0.652281
	H361	H	0.333641	0.483242	0.634172
	H362	H	0.352298	0.501267	0.653917
	O363	O	0.292476	0.705715	0.356836
	H364	H	0.291136	0.713183	0.375248
	H365	H	0.264322	0.731025	0.345660
	O366	O	1.000910	-0.015146	1.189504
	H367	H	1.001586	-0.002056	1.179439
	H368	H	0.990031	-0.013082	1.193405
	O369	O	0.306897	0.354244	0.345227
	H370	H	0.314557	0.371168	0.349893
	H371	H	0.316051	0.373967	0.365225
	O372	O	0.388597	0.541637	0.544696
	H373	H	0.413336	0.535872	0.553831
	H374	H	0.370801	0.549678	0.542957
	O375	O	0.085238	1.100745	0.928150
	H376	H	0.076357	1.090825	0.921250
	H377	H	0.075929	1.097924	0.950497
	O378	O	0.379539	0.401135	0.515099
	H379	H	0.393520	0.380254	0.504817
	H380	H	0.380858	0.405179	0.506278
	O381	O	0.798877	-0.004230	-0.022706
	H382	H	0.803315	-0.017047	-0.034392
	H383	H	0.800975	-0.019672	-0.016607
	O384	O	0.179939	-0.203524	0.800546
	H385	H	0.194907	-0.202979	0.794542
	H386	H	0.169986	-0.194754	0.786179
	O387	O	0.124086	1.059220	0.833017
	H388	H	0.141386	1.054324	0.822253
	H389	H	0.118503	1.051339	0.865570
	O390	O	-0.089070	0.141732	1.147629
	H391	H	-0.079067	0.125568	1.139137
	H392	H	-0.061479	0.147547	1.152974
	O393	O	1.046110	0.967675	-0.095560
	H394	H	1.045723	0.971418	-0.115543
	H395	H	1.035893	0.971239	-0.094920
	O396	O	0.534298	0.625630	0.428948
	H397	H	0.537990	0.621001	0.435176
	H398	H	0.532610	0.635016	0.423215
	O399	O	0.398069	0.702473	0.277085
	H400	H	0.370927	0.725133	0.263355
	H401	H	0.376530	0.694298	0.280239
	O402	O	-0.034556	-0.213000	1.192170
	H403	H	-0.021467	-0.207804	1.164417
	H404	H	-0.027397	-0.230053	1.216348
	O405	O	-0.082053	0.095969	0.006677
	H406	H	-0.094412	0.102506	0.007714
	H407	H	-0.075539	0.097047	0.018705
	O408	O	0.566169	0.419251	0.512353
	H409	H	0.557093	0.398571	0.509687
	H410	H	0.569164	0.433616	0.513478
	O411	O	0.405991	0.282118	0.389565
	H412	H	0.417711	0.281792	0.405665
	H413	H	0.423703	0.288369	0.372683
	O414	O	0.454331	0.678101	0.521556
	H415	H	0.464804	0.670849	0.510269
	H416	H	0.468678	0.683216	0.510657
	O417	O	0.289682	0.524297	0.273198
	H418	H	0.262495	0.527020	0.244053
	H419	H	0.303379	0.545391	0.276572
	O420	O	0.587121	0.420782	0.540464
	H421	H	0.581217	0.431400	0.549863
	H422	H	0.584305	0.418284	0.529718
	O423	O	0.193226	1.004574	0.183235
	H424	H	0.192149	0.997794	0.195898
	H425	H	0.200424	1.008049	0.183315
	O426	O	1.214854	1.207111	1.025505
	H427	H	1.228482	1.227238	1.018911
	H428	H	1.213859	1.204637	1.038433
	O429	O	0.055921	0.136905	0.861552
	H430	H	0.032683	0.148201	0.848938
	H431	H	0.038524	0.128766	0.876621
	O432	O	0.466035	0.535694	0.400067
	H433	H	0.491846	0.527281	0.398223
	H434	H	0.466912	0.531789	0.405188
	O435	O	0.204502	0.198545	0.196130
	H436	H	0.214369	0.182038	0.182362
	H437	H	0.235785	0.223229	0.218119
	O438	O	1.207714	-0.192440	-0.020572
	H439	H	1.205658	-0.184598	-0.033926
	H440	H	1.215947	-0.209085	-0.025275
	O441	O	0.698451	0.612888	0.347732
	H442	H	0.692677	0.613268	0.368519
	H443	H	0.682044	0.611883	0.348027
	O444	O	-0.047588	0.833311	0.950492
	H445	H	-0.053835	0.846471	0.941846
	H446	H	-0.057129	0.832416	0.944047
	O447	O	0.694166	0.476696	0.339289
	H448	H	0.705428	0.489584	0.326654
	H449	H	0.675299	0.492633	0.338679
	O450	O	0.703955	0.477952	0.689322
	H451	H	0.719627	0.484440	0.696131
	H452	H	0.690622	0.476832	0.685680
	O453	O	0.523587	0.484594	0.705850
	H454	H	0.535699	0.475120	0.690809
	H455	H	0.526992	0.463576	0.714502
	O456	O	0.534181	0.278305	0.276850
	H457	H	0.547472	0.274338	0.280679
	H458	H	0.548128	0.259826	0.260305
	O459	O	0.721117	0.276387	0.462989
	H460	H	0.714082	0.281800	0.432979
	H461	H	0.748513	0.250169	0.449069
	O462	O	-0.001124	0.813705	0.815005
	H463	H	0.000734	0.816220	0.796812
	H464	H	0.005631	0.808962	0.817979
	O465	O	0.808037	-0.073179	0.188061
	H466	H	0.807148	-0.078671	0.204300
	H467	H	0.808123	-0.085442	0.178932
