data_Molecule from HDF5

_cell_length_a		16.228984
_cell_length_b		16.384370
_cell_length_c		16.150139
_cell_angle_alpha	89.965522
_cell_angle_beta	89.945629
_cell_angle_gamma	89.921838
_symmetry_space_group_name_H-M	'P 1'
_symmetry_Int_Tables_number		1

loop_
	_symmetry_equiv_pos_as_xyz
	x,y,z

loop_
	_atom_site_label
	_atom_site_type_symbol
	_atom_site_fract_x
	_atom_site_fract_y
	_atom_site_fract_z
	H0	H	0.404731	0.831892	0.714303
	H1	H	0.600652	0.157688	0.715704
	H2	H	0.600730	0.831801	0.286000
	H3	H	0.404106	0.158070	0.286560
	H4	H	0.716707	0.396520	0.835630
	H5	H	0.713949	0.590993	0.165545
	H6	H	0.289163	0.592778	0.835717
	H7	H	0.290465	0.398845	0.165763
	H8	H	0.839205	0.711667	0.399967
	H9	H	0.165899	0.708745	0.601049
	H10	H	0.838359	0.278612	0.600810
	H11	H	0.165902	0.278914	0.399728
	H12	H	0.836945	0.397974	0.714888
	H13	H	0.166703	0.591220	0.713325
	H14	H	0.836285	0.589994	0.290281
	H15	H	0.166861	0.397796	0.287571
	H16	H	0.401760	0.709778	0.836715
	H17	H	0.601861	0.708806	0.164283
	H18	H	0.603407	0.279276	0.836853
	H19	H	0.401204	0.279867	0.164466
	H20	H	0.718724	0.832106	0.401388
	H21	H	0.718273	0.157248	0.600551
	H22	H	0.287694	0.832676	0.599684
	H23	H	0.287013	0.157502	0.401992
	H24	H	0.903904	0.331908	0.215270
	H25	H	0.100046	0.657562	0.215724
	H26	H	0.102177	0.331945	0.786569
	H27	H	0.904417	0.658293	0.786690
	H28	H	0.215571	0.897893	0.335903
	H29	H	0.213428	0.090759	0.665700
	H30	H	0.789440	0.092141	0.336096
	H31	H	0.789492	0.896745	0.666465
	H32	H	0.339030	0.211231	0.899103
	H33	H	0.665093	0.210710	0.101273
	H34	H	0.337928	0.781112	0.099079
	H35	H	0.665148	0.778416	0.899652
	H36	H	0.337313	0.898628	0.213609
	H37	H	0.667218	0.091114	0.212473
	H38	H	0.337161	0.091392	0.788737
	H39	H	0.667243	0.898138	0.788187
	H40	H	0.903045	0.208551	0.336595
	H41	H	0.103830	0.209977	0.663912
	H42	H	0.101403	0.780529	0.335912
	H43	H	0.901946	0.779202	0.665263
	H44	H	0.218184	0.332564	0.902273
	H45	H	0.217864	0.657203	0.100336
	H46	H	0.786534	0.332482	0.100953
	H47	H	0.786960	0.658140	0.901827
	H48	H	0.402988	0.111685	0.592725
	H49	H	0.587918	0.881405	0.595083
	H50	H	0.605269	0.114389	0.404816
	H51	H	0.406810	0.877143	0.403612
	H52	H	0.599156	0.397834	0.121002
	H53	H	0.601521	0.586891	0.879787
	H54	H	0.400736	0.576834	0.118136
	H55	H	0.395459	0.403710	0.878769
	H56	H	0.120428	0.591399	0.406989
	H57	H	0.886378	0.586280	0.588508
	H58	H	0.118174	0.393711	0.587237
	H59	H	0.887368	0.398832	0.421223
	H60	H	0.116153	0.408523	0.590823
	H61	H	0.885156	0.585501	0.595468
	H62	H	0.118250	0.588451	0.412178
	H63	H	0.887015	0.411217	0.403712
	H64	H	0.424611	0.586810	0.114039
	H65	H	0.590388	0.581591	0.885095
	H66	H	0.594762	0.409231	0.116654
	H67	H	0.418557	0.413666	0.888286
	H68	H	0.588341	0.109844	0.401826
	H69	H	0.601397	0.879879	0.586137
	H70	H	0.409233	0.113034	0.599822
	H71	H	0.413195	0.879803	0.407366
	H72	H	0.914969	0.605291	0.083740
	H73	H	0.098936	0.375082	0.104642
	H74	H	0.099695	0.611303	0.910833
	H75	H	0.905555	0.377906	0.907833
	H76	H	0.099375	0.898434	0.620647
	H77	H	0.100677	0.080458	0.382662
	H78	H	0.909828	0.087737	0.619056
	H79	H	0.907205	0.900323	0.381640
	H80	H	0.618974	0.084989	0.906888
	H81	H	0.384818	0.087073	0.092788
	H82	H	0.622158	0.894531	0.097265
	H83	H	0.381571	0.893782	0.905659
	H84	H	0.617553	0.899357	0.084570
	H85	H	0.384872	0.089313	0.092659
	H86	H	0.620032	0.091881	0.907294
	H87	H	0.387799	0.901912	0.916276
	H88	H	0.910773	0.085257	0.618569
	H89	H	0.086195	0.086951	0.385239
	H90	H	0.094943	0.905369	0.616868
	H91	H	0.911497	0.906336	0.384444
	H92	H	0.096619	0.612568	0.902868
	H93	H	0.086052	0.382511	0.092286
	H94	H	0.894053	0.614794	0.093191
	H95	H	0.911572	0.380023	0.906185
	H96	H	0.411496	0.109652	0.591570
	H97	H	0.601061	0.875756	0.602092
	H98	H	0.595185	0.107087	0.417867
	H99	H	0.406734	0.879498	0.410866
	H100	H	0.586819	0.398902	0.116264
	H101	H	0.590111	0.594303	0.881201
	H102	H	0.404548	0.602066	0.123634
	H103	H	0.417252	0.387811	0.880291
	H104	H	0.118613	0.585712	0.406116
	H105	H	0.884237	0.592006	0.592366
	H106	H	0.121568	0.399152	0.601024
	H107	H	0.880437	0.390458	0.402777
	H108	H	0.913591	0.612868	0.107185
	H109	H	0.103608	0.379086	0.086848
	H110	H	0.092126	0.608812	0.908502
	H111	H	0.910038	0.381260	0.912071
	H112	H	0.090888	0.896767	0.618305
	H113	H	0.098063	0.095604	0.378862
	H114	H	0.911951	0.088398	0.618100
	H115	H	0.915151	0.899263	0.384658
	H116	H	0.617928	0.088095	0.912115
	H117	H	0.385437	0.088054	0.091266
	H118	H	0.618285	0.907917	0.096013
	H119	H	0.385635	0.907585	0.903008
	C120	C	0.380156	0.003489	0.622651
	C121	C	0.624810	0.986609	0.623179
	C122	C	0.624967	0.003045	0.379128
	C123	C	0.380238	0.986460	0.379131
	C124	C	0.623111	0.373233	0.009181
	C125	C	0.622903	0.615940	0.991103
	C126	C	0.380903	0.616608	0.009594
	C127	C	0.381109	0.373437	0.991574
	C128	C	0.010469	0.616530	0.379851
	C129	C	0.993740	0.615752	0.621295
	C130	C	0.010129	0.372255	0.622366
	C131	C	0.993737	0.372340	0.379866
	C132	C	0.879476	0.503414	0.123170
	C133	C	0.124193	0.486706	0.123122
	C134	C	0.124861	0.503304	0.878953
	C135	C	0.880382	0.487137	0.879673
	C136	C	0.123912	0.872417	0.509493
	C137	C	0.123306	0.115427	0.491478
	C138	C	0.881852	0.115241	0.509754
	C139	C	0.881840	0.873087	0.492558
	C140	C	0.510486	0.116752	0.879335
	C141	C	0.493653	0.116297	0.121472
	C142	C	0.510858	0.872811	0.122030
	C143	C	0.493365	0.872675	0.878936
	C144	C	0.383770	0.880734	0.676853
	C145	C	0.621518	0.108955	0.678134
	C146	C	0.621529	0.880448	0.324027
	C147	C	0.383008	0.109398	0.324151
	C148	C	0.678763	0.376073	0.884975
	C149	C	0.677138	0.612479	0.115975
	C150	C	0.326364	0.613353	0.885091
	C151	C	0.326754	0.376819	0.116051
	C152	C	0.887499	0.672691	0.380694
	C153	C	0.117159	0.670824	0.620472
	C154	C	0.886968	0.317034	0.620927
	C155	C	0.117054	0.317277	0.380659
	C156	C	0.886307	0.376344	0.677472
	C157	C	0.117651	0.612127	0.676130
	C158	C	0.886132	0.612286	0.326304
	C159	C	0.117603	0.376497	0.324982
	C160	C	0.382163	0.671578	0.885629
	C161	C	0.621801	0.671321	0.115111
	C162	C	0.621968	0.318206	0.885320
	C163	C	0.381857	0.317696	0.115176
	C164	C	0.680186	0.880499	0.381187
	C165	C	0.680094	0.108703	0.621054
	C166	C	0.325532	0.881103	0.619963
	C167	C	0.324760	0.109020	0.381386
	C168	C	0.882548	0.380803	0.178172
	C169	C	0.120833	0.608794	0.178034
	C170	C	0.122259	0.380740	0.824315
	C171	C	0.883491	0.609646	0.824380
	C172	C	0.178237	0.876423	0.385081
	C173	C	0.177125	0.112189	0.616078
	C174	C	0.826875	0.112726	0.385538
	C175	C	0.826770	0.875902	0.616937
	C176	C	0.387466	0.172218	0.880328
	C177	C	0.616616	0.171980	0.120394
	C178	C	0.386976	0.818598	0.119856
	C179	C	0.616760	0.817432	0.880571
	C180	C	0.386737	0.876996	0.176759
	C181	C	0.617458	0.113003	0.176311
	C182	C	0.386505	0.112798	0.825356
	C183	C	0.617649	0.876707	0.824920
	C184	C	0.883071	0.170637	0.385765
	C185	C	0.122217	0.171048	0.615231
	C186	C	0.121826	0.817930	0.385353
	C187	C	0.882844	0.817742	0.616394
	C188	C	0.180416	0.381134	0.881434
	C189	C	0.179185	0.608972	0.120417
	C190	C	0.824077	0.381117	0.121208
	C191	C	0.825051	0.609586	0.881630
	C192	C	0.401647	0.089354	0.600878
	C193	C	0.603191	0.900935	0.600918
	C194	C	0.602787	0.088506	0.401635
	C195	C	0.402253	0.901130	0.401042
	C196	C	0.600261	0.395499	0.095601
	C197	C	0.600540	0.594170	0.904584
	C198	C	0.403291	0.594936	0.096185
	C199	C	0.403704	0.395227	0.904777
	C200	C	0.096835	0.594719	0.401925
	C201	C	0.907606	0.594182	0.598721
	C202	C	0.096406	0.393975	0.599681
	C203	C	0.907147	0.393749	0.402662
	C204	C	0.901180	0.588881	0.101166
	C205	C	0.102745	0.400914	0.100950
	C206	C	0.102646	0.588960	0.900864
	C207	C	0.902667	0.401793	0.902127
	C208	C	0.101797	0.893901	0.596168
	C209	C	0.101435	0.093999	0.404683
	C210	C	0.904258	0.093469	0.596223
	C211	C	0.904512	0.895292	0.405995
	C212	C	0.596641	0.094808	0.902076
	C213	C	0.407409	0.094632	0.098741
	C214	C	0.597010	0.894212	0.099295
	C215	C	0.407194	0.894510	0.901589
	Zn216	Zn	0.501811	-0.004795	0.751323
	Zn217	Zn	0.502149	-0.004934	0.250035
	Zn218	Zn	0.750621	0.495012	0.000619
	Zn219	Zn	0.254221	0.495104	0.000958
	Zn220	Zn	0.001971	0.744521	0.501123
	Zn221	Zn	0.002509	0.242938	0.500343
	Zn222	Zn	0.002301	0.495044	0.750411
	Zn223	Zn	0.001710	0.494349	0.252121
	Zn224	Zn	0.501900	0.743740	-0.000000
	Zn225	Zn	0.501980	0.245265	0.000391
	Zn226	Zn	0.754170	-0.005789	0.501203
	Zn227	Zn	0.251183	-0.004860	0.500748
	N228	N	0.417019	0.958051	0.678663
	N229	N	0.587960	0.031955	0.679574
	N230	N	0.587870	0.957628	0.322579
	N231	N	0.416874	0.032429	0.322504
	N232	N	0.679493	0.409685	0.963019
	N233	N	0.678066	0.578736	0.037946
	N234	N	0.325459	0.579890	0.963287
	N235	N	0.326008	0.410625	0.038089
	N236	N	0.965652	0.675240	0.413433
	N237	N	0.039238	0.673219	0.587030
	N238	N	0.964859	0.314600	0.587152
	N239	N	0.038992	0.314810	0.414053
	N240	N	0.964038	0.409837	0.678564
	N241	N	0.040043	0.578444	0.676881
	N242	N	0.963674	0.578155	0.325478
	N243	N	0.039881	0.410014	0.324299
	N244	N	0.415498	0.673637	0.963810
	N245	N	0.588652	0.673429	0.036729
	N246	N	0.588209	0.316326	0.963496
	N247	N	0.414946	0.315632	0.036697
	N248	N	0.682411	0.957715	0.414608
	N249	N	0.682330	0.031416	0.587689
	N250	N	0.323242	0.958418	0.586852
	N251	N	0.322938	0.031721	0.414847
	N252	N	0.916433	0.457701	0.179452
	N253	N	0.087350	0.531849	0.179705
	N254	N	0.088599	0.457784	0.822500
	N255	N	0.917218	0.532567	0.823116
	N256	N	0.179521	0.909751	0.463141
	N257	N	0.177984	0.078335	0.538155
	N258	N	0.825733	0.079055	0.463547
	N259	N	0.826033	0.909711	0.538957
	N260	N	0.465574	0.174812	0.913262
	N261	N	0.538513	0.174248	0.087063
	N262	N	0.465060	0.815942	0.086334
	N263	N	0.538632	0.815023	0.913504
	N264	N	0.464690	0.909951	0.178280
	N265	N	0.540005	0.078970	0.176924
	N266	N	0.464155	0.078874	0.824786
	N267	N	0.540006	0.910385	0.823598
	N268	N	0.916563	0.172329	0.463961
	N269	N	0.089551	0.173230	0.536695
	N270	N	0.088768	0.815263	0.463840
	N271	N	0.916294	0.816000	0.538062
	N272	N	0.182178	0.458439	0.914802
	N273	N	0.181422	0.531761	0.086958
	N274	N	0.822059	0.458242	0.087595
	N275	N	0.822980	0.532358	0.915247
	O276	O	1.037706	1.036919	-0.035809
	H277	H	1.037437	1.031439	-0.042355
	H278	H	1.032254	1.039361	-0.026970
	O279	O	-0.062284	-0.000281	-0.009356
	H280	H	-0.065693	0.008932	-0.002329
	H281	H	-0.061327	0.004082	-0.000465
	O282	O	-0.010109	0.026161	1.017824
	H283	H	-0.007494	0.031233	1.014236
	H284	H	-0.006704	0.027293	1.023315
	O285	O	0.530972	0.513088	0.468507
	H286	H	0.533524	0.523080	0.460612
	H287	H	0.533895	0.503586	0.459929
	O288	O	0.475763	0.513966	0.488359
	H289	H	0.487866	0.512446	0.490578
	H290	H	0.488960	0.515090	0.488632
	O291	O	0.535318	0.533403	0.566164
	H292	H	0.539176	0.541786	0.569969
	H293	H	0.532766	0.529296	0.563158
	O294	O	0.030384	0.055284	-0.009345
	H295	H	0.037627	0.048875	-0.015084
	H296	H	0.027152	0.052608	-0.015576
	O297	O	0.474714	0.536122	0.483719
	H298	H	0.469242	0.539285	0.488381
	H299	H	0.473728	0.534998	0.487567
	O300	O	-0.052568	1.047589	0.958369
	H301	H	-0.059018	1.044667	0.960289
	H302	H	-0.046091	1.044393	0.968122
	O303	O	0.452937	0.542501	0.508575
	H304	H	0.450268	0.549025	0.499349
	H305	H	0.445668	0.548557	0.513898
	O306	O	-0.056458	0.057828	0.944795
	H307	H	-0.055742	0.045115	0.940303
	H308	H	-0.063688	0.062583	0.942594
	O309	O	0.985613	1.038101	1.061256
	H310	H	0.992577	1.047475	1.056083
	H311	H	0.980839	1.038419	1.061240
	O312	O	0.526022	0.518283	0.440113
	H313	H	0.519954	0.516782	0.439071
	H314	H	0.522003	0.520272	0.449349
	O315	O	0.518397	0.514798	0.437825
	H316	H	0.509948	0.515759	0.432902
	H317	H	0.514267	0.514443	0.431041
	O318	O	-0.038704	1.007236	-0.003908
	H319	H	-0.037406	1.015144	-0.006068
	H320	H	-0.037566	1.004693	-0.000402
	O321	O	0.974853	1.010430	0.016630
	H322	H	0.969324	1.014937	0.009543
	H323	H	0.965462	1.010925	0.007278
