data_Molecule from HDF5

_cell_length_a		16.682016
_cell_length_b		16.542091
_cell_length_c		16.694436
_cell_angle_alpha	89.945795
_cell_angle_beta	90.049442
_cell_angle_gamma	89.926660
_symmetry_space_group_name_H-M	'P 1'
_symmetry_Int_Tables_number		1

loop_
	_symmetry_equiv_pos_as_xyz
	x,y,z

loop_
	_atom_site_label
	_atom_site_type_symbol
	_atom_site_fract_x
	_atom_site_fract_y
	_atom_site_fract_z
	H0	H	0.366614	0.843578	0.726966
	H1	H	0.575813	0.155541	0.727234
	H2	H	0.578021	0.843960	0.285843
	H3	H	0.361009	0.152527	0.281695
	H4	H	0.694813	0.391604	0.852624
	H5	H	0.698410	0.609056	0.158186
	H6	H	0.246760	0.609676	0.853972
	H7	H	0.244583	0.387332	0.157416
	H8	H	0.820463	0.726052	0.395323
	H9	H	0.126549	0.722457	0.613513
	H10	H	0.816479	0.280007	0.610037
	H11	H	0.124320	0.274784	0.399108
	H12	H	0.817528	0.393366	0.728255
	H13	H	0.126376	0.607949	0.730614
	H14	H	0.820927	0.611216	0.278233
	H15	H	0.123324	0.388134	0.279547
	H16	H	0.363509	0.724952	0.854408
	H17	H	0.582972	0.725462	0.158716
	H18	H	0.577229	0.276370	0.852985
	H19	H	0.363406	0.273755	0.159784
	H20	H	0.692823	0.843815	0.402243
	H21	H	0.691019	0.155503	0.611372
	H22	H	0.248493	0.845027	0.614076
	H23	H	0.246037	0.152928	0.396815
	H24	H	0.866575	0.344581	0.227571
	H25	H	0.082826	0.651396	0.231366
	H26	H	0.078400	0.343868	0.784493
	H27	H	0.866990	0.655542	0.785932
	H28	H	0.202573	0.884542	0.357091
	H29	H	0.194893	0.107536	0.659409
	H30	H	0.743086	0.111229	0.355598
	H31	H	0.751476	0.892726	0.661978
	H32	H	0.319175	0.223512	0.900044
	H33	H	0.624362	0.223956	0.115741
	H34	H	0.320139	0.772099	0.117542
	H35	H	0.624663	0.775838	0.900087
	H36	H	0.321271	0.885955	0.236031
	H37	H	0.622463	0.111267	0.235405
	H38	H	0.318638	0.108861	0.782567
	H39	H	0.625328	0.891978	0.784411
	H40	H	0.859919	0.225603	0.354216
	H41	H	0.076423	0.221648	0.660201
	H42	H	0.087744	0.768313	0.357357
	H43	H	0.866777	0.775662	0.660236
	H44	H	0.195771	0.345141	0.898115
	H45	H	0.196207	0.653005	0.114162
	H46	H	0.752902	0.343018	0.109136
	H47	H	0.749225	0.653983	0.899812
	H48	H	0.386326	0.110096	0.591688
	H49	H	0.558046	0.885942	0.600222
	H50	H	0.558469	0.110347	0.422839
	H51	H	0.391338	0.888034	0.414661
	H52	H	0.556095	0.416249	0.114071
	H53	H	0.557736	0.586414	0.896829
	H54	H	0.383087	0.585019	0.117368
	H55	H	0.382180	0.415591	0.897642
	H56	H	0.080546	0.577742	0.414849
	H57	H	0.865249	0.578518	0.596277
	H58	H	0.080668	0.412350	0.590155
	H59	H	0.859574	0.416506	0.411607
	H60	H	0.083250	0.415779	0.599646
	H61	H	0.857559	0.592116	0.602902
	H62	H	0.084188	0.588610	0.417924
	H63	H	0.859037	0.406546	0.418882
	H64	H	0.385258	0.581418	0.115213
	H65	H	0.560578	0.588676	0.895475
	H66	H	0.559494	0.404167	0.119421
	H67	H	0.388687	0.413577	0.899088
	H68	H	0.557331	0.110429	0.419697
	H69	H	0.561594	0.887472	0.593545
	H70	H	0.377008	0.113369	0.593590
	H71	H	0.392715	0.894897	0.429769
	H72	H	0.883288	0.611395	0.090422
	H73	H	0.059759	0.388083	0.089620
	H74	H	0.056934	0.612719	0.911929
	H75	H	0.882242	0.387540	0.920368
	H76	H	0.054866	0.907159	0.616838
	H77	H	0.055387	0.092910	0.394728
	H78	H	0.874968	0.088134	0.619256
	H79	H	0.882992	0.910748	0.395595
	H80	H	0.581624	0.087853	0.922153
	H81	H	0.361822	0.085715	0.091230
	H82	H	0.580922	0.914600	0.096259
	H83	H	0.360992	0.909993	0.922708
	H84	H	0.581332	0.911797	0.093053
	H85	H	0.363978	0.081470	0.093707
	H86	H	0.581116	0.082519	0.915802
	H87	H	0.361246	0.916591	0.916289
	H88	H	0.884534	0.083295	0.614940
	H89	H	0.064543	0.082523	0.394196
	H90	H	0.064489	0.915130	0.617216
	H91	H	0.880808	0.915096	0.396834
	H92	H	0.056935	0.608106	0.922790
	H93	H	0.057255	0.387395	0.093491
	H94	H	0.883637	0.611570	0.094165
	H95	H	0.880370	0.384340	0.913464
	H96	H	0.383839	0.113366	0.600984
	H97	H	0.565645	0.883824	0.598895
	H98	H	0.555276	0.109667	0.422090
	H99	H	0.378776	0.887194	0.425377
	H100	H	0.568687	0.414208	0.119537
	H101	H	0.561633	0.584474	0.896902
	H102	H	0.387893	0.585087	0.115726
	H103	H	0.383961	0.409402	0.896035
	H104	H	0.078438	0.581437	0.425483
	H105	H	0.862427	0.592351	0.586956
	H106	H	0.085510	0.405905	0.597131
	H107	H	0.864234	0.417157	0.422822
	H108	H	0.887040	0.610734	0.092035
	H109	H	0.055676	0.390376	0.090434
	H110	H	0.066566	0.613131	0.918489
	H111	H	0.887366	0.387810	0.914603
	H112	H	0.053725	0.918774	0.612335
	H113	H	0.052591	0.080644	0.400175
	H114	H	0.885102	0.094410	0.619125
	H115	H	0.886265	0.914588	0.397081
	H116	H	0.585157	0.090070	0.914797
	H117	H	0.361537	0.084862	0.095998
	H118	H	0.580242	0.915592	0.092315
	H119	H	0.358253	0.908792	0.914196
	C120	C	0.349785	0.009120	0.628175
	C121	C	0.592572	0.989944	0.628676
	C122	C	0.591565	0.007979	0.387411
	C123	C	0.351278	0.990872	0.386835
	C124	C	0.593799	0.377698	0.015478
	C125	C	0.593839	0.620542	0.997635
	C126	C	0.351256	0.619347	0.015020
	C127	C	0.350191	0.377551	0.997951
	C128	C	-0.018928	0.619794	0.383869
	C129	C	0.963778	0.620668	0.628184
	C130	C	-0.019387	0.378734	0.627480
	C131	C	0.962120	0.378089	0.383890
	C132	C	0.852035	0.508070	0.125267
	C133	C	0.092186	0.490374	0.125460
	C134	C	0.093305	0.508751	0.884631
	C135	C	0.850683	0.490037	0.884426
	C136	C	0.093737	0.877862	0.515397
	C137	C	0.091430	0.119697	0.497575
	C138	C	0.848199	0.122015	0.515988
	C139	C	0.850725	0.878916	0.498162
	C140	C	0.480640	0.120498	0.885331
	C141	C	0.463063	0.119637	0.128400
	C142	C	0.480575	0.877759	0.129061
	C143	C	0.462242	0.878053	0.885112
	C144	C	0.347781	0.891179	0.687726
	C145	C	0.594139	0.108228	0.687593
	C146	C	0.595275	0.890856	0.326509
	C147	C	0.344693	0.106106	0.322941
	C148	C	0.654124	0.373848	0.899154
	C149	C	0.657276	0.625967	0.112428
	C150	C	0.288240	0.625961	0.900060
	C151	C	0.286550	0.371119	0.112108
	C152	C	0.866554	0.684400	0.378077
	C153	C	0.080118	0.681736	0.630983
	C154	C	0.863504	0.319123	0.629093
	C155	C	0.077971	0.315759	0.380684
	C156	C	0.864184	0.375661	0.687855
	C157	C	0.079817	0.625044	0.689645
	C158	C	0.866667	0.627411	0.319829
	C159	C	0.077574	0.371850	0.321278
	C160	C	0.346163	0.683530	0.900331
	C161	C	0.599583	0.683855	0.112646
	C162	C	0.595668	0.316721	0.899335
	C163	C	0.345699	0.314619	0.113119
	C164	C	0.652568	0.890651	0.384149
	C165	C	0.651445	0.108380	0.630034
	C166	C	0.289195	0.891713	0.631368
	C167	C	0.287288	0.106400	0.380231
	C168	C	0.849002	0.390823	0.186326
	C169	C	0.098397	0.605882	0.188975
	C170	C	0.096212	0.390999	0.824586
	C171	C	0.848506	0.608072	0.825173
	C172	C	0.159874	0.869320	0.402310
	C173	C	0.153540	0.124498	0.613316
	C174	C	0.784969	0.127506	0.401238
	C175	C	0.790914	0.874843	0.614657
	C176	C	0.364825	0.182569	0.882069
	C177	C	0.578177	0.182945	0.133471
	C178	C	0.366025	0.813639	0.134664
	C179	C	0.578275	0.816473	0.882253
	C180	C	0.366473	0.870291	0.193467
	C181	C	0.577284	0.126806	0.192794
	C182	C	0.364899	0.125929	0.823459
	C183	C	0.578375	0.874133	0.824428
	C184	C	0.843208	0.184574	0.400522
	C185	C	0.094654	0.181376	0.613729
	C186	C	0.102373	0.811587	0.402201
	C187	C	0.848470	0.816606	0.613972
	C188	C	0.154613	0.391521	0.881078
	C189	C	0.154968	0.606425	0.130799
	C190	C	0.792626	0.390111	0.127767
	C191	C	0.790024	0.607414	0.881714
	C192	C	0.375127	0.090970	0.602793
	C193	C	0.568628	0.907298	0.604616
	C194	C	0.564713	0.088986	0.413980
	C195	C	0.379470	0.910806	0.415182
	C196	C	0.568742	0.404143	0.096494
	C197	C	0.567300	0.593973	0.917359
	C198	C	0.378015	0.591713	0.095081
	C199	C	0.377238	0.405289	0.918223
	C200	C	0.060410	0.590807	0.411544
	C201	C	0.882668	0.594837	0.602601
	C202	C	0.062068	0.404029	0.602481
	C203	C	0.881969	0.405671	0.410240
	C204	C	0.877427	0.589877	0.099636
	C205	C	0.065276	0.409583	0.098736
	C206	C	0.067548	0.590258	0.910338
	C207	C	0.875958	0.407935	0.909099
	C208	C	0.065496	0.905957	0.594674
	C209	C	0.065099	0.092811	0.417274
	C210	C	0.874328	0.095929	0.596817
	C211	C	0.876278	0.905585	0.417376
	C212	C	0.561434	0.094267	0.910418
	C213	C	0.383010	0.091844	0.101157
	C214	C	0.560153	0.905895	0.101597
	C215	C	0.381141	0.904261	0.910473
	Zn216	Zn	0.471060	-0.000366	0.756370
	Zn217	Zn	0.471350	-0.000701	0.257862
	Zn218	Zn	0.722554	0.499207	0.005891
	Zn219	Zn	0.220979	0.499340	0.005932
	Zn220	Zn	-0.027578	0.748763	0.505656
	Zn221	Zn	-0.029216	0.249540	0.505900
	Zn222	Zn	-0.027554	0.499574	0.756659
	Zn223	Zn	-0.027968	0.499023	0.254776
	Zn224	Zn	0.471795	0.749428	0.007416
	Zn225	Zn	0.471826	0.248725	0.007099
	Zn226	Zn	0.720719	-0.000430	0.507669
	Zn227	Zn	0.222170	-0.000525	0.506440
	N228	N	0.384538	0.965416	0.686138
	N229	N	0.558352	0.033585	0.687198
	N230	N	0.558210	0.965049	0.328003
	N231	N	0.384026	0.033286	0.327138
	N232	N	0.653178	0.411060	0.972614
	N233	N	0.653756	0.587238	0.039893
	N234	N	0.291239	0.586669	0.972480
	N235	N	0.289027	0.409479	0.039409
	N236	N	0.938735	0.679941	0.417369
	N237	N	0.006931	0.679210	0.593252
	N238	N	0.937013	0.320776	0.592264
	N239	N	0.005218	0.319224	0.418844
	N240	N	0.938272	0.411702	0.687458
	N241	N	0.006298	0.587864	0.688108
	N242	N	0.939008	0.587927	0.323224
	N243	N	0.004412	0.409911	0.323038
	N244	N	0.384622	0.679801	0.972868
	N245	N	0.560468	0.680681	0.040339
	N246	N	0.558899	0.318892	0.972766
	N247	N	0.384647	0.318252	0.040921
	N248	N	0.650744	0.964683	0.421109
	N249	N	0.650861	0.033644	0.594248
	N250	N	0.290017	0.966269	0.595091
	N251	N	0.291289	0.033506	0.419441
	N252	N	0.885227	0.465242	0.185017
	N253	N	0.060003	0.532599	0.185978
	N254	N	0.058854	0.464935	0.826501
	N255	N	0.885715	0.533941	0.826727
	N256	N	0.154508	0.910105	0.473656
	N257	N	0.151834	0.086971	0.540038
	N258	N	0.788111	0.088992	0.473936
	N259	N	0.792167	0.912853	0.541532
	N260	N	0.437683	0.179283	0.920097
	N261	N	0.506160	0.178553	0.094025
	N262	N	0.437898	0.818268	0.095173
	N263	N	0.504818	0.818600	0.919369
	N264	N	0.438831	0.909622	0.190088
	N265	N	0.504670	0.087889	0.189602
	N266	N	0.437945	0.088056	0.825146
	N267	N	0.505018	0.911606	0.825884
	N268	N	0.882354	0.180994	0.472836
	N269	N	0.056727	0.178632	0.540722
	N270	N	0.061546	0.816685	0.473368
	N271	N	0.884907	0.818640	0.540343
	N272	N	0.152970	0.465699	0.917837
	N273	N	0.151216	0.533518	0.092044
	N274	N	0.794196	0.464142	0.090602
	N275	N	0.791106	0.532940	0.917775
	O276	O	0.451341	1.405889	0.273798
	H277	H	0.437684	1.433992	0.270911
	H278	H	0.454984	1.391022	0.261538
	O279	O	0.073562	-0.203133	0.213720
	H280	H	0.069742	-0.197991	0.189477
	H281	H	0.061717	-0.202513	0.223778
	O282	O	1.029113	0.222602	0.949637
	H283	H	1.029622	0.221145	0.945383
	H284	H	1.031508	0.225311	0.938964
	O285	O	0.324179	0.704729	0.287084
	H286	H	0.339461	0.687613	0.298797
	H287	H	0.308224	0.734484	0.263329
	O288	O	0.989892	0.820905	-0.210994
	H289	H	1.012642	0.805759	-0.219728
	H290	H	1.008855	0.817547	-0.222060
	O291	O	0.253122	0.517774	0.278285
	H292	H	0.248377	0.525158	0.276181
	H293	H	0.236972	0.525003	0.271674
	O294	O	1.686516	0.295472	0.290353
	H295	H	1.672666	0.324628	0.288168
	H296	H	1.696172	0.275683	0.267560
	O297	O	0.906265	0.063663	0.244584
	H298	H	0.914801	0.071886	0.244934
	H299	H	0.903098	0.063048	0.234702
	O300	O	0.182621	0.207722	1.215173
	H301	H	0.184340	0.197592	1.211891
	H302	H	0.144478	0.198453	1.212787
	O303	O	0.384897	0.588937	0.413890
	H304	H	0.375961	0.582886	0.403971
	H305	H	0.397672	0.565506	0.418505
	O306	O	0.690903	0.528371	0.725215
	H307	H	0.683839	0.516518	0.740429
	H308	H	0.705499	0.535693	0.732159
	O309	O	0.266148	0.472701	0.482575
	H310	H	0.277929	0.452697	0.486515
	H311	H	0.261041	0.468124	0.479644
	O312	O	0.381974	0.569816	0.506419
	H313	H	0.400570	0.561438	0.490936
	H314	H	0.388146	0.557540	0.515140
	O315	O	0.751399	1.038118	0.789969
	H316	H	0.742911	1.040187	0.798969
	H317	H	0.740844	1.024692	0.769097
	O318	O	0.603779	0.695001	0.645321
	H319	H	0.596337	0.713323	0.659462
	H320	H	0.577831	0.680481	0.659816
	O321	O	0.478652	0.525546	0.574208
	H322	H	0.493953	0.531750	0.555029
	H323	H	0.475978	0.511565	0.578569
	O324	O	1.168625	0.808720	-0.192473
	H325	H	1.185292	0.794909	-0.182829
	H326	H	1.174591	0.841396	-0.187015
	O327	O	0.283259	0.310860	1.322501
	H328	H	0.298351	0.330967	1.324086
	H329	H	0.267627	0.295111	1.309466
	O330	O	0.482874	0.410928	0.503914
	H331	H	0.481319	0.414711	0.496380
	H332	H	0.502409	0.408095	0.498574
	O333	O	0.747919	0.219808	-0.020413
	H334	H	0.759556	0.218977	-0.053235
	H335	H	0.721814	0.244788	-0.033082
	O336	O	0.450219	0.288977	0.719949
	H337	H	0.448301	0.279640	0.724403
	H338	H	0.459395	0.275480	0.697570
	O339	O	1.380291	-0.407204	0.723921
	H340	H	1.374834	-0.413385	0.725855
	H341	H	1.392547	-0.420045	0.710296
	O342	O	0.194608	-0.026441	-0.213447
	H343	H	0.180995	-0.023012	-0.207455
	H344	H	0.219788	-0.022819	-0.242078
	O345	O	-0.217594	0.187431	1.192369
	H346	H	-0.203866	0.173134	1.194747
	H347	H	-0.206057	0.187608	1.175002
	O348	O	0.023441	-0.085094	-0.119076
	H349	H	0.046174	-0.098510	-0.110954
	H350	H	0.017788	-0.085399	-0.131994
	O351	O	1.488821	0.719540	-0.550471
	H352	H	1.494894	0.721891	-0.546687
	H353	H	1.506987	0.716936	-0.563274
	O354	O	0.196022	0.216074	1.023675
	H355	H	0.206196	0.226959	1.042607
	H356	H	0.198268	0.223794	1.036032
	O357	O	1.003431	0.200084	0.228029
	H358	H	0.998448	0.203567	0.196936
	H359	H	0.996272	0.226368	0.244193
	O360	O	0.193686	0.016417	1.226949
	H361	H	0.174915	0.024848	1.223016
	H362	H	0.217325	0.021909	1.252612
	O363	O	-0.046838	-0.012754	0.053518
	H364	H	-0.058841	-0.007427	0.046229
	H365	H	-0.042029	-0.006886	0.048238
	O366	O	0.663750	0.668209	0.332419
	H367	H	0.672983	0.679138	0.341455
	H368	H	0.661212	0.683934	0.316322
	O369	O	0.499324	0.522875	0.296719
	H370	H	0.503353	0.539101	0.299617
	H371	H	0.493396	0.519143	0.304248
	O372	O	0.937738	1.216814	-0.210964
	H373	H	0.920108	1.233134	-0.228236
	H374	H	0.927957	1.226452	-0.204308
	O375	O	0.734634	-0.048619	-0.054253
	H376	H	0.731667	-0.061033	-0.039623
	H377	H	0.732310	-0.031740	-0.053219
	O378	O	0.812904	0.857741	0.188530
	H379	H	0.817753	0.866632	0.170556
	H380	H	0.821821	0.871570	0.184720
	O381	O	0.192432	0.784051	0.982651
	H382	H	0.207259	0.772809	0.977132
	H383	H	0.202380	0.795262	0.994620
	O384	O	0.764937	0.208513	0.798780
	H385	H	0.770805	0.176123	0.796804
	H386	H	0.731283	0.239679	0.766175
	O387	O	0.843897	0.983201	0.054492
	H388	H	0.840128	1.009099	0.059613
	H389	H	0.834486	0.984711	0.059659
	O390	O	0.752234	0.790794	0.103581
	H391	H	0.756985	0.782234	0.086608
	H392	H	0.762140	0.785090	0.117820
	O393	O	0.557290	0.526464	0.476143
	H394	H	0.564148	0.519282	0.480172
	H395	H	0.569211	0.537864	0.463974
	O396	O	-0.154573	1.159957	1.074366
	H397	H	-0.144442	1.160105	1.058827
	H398	H	-0.168420	1.163383	1.064647
	O399	O	-0.071525	-0.006059	0.779091
	H400	H	-0.084180	-0.005640	0.778069
	H401	H	-0.069030	-0.026577	0.779202
	O402	O	-0.040112	-0.046238	1.024963
	H403	H	-0.039222	-0.049527	1.033980
	H404	H	-0.057977	-0.042248	1.015266
	O405	O	1.254973	0.611973	0.630579
	H406	H	1.267174	0.594189	0.625515
	H407	H	1.263676	0.604082	0.603753
	O408	O	0.063286	0.075088	-0.199297
	H409	H	0.057043	0.076003	-0.196342
	H410	H	0.048560	0.068925	-0.198728
	O411	O	0.744345	0.976757	1.231942
	H412	H	0.746820	0.979508	1.238679
	H413	H	0.729544	0.972555	1.252484
	O414	O	0.266982	0.689409	0.433834
	H415	H	0.286340	0.668691	0.427078
	H416	H	0.262809	0.694784	0.433641
	O417	O	0.670022	0.348924	0.521323
	H418	H	0.677500	0.372496	0.505484
	H419	H	0.673303	0.338023	0.502197
	O420	O	0.239158	0.352326	0.487817
	H421	H	0.232190	0.346964	0.503905
	H422	H	0.223753	0.350326	0.504884
	O423	O	0.019879	0.118112	1.070967
	H424	H	0.007148	0.123966	1.049263
	H425	H	0.015651	0.099579	1.064266
	O426	O	0.702281	0.717506	0.529860
	H427	H	0.699768	0.726591	0.560148
	H428	H	0.716888	0.734150	0.555468
	O429	O	0.920140	0.783821	0.933769
	H430	H	0.927749	0.781473	0.914115
	H431	H	0.940206	0.774624	0.927792
	O432	O	0.691023	0.469574	0.289563
	H433	H	0.702988	0.469158	0.282287
	H434	H	0.692792	0.483223	0.283696
	O435	O	0.332234	0.368024	0.626836
	H436	H	0.318940	0.371332	0.634294
	H437	H	0.324143	0.372246	0.621300
	O438	O	0.274087	-0.681668	0.684945
	H439	H	0.297381	-0.660146	0.692194
	H440	H	0.275180	-0.691771	0.697159
	O441	O	0.207293	0.040404	-0.054397
	H442	H	0.208705	0.034441	-0.053480
	H443	H	0.203093	0.058991	-0.060848
	O444	O	0.250387	0.475805	0.729888
	H445	H	0.259160	0.478080	0.728193
	H446	H	0.223223	0.461368	0.752856
	O447	O	0.029860	0.941898	1.249429
	H448	H	0.015290	0.943634	1.251856
	H449	H	0.035708	0.925171	1.252759
	O450	O	-0.222981	0.807933	0.925318
	H451	H	-0.224746	0.783942	0.902701
	H452	H	-0.225005	0.823299	0.934418
	O453	O	0.516193	0.277731	0.565676
	H454	H	0.508208	0.282248	0.545314
	H455	H	0.531726	0.272424	0.542337
	O456	O	-0.085172	-0.209203	1.175485
	H457	H	-0.081486	-0.207938	1.176343
	H458	H	-0.075302	-0.205129	1.174734
	O459	O	1.182790	1.207088	-0.203367
	H460	H	1.183656	1.200809	-0.184961
	H461	H	1.173796	1.193880	-0.206792
	O462	O	0.358614	0.705607	0.530507
	H463	H	0.363470	0.696788	0.522234
	H464	H	0.343719	0.699445	0.521969
	O465	O	1.067384	-0.223959	0.109359
	H466	H	1.069049	-0.207151	0.110592
	H467	H	1.093237	-0.238330	0.120004
	O468	O	0.407766	0.274554	0.450841
	H469	H	0.376072	0.274601	0.463769
	H470	H	0.402221	0.281951	0.429808
	O471	O	0.699263	0.462600	0.555030
	H472	H	0.699205	0.491133	0.547587
	H473	H	0.707210	0.459038	0.549954
	O474	O	0.733020	0.757697	0.771187
	H475	H	0.720639	0.762353	0.774610
	H476	H	0.742609	0.738839	0.782803
	O477	O	0.537833	0.449981	1.735344
	H478	H	0.535377	0.448322	1.736094
	H479	H	0.530266	0.447488	1.725963
	O480	O	0.686954	0.494424	0.438939
	H481	H	0.693052	0.518701	0.447161
	H482	H	0.683844	0.501517	0.426190
	O483	O	0.491080	0.660564	0.281119
	H484	H	0.491174	0.675804	0.267091
	H485	H	0.487274	0.663201	0.289632
	O486	O	0.663892	0.307733	0.701715
	H487	H	0.647770	0.333097	0.684812
	H488	H	0.645377	0.316793	0.675610
	O489	O	1.194884	0.962884	0.066049
	H490	H	1.193597	0.964546	0.065269
	H491	H	1.185297	0.978019	0.066036
	O492	O	-0.016245	-0.004868	-0.015011
	H493	H	-0.015352	-0.010834	-0.010181
	H494	H	-0.031123	0.000735	-0.019473
	O495	O	-0.026056	1.116355	0.962453
	H496	H	-0.020779	1.106476	0.949112
	H497	H	-0.032281	1.108002	0.954913
	O498	O	1.530643	1.294031	1.329046
	H499	H	1.513499	1.280416	1.320289
	H500	H	1.536381	1.290028	1.324843
	O501	O	0.505426	0.714080	0.730177
	H502	H	0.499520	0.748808	0.759297
	H503	H	0.476618	0.700444	0.707789
