data_Molecule from HDF5

_cell_length_a		16.527690
_cell_length_b		16.401504
_cell_length_c		16.686439
_cell_angle_alpha	89.943852
_cell_angle_beta	89.877108
_cell_angle_gamma	90.037924
_symmetry_space_group_name_H-M	'P 1'
_symmetry_Int_Tables_number		1

loop_
	_symmetry_equiv_pos_as_xyz
	x,y,z

loop_
	_atom_site_label
	_atom_site_type_symbol
	_atom_site_fract_x
	_atom_site_fract_y
	_atom_site_fract_z
	H0	H	0.398276	0.848209	0.731576
	H1	H	0.614517	0.161054	0.731439
	H2	H	0.611592	0.846760	0.288817
	H3	H	0.401226	0.162006	0.286619
	H4	H	0.733319	0.395233	0.854418
	H5	H	0.727912	0.608437	0.164424
	H6	H	0.283378	0.611979	0.853326
	H7	H	0.283168	0.396304	0.163437
	H8	H	0.849325	0.723400	0.405930
	H9	H	0.164425	0.727601	0.613360
	H10	H	0.847972	0.287944	0.610729
	H11	H	0.166539	0.285927	0.406954
	H12	H	0.850613	0.399399	0.730726
	H13	H	0.163224	0.614508	0.732498
	H14	H	0.851603	0.611214	0.286487
	H15	H	0.165139	0.398763	0.286919
	H16	H	0.401442	0.727780	0.852622
	H17	H	0.611513	0.726666	0.163781
	H18	H	0.612148	0.282646	0.851507
	H19	H	0.399737	0.280365	0.163019
	H20	H	0.726072	0.846448	0.406131
	H21	H	0.727601	0.162885	0.612465
	H22	H	0.283979	0.847953	0.614684
	H23	H	0.285244	0.162477	0.402002
	H24	H	0.903903	0.346356	0.229222
	H25	H	0.111383	0.664046	0.227604
	H26	H	0.113668	0.347486	0.786728
	H27	H	0.900010	0.661147	0.786193
	H28	H	0.231817	0.896895	0.353323
	H29	H	0.230536	0.110678	0.663738
	H30	H	0.789160	0.107408	0.351554
	H31	H	0.783970	0.899180	0.662897
	H32	H	0.348903	0.223273	0.904821
	H33	H	0.664452	0.222249	0.108449
	H34	H	0.349836	0.782283	0.113654
	H35	H	0.667082	0.789515	0.909249
	H36	H	0.350880	0.895221	0.232420
	H37	H	0.663209	0.109337	0.227997
	H38	H	0.351734	0.113235	0.783629
	H39	H	0.664495	0.900918	0.788144
	H40	H	0.906771	0.223167	0.351394
	H41	H	0.111541	0.224905	0.665658
	H42	H	0.112053	0.782820	0.351929
	H43	H	0.901502	0.782361	0.663211
	H44	H	0.226178	0.346045	0.905250
	H45	H	0.226433	0.664082	0.110317
	H46	H	0.788312	0.345385	0.112610
	H47	H	0.787325	0.662458	0.905776
	H48	H	0.424597	0.114422	0.596086
	H49	H	0.602528	0.890517	0.593239
	H50	H	0.595848	0.119605	0.416147
	H51	H	0.425230	0.893926	0.419329
	H52	H	0.593161	0.418864	0.116620
	H53	H	0.597909	0.594569	0.896455
	H54	H	0.416546	0.586918	0.116723
	H55	H	0.418923	0.416587	0.897906
	H56	H	0.120051	0.592796	0.417448
	H57	H	0.896833	0.593613	0.596188
	H58	H	0.117827	0.420475	0.596274
	H59	H	0.893647	0.413938	0.413869
	H60	H	0.121537	0.417232	0.604061
	H61	H	0.896671	0.589081	0.598003
	H62	H	0.120247	0.593466	0.419015
	H63	H	0.895100	0.411778	0.420609
	H64	H	0.423835	0.594584	0.117472
	H65	H	0.598454	0.593861	0.896481
	H66	H	0.593831	0.408760	0.119322
	H67	H	0.417444	0.412140	0.895945
	H68	H	0.596953	0.119326	0.417902
	H69	H	0.594994	0.888700	0.605525
	H70	H	0.420224	0.116041	0.592202
	H71	H	0.417702	0.893047	0.424806
	H72	H	0.916115	0.616958	0.095071
	H73	H	0.092308	0.392176	0.098821
	H74	H	0.095802	0.617734	0.920280
	H75	H	0.914827	0.388707	0.917175
	H76	H	0.093748	0.911102	0.619426
	H77	H	0.099807	0.094408	0.397176
	H78	H	0.913043	0.093689	0.620931
	H79	H	0.916952	0.917598	0.397359
	H80	H	0.621579	0.092802	0.910989
	H81	H	0.392003	0.097789	0.096210
	H82	H	0.615953	0.919264	0.093519
	H83	H	0.395932	0.918410	0.922039
	H84	H	0.620134	0.919914	0.105363
	H85	H	0.396617	0.087332	0.093543
	H86	H	0.619301	0.097092	0.923153
	H87	H	0.393566	0.917356	0.914865
	H88	H	0.918176	0.092728	0.619497
	H89	H	0.095954	0.090259	0.398968
	H90	H	0.100904	0.920444	0.619341
	H91	H	0.919237	0.913881	0.396493
	H92	H	0.095079	0.618214	0.918882
	H93	H	0.096948	0.391530	0.095925
	H94	H	0.915653	0.620733	0.101587
	H95	H	0.926381	0.392679	0.916729
	H96	H	0.420102	0.118004	0.597447
	H97	H	0.588908	0.895017	0.594400
	H98	H	0.598145	0.119784	0.416011
	H99	H	0.417447	0.889943	0.416168
	H100	H	0.602092	0.414812	0.120359
	H101	H	0.597978	0.594179	0.897495
	H102	H	0.414024	0.596125	0.121198
	H103	H	0.414170	0.415796	0.896455
	H104	H	0.118856	0.592137	0.418341
	H105	H	0.894843	0.592366	0.600523
	H106	H	0.120681	0.411412	0.596352
	H107	H	0.897108	0.419101	0.418594
	H108	H	0.921982	0.617171	0.099981
	H109	H	0.097143	0.390481	0.101218
	H110	H	0.094337	0.617183	0.919791
	H111	H	0.920216	0.393547	0.927278
	H112	H	0.090124	0.921436	0.614689
	H113	H	0.094255	0.095629	0.397727
	H114	H	0.917062	0.097577	0.621820
	H115	H	0.915107	0.914248	0.395690
	H116	H	0.615869	0.084126	0.920038
	H117	H	0.392683	0.089521	0.104369
	H118	H	0.621378	0.908793	0.098906
	H119	H	0.393150	0.911625	0.919757
	C120	C	0.387326	0.012757	0.628441
	C121	C	0.627977	0.995913	0.629293
	C122	C	0.628039	0.014104	0.386721
	C123	C	0.386596	0.996419	0.387790
	C124	C	0.628844	0.382272	0.016139
	C125	C	0.629437	0.625870	0.999961
	C126	C	0.385607	0.625629	0.015972
	C127	C	0.384241	0.381638	0.999540
	C128	C	0.016082	0.625659	0.386754
	C129	C	0.999245	0.626238	0.630675
	C130	C	0.015920	0.383891	0.630506
	C131	C	0.999468	0.382946	0.386659
	C132	C	0.886403	0.513342	0.130594
	C133	C	0.127743	0.496652	0.129183
	C134	C	0.127660	0.513268	0.887716
	C135	C	0.887208	0.495983	0.888033
	C136	C	0.128646	0.883367	0.515899
	C137	C	0.128997	0.126000	0.500828
	C138	C	0.885766	0.126321	0.517015
	C139	C	0.884671	0.882857	0.499323
	C140	C	0.515359	0.124709	0.885967
	C141	C	0.497713	0.124457	0.128932
	C142	C	0.515493	0.882431	0.130935
	C143	C	0.498758	0.884159	0.887637
	C144	C	0.381566	0.895108	0.690512
	C145	C	0.631783	0.114286	0.690325
	C146	C	0.629552	0.894190	0.328822
	C147	C	0.382891	0.114646	0.326704
	C148	C	0.691075	0.378524	0.900163
	C149	C	0.688396	0.627462	0.117413
	C150	C	0.324077	0.629677	0.899783
	C151	C	0.323411	0.378563	0.116336
	C152	C	0.897252	0.684684	0.386289
	C153	C	0.117062	0.687535	0.632397
	C154	C	0.896409	0.325959	0.630511
	C155	C	0.118867	0.324945	0.387235
	C156	C	0.897688	0.381412	0.690393
	C157	C	0.116493	0.631237	0.691751
	C158	C	0.898086	0.628455	0.327298
	C159	C	0.118134	0.381085	0.327584
	C160	C	0.383142	0.686884	0.899053
	C161	C	0.630517	0.686116	0.117159
	C162	C	0.630967	0.322333	0.898782
	C163	C	0.381922	0.320953	0.116385
	C164	C	0.686637	0.894249	0.386825
	C165	C	0.688181	0.115160	0.631486
	C166	C	0.324653	0.895055	0.632375
	C167	C	0.325872	0.115012	0.384743
	C168	C	0.885068	0.393827	0.189578
	C169	C	0.129677	0.616391	0.187825
	C170	C	0.131220	0.394687	0.827144
	C171	C	0.883229	0.614409	0.827438
	C172	C	0.190413	0.879416	0.399692
	C173	C	0.189504	0.128520	0.617600
	C174	C	0.828197	0.126853	0.398803
	C175	C	0.824442	0.880671	0.616404
	C176	C	0.396570	0.184333	0.885149
	C177	C	0.616821	0.183587	0.128526
	C178	C	0.397169	0.821909	0.132325
	C179	C	0.618834	0.827162	0.888525
	C180	C	0.397684	0.878344	0.191459
	C181	C	0.616151	0.127424	0.187887
	C182	C	0.398031	0.129313	0.825117
	C183	C	0.617548	0.882554	0.828606
	C184	C	0.886646	0.184423	0.398846
	C185	C	0.130245	0.185389	0.618591
	C186	C	0.131033	0.822512	0.398800
	C187	C	0.883030	0.822900	0.616746
	C188	C	0.186976	0.393788	0.886167
	C189	C	0.186860	0.616322	0.129658
	C190	C	0.827726	0.393305	0.131682
	C191	C	0.827306	0.615051	0.886849
	C192	C	0.414069	0.094757	0.602587
	C193	C	0.602579	0.913088	0.604657
	C194	C	0.603860	0.097684	0.410047
	C195	C	0.412629	0.913689	0.413095
	C196	C	0.603508	0.407060	0.097539
	C197	C	0.604924	0.601226	0.918045
	C198	C	0.411013	0.599901	0.097134
	C199	C	0.409636	0.407576	0.917869
	C200	C	0.098372	0.600193	0.411250
	C201	C	0.917513	0.599404	0.605424
	C202	C	0.098334	0.409087	0.606067
	C203	C	0.916599	0.407815	0.410805
	C204	C	0.910775	0.596641	0.106121
	C205	C	0.102701	0.413186	0.105586
	C206	C	0.102293	0.596080	0.912664
	C207	C	0.913137	0.413257	0.913069
	C208	C	0.102299	0.909914	0.596871
	C209	C	0.103782	0.100795	0.419361
	C210	C	0.909268	0.101738	0.599419
	C211	C	0.910038	0.908036	0.417673
	C212	C	0.597541	0.098813	0.910979
	C213	C	0.415279	0.098914	0.105025
	C214	C	0.597700	0.908536	0.106359
	C215	C	0.415950	0.908688	0.911743
	Zn216	Zn	0.506728	0.004132	0.757488
	Zn217	Zn	0.506539	0.004101	0.258704
	Zn218	Zn	0.758994	0.503726	0.008899
	Zn219	Zn	0.255917	0.504348	0.008231
	Zn220	Zn	0.007262	0.754129	0.508319
	Zn221	Zn	0.007761	0.255468	0.509020
	Zn222	Zn	0.007842	0.504849	0.759344
	Zn223	Zn	0.008023	0.504712	0.258173
	Zn224	Zn	0.507078	0.755050	0.008118
	Zn225	Zn	0.506450	0.252665	0.007267
	Zn226	Zn	0.755857	0.005447	0.507962
	Zn227	Zn	0.258596	0.004795	0.508124
	N228	N	0.419935	0.969259	0.688158
	N229	N	0.595174	0.039087	0.689198
	N230	N	0.593948	0.969836	0.328472
	N231	N	0.420071	0.039789	0.328557
	N232	N	0.690006	0.415143	0.974130
	N233	N	0.687967	0.590908	0.043365
	N234	N	0.325671	0.592273	0.973365
	N235	N	0.324936	0.415831	0.042448
	N236	N	0.971667	0.683053	0.422704
	N237	N	0.043002	0.684726	0.595262
	N238	N	0.970922	0.327251	0.593911
	N239	N	0.044007	0.325956	0.423132
	N240	N	0.973186	0.416552	0.690746
	N241	N	0.041983	0.594050	0.690950
	N242	N	0.973055	0.592503	0.327378
	N243	N	0.042767	0.416524	0.327175
	N244	N	0.420690	0.684815	0.972406
	N245	N	0.594783	0.685358	0.043042
	N246	N	0.592945	0.324458	0.972017
	N247	N	0.418843	0.322540	0.042647
	N248	N	0.685946	0.969866	0.422126
	N249	N	0.686036	0.040529	0.594343
	N250	N	0.328079	0.969219	0.594519
	N251	N	0.328082	0.040308	0.421818
	N252	N	0.920497	0.469554	0.189251
	N253	N	0.093909	0.540699	0.187854
	N254	N	0.095062	0.469958	0.828040
	N255	N	0.919673	0.539303	0.828204
	N256	N	0.188909	0.916479	0.473504
	N257	N	0.188841	0.092410	0.543412
	N258	N	0.827260	0.091770	0.473592
	N259	N	0.825478	0.917298	0.542428
	N260	N	0.470601	0.181502	0.922528
	N261	N	0.542185	0.182036	0.092778
	N262	N	0.471378	0.824406	0.095150
	N263	N	0.543833	0.827762	0.924295
	N264	N	0.472223	0.915309	0.190625
	N265	N	0.540975	0.091565	0.188484
	N266	N	0.472906	0.093119	0.825430
	N267	N	0.541716	0.916891	0.827572
	N268	N	0.921487	0.184487	0.473488
	N269	N	0.093418	0.184052	0.544914
	N270	N	0.093324	0.824925	0.472226
	N271	N	0.919884	0.824258	0.542884
	N272	N	0.185220	0.468591	0.923044
	N273	N	0.185835	0.540830	0.094161
	N274	N	0.828203	0.468761	0.095908
	N275	N	0.829632	0.540169	0.923904
	O276	O	1.165594	0.937632	0.138782
	H277	H	1.152843	0.918915	0.143812
	H278	H	1.164942	0.960571	0.123823
	O279	O	-0.187895	-0.020594	1.222869
	H280	H	-0.209136	-0.042405	1.244628
	H281	H	-0.179782	-0.043120	1.225697
	O282	O	0.477537	0.423899	0.302396
	H283	H	0.476612	0.432892	0.306686
	H284	H	0.486537	0.403066	0.300520
	O285	O	0.479956	0.302106	0.712224
	H286	H	0.473390	0.297450	0.704206
	H287	H	0.478472	0.286663	0.717248
	O288	O	0.886303	0.179848	0.904548
	H289	H	0.864072	0.181462	0.915133
	H290	H	0.878319	0.199116	0.898833
	O291	O	0.489948	0.683402	0.484845
	H292	H	0.494531	0.670949	0.492903
	H293	H	0.487328	0.685456	0.497306
	O294	O	0.212501	0.992252	-1.201242
	H295	H	0.226048	0.963230	-1.214371
	H296	H	0.202473	0.974861	-1.201356
	O297	O	0.448281	-0.467805	-0.584689
	H298	H	0.435550	-0.486319	-0.592707
	H299	H	0.433422	-0.466422	-0.590703
	O300	O	0.200312	0.023591	-0.016732
	H301	H	0.199826	0.022250	-0.037766
	H302	H	0.205861	0.032376	-0.000109
	O303	O	-0.184828	-0.016252	-0.047970
	H304	H	-0.178937	-0.007263	-0.037000
	H305	H	-0.187413	-0.004253	-0.046962
	O306	O	1.002008	0.109382	0.060608
	H307	H	1.008902	0.100307	0.058313
	H308	H	1.009651	0.117553	0.052833
	O309	O	0.642358	0.373256	0.713561
	H310	H	0.626501	0.378117	0.705717
	H311	H	0.626681	0.381246	0.706542
	O312	O	0.037563	-0.202925	0.067421
	H313	H	0.014045	-0.196367	0.076373
	H314	H	0.030899	-0.196333	0.086121
	O315	O	0.274641	0.263693	0.235582
	H316	H	0.266666	0.261447	0.212981
	H317	H	0.288809	0.276696	0.248250
	O318	O	0.526059	0.702099	0.462925
	H319	H	0.514878	0.687582	0.457237
	H320	H	0.519564	0.708807	0.478328
	O321	O	0.197921	0.829325	0.982898
	H322	H	0.198552	0.828037	0.991593
	H323	H	0.186906	0.832612	0.997512
	O324	O	1.261618	0.255005	0.755549
	H325	H	1.254276	0.262470	0.767757
	H326	H	1.260732	0.246943	0.776331
	O327	O	1.273113	-0.259322	0.267888
	H328	H	1.269402	-0.255718	0.287229
	H329	H	1.291810	-0.242033	0.266802
	O330	O	0.418112	0.579425	0.669511
	H331	H	0.423544	0.579657	0.666621
	H332	H	0.437462	0.589064	0.672913
	O333	O	0.338819	0.505010	0.479285
	H334	H	0.339187	0.469856	0.486037
	H335	H	0.335310	0.511784	0.463936
	O336	O	0.727387	0.463813	0.542928
	H337	H	0.723935	0.461806	0.535694
	H338	H	0.728844	0.457205	0.556061
	O339	O	0.717713	0.709548	0.551497
	H340	H	0.723178	0.713700	0.537141
	H341	H	0.712138	0.715897	0.551000
	O342	O	-0.025990	1.210371	-0.089109
	H343	H	-0.041648	1.207716	-0.069665
	H344	H	-0.046901	1.232639	-0.107989
	O345	O	0.539491	0.727804	0.733619
	H346	H	0.572257	0.738647	0.744930
	H347	H	0.561449	0.745764	0.744640
	O348	O	0.038602	0.793461	0.789686
	H349	H	0.046154	0.782605	0.798591
	H350	H	0.049175	0.771205	0.778162
	O351	O	-0.188105	0.199167	0.813130
	H352	H	-0.200385	0.150898	0.802770
	H353	H	-0.203994	0.213556	0.810429
	O354	O	1.284198	-0.448229	1.282418
	H355	H	1.248773	-0.444184	1.245844
	H356	H	1.303143	-0.429937	1.288560
	O357	O	0.427430	0.392565	0.325703
	H358	H	0.428144	0.388009	0.342463
	H359	H	0.442186	0.405908	0.325170
	O360	O	0.349605	0.675059	0.565397
	H361	H	0.342962	0.686797	0.571524
	H362	H	0.356223	0.689075	0.550015
	O363	O	0.664653	0.701639	0.349126
	H364	H	0.653937	0.692957	0.377412
	H365	H	0.641820	0.678910	0.362373
	O366	O	0.948914	0.211656	1.108768
	H367	H	0.966969	0.229963	1.119365
	H368	H	0.957824	0.204725	1.107536
	O369	O	-0.101915	-0.185865	1.054157
	H370	H	-0.106237	-0.201040	1.054744
	H371	H	-0.107936	-0.187429	1.076564
	O372	O	0.296597	1.478540	0.690553
	H373	H	0.298000	1.489525	0.696682
	H374	H	0.289723	1.497633	0.679333
	O375	O	0.947702	-0.049569	-0.220539
	H376	H	0.973854	-0.075059	-0.224330
	H377	H	0.976791	-0.032847	-0.215939
	O378	O	0.653343	0.669372	0.666833
	H379	H	0.668370	0.684897	0.659911
	H380	H	0.658975	0.667389	0.648129
	O381	O	0.216678	1.025247	0.223382
	H382	H	0.237159	1.020444	0.223025
	H383	H	0.206438	1.042497	0.232357
	O384	O	0.471860	0.362897	0.538848
	H385	H	0.468313	0.355782	0.517741
	H386	H	0.475417	0.357128	0.530417
	O387	O	0.035138	1.030183	0.859564
	H388	H	0.028471	1.043665	0.862464
	H389	H	0.039244	1.047762	0.848583
	O390	O	-0.021928	0.951325	1.170497
	H391	H	-0.021705	0.954986	1.151149
	H392	H	-0.009995	0.964263	1.187453
	O393	O	0.838153	0.136226	0.006638
	H394	H	0.835451	0.137747	-0.011854
	H395	H	0.822973	0.139105	0.002698
	O396	O	0.838582	0.171921	0.201355
	H397	H	0.851149	0.140752	0.195450
	H398	H	0.848634	0.163671	0.194226
	O399	O	0.374827	0.285507	0.494093
	H400	H	0.356625	0.271305	0.503723
	H401	H	0.374713	0.289162	0.508658
	O402	O	0.800763	-0.195199	1.217695
	H403	H	0.787386	-0.219882	1.215685
	H404	H	0.819241	-0.216462	1.233692
	O405	O	0.524044	0.346542	0.334282
	H406	H	0.534704	0.332978	0.321106
	H407	H	0.538471	0.340676	0.327324
	O408	O	0.798995	1.031507	0.797299
	H409	H	0.820709	1.010367	0.793406
	H410	H	0.795014	1.020270	0.779172
	O411	O	1.087061	1.210926	0.219728
	H412	H	1.090848	1.206863	0.219534
	H413	H	1.112140	1.210979	0.231825
	O414	O	-0.083544	-0.208432	0.167379
	H415	H	-0.067680	-0.207056	0.168746
	H416	H	-0.075746	-0.205360	0.169170
	O417	O	0.295533	0.293526	0.627022
	H418	H	0.300897	0.314433	0.649651
	H419	H	0.267771	0.263981	0.652868
	O420	O	0.811399	-0.208991	0.806010
	H421	H	0.817293	-0.208315	0.822770
	H422	H	0.828755	-0.189209	0.824035
	O423	O	1.128663	1.142466	-0.100461
	H424	H	1.129601	1.128720	-0.093786
	H425	H	1.107515	1.142887	-0.102668
	O426	O	0.489724	0.706039	0.303603
	H427	H	0.492906	0.716897	0.289429
	H428	H	0.485044	0.701169	0.314523
	O429	O	0.605807	0.564062	0.322757
	H430	H	0.606492	0.565833	0.331355
	H431	H	0.601901	0.552948	0.327854
	O432	O	1.009163	0.062229	1.077934
	H433	H	1.017703	0.063499	1.069451
	H434	H	1.006949	0.072649	1.067011
	O435	O	-0.000823	0.860171	1.075301
	H436	H	-0.013719	0.860816	1.080356
	H437	H	-0.012673	0.868723	1.089074
	O438	O	0.463588	0.433287	0.580070
	H439	H	0.468474	0.446643	0.576031
	H440	H	0.446658	0.425914	0.580771
	O441	O	0.686653	0.489581	0.283863
	H442	H	0.706886	0.497837	0.262786
	H443	H	0.677558	0.470079	0.293317
	O444	O	0.535329	0.480031	0.655170
	H445	H	0.525792	0.478555	0.663140
	H446	H	0.533878	0.475541	0.664344
	O447	O	0.522650	0.352556	0.450777
	H448	H	0.512488	0.339084	0.441953
	H449	H	0.526750	0.362443	0.455735
	O450	O	0.286311	0.572535	-0.413292
	H451	H	0.286651	0.578489	-0.413701
	H452	H	0.280298	0.563851	-0.422199
	O453	O	0.204761	0.819709	0.813005
	H454	H	0.219565	0.799617	0.823856
	H455	H	0.190843	0.810492	0.834521
	O456	O	0.030131	1.050181	0.947261
	H457	H	0.024672	1.072258	0.946469
	H458	H	0.020503	1.048032	0.944039
	O459	O	0.715085	0.528360	0.721956
	H460	H	0.708233	0.532072	0.720250
	H461	H	0.719399	0.540850	0.741031
	O462	O	0.713784	0.295940	0.300812
	H463	H	0.722049	0.298622	0.302743
	H464	H	0.718806	0.277773	0.298696
	O465	O	0.422322	0.592422	0.637386
	H466	H	0.434450	0.585819	0.635746
	H467	H	0.437103	0.590379	0.623366
	O468	O	-0.131604	0.871643	-0.032894
	H469	H	-0.118109	0.858723	-0.018426
	H470	H	-0.136887	0.889553	-0.031878
	O471	O	0.725562	0.542553	0.463930
	H472	H	0.726746	0.533477	0.471023
	H473	H	0.732724	0.539005	0.466278
	O474	O	1.215583	1.208043	0.048674
	H475	H	1.228138	1.215038	0.043345
	H476	H	1.205567	1.218058	0.033156
	O477	O	0.716395	0.294141	0.476786
	H478	H	0.725015	0.285341	0.478238
	H479	H	0.724862	0.296239	0.474509
