data_Molecule from HDF5

_cell_length_a		16.277524
_cell_length_b		16.491038
_cell_length_c		16.392695
_cell_angle_alpha	90.087835
_cell_angle_beta	89.981598
_cell_angle_gamma	89.939317
_symmetry_space_group_name_H-M	'P 1'
_symmetry_Int_Tables_number		1

loop_
	_symmetry_equiv_pos_as_xyz
	x,y,z

loop_
	_atom_site_label
	_atom_site_type_symbol
	_atom_site_fract_x
	_atom_site_fract_y
	_atom_site_fract_z
	H0	H	0.392145	0.846665	0.714045
	H1	H	0.607217	0.161407	0.713539
	H2	H	0.608689	0.846790	0.265599
	H3	H	0.391528	0.161082	0.267022
	H4	H	0.722618	0.398834	0.833400
	H5	H	0.719745	0.607863	0.151915
	H6	H	0.276422	0.609052	0.833917
	H7	H	0.278099	0.396770	0.149933
	H8	H	0.841393	0.725386	0.384927
	H9	H	0.157943	0.727568	0.601117
	H10	H	0.840682	0.282235	0.600079
	H11	H	0.158165	0.278518	0.384974
	H12	H	0.840261	0.399652	0.713045
	H13	H	0.159459	0.610265	0.713995
	H14	H	0.840922	0.608215	0.271542
	H15	H	0.160954	0.396923	0.273262
	H16	H	0.390157	0.727188	0.833912
	H17	H	0.609717	0.728604	0.148224
	H18	H	0.608629	0.282173	0.832348
	H19	H	0.392345	0.279347	0.148088
	H20	H	0.721308	0.845354	0.385305
	H21	H	0.721222	0.161476	0.595953
	H22	H	0.278755	0.845370	0.595341
	H23	H	0.276169	0.161582	0.384819
	H24	H	0.892078	0.346274	0.217474
	H25	H	0.111704	0.658598	0.218613
	H26	H	0.110150	0.347075	0.765562
	H27	H	0.890696	0.659707	0.768236
	H28	H	0.221778	0.896272	0.333381
	H29	H	0.220271	0.107736	0.650623
	H30	H	0.778944	0.108850	0.332210
	H31	H	0.777235	0.898976	0.649309
	H32	H	0.341882	0.226755	0.882758
	H33	H	0.658892	0.226810	0.099165
	H34	H	0.341164	0.781420	0.097429
	H35	H	0.657642	0.778441	0.880155
	H36	H	0.340864	0.896036	0.213036
	H37	H	0.657995	0.111982	0.214926
	H38	H	0.339650	0.108729	0.771136
	H39	H	0.659299	0.898108	0.768526
	H40	H	0.888492	0.229510	0.335994
	H41	H	0.108145	0.225982	0.650253
	H42	H	0.112367	0.775849	0.336065
	H43	H	0.892044	0.782063	0.649811
	H44	H	0.223759	0.345930	0.883725
	H45	H	0.221752	0.660633	0.097876
	H46	H	0.776377	0.346218	0.100879
	H47	H	0.778884	0.661169	0.888728
	H48	H	0.414414	0.118192	0.587630
	H49	H	0.582917	0.892953	0.579118
	H50	H	0.588164	0.115936	0.401619
	H51	H	0.412314	0.893650	0.405249
	H52	H	0.581542	0.409960	0.103880
	H53	H	0.588855	0.590504	0.879190
	H54	H	0.413257	0.590279	0.103067
	H55	H	0.416392	0.416337	0.879504
	H56	H	0.115781	0.591730	0.402439
	H57	H	0.884925	0.597602	0.578162
	H58	H	0.111015	0.421248	0.576524
	H59	H	0.886046	0.414136	0.404799
	H60	H	0.115972	0.414120	0.584927
	H61	H	0.888653	0.589305	0.577226
	H62	H	0.114015	0.594237	0.409210
	H63	H	0.887210	0.415428	0.407807
	H64	H	0.415366	0.593457	0.104435
	H65	H	0.586889	0.590812	0.879109
	H66	H	0.592650	0.410673	0.107801
	H67	H	0.412715	0.413064	0.876431
	H68	H	0.587330	0.115029	0.401745
	H69	H	0.590884	0.891368	0.576314
	H70	H	0.415852	0.112643	0.574176
	H71	H	0.409208	0.890157	0.400594
	H72	H	0.917649	0.616110	0.089463
	H73	H	0.088169	0.391038	0.080962
	H74	H	0.090720	0.615644	0.907992
	H75	H	0.913197	0.390044	0.900186
	H76	H	0.090499	0.914131	0.606087
	H77	H	0.084532	0.094064	0.378809
	H78	H	0.909893	0.095180	0.606598
	H79	H	0.914867	0.911642	0.378465
	H80	H	0.613640	0.088478	0.900531
	H81	H	0.385585	0.097035	0.073563
	H82	H	0.613372	0.919134	0.080392
	H83	H	0.384028	0.914046	0.897995
	H84	H	0.614330	0.911284	0.077605
	H85	H	0.389534	0.086013	0.074757
	H86	H	0.615548	0.095186	0.900910
	H87	H	0.385778	0.910989	0.905553
	H88	H	0.909535	0.090299	0.605032
	H89	H	0.087603	0.091090	0.378405
	H90	H	0.086711	0.917320	0.603360
	H91	H	0.909278	0.913325	0.376355
	H92	H	0.090640	0.617638	0.899071
	H93	H	0.088629	0.389579	0.081609
	H94	H	0.915774	0.611093	0.075353
	H95	H	0.916138	0.392619	0.904992
	H96	H	0.403180	0.118681	0.578683
	H97	H	0.588732	0.889418	0.584578
	H98	H	0.587474	0.116344	0.403010
	H99	H	0.415203	0.892319	0.399389
	H100	H	0.587486	0.420045	0.102904
	H101	H	0.587598	0.592459	0.878655
	H102	H	0.411855	0.593258	0.105482
	H103	H	0.410781	0.417742	0.878555
	H104	H	0.112983	0.587328	0.407524
	H105	H	0.884344	0.591936	0.585150
	H106	H	0.114158	0.409995	0.573977
	H107	H	0.886919	0.417934	0.405108
	H108	H	0.904574	0.618271	0.081994
	H109	H	0.087372	0.390384	0.082691
	H110	H	0.082940	0.613705	0.902411
	H111	H	0.910508	0.390144	0.905453
	H112	H	0.085319	0.912977	0.604836
	H113	H	0.083652	0.089820	0.380159
	H114	H	0.914325	0.092400	0.604058
	H115	H	0.912845	0.917229	0.380490
	H116	H	0.613266	0.092368	0.906407
	H117	H	0.384944	0.091676	0.084121
	H118	H	0.611986	0.917775	0.072802
	H119	H	0.387871	0.918813	0.903810
	C120	C	0.378103	0.012282	0.612732
	C121	C	0.620846	0.995340	0.612501
	C122	C	0.621242	0.011947	0.368763
	C123	C	0.378206	0.995714	0.368720
	C124	C	0.622026	0.381142	0.000356
	C125	C	0.621363	0.624723	0.983354
	C126	C	0.379080	0.624917	-0.000141
	C127	C	0.379466	0.382046	0.982603
	C128	C	0.008968	0.624318	0.372167
	C129	C	0.991375	0.625363	0.613566
	C130	C	0.008478	0.383115	0.612458
	C131	C	0.991754	0.381927	0.372512
	C132	C	0.878916	0.511527	0.115549
	C133	C	0.121719	0.494320	0.114309
	C134	C	0.121949	0.511775	0.869607
	C135	C	0.879543	0.494895	0.871152
	C136	C	0.121869	0.880906	0.500795
	C137	C	0.119707	0.124500	0.483501
	C138	C	0.877651	0.125553	0.500611
	C139	C	0.878527	0.882042	0.482846
	C140	C	0.509003	0.125213	0.869584
	C141	C	0.491624	0.124685	0.111314
	C142	C	0.508339	0.883040	0.110690
	C143	C	0.491285	0.881700	0.868777
	C144	C	0.374865	0.893696	0.673549
	C145	C	0.624656	0.113982	0.673318
	C146	C	0.625742	0.893969	0.306619
	C147	C	0.374151	0.113919	0.307750
	C148	C	0.683038	0.380004	0.881171
	C149	C	0.681024	0.626876	0.103302
	C150	C	0.317149	0.627357	0.881199
	C151	C	0.318110	0.378614	0.102055
	C152	C	0.889123	0.685036	0.367998
	C153	C	0.110713	0.686528	0.617700
	C154	C	0.888554	0.322336	0.617236
	C155	C	0.110816	0.319445	0.367939
	C156	C	0.888213	0.380792	0.673531
	C157	C	0.111306	0.627931	0.674080
	C158	C	0.889181	0.626998	0.311019
	C159	C	0.112229	0.378753	0.312478
	C160	C	0.374187	0.685875	0.881255
	C161	C	0.626021	0.687066	0.101571
	C162	C	0.626128	0.321854	0.880468
	C163	C	0.375278	0.320428	0.101224
	C164	C	0.682303	0.893266	0.365981
	C165	C	0.681621	0.113926	0.614782
	C166	C	0.318273	0.893160	0.614394
	C167	C	0.316349	0.114042	0.366220
	C168	C	0.874663	0.393569	0.177182
	C169	C	0.127477	0.611889	0.176680
	C170	C	0.126929	0.394017	0.807024
	C171	C	0.874696	0.612860	0.809518
	C172	C	0.182868	0.877741	0.381449
	C173	C	0.180622	0.126410	0.602830
	C174	C	0.817694	0.127645	0.380770
	C175	C	0.817547	0.880337	0.601989
	C176	C	0.389370	0.186211	0.865776
	C177	C	0.611071	0.186262	0.116141
	C178	C	0.388831	0.821841	0.114842
	C179	C	0.610362	0.819638	0.863923
	C180	C	0.388784	0.878898	0.172604
	C181	C	0.610836	0.128785	0.173647
	C182	C	0.388379	0.127247	0.810031
	C183	C	0.611223	0.879028	0.808077
	C184	C	0.872786	0.187651	0.382591
	C185	C	0.124700	0.185721	0.602528
	C186	C	0.127917	0.817772	0.382971
	C187	C	0.874736	0.822227	0.602313
	C188	C	0.183606	0.393396	0.865975
	C189	C	0.182683	0.613015	0.116582
	C190	C	0.817030	0.393568	0.118824
	C191	C	0.818576	0.613523	0.869340
	C192	C	0.403722	0.094681	0.587369
	C193	C	0.594993	0.912909	0.587429
	C194	C	0.595172	0.094327	0.394498
	C195	C	0.404738	0.913524	0.394230
	C196	C	0.595076	0.406248	0.083228
	C197	C	0.595314	0.598594	0.900575
	C198	C	0.405869	0.599627	0.082684
	C199	C	0.405607	0.408054	0.899804
	C200	C	0.092532	0.598625	0.398797
	C201	C	0.907682	0.600049	0.587635
	C202	C	0.091858	0.408015	0.586095
	C203	C	0.908421	0.408134	0.398539
	C204	C	0.905280	0.593849	0.089688
	C205	C	0.095516	0.411903	0.088981
	C206	C	0.095741	0.594027	0.895572
	C207	C	0.905744	0.412414	0.896270
	C208	C	0.095216	0.907100	0.583129
	C209	C	0.093024	0.099160	0.400702
	C210	C	0.903828	0.099965	0.583685
	C211	C	0.904845	0.906885	0.400123
	C212	C	0.592681	0.099285	0.895367
	C213	C	0.408626	0.098845	0.085115
	C214	C	0.591378	0.908799	0.084413
	C215	C	0.407775	0.907277	0.894887
	Zn216	Zn	0.499492	0.004115	0.741843
	Zn217	Zn	0.499737	0.003625	0.239217
	Zn218	Zn	0.750039	0.503329	-0.007051
	Zn219	Zn	0.250485	0.502975	-0.007773
	Zn220	Zn	-0.000082	0.753591	0.492486
	Zn221	Zn	-0.000702	0.253682	0.492691
	Zn222	Zn	0.000243	0.503204	0.740991
	Zn223	Zn	0.001201	0.502779	0.243965
	Zn224	Zn	0.500505	0.753803	-0.009001
	Zn225	Zn	0.500650	0.253135	-0.009808
	Zn226	Zn	0.749928	0.003499	0.490976
	Zn227	Zn	0.249125	0.003618	0.491171
	N228	N	0.411467	0.968743	0.672667
	N229	N	0.587522	0.039132	0.672252
	N230	N	0.588620	0.968806	0.308112
	N231	N	0.411741	0.039251	0.309137
	N232	N	0.680931	0.415764	0.956941
	N233	N	0.678079	0.588615	0.028735
	N234	N	0.320213	0.589869	0.955918
	N235	N	0.320579	0.416288	0.027379
	N236	N	0.965066	0.683772	0.404886
	N237	N	0.035043	0.684974	0.580732
	N238	N	0.964286	0.323435	0.580027
	N239	N	0.034727	0.321199	0.404385
	N240	N	0.963746	0.417768	0.670500
	N241	N	0.035984	0.590461	0.671400
	N242	N	0.964947	0.590355	0.313247
	N243	N	0.037174	0.416901	0.315051
	N244	N	0.412123	0.684162	0.956137
	N245	N	0.589896	0.686051	0.025831
	N246	N	0.589090	0.322279	0.955764
	N247	N	0.412353	0.322256	0.025763
	N248	N	0.679736	0.967651	0.403861
	N249	N	0.679376	0.039253	0.577803
	N250	N	0.320233	0.967883	0.577366
	N251	N	0.318777	0.039504	0.403363
	N252	N	0.912236	0.468122	0.175308
	N253	N	0.090220	0.537068	0.175530
	N254	N	0.089748	0.468759	0.808866
	N255	N	0.911792	0.537943	0.810430
	N256	N	0.179040	0.916609	0.455521
	N257	N	0.177998	0.089162	0.527811
	N258	N	0.820645	0.089598	0.455243
	N259	N	0.819884	0.916807	0.526906
	N260	N	0.465520	0.184953	0.902031
	N261	N	0.536051	0.183902	0.077987
	N262	N	0.464081	0.824419	0.076806
	N263	N	0.534587	0.821201	0.900917
	N264	N	0.464172	0.916280	0.170230
	N265	N	0.535500	0.091135	0.170800
	N266	N	0.464007	0.089991	0.812387
	N267	N	0.536191	0.916922	0.810961
	N268	N	0.909295	0.186377	0.458271
	N269	N	0.087266	0.184391	0.527416
	N270	N	0.090625	0.819476	0.458170
	N271	N	0.912069	0.823085	0.527050
	N272	N	0.180836	0.467723	0.904179
	N273	N	0.179322	0.538842	0.078442
	N274	N	0.819464	0.467970	0.081208
	N275	N	0.821444	0.539285	0.907027
	O276	O	0.318849	0.700782	0.470241
	H277	H	0.318694	0.664155	0.492301
	H278	H	0.288838	0.725709	0.473846
	O279	O	0.045990	0.212077	0.196518
	H280	H	0.038168	0.219391	0.215636
	H281	H	0.036846	0.184672	0.206364
	O282	O	0.401155	0.429116	0.563040
	H283	H	0.407711	0.431821	0.543808
	H284	H	0.409196	0.430948	0.553356
	O285	O	1.590398	0.551108	0.664508
	H286	H	1.598672	0.549087	0.667469
	H287	H	1.594804	0.559576	0.659603
	O288	O	0.631747	0.698917	0.584068
	H289	H	0.610148	0.678309	0.598070
	H290	H	0.639761	0.723667	0.598146
	O291	O	0.524060	0.322339	0.351664
	H292	H	0.522495	0.312700	0.334053
	H293	H	0.507667	0.316476	0.372581
	O294	O	1.003257	0.885274	1.080172
	H295	H	0.992478	0.878441	1.086797
	H296	H	1.021782	0.888139	1.097834
	O297	O	0.392432	0.329408	0.453910
	H298	H	0.390199	0.336757	0.451466
	H299	H	0.385978	0.334391	0.447390
	O300	O	0.388281	0.641847	0.586530
	H301	H	0.390543	0.640268	0.609048
	H302	H	0.373990	0.625201	0.580256
	O303	O	0.297590	0.403272	0.652090
	H304	H	0.286008	0.412540	0.640388
	H305	H	0.282454	0.402225	0.655687
	O306	O	0.148380	-0.092983	0.962218
	H307	H	0.159038	-0.106206	0.958412
	H308	H	0.148569	-0.085461	0.957191
	O309	O	0.926638	-0.075707	-0.080847
	H310	H	0.937038	-0.073048	-0.081943
	H311	H	0.926753	-0.073399	-0.073946
	O312	O	0.355436	0.671589	0.320049
	H313	H	0.385713	0.685259	0.328595
	H314	H	0.351876	0.684419	0.344243
	O315	O	0.674661	0.331291	0.356285
	H316	H	0.648068	0.316065	0.349058
	H317	H	0.664265	0.348066	0.350379
	O318	O	-0.006532	-0.217329	0.207329
	H319	H	-0.037729	-0.221601	0.212173
	H320	H	-0.032078	-0.233169	0.225750
	O321	O	0.693115	0.484669	0.652160
	H322	H	0.688665	0.475794	0.637535
	H323	H	0.706592	0.477213	0.652777
	O324	O	1.167581	0.012919	1.157356
	H325	H	1.189682	0.016395	1.173546
	H326	H	1.166663	0.042768	1.154831
	O327	O	0.303966	0.521066	0.284512
	H328	H	0.295646	0.560157	0.282936
	H329	H	0.288585	0.532407	0.273643
	O330	O	-0.197640	0.796623	0.992894
	H331	H	-0.182543	0.805574	0.980564
	H332	H	-0.217205	0.777521	0.989684
	O333	O	-0.215333	1.217064	-0.030155
	H334	H	-0.240675	1.250996	-0.036317
	H335	H	-0.190914	1.221161	-0.033738
	O336	O	0.959898	1.034946	-0.166484
	H337	H	0.964087	1.054448	-0.194571
	H338	H	0.935955	1.028759	-0.160684
	O339	O	0.055009	1.140640	0.994803
	H340	H	0.049968	1.148383	1.005560
	H341	H	0.052765	1.132037	0.988256
	O342	O	0.455720	0.340338	0.555248
	H343	H	0.467823	0.335171	0.572035
	H344	H	0.447312	0.331440	0.568595
	O345	O	-0.191791	0.113299	0.795024
	H346	H	-0.196856	0.071288	0.808258
	H347	H	-0.214619	0.118600	0.812129
	O348	O	0.460557	0.505551	0.453676
	H349	H	0.455849	0.506171	0.446477
	H350	H	0.474886	0.515636	0.439900
	O351	O	1.015191	1.020448	0.156198
	H352	H	1.021698	0.998974	0.160005
	H353	H	1.020221	1.010315	0.159974
	O354	O	1.064396	1.083119	0.843565
	H355	H	1.069442	1.088876	0.851545
	H356	H	1.069593	1.085486	0.836788
	O357	O	0.070459	-0.051451	-0.068361
	H358	H	0.066519	-0.061899	-0.067327
	H359	H	0.083263	-0.043480	-0.075532
	O360	O	0.187723	0.151710	1.177064
	H361	H	0.158990	0.153457	1.188689
	H362	H	0.188707	0.158630	1.148268
	O363	O	0.784279	-0.059449	-0.037478
	H364	H	0.780860	-0.049292	-0.035725
	H365	H	0.793610	-0.063762	-0.041163
	O366	O	0.154533	-0.167240	1.013087
	H367	H	0.172904	-0.157640	1.016804
	H368	H	0.140135	-0.175317	1.039533
	O369	O	1.486469	0.672697	1.295924
	H370	H	1.498375	0.694592	1.293946
	H371	H	1.507647	0.675381	1.300791
	O372	O	0.998501	1.044521	-0.211434
	H373	H	1.011226	1.025613	-0.196922
	H374	H	1.005313	1.050992	-0.219628
	O375	O	-0.618473	-0.518543	1.684898
	H376	H	-0.605799	-0.505738	1.687345
	H377	H	-0.627201	-0.534357	1.688347
	O378	O	0.671485	0.512935	0.444824
	H379	H	0.660082	0.521837	0.449438
	H380	H	0.679325	0.525027	0.435711
	O381	O	-0.077485	0.923176	-0.094856
	H382	H	-0.087701	0.925671	-0.105219
	H383	H	-0.058237	0.912456	-0.087627
	O384	O	0.459170	0.451302	0.353593
	H385	H	0.466694	0.440819	0.359962
	H386	H	0.452773	0.459014	0.345668
	O387	O	0.553135	0.640091	0.585736
	H388	H	0.555796	0.619214	0.596688
	H389	H	0.552615	0.642332	0.569084
	O390	O	1.154513	1.041209	0.007808
	H391	H	1.159816	1.038890	0.023894
	H392	H	1.160939	1.043139	0.016861
	O393	O	0.839492	-0.180274	1.174836
	H394	H	0.821112	-0.141354	1.179213
	H395	H	0.825449	-0.186317	1.136773
	O396	O	0.661466	0.508447	0.604048
	H397	H	0.644687	0.492411	0.619401
	H398	H	0.668529	0.500108	0.598525
	O399	O	0.520829	0.352504	0.698663
	H400	H	0.518120	0.330347	0.710565
	H401	H	0.501888	0.362466	0.697252
	O402	O	1.185352	1.038828	-0.163907
	H403	H	1.190438	1.043614	-0.188468
	H404	H	1.175528	1.015592	-0.143677
	O405	O	0.543479	0.650759	0.587872
	H406	H	0.546948	0.658783	0.581091
	H407	H	0.554238	0.661703	0.598907
	O408	O	0.506957	0.483467	0.409184
	H409	H	0.494349	0.484727	0.402602
	H410	H	0.506152	0.491434	0.400845
	O411	O	0.886056	1.212296	0.943120
	H412	H	0.920242	1.201419	0.938949
	H413	H	0.893017	1.193381	0.953857
	O414	O	0.165869	0.193433	0.966198
	H415	H	0.145900	0.185759	0.938793
	H416	H	0.191069	0.215521	0.976550
	O417	O	-0.200162	1.070270	1.047639
	H418	H	-0.178473	1.068050	1.039601
	H419	H	-0.206949	1.103227	1.025540
	O420	O	0.066686	0.796254	0.788560
	H421	H	0.069416	0.803016	0.781585
	H422	H	0.056793	0.791720	0.774673
	O423	O	0.190713	0.875908	-0.175969
	H424	H	0.179654	0.881191	-0.179316
	H425	H	0.190946	0.886229	-0.149554
	O426	O	0.696681	0.462874	0.291406
	H427	H	0.711206	0.449584	0.277507
	H428	H	0.688909	0.458746	0.292912
	O429	O	0.302372	0.517299	0.541111
	H430	H	0.323813	0.517725	0.526592
	H431	H	0.303837	0.509713	0.549733
	O432	O	0.611210	0.295612	0.466364
	H433	H	0.615176	0.303894	0.450720
	H434	H	0.620166	0.286283	0.452956
	O435	O	-0.044616	0.086344	0.152488
	H436	H	-0.024834	0.066882	0.156045
	H437	H	-0.056954	0.074752	0.151712
	O438	O	-0.208306	0.984186	1.199682
	H439	H	-0.238885	0.984418	1.222361
	H440	H	-0.207737	1.010948	1.171629
	O441	O	0.563047	0.689016	0.404931
	H442	H	0.559527	0.673877	0.416308
	H443	H	0.577442	0.692996	0.429766
