data_Molecule from HDF5

_cell_length_a		16.233383
_cell_length_b		16.244616
_cell_length_c		16.355577
_cell_angle_alpha	90.263064
_cell_angle_beta	90.043187
_cell_angle_gamma	90.091155
_symmetry_space_group_name_H-M	'P 1'
_symmetry_Int_Tables_number		1

loop_
	_symmetry_equiv_pos_as_xyz
	x,y,z

loop_
	_atom_site_label
	_atom_site_type_symbol
	_atom_site_fract_x
	_atom_site_fract_y
	_atom_site_fract_z
	H0	H	0.400783	0.827959	0.706583
	H1	H	0.599949	0.154458	0.708552
	H2	H	0.598469	0.827874	0.277638
	H3	H	0.400604	0.155745	0.278009
	H4	H	0.713879	0.392671	0.829202
	H5	H	0.714303	0.589671	0.156024
	H6	H	0.286252	0.588565	0.830139
	H7	H	0.285760	0.394114	0.155942
	H8	H	0.834876	0.703815	0.396845
	H9	H	0.164166	0.706037	0.590383
	H10	H	0.835552	0.280513	0.587657
	H11	H	0.164827	0.277391	0.394198
	H12	H	0.836395	0.393085	0.706480
	H13	H	0.163873	0.591757	0.708143
	H14	H	0.835742	0.588918	0.279748
	H15	H	0.164457	0.392451	0.277204
	H16	H	0.402411	0.705052	0.829974
	H17	H	0.599354	0.707766	0.155223
	H18	H	0.597411	0.277123	0.829681
	H19	H	0.402817	0.277191	0.156166
	H20	H	0.713410	0.828295	0.395052
	H21	H	0.714425	0.155427	0.592327
	H22	H	0.287382	0.827003	0.588384
	H23	H	0.288332	0.156956	0.397486
	H24	H	0.900211	0.327753	0.207300
	H25	H	0.099765	0.655526	0.208604
	H26	H	0.099148	0.328762	0.777003
	H27	H	0.900421	0.655365	0.779176
	H28	H	0.213686	0.893381	0.329420
	H29	H	0.215244	0.091499	0.656115
	H30	H	0.786518	0.088825	0.329554
	H31	H	0.785136	0.894278	0.655844
	H32	H	0.336197	0.203704	0.896661
	H33	H	0.665214	0.205341	0.090410
	H34	H	0.336145	0.779923	0.087963
	H35	H	0.664772	0.777909	0.894872
	H36	H	0.336804	0.892388	0.205958
	H37	H	0.664531	0.092639	0.209215
	H38	H	0.336534	0.089352	0.778715
	H39	H	0.664253	0.891821	0.777236
	H40	H	0.901987	0.205322	0.330101
	H41	H	0.098861	0.208300	0.655853
	H42	H	0.097401	0.776379	0.329413
	H43	H	0.901894	0.778434	0.656625
	H44	H	0.212526	0.327101	0.894781
	H45	H	0.214995	0.655795	0.092158
	H46	H	0.787697	0.326991	0.088190
	H47	H	0.787062	0.655839	0.897070
	H48	H	0.408763	0.111181	0.596607
	H49	H	0.595022	0.873893	0.583577
	H50	H	0.597808	0.112427	0.395207
	H51	H	0.407557	0.874195	0.392625
	H52	H	0.595213	0.404392	0.107545
	H53	H	0.590673	0.592717	0.874830
	H54	H	0.404952	0.581758	0.108662
	H55	H	0.407277	0.395949	0.876472
	H56	H	0.117566	0.587377	0.400374
	H57	H	0.882671	0.578715	0.593527
	H58	H	0.117855	0.402588	0.588687
	H59	H	0.881937	0.398765	0.393160
	H60	H	0.118395	0.396294	0.586708
	H61	H	0.879750	0.593507	0.589535
	H62	H	0.116181	0.583358	0.402992
	H63	H	0.883090	0.393653	0.401648
	H64	H	0.412054	0.585648	0.107693
	H65	H	0.601785	0.582313	0.874977
	H66	H	0.589036	0.394459	0.108693
	H67	H	0.404673	0.395896	0.876297
	H68	H	0.584522	0.107087	0.398087
	H69	H	0.593075	0.873623	0.588713
	H70	H	0.415127	0.104814	0.581780
	H71	H	0.410416	0.876691	0.401080
	H72	H	0.902322	0.612680	0.096982
	H73	H	0.092881	0.377323	0.078813
	H74	H	0.094784	0.609383	0.901080
	H75	H	0.907140	0.373307	0.893183
	H76	H	0.099963	0.898775	0.610363
	H77	H	0.090316	0.080795	0.379556
	H78	H	0.910377	0.087034	0.608759
	H79	H	0.910733	0.900642	0.379048
	H80	H	0.620943	0.089564	0.894994
	H81	H	0.383754	0.089546	0.082834
	H82	H	0.615524	0.904830	0.082865
	H83	H	0.381673	0.893696	0.893901
	H84	H	0.619791	0.901212	0.092187
	H85	H	0.386655	0.078592	0.082888
	H86	H	0.616579	0.085725	0.906331
	H87	H	0.384844	0.896133	0.905397
	H88	H	0.903804	0.089814	0.610771
	H89	H	0.091303	0.088543	0.376873
	H90	H	0.090587	0.904010	0.606403
	H91	H	0.907758	0.892903	0.376405
	H92	H	0.092329	0.609386	0.899879
	H93	H	0.096455	0.372890	0.088521
	H94	H	0.918568	0.605322	0.087476
	H95	H	0.912527	0.376648	0.900614
	H96	H	0.398575	0.109741	0.582660
	H97	H	0.589708	0.875295	0.584556
	H98	H	0.594548	0.107103	0.408785
	H99	H	0.401414	0.874180	0.400031
	H100	H	0.600103	0.394915	0.112223
	H101	H	0.587850	0.578985	0.879861
	H102	H	0.406204	0.589703	0.110278
	H103	H	0.406258	0.398469	0.876840
	H104	H	0.117149	0.582590	0.397512
	H105	H	0.885333	0.583527	0.579379
	H106	H	0.115981	0.400789	0.582869
	H107	H	0.885678	0.403316	0.401036
	H108	H	0.902050	0.607428	0.077798
	H109	H	0.086345	0.376508	0.087483
	H110	H	0.092506	0.607759	0.901433
	H111	H	0.902837	0.374251	0.902409
	H112	H	0.090268	0.893234	0.609794
	H113	H	0.097339	0.082851	0.376584
	H114	H	0.904634	0.082247	0.608776
	H115	H	0.902374	0.899799	0.376500
	H116	H	0.617114	0.077415	0.896690
	H117	H	0.382323	0.082769	0.091945
	H118	H	0.618482	0.894633	0.083410
	H119	H	0.385336	0.905054	0.896590
	C120	C	0.378863	0.000078	0.614167
	C121	C	0.621521	0.982676	0.614257
	C122	C	0.620915	0.000716	0.371622
	C123	C	0.378094	0.983544	0.370377
	C124	C	0.622431	0.369658	0.001455
	C125	C	0.621909	0.613249	0.984153
	C126	C	0.378961	0.613810	0.001464
	C127	C	0.377940	0.368837	0.984704
	C128	C	0.008127	0.612731	0.372133
	C129	C	0.991197	0.613786	0.615375
	C130	C	0.008877	0.371414	0.613850
	C131	C	0.992239	0.369627	0.370155
	C132	C	0.878798	0.500034	0.114657
	C133	C	0.121394	0.483424	0.114305
	C134	C	0.121574	0.500231	0.871778
	C135	C	0.878467	0.483124	0.871073
	C136	C	0.121795	0.869750	0.501176
	C137	C	0.122041	0.113557	0.484989
	C138	C	0.878019	0.114079	0.501630
	C139	C	0.877880	0.869705	0.484809
	C140	C	0.509450	0.112325	0.871424
	C141	C	0.492615	0.112938	0.114521
	C142	C	0.509376	0.871039	0.114036
	C143	C	0.492249	0.869647	0.870216
	C144	C	0.380810	0.876709	0.668526
	C145	C	0.619769	0.106064	0.669980
	C146	C	0.618406	0.876948	0.316202
	C147	C	0.380408	0.106798	0.315827
	C148	C	0.676510	0.372300	0.878075
	C149	C	0.677143	0.610919	0.106949
	C150	C	0.323835	0.610049	0.878938
	C151	C	0.323608	0.372761	0.107452
	C152	C	0.884189	0.666431	0.375803
	C153	C	0.115345	0.668224	0.611541
	C154	C	0.884803	0.317302	0.609308
	C155	C	0.115742	0.314833	0.373106
	C156	C	0.885274	0.373611	0.668137
	C157	C	0.114967	0.611749	0.670107
	C158	C	0.884750	0.609708	0.317429
	C159	C	0.115565	0.372093	0.315046
	C160	C	0.381551	0.667960	0.878812
	C161	C	0.619747	0.669147	0.106847
	C162	C	0.618617	0.314955	0.878229
	C163	C	0.381807	0.314823	0.107431
	C164	C	0.675660	0.876993	0.374096
	C165	C	0.676308	0.106523	0.611936
	C166	C	0.324701	0.876162	0.609749
	C167	C	0.324480	0.107408	0.375105
	C168	C	0.880794	0.376468	0.168977
	C169	C	0.119946	0.606800	0.170346
	C170	C	0.119232	0.377390	0.815678
	C171	C	0.880381	0.606474	0.816897
	C172	C	0.176296	0.872184	0.378245
	C173	C	0.177427	0.112000	0.607450
	C174	C	0.823820	0.109907	0.378738
	C175	C	0.822965	0.873135	0.607382
	C176	C	0.385265	0.166453	0.875167
	C177	C	0.616260	0.167820	0.111502
	C178	C	0.385591	0.816341	0.109812
	C179	C	0.615802	0.815141	0.873539
	C180	C	0.385834	0.872472	0.168282
	C181	C	0.615684	0.111905	0.170458
	C182	C	0.385514	0.109594	0.816789
	C183	C	0.615377	0.871760	0.815089
	C184	C	0.881152	0.168008	0.378904
	C185	C	0.119360	0.169549	0.607595
	C186	C	0.118217	0.814427	0.378196
	C187	C	0.880731	0.815364	0.607552
	C188	C	0.175791	0.376579	0.874012
	C189	C	0.176997	0.606837	0.112499
	C190	C	0.824823	0.376018	0.109733
	C191	C	0.823921	0.606739	0.875422
	C192	C	0.400935	0.086370	0.593206
	C193	C	0.599063	0.896537	0.591955
	C194	C	0.598800	0.086644	0.394065
	C195	C	0.399986	0.897194	0.391708
	C196	C	0.600996	0.391496	0.087281
	C197	C	0.599914	0.591032	0.898656
	C198	C	0.401149	0.591939	0.087084
	C199	C	0.399766	0.390298	0.898740
	C200	C	0.094640	0.590832	0.393953
	C201	C	0.904947	0.591858	0.593771
	C202	C	0.095167	0.393274	0.592328
	C203	C	0.905855	0.391813	0.392052
	C204	C	0.901186	0.586207	0.093670
	C205	C	0.098776	0.397792	0.091598
	C206	C	0.099752	0.586511	0.894281
	C207	C	0.900714	0.396974	0.892419
	C208	C	0.100045	0.892112	0.586678
	C209	C	0.099548	0.090772	0.399898
	C210	C	0.899960	0.092769	0.587416
	C211	C	0.900215	0.891375	0.399226
	C212	C	0.595759	0.090779	0.893073
	C213	C	0.406505	0.090258	0.092341
	C214	C	0.595827	0.893429	0.092422
	C215	C	0.405955	0.891789	0.892092
	Zn216	Zn	0.500509	-0.008512	0.742530
	Zn217	Zn	0.500258	-0.008155	0.242670
	Zn218	Zn	0.750626	0.491172	-0.007090
	Zn219	Zn	0.249818	0.491582	-0.006633
	Zn220	Zn	-0.000440	0.741038	0.493548
	Zn221	Zn	0.000417	0.242387	0.492797
	Zn222	Zn	0.000045	0.492382	0.743285
	Zn223	Zn	0.000267	0.492078	0.242634
	Zn224	Zn	0.501008	0.742570	-0.007482
	Zn225	Zn	0.501128	0.240681	-0.007075
	Zn226	Zn	0.749714	-0.008269	0.492946
	Zn227	Zn	0.250736	-0.008437	0.492909
	N228	N	0.414035	0.954620	0.671232
	N229	N	0.586322	0.028288	0.671433
	N230	N	0.585157	0.954893	0.314523
	N231	N	0.412931	0.028652	0.312790
	N232	N	0.679000	0.405632	0.955612
	N233	N	0.678510	0.576805	0.029893
	N234	N	0.322326	0.577051	0.956135
	N235	N	0.321086	0.405568	0.030080
	N236	N	0.962030	0.668423	0.409127
	N237	N	0.037526	0.669531	0.578090
	N238	N	0.962694	0.315832	0.576139
	N239	N	0.038157	0.313355	0.406786
	N240	N	0.963363	0.406339	0.671057
	N241	N	0.036918	0.578951	0.672659
	N242	N	0.962866	0.577022	0.315194
	N243	N	0.037589	0.405172	0.313098
	N244	N	0.415150	0.670321	0.956068
	N245	N	0.586169	0.670793	0.029667
	N246	N	0.585914	0.313131	0.955676
	N247	N	0.414581	0.312461	0.029977
	N248	N	0.676974	0.954502	0.408262
	N249	N	0.677447	0.028878	0.577815
	N250	N	0.323359	0.953841	0.576726
	N251	N	0.323075	0.029765	0.408272
	N252	N	0.913630	0.454592	0.172024
	N253	N	0.086101	0.529140	0.171801
	N254	N	0.086318	0.455233	0.814234
	N255	N	0.913508	0.528688	0.814266
	N256	N	0.178326	0.906069	0.455407
	N257	N	0.179044	0.077718	0.530356
	N258	N	0.821727	0.077123	0.456055
	N259	N	0.821175	0.906181	0.530219
	N260	N	0.463072	0.167974	0.908676
	N261	N	0.538736	0.168576	0.077351
	N262	N	0.463449	0.815519	0.076599
	N263	N	0.538227	0.813959	0.907196
	N264	N	0.463747	0.906012	0.170856
	N265	N	0.537746	0.078592	0.172562
	N266	N	0.463682	0.076922	0.814080
	N267	N	0.537480	0.904854	0.812963
	N268	N	0.914307	0.170588	0.456367
	N269	N	0.085823	0.170848	0.530408
	N270	N	0.085157	0.812603	0.455660
	N271	N	0.914114	0.813234	0.530286
	N272	N	0.177377	0.454164	0.908245
	N273	N	0.177907	0.529351	0.078355
	N274	N	0.823580	0.453599	0.076544
	N275	N	0.822580	0.529098	0.908518
	O276	O	1.114069	0.047229	1.030584
	H277	H	1.114945	0.060297	1.028599
	H278	H	1.113379	0.044959	1.026053
	O279	O	0.109938	1.055977	1.076392
	H280	H	0.108219	1.054611	1.078140
	H281	H	0.122525	1.052673	1.074237
	O282	O	1.134541	1.042869	0.061957
	H283	H	1.140327	1.053625	0.054989
	H284	H	1.143896	1.033414	0.071575
	O285	O	0.112647	1.064097	1.060346
	H286	H	0.108214	1.059817	1.066547
	H287	H	0.115871	1.070354	1.067483
