data_Molecule from HDF5

_cell_length_a		16.158938
_cell_length_b		16.264879
_cell_length_c		16.322193
_cell_angle_alpha	90.283839
_cell_angle_beta	89.829228
_cell_angle_gamma	89.921739
_symmetry_space_group_name_H-M	'P 1'
_symmetry_Int_Tables_number		1

loop_
	_symmetry_equiv_pos_as_xyz
	x,y,z

loop_
	_atom_site_label
	_atom_site_type_symbol
	_atom_site_fract_x
	_atom_site_fract_y
	_atom_site_fract_z
	H0	H	0.405894	0.835325	0.715212
	H1	H	0.606144	0.162140	0.718883
	H2	H	0.607177	0.836648	0.283586
	H3	H	0.405463	0.163327	0.286688
	H4	H	0.720081	0.400377	0.838418
	H5	H	0.720625	0.599527	0.165035
	H6	H	0.291658	0.597193	0.838322
	H7	H	0.292005	0.404108	0.164956
	H8	H	0.841186	0.713546	0.403192
	H9	H	0.170185	0.714532	0.598705
	H10	H	0.840716	0.287033	0.599649
	H11	H	0.170648	0.284817	0.401205
	H12	H	0.842101	0.401482	0.715865
	H13	H	0.170617	0.601560	0.716098
	H14	H	0.841397	0.599102	0.287858
	H15	H	0.171030	0.400053	0.285724
	H16	H	0.406453	0.713768	0.837753
	H17	H	0.605571	0.716714	0.164420
	H18	H	0.606611	0.282601	0.839723
	H19	H	0.404922	0.286186	0.165138
	H20	H	0.721020	0.835932	0.401270
	H21	H	0.717293	0.164558	0.598500
	H22	H	0.291993	0.835560	0.597752
	H23	H	0.292678	0.164744	0.405593
	H24	H	0.905091	0.336828	0.216598
	H25	H	0.104837	0.662858	0.217698
	H26	H	0.107873	0.336864	0.783643
	H27	H	0.907302	0.663740	0.787983
	H28	H	0.220926	0.901992	0.338034
	H29	H	0.217808	0.098280	0.665734
	H30	H	0.791737	0.097377	0.337569
	H31	H	0.790720	0.903326	0.664767
	H32	H	0.340635	0.212706	0.906040
	H33	H	0.670589	0.212143	0.099647
	H34	H	0.340567	0.786662	0.098502
	H35	H	0.670448	0.784598	0.901894
	H36	H	0.340854	0.900676	0.215532
	H37	H	0.669553	0.099035	0.216966
	H38	H	0.340482	0.097119	0.789549
	H39	H	0.669395	0.897306	0.784673
	H40	H	0.907489	0.214548	0.337986
	H41	H	0.104697	0.216751	0.664401
	H42	H	0.105978	0.784148	0.337810
	H43	H	0.904367	0.785309	0.663840
	H44	H	0.219833	0.335383	0.903022
	H45	H	0.218803	0.664150	0.099691
	H46	H	0.793349	0.335532	0.097336
	H47	H	0.791923	0.663221	0.905020
	H48	H	0.410386	0.114320	0.587692
	H49	H	0.594422	0.885899	0.586576
	H50	H	0.598476	0.116846	0.407147
	H51	H	0.416935	0.884754	0.406850
	H52	H	0.603319	0.395858	0.123166
	H53	H	0.591969	0.584781	0.889607
	H54	H	0.418047	0.601463	0.118308
	H55	H	0.411496	0.401643	0.883755
	H56	H	0.122826	0.591162	0.408256
	H57	H	0.886710	0.584340	0.609581
	H58	H	0.126299	0.410466	0.604654
	H59	H	0.887174	0.397725	0.411443
	H60	H	0.125113	0.396021	0.586944
	H61	H	0.884405	0.608937	0.593874
	H62	H	0.124003	0.593227	0.406643
	H63	H	0.892526	0.413901	0.415537
	H64	H	0.404154	0.593876	0.120113
	H65	H	0.594983	0.601629	0.883627
	H66	H	0.606386	0.415770	0.117227
	H67	H	0.412158	0.409497	0.885301
	H68	H	0.593976	0.115371	0.407956
	H69	H	0.604245	0.881529	0.593076
	H70	H	0.405005	0.120733	0.602694
	H71	H	0.411359	0.883428	0.410595
	H72	H	0.908452	0.618965	0.099982
	H73	H	0.093250	0.384213	0.095071
	H74	H	0.098493	0.616809	0.907448
	H75	H	0.922841	0.385018	0.907746
	H76	H	0.101227	0.906371	0.618249
	H77	H	0.097031	0.090395	0.386807
	H78	H	0.907374	0.092872	0.618079
	H79	H	0.908040	0.908826	0.385327
	H80	H	0.623531	0.090703	0.908696
	H81	H	0.386454	0.095460	0.098191
	H82	H	0.621978	0.913206	0.094997
	H83	H	0.384265	0.895637	0.905248
	H84	H	0.625128	0.903891	0.097014
	H85	H	0.388412	0.094181	0.091912
	H86	H	0.623952	0.091567	0.907440
	H87	H	0.391700	0.908597	0.919202
	H88	H	0.916042	0.091354	0.616136
	H89	H	0.098834	0.096907	0.384007
	H90	H	0.096787	0.908985	0.617054
	H91	H	0.917894	0.909185	0.386824
	H92	H	0.098007	0.616333	0.907822
	H93	H	0.100713	0.384342	0.089222
	H94	H	0.918885	0.616017	0.098377
	H95	H	0.907384	0.382338	0.912743
	H96	H	0.421232	0.115615	0.600849
	H97	H	0.592976	0.883162	0.599064
	H98	H	0.597658	0.116197	0.411139
	H99	H	0.411371	0.881700	0.404318
	H100	H	0.587719	0.407725	0.115451
	H101	H	0.609051	0.589847	0.883447
	H102	H	0.416841	0.585854	0.114118
	H103	H	0.418372	0.404659	0.886651
	H104	H	0.123480	0.593109	0.409772
	H105	H	0.895236	0.584511	0.581451
	H106	H	0.118350	0.417931	0.585176
	H107	H	0.886916	0.410949	0.399187
	H108	H	0.912159	0.616007	0.090374
	H109	H	0.101616	0.381412	0.098303
	H110	H	0.099117	0.616111	0.908159
	H111	H	0.911394	0.379344	0.896931
	H112	H	0.096393	0.904198	0.617694
	H113	H	0.103845	0.091534	0.384671
	H114	H	0.912868	0.098993	0.618548
	H115	H	0.914263	0.900404	0.383427
	H116	H	0.623487	0.091922	0.909485
	H117	H	0.388139	0.089130	0.096490
	H118	H	0.620823	0.906644	0.088082
	H119	H	0.388127	0.915015	0.900904
	C120	C	0.383782	0.008112	0.624042
	C121	C	0.626410	0.991430	0.622449
	C122	C	0.626869	0.007987	0.379366
	C123	C	0.384262	0.991611	0.379944
	C124	C	0.628215	0.377245	0.010695
	C125	C	0.627481	0.621159	0.993575
	C126	C	0.384033	0.621523	0.009546
	C127	C	0.384647	0.377872	0.993110
	C128	C	0.014503	0.621129	0.379977
	C129	C	0.997381	0.621663	0.622993
	C130	C	0.014330	0.379318	0.621504
	C131	C	0.997789	0.378321	0.379482
	C132	C	0.884516	0.508488	0.123381
	C133	C	0.127318	0.491236	0.123032
	C134	C	0.127966	0.508279	0.878736
	C135	C	0.884863	0.490872	0.879039
	C136	C	0.127396	0.878113	0.509582
	C137	C	0.127563	0.121880	0.493112
	C138	C	0.883789	0.122584	0.509760
	C139	C	0.883670	0.877818	0.492693
	C140	C	0.514369	0.120050	0.881290
	C141	C	0.496697	0.121498	0.123994
	C142	C	0.514057	0.878453	0.122444
	C143	C	0.496913	0.877389	0.879549
	C144	C	0.385839	0.884523	0.677901
	C145	C	0.625160	0.113938	0.679419
	C146	C	0.626572	0.885483	0.322392
	C147	C	0.386258	0.114998	0.325818
	C148	C	0.682966	0.379568	0.887423
	C149	C	0.682750	0.619610	0.116027
	C150	C	0.329316	0.617862	0.886779
	C151	C	0.329104	0.381990	0.116180
	C152	C	0.890423	0.675967	0.382782
	C153	C	0.121251	0.676853	0.619912
	C154	C	0.890241	0.324477	0.619653
	C155	C	0.121668	0.322885	0.381194
	C156	C	0.890822	0.381435	0.677484
	C157	C	0.121231	0.620820	0.678342
	C158	C	0.890594	0.619022	0.325434
	C159	C	0.121556	0.379852	0.323413
	C160	C	0.386485	0.675783	0.886535
	C161	C	0.625661	0.678092	0.115848
	C162	C	0.626446	0.321069	0.888244
	C163	C	0.385730	0.323705	0.116047
	C164	C	0.683125	0.885062	0.381085
	C165	C	0.680609	0.115065	0.619778
	C166	C	0.329540	0.884517	0.619291
	C167	C	0.329995	0.115459	0.384686
	C168	C	0.885843	0.385443	0.178095
	C169	C	0.125423	0.614341	0.179197
	C170	C	0.127301	0.385464	0.822310
	C171	C	0.886757	0.614570	0.825274
	C172	C	0.182961	0.880754	0.386687
	C173	C	0.180935	0.119049	0.616761
	C174	C	0.828889	0.119084	0.386518
	C175	C	0.828401	0.881902	0.615827
	C176	C	0.389911	0.174953	0.884877
	C177	C	0.621043	0.175335	0.120733
	C178	C	0.389843	0.823960	0.119679
	C179	C	0.621055	0.822192	0.881626
	C180	C	0.390030	0.880618	0.177656
	C181	C	0.620554	0.118995	0.178751
	C182	C	0.389743	0.117399	0.827286
	C183	C	0.620532	0.878179	0.823430
	C184	C	0.886538	0.177092	0.386724
	C185	C	0.124663	0.177968	0.615998
	C186	C	0.125813	0.822459	0.386591
	C187	C	0.884834	0.823087	0.615428
	C188	C	0.183049	0.384792	0.881634
	C189	C	0.181383	0.615188	0.120057
	C190	C	0.830158	0.384785	0.118955
	C191	C	0.829358	0.614149	0.883210
	C192	C	0.405805	0.094458	0.603379
	C193	C	0.603827	0.905674	0.599611
	C194	C	0.603645	0.094071	0.402032
	C195	C	0.406776	0.905526	0.400978
	C196	C	0.605808	0.399935	0.096528
	C197	C	0.605227	0.598652	0.907811
	C198	C	0.406378	0.600133	0.095263
	C199	C	0.407312	0.398999	0.907451
	C200	C	0.101051	0.599056	0.401863
	C201	C	0.911065	0.599198	0.601276
	C202	C	0.100828	0.401553	0.598800
	C203	C	0.911343	0.400959	0.402059
	C204	C	0.906650	0.594772	0.102469
	C205	C	0.105129	0.405495	0.100642
	C206	C	0.105386	0.594159	0.901186
	C207	C	0.907205	0.404497	0.899599
	C208	C	0.104774	0.900085	0.595409
	C209	C	0.106223	0.099656	0.407318
	C210	C	0.905646	0.100859	0.595401
	C211	C	0.906666	0.899616	0.407176
	C212	C	0.601118	0.097997	0.902271
	C213	C	0.409944	0.099154	0.102296
	C214	C	0.600228	0.901093	0.100044
	C215	C	0.410466	0.899838	0.902030
	Zn216	Zn	0.505450	-0.001342	0.752294
	Zn217	Zn	0.505423	-0.000140	0.250783
	Zn218	Zn	0.756840	0.499117	0.001706
	Zn219	Zn	0.255558	0.499585	0.001548
	Zn220	Zn	0.005367	0.749434	0.501419
	Zn221	Zn	0.006269	0.250770	0.500970
	Zn222	Zn	0.006577	0.500030	0.750430
	Zn223	Zn	0.005689	0.500004	0.252151
	Zn224	Zn	0.505772	0.750307	0.000905
	Zn225	Zn	0.505933	0.248926	0.002719
	Zn226	Zn	0.755446	0.000325	0.501009
	Zn227	Zn	0.255857	0.000256	0.501898
	N228	N	0.418683	0.962545	0.681114
	N229	N	0.592071	0.036045	0.681175
	N230	N	0.592169	0.962948	0.321342
	N231	N	0.419184	0.037001	0.322519
	N232	N	0.684251	0.413896	0.964676
	N233	N	0.683991	0.585050	0.039010
	N234	N	0.327658	0.584948	0.964151
	N235	N	0.328179	0.415171	0.038818
	N236	N	0.968428	0.677341	0.416191
	N237	N	0.043516	0.677528	0.586130
	N238	N	0.968224	0.323190	0.585609
	N239	N	0.043600	0.321639	0.415040
	N240	N	0.969014	0.414746	0.678747
	N241	N	0.043129	0.587142	0.680544
	N242	N	0.968791	0.585611	0.323622
	N243	N	0.043538	0.413767	0.322340
	N244	N	0.419816	0.678292	0.964056
	N245	N	0.591945	0.679266	0.038456
	N246	N	0.593125	0.319547	0.965879
	N247	N	0.419533	0.321081	0.038603
	N248	N	0.683289	0.962297	0.415805
	N249	N	0.681567	0.037881	0.584960
	N250	N	0.327985	0.962326	0.586575
	N251	N	0.328810	0.037752	0.417555
	N252	N	0.918775	0.463440	0.180952
	N253	N	0.092564	0.536608	0.181129
	N254	N	0.094028	0.463299	0.820290
	N255	N	0.920394	0.536841	0.822423
	N256	N	0.184100	0.914397	0.464055
	N257	N	0.182729	0.084732	0.539530
	N258	N	0.827174	0.085767	0.463904
	N259	N	0.827518	0.914909	0.538526
	N260	N	0.468232	0.176802	0.917518
	N261	N	0.543032	0.176896	0.087357
	N262	N	0.467921	0.822431	0.086139
	N263	N	0.543105	0.821347	0.915610
	N264	N	0.468242	0.914021	0.179485
	N265	N	0.542169	0.086002	0.180563
	N266	N	0.468148	0.083966	0.824745
	N267	N	0.542303	0.911947	0.822156
	N268	N	0.919819	0.179255	0.464115
	N269	N	0.092278	0.179827	0.538101
	N270	N	0.091869	0.820509	0.464172
	N271	N	0.918409	0.820342	0.537845
	N272	N	0.183543	0.462139	0.916167
	N273	N	0.182845	0.537638	0.085925
	N274	N	0.829257	0.462277	0.085756
	N275	N	0.828508	0.536437	0.916144
	O276	O	0.505904	0.524504	0.424752
	H277	H	0.504078	0.531547	0.427727
	H278	H	0.505807	0.528342	0.423535
	O279	O	0.482386	0.541063	0.551296
	H280	H	0.492639	0.528163	0.556290
	H281	H	0.467786	0.527144	0.556698
	O282	O	0.543840	0.539482	0.511632
	H283	H	0.562120	0.547713	0.523501
	H284	H	0.541138	0.530916	0.512806
	O285	O	0.041274	0.994941	0.999376
	H286	H	0.040684	0.988310	1.001580
	H287	H	0.053355	1.003911	0.995534
	O288	O	0.482678	0.502047	0.563673
	H289	H	0.468291	0.503404	0.556611
	H290	H	0.480201	0.503544	0.560968
	O291	O	-0.531758	0.408915	0.536726
	H292	H	-0.521634	0.399784	0.527652
	H293	H	-0.537672	0.425521	0.530412
	O294	O	0.445813	0.504836	0.524354
	H295	H	0.442949	0.503776	0.535378
	H296	H	0.459230	0.502818	0.518083
	O297	O	0.549935	0.495487	0.368916
	H298	H	0.551049	0.489684	0.368904
	H299	H	0.551124	0.499592	0.372085
	O300	O	0.528774	0.510146	0.475615
	H301	H	0.537726	0.518116	0.472084
	H302	H	0.524250	0.509260	0.471174
	O303	O	0.424044	0.466865	0.430927
	H304	H	0.419849	0.479559	0.429648
	H305	H	0.405310	0.458390	0.433398
	O306	O	0.538722	0.428892	1.486274
	H307	H	0.528603	0.427589	1.492291
	H308	H	0.521824	0.433335	1.493477
	O309	O	0.532344	0.619565	0.509613
	H310	H	0.544125	0.617679	0.500592
	H311	H	0.532059	0.624638	0.509998
	O312	O	0.580016	0.576972	0.542751
	H313	H	0.585499	0.581783	0.549973
	H314	H	0.592096	0.582846	0.535852
	O315	O	1.016856	-0.025718	0.986334
	H316	H	1.014062	-0.030559	0.983672
	H317	H	1.012311	-0.026711	0.990500
	O318	O	-0.482431	-0.579190	-0.414309
	H319	H	-0.476177	-0.571199	-0.420576
	H320	H	-0.480211	-0.578578	-0.404691
	O321	O	0.629533	0.423826	0.485912
	H322	H	0.627930	0.416452	0.497679
	H323	H	0.630788	0.423294	0.486966
	O324	O	1.018662	-0.013796	-0.014887
	H325	H	1.016378	-0.012213	-0.012738
	H326	H	1.025989	-0.002237	-0.019123
	O327	O	1.029262	1.018375	0.032991
	H328	H	1.030928	1.020157	0.038905
	H329	H	1.031019	1.010494	0.033441
	O330	O	0.420512	0.396834	0.499877
	H331	H	0.424489	0.390680	0.499315
	H332	H	0.419348	0.408055	0.497427
	O333	O	0.423010	0.571110	0.538884
	H334	H	0.435553	0.572009	0.534137
	H335	H	0.427440	0.577184	0.534284
