data_Molecule from HDF5

_cell_length_a		16.699054
_cell_length_b		16.590123
_cell_length_c		16.633238
_cell_angle_alpha	90.044932
_cell_angle_beta	89.934123
_cell_angle_gamma	90.012828
_symmetry_space_group_name_H-M	'P 1'
_symmetry_Int_Tables_number		1

loop_
	_symmetry_equiv_pos_as_xyz
	x,y,z

loop_
	_atom_site_label
	_atom_site_type_symbol
	_atom_site_fract_x
	_atom_site_fract_y
	_atom_site_fract_z
	H0	H	0.398617	0.843360	0.709603
	H1	H	0.605560	0.155656	0.714226
	H2	H	0.604490	0.844587	0.271914
	H3	H	0.395513	0.156725	0.272433
	H4	H	0.719474	0.396257	0.838235
	H5	H	0.719650	0.606586	0.148864
	H6	H	0.277190	0.605745	0.838196
	H7	H	0.275741	0.393035	0.146982
	H8	H	0.846826	0.724017	0.387016
	H9	H	0.152996	0.725191	0.604163
	H10	H	0.845385	0.275830	0.601159
	H11	H	0.154824	0.281157	0.389917
	H12	H	0.845591	0.391152	0.718633
	H13	H	0.152721	0.608678	0.719290
	H14	H	0.848439	0.610916	0.268616
	H15	H	0.153261	0.394738	0.271196
	H16	H	0.394438	0.721104	0.836906
	H17	H	0.600922	0.720802	0.148730
	H18	H	0.602588	0.281169	0.837459
	H19	H	0.392591	0.277978	0.147620
	H20	H	0.720636	0.844428	0.387808
	H21	H	0.722890	0.155077	0.599559
	H22	H	0.280977	0.844154	0.596009
	H23	H	0.280738	0.157821	0.389938
	H24	H	0.890816	0.346577	0.218250
	H25	H	0.105311	0.654871	0.214675
	H26	H	0.105520	0.345983	0.769628
	H27	H	0.894134	0.655727	0.772710
	H28	H	0.220099	0.896425	0.338500
	H29	H	0.218799	0.103928	0.649924
	H30	H	0.777928	0.106754	0.338842
	H31	H	0.776953	0.893443	0.647593
	H32	H	0.345592	0.222378	0.885810
	H33	H	0.653520	0.222023	0.097561
	H34	H	0.344618	0.779473	0.096926
	H35	H	0.654781	0.777899	0.886555
	H36	H	0.344996	0.895257	0.214097
	H37	H	0.652036	0.108088	0.216257
	H38	H	0.344465	0.103909	0.772283
	H39	H	0.654978	0.893910	0.770662
	H40	H	0.896440	0.220520	0.338083
	H41	H	0.102095	0.219949	0.650290
	H42	H	0.104183	0.780520	0.338488
	H43	H	0.894046	0.778769	0.648752
	H44	H	0.224867	0.347850	0.881985
	H45	H	0.220291	0.654705	0.098012
	H46	H	0.774854	0.346172	0.102645
	H47	H	0.778868	0.656234	0.888432
	H48	H	0.408954	0.112727	0.579338
	H49	H	0.592923	0.885624	0.586549
	H50	H	0.585378	0.108745	0.406521
	H51	H	0.413885	0.890209	0.402810
	H52	H	0.587725	0.409766	0.106285
	H53	H	0.594112	0.584934	0.881597
	H54	H	0.410571	0.589110	0.103588
	H55	H	0.409114	0.418184	0.883174
	H56	H	0.111510	0.590730	0.407294
	H57	H	0.888984	0.590072	0.583266
	H58	H	0.107110	0.410795	0.577039
	H59	H	0.889250	0.413121	0.406552
	H60	H	0.108111	0.417603	0.583864
	H61	H	0.890109	0.589046	0.579843
	H62	H	0.109699	0.585696	0.406621
	H63	H	0.888351	0.413154	0.402893
	H64	H	0.410163	0.590298	0.104674
	H65	H	0.584088	0.586609	0.883906
	H66	H	0.589081	0.411291	0.105585
	H67	H	0.416524	0.411838	0.884001
	H68	H	0.591080	0.111385	0.407824
	H69	H	0.581293	0.890757	0.582679
	H70	H	0.405800	0.115169	0.586009
	H71	H	0.405717	0.888906	0.407781
	H72	H	0.912464	0.608893	0.076232
	H73	H	0.084688	0.391134	0.075554
	H74	H	0.086057	0.610439	0.907361
	H75	H	0.912950	0.389539	0.905631
	H76	H	0.095024	0.912948	0.607416
	H77	H	0.086222	0.085222	0.384004
	H78	H	0.913937	0.091976	0.605516
	H79	H	0.913001	0.913750	0.384302
	H80	H	0.610529	0.087529	0.901055
	H81	H	0.388206	0.088938	0.081328
	H82	H	0.610826	0.913712	0.084828
	H83	H	0.389349	0.910786	0.901688
	H84	H	0.611454	0.907751	0.083093
	H85	H	0.388459	0.088373	0.082340
	H86	H	0.611779	0.092453	0.903455
	H87	H	0.389517	0.910303	0.902127
	H88	H	0.905554	0.087386	0.606673
	H89	H	0.088977	0.098141	0.379605
	H90	H	0.088006	0.916133	0.604256
	H91	H	0.912606	0.910488	0.382585
	H92	H	0.086159	0.610825	0.907189
	H93	H	0.091366	0.387014	0.081534
	H94	H	0.903291	0.613938	0.081841
	H95	H	0.907442	0.388901	0.908932
	H96	H	0.413361	0.113229	0.585536
	H97	H	0.591440	0.890580	0.574275
	H98	H	0.588509	0.112368	0.401903
	H99	H	0.406480	0.885962	0.398852
	H100	H	0.586966	0.411962	0.105076
	H101	H	0.589948	0.593719	0.879389
	H102	H	0.408827	0.588958	0.102961
	H103	H	0.408284	0.408789	0.880527
	H104	H	0.111607	0.588319	0.402808
	H105	H	0.890149	0.586397	0.582288
	H106	H	0.110711	0.408624	0.585155
	H107	H	0.887731	0.410104	0.404570
	H108	H	0.913715	0.612231	0.087934
	H109	H	0.082597	0.388644	0.084652
	H110	H	0.085965	0.609780	0.907045
	H111	H	0.907782	0.386632	0.902554
	H112	H	0.088072	0.907833	0.606659
	H113	H	0.098609	0.088708	0.379760
	H114	H	0.912733	0.083510	0.601519
	H115	H	0.910110	0.913015	0.382026
	H116	H	0.609548	0.088466	0.906544
	H117	H	0.387633	0.088927	0.082753
	H118	H	0.609915	0.911689	0.079093
	H119	H	0.389194	0.911007	0.902619
	C120	C	0.379044	0.009330	0.613827
	C121	C	0.621280	0.991744	0.613952
	C122	C	0.620475	0.008281	0.372405
	C123	C	0.378123	0.992273	0.372001
	C124	C	0.620187	0.379056	0.002455
	C125	C	0.620672	0.621477	0.984548
	C126	C	0.377641	0.621691	0.000872
	C127	C	0.377860	0.379380	0.984430
	C128	C	0.009410	0.622028	0.372512
	C129	C	0.991446	0.621844	0.615689
	C130	C	0.007031	0.378906	0.615270
	C131	C	0.990692	0.379381	0.372149
	C132	C	0.876594	0.509389	0.115885
	C133	C	0.119251	0.491509	0.113272
	C134	C	0.119854	0.508776	0.872475
	C135	C	0.877691	0.491451	0.873023
	C136	C	0.121541	0.880010	0.502908
	C137	C	0.121578	0.122035	0.485234
	C138	C	0.878663	0.120702	0.502009
	C139	C	0.878970	0.879318	0.485276
	C140	C	0.508315	0.121586	0.871466
	C141	C	0.490570	0.121728	0.114136
	C142	C	0.508265	0.879248	0.114157
	C143	C	0.491958	0.878445	0.870509
	C144	C	0.379223	0.890594	0.670786
	C145	C	0.623944	0.108921	0.674149
	C146	C	0.622659	0.891306	0.312012
	C147	C	0.377169	0.110060	0.312869
	C148	C	0.679823	0.377625	0.885142
	C149	C	0.679527	0.624485	0.102006
	C150	C	0.317456	0.624248	0.884657
	C151	C	0.316418	0.375321	0.100694
	C152	C	0.893496	0.683838	0.368955
	C153	C	0.106805	0.684119	0.620830
	C154	C	0.891510	0.316804	0.618825
	C155	C	0.107772	0.320265	0.370896
	C156	C	0.891606	0.374190	0.677272
	C157	C	0.106551	0.626120	0.678248
	C158	C	0.894201	0.627362	0.310071
	C159	C	0.107098	0.376864	0.312039
	C160	C	0.375931	0.681396	0.883950
	C161	C	0.620856	0.681372	0.102028
	C162	C	0.621540	0.320548	0.884516
	C163	C	0.374315	0.317953	0.100927
	C164	C	0.680206	0.891133	0.369797
	C165	C	0.682111	0.108560	0.617094
	C166	C	0.320644	0.891330	0.614460
	C167	C	0.320003	0.110437	0.371097
	C168	C	0.872762	0.393279	0.177925
	C169	C	0.122794	0.608280	0.173910
	C170	C	0.123777	0.392604	0.810033
	C171	C	0.875730	0.608738	0.812739
	C172	C	0.180457	0.877983	0.385282
	C173	C	0.179545	0.123027	0.603106
	C174	C	0.818257	0.124457	0.385282
	C175	C	0.817730	0.875849	0.601345
	C176	C	0.391768	0.181662	0.868378
	C177	C	0.606844	0.182322	0.116378
	C178	C	0.391107	0.819826	0.115529
	C179	C	0.608218	0.818025	0.868390
	C180	C	0.391287	0.877270	0.173748
	C181	C	0.606315	0.125395	0.174972
	C182	C	0.391455	0.122842	0.811771
	C183	C	0.608343	0.875706	0.810536
	C184	C	0.877414	0.180709	0.384843
	C185	C	0.121399	0.180244	0.603220
	C186	C	0.122775	0.820374	0.385510
	C187	C	0.875940	0.818733	0.601951
	C188	C	0.182695	0.393322	0.866128
	C189	C	0.180044	0.608194	0.116008
	C190	C	0.815249	0.392821	0.120312
	C191	C	0.818576	0.609086	0.870668
	C192	C	0.402923	0.092024	0.590330
	C193	C	0.595784	0.910124	0.588363
	C194	C	0.595390	0.089630	0.398034
	C195	C	0.401973	0.909885	0.396173
	C196	C	0.595106	0.403887	0.084412
	C197	C	0.596319	0.595837	0.903038
	C198	C	0.402791	0.596386	0.082578
	C199	C	0.403850	0.405480	0.903650
	C200	C	0.089853	0.595854	0.398434
	C201	C	0.910769	0.595768	0.589208
	C202	C	0.087701	0.405110	0.589391
	C203	C	0.909539	0.404841	0.397497
	C204	C	0.902417	0.590546	0.089667
	C205	C	0.093573	0.410144	0.087805
	C206	C	0.093384	0.589492	0.899495
	C207	C	0.902386	0.409765	0.898580
	C208	C	0.097300	0.905121	0.584651
	C209	C	0.098158	0.097704	0.402877
	C210	C	0.903652	0.094878	0.583197
	C211	C	0.904637	0.905045	0.404148
	C212	C	0.589340	0.096696	0.896589
	C213	C	0.409206	0.096085	0.089167
	C214	C	0.589642	0.904032	0.089367
	C215	C	0.410455	0.903548	0.895106
	Zn216	Zn	0.500198	-0.000124	0.742375
	Zn217	Zn	0.499491	0.000176	0.243204
	Zn218	Zn	0.749145	0.500400	-0.005755
	Zn219	Zn	0.248754	0.499904	-0.007262
	Zn220	Zn	0.000921	0.750711	0.494469
	Zn221	Zn	-0.000303	0.250127	0.493716
	Zn222	Zn	-0.001194	0.500121	0.744614
	Zn223	Zn	-0.000632	0.500498	0.243057
	Zn224	Zn	0.499112	0.750530	-0.007569
	Zn225	Zn	0.498527	0.250630	-0.007179
	Zn226	Zn	0.749581	-0.000124	0.492746
	Zn227	Zn	0.250235	0.001307	0.493510
	N228	N	0.414821	0.965189	0.670777
	N229	N	0.586868	0.035123	0.672479
	N230	N	0.586236	0.965355	0.313376
	N231	N	0.412680	0.035386	0.313127
	N232	N	0.679380	0.413040	0.959829
	N233	N	0.679596	0.588145	0.027997
	N234	N	0.318258	0.587995	0.958711
	N235	N	0.318288	0.412713	0.027242
	N236	N	0.966200	0.680861	0.407076
	N237	N	0.034162	0.681521	0.582408
	N238	N	0.964338	0.319586	0.580973
	N239	N	0.034197	0.321592	0.407602
	N240	N	0.964493	0.412395	0.675024
	N241	N	0.033763	0.587641	0.675088
	N242	N	0.967237	0.589558	0.311911
	N243	N	0.033194	0.412946	0.312477
	N244	N	0.412525	0.680101	0.957595
	N245	N	0.584762	0.679657	0.027934
	N246	N	0.585370	0.320908	0.958757
	N247	N	0.411846	0.320108	0.027549
	N248	N	0.679175	0.965080	0.406431
	N249	N	0.680624	0.034554	0.580441
	N250	N	0.320075	0.966426	0.580034
	N251	N	0.320488	0.036072	0.407121
	N252	N	0.910314	0.466908	0.175350
	N253	N	0.085722	0.534597	0.172474
	N254	N	0.085176	0.465388	0.813915
	N255	N	0.911692	0.534478	0.813851
	N256	N	0.179979	0.914441	0.459328
	N257	N	0.180050	0.087858	0.528385
	N258	N	0.818676	0.088023	0.459337
	N259	N	0.819351	0.912777	0.527504
	N260	N	0.465430	0.181250	0.904818
	N261	N	0.533586	0.180296	0.079254
	N262	N	0.464735	0.820811	0.079103
	N263	N	0.534618	0.819401	0.904758
	N264	N	0.465362	0.913327	0.173253
	N265	N	0.532904	0.088258	0.173720
	N266	N	0.465160	0.086459	0.812954
	N267	N	0.534807	0.912541	0.811626
	N268	N	0.914251	0.178709	0.458346
	N269	N	0.086266	0.180083	0.528634
	N270	N	0.087092	0.821288	0.459812
	N271	N	0.913258	0.820446	0.528505
	N272	N	0.180460	0.466681	0.904285
	N273	N	0.178119	0.534379	0.079067
	N274	N	0.817223	0.466194	0.082546
	N275	N	0.819235	0.534924	0.907288
	O276	O	0.220237	1.222123	0.216677
	H277	H	0.212278	1.205304	0.205239
	H278	H	0.182392	1.218794	0.216037
	O279	O	-0.057184	0.045790	-0.009665
	H280	H	-0.072669	0.041149	-0.000848
	H281	H	-0.056052	0.039450	-0.021026
	O282	O	1.042817	0.217845	1.211178
	H283	H	1.014524	0.205645	1.198179
	H284	H	1.032619	0.243907	1.231492
	O285	O	0.615702	0.308542	0.441537
	H286	H	0.615103	0.295183	0.455391
	H287	H	0.588726	0.308507	0.436409
	O288	O	0.678673	0.725912	0.319478
	H289	H	0.701742	0.714563	0.334072
	H290	H	0.656360	0.715808	0.332040
	O291	O	0.276179	0.277302	0.529571
	H292	H	0.257518	0.258712	0.538788
	H293	H	0.267059	0.283792	0.533105
	O294	O	1.043405	-0.070302	0.974992
	H295	H	1.047088	-0.067055	0.975626
	H296	H	1.037717	-0.084031	0.974195
	O297	O	0.724631	0.487772	0.277019
	H298	H	0.715299	0.465418	0.276195
	H299	H	0.739776	0.472479	0.256405
	O300	O	-0.025112	0.212176	0.778389
	H301	H	-0.045946	0.209691	0.779782
	H302	H	-0.045224	0.227731	0.767903
	O303	O	0.691626	0.724217	0.511120
	H304	H	0.716275	0.743212	0.500745
	H305	H	0.688082	0.701010	0.499423
	O306	O	0.586796	0.560681	0.510659
	H307	H	0.596578	0.566324	0.514088
	H308	H	0.588809	0.565404	0.506849
	O309	O	0.312219	0.690600	0.680474
	H310	H	0.328465	0.670010	0.666055
	H311	H	0.331486	0.675107	0.658304
	O312	O	0.531604	0.720458	0.715686
	H313	H	0.550604	0.734740	0.734433
	H314	H	0.549789	0.724607	0.727105
	O315	O	1.083303	0.998449	0.888214
	H316	H	1.068408	0.981371	0.894116
	H317	H	1.084013	1.000700	0.896085
	O318	O	0.362975	0.428279	0.286689
	H319	H	0.351463	0.435633	0.286272
	H320	H	0.339968	0.439574	0.279923
	O321	O	0.213610	0.789711	0.782504
	H322	H	0.212225	0.829503	0.780215
	H323	H	0.245250	0.759434	0.748901
	O324	O	0.973574	0.768689	-0.039683
	H325	H	0.977880	0.765522	-0.052671
	H326	H	0.976470	0.768675	-0.029233
	O327	O	-0.036867	0.124930	0.924147
	H328	H	-0.032976	0.121603	0.931371
	H329	H	-0.060961	0.128708	0.932945
	O330	O	0.736459	0.554481	0.454360
	H331	H	0.735454	0.535290	0.452829
	H332	H	0.738793	0.532990	0.446798
	O333	O	0.675973	0.317401	0.677137
	H334	H	0.666142	0.321931	0.669762
	H335	H	0.651437	0.326216	0.666463
	O336	O	0.563715	0.478794	0.279697
	H337	H	0.557931	0.458566	0.284412
	H338	H	0.553548	0.484303	0.272018
	O339	O	1.092348	-0.110924	0.943436
	H340	H	1.100906	-0.107500	0.951754
	H341	H	1.094049	-0.107020	0.934486
	O342	O	-0.231947	0.069310	0.019958
	H343	H	-0.229146	0.057264	0.027149
	H344	H	-0.233939	0.053836	0.008223
	O345	O	-0.055302	0.951960	0.885566
	H346	H	-0.039102	0.955861	0.896762
	H347	H	-0.055688	0.950953	0.878520
	O348	O	-0.066666	0.221529	0.072757
	H349	H	-0.065345	0.220462	0.066103
	H350	H	-0.070206	0.221143	0.069329
	O351	O	0.803065	0.814221	0.201247
	H352	H	0.788526	0.796000	0.208867
	H353	H	0.804136	0.795348	0.187336
	O354	O	0.190859	-0.189302	1.181517
	H355	H	0.173303	-0.169951	1.165073
	H356	H	0.171627	-0.169358	1.164847
	O357	O	0.537442	0.619566	0.534903
	H358	H	0.542149	0.624766	0.522020
	H359	H	0.538345	0.623379	0.530419
	O360	O	0.272514	0.271878	0.719267
	H361	H	0.281335	0.285465	0.719434
	H362	H	0.243916	0.251566	0.741603
	O363	O	0.212907	-0.215791	-0.038230
	H364	H	0.230062	-0.232057	-0.059227
	H365	H	0.209781	-0.221948	-0.059841
	O366	O	0.378223	0.546917	0.539926
	H367	H	0.374815	0.533099	0.541673
	H368	H	0.369568	0.535075	0.552713
	O369	O	0.707277	0.285284	0.285748
	H370	H	0.685805	0.292354	0.308231
	H371	H	0.683649	0.299077	0.297527
	O372	O	0.779609	0.779432	0.026090
	H373	H	0.775013	0.771568	0.031822
	H374	H	0.772341	0.767214	0.032179
	O375	O	0.771321	-0.022943	0.215734
	H376	H	0.784603	-0.047358	0.200928
	H377	H	0.738572	-0.033185	0.246790
	O378	O	0.453745	0.532413	0.444525
	H379	H	0.457103	0.540702	0.462259
	H380	H	0.449618	0.542373	0.453262
	O381	O	-0.046741	0.797939	0.792045
	H382	H	-0.053539	0.792100	0.784746
	H383	H	-0.032106	0.794431	0.790566
	O384	O	0.779978	0.027085	0.771592
	H385	H	0.770379	0.040817	0.759109
	H386	H	0.770445	0.035056	0.762314
	O387	O	1.092193	1.014545	-0.191251
	H388	H	1.084990	1.015180	-0.183202
	H389	H	1.078711	1.018662	-0.197639
	O390	O	0.565191	0.533654	0.325615
	H391	H	0.553538	0.523848	0.325547
	H392	H	0.547814	0.529230	0.339626
	O393	O	0.272607	0.535021	0.353341
	H394	H	0.274229	0.565469	0.360349
	H395	H	0.253925	0.554212	0.346811
	O396	O	0.216554	0.957871	0.774698
	H397	H	0.216057	0.967664	0.759593
	H398	H	0.213433	0.965509	0.770094
	O399	O	0.220615	-0.064071	1.010574
	H400	H	0.229728	-0.075357	0.992179
	H401	H	0.218650	-0.077634	1.011697
	O402	O	0.401423	0.333025	0.403840
	H403	H	0.398010	0.333443	0.390480
	H404	H	0.391261	0.348935	0.410448
	O405	O	1.016017	0.119172	1.123582
	H406	H	0.986626	0.127634	1.124151
	H407	H	1.013941	0.114010	1.126563
	O408	O	0.170031	0.165389	0.013364
	H409	H	0.180223	0.170456	0.023391
	H410	H	0.174913	0.163250	0.024692
	O411	O	0.710073	0.706276	0.701143
	H412	H	0.729250	0.728273	0.695508
	H413	H	0.711374	0.683649	0.681562
	O414	O	0.523851	0.367621	0.412929
	H415	H	0.510843	0.374626	0.414109
	H416	H	0.512310	0.361765	0.421131
	O417	O	0.488376	0.558302	0.683230
	H418	H	0.500541	0.568021	0.689057
	H419	H	0.501019	0.563152	0.682513
	O420	O	0.520333	0.284438	0.584191
	H421	H	0.505338	0.288863	0.575323
	H422	H	0.502814	0.281470	0.601089
	O423	O	-0.223391	0.222876	0.955183
	H424	H	-0.241095	0.249379	0.965806
	H425	H	-0.227450	0.204274	0.972324
	O426	O	0.282560	0.707492	0.285321
	H427	H	0.259371	0.740714	0.251952
	H428	H	0.331508	0.714676	0.278866
	O429	O	0.884179	0.891505	0.807615
	H430	H	0.896598	0.914844	0.806250
	H431	H	0.895973	0.894689	0.822396
	O432	O	0.514415	0.611685	0.488807
	H433	H	0.517963	0.623966	0.516154
	H434	H	0.506597	0.605614	0.487141
	O435	O	0.271752	0.718424	0.462942
	H436	H	0.255895	0.735088	0.436261
	H437	H	0.263648	0.725588	0.440636
	O438	O	0.379574	-0.583827	0.453635
	H439	H	0.378297	-0.594850	0.442495
	H440	H	0.368908	-0.587031	0.451294
	O441	O	-0.188873	0.188745	0.182829
	H442	H	-0.221100	0.209460	0.209450
	H443	H	-0.194969	0.172165	0.166919
	O444	O	0.357097	0.349197	0.308845
	H445	H	0.329236	0.349613	0.307144
	H446	H	0.346290	0.359448	0.302631
	O447	O	0.183090	1.082962	1.055123
	H448	H	0.157110	1.088135	1.048991
	H449	H	0.184059	1.071217	1.047705
	O450	O	0.003401	0.775514	1.031113
	H451	H	0.017449	0.775160	1.055272
	H452	H	-0.011375	0.772371	1.021232
	O453	O	0.355471	0.592190	0.546864
	H454	H	0.349429	0.580674	0.535835
	H455	H	0.352229	0.592893	0.530502
	O456	O	0.111517	0.232415	0.978960
	H457	H	0.122209	0.232903	0.977818
	H458	H	0.126868	0.243086	0.974527
	O459	O	0.984517	0.895225	0.216520
	H460	H	0.977237	0.908756	0.222013
	H461	H	0.968185	0.901624	0.229208
	O462	O	0.658430	0.306924	0.488443
	H463	H	0.648474	0.302119	0.505371
	H464	H	0.659752	0.294504	0.492056
	O465	O	0.767835	-0.067354	-0.055087
	H466	H	0.768554	-0.077824	-0.050176
	H467	H	0.779295	-0.076084	-0.071422
	O468	O	0.528687	0.441705	0.716704
	H469	H	0.527425	0.425639	0.712003
	H470	H	0.528073	0.456930	0.716333
	O471	O	0.284619	0.467260	0.705132
	H472	H	0.287039	0.470838	0.708644
	H473	H	0.268748	0.459048	0.712312
	O474	O	0.449518	0.711579	0.280611
	H475	H	0.469239	0.716411	0.274905
	H476	H	0.467015	0.711161	0.281634
	O477	O	0.511895	0.614647	1.422352
	H478	H	0.509620	0.615986	1.452446
	H479	H	0.507436	0.603302	1.419218
	O480	O	0.432849	0.288335	0.703668
	H481	H	0.422919	0.264028	0.726817
	H482	H	0.409001	0.295671	0.689910
	O483	O	0.720274	0.532587	0.712186
	H484	H	0.729686	0.545597	0.718660
	H485	H	0.730857	0.525946	0.716529
	O486	O	0.792206	0.206267	0.786289
	H487	H	0.795615	0.195552	0.813382
	H488	H	0.768765	0.229972	0.788765
	O489	O	0.974163	0.779219	0.212833
	H490	H	0.970325	0.764726	0.229039
	H491	H	0.965245	0.781076	0.216987
	O492	O	0.220677	0.027803	0.212170
	H493	H	0.217660	0.038026	0.211389
	H494	H	0.233359	0.025092	0.222955
	O495	O	-0.087294	1.015797	1.174683
	H496	H	-0.087275	1.036237	1.159083
	H497	H	-0.109861	1.008246	1.188653
	O498	O	1.163310	1.170367	0.804786
	H499	H	1.136237	1.160325	0.808828
	H500	H	1.163614	1.160902	0.824865
	O501	O	0.694092	0.447197	0.532319
	H502	H	0.687098	0.437351	0.529280
	H503	H	0.690397	0.431623	0.535697
