data_Molecule from HDF5

_cell_length_a		16.177727
_cell_length_b		16.255281
_cell_length_c		16.264500
_cell_angle_alpha	90.305639
_cell_angle_beta	90.329504
_cell_angle_gamma	89.883945
_symmetry_space_group_name_H-M	'P 1'
_symmetry_Int_Tables_number		1

loop_
	_symmetry_equiv_pos_as_xyz
	x,y,z

loop_
	_atom_site_label
	_atom_site_type_symbol
	_atom_site_fract_x
	_atom_site_fract_y
	_atom_site_fract_z
	H0	H	0.403400	0.834014	0.708180
	H1	H	0.602934	0.160724	0.709606
	H2	H	0.601582	0.833520	0.278905
	H3	H	0.404637	0.161572	0.279631
	H4	H	0.716538	0.399509	0.828858
	H5	H	0.719884	0.595140	0.158517
	H6	H	0.289075	0.595234	0.830025
	H7	H	0.292493	0.399631	0.157767
	H8	H	0.838387	0.708815	0.395060
	H9	H	0.168061	0.711505	0.594545
	H10	H	0.838128	0.284376	0.590097
	H11	H	0.167081	0.279593	0.394347
	H12	H	0.838839	0.399242	0.705678
	H13	H	0.168366	0.596727	0.708840
	H14	H	0.840211	0.594809	0.278787
	H15	H	0.169498	0.396129	0.280857
	H16	H	0.404328	0.710935	0.830653
	H17	H	0.605345	0.712461	0.157479
	H18	H	0.605075	0.279927	0.830807
	H19	H	0.408666	0.284976	0.157978
	H20	H	0.715760	0.832596	0.395456
	H21	H	0.718135	0.161010	0.593181
	H22	H	0.290843	0.833108	0.588619
	H23	H	0.288412	0.161440	0.393999
	H24	H	0.907439	0.332544	0.205579
	H25	H	0.104748	0.659295	0.211235
	H26	H	0.103087	0.332913	0.777657
	H27	H	0.904937	0.661319	0.779378
	H28	H	0.216050	0.897448	0.328009
	H29	H	0.218449	0.096202	0.656646
	H30	H	0.788378	0.092992	0.329498
	H31	H	0.789777	0.898748	0.657221
	H32	H	0.341006	0.212030	0.895595
	H33	H	0.669205	0.209492	0.093410
	H34	H	0.340168	0.783709	0.090932
	H35	H	0.668478	0.781191	0.894810
	H36	H	0.339133	0.900520	0.204460
	H37	H	0.668169	0.096072	0.209407
	H38	H	0.339743	0.096289	0.780104
	H39	H	0.668191	0.895691	0.778331
	H40	H	0.901479	0.209576	0.329223
	H41	H	0.103829	0.213173	0.655735
	H42	H	0.101507	0.779844	0.329616
	H43	H	0.905539	0.783545	0.656819
	H44	H	0.220251	0.332371	0.894156
	H45	H	0.218564	0.661232	0.093082
	H46	H	0.793562	0.331883	0.088281
	H47	H	0.790470	0.661241	0.896662
	H48	H	0.402707	0.117452	0.589960
	H49	H	0.592270	0.881210	0.588350
	H50	H	0.602873	0.116944	0.400418
	H51	H	0.413296	0.881627	0.400260
	H52	H	0.601548	0.400559	0.112605
	H53	H	0.603296	0.582171	0.878240
	H54	H	0.408096	0.596282	0.113689
	H55	H	0.406916	0.403437	0.875487
	H56	H	0.120935	0.587437	0.403164
	H57	H	0.887294	0.591337	0.583577
	H58	H	0.122970	0.402672	0.593280
	H59	H	0.884150	0.404541	0.390963
	H60	H	0.120980	0.398412	0.580204
	H61	H	0.886428	0.586830	0.588052
	H62	H	0.121234	0.588368	0.402013
	H63	H	0.884876	0.397012	0.401143
	H64	H	0.410956	0.584374	0.109707
	H65	H	0.588887	0.589155	0.879786
	H66	H	0.601747	0.404146	0.111546
	H67	H	0.415037	0.409541	0.879522
	H68	H	0.590819	0.115115	0.395652
	H69	H	0.596867	0.880838	0.581200
	H70	H	0.418435	0.113508	0.593001
	H71	H	0.406274	0.879487	0.399914
	H72	H	0.907792	0.616838	0.092359
	H73	H	0.096904	0.380098	0.087585
	H74	H	0.091764	0.615194	0.889845
	H75	H	0.915747	0.381793	0.901447
	H76	H	0.105809	0.912459	0.609423
	H77	H	0.093711	0.083375	0.377536
	H78	H	0.915521	0.094639	0.609966
	H79	H	0.915223	0.909730	0.379843
	H80	H	0.622380	0.093461	0.907450
	H81	H	0.384031	0.093694	0.092025
	H82	H	0.620238	0.909452	0.084919
	H83	H	0.384806	0.905849	0.891472
	H84	H	0.624370	0.904443	0.092446
	H85	H	0.385791	0.096441	0.082295
	H86	H	0.620134	0.080833	0.902958
	H87	H	0.385660	0.896314	0.905283
	H88	H	0.907239	0.090764	0.612147
	H89	H	0.090519	0.091394	0.377061
	H90	H	0.086751	0.906484	0.604484
	H91	H	0.913279	0.892943	0.373768
	H92	H	0.089084	0.608642	0.910108
	H93	H	0.098231	0.380123	0.084088
	H94	H	0.920843	0.612115	0.089108
	H95	H	0.904048	0.377804	0.899735
	H96	H	0.412144	0.111878	0.578129
	H97	H	0.600403	0.879392	0.588659
	H98	H	0.593530	0.111824	0.408559
	H99	H	0.411096	0.879385	0.394264
	H100	H	0.599384	0.402319	0.110798
	H101	H	0.601445	0.597905	0.873565
	H102	H	0.420269	0.592850	0.109587
	H103	H	0.416266	0.399190	0.876490
	H104	H	0.121782	0.589246	0.403562
	H105	H	0.884880	0.592402	0.588875
	H106	H	0.117230	0.411004	0.583307
	H107	H	0.889078	0.409410	0.402837
	H108	H	0.910030	0.612167	0.079170
	H109	H	0.100801	0.378604	0.087209
	H110	H	0.108887	0.616286	0.903919
	H111	H	0.911871	0.378512	0.890273
	H112	H	0.099824	0.893503	0.613558
	H113	H	0.098143	0.089235	0.374726
	H114	H	0.913146	0.086165	0.608761
	H115	H	0.899192	0.903593	0.374261
	H116	H	0.625166	0.090029	0.894601
	H117	H	0.388362	0.086618	0.084991
	H118	H	0.622568	0.899769	0.083457
	H119	H	0.391054	0.912019	0.906263
	C120	C	0.382340	0.006124	0.614509
	C121	C	0.625891	0.988297	0.616127
	C122	C	0.624216	0.006083	0.372551
	C123	C	0.381568	0.988855	0.370321
	C124	C	0.627839	0.374441	0.002834
	C125	C	0.627219	0.618716	0.985470
	C126	C	0.383436	0.618882	0.002496
	C127	C	0.384485	0.376208	0.985335
	C128	C	0.012597	0.617202	0.373195
	C129	C	0.995132	0.619113	0.615792
	C130	C	0.011772	0.376024	0.613606
	C131	C	0.994961	0.374293	0.370800
	C132	C	0.884440	0.505220	0.114356
	C133	C	0.127268	0.487839	0.115704
	C134	C	0.126050	0.504991	0.871865
	C135	C	0.882266	0.488415	0.870277
	C136	C	0.125696	0.874560	0.501175
	C137	C	0.124472	0.118045	0.484231
	C138	C	0.881781	0.118248	0.501823
	C139	C	0.881012	0.874545	0.484525
	C140	C	0.513752	0.117706	0.873034
	C141	C	0.495443	0.119291	0.115037
	C142	C	0.513157	0.876322	0.114679
	C143	C	0.495580	0.874772	0.871765
	C144	C	0.383819	0.882780	0.669839
	C145	C	0.623897	0.111453	0.672243
	C146	C	0.621728	0.882404	0.316870
	C147	C	0.384140	0.112573	0.316828
	C148	C	0.680428	0.378205	0.878463
	C149	C	0.682273	0.615689	0.109212
	C150	C	0.327145	0.615858	0.879348
	C151	C	0.329929	0.379193	0.108801
	C152	C	0.888220	0.671706	0.374792
	C153	C	0.118701	0.674406	0.614552
	C154	C	0.887559	0.321604	0.610606
	C155	C	0.118473	0.317981	0.373706
	C156	C	0.887816	0.379031	0.667906
	C157	C	0.119026	0.617077	0.671282
	C158	C	0.888940	0.614762	0.317036
	C159	C	0.119625	0.376299	0.317574
	C160	C	0.384369	0.673451	0.879514
	C161	C	0.625410	0.674111	0.108812
	C162	C	0.624928	0.318907	0.879312
	C163	C	0.387702	0.322056	0.108868
	C164	C	0.678666	0.882010	0.374876
	C165	C	0.680779	0.111838	0.613895
	C166	C	0.327592	0.882448	0.610691
	C167	C	0.326223	0.112316	0.373553
	C168	C	0.887120	0.381355	0.167953
	C169	C	0.125209	0.610790	0.172492
	C170	C	0.123748	0.381726	0.815925
	C171	C	0.884759	0.612161	0.816753
	C172	C	0.179138	0.876944	0.377470
	C173	C	0.180352	0.116477	0.607702
	C174	C	0.825803	0.114478	0.378630
	C175	C	0.826944	0.877961	0.608012
	C176	C	0.389868	0.174034	0.875100
	C177	C	0.619959	0.172413	0.113465
	C178	C	0.389244	0.821611	0.111231
	C179	C	0.619382	0.819231	0.874504
	C180	C	0.388699	0.879650	0.167748
	C181	C	0.619405	0.116135	0.171060
	C182	C	0.389340	0.116498	0.817803
	C183	C	0.619155	0.876162	0.816721
	C184	C	0.882344	0.172599	0.378571
	C185	C	0.123415	0.174558	0.607351
	C186	C	0.122622	0.818117	0.378370
	C187	C	0.884618	0.820688	0.607831
	C188	C	0.181652	0.381432	0.873955
	C189	C	0.181465	0.611755	0.113370
	C190	C	0.830524	0.381119	0.109695
	C191	C	0.827651	0.612131	0.874809
	C192	C	0.404549	0.092082	0.593351
	C193	C	0.603255	0.902543	0.592961
	C194	C	0.602100	0.092347	0.394851
	C195	C	0.403757	0.902615	0.391725
	C196	C	0.607155	0.395970	0.089298
	C197	C	0.604507	0.596484	0.899411
	C198	C	0.406276	0.597467	0.088585
	C199	C	0.406493	0.397598	0.899245
	C200	C	0.099065	0.594898	0.396286
	C201	C	0.908514	0.596917	0.593345
	C202	C	0.098145	0.397477	0.591920
	C203	C	0.908490	0.397103	0.391966
	C204	C	0.906413	0.591452	0.093118
	C205	C	0.105293	0.401676	0.092869
	C206	C	0.103126	0.591099	0.894618
	C207	C	0.904035	0.401672	0.890991
	C208	C	0.103930	0.897457	0.587055
	C209	C	0.101040	0.094636	0.398542
	C210	C	0.905135	0.096827	0.588122
	C211	C	0.902697	0.895910	0.398258
	C212	C	0.600082	0.094961	0.895132
	C213	C	0.408653	0.098336	0.092907
	C214	C	0.599925	0.898065	0.093340
	C215	C	0.409536	0.897715	0.894429
	Zn216	Zn	0.503647	-0.003299	0.744049
	Zn217	Zn	0.503734	-0.002093	0.242738
	Zn218	Zn	0.755263	0.496644	-0.006257
	Zn219	Zn	0.255404	0.496548	-0.005814
	Zn220	Zn	0.003183	0.746243	0.493655
	Zn221	Zn	0.002693	0.246610	0.492501
	Zn222	Zn	0.004011	0.496888	0.742323
	Zn223	Zn	0.005201	0.496283	0.243931
	Zn224	Zn	0.505046	0.747467	-0.005897
	Zn225	Zn	0.505857	0.246783	-0.005564
	Zn226	Zn	0.753446	-0.003134	0.493501
	Zn227	Zn	0.253813	-0.002616	0.492030
	N228	N	0.416982	0.960753	0.672444
	N229	N	0.590233	0.033665	0.673398
	N230	N	0.588484	0.960537	0.315275
	N231	N	0.417901	0.034903	0.314650
	N232	N	0.682371	0.412038	0.956205
	N233	N	0.683701	0.582146	0.031400
	N234	N	0.326529	0.582587	0.956869
	N235	N	0.327645	0.411809	0.031082
	N236	N	0.966084	0.673193	0.409154
	N237	N	0.040369	0.676065	0.580838
	N238	N	0.965580	0.319706	0.577255
	N239	N	0.040366	0.316740	0.406303
	N240	N	0.966056	0.411845	0.670166
	N241	N	0.041213	0.583508	0.672178
	N242	N	0.967350	0.581840	0.315768
	N243	N	0.041710	0.410652	0.315744
	N244	N	0.418907	0.675351	0.957037
	N245	N	0.591714	0.676035	0.030991
	N246	N	0.592883	0.316624	0.957447
	N247	N	0.421087	0.320203	0.031076
	N248	N	0.680315	0.959675	0.408916
	N249	N	0.682265	0.034300	0.579732
	N250	N	0.326394	0.959922	0.577114
	N251	N	0.324512	0.034299	0.406190
	N252	N	0.919967	0.459455	0.171077
	N253	N	0.092246	0.532875	0.173842
	N254	N	0.089956	0.459643	0.814536
	N255	N	0.917809	0.534046	0.813810
	N256	N	0.181207	0.911315	0.455023
	N257	N	0.181161	0.082263	0.530239
	N258	N	0.825480	0.081382	0.456277
	N259	N	0.824685	0.910603	0.530114
	N260	N	0.468243	0.175064	0.908537
	N261	N	0.542004	0.174495	0.079274
	N262	N	0.467861	0.819304	0.079035
	N263	N	0.541442	0.818081	0.907758
	N264	N	0.466762	0.912756	0.170024
	N265	N	0.540939	0.083708	0.172325
	N266	N	0.467174	0.081982	0.816348
	N267	N	0.541205	0.909980	0.814785
	N268	N	0.916498	0.174915	0.456327
	N269	N	0.089345	0.175779	0.529566
	N270	N	0.090163	0.816527	0.456280
	N271	N	0.917587	0.818534	0.530139
	N272	N	0.183482	0.459250	0.907604
	N273	N	0.182740	0.534254	0.078767
	N274	N	0.828737	0.459086	0.077073
	N275	N	0.826088	0.534231	0.907488
	O276	O	0.989605	0.981191	-0.075815
	H277	H	0.994153	0.989063	-0.078056
	H278	H	0.983786	0.979108	-0.075003
	O279	O	0.075082	-0.002660	1.071505
	H280	H	0.087157	0.001021	1.069935
	H281	H	0.078297	0.009402	1.070520
	O282	O	-0.003679	0.001704	-0.040669
	H283	H	-0.012674	0.014058	-0.046259
	H284	H	-0.003617	-0.001264	-0.035271
	O285	O	0.518635	0.509539	0.564128
	H286	H	0.532583	0.510383	0.558747
	H287	H	0.524435	0.512755	0.575381
	O288	O	0.059044	-0.009390	-0.001022
	H289	H	0.069586	-0.021171	-0.005317
	H290	H	0.052439	-0.013016	-0.010693
	O291	O	0.073938	1.006440	-0.070212
	H292	H	0.082669	1.006090	-0.076728
	H293	H	0.080840	1.000883	-0.070661
	O294	O	0.020431	0.992661	0.009243
	H295	H	0.024741	0.982672	0.012237
	H296	H	0.011813	0.993984	-0.000715
	O297	O	0.429444	0.561653	0.588528
	H298	H	0.419114	0.561149	0.575319
	H299	H	0.438528	0.570535	0.582682
	O300	O	0.435971	0.583852	0.438259
	H301	H	0.427612	0.581473	0.443203
	H302	H	0.426532	0.583979	0.434041
	O303	O	0.952075	-0.023900	1.002135
	H304	H	0.949089	-0.023204	1.000988
	H305	H	0.947568	-0.022962	1.010366
	O306	O	0.026554	0.934298	0.992292
	H307	H	0.025587	0.936109	1.010796
	H308	H	0.028311	0.927663	0.991966
	O309	O	0.017668	0.940205	0.982235
	H310	H	0.011025	0.947526	0.981482
	H311	H	0.014022	0.941550	0.980733
	O312	O	0.016493	-0.064911	0.868641
	H313	H	0.015206	-0.068292	0.869371
	H314	H	0.012192	-0.074042	0.854378
	O315	O	0.480602	0.556930	0.489269
	H316	H	0.492633	0.568376	0.495313
	H317	H	0.481786	0.553256	0.493195
	O318	O	0.011478	-0.015740	0.944206
	H319	H	0.011905	-0.012275	0.940963
	H320	H	0.013937	-0.025055	0.944912
	O321	O	0.417220	0.513764	0.533830
	H322	H	0.406937	0.510430	0.526375
	H323	H	0.419996	0.517011	0.552009
	O324	O	0.978527	-0.042982	1.049644
	H325	H	0.982234	-0.041495	1.055105
	H326	H	0.974817	-0.041207	1.047435
	O327	O	0.957388	1.017576	1.039597
	H328	H	0.950891	1.019389	1.041398
	H329	H	0.969898	1.021617	1.046173
	O330	O	0.474480	0.584863	0.475390
	H331	H	0.467559	0.592131	0.484374
	H332	H	0.485341	0.587895	0.472108
	O333	O	0.510500	0.485040	0.569371
	H334	H	0.509862	0.498193	0.576153
	H335	H	0.507367	0.490143	0.574683
	O336	O	0.436776	0.557099	0.492344
	H337	H	0.445870	0.553089	0.508228
	H338	H	0.428152	0.548446	0.495736
	O339	O	0.544107	0.517063	0.584247
	H340	H	0.557318	0.530492	0.572704
	H341	H	0.548286	0.512453	0.589070
	O342	O	0.519905	0.542636	0.505906
	H343	H	0.516731	0.542225	0.507149
	H344	H	0.512241	0.534265	0.505216
	O345	O	0.440730	0.514345	0.578121
	H346	H	0.437277	0.507562	0.565778
	H347	H	0.435064	0.510693	0.578948
