data_Molecule from HDF5

_cell_length_a		16.086594
_cell_length_b		16.337219
_cell_length_c		16.413481
_cell_angle_alpha	90.091055
_cell_angle_beta	89.845858
_cell_angle_gamma	90.100364
_symmetry_space_group_name_H-M	'P 1'
_symmetry_Int_Tables_number		1

loop_
	_symmetry_equiv_pos_as_xyz
	x,y,z

loop_
	_atom_site_label
	_atom_site_type_symbol
	_atom_site_fract_x
	_atom_site_fract_y
	_atom_site_fract_z
	H0	H	0.397685	0.840435	0.710613
	H1	H	0.606506	0.162140	0.708659
	H2	H	0.606126	0.840405	0.269587
	H3	H	0.398188	0.161964	0.271184
	H4	H	0.718762	0.404442	0.827883
	H5	H	0.720922	0.603733	0.151501
	H6	H	0.287715	0.600645	0.827486
	H7	H	0.286472	0.401370	0.151685
	H8	H	0.838001	0.714088	0.390074
	H9	H	0.165659	0.717723	0.592204
	H10	H	0.838276	0.284710	0.590629
	H11	H	0.166555	0.283179	0.388950
	H12	H	0.840437	0.395360	0.708616
	H13	H	0.167386	0.601519	0.704459
	H14	H	0.839629	0.601284	0.273929
	H15	H	0.168240	0.398224	0.274444
	H16	H	0.400002	0.720714	0.828835
	H17	H	0.605508	0.720604	0.150736
	H18	H	0.609334	0.282677	0.830261
	H19	H	0.400192	0.283467	0.150630
	H20	H	0.714287	0.835952	0.392508
	H21	H	0.717752	0.163221	0.587372
	H22	H	0.288216	0.837259	0.588766
	H23	H	0.288627	0.164436	0.394097
	H24	H	0.898897	0.339650	0.208561
	H25	H	0.108198	0.661454	0.210481
	H26	H	0.108563	0.339308	0.769214
	H27	H	0.900911	0.661215	0.769074
	H28	H	0.219643	0.900361	0.327598
	H29	H	0.218264	0.100659	0.652467
	H30	H	0.788913	0.095902	0.326938
	H31	H	0.786069	0.900746	0.651970
	H32	H	0.340244	0.218706	0.890878
	H33	H	0.667867	0.218202	0.092580
	H34	H	0.339219	0.785468	0.090338
	H35	H	0.668074	0.786916	0.887397
	H36	H	0.338630	0.901170	0.205454
	H37	H	0.666866	0.104114	0.207393
	H38	H	0.339709	0.103880	0.775188
	H39	H	0.666203	0.899748	0.771735
	H40	H	0.897686	0.218778	0.329596
	H41	H	0.105583	0.219918	0.650847
	H42	H	0.106480	0.780281	0.329918
	H43	H	0.898887	0.781778	0.651209
	H44	H	0.219816	0.337932	0.890779
	H45	H	0.215851	0.665218	0.086384
	H46	H	0.786406	0.339335	0.088507
	H47	H	0.792416	0.665396	0.892551
	H48	H	0.417346	0.113619	0.582136
	H49	H	0.594270	0.884778	0.580871
	H50	H	0.584508	0.113793	0.395927
	H51	H	0.410579	0.883385	0.388296
	H52	H	0.601242	0.412612	0.106903
	H53	H	0.589817	0.595540	0.876879
	H54	H	0.405986	0.587927	0.104842
	H55	H	0.420969	0.401476	0.875806
	H56	H	0.117460	0.584555	0.402997
	H57	H	0.885361	0.585066	0.583038
	H58	H	0.117763	0.410938	0.574359
	H59	H	0.884887	0.408879	0.395126
	H60	H	0.119968	0.413476	0.584210
	H61	H	0.883910	0.591507	0.583698
	H62	H	0.121904	0.590792	0.392763
	H63	H	0.885628	0.406265	0.401294
	H64	H	0.420492	0.593204	0.100940
	H65	H	0.598606	0.602214	0.871647
	H66	H	0.589587	0.413269	0.102745
	H67	H	0.404453	0.408310	0.872755
	H68	H	0.597662	0.114426	0.405596
	H69	H	0.591850	0.884560	0.586453
	H70	H	0.406365	0.116971	0.580246
	H71	H	0.421237	0.888245	0.398150
	H72	H	0.913935	0.619089	0.090253
	H73	H	0.093894	0.383533	0.088753
	H74	H	0.092359	0.613493	0.900999
	H75	H	0.917148	0.390740	0.908445
	H76	H	0.093255	0.914396	0.602226
	H77	H	0.099668	0.089240	0.374352
	H78	H	0.910413	0.104220	0.608158
	H79	H	0.902824	0.908098	0.373665
	H80	H	0.617658	0.086461	0.901345
	H81	H	0.383566	0.096173	0.087133
	H82	H	0.618290	0.915248	0.078958
	H83	H	0.388809	0.911913	0.906924
	H84	H	0.622022	0.911547	0.084416
	H85	H	0.387768	0.096437	0.074955
	H86	H	0.622579	0.092207	0.891633
	H87	H	0.386357	0.915309	0.896338
	H88	H	0.900346	0.086423	0.605436
	H89	H	0.088394	0.087826	0.378791
	H90	H	0.088041	0.904060	0.604010
	H91	H	0.916218	0.910602	0.378005
	H92	H	0.099821	0.617483	0.895345
	H93	H	0.091165	0.386666	0.080290
	H94	H	0.921139	0.613479	0.081921
	H95	H	0.902206	0.382368	0.897057
	H96	H	0.411389	0.117972	0.589813
	H97	H	0.588223	0.886912	0.581786
	H98	H	0.599316	0.119008	0.390990
	H99	H	0.406548	0.885228	0.403199
	H100	H	0.593621	0.402578	0.107311
	H101	H	0.601354	0.590647	0.874908
	H102	H	0.410031	0.603158	0.107356
	H103	H	0.416923	0.418552	0.879516
	H104	H	0.120685	0.596747	0.404587
	H105	H	0.887487	0.589809	0.577327
	H106	H	0.122627	0.403658	0.580728
	H107	H	0.887448	0.413064	0.400426
	H108	H	0.908848	0.617041	0.079027
	H109	H	0.100578	0.384396	0.081824
	H110	H	0.091018	0.614728	0.891072
	H111	H	0.920794	0.385987	0.889101
	H112	H	0.099789	0.905247	0.607317
	H113	H	0.091754	0.098618	0.374672
	H114	H	0.920462	0.087905	0.600628
	H115	H	0.912657	0.898154	0.373722
	H116	H	0.622684	0.098431	0.902946
	H117	H	0.389116	0.085552	0.081693
	H118	H	0.620867	0.908662	0.078306
	H119	H	0.383903	0.904102	0.898950
	C120	C	0.380556	0.009356	0.613344
	C121	C	0.623072	0.992371	0.612202
	C122	C	0.623994	0.008756	0.367805
	C123	C	0.381797	0.992667	0.368059
	C124	C	0.625922	0.380147	-0.001069
	C125	C	0.626376	0.625101	0.981249
	C126	C	0.381479	0.624259	-0.002247
	C127	C	0.382792	0.379748	0.982027
	C128	C	0.011601	0.620717	0.369742
	C129	C	0.994091	0.620044	0.611003
	C130	C	0.011675	0.378726	0.610511
	C131	C	0.994444	0.378852	0.368802
	C132	C	0.882661	0.509908	0.112905
	C133	C	0.125240	0.492383	0.112467
	C134	C	0.125565	0.508567	0.866475
	C135	C	0.883058	0.492863	0.867846
	C136	C	0.124556	0.878036	0.498102
	C137	C	0.123428	0.121874	0.482331
	C138	C	0.880288	0.121895	0.498216
	C139	C	0.880015	0.876742	0.481776
	C140	C	0.512487	0.122809	0.869739
	C141	C	0.495100	0.123016	0.111600
	C142	C	0.511826	0.881394	0.110425
	C143	C	0.494555	0.880712	0.869619
	C144	C	0.379317	0.888332	0.671119
	C145	C	0.624603	0.113809	0.669314
	C146	C	0.624313	0.887664	0.309612
	C147	C	0.380648	0.114249	0.311188
	C148	C	0.681582	0.383387	0.876852
	C149	C	0.682644	0.623517	0.102947
	C150	C	0.325480	0.621449	0.876056
	C151	C	0.325042	0.381231	0.103168
	C152	C	0.887722	0.676911	0.370280
	C153	C	0.116877	0.678655	0.611027
	C154	C	0.887910	0.322314	0.610210
	C155	C	0.117716	0.321360	0.369305
	C156	C	0.889061	0.377539	0.668951
	C157	C	0.117819	0.620705	0.666902
	C158	C	0.888628	0.620622	0.312272
	C159	C	0.118581	0.379046	0.312586
	C160	C	0.381322	0.681288	0.876727
	C161	C	0.625771	0.682153	0.102504
	C162	C	0.627324	0.322303	0.878163
	C163	C	0.381962	0.322606	0.102866
	C164	C	0.677973	0.885555	0.371019
	C165	C	0.680155	0.114548	0.609095
	C166	C	0.324741	0.886720	0.610418
	C167	C	0.325931	0.115471	0.372260
	C168	C	0.881133	0.387985	0.169369
	C169	C	0.125864	0.613900	0.169761
	C170	C	0.126704	0.387247	0.809296
	C171	C	0.882737	0.613716	0.809491
	C172	C	0.181978	0.879477	0.376647
	C173	C	0.180266	0.120831	0.603915
	C174	C	0.825180	0.118188	0.376012
	C175	C	0.823598	0.879751	0.603445
	C176	C	0.389114	0.180121	0.870975
	C177	C	0.618689	0.179727	0.111632
	C178	C	0.388377	0.824026	0.109818
	C179	C	0.618605	0.824530	0.868683
	C180	C	0.387910	0.881661	0.167010
	C181	C	0.618016	0.123048	0.168927
	C182	C	0.388883	0.122816	0.813727
	C183	C	0.617562	0.880710	0.811028
	C184	C	0.880006	0.178840	0.377290
	C185	C	0.123940	0.179995	0.603036
	C186	C	0.125213	0.820007	0.377504
	C187	C	0.879814	0.820488	0.603115
	C188	C	0.182299	0.386670	0.869465
	C189	C	0.179924	0.615621	0.108361
	C190	C	0.825188	0.387764	0.109703
	C191	C	0.828506	0.615840	0.870862
	C192	C	0.404654	0.094394	0.590692
	C193	C	0.598658	0.907359	0.589666
	C194	C	0.600611	0.093688	0.390774
	C195	C	0.405835	0.907563	0.389972
	C196	C	0.601915	0.402809	0.083677
	C197	C	0.603354	0.602687	0.896377
	C198	C	0.405137	0.601474	0.082198
	C199	C	0.407146	0.402612	0.897689
	C200	C	0.097589	0.597546	0.393244
	C201	C	0.907919	0.595866	0.587976
	C202	C	0.097943	0.402441	0.586645
	C203	C	0.908275	0.402514	0.391996
	C204	C	0.907385	0.594534	0.090499
	C205	C	0.102099	0.407052	0.090172
	C206	C	0.101314	0.593371	0.888995
	C207	C	0.906619	0.408215	0.891406
	C208	C	0.100315	0.901055	0.582555
	C209	C	0.099989	0.098525	0.397844
	C210	C	0.903570	0.099372	0.582705
	C211	C	0.903757	0.899120	0.397090
	C212	C	0.598613	0.099354	0.892230
	C213	C	0.409163	0.099539	0.087950
	C214	C	0.597961	0.905060	0.087280
	C215	C	0.408748	0.903711	0.893689
	Zn216	Zn	0.502137	0.001340	0.742406
	Zn217	Zn	0.503022	0.001818	0.238963
	Zn218	Zn	0.754338	0.502325	-0.009996
	Zn219	Zn	0.253365	0.501417	-0.010519
	Zn220	Zn	0.002110	0.748260	0.490924
	Zn221	Zn	0.001997	0.251330	0.489877
	Zn222	Zn	0.003912	0.499830	0.737843
	Zn223	Zn	0.004242	0.500147	0.241721
	Zn224	Zn	0.504209	0.752941	-0.010415
	Zn225	Zn	0.504681	0.250520	-0.009348
	Zn226	Zn	0.751502	-0.000149	0.489675
	Zn227	Zn	0.253428	0.000872	0.490410
	N228	N	0.413191	0.965791	0.673382
	N229	N	0.589804	0.036810	0.671230
	N230	N	0.591598	0.965406	0.307340
	N231	N	0.414466	0.036984	0.308329
	N232	N	0.681025	0.418379	0.953140
	N233	N	0.683106	0.588665	0.026492
	N234	N	0.325270	0.586821	0.952364
	N235	N	0.325556	0.416081	0.027039
	N236	N	0.965242	0.677135	0.405318
	N237	N	0.038856	0.678353	0.577029
	N238	N	0.965314	0.323083	0.574565
	N239	N	0.039446	0.320842	0.403328
	N240	N	0.967098	0.411916	0.669145
	N241	N	0.040355	0.584881	0.666905
	N242	N	0.966652	0.586356	0.311953
	N243	N	0.040975	0.414012	0.312166
	N244	N	0.415412	0.683143	0.953466
	N245	N	0.591552	0.683158	0.025949
	N246	N	0.593518	0.320099	0.955132
	N247	N	0.417401	0.321715	0.026548
	N248	N	0.678003	0.961754	0.406382
	N249	N	0.679477	0.037816	0.574452
	N250	N	0.325421	0.963038	0.575355
	N251	N	0.326609	0.038772	0.406753
	N252	N	0.916186	0.464826	0.171396
	N253	N	0.092912	0.536236	0.172535
	N254	N	0.092163	0.464089	0.807454
	N255	N	0.915840	0.536243	0.807386
	N256	N	0.181630	0.914872	0.452629
	N257	N	0.179945	0.085210	0.527930
	N258	N	0.825256	0.083304	0.452149
	N259	N	0.823413	0.913862	0.527000
	N260	N	0.467053	0.180225	0.905124
	N261	N	0.541352	0.179895	0.076688
	N262	N	0.466404	0.824044	0.075128
	N263	N	0.541237	0.824254	0.904532
	N264	N	0.465667	0.916488	0.167592
	N265	N	0.539883	0.088496	0.168995
	N266	N	0.466575	0.088052	0.812812
	N267	N	0.539598	0.914874	0.811497
	N268	N	0.913461	0.181394	0.454237
	N269	N	0.089299	0.180884	0.526411
	N270	N	0.090149	0.819005	0.454017
	N271	N	0.914040	0.818518	0.526431
	N272	N	0.181562	0.463040	0.904499
	N273	N	0.179793	0.538900	0.073549
	N274	N	0.825759	0.464521	0.075402
	N275	N	0.828618	0.539650	0.906445
	O276	O	-0.065680	0.156743	-0.044270
	H277	H	-0.064633	0.145593	-0.058124
	H278	H	-0.071041	0.158362	-0.059902
	O279	O	0.489504	0.442152	0.615425
	H280	H	0.479827	0.440633	0.623510
	H281	H	0.486985	0.430188	0.602920
	O282	O	0.969033	-0.102761	-0.002512
	H283	H	0.970699	-0.099373	-0.005173
	H284	H	0.967046	-0.109583	-0.002846
	O285	O	0.128415	1.027146	-0.103007
	H286	H	0.126994	1.027291	-0.110651
	H287	H	0.124009	1.029997	-0.098077
	O288	O	0.039654	-0.023266	1.062231
	H289	H	0.040025	-0.006347	1.058799
	H290	H	0.044082	-0.016054	1.068194
	O291	O	0.508872	0.476063	0.479001
	H292	H	0.508066	0.468732	0.457856
	H293	H	0.507689	0.490319	0.485290
	O294	O	1.045983	0.890751	1.013056
	H295	H	1.048479	0.891977	1.011336
	H296	H	1.042643	0.890810	1.010376
	O297	O	-0.148392	0.067797	-0.086193
	H298	H	-0.155922	0.067089	-0.080922
	H299	H	-0.146581	0.051706	-0.076145
	O300	O	0.609395	0.498355	0.440596
	H301	H	0.605220	0.502249	0.463002
	H302	H	0.602778	0.480046	0.444634
	O303	O	-0.002700	0.987221	0.967275
	H304	H	-0.011533	0.980016	0.970115
	H305	H	-0.004290	0.989086	0.970735
	O306	O	1.023731	0.905745	-0.065831
	H307	H	1.033407	0.905057	-0.067957
	H308	H	1.017873	0.896235	-0.059341
	O309	O	0.943162	-0.071223	-0.166769
	H310	H	0.957394	-0.076148	-0.160873
	H311	H	0.946277	-0.077227	-0.169297
	O312	O	0.042043	0.026902	0.990748
	H313	H	0.044434	0.042344	0.999396
	H314	H	0.043256	0.026470	0.976622
	O315	O	0.609373	0.477753	0.373164
	H316	H	0.603721	0.476497	0.366335
	H317	H	0.615875	0.477959	0.380316
	O318	O	0.397460	0.641918	0.397245
	H319	H	0.406265	0.648704	0.404035
	H320	H	0.389705	0.640927	0.391409
	O321	O	0.622306	0.370085	0.435979
	H322	H	0.614681	0.361415	0.443239
	H323	H	0.622136	0.381372	0.440983
	O324	O	0.473002	0.426200	0.650143
	H325	H	0.458891	0.410244	0.652718
	H326	H	0.461255	0.429194	0.651571
	O327	O	-0.050268	0.886512	0.995715
	H328	H	-0.050447	0.892359	0.996023
	H329	H	-0.046311	0.895940	0.998847
	O330	O	0.572506	0.553642	0.510139
	H331	H	0.581218	0.562746	0.505174
	H332	H	0.570158	0.551927	0.507190
	O333	O	-0.506597	0.642563	0.611865
	H334	H	-0.496109	0.638383	0.617385
	H335	H	-0.499706	0.646649	0.618101
	O336	O	0.985403	1.084469	1.128770
	H337	H	0.985284	1.080610	1.116518
	H338	H	0.996880	1.076795	1.139094
	O339	O	0.466928	0.331542	0.399756
	H340	H	0.481156	0.337669	0.403004
	H341	H	0.465244	0.312719	0.385275
	O342	O	1.441697	-0.345154	0.332768
	H343	H	1.442054	-0.343475	0.339667
	H344	H	1.431398	-0.329216	0.325505
	O345	O	0.481921	0.449240	0.356999
	H346	H	0.484061	0.433483	0.355318
	H347	H	0.481210	0.466140	0.357489
	O348	O	1.001672	1.084273	0.957427
	H349	H	0.987681	1.101205	0.948964
	H350	H	0.990827	1.082868	0.946560
	O351	O	0.371233	1.494017	-0.615779
	H352	H	0.372858	1.505956	-0.622222
	H353	H	0.357156	1.494331	-0.626353
	O354	O	-0.047400	0.099642	0.135555
	H355	H	-0.048558	0.096055	0.141077
	H356	H	-0.044810	0.099839	0.137990
	O357	O	0.128535	0.939931	0.979510
	H358	H	0.124820	0.952604	0.985665
	H359	H	0.141313	0.948060	0.987869
	O360	O	0.439669	0.615445	0.475489
	H361	H	0.447607	0.611584	0.480771
	H362	H	0.448629	0.625415	0.477879
	O363	O	0.603934	0.648010	0.607372
	H364	H	0.599081	0.652453	0.605574
	H365	H	0.597659	0.645682	0.612962
	O366	O	0.203664	0.216807	0.708603
	H367	H	0.193270	0.214662	0.693852
	H368	H	0.194616	0.227054	0.704784
	O369	O	0.620857	0.454316	0.330123
	H370	H	0.633927	0.446602	0.331783
	H371	H	0.625988	0.448561	0.335575
	O372	O	0.426465	0.402801	0.432385
	H373	H	0.443294	0.408354	0.433798
	H374	H	0.414650	0.410848	0.425731
	O375	O	0.914832	0.011254	0.890301
	H376	H	0.924508	0.019423	0.899067
	H377	H	0.919457	0.012301	0.889254
	O378	O	0.179351	1.019999	0.906325
	H379	H	0.179660	1.023968	0.908395
	H380	H	0.177480	1.004803	0.901223
	O381	O	0.547072	0.533973	0.558057
	H382	H	0.550758	0.542947	0.555383
	H383	H	0.533266	0.539281	0.546264
	O384	O	0.058206	1.035812	0.031671
	H385	H	0.047697	1.045732	0.036948
	H386	H	0.063682	1.031154	0.020394
	O387	O	1.579921	-0.473085	1.619322
	H388	H	1.582850	-0.478403	1.623507
	H389	H	1.580454	-0.474919	1.617293
	O390	O	0.003052	0.940521	0.030979
	H391	H	0.008590	0.934250	0.046170
	H392	H	0.007764	0.939323	0.022847
	O393	O	0.936386	0.909569	0.080903
	H394	H	0.923805	0.909392	0.091900
	H395	H	0.934123	0.907398	0.079542
	O396	O	0.484305	0.525580	0.621113
	H397	H	0.492635	0.533429	0.620338
	H398	H	0.490159	0.519715	0.620911
	O399	O	-0.012398	1.097213	1.113882
	H400	H	-0.016656	1.096481	1.098608
	H401	H	-0.011500	1.106671	1.116063
	O402	O	0.895479	1.155294	0.957878
	H403	H	0.888449	1.159956	0.960873
	H404	H	0.882605	1.163766	0.963687
	O405	O	0.357059	0.417433	0.482470
	H406	H	0.347096	0.420526	0.481526
	H407	H	0.368265	0.424014	0.476456
