data_Molecule from HDF5

_cell_length_a		16.321704
_cell_length_b		16.249492
_cell_length_c		16.271281
_cell_angle_alpha	89.973259
_cell_angle_beta	90.048585
_cell_angle_gamma	90.038315
_symmetry_space_group_name_H-M	'P 1'
_symmetry_Int_Tables_number		1

loop_
	_symmetry_equiv_pos_as_xyz
	x,y,z

loop_
	_atom_site_label
	_atom_site_type_symbol
	_atom_site_fract_x
	_atom_site_fract_y
	_atom_site_fract_z
	H0	H	0.402930	0.836091	0.713718
	H1	H	0.597360	0.165124	0.712588
	H2	H	0.597787	0.835912	0.286104
	H3	H	0.402970	0.164464	0.286864
	H4	H	0.713853	0.402012	0.836145
	H5	H	0.714213	0.597767	0.163878
	H6	H	0.285609	0.598213	0.836255
	H7	H	0.285970	0.401429	0.164342
	H8	H	0.836271	0.713709	0.402352
	H9	H	0.163658	0.714034	0.596995
	H10	H	0.836510	0.285325	0.597783
	H11	H	0.163926	0.286113	0.402732
	H12	H	0.836405	0.400815	0.713979
	H13	H	0.163356	0.598614	0.713661
	H14	H	0.836228	0.598067	0.285801
	H15	H	0.164261	0.403987	0.286414
	H16	H	0.402023	0.713994	0.835956
	H17	H	0.597037	0.712929	0.164513
	H18	H	0.596663	0.286987	0.836057
	H19	H	0.403225	0.286941	0.164144
	H20	H	0.713254	0.835602	0.402223
	H21	H	0.715205	0.163848	0.599137
	H22	H	0.286702	0.835053	0.598715
	H23	H	0.286233	0.163743	0.402580
	H24	H	0.903677	0.336180	0.213102
	H25	H	0.098017	0.664619	0.213092
	H26	H	0.096551	0.335945	0.786443
	H27	H	0.904042	0.664526	0.786747
	H28	H	0.214043	0.901984	0.335869
	H29	H	0.214597	0.097815	0.664654
	H30	H	0.785911	0.097159	0.336123
	H31	H	0.785793	0.900521	0.663899
	H32	H	0.336440	0.213788	0.902553
	H33	H	0.664127	0.212866	0.097083
	H34	H	0.336196	0.785647	0.098029
	H35	H	0.664135	0.786830	0.902808
	H36	H	0.336741	0.902359	0.214120
	H37	H	0.663381	0.098934	0.215544
	H38	H	0.336614	0.098903	0.785613
	H39	H	0.663884	0.903399	0.786522
	H40	H	0.902919	0.212192	0.335633
	H41	H	0.098828	0.214346	0.664184
	H42	H	0.097004	0.787256	0.335146
	H43	H	0.903055	0.785460	0.663585
	H44	H	0.213200	0.335261	0.902531
	H45	H	0.214318	0.664384	0.098221
	H46	H	0.786529	0.335693	0.097477
	H47	H	0.786520	0.664399	0.901412
	H48	H	0.404465	0.120506	0.602560
	H49	H	0.591962	0.880848	0.602710
	H50	H	0.596049	0.119960	0.400856
	H51	H	0.397276	0.880043	0.404816
	H52	H	0.586180	0.406356	0.115165
	H53	H	0.592385	0.596052	0.882479
	H54	H	0.405220	0.597323	0.118166
	H55	H	0.418701	0.412303	0.888617
	H56	H	0.116702	0.600579	0.413254
	H57	H	0.882854	0.594298	0.594480
	H58	H	0.115153	0.411971	0.596112
	H59	H	0.884619	0.406655	0.408360
	H60	H	0.118684	0.402208	0.596686
	H61	H	0.883797	0.594109	0.591185
	H62	H	0.113474	0.584349	0.407362
	H63	H	0.883671	0.407310	0.403486
	H64	H	0.403487	0.589457	0.117015
	H65	H	0.595995	0.593072	0.882268
	H66	H	0.596998	0.400581	0.120041
	H67	H	0.405602	0.391893	0.879273
	H68	H	0.586137	0.113834	0.408111
	H69	H	0.586788	0.886643	0.588498
	H70	H	0.417192	0.113264	0.590023
	H71	H	0.413425	0.882343	0.400289
	H72	H	0.903369	0.618601	0.093106
	H73	H	0.095249	0.385027	0.084163
	H74	H	0.091719	0.614348	0.913020
	H75	H	0.896466	0.380678	0.908737
	H76	H	0.092368	0.902349	0.617421
	H77	H	0.095422	0.085082	0.385967
	H78	H	0.910941	0.087420	0.614705
	H79	H	0.897718	0.910661	0.381631
	H80	H	0.618814	0.100338	0.904938
	H81	H	0.382557	0.092149	0.099473
	H82	H	0.618781	0.900683	0.095194
	H83	H	0.382968	0.899529	0.909249
	H84	H	0.614064	0.908399	0.087228
	H85	H	0.382811	0.099494	0.092214
	H86	H	0.613264	0.091968	0.913590
	H87	H	0.386852	0.911818	0.911208
	H88	H	0.908603	0.099887	0.618064
	H89	H	0.085841	0.095502	0.385353
	H90	H	0.097624	0.908290	0.617174
	H91	H	0.912131	0.912745	0.386632
	H92	H	0.100415	0.618959	0.905524
	H93	H	0.101214	0.379111	0.099130
	H94	H	0.907806	0.617360	0.095518
	H95	H	0.909386	0.381854	0.897253
	H96	H	0.398896	0.115871	0.584995
	H97	H	0.601758	0.881579	0.590251
	H98	H	0.598279	0.116372	0.414318
	H99	H	0.408569	0.885708	0.416298
	H100	H	0.597311	0.413343	0.115996
	H101	H	0.592035	0.591564	0.884525
	H102	H	0.410614	0.592654	0.115319
	H103	H	0.393230	0.414683	0.882279
	H104	H	0.119780	0.596474	0.396410
	H105	H	0.884514	0.592060	0.593332
	H106	H	0.114962	0.405003	0.587853
	H107	H	0.883516	0.402990	0.405882
	H108	H	0.907357	0.616454	0.090635
	H109	H	0.084772	0.384312	0.098159
	H110	H	0.088952	0.617183	0.901313
	H111	H	0.912557	0.386713	0.914037
	H112	H	0.089689	0.909336	0.614500
	H113	H	0.099497	0.097736	0.380717
	H114	H	0.899009	0.091326	0.618244
	H115	H	0.907373	0.898481	0.381086
	H116	H	0.616763	0.088274	0.900895
	H117	H	0.385868	0.089663	0.090248
	H118	H	0.616688	0.911481	0.098671
	H119	H	0.382294	0.908434	0.899596
	C120	C	0.378317	0.008146	0.621500
	C121	C	0.621615	0.991868	0.621518
	C122	C	0.621524	0.008262	0.379004
	C123	C	0.378057	0.991274	0.378601
	C124	C	0.621317	0.378836	0.008641
	C125	C	0.621516	0.621290	0.991701
	C126	C	0.378453	0.621373	0.008289
	C127	C	0.378038	0.378159	0.991697
	C128	C	0.008287	0.621794	0.377981
	C129	C	0.991575	0.621849	0.621348
	C130	C	0.008235	0.377972	0.621590
	C131	C	0.992158	0.378114	0.378047
	C132	C	0.878515	0.508534	0.120989
	C133	C	0.121777	0.491732	0.121672
	C134	C	0.121485	0.508477	0.878354
	C135	C	0.878304	0.491706	0.878387
	C136	C	0.121268	0.878426	0.507808
	C137	C	0.121800	0.121147	0.492430
	C138	C	0.878193	0.121115	0.508535
	C139	C	0.878179	0.878402	0.491442
	C140	C	0.508434	0.121963	0.878122
	C141	C	0.491877	0.122064	0.122128
	C142	C	0.508457	0.878357	0.121924
	C143	C	0.491924	0.878599	0.878247
	C144	C	0.381980	0.884777	0.676103
	C145	C	0.618014	0.115917	0.675229
	C146	C	0.618527	0.884718	0.324143
	C147	C	0.381895	0.115194	0.324524
	C148	C	0.676005	0.381460	0.884926
	C149	C	0.676534	0.618580	0.114924
	C150	C	0.323889	0.618538	0.884958
	C151	C	0.323711	0.380908	0.115244
	C152	C	0.885080	0.676321	0.381319
	C153	C	0.114635	0.676482	0.618168
	C154	C	0.885318	0.323074	0.618388
	C155	C	0.115314	0.323786	0.381554
	C156	C	0.885235	0.380532	0.676098
	C157	C	0.114635	0.619074	0.676227
	C158	C	0.885058	0.619109	0.323383
	C159	C	0.115329	0.382085	0.323863
	C160	C	0.381578	0.676159	0.884927
	C161	C	0.618279	0.675657	0.115332
	C162	C	0.617966	0.324368	0.884787
	C163	C	0.381908	0.323948	0.115318
	C164	C	0.675786	0.884623	0.381768
	C165	C	0.676625	0.115173	0.618899
	C166	C	0.324157	0.884335	0.618930
	C167	C	0.324101	0.115125	0.381788
	C168	C	0.882945	0.384781	0.175109
	C169	C	0.118392	0.615644	0.175587
	C170	C	0.117737	0.384624	0.823773
	C171	C	0.882191	0.615550	0.823853
	C172	C	0.176247	0.881258	0.384743
	C173	C	0.176789	0.118547	0.615675
	C174	C	0.823452	0.118103	0.385015
	C175	C	0.823889	0.880324	0.615033
	C176	C	0.385244	0.176488	0.881307
	C177	C	0.615175	0.176032	0.118474
	C178	C	0.385273	0.823447	0.118783
	C179	C	0.615207	0.824610	0.881723
	C180	C	0.385334	0.881415	0.176548
	C181	C	0.614782	0.119252	0.177062
	C182	C	0.385270	0.119196	0.823397
	C183	C	0.615044	0.882208	0.823840
	C184	C	0.881764	0.175158	0.384726
	C185	C	0.118931	0.176057	0.615570
	C186	C	0.118056	0.824290	0.384359
	C187	C	0.881720	0.823110	0.614788
	C188	C	0.175402	0.384473	0.881497
	C189	C	0.176160	0.615533	0.118298
	C190	C	0.824462	0.384773	0.118029
	C191	C	0.823854	0.615282	0.880748
	C192	C	0.400267	0.094305	0.598957
	C193	C	0.599871	0.905340	0.600203
	C194	C	0.599667	0.094571	0.400994
	C195	C	0.399931	0.905017	0.400627
	C196	C	0.599873	0.400357	0.094610
	C197	C	0.599875	0.599847	0.905439
	C198	C	0.400005	0.599476	0.094649
	C199	C	0.399519	0.399867	0.905589
	C200	C	0.094403	0.600201	0.399315
	C201	C	0.905726	0.599914	0.599360
	C202	C	0.094130	0.399911	0.599981
	C203	C	0.906111	0.399477	0.399625
	C204	C	0.899948	0.595371	0.099471
	C205	C	0.100104	0.405139	0.100220
	C206	C	0.100071	0.594602	0.900122
	C207	C	0.899750	0.405350	0.900183
	C208	C	0.099483	0.900303	0.594280
	C209	C	0.100060	0.099078	0.406116
	C210	C	0.899810	0.099260	0.594693
	C211	C	0.899367	0.900701	0.405451
	C212	C	0.594257	0.099983	0.900154
	C213	C	0.405832	0.100069	0.100467
	C214	C	0.594436	0.900368	0.100290
	C215	C	0.406032	0.900187	0.900147
	Zn216	Zn	0.499976	0.000472	0.749623
	Zn217	Zn	0.500349	-0.000139	0.250938
	Zn218	Zn	0.749894	0.500102	-0.000089
	Zn219	Zn	0.249688	0.499840	0.000240
	Zn220	Zn	-0.000306	0.750324	0.499354
	Zn221	Zn	0.000142	0.249212	0.500298
	Zn222	Zn	-0.000089	0.500019	0.749927
	Zn223	Zn	0.000028	0.500808	0.249188
	Zn224	Zn	0.500129	0.749953	-0.000026
	Zn225	Zn	0.500045	0.250162	0.000015
	Zn226	Zn	0.749674	-0.000228	0.500318
	Zn227	Zn	0.249855	-0.000270	0.500178
	N228	N	0.415002	0.962702	0.677744
	N229	N	0.584371	0.038130	0.676949
	N230	N	0.585520	0.962552	0.322352
	N231	N	0.414751	0.037217	0.322591
	N232	N	0.678325	0.414486	0.962729
	N233	N	0.678328	0.585502	0.037139
	N234	N	0.321834	0.585229	0.962692
	N235	N	0.321091	0.414006	0.037353
	N236	N	0.962653	0.678022	0.414547
	N237	N	0.037090	0.678391	0.584782
	N238	N	0.962773	0.321639	0.584918
	N239	N	0.037666	0.321302	0.414566
	N240	N	0.962724	0.414044	0.678329
	N241	N	0.036977	0.585718	0.678161
	N242	N	0.962609	0.585749	0.321338
	N243	N	0.037735	0.415108	0.321552
	N244	N	0.414871	0.677979	0.962653
	N245	N	0.584719	0.677703	0.037635
	N246	N	0.584603	0.322597	0.962542
	N247	N	0.414979	0.322287	0.037558
	N248	N	0.677706	0.962465	0.415199
	N249	N	0.678875	0.037084	0.586299
	N250	N	0.321801	0.962322	0.585661
	N251	N	0.321341	0.036997	0.414592
	N252	N	0.915679	0.463009	0.177105
	N253	N	0.084962	0.537731	0.177426
	N254	N	0.085002	0.462541	0.821791
	N255	N	0.915395	0.537714	0.822225
	N256	N	0.178309	0.914416	0.462687
	N257	N	0.178606	0.085100	0.537949
	N258	N	0.821180	0.085189	0.462941
	N259	N	0.821438	0.914100	0.537474
	N260	N	0.462835	0.178298	0.914703
	N261	N	0.537689	0.177766	0.084961
	N262	N	0.462928	0.821292	0.085775
	N263	N	0.537609	0.822216	0.914812
	N264	N	0.462933	0.914930	0.178461
	N265	N	0.537091	0.086536	0.179598
	N266	N	0.462878	0.086010	0.821416
	N267	N	0.537409	0.915231	0.821845
	N268	N	0.915112	0.177047	0.462507
	N269	N	0.085613	0.177813	0.537921
	N270	N	0.084790	0.822450	0.462058
	N271	N	0.914710	0.821862	0.536986
	N272	N	0.177927	0.462466	0.914673
	N273	N	0.178312	0.537399	0.085580
	N274	N	0.821902	0.462808	0.085170
	N275	N	0.821476	0.537338	0.914010
