data_Molecule from HDF5

_cell_length_a		16.154350
_cell_length_b		16.285823
_cell_length_c		16.291147
_cell_angle_alpha	90.479474
_cell_angle_beta	89.854665
_cell_angle_gamma	90.038387
_symmetry_space_group_name_H-M	'P 1'
_symmetry_Int_Tables_number		1

loop_
	_symmetry_equiv_pos_as_xyz
	x,y,z

loop_
	_atom_site_label
	_atom_site_type_symbol
	_atom_site_fract_x
	_atom_site_fract_y
	_atom_site_fract_z
	H0	H	0.397294	0.836351	0.713309
	H1	H	0.597328	0.162766	0.713646
	H2	H	0.598580	0.836737	0.280159
	H3	H	0.400387	0.164352	0.286058
	H4	H	0.712552	0.400991	0.834228
	H5	H	0.712284	0.599191	0.162166
	H6	H	0.285791	0.595709	0.834441
	H7	H	0.285920	0.405785	0.162832
	H8	H	0.833731	0.711423	0.401797
	H9	H	0.162997	0.715752	0.598610
	H10	H	0.834047	0.287756	0.595006
	H11	H	0.163191	0.284858	0.398452
	H12	H	0.834057	0.402447	0.710780
	H13	H	0.164225	0.598503	0.711230
	H14	H	0.833648	0.596314	0.286511
	H15	H	0.163619	0.399109	0.282266
	H16	H	0.399714	0.712810	0.834650
	H17	H	0.597897	0.716948	0.161527
	H18	H	0.599888	0.282413	0.835762
	H19	H	0.398486	0.286848	0.162019
	H20	H	0.711341	0.834651	0.399322
	H21	H	0.711323	0.163240	0.595836
	H22	H	0.284378	0.834953	0.594018
	H23	H	0.284866	0.163430	0.402511
	H24	H	0.898486	0.335566	0.212010
	H25	H	0.098376	0.662548	0.215312
	H26	H	0.098610	0.336648	0.780891
	H27	H	0.899929	0.663066	0.784725
	H28	H	0.212112	0.900384	0.334737
	H29	H	0.210010	0.097172	0.662584
	H30	H	0.786450	0.094867	0.333498
	H31	H	0.784412	0.903960	0.662128
	H32	H	0.333486	0.211526	0.902477
	H33	H	0.663761	0.214918	0.096883
	H34	H	0.333973	0.788125	0.095185
	H35	H	0.663207	0.784420	0.897585
	H36	H	0.333914	0.902626	0.211070
	H37	H	0.663942	0.099853	0.212380
	H38	H	0.333294	0.097194	0.786548
	H39	H	0.663087	0.899157	0.781747
	H40	H	0.900015	0.213133	0.335110
	H41	H	0.098080	0.215526	0.661327
	H42	H	0.099633	0.781801	0.335856
	H43	H	0.897937	0.785203	0.661650
	H44	H	0.211905	0.335559	0.899639
	H45	H	0.210833	0.663775	0.096521
	H46	H	0.784534	0.335424	0.093571
	H47	H	0.786569	0.664163	0.903185
	H48	H	0.398747	0.117625	0.593541
	H49	H	0.590606	0.884455	0.583076
	H50	H	0.591571	0.114350	0.412182
	H51	H	0.406782	0.880283	0.393955
	H52	H	0.596728	0.404674	0.117667
	H53	H	0.603505	0.594500	0.877867
	H54	H	0.412373	0.600377	0.114889
	H55	H	0.403969	0.405150	0.881059
	H56	H	0.118895	0.596179	0.405043
	H57	H	0.883055	0.590457	0.587575
	H58	H	0.116021	0.411790	0.588671
	H59	H	0.880209	0.399995	0.407412
	H60	H	0.118291	0.407011	0.593906
	H61	H	0.881101	0.589543	0.596950
	H62	H	0.115086	0.589967	0.410985
	H63	H	0.883515	0.410809	0.407261
	H64	H	0.398176	0.599799	0.118404
	H65	H	0.588319	0.581147	0.885771
	H66	H	0.591207	0.414725	0.112965
	H67	H	0.407516	0.405583	0.881518
	H68	H	0.598809	0.119094	0.401688
	H69	H	0.597456	0.879339	0.593133
	H70	H	0.408769	0.116804	0.598619
	H71	H	0.413476	0.887196	0.408399
	H72	H	0.915823	0.610315	0.083785
	H73	H	0.093554	0.383446	0.088468
	H74	H	0.078577	0.613238	0.904562
	H75	H	0.912738	0.386870	0.909913
	H76	H	0.089470	0.907635	0.614977
	H77	H	0.085368	0.091766	0.382739
	H78	H	0.905500	0.096845	0.615903
	H79	H	0.904512	0.899660	0.380051
	H80	H	0.615480	0.090327	0.906885
	H81	H	0.377821	0.100744	0.098313
	H82	H	0.617540	0.906921	0.090351
	H83	H	0.383199	0.910032	0.907733
	H84	H	0.616470	0.908494	0.088614
	H85	H	0.382947	0.095330	0.084097
	H86	H	0.617413	0.091092	0.901514
	H87	H	0.379760	0.906388	0.901360
	H88	H	0.902306	0.094691	0.615633
	H89	H	0.094357	0.097446	0.379813
	H90	H	0.089955	0.905696	0.615614
	H91	H	0.903036	0.908117	0.381682
	H92	H	0.099039	0.615551	0.916291
	H93	H	0.092495	0.381613	0.093227
	H94	H	0.892708	0.619171	0.089943
	H95	H	0.896793	0.380549	0.905194
	H96	H	0.407495	0.113905	0.588197
	H97	H	0.584659	0.882988	0.594392
	H98	H	0.586003	0.115810	0.400692
	H99	H	0.397034	0.881747	0.407771
	H100	H	0.585195	0.404620	0.114233
	H101	H	0.583922	0.601208	0.881287
	H102	H	0.404636	0.587389	0.113137
	H103	H	0.406198	0.402544	0.881269
	H104	H	0.115649	0.587460	0.402521
	H105	H	0.878919	0.597224	0.592098
	H106	H	0.117365	0.404125	0.587028
	H107	H	0.878966	0.405746	0.397472
	H108	H	0.910557	0.618477	0.107248
	H109	H	0.089004	0.383581	0.090245
	H110	H	0.097679	0.621362	0.894080
	H111	H	0.909581	0.381183	0.894110
	H112	H	0.092316	0.907489	0.615630
	H113	H	0.095045	0.086167	0.381611
	H114	H	0.905585	0.093059	0.614485
	H115	H	0.911495	0.904720	0.383138
	H116	H	0.617674	0.095161	0.905596
	H117	H	0.382169	0.085512	0.096551
	H118	H	0.616737	0.909281	0.091083
	H119	H	0.380936	0.902279	0.907481
	C120	C	0.376260	0.007939	0.620134
	C121	C	0.619461	0.990382	0.619081
	C122	C	0.620850	0.008082	0.375748
	C123	C	0.377138	0.991460	0.376364
	C124	C	0.620394	0.378329	0.006793
	C125	C	0.620787	0.622337	0.989580
	C126	C	0.376588	0.622828	0.006980
	C127	C	0.377023	0.377900	0.989807
	C128	C	0.007431	0.619587	0.378280
	C129	C	0.989850	0.621596	0.620658
	C130	C	0.007981	0.379345	0.618633
	C131	C	0.989970	0.377175	0.375383
	C132	C	0.877119	0.507885	0.120671
	C133	C	0.120107	0.490790	0.119996
	C134	C	0.120792	0.508671	0.875922
	C135	C	0.877927	0.491342	0.876321
	C136	C	0.119721	0.877652	0.507161
	C137	C	0.120316	0.121300	0.489636
	C138	C	0.876664	0.121874	0.506660
	C139	C	0.877108	0.877243	0.489997
	C140	C	0.507387	0.120159	0.877342
	C141	C	0.490269	0.122554	0.120690
	C142	C	0.507548	0.880305	0.118348
	C143	C	0.490042	0.877712	0.876215
	C144	C	0.377640	0.884783	0.674878
	C145	C	0.617425	0.113799	0.675456
	C146	C	0.618962	0.884996	0.319181
	C147	C	0.379976	0.115099	0.323159
	C148	C	0.675098	0.380718	0.883329
	C149	C	0.675038	0.620214	0.113211
	C150	C	0.322747	0.617508	0.883688
	C151	C	0.322754	0.383315	0.113529
	C152	C	0.883050	0.673910	0.381404
	C153	C	0.114077	0.677015	0.618096
	C154	C	0.883402	0.325043	0.615567
	C155	C	0.114048	0.322195	0.377598
	C156	C	0.883414	0.381907	0.673278
	C157	C	0.114559	0.619147	0.674392
	C158	C	0.882921	0.616983	0.323817
	C159	C	0.114359	0.379507	0.320396
	C160	C	0.379342	0.675788	0.883749
	C161	C	0.618237	0.678571	0.112703
	C162	C	0.619128	0.321505	0.884286
	C163	C	0.378943	0.324441	0.113029
	C164	C	0.675287	0.884337	0.377802
	C165	C	0.673951	0.114227	0.616870
	C166	C	0.321624	0.884137	0.615523
	C167	C	0.322372	0.114593	0.380919
	C168	C	0.878535	0.384512	0.174244
	C169	C	0.117809	0.613965	0.176458
	C170	C	0.118746	0.385240	0.819811
	C171	C	0.880129	0.614652	0.822546
	C172	C	0.174747	0.879698	0.383784
	C173	C	0.174236	0.118654	0.613096
	C174	C	0.823321	0.116425	0.382812
	C175	C	0.821855	0.882010	0.613208
	C176	C	0.383001	0.174421	0.881342
	C177	C	0.614355	0.177622	0.117855
	C178	C	0.383316	0.825444	0.115794
	C179	C	0.614023	0.822068	0.877338
	C180	C	0.383208	0.882373	0.173472
	C181	C	0.614622	0.120209	0.174936
	C182	C	0.382919	0.117141	0.823946
	C183	C	0.613980	0.879285	0.819917
	C184	C	0.879993	0.175153	0.383510
	C185	C	0.118618	0.177696	0.612424
	C186	C	0.119045	0.820703	0.384539
	C187	C	0.878443	0.823360	0.612972
	C188	C	0.174837	0.384665	0.878794
	C189	C	0.173615	0.614750	0.117373
	C190	C	0.821948	0.384389	0.115459
	C191	C	0.823272	0.614967	0.881040
	C192	C	0.398469	0.093849	0.599521
	C193	C	0.597331	0.904592	0.596822
	C194	C	0.598836	0.094046	0.398338
	C195	C	0.399179	0.905315	0.397051
	C196	C	0.597785	0.401428	0.092704
	C197	C	0.598367	0.598971	0.903778
	C198	C	0.398550	0.602077	0.093209
	C199	C	0.399235	0.398311	0.903472
	C200	C	0.094049	0.597607	0.399854
	C201	C	0.903285	0.599084	0.598750
	C202	C	0.094797	0.401199	0.596423
	C203	C	0.903376	0.398985	0.397513
	C204	C	0.899662	0.593827	0.099944
	C205	C	0.098184	0.404888	0.097233
	C206	C	0.098528	0.594559	0.898465
	C207	C	0.899702	0.405163	0.897040
	C208	C	0.097127	0.900389	0.593233
	C209	C	0.098051	0.098443	0.403376
	C210	C	0.898254	0.101157	0.593159
	C211	C	0.899660	0.897984	0.403937
	C212	C	0.594386	0.098706	0.898399
	C213	C	0.403331	0.100424	0.099255
	C214	C	0.594458	0.902037	0.096625
	C215	C	0.403638	0.899805	0.898818
	Zn216	Zn	0.498104	-0.000982	0.748435
	Zn217	Zn	0.499073	0.000185	0.247547
	Zn218	Zn	0.748898	0.500181	-0.001729
	Zn219	Zn	0.248591	0.499932	-0.002021
	Zn220	Zn	-0.001297	0.748502	0.499089
	Zn221	Zn	-0.000645	0.250028	0.497993
	Zn222	Zn	-0.000647	0.499880	0.747330
	Zn223	Zn	-0.001174	0.499252	0.248855
	Zn224	Zn	0.498922	0.750784	-0.002094
	Zn225	Zn	0.498691	0.249218	-0.001241
	Zn226	Zn	0.748546	-0.000753	0.497798
	Zn227	Zn	0.247642	-0.000814	0.498250
	N228	N	0.410775	0.962555	0.678038
	N229	N	0.584114	0.035904	0.676906
	N230	N	0.586072	0.962829	0.317477
	N231	N	0.413528	0.037445	0.320464
	N232	N	0.675923	0.415354	0.960599
	N233	N	0.676920	0.586169	0.035653
	N234	N	0.321115	0.585118	0.961364
	N235	N	0.321319	0.415805	0.035884
	N236	N	0.961343	0.675759	0.414297
	N237	N	0.035512	0.678673	0.585481
	N238	N	0.961893	0.323316	0.582199
	N239	N	0.035913	0.320594	0.411172
	N240	N	0.961735	0.414916	0.675186
	N241	N	0.036415	0.585506	0.676248
	N242	N	0.961230	0.583783	0.321765
	N243	N	0.036094	0.412798	0.318709
	N244	N	0.412197	0.679302	0.961529
	N245	N	0.585095	0.679787	0.034830
	N246	N	0.585770	0.319943	0.962139
	N247	N	0.412144	0.321098	0.035128
	N248	N	0.676384	0.961811	0.412467
	N249	N	0.675532	0.036720	0.582782
	N250	N	0.320435	0.961620	0.582401
	N251	N	0.320425	0.036781	0.413187
	N252	N	0.912217	0.462145	0.177403
	N253	N	0.084967	0.535978	0.177921
	N254	N	0.085930	0.463141	0.817869
	N255	N	0.913339	0.536799	0.819470
	N256	N	0.175348	0.914474	0.461118
	N257	N	0.175320	0.084376	0.535514
	N258	N	0.821042	0.084156	0.460623
	N259	N	0.820979	0.914894	0.535683
	N260	N	0.461473	0.176145	0.914078
	N261	N	0.536140	0.178925	0.084850
	N262	N	0.461563	0.824073	0.082134
	N263	N	0.536060	0.820842	0.911568
	N264	N	0.461467	0.915712	0.175120
	N265	N	0.536423	0.086451	0.176804
	N266	N	0.461195	0.084183	0.821301
	N267	N	0.536031	0.913261	0.819186
	N268	N	0.912304	0.178637	0.461598
	N269	N	0.085796	0.179470	0.534491
	N270	N	0.085598	0.819360	0.462218
	N271	N	0.911791	0.820028	0.535332
	N272	N	0.176410	0.462296	0.912814
	N273	N	0.175054	0.537350	0.082705
	N274	N	0.820962	0.462127	0.082804
	N275	N	0.821938	0.537534	0.913823
	O276	O	1.047248	0.986320	0.074210
	H277	H	1.038787	0.981288	0.076486
	H278	H	1.046884	0.988800	0.082643
	O279	O	0.015048	-0.026733	0.014528
	H280	H	0.009128	-0.028922	0.016972
	H281	H	0.012945	-0.029776	0.009665
	O282	O	0.063952	-0.032857	0.954705
	H283	H	0.068961	-0.028792	0.961120
	H284	H	0.055847	-0.037686	0.949634
	O285	O	0.491865	0.442788	0.526513
	H286	H	0.503188	0.447296	0.525006
	H287	H	0.499710	0.437702	0.531377
	O288	O	0.443039	0.460347	0.480715
	H289	H	0.443571	0.457158	0.492373
	H290	H	0.438707	0.456589	0.477641
	O291	O	0.486165	0.461213	0.483903
	H292	H	0.481125	0.457916	0.473065
	H293	H	0.475286	0.463715	0.486783
	O294	O	0.035085	-0.018498	0.016846
	H295	H	0.035607	-0.017647	0.018110
	H296	H	0.035413	-0.020167	0.018566
	O297	O	0.541776	0.517974	0.560748
	H298	H	0.550815	0.511668	0.555057
	H299	H	0.542550	0.515040	0.567777
	O300	O	-0.002508	1.005349	1.032383
	H301	H	-0.008813	1.009061	1.030487
	H302	H	0.002003	1.008454	1.038088
	O303	O	0.576269	0.496885	0.528280
	H304	H	0.576523	0.496544	0.528742
	H305	H	0.571056	0.502178	0.523070
	O306	O	0.066459	0.013103	1.010117
	H307	H	0.064890	0.020325	1.011192
	H308	H	0.072346	0.013733	1.013147
	O309	O	0.999055	0.987949	1.046260
	H310	H	1.006575	0.988447	1.040542
	H311	H	1.004978	0.980946	1.051171
	O312	O	0.521719	0.487934	0.467719
	H313	H	0.525955	0.493333	0.462554
	H314	H	0.521473	0.483949	0.467911
	O315	O	0.508813	0.440903	0.534138
	H316	H	0.512781	0.442274	0.540212
	H317	H	0.507991	0.433400	0.535623
	O318	O	0.046000	0.982802	-0.024144
	H319	H	0.046467	0.974412	-0.028555
	H320	H	0.048641	0.983974	-0.028690
	O321	O	1.018516	0.990773	0.017766
	H322	H	1.016038	0.982462	0.020088
	H323	H	1.020482	0.990004	0.023391
