data_Molecule from HDF5

_cell_length_a		16.251832
_cell_length_b		16.248364
_cell_length_c		16.346926
_cell_angle_alpha	89.961681
_cell_angle_beta	90.013763
_cell_angle_gamma	90.061655
_symmetry_space_group_name_H-M	'P 1'
_symmetry_Int_Tables_number		1

loop_
	_symmetry_equiv_pos_as_xyz
	x,y,z

loop_
	_atom_site_label
	_atom_site_type_symbol
	_atom_site_fract_x
	_atom_site_fract_y
	_atom_site_fract_z
	H0	H	0.401892	0.836286	0.714653
	H1	H	0.598113	0.164060	0.713331
	H2	H	0.598278	0.836033	0.285747
	H3	H	0.400953	0.163256	0.284984
	H4	H	0.714078	0.402854	0.836535
	H5	H	0.714159	0.596972	0.163016
	H6	H	0.285915	0.598139	0.836981
	H7	H	0.285884	0.401456	0.163299
	H8	H	0.835570	0.712728	0.403258
	H9	H	0.164273	0.712499	0.596430
	H10	H	0.835757	0.286281	0.597789
	H11	H	0.164133	0.287784	0.403905
	H12	H	0.836391	0.401368	0.714805
	H13	H	0.163278	0.598694	0.714817
	H14	H	0.835582	0.598299	0.285982
	H15	H	0.163586	0.402216	0.286056
	H16	H	0.401540	0.714772	0.837141
	H17	H	0.598387	0.714077	0.162701
	H18	H	0.597461	0.286551	0.835856
	H19	H	0.402053	0.285211	0.163002
	H20	H	0.712477	0.834877	0.403979
	H21	H	0.712858	0.164148	0.595764
	H22	H	0.287279	0.835270	0.596994
	H23	H	0.287787	0.164940	0.403585
	H24	H	0.900854	0.336302	0.215269
	H25	H	0.097764	0.664406	0.213422
	H26	H	0.098129	0.336351	0.785387
	H27	H	0.902765	0.664315	0.786355
	H28	H	0.212258	0.904197	0.336378
	H29	H	0.214350	0.098000	0.663003
	H30	H	0.784946	0.098394	0.336919
	H31	H	0.786161	0.902341	0.663326
	H32	H	0.335351	0.211607	0.904332
	H33	H	0.664850	0.213152	0.096439
	H34	H	0.335836	0.785958	0.097498
	H35	H	0.664843	0.787684	0.903484
	H36	H	0.336462	0.901494	0.213673
	H37	H	0.664059	0.099323	0.214500
	H38	H	0.336131	0.098408	0.786198
	H39	H	0.663699	0.901911	0.785953
	H40	H	0.902754	0.213925	0.337008
	H41	H	0.098291	0.214967	0.662971
	H42	H	0.097909	0.786037	0.337052
	H43	H	0.903181	0.786639	0.663814
	H44	H	0.213142	0.335684	0.903030
	H45	H	0.213258	0.664448	0.096516
	H46	H	0.786983	0.335248	0.096620
	H47	H	0.787260	0.664473	0.902436
	H48	H	0.400797	0.119261	0.593922
	H49	H	0.589132	0.883944	0.592475
	H50	H	0.595319	0.117110	0.407206
	H51	H	0.400726	0.881254	0.407876
	H52	H	0.583639	0.399517	0.115037
	H53	H	0.597842	0.588501	0.883821
	H54	H	0.399925	0.594688	0.118710
	H55	H	0.408417	0.401828	0.882990
	H56	H	0.114750	0.592626	0.412981
	H57	H	0.879394	0.595615	0.602309
	H58	H	0.118830	0.404199	0.596831
	H59	H	0.883387	0.410490	0.407650
	H60	H	0.116012	0.405749	0.589107
	H61	H	0.882886	0.599746	0.587711
	H62	H	0.115951	0.587866	0.400648
	H63	H	0.881732	0.406530	0.402883
	H64	H	0.408411	0.586553	0.113619
	H65	H	0.587576	0.593629	0.885001
	H66	H	0.603495	0.400358	0.120565
	H67	H	0.402490	0.406808	0.882642
	H68	H	0.592589	0.117232	0.403942
	H69	H	0.595836	0.882636	0.591902
	H70	H	0.410115	0.117600	0.600024
	H71	H	0.407767	0.881464	0.399770
	H72	H	0.901022	0.621267	0.101737
	H73	H	0.093188	0.382317	0.094892
	H74	H	0.088355	0.614555	0.910690
	H75	H	0.909138	0.384657	0.911042
	H76	H	0.097213	0.907175	0.617427
	H77	H	0.094640	0.093593	0.383388
	H78	H	0.898700	0.088198	0.616632
	H79	H	0.899188	0.906133	0.381653
	H80	H	0.613419	0.088471	0.915355
	H81	H	0.383644	0.100023	0.084329
	H82	H	0.616559	0.908586	0.094300
	H83	H	0.382015	0.898858	0.912193
	H84	H	0.618317	0.905864	0.095162
	H85	H	0.388203	0.081189	0.091918
	H86	H	0.618459	0.087605	0.896226
	H87	H	0.386646	0.914510	0.910150
	H88	H	0.913405	0.089383	0.612870
	H89	H	0.094332	0.094347	0.383797
	H90	H	0.091898	0.908115	0.615555
	H91	H	0.908958	0.911909	0.386418
	H92	H	0.099577	0.617488	0.908290
	H93	H	0.092532	0.383506	0.093768
	H94	H	0.918289	0.613790	0.095283
	H95	H	0.902426	0.381947	0.906995
	H96	H	0.409902	0.114954	0.589019
	H97	H	0.593378	0.881465	0.598177
	H98	H	0.591256	0.115433	0.407573
	H99	H	0.410489	0.885509	0.409162
	H100	H	0.594023	0.417104	0.113146
	H101	H	0.596631	0.599606	0.880456
	H102	H	0.411980	0.598163	0.115833
	H103	H	0.409419	0.409424	0.885767
	H104	H	0.120050	0.600308	0.404157
	H105	H	0.885576	0.585511	0.592647
	H106	H	0.115548	0.412169	0.595126
	H107	H	0.882354	0.404472	0.408666
	H108	H	0.902677	0.615306	0.082830
	H109	H	0.094000	0.383059	0.093616
	H110	H	0.091438	0.618304	0.900498
	H111	H	0.909659	0.382633	0.902769
	H112	H	0.093231	0.902972	0.616724
	H113	H	0.094120	0.094490	0.382961
	H114	H	0.905948	0.101792	0.619004
	H115	H	0.909330	0.899920	0.383462
	H116	H	0.620452	0.104403	0.905970
	H117	H	0.379880	0.096173	0.103769
	H118	H	0.616941	0.905882	0.091422
	H119	H	0.380090	0.905958	0.897192
	C120	C	0.378394	0.008569	0.621879
	C121	C	0.620987	0.991453	0.621434
	C122	C	0.621566	0.007986	0.378429
	C123	C	0.378463	0.991556	0.378201
	C124	C	0.621541	0.378235	0.008038
	C125	C	0.622162	0.621659	0.991201
	C126	C	0.378332	0.621848	0.008382
	C127	C	0.378432	0.377769	0.991617
	C128	C	0.008283	0.621583	0.378232
	C129	C	0.991207	0.621866	0.621997
	C130	C	0.008542	0.378526	0.621934
	C131	C	0.991001	0.379258	0.378778
	C132	C	0.878763	0.508256	0.121445
	C133	C	0.121299	0.491592	0.121714
	C134	C	0.121422	0.508422	0.878539
	C135	C	0.878592	0.491565	0.878558
	C136	C	0.121459	0.878601	0.508233
	C137	C	0.121921	0.121794	0.491713
	C138	C	0.878027	0.121564	0.508424
	C139	C	0.877881	0.878252	0.491753
	C140	C	0.508626	0.121476	0.878375
	C141	C	0.492022	0.121426	0.121724
	C142	C	0.508749	0.878385	0.121461
	C143	C	0.491402	0.878508	0.878598
	C144	C	0.381219	0.885008	0.676633
	C145	C	0.618931	0.115147	0.675573
	C146	C	0.619346	0.884893	0.323354
	C147	C	0.381078	0.114758	0.323345
	C148	C	0.676374	0.381582	0.885052
	C149	C	0.676627	0.618091	0.114163
	C150	C	0.323578	0.618986	0.885768
	C151	C	0.323862	0.380634	0.114532
	C152	C	0.884419	0.675578	0.382115
	C153	C	0.114927	0.675467	0.617938
	C154	C	0.884889	0.323919	0.618688
	C155	C	0.115039	0.324872	0.382312
	C156	C	0.885248	0.380453	0.677144
	C157	C	0.114760	0.618853	0.676417
	C158	C	0.884399	0.618569	0.323956
	C159	C	0.114742	0.381789	0.323940
	C160	C	0.381115	0.676806	0.885735
	C161	C	0.619172	0.676291	0.114084
	C162	C	0.618503	0.324100	0.884729
	C163	C	0.381498	0.323009	0.114430
	C164	C	0.675531	0.884178	0.382392
	C165	C	0.675689	0.115128	0.617062
	C166	C	0.324256	0.884690	0.618379
	C167	C	0.324733	0.115473	0.382168
	C168	C	0.880810	0.384968	0.176627
	C169	C	0.118314	0.615429	0.175684
	C170	C	0.118658	0.385001	0.823557
	C171	C	0.881574	0.615207	0.823958
	C172	C	0.175503	0.882324	0.385378
	C173	C	0.176592	0.118729	0.614599
	C174	C	0.822901	0.118848	0.385671
	C175	C	0.823811	0.881606	0.614684
	C176	C	0.384662	0.175222	0.882533
	C177	C	0.615708	0.175731	0.117808
	C178	C	0.384974	0.823774	0.118344
	C179	C	0.615428	0.824716	0.882144
	C180	C	0.385423	0.880801	0.176275
	C181	C	0.615282	0.119378	0.176433
	C182	C	0.385242	0.118851	0.823800
	C183	C	0.614981	0.881661	0.823991
	C184	C	0.881261	0.176177	0.385553
	C185	C	0.119053	0.176789	0.614515
	C186	C	0.118204	0.824280	0.385323
	C187	C	0.881684	0.824061	0.614820
	C188	C	0.175651	0.384805	0.881882
	C189	C	0.175841	0.615399	0.117862
	C190	C	0.823924	0.384634	0.118069
	C191	C	0.824436	0.615308	0.881690
	C192	C	0.400229	0.094778	0.600649
	C193	C	0.599249	0.905174	0.600506
	C194	C	0.599516	0.094192	0.400028
	C195	C	0.399830	0.905097	0.399395
	C196	C	0.599913	0.399395	0.093938
	C197	C	0.600459	0.600232	0.905195
	C198	C	0.400389	0.599773	0.094091
	C199	C	0.400338	0.399724	0.905872
	C200	C	0.094662	0.599875	0.399757
	C201	C	0.904846	0.599920	0.600771
	C202	C	0.094721	0.400916	0.600216
	C203	C	0.904907	0.400709	0.400274
	C204	C	0.900840	0.594594	0.099716
	C205	C	0.099568	0.405143	0.100310
	C206	C	0.099585	0.594596	0.900132
	C207	C	0.900679	0.405058	0.900423
	C208	C	0.100266	0.899823	0.594381
	C209	C	0.100549	0.100645	0.405595
	C210	C	0.899819	0.099720	0.594157
	C211	C	0.899541	0.899723	0.405894
	C212	C	0.595217	0.099754	0.899498
	C213	C	0.405851	0.099083	0.099964
	C214	C	0.595001	0.900304	0.099893
	C215	C	0.405325	0.900068	0.900236
	Zn216	Zn	0.499892	0.000272	0.750264
	Zn217	Zn	0.500417	-0.000234	0.249723
	Zn218	Zn	0.750434	0.499734	-0.000345
	Zn219	Zn	0.249952	0.499873	-0.000170
	Zn220	Zn	-0.000288	0.749712	0.500151
	Zn221	Zn	-0.000183	0.250451	0.500200
	Zn222	Zn	-0.000452	0.500336	0.749945
	Zn223	Zn	-0.000090	0.500282	0.250323
	Zn224	Zn	0.499937	0.750234	-0.000296
	Zn225	Zn	0.500292	0.249405	-0.000485
	Zn226	Zn	0.749512	-0.000072	0.500095
	Zn227	Zn	0.250417	0.000041	0.500015
	N228	N	0.414457	0.962919	0.678831
	N229	N	0.585735	0.037231	0.678539
	N230	N	0.586300	0.962813	0.321057
	N231	N	0.413886	0.036702	0.320686
	N232	N	0.678336	0.414623	0.962547
	N233	N	0.678630	0.585001	0.036766
	N234	N	0.321782	0.585370	0.963015
	N235	N	0.321858	0.414041	0.037174
	N236	N	0.962345	0.677685	0.415152
	N237	N	0.037165	0.677350	0.584871
	N238	N	0.962608	0.322474	0.585196
	N239	N	0.037382	0.323287	0.416000
	N240	N	0.963013	0.413856	0.679099
	N241	N	0.036794	0.585924	0.678768
	N242	N	0.962497	0.585948	0.321272
	N243	N	0.036810	0.414560	0.321463
	N244	N	0.414398	0.678572	0.963059
	N245	N	0.585938	0.678535	0.036550
	N246	N	0.585196	0.321812	0.962197
	N247	N	0.414682	0.321072	0.037030
	N248	N	0.677125	0.961863	0.415756
	N249	N	0.677047	0.037308	0.584189
	N250	N	0.322642	0.962400	0.584863
	N251	N	0.323179	0.037873	0.415651
	N252	N	0.914280	0.462796	0.178748
	N253	N	0.085278	0.537364	0.178360
	N254	N	0.085572	0.462958	0.821120
	N255	N	0.914450	0.537214	0.821874
	N256	N	0.177428	0.915494	0.462679
	N257	N	0.178401	0.085306	0.537241
	N258	N	0.820874	0.085681	0.463069
	N259	N	0.821535	0.914596	0.537224
	N260	N	0.462477	0.176752	0.915678
	N261	N	0.538031	0.177051	0.084407
	N262	N	0.462676	0.822046	0.084891
	N263	N	0.537754	0.822670	0.915471
	N264	N	0.463215	0.914028	0.178302
	N265	N	0.537290	0.086183	0.178948
	N266	N	0.463317	0.086268	0.821055
	N267	N	0.536974	0.914422	0.821520
	N268	N	0.914787	0.177936	0.462780
	N269	N	0.085703	0.178646	0.537241
	N270	N	0.085372	0.821763	0.462903
	N271	N	0.914814	0.821825	0.537358
	N272	N	0.177063	0.462292	0.915640
	N273	N	0.177760	0.537547	0.084910
	N274	N	0.822814	0.462265	0.084258
	N275	N	0.822557	0.537302	0.914883
