data_Molecule from HDF5

_cell_length_a		16.297633
_cell_length_b		16.274232
_cell_length_c		16.081236
_cell_angle_alpha	89.482730
_cell_angle_beta	90.598110
_cell_angle_gamma	89.208741
_symmetry_space_group_name_H-M	'P 1'
_symmetry_Int_Tables_number		1

loop_
	_symmetry_equiv_pos_as_xyz
	x,y,z

loop_
	_atom_site_label
	_atom_site_type_symbol
	_atom_site_fract_x
	_atom_site_fract_y
	_atom_site_fract_z
	H0	H	0.403106	0.838131	0.711454
	H1	H	0.592607	0.167074	0.708564
	H2	H	0.594312	0.836662	0.285402
	H3	H	0.394462	0.165735	0.279388
	H4	H	0.710459	0.401262	0.830229
	H5	H	0.711189	0.599479	0.158444
	H6	H	0.278818	0.607206	0.829319
	H7	H	0.283901	0.404759	0.159054
	H8	H	0.833763	0.722503	0.387722
	H9	H	0.160290	0.710479	0.594158
	H10	H	0.831797	0.287531	0.591991
	H11	H	0.158706	0.282864	0.396867
	H12	H	0.831781	0.403672	0.708314
	H13	H	0.159690	0.595006	0.708806
	H14	H	0.830979	0.601347	0.278702
	H15	H	0.159874	0.401851	0.282597
	H16	H	0.392501	0.720939	0.829931
	H17	H	0.593859	0.712006	0.160482
	H18	H	0.593822	0.288927	0.829751
	H19	H	0.398360	0.289831	0.159605
	H20	H	0.712765	0.838602	0.398619
	H21	H	0.712598	0.164680	0.597384
	H22	H	0.284240	0.837744	0.598733
	H23	H	0.274817	0.163670	0.391583
	H24	H	0.901186	0.338417	0.206838
	H25	H	0.091388	0.667304	0.207924
	H26	H	0.094374	0.337240	0.785866
	H27	H	0.894776	0.665296	0.776304
	H28	H	0.212321	0.899615	0.330225
	H29	H	0.208573	0.096236	0.660408
	H30	H	0.777106	0.103640	0.330618
	H31	H	0.785523	0.900108	0.660905
	H32	H	0.333161	0.222091	0.891378
	H33	H	0.658574	0.215864	0.099197
	H34	H	0.331452	0.788361	0.096045
	H35	H	0.657027	0.783743	0.897703
	H36	H	0.330912	0.907047	0.208373
	H37	H	0.658888	0.095664	0.210678
	H38	H	0.333224	0.105398	0.777355
	H39	H	0.660305	0.904210	0.787094
	H40	H	0.892616	0.217136	0.329260
	H41	H	0.095412	0.211177	0.659930
	H42	H	0.093709	0.788477	0.328271
	H43	H	0.901805	0.785518	0.659288
	H44	H	0.216396	0.341461	0.894349
	H45	H	0.208505	0.667728	0.093380
	H46	H	0.782499	0.339597	0.096174
	H47	H	0.775291	0.664648	0.889001
	H48	H	0.396241	0.118453	0.582446
	H49	H	0.599610	0.883378	0.588944
	H50	H	0.591804	0.119460	0.402320
	H51	H	0.406988	0.881934	0.390452
	H52	H	0.595415	0.412487	0.113486
	H53	H	0.584870	0.595022	0.876324
	H54	H	0.394645	0.592807	0.115082
	H55	H	0.397893	0.414189	0.875066
	H56	H	0.113053	0.595636	0.401231
	H57	H	0.878476	0.603461	0.579687
	H58	H	0.109273	0.411141	0.586076
	H59	H	0.880976	0.413628	0.404629
	H60	H	0.114889	0.403246	0.597018
	H61	H	0.882837	0.588539	0.577338
	H62	H	0.111665	0.592587	0.402518
	H63	H	0.878368	0.410627	0.393345
	H64	H	0.407296	0.591527	0.110202
	H65	H	0.583007	0.593026	0.876713
	H66	H	0.584866	0.412206	0.110200
	H67	H	0.406457	0.418591	0.878409
	H68	H	0.581820	0.118511	0.398981
	H69	H	0.592650	0.883190	0.598875
	H70	H	0.399971	0.119418	0.589276
	H71	H	0.414560	0.890057	0.411963
	H72	H	0.895327	0.620040	0.081502
	H73	H	0.091361	0.388119	0.085447
	H74	H	0.086295	0.619239	0.903304
	H75	H	0.894058	0.381621	0.899570
	H76	H	0.093402	0.904408	0.613655
	H77	H	0.093571	0.091829	0.374449
	H78	H	0.908928	0.094607	0.611346
	H79	H	0.900397	0.917433	0.377344
	H80	H	0.613754	0.099164	0.904646
	H81	H	0.376384	0.103709	0.088211
	H82	H	0.611579	0.900206	0.083815
	H83	H	0.378325	0.915292	0.899609
	H84	H	0.608903	0.913043	0.088892
	H85	H	0.380514	0.098517	0.080173
	H86	H	0.612331	0.095076	0.906020
	H87	H	0.377417	0.909938	0.901875
	H88	H	0.900800	0.097079	0.614724
	H89	H	0.080120	0.084285	0.380104
	H90	H	0.090082	0.906152	0.612242
	H91	H	0.908153	0.911599	0.378642
	H92	H	0.089642	0.621459	0.899384
	H93	H	0.093599	0.386239	0.086494
	H94	H	0.900704	0.621040	0.089305
	H95	H	0.910550	0.385590	0.896179
	H96	H	0.403863	0.117501	0.582437
	H97	H	0.587823	0.887838	0.587493
	H98	H	0.584530	0.115879	0.409685
	H99	H	0.391573	0.882645	0.409796
	H100	H	0.588899	0.402193	0.114783
	H101	H	0.582064	0.596027	0.876204
	H102	H	0.402733	0.603245	0.114970
	H103	H	0.406340	0.408521	0.874857
	H104	H	0.113634	0.593762	0.399845
	H105	H	0.876504	0.592272	0.591916
	H106	H	0.111757	0.397597	0.583403
	H107	H	0.878056	0.402737	0.402148
	H108	H	0.904865	0.618165	0.081047
	H109	H	0.091448	0.386284	0.088798
	H110	H	0.084288	0.619988	0.897540
	H111	H	0.904050	0.388109	0.912391
	H112	H	0.090640	0.902468	0.613287
	H113	H	0.080685	0.100630	0.375481
	H114	H	0.901698	0.088352	0.613209
	H115	H	0.899774	0.907833	0.374324
	H116	H	0.613467	0.095346	0.901347
	H117	H	0.379472	0.093560	0.088907
	H118	H	0.614597	0.902642	0.098190
	H119	H	0.380163	0.913702	0.906436
	C120	C	0.374764	0.010118	0.615717
	C121	C	0.619915	0.993354	0.619365
	C122	C	0.615893	0.009708	0.375849
	C123	C	0.372873	0.992799	0.373068
	C124	C	0.617807	0.380393	0.003665
	C125	C	0.613812	0.622349	0.985492
	C126	C	0.372202	0.625970	0.003680
	C127	C	0.375320	0.383900	0.985345
	C128	C	0.004319	0.624076	0.371063
	C129	C	0.987513	0.621434	0.613487
	C130	C	0.003941	0.377607	0.616565
	C131	C	0.986883	0.379116	0.371955
	C132	C	0.873836	0.511286	0.114332
	C133	C	0.118685	0.494993	0.115911
	C134	C	0.116994	0.511862	0.873141
	C135	C	0.872239	0.493021	0.871400
	C136	C	0.119231	0.877213	0.503584
	C137	C	0.114880	0.119988	0.486114
	C138	C	0.873246	0.123391	0.503643
	C139	C	0.875936	0.881297	0.486084
	C140	C	0.504887	0.126295	0.872897
	C141	C	0.486697	0.124876	0.116781
	C142	C	0.503603	0.878972	0.118449
	C143	C	0.486500	0.882228	0.875403
	C144	C	0.380973	0.887062	0.673010
	C145	C	0.614639	0.117443	0.672174
	C146	C	0.614845	0.886209	0.321908
	C147	C	0.373736	0.116133	0.316796
	C148	C	0.672677	0.381856	0.879442
	C149	C	0.671702	0.619585	0.109520
	C150	C	0.316266	0.626291	0.879074
	C151	C	0.321428	0.385126	0.109892
	C152	C	0.882036	0.682602	0.369893
	C153	C	0.110837	0.674457	0.613566
	C154	C	0.880904	0.324510	0.613216
	C155	C	0.109878	0.321615	0.375326
	C156	C	0.880943	0.382322	0.671090
	C157	C	0.110821	0.616386	0.670511
	C158	C	0.880686	0.622473	0.315170
	C159	C	0.110481	0.381045	0.318734
	C160	C	0.372502	0.683069	0.879435
	C161	C	0.613323	0.675518	0.110498
	C162	C	0.614849	0.325798	0.879460
	C163	C	0.378112	0.327631	0.109895
	C164	C	0.673471	0.886980	0.378691
	C165	C	0.674420	0.116229	0.617100
	C166	C	0.321685	0.886870	0.616874
	C167	C	0.314441	0.115067	0.372765
	C168	C	0.879638	0.387555	0.169892
	C169	C	0.113243	0.618213	0.170677
	C170	C	0.115158	0.387167	0.821397
	C171	C	0.873709	0.615965	0.813860
	C172	C	0.174008	0.879827	0.379268
	C173	C	0.171001	0.116560	0.610804
	C174	C	0.815921	0.122871	0.379700
	C175	C	0.822568	0.881024	0.611067
	C176	C	0.382252	0.183767	0.872202
	C177	C	0.609624	0.178201	0.117419
	C178	C	0.380341	0.825847	0.115719
	C179	C	0.608966	0.823559	0.877831
	C180	C	0.380179	0.884504	0.172087
	C181	C	0.610007	0.118468	0.173070
	C182	C	0.382136	0.125830	0.814994
	C183	C	0.610674	0.883543	0.823109
	C184	C	0.872995	0.179869	0.379406
	C185	C	0.114625	0.173930	0.610512
	C186	C	0.115288	0.824537	0.378348
	C187	C	0.880230	0.823862	0.610212
	C188	C	0.176286	0.389533	0.874784
	C189	C	0.171377	0.618610	0.113678
	C190	C	0.820542	0.388150	0.114449
	C191	C	0.814408	0.615791	0.870082
	C192	C	0.394305	0.096136	0.591815
	C193	C	0.599601	0.907238	0.598038
	C194	C	0.592754	0.095723	0.397327
	C195	C	0.397203	0.906964	0.397106
	C196	C	0.596184	0.402435	0.090331
	C197	C	0.590351	0.601005	0.898930
	C198	C	0.394896	0.602623	0.090843
	C199	C	0.397301	0.407087	0.898596
	C200	C	0.090234	0.600714	0.394361
	C201	C	0.901572	0.600802	0.589784
	C202	C	0.089789	0.397962	0.595293
	C203	C	0.901316	0.402134	0.393635
	C204	C	0.894263	0.597423	0.090697
	C205	C	0.098300	0.409157	0.093517
	C206	C	0.093635	0.597950	0.893885
	C207	C	0.895843	0.407269	0.895605
	C208	C	0.097776	0.898187	0.590546
	C209	C	0.091612	0.098550	0.399131
	C210	C	0.897023	0.100083	0.590677
	C211	C	0.896591	0.905263	0.399235
	C212	C	0.590883	0.103128	0.896962
	C213	C	0.400826	0.104708	0.092868
	C214	C	0.589519	0.899099	0.096549
	C215	C	0.400889	0.905939	0.896543
	Zn216	Zn	0.496729	0.003048	0.746019
	Zn217	Zn	0.495193	0.001822	0.245180
	Zn218	Zn	0.744014	0.502032	-0.006444
	Zn219	Zn	0.246580	0.504833	-0.006021
	Zn220	Zn	-0.003515	0.751788	0.493187
	Zn221	Zn	-0.004658	0.248909	0.494486
	Zn222	Zn	-0.003996	0.500712	0.744271
	Zn223	Zn	-0.004227	0.502420	0.243317
	Zn224	Zn	0.493719	0.751539	-0.004528
	Zn225	Zn	0.495899	0.254510	-0.005099
	Zn226	Zn	0.746846	0.001917	0.496451
	Zn227	Zn	0.244386	0.000086	0.495039
	N228	N	0.413534	0.964528	0.672398
	N229	N	0.581820	0.040054	0.673992
	N230	N	0.579792	0.963645	0.319949
	N231	N	0.409310	0.038884	0.316868
	N232	N	0.674670	0.415123	0.957718
	N233	N	0.672219	0.587197	0.030742
	N234	N	0.316032	0.591240	0.957441
	N235	N	0.319597	0.419668	0.031549
	N236	N	0.960031	0.683900	0.403698
	N237	N	0.033221	0.677618	0.578865
	N238	N	0.958296	0.321458	0.580138
	N239	N	0.032057	0.320142	0.407757
	N240	N	0.958558	0.414498	0.673434
	N241	N	0.033264	0.583979	0.670696
	N242	N	0.957612	0.586506	0.316012
	N243	N	0.033153	0.415999	0.316561
	N244	N	0.406576	0.683130	0.957986
	N245	N	0.577515	0.676983	0.032534
	N246	N	0.581566	0.324839	0.957695
	N247	N	0.411021	0.326933	0.031424
	N248	N	0.674199	0.964771	0.411577
	N249	N	0.678093	0.037962	0.585117
	N250	N	0.317820	0.964325	0.581876
	N251	N	0.313832	0.037266	0.407033
	N252	N	0.912303	0.465116	0.169783
	N253	N	0.081217	0.540468	0.172261
	N254	N	0.079159	0.464345	0.819744
	N255	N	0.909195	0.538649	0.814677
	N256	N	0.176750	0.911841	0.458141
	N257	N	0.171360	0.083655	0.532255
	N258	N	0.815807	0.088667	0.458236
	N259	N	0.819977	0.916277	0.532895
	N260	N	0.459607	0.184129	0.907323
	N261	N	0.531890	0.182336	0.082935
	N262	N	0.458077	0.822157	0.083340
	N263	N	0.530867	0.822683	0.909486
	N264	N	0.457786	0.916814	0.173982
	N265	N	0.532600	0.086056	0.172768
	N266	N	0.459503	0.090692	0.815314
	N267	N	0.533796	0.919777	0.821530
	N268	N	0.907993	0.180077	0.457705
	N269	N	0.080237	0.175986	0.532007
	N270	N	0.081872	0.822752	0.456562
	N271	N	0.912491	0.823958	0.531592
	N272	N	0.177389	0.467984	0.906204
	N273	N	0.174924	0.540938	0.080283
	N274	N	0.816764	0.466066	0.080556
	N275	N	0.813253	0.538278	0.904956
	O276	O	-0.070739	0.054063	0.035127
	H277	H	-0.083016	0.067210	0.031793
	H278	H	-0.054932	0.055936	0.045994
	O279	O	0.527811	0.487922	0.473638
	H280	H	0.527754	0.481263	0.478675
	H281	H	0.526398	0.482360	0.462677
	O282	O	0.438294	0.536874	0.377174
	H283	H	0.434770	0.550964	0.373089
	H284	H	0.437585	0.542758	0.379857
	O285	O	-0.028596	1.027539	0.899758
	H286	H	-0.026730	1.016673	0.884207
	H287	H	-0.018305	1.017123	0.901207
	O288	O	0.581637	0.527028	0.556967
	H289	H	0.586880	0.509441	0.551642
	H290	H	0.585326	0.533871	0.559425
	O291	O	0.900636	1.060307	0.870527
	H292	H	0.897777	1.058470	0.881351
	H293	H	0.893077	1.051536	0.862282
	O294	O	1.008364	1.044526	1.071053
	H295	H	0.999432	1.040047	1.065700
	H296	H	1.006937	1.052304	1.081307
	O297	O	0.975613	-0.073984	0.948576
	H298	H	0.980270	-0.067346	0.952035
	H299	H	0.983523	-0.075410	0.952700
	O300	O	0.398305	0.508796	0.505200
	H301	H	0.384625	0.516798	0.494119
	H302	H	0.405659	0.508425	0.503392
	O303	O	1.035900	-0.012619	0.050645
	H304	H	1.039274	-0.006103	0.049684
	H305	H	1.032257	-0.013250	0.050233
	O306	O	-0.059069	1.006440	1.090213
	H307	H	-0.061332	1.016186	1.087159
	H308	H	-0.067466	1.012108	1.081376
	O309	O	0.517084	0.547943	0.521571
	H310	H	0.522044	0.537192	0.516519
	H311	H	0.530922	0.544595	0.524480
	O312	O	0.962764	0.121542	0.851113
	H313	H	0.955719	0.124651	0.849458
	H314	H	0.954583	0.127366	0.837674
	O315	O	0.467653	0.551260	0.565865
	H316	H	0.471481	0.548908	0.572272
	H317	H	0.463138	0.552890	0.565045
	O318	O	0.469593	0.473825	0.560308
	H319	H	0.466467	0.465425	0.561854
	H320	H	0.476746	0.474913	0.555699
	O321	O	1.006149	1.078657	1.053196
	H322	H	1.003490	1.089768	1.049076
	H323	H	1.019515	1.077461	1.047663
	O324	O	0.477713	0.440165	0.427598
	H325	H	0.469541	0.445054	0.411261
	H326	H	0.473533	0.451401	0.426625
	O327	O	0.489823	0.427458	0.489791
	H328	H	0.491138	0.422285	0.485810
	H329	H	0.478390	0.431223	0.496144
	O330	O	1.063491	-0.020495	0.989656
	H331	H	1.079722	-0.023408	0.993608
	H332	H	1.065069	-0.006656	0.998671
	O333	O	1.031754	1.098976	-0.062785
	H334	H	1.023983	1.107413	-0.050362
	H335	H	1.028332	1.113674	-0.077137
	O336	O	0.472262	0.504201	0.523138
	H337	H	0.480133	0.497335	0.528419
	H338	H	0.474667	0.506621	0.537321
	O339	O	0.547891	0.449161	0.362316
	H340	H	0.547841	0.447700	0.357987
	H341	H	0.539777	0.462301	0.357987
	O342	O	0.452278	0.566361	0.485934
	H343	H	0.451824	0.561799	0.478299
	H344	H	0.449421	0.564829	0.484031
	O345	O	-0.011599	0.011408	0.060696
	H346	H	-0.027712	0.009030	0.059489
	H347	H	0.002987	0.009284	0.041583
	O348	O	0.499204	0.532861	0.485991
	H349	H	0.497457	0.524120	0.488565
	H350	H	0.503560	0.528546	0.493115
	O351	O	0.448986	0.464151	0.525830
	H352	H	0.435810	0.466177	0.540021
	H353	H	0.452687	0.468032	0.524006
	O354	O	0.452092	0.560623	0.427376
	H355	H	0.463352	0.570801	0.427436
	H356	H	0.457296	0.567482	0.423741
	O357	O	0.533906	0.566296	0.434014
	H358	H	0.539782	0.570516	0.432024
	H359	H	0.531612	0.570840	0.433005
	O360	O	0.050826	-0.031883	0.026900
	H361	H	0.035052	-0.041132	0.030285
	H362	H	0.063377	-0.039388	0.036984
	O363	O	0.433065	0.504204	0.578332
	H364	H	0.433669	0.507730	0.587137
	H365	H	0.423684	0.507701	0.586433
	O366	O	-0.037872	0.080726	0.992962
	H367	H	-0.031039	0.068953	0.994596
	H368	H	-0.035081	0.075963	1.004823
	O369	O	0.609957	0.445683	0.497145
	H370	H	0.613166	0.437033	0.500316
	H371	H	0.608031	0.434852	0.485586
