data_Molecule from HDF5

_cell_length_a		16.245769
_cell_length_b		16.271434
_cell_length_c		16.259114
_cell_angle_alpha	89.952063
_cell_angle_beta	89.995577
_cell_angle_gamma	89.948478
_symmetry_space_group_name_H-M	'P 1'
_symmetry_Int_Tables_number		1

loop_
	_symmetry_equiv_pos_as_xyz
	x,y,z

loop_
	_atom_site_label
	_atom_site_type_symbol
	_atom_site_fract_x
	_atom_site_fract_y
	_atom_site_fract_z
	H0	H	0.407516	0.841571	0.718638
	H1	H	0.604449	0.169670	0.718651
	H2	H	0.604289	0.841889	0.288687
	H3	H	0.405880	0.169359	0.288326
	H4	H	0.720569	0.407932	0.840176
	H5	H	0.719731	0.605106	0.168308
	H6	H	0.290217	0.606251	0.840138
	H7	H	0.292310	0.408839	0.167466
	H8	H	0.842602	0.722218	0.403051
	H9	H	0.169877	0.720617	0.602556
	H10	H	0.842308	0.291271	0.602740
	H11	H	0.170424	0.293223	0.405313
	H12	H	0.841892	0.407394	0.717933
	H13	H	0.169436	0.604791	0.718463
	H14	H	0.841641	0.604444	0.289363
	H15	H	0.169994	0.408542	0.290680
	H16	H	0.408019	0.720682	0.839409
	H17	H	0.604762	0.721339	0.167717
	H18	H	0.605510	0.291749	0.840063
	H19	H	0.405242	0.291009	0.166034
	H20	H	0.720136	0.842184	0.405626
	H21	H	0.719854	0.170447	0.601944
	H22	H	0.291200	0.842132	0.603180
	H23	H	0.291834	0.169971	0.405825
	H24	H	0.906298	0.342632	0.219151
	H25	H	0.102173	0.669920	0.217404
	H26	H	0.105507	0.342759	0.788715
	H27	H	0.905659	0.669754	0.787519
	H28	H	0.220369	0.907097	0.338735
	H29	H	0.220853	0.104037	0.667390
	H30	H	0.792908	0.103001	0.339389
	H31	H	0.792982	0.909194	0.668300
	H32	H	0.341365	0.221009	0.904020
	H33	H	0.668965	0.220585	0.102112
	H34	H	0.341253	0.792470	0.102059
	H35	H	0.669672	0.792598	0.905479
	H36	H	0.341558	0.907092	0.218367
	H37	H	0.668557	0.105181	0.218293
	H38	H	0.341584	0.104691	0.789069
	H39	H	0.669511	0.907785	0.789697
	H40	H	0.909087	0.219033	0.338990
	H41	H	0.105285	0.220488	0.666986
	H42	H	0.104498	0.791470	0.339769
	H43	H	0.908029	0.792981	0.667733
	H44	H	0.220703	0.342546	0.905051
	H45	H	0.219507	0.669993	0.102609
	H46	H	0.791196	0.342334	0.102887
	H47	H	0.789821	0.669942	0.903948
	H48	H	0.415449	0.123025	0.602207
	H49	H	0.597183	0.888530	0.601540
	H50	H	0.603764	0.122304	0.414961
	H51	H	0.409262	0.888284	0.411461
	H52	H	0.605485	0.425454	0.118714
	H53	H	0.599611	0.600016	0.887007
	H54	H	0.417473	0.593930	0.117291
	H55	H	0.403500	0.413182	0.883461
	H56	H	0.127075	0.608027	0.404143
	H57	H	0.886615	0.601882	0.599912
	H58	H	0.123014	0.416844	0.602262
	H59	H	0.886862	0.410895	0.406240
	H60	H	0.124614	0.406848	0.597850
	H61	H	0.890622	0.601404	0.591287
	H62	H	0.119815	0.600102	0.423440
	H63	H	0.888962	0.408946	0.415267
	H64	H	0.415284	0.607480	0.122034
	H65	H	0.598296	0.597882	0.888391
	H66	H	0.584038	0.413421	0.116380
	H67	H	0.416613	0.423000	0.889541
	H68	H	0.600304	0.125098	0.403614
	H69	H	0.596276	0.891657	0.593056
	H70	H	0.416797	0.119912	0.591412
	H71	H	0.415367	0.888697	0.406859
	H72	H	0.909653	0.622462	0.094070
	H73	H	0.097317	0.388641	0.101607
	H74	H	0.098636	0.622137	0.912244
	H75	H	0.915821	0.392702	0.917904
	H76	H	0.103377	0.914838	0.620476
	H77	H	0.095680	0.100365	0.386390
	H78	H	0.918399	0.097164	0.618410
	H79	H	0.912105	0.918169	0.388538
	H80	H	0.623561	0.097525	0.903522
	H81	H	0.387150	0.094033	0.101978
	H82	H	0.623643	0.909887	0.096726
	H83	H	0.387608	0.918103	0.904507
	H84	H	0.620135	0.914480	0.091412
	H85	H	0.385428	0.107425	0.097668
	H86	H	0.623944	0.107284	0.913385
	H87	H	0.386341	0.905548	0.909162
	H88	H	0.912197	0.106251	0.622733
	H89	H	0.101582	0.102142	0.385298
	H90	H	0.095757	0.915685	0.618335
	H91	H	0.917538	0.910742	0.387169
	H92	H	0.098502	0.623560	0.909801
	H93	H	0.096660	0.390519	0.093522
	H94	H	0.912103	0.623618	0.100495
	H95	H	0.906774	0.387834	0.911565
	H96	H	0.407170	0.123877	0.595316
	H97	H	0.604206	0.888355	0.595771
	H98	H	0.592030	0.120073	0.411298
	H99	H	0.416384	0.890941	0.414004
	H100	H	0.604233	0.401814	0.125962
	H101	H	0.597084	0.600978	0.887589
	H102	H	0.404352	0.597595	0.122485
	H103	H	0.419139	0.406388	0.885826
	H104	H	0.119798	0.586636	0.405822
	H105	H	0.890189	0.593773	0.596777
	H106	H	0.120678	0.415290	0.591389
	H107	H	0.890600	0.417802	0.411546
	H108	H	0.916060	0.621446	0.096009
	H109	H	0.104246	0.388067	0.096892
	H110	H	0.096250	0.622477	0.911262
	H111	H	0.917359	0.390202	0.905821
	H112	H	0.098731	0.908661	0.620941
	H113	H	0.099976	0.096209	0.387411
	H114	H	0.907063	0.095556	0.620763
	H115	H	0.908262	0.910182	0.384108
	H116	H	0.619548	0.094250	0.915716
	H117	H	0.391197	0.097684	0.088839
	H118	H	0.621769	0.917211	0.099184
	H119	H	0.390695	0.915010	0.917151
	C120	C	0.384627	0.013864	0.625212
	C121	C	0.627324	0.997751	0.625384
	C122	C	0.627630	0.014307	0.381544
	C123	C	0.384514	0.997442	0.381985
	C124	C	0.626917	0.385149	0.011947
	C125	C	0.627089	0.627791	0.995992
	C126	C	0.383753	0.628702	0.012235
	C127	C	0.384622	0.385548	0.994546
	C128	C	0.014090	0.627499	0.382162
	C129	C	0.997308	0.627964	0.625140
	C130	C	0.014573	0.384364	0.625412
	C131	C	0.997417	0.384463	0.382408
	C132	C	0.883911	0.514498	0.125467
	C133	C	0.127305	0.497515	0.125484
	C134	C	0.127091	0.514424	0.882340
	C135	C	0.883786	0.498114	0.882099
	C136	C	0.127721	0.884209	0.511429
	C137	C	0.128053	0.127682	0.494760
	C138	C	0.884683	0.127718	0.512144
	C139	C	0.884156	0.884539	0.495246
	C140	C	0.513815	0.128002	0.881922
	C141	C	0.496558	0.127978	0.124694
	C142	C	0.513756	0.884902	0.124816
	C143	C	0.496934	0.884639	0.882187
	C144	C	0.387198	0.890684	0.680685
	C145	C	0.624916	0.120931	0.680658
	C146	C	0.624848	0.890894	0.326600
	C147	C	0.385982	0.120554	0.326377
	C148	C	0.682940	0.387307	0.889164
	C149	C	0.682484	0.625963	0.119106
	C150	C	0.328214	0.626648	0.888858
	C151	C	0.329299	0.388025	0.118248
	C152	C	0.891185	0.683538	0.383678
	C153	C	0.120908	0.682727	0.622635
	C154	C	0.891197	0.329194	0.622982
	C155	C	0.121095	0.330353	0.384895
	C156	C	0.890913	0.386886	0.680206
	C157	C	0.120638	0.625663	0.680736
	C158	C	0.890664	0.625243	0.326991
	C159	C	0.120923	0.387576	0.327574
	C160	C	0.386855	0.683361	0.888563
	C161	C	0.625186	0.683470	0.118932
	C162	C	0.625403	0.329743	0.889027
	C163	C	0.385823	0.329883	0.117672
	C164	C	0.682306	0.890863	0.384864
	C165	C	0.682069	0.121458	0.622509
	C166	C	0.329324	0.890794	0.623308
	C167	C	0.329280	0.120985	0.384611
	C168	C	0.885984	0.391424	0.181187
	C169	C	0.123551	0.621057	0.180016
	C170	C	0.124747	0.391419	0.827282
	C171	C	0.885265	0.621057	0.825769
	C172	C	0.182589	0.887019	0.388058
	C173	C	0.183228	0.124774	0.618215
	C174	C	0.830092	0.124361	0.388380
	C175	C	0.830008	0.887896	0.618894
	C176	C	0.390393	0.183070	0.884052
	C177	C	0.619852	0.183190	0.122712
	C178	C	0.390341	0.829935	0.122509
	C179	C	0.620432	0.829748	0.884667
	C180	C	0.390369	0.887167	0.180160
	C181	C	0.619697	0.125790	0.180386
	C182	C	0.390480	0.125508	0.826732
	C183	C	0.620617	0.887157	0.827351
	C184	C	0.887802	0.181862	0.388223
	C185	C	0.125822	0.182561	0.618097
	C186	C	0.125229	0.829185	0.388476
	C187	C	0.887084	0.829899	0.618555
	C188	C	0.182594	0.391421	0.884739
	C189	C	0.181679	0.620994	0.122692
	C190	C	0.828950	0.391277	0.123129
	C191	C	0.828046	0.621136	0.883927
	C192	C	0.406662	0.100030	0.602858
	C193	C	0.605471	0.911730	0.603262
	C194	C	0.605373	0.100282	0.403526
	C195	C	0.406946	0.911566	0.404250
	C196	C	0.604479	0.407095	0.098204
	C197	C	0.604922	0.606061	0.909963
	C198	C	0.405765	0.606182	0.098272
	C199	C	0.406604	0.407686	0.908587
	C200	C	0.100132	0.604927	0.404716
	C201	C	0.911448	0.605530	0.602531
	C202	C	0.100498	0.406305	0.603593
	C203	C	0.911012	0.406157	0.404537
	C204	C	0.906052	0.600319	0.103333
	C205	C	0.105737	0.411428	0.103736
	C206	C	0.104413	0.600576	0.904656
	C207	C	0.906776	0.412402	0.904926
	C208	C	0.105804	0.906526	0.597699
	C209	C	0.105839	0.106041	0.408575
	C210	C	0.906162	0.106137	0.598297
	C211	C	0.906149	0.906442	0.408852
	C212	C	0.599981	0.106093	0.904209
	C213	C	0.410275	0.106146	0.102580
	C214	C	0.599650	0.907345	0.102390
	C215	C	0.410760	0.906483	0.903899
	Zn216	Zn	0.505811	0.005924	0.754502
	Zn217	Zn	0.505272	0.006079	0.252965
	Zn218	Zn	0.755254	0.506419	0.004385
	Zn219	Zn	0.255898	0.506490	0.003548
	Zn220	Zn	0.005868	0.756128	0.503330
	Zn221	Zn	0.006226	0.256273	0.503441
	Zn222	Zn	0.005436	0.506154	0.753646
	Zn223	Zn	0.005363	0.505796	0.254053
	Zn224	Zn	0.505741	0.756583	0.003899
	Zn225	Zn	0.505355	0.256820	0.003268
	Zn226	Zn	0.756084	0.006476	0.503872
	Zn227	Zn	0.256397	0.005636	0.503256
	N228	N	0.420909	0.968434	0.682092
	N229	N	0.591692	0.043209	0.682517
	N230	N	0.591572	0.968660	0.324427
	N231	N	0.419739	0.042832	0.324703
	N232	N	0.683736	0.421032	0.966714
	N233	N	0.683676	0.591976	0.041608
	N234	N	0.326222	0.593503	0.966806
	N235	N	0.328545	0.422314	0.040664
	N236	N	0.969000	0.684931	0.417247
	N237	N	0.043174	0.684264	0.588863
	N238	N	0.968894	0.327429	0.589446
	N239	N	0.043258	0.328282	0.418273
	N240	N	0.968479	0.420762	0.681719
	N241	N	0.042926	0.592403	0.682475
	N242	N	0.968184	0.591140	0.326001
	N243	N	0.042977	0.420617	0.326104
	N244	N	0.420336	0.685038	0.966281
	N245	N	0.591519	0.684970	0.041289
	N246	N	0.591423	0.328211	0.966640
	N247	N	0.419320	0.328156	0.040093
	N248	N	0.684354	0.968596	0.418032
	N249	N	0.683937	0.043719	0.588966
	N250	N	0.327614	0.968287	0.589637
	N251	N	0.328359	0.043442	0.418479
	N252	N	0.919233	0.469162	0.183133
	N253	N	0.090516	0.543223	0.181737
	N254	N	0.091178	0.469216	0.825618
	N255	N	0.919281	0.543394	0.824678
	N256	N	0.184296	0.920439	0.465828
	N257	N	0.184807	0.091204	0.540393
	N258	N	0.828004	0.091585	0.466334
	N259	N	0.828026	0.921119	0.541010
	N260	N	0.468218	0.184765	0.917607
	N261	N	0.542328	0.184557	0.088677
	N262	N	0.468154	0.828265	0.088852
	N263	N	0.542632	0.828223	0.918124
	N264	N	0.468058	0.920584	0.181588
	N265	N	0.541982	0.092332	0.181775
	N266	N	0.468056	0.091866	0.825334
	N267	N	0.542874	0.920610	0.825627
	N268	N	0.920883	0.184194	0.466197
	N269	N	0.092297	0.184278	0.540463
	N270	N	0.091966	0.827358	0.466298
	N271	N	0.920099	0.827843	0.540652
	N272	N	0.183961	0.468965	0.918256
	N273	N	0.184031	0.543395	0.089382
	N274	N	0.827861	0.468641	0.089152
	N275	N	0.826984	0.543687	0.918136
	O276	O	0.511647	0.459924	0.512408
	H277	H	0.518650	0.453391	0.511365
	H278	H	0.512911	0.455216	0.513319
	O279	O	-0.026534	-0.057821	-0.065116
	H280	H	-0.025982	-0.069721	-0.063849
	H281	H	-0.018587	-0.052796	-0.060867
	O282	O	0.519705	0.495183	0.521007
	H283	H	0.525566	0.495455	0.518010
	H284	H	0.520496	0.496074	0.529368
	O285	O	0.512773	0.560056	0.538976
	H286	H	0.504147	0.558874	0.545466
	H287	H	0.516918	0.567865	0.537201
	O288	O	0.972202	-0.015750	-0.024551
	H289	H	0.971288	-0.014343	-0.028328
	H290	H	0.970383	-0.026419	-0.034084
	O291	O	-0.483007	0.505161	-0.513527
	H292	H	-0.479110	0.517949	-0.525747
	H293	H	-0.492274	0.503170	-0.512910
	O294	O	0.486104	0.524094	0.446358
	H295	H	0.490901	0.528145	0.441185
	H296	H	0.493735	0.512598	0.449731
	O297	O	0.013171	0.961483	-0.008107
	H298	H	0.004114	0.958455	-0.012678
	H299	H	0.012729	0.954612	-0.005888
	O300	O	0.968443	-0.059454	0.973316
	H301	H	0.971641	-0.060893	0.979306
	H302	H	0.969839	-0.055928	0.971009
	O303	O	0.523347	0.533106	0.505209
	H304	H	0.521236	0.536191	0.504977
	H305	H	0.514491	0.541314	0.501597
	O306	O	-0.001767	0.990490	0.984564
	H307	H	-0.003276	0.994488	0.983168
	H308	H	-0.007772	0.995211	0.986270
	O309	O	0.497553	0.528880	0.534494
	H310	H	0.488676	0.525191	0.532514
	H311	H	0.495127	0.528693	0.543468
