data_Molecule from HDF5

_cell_length_a		16.433437
_cell_length_b		16.370061
_cell_length_c		16.246628
_cell_angle_alpha	89.843325
_cell_angle_beta	89.947666
_cell_angle_gamma	89.924284
_symmetry_space_group_name_H-M	'P 1'
_symmetry_Int_Tables_number		1

loop_
	_symmetry_equiv_pos_as_xyz
	x,y,z

loop_
	_atom_site_label
	_atom_site_type_symbol
	_atom_site_fract_x
	_atom_site_fract_y
	_atom_site_fract_z
	H0	H	0.398251	0.834010	0.717966
	H1	H	0.602285	0.156148	0.719216
	H2	H	0.601407	0.833596	0.285028
	H3	H	0.395974	0.155485	0.280242
	H4	H	0.717954	0.390267	0.838899
	H5	H	0.717282	0.600489	0.158794
	H6	H	0.278922	0.600264	0.839053
	H7	H	0.277036	0.388584	0.159073
	H8	H	0.839973	0.715967	0.396937
	H9	H	0.159774	0.714569	0.603472
	H10	H	0.839956	0.273054	0.605375
	H11	H	0.158060	0.273862	0.393550
	H12	H	0.838329	0.391354	0.719833
	H13	H	0.158664	0.597161	0.719922
	H14	H	0.836580	0.597236	0.283782
	H15	H	0.157114	0.392417	0.278262
	H16	H	0.393763	0.715468	0.839947
	H17	H	0.599264	0.710013	0.161408
	H18	H	0.604227	0.274254	0.840149
	H19	H	0.391760	0.274037	0.159293
	H20	H	0.719690	0.835436	0.398809
	H21	H	0.720808	0.154690	0.607396
	H22	H	0.278708	0.835523	0.606451
	H23	H	0.276626	0.153573	0.393321
	H24	H	0.892182	0.335366	0.220556
	H25	H	0.098247	0.656004	0.215240
	H26	H	0.101327	0.334057	0.781147
	H27	H	0.896987	0.656416	0.781109
	H28	H	0.220208	0.890987	0.340198
	H29	H	0.217874	0.098222	0.662367
	H30	H	0.778497	0.102514	0.341386
	H31	H	0.784129	0.892303	0.662935
	H32	H	0.339219	0.216257	0.893633
	H33	H	0.656840	0.218513	0.106649
	H34	H	0.339424	0.774981	0.106164
	H35	H	0.657713	0.773704	0.896574
	H36	H	0.339554	0.892924	0.221374
	H37	H	0.660372	0.097789	0.218750
	H38	H	0.338862	0.097264	0.779683
	H39	H	0.659064	0.891454	0.780446
	H40	H	0.894974	0.213998	0.339454
	H41	H	0.103345	0.214412	0.661233
	H42	H	0.103008	0.778576	0.338008
	H43	H	0.898328	0.775117	0.660695
	H44	H	0.221753	0.336169	0.891252
	H45	H	0.219182	0.653202	0.104602
	H46	H	0.774999	0.336617	0.105862
	H47	H	0.777625	0.655106	0.893078
	H48	H	0.411229	0.108403	0.589827
	H49	H	0.595912	0.880633	0.587550
	H50	H	0.587227	0.107919	0.414385
	H51	H	0.412432	0.878970	0.403611
	H52	H	0.576989	0.407074	0.110888
	H53	H	0.586985	0.580496	0.885082
	H54	H	0.413100	0.584410	0.113621
	H55	H	0.403076	0.397938	0.879369
	H56	H	0.113513	0.586069	0.407843
	H57	H	0.889959	0.579733	0.584784
	H58	H	0.111516	0.408142	0.591057
	H59	H	0.885957	0.408089	0.412162
	H60	H	0.113104	0.402014	0.590454
	H61	H	0.883406	0.585699	0.596644
	H62	H	0.113051	0.585567	0.407060
	H63	H	0.882989	0.403350	0.407059
	H64	H	0.403746	0.588224	0.117875
	H65	H	0.582410	0.586628	0.885120
	H66	H	0.589402	0.400875	0.117100
	H67	H	0.404639	0.417135	0.886509
	H68	H	0.595188	0.111015	0.412634
	H69	H	0.591449	0.879251	0.595015
	H70	H	0.407949	0.108893	0.585759
	H71	H	0.416804	0.885790	0.419447
	H72	H	0.905847	0.609422	0.087768
	H73	H	0.090632	0.380833	0.082884
	H74	H	0.089722	0.608912	0.910101
	H75	H	0.900318	0.380888	0.914380
	H76	H	0.081639	0.904644	0.613007
	H77	H	0.085508	0.088983	0.385536
	H78	H	0.903757	0.090424	0.620241
	H79	H	0.904098	0.906956	0.383166
	H80	H	0.610771	0.080583	0.908567
	H81	H	0.385913	0.086958	0.087624
	H82	H	0.613641	0.897802	0.087765
	H83	H	0.385205	0.904535	0.910419
	H84	H	0.611637	0.906151	0.090270
	H85	H	0.387774	0.081688	0.088088
	H86	H	0.612770	0.089100	0.909500
	H87	H	0.384801	0.904810	0.909976
	H88	H	0.908249	0.075368	0.613703
	H89	H	0.094658	0.084892	0.384536
	H90	H	0.091817	0.898291	0.618563
	H91	H	0.911719	0.909644	0.386611
	H92	H	0.087005	0.609114	0.908517
	H93	H	0.088186	0.378570	0.093256
	H94	H	0.904505	0.610937	0.089453
	H95	H	0.906663	0.378668	0.903641
	H96	H	0.407062	0.110306	0.590835
	H97	H	0.588168	0.883184	0.587895
	H98	H	0.589151	0.111374	0.405544
	H99	H	0.400779	0.880373	0.416283
	H100	H	0.589364	0.415532	0.112590
	H101	H	0.589760	0.586890	0.881454
	H102	H	0.404301	0.577423	0.114900
	H103	H	0.421211	0.404648	0.887103
	H104	H	0.113183	0.585929	0.406656
	H105	H	0.885220	0.593400	0.583783
	H106	H	0.110298	0.405177	0.585490
	H107	H	0.884602	0.400952	0.413890
	H108	H	0.906431	0.609524	0.090194
	H109	H	0.080538	0.382746	0.086668
	H110	H	0.086926	0.607053	0.911236
	H111	H	0.911945	0.383298	0.913645
	H112	H	0.093242	0.910631	0.614768
	H113	H	0.086877	0.079113	0.388034
	H114	H	0.919521	0.088385	0.613470
	H115	H	0.910788	0.901610	0.383339
	H116	H	0.610117	0.084264	0.916615
	H117	H	0.385224	0.084212	0.092367
	H118	H	0.614340	0.900787	0.096485
	H119	H	0.385264	0.904681	0.910165
	C120	C	0.378005	0.003203	0.621027
	C121	C	0.622339	0.986814	0.622305
	C122	C	0.621658	0.003960	0.379728
	C123	C	0.378071	0.986803	0.379690
	C124	C	0.618228	0.375037	0.008013
	C125	C	0.617936	0.615737	0.990150
	C126	C	0.375637	0.616275	0.009263
	C127	C	0.376947	0.373876	0.990420
	C128	C	0.007379	0.617125	0.377037
	C129	C	0.991391	0.617023	0.620692
	C130	C	0.006824	0.373080	0.621532
	C131	C	0.989933	0.373208	0.378229
	C132	C	0.874580	0.504059	0.121064
	C133	C	0.118173	0.486184	0.119476
	C134	C	0.120373	0.502993	0.877507
	C135	C	0.875499	0.486799	0.877903
	C136	C	0.120972	0.873921	0.508929
	C137	C	0.120667	0.116090	0.492123
	C138	C	0.878642	0.116405	0.509625
	C139	C	0.879019	0.874633	0.491378
	C140	C	0.506507	0.116340	0.878714
	C141	C	0.491212	0.116687	0.121857
	C142	C	0.507366	0.871761	0.123288
	C143	C	0.490403	0.872692	0.878542
	C144	C	0.378512	0.882325	0.679318
	C145	C	0.622124	0.107573	0.680949
	C146	C	0.621342	0.882513	0.322895
	C147	C	0.377405	0.107350	0.319800
	C148	C	0.678333	0.372022	0.887121
	C149	C	0.677615	0.617938	0.110791
	C150	C	0.317565	0.618640	0.887863
	C151	C	0.316814	0.370795	0.110964
	C152	C	0.887335	0.676239	0.377742
	C153	C	0.111786	0.674903	0.621826
	C154	C	0.887360	0.313427	0.623311
	C155	C	0.110241	0.314337	0.375895
	C156	C	0.886351	0.372209	0.680360
	C157	C	0.111407	0.616478	0.679947
	C158	C	0.885799	0.617129	0.321172
	C159	C	0.109944	0.373349	0.318594
	C160	C	0.374760	0.676130	0.888292
	C161	C	0.618494	0.672441	0.112365
	C162	C	0.621580	0.314505	0.887578
	C163	C	0.374072	0.313643	0.111138
	C164	C	0.680126	0.883275	0.379563
	C165	C	0.681014	0.107115	0.625148
	C166	C	0.318599	0.883306	0.624199
	C167	C	0.317682	0.106338	0.376032
	C168	C	0.873306	0.383644	0.181078
	C169	C	0.118179	0.607254	0.177412
	C170	C	0.120886	0.382415	0.819335
	C171	C	0.876884	0.607828	0.819582
	C172	C	0.180534	0.872347	0.388092
	C173	C	0.179062	0.117344	0.613521
	C174	C	0.818784	0.119462	0.389056
	C175	C	0.822055	0.873464	0.613699
	C176	C	0.386666	0.175957	0.875936
	C177	C	0.610037	0.177540	0.124224
	C178	C	0.387122	0.814448	0.124633
	C179	C	0.610065	0.813066	0.877246
	C180	C	0.387337	0.872815	0.182200
	C181	C	0.611598	0.117400	0.180222
	C182	C	0.386595	0.116916	0.819071
	C183	C	0.610808	0.871783	0.819616
	C184	C	0.876791	0.175190	0.388047
	C185	C	0.122145	0.175191	0.613065
	C186	C	0.122051	0.816723	0.386988
	C187	C	0.879409	0.815465	0.612965
	C188	C	0.181070	0.383764	0.874112
	C189	C	0.178290	0.605853	0.122144
	C190	C	0.814983	0.384213	0.123760
	C191	C	0.817449	0.607397	0.875497
	C192	C	0.401802	0.087354	0.596038
	C193	C	0.598545	0.903025	0.597507
	C194	C	0.597656	0.088111	0.403824
	C195	C	0.402757	0.903299	0.405638
	C196	C	0.592785	0.400349	0.091568
	C197	C	0.593361	0.591719	0.905657
	C198	C	0.400071	0.590853	0.093479
	C199	C	0.402184	0.399357	0.906209
	C200	C	0.091362	0.592966	0.400321
	C201	C	0.907887	0.593091	0.595800
	C202	C	0.090091	0.397971	0.596328
	C203	C	0.906365	0.397042	0.403716
	C204	C	0.898663	0.587983	0.096271
	C205	C	0.093626	0.402703	0.094734
	C206	C	0.095263	0.586795	0.902662
	C207	C	0.899319	0.402712	0.903250
	C208	C	0.096226	0.897717	0.593366
	C209	C	0.096258	0.091358	0.407870
	C210	C	0.903343	0.091658	0.593850
	C211	C	0.902432	0.899090	0.406390
	C212	C	0.589493	0.091700	0.904202
	C213	C	0.408084	0.091550	0.096751
	C214	C	0.591363	0.894800	0.098675
	C215	C	0.406896	0.897358	0.903074
	Zn216	Zn	0.499564	-0.004883	0.749060
	Zn217	Zn	0.500175	-0.004949	0.250939
	Zn218	Zn	0.745965	0.495613	-0.001313
	Zn219	Zn	0.248541	0.494251	-0.000892
	Zn220	Zn	0.000466	0.746265	0.498716
	Zn221	Zn	-0.000769	0.243931	0.500190
	Zn222	Zn	-0.001642	0.494609	0.750280
	Zn223	Zn	-0.002767	0.495210	0.248853
	Zn224	Zn	0.497864	0.743026	0.000712
	Zn225	Zn	0.498382	0.246346	-0.000297
	Zn226	Zn	0.750722	-0.003602	0.501378
	Zn227	Zn	0.248408	-0.005303	0.500675
	N228	N	0.414813	0.957827	0.677432
	N229	N	0.586292	0.031637	0.679571
	N230	N	0.586024	0.958611	0.322691
	N231	N	0.414269	0.031949	0.321956
	N232	N	0.676652	0.408799	0.963031
	N233	N	0.677291	0.583267	0.033827
	N234	N	0.317991	0.582099	0.963978
	N235	N	0.318391	0.407306	0.034669
	N236	N	0.964011	0.676614	0.411625
	N237	N	0.036245	0.675112	0.585598
	N238	N	0.963146	0.313936	0.587455
	N239	N	0.034483	0.313904	0.412028
	N240	N	0.961676	0.408673	0.679287
	N241	N	0.035515	0.581298	0.679567
	N242	N	0.961462	0.581315	0.320444
	N243	N	0.034260	0.409178	0.319933
	N244	N	0.410008	0.674960	0.964989
	N245	N	0.582038	0.671301	0.036348
	N246	N	0.584692	0.316227	0.963561
	N247	N	0.410691	0.315409	0.035002
	N248	N	0.680530	0.959893	0.414169
	N249	N	0.681407	0.031149	0.589552
	N250	N	0.318296	0.959651	0.588599
	N251	N	0.318123	0.030604	0.412572
	N252	N	0.909556	0.459164	0.179634
	N253	N	0.081610	0.531779	0.176087
	N254	N	0.083855	0.457753	0.821367
	N255	N	0.912121	0.531625	0.820910
	N256	N	0.179933	0.907081	0.464860
	N257	N	0.178370	0.081373	0.537219
	N258	N	0.819879	0.083427	0.465617
	N259	N	0.821750	0.909541	0.537064
	N260	N	0.462255	0.175923	0.912281
	N261	N	0.534092	0.177208	0.088662
	N262	N	0.462879	0.813440	0.089013
	N263	N	0.534118	0.813446	0.913158
	N264	N	0.463267	0.907681	0.181525
	N265	N	0.536680	0.080265	0.178876
	N266	N	0.461905	0.080463	0.820711
	N267	N	0.535596	0.908098	0.820316
	N268	N	0.913534	0.173337	0.463884
	N269	N	0.086593	0.174698	0.536500
	N270	N	0.085592	0.817484	0.463197
	N271	N	0.914143	0.816029	0.536051
	N272	N	0.180698	0.459774	0.909738
	N273	N	0.178578	0.529554	0.086899
	N274	N	0.815621	0.460070	0.087071
	N275	N	0.816363	0.531072	0.910989
	O276	O	0.314583	0.441045	0.354768
	H277	H	0.316790	0.447565	0.369810
	H278	H	0.295723	0.452816	0.338103
	O279	O	0.609531	0.615267	0.336214
	H280	H	0.609411	0.607489	0.336939
	H281	H	0.612142	0.616708	0.340920
	O282	O	0.553425	0.353573	0.325163
	H283	H	0.561390	0.353475	0.313978
	H284	H	0.552762	0.347439	0.330771
	O285	O	0.800953	-0.127464	0.083828
	H286	H	0.814996	-0.137376	0.094097
	H287	H	0.797104	-0.129130	0.067463
	O288	O	-0.313070	0.516820	0.660924
	H289	H	-0.291996	0.524356	0.692527
	H290	H	-0.326077	0.500307	0.652187
	O291	O	0.642491	0.532877	0.380462
	H292	H	0.641665	0.530647	0.363898
	H293	H	0.645411	0.519232	0.400504
	O294	O	0.612677	0.605984	0.634270
	H295	H	0.627560	0.610826	0.640706
	H296	H	0.613016	0.594780	0.627225
	O297	O	0.937399	1.098183	1.156452
	H298	H	0.940741	1.083772	1.150815
	H299	H	0.946016	1.103255	1.166347
	O300	O	-0.084144	-0.170182	0.166603
	H301	H	-0.086847	-0.182010	0.178024
	H302	H	-0.081294	-0.154064	0.179089
	O303	O	0.512300	0.584010	0.619121
	H304	H	0.512268	0.595027	0.634391
	H305	H	0.520749	0.583820	0.600142
	O306	O	1.185267	0.177399	0.179724
	H307	H	1.177653	0.171643	0.185260
	H308	H	1.191828	0.146418	0.170963
	O309	O	0.551733	0.454841	0.639178
	H310	H	0.562418	0.458118	0.637415
	H311	H	0.539272	0.458266	0.641233
	O312	O	0.960112	0.881648	-0.111305
	H313	H	0.934618	0.878737	-0.102461
	H314	H	0.951495	0.882302	-0.105890
	O315	O	0.598236	0.312885	0.470448
	H316	H	0.588917	0.306190	0.464455
	H317	H	0.597682	0.313350	0.474256
	O318	O	1.003494	0.972899	-0.116755
	H319	H	1.011972	0.959590	-0.113807
	H320	H	1.014988	0.970078	-0.119139
	O321	O	1.400802	-0.675936	1.536667
	H322	H	1.388807	-0.684754	1.549852
	H323	H	1.382086	-0.671941	1.543101
	O324	O	-0.178940	0.196804	0.997448
	H325	H	-0.150496	0.188469	1.011057
	H326	H	-0.197688	0.221085	0.992794
	O327	O	0.504641	0.564799	0.628701
	H328	H	0.508817	0.558480	0.614290
	H329	H	0.494850	0.562327	0.634194
	O330	O	0.469563	0.309009	0.546920
	H331	H	0.461506	0.304412	0.535810
	H332	H	0.453212	0.320894	0.560152
	O333	O	1.192620	1.015638	1.195559
	H334	H	1.195478	0.995783	1.180542
	H335	H	1.195922	1.006723	1.200276
	O336	O	0.596832	0.495812	0.553716
	H337	H	0.582578	0.504968	0.534238
	H338	H	0.602852	0.483362	0.565451
	O339	O	0.804298	0.010950	0.802731
	H340	H	0.792772	0.030872	0.790129
	H341	H	0.792055	0.025203	0.814345
	O342	O	0.014627	1.135129	1.108716
	H343	H	0.026816	1.147712	1.108751
	H344	H	0.005534	1.119911	1.121154
	O345	O	0.100767	0.944245	0.847227
	H346	H	0.096889	0.945100	0.861707
	H347	H	0.104064	0.939813	0.836419
	O348	O	0.400702	0.615491	0.315321
	H349	H	0.401648	0.605013	0.307893
	H350	H	0.414574	0.612282	0.324089
	O351	O	0.163790	-0.172066	-0.146269
	H352	H	0.155191	-0.153288	-0.154119
	H353	H	0.145202	-0.167054	-0.162497
	O354	O	0.978836	1.195992	-0.099376
	H355	H	0.987252	1.208744	-0.113892
	H356	H	0.993976	1.193305	-0.086893
	O357	O	-0.157575	1.001918	0.061748
	H358	H	-0.162113	1.011326	0.059165
	H359	H	-0.166135	1.004729	0.070879
	O360	O	0.663191	0.373529	0.337497
	H361	H	0.674921	0.386093	0.342376
	H362	H	0.657556	0.360472	0.344939
	O363	O	0.360153	0.486414	0.441889
	H364	H	0.358806	0.485953	0.461179
	H365	H	0.383731	0.488592	0.442420
	O366	O	0.424845	0.644397	0.437304
	H367	H	0.421482	0.642112	0.442694
	H368	H	0.437831	0.650463	0.418820
	O369	O	0.364738	0.486970	0.665508
	H370	H	0.374733	0.506541	0.674869
	H371	H	0.361342	0.485187	0.650013
	O372	O	0.003386	1.078382	0.032068
	H373	H	-0.002235	1.076865	0.042215
	H374	H	0.021437	1.065458	0.026829
	O375	O	0.635455	0.554289	0.517180
	H376	H	0.641724	0.555648	0.528666
	H377	H	0.643990	0.550712	0.502988
	O378	O	0.379205	0.551559	0.505552
	H379	H	0.386045	0.559928	0.501332
	H380	H	0.378016	0.539104	0.502331
	O381	O	0.651153	0.622666	0.524528
	H382	H	0.637580	0.616355	0.543374
	H383	H	0.665879	0.623723	0.524551
	O384	O	-0.139920	0.987346	1.210142
	H385	H	-0.139467	0.986511	1.213611
	H386	H	-0.153162	0.984338	1.225946
	O387	O	1.126856	0.771957	0.165181
	H388	H	1.123797	0.777426	0.169521
	H389	H	1.145680	0.763869	0.162778
	O390	O	0.446839	0.537226	0.397597
	H391	H	0.426544	0.530467	0.398389
	H392	H	0.443515	0.548726	0.387931
	O393	O	0.835309	0.168239	0.826614
	H394	H	0.863797	0.178869	0.839661
	H395	H	0.844822	0.168609	0.827634
	O396	O	0.195869	1.200614	1.004896
	H397	H	0.220405	1.224241	1.011597
	H398	H	0.195910	1.177323	1.019169
	O399	O	0.407809	0.479411	0.594114
	H400	H	0.410796	0.460757	0.590428
	H401	H	0.401801	0.488150	0.591748
	O402	O	0.871658	-0.174112	0.953954
	H403	H	0.868098	-0.152508	0.946809
	H404	H	0.864009	-0.180528	0.969042
	O405	O	0.020009	-0.096631	-0.060255
	H406	H	0.004859	-0.094874	-0.065833
	H407	H	0.011139	-0.097670	-0.075289
	O408	O	1.080731	1.087141	0.852918
	H409	H	1.078455	1.102674	0.858618
	H410	H	1.077825	1.088968	0.865770
	O411	O	1.210029	0.809151	-0.015573
	H412	H	1.224282	0.794287	-0.028914
	H413	H	1.211441	0.804589	-0.040747
	O414	O	0.013648	-0.183331	0.958338
	H415	H	0.015517	-0.185350	0.952896
	H416	H	0.009937	-0.174928	0.964571
	O417	O	0.328509	0.310131	0.611663
	H418	H	0.314687	0.329284	0.615152
	H419	H	0.334197	0.315927	0.600725
	O420	O	-0.070715	1.055618	-0.037997
	H421	H	-0.068803	1.066562	-0.029000
	H422	H	-0.084276	1.063379	-0.030554
	O423	O	1.025281	0.047749	0.171212
	H424	H	1.030861	0.060282	0.176958
	H425	H	1.035535	0.023568	0.168100
	O426	O	0.168978	-0.086725	1.062664
	H427	H	0.168373	-0.100649	1.056352
	H428	H	0.167612	-0.076646	1.051433
	O429	O	0.377393	0.549956	0.466960
	H430	H	0.388301	0.556397	0.465592
	H431	H	0.371753	0.553817	0.462998
