data_Molecule from HDF5

_cell_length_a		16.390272
_cell_length_b		16.312656
_cell_length_c		16.498128
_cell_angle_alpha	89.985516
_cell_angle_beta	90.044902
_cell_angle_gamma	89.950267
_symmetry_space_group_name_H-M	'P 1'
_symmetry_Int_Tables_number		1

loop_
	_symmetry_equiv_pos_as_xyz
	x,y,z

loop_
	_atom_site_label
	_atom_site_type_symbol
	_atom_site_fract_x
	_atom_site_fract_y
	_atom_site_fract_z
	H0	H	0.398109	0.846798	0.712391
	H1	H	0.608757	0.166318	0.714939
	H2	H	0.608156	0.847228	0.272760
	H3	H	0.395734	0.165103	0.270779
	H4	H	0.722668	0.399189	0.834941
	H5	H	0.722806	0.611769	0.150454
	H6	H	0.277691	0.614221	0.834525
	H7	H	0.281236	0.403966	0.152514
	H8	H	0.842562	0.728569	0.388034
	H9	H	0.161751	0.726525	0.596488
	H10	H	0.842541	0.287364	0.593428
	H11	H	0.160979	0.285578	0.385426
	H12	H	0.842924	0.400824	0.712036
	H13	H	0.159186	0.615735	0.715585
	H14	H	0.842140	0.613859	0.271099
	H15	H	0.158772	0.398957	0.267130
	H16	H	0.395409	0.729045	0.833935
	H17	H	0.605884	0.726575	0.151340
	H18	H	0.605014	0.284629	0.834868
	H19	H	0.399441	0.288150	0.153540
	H20	H	0.723400	0.846901	0.388474
	H21	H	0.721702	0.167752	0.596038
	H22	H	0.284124	0.845888	0.596275
	H23	H	0.280698	0.165514	0.386790
	H24	H	0.890642	0.349808	0.217210
	H25	H	0.107553	0.664302	0.214789
	H26	H	0.105793	0.347465	0.771615
	H27	H	0.892873	0.666103	0.768701
	H28	H	0.224065	0.900739	0.335847
	H29	H	0.224265	0.113568	0.650600
	H30	H	0.777175	0.116932	0.336361
	H31	H	0.779966	0.900232	0.649809
	H32	H	0.341054	0.226041	0.889178
	H33	H	0.660182	0.228761	0.099656
	H34	H	0.342869	0.786853	0.096374
	H35	H	0.660027	0.782942	0.886377
	H36	H	0.345607	0.898296	0.216310
	H37	H	0.659019	0.116795	0.218633
	H38	H	0.343624	0.114703	0.769187
	H39	H	0.659371	0.896695	0.768418
	H40	H	0.895469	0.230676	0.334943
	H41	H	0.108283	0.230269	0.650041
	H42	H	0.108182	0.784994	0.335512
	H43	H	0.897781	0.785038	0.650123
	H44	H	0.221400	0.347000	0.887003
	H45	H	0.220846	0.666250	0.095778
	H46	H	0.780190	0.347128	0.097380
	H47	H	0.776098	0.664422	0.882887
	H48	H	0.418316	0.120023	0.585202
	H49	H	0.590846	0.892544	0.585109
	H50	H	0.591933	0.122350	0.402611
	H51	H	0.413377	0.892585	0.405668
	H52	H	0.593266	0.422514	0.104683
	H53	H	0.589469	0.591274	0.881331
	H54	H	0.413257	0.602939	0.105936
	H55	H	0.411184	0.413375	0.879548
	H56	H	0.111647	0.586588	0.403822
	H57	H	0.889381	0.597119	0.575552
	H58	H	0.117834	0.420836	0.589484
	H59	H	0.890384	0.417025	0.410562
	H60	H	0.116266	0.412278	0.577916
	H61	H	0.890203	0.590337	0.581893
	H62	H	0.117738	0.596259	0.394236
	H63	H	0.890929	0.426546	0.401892
	H64	H	0.404589	0.592468	0.105705
	H65	H	0.586248	0.594372	0.880969
	H66	H	0.585607	0.417282	0.104251
	H67	H	0.407973	0.418762	0.880567
	H68	H	0.585784	0.119594	0.403520
	H69	H	0.587663	0.895471	0.580335
	H70	H	0.413911	0.118888	0.576621
	H71	H	0.412271	0.891584	0.403586
	H72	H	0.911445	0.619948	0.078151
	H73	H	0.085793	0.396511	0.071875
	H74	H	0.086548	0.618712	0.906111
	H75	H	0.910211	0.392961	0.903739
	H76	H	0.085716	0.910342	0.606367
	H77	H	0.090832	0.099777	0.379278
	H78	H	0.916070	0.099517	0.605623
	H79	H	0.909790	0.919419	0.378992
	H80	H	0.612148	0.091204	0.907961
	H81	H	0.389851	0.094083	0.078845
	H82	H	0.617918	0.918957	0.088316
	H83	H	0.387001	0.922356	0.894112
	H84	H	0.617078	0.912152	0.079595
	H85	H	0.389445	0.090007	0.085860
	H86	H	0.614086	0.092640	0.900792
	H87	H	0.387039	0.910178	0.906274
	H88	H	0.909443	0.095046	0.605827
	H89	H	0.096282	0.092985	0.379186
	H90	H	0.101729	0.914642	0.610502
	H91	H	0.914268	0.920902	0.381780
	H92	H	0.094804	0.622928	0.903156
	H93	H	0.097205	0.389251	0.080824
	H94	H	0.910446	0.621637	0.082857
	H95	H	0.914292	0.392712	0.898813
	H96	H	0.409010	0.124121	0.584041
	H97	H	0.593539	0.892885	0.580111
	H98	H	0.590072	0.119226	0.408278
	H99	H	0.414427	0.892360	0.403774
	H100	H	0.593801	0.414074	0.108304
	H101	H	0.590107	0.595366	0.878892
	H102	H	0.416936	0.590532	0.100743
	H103	H	0.414160	0.418392	0.881309
	H104	H	0.114393	0.600647	0.408308
	H105	H	0.886056	0.598394	0.584215
	H106	H	0.112134	0.426352	0.577602
	H107	H	0.885332	0.415270	0.399051
	H108	H	0.915576	0.619286	0.081719
	H109	H	0.082419	0.392264	0.086876
	H110	H	0.086965	0.622390	0.897008
	H111	H	0.916367	0.395313	0.904263
	H112	H	0.091399	0.926416	0.603326
	H113	H	0.088861	0.092247	0.382295
	H114	H	0.916115	0.092548	0.602113
	H115	H	0.914260	0.916102	0.379012
	H116	H	0.614589	0.098240	0.905794
	H117	H	0.386506	0.097248	0.085498
	H118	H	0.613216	0.922451	0.078766
	H119	H	0.393780	0.925484	0.908746
	C120	C	0.381994	0.015303	0.613364
	C121	C	0.623552	0.998696	0.614481
	C122	C	0.623137	0.015376	0.372174
	C123	C	0.380503	0.997464	0.371596
	C124	C	0.622931	0.384501	0.001432
	C125	C	0.622012	0.626786	0.984517
	C126	C	0.378849	0.628890	0.000111
	C127	C	0.379272	0.385143	0.985306
	C128	C	0.009690	0.627967	0.370350
	C129	C	0.993472	0.627871	0.613199
	C130	C	0.010172	0.386942	0.612570
	C131	C	0.993354	0.385813	0.370224
	C132	C	0.879808	0.515169	0.113237
	C133	C	0.121123	0.497883	0.112660
	C134	C	0.122230	0.515913	0.870188
	C135	C	0.879756	0.498721	0.869702
	C136	C	0.124586	0.885015	0.502181
	C137	C	0.124437	0.128565	0.484274
	C138	C	0.880691	0.128929	0.500757
	C139	C	0.880538	0.885820	0.484015
	C140	C	0.509646	0.127576	0.871834
	C141	C	0.493384	0.127574	0.115773
	C142	C	0.511314	0.884996	0.114452
	C143	C	0.493567	0.885073	0.870425
	C144	C	0.380051	0.894569	0.672510
	C145	C	0.626479	0.118494	0.674902
	C146	C	0.626216	0.894909	0.312533
	C147	C	0.377892	0.117241	0.311043
	C148	C	0.682469	0.381584	0.882393
	C149	C	0.682699	0.629770	0.103077
	C150	C	0.318226	0.631677	0.881727
	C151	C	0.320354	0.384510	0.104885
	C152	C	0.890524	0.688791	0.369034
	C153	C	0.113635	0.687219	0.615173
	C154	C	0.890207	0.327066	0.613060
	C155	C	0.112722	0.324977	0.367089
	C156	C	0.890349	0.383906	0.671718
	C157	C	0.112337	0.631660	0.674383
	C158	C	0.890071	0.631462	0.310739
	C159	C	0.111642	0.381445	0.308124
	C160	C	0.376850	0.689236	0.881593
	C161	C	0.624403	0.687026	0.103442
	C162	C	0.624299	0.323955	0.882641
	C163	C	0.379367	0.327173	0.105603
	C164	C	0.683553	0.895065	0.370193
	C165	C	0.682729	0.119337	0.615742
	C166	C	0.323133	0.894152	0.614616
	C167	C	0.320435	0.117533	0.368814
	C168	C	0.874795	0.396480	0.175301
	C169	C	0.125059	0.617200	0.174159
	C170	C	0.124475	0.395563	0.810904
	C171	C	0.875362	0.618017	0.808956
	C172	C	0.184183	0.882828	0.383277
	C173	C	0.184672	0.131791	0.603037
	C174	C	0.818333	0.133383	0.383085
	C175	C	0.819814	0.882311	0.602432
	C176	C	0.389721	0.187679	0.869745
	C177	C	0.612380	0.188942	0.118341
	C178	C	0.391327	0.825615	0.115890
	C179	C	0.612375	0.823094	0.867954
	C180	C	0.392548	0.881466	0.175498
	C181	C	0.611831	0.133004	0.177651
	C182	C	0.390909	0.131894	0.809943
	C183	C	0.611999	0.879852	0.809172
	C184	C	0.877268	0.190196	0.382359
	C185	C	0.126791	0.189896	0.602642
	C186	C	0.126402	0.824926	0.383012
	C187	C	0.878748	0.825031	0.602686
	C188	C	0.181958	0.395261	0.868609
	C189	C	0.181619	0.617890	0.115225
	C190	C	0.819508	0.395242	0.115724
	C191	C	0.817145	0.617394	0.865894
	C192	C	0.406710	0.099030	0.588926
	C193	C	0.598125	0.915316	0.589128
	C194	C	0.597090	0.098657	0.397532
	C195	C	0.406107	0.913986	0.396891
	C196	C	0.598168	0.410429	0.084086
	C197	C	0.596226	0.601128	0.901953
	C198	C	0.404318	0.602712	0.082840
	C199	C	0.403971	0.409639	0.902208
	C200	C	0.092986	0.601885	0.394967
	C201	C	0.910384	0.602696	0.587825
	C202	C	0.093577	0.412319	0.588338
	C203	C	0.910590	0.411891	0.396290
	C204	C	0.905349	0.598592	0.088058
	C205	C	0.095669	0.414508	0.087253
	C206	C	0.096813	0.599464	0.895207
	C207	C	0.905979	0.415461	0.895176
	C208	C	0.099793	0.909932	0.585039
	C209	C	0.099131	0.102569	0.401657
	C210	C	0.906609	0.102907	0.582942
	C211	C	0.905740	0.911463	0.401315
	C212	C	0.592121	0.101610	0.897503
	C213	C	0.410345	0.101381	0.090627
	C214	C	0.594494	0.910441	0.089307
	C215	C	0.410866	0.911461	0.895902
	Zn216	Zn	0.502117	0.006808	0.742667
	Zn217	Zn	0.502850	0.005942	0.243533
	Zn218	Zn	0.752006	0.506409	-0.008080
	Zn219	Zn	0.249979	0.506819	-0.007897
	Zn220	Zn	0.002298	0.756582	0.492689
	Zn221	Zn	0.002487	0.257541	0.492281
	Zn222	Zn	0.001105	0.507705	0.741915
	Zn223	Zn	0.000626	0.506964	0.241377
	Zn224	Zn	0.501531	0.757154	-0.007512
	Zn225	Zn	0.500958	0.255692	-0.005835
	Zn226	Zn	0.751370	0.007375	0.492724
	Zn227	Zn	0.253286	0.006418	0.493526
	N228	N	0.415736	0.970776	0.671923
	N229	N	0.590603	0.042337	0.674301
	N230	N	0.589418	0.970582	0.313618
	N231	N	0.414596	0.041431	0.312605
	N232	N	0.681781	0.418352	0.957344
	N233	N	0.681735	0.593347	0.027829
	N234	N	0.319461	0.594725	0.956614
	N235	N	0.320021	0.419522	0.028868
	N236	N	0.966057	0.686956	0.405288
	N237	N	0.038723	0.685083	0.577714
	N238	N	0.965612	0.328957	0.576836
	N239	N	0.038017	0.327288	0.404654
	N240	N	0.966056	0.420185	0.671761
	N241	N	0.036579	0.595660	0.673288
	N242	N	0.965487	0.594427	0.311487
	N243	N	0.036256	0.418403	0.309916
	N244	N	0.414014	0.687234	0.956293
	N245	N	0.587391	0.685382	0.028719
	N246	N	0.587993	0.325633	0.957592
	N247	N	0.415189	0.327456	0.030429
	N248	N	0.681869	0.971090	0.406287
	N249	N	0.681112	0.043753	0.578999
	N250	N	0.323894	0.970339	0.578705
	N251	N	0.322272	0.042222	0.405976
	N252	N	0.911796	0.472058	0.173598
	N253	N	0.088333	0.541499	0.172713
	N254	N	0.088285	0.471605	0.811671
	N255	N	0.913222	0.543000	0.811185
	N256	N	0.183124	0.919222	0.458310
	N257	N	0.183276	0.094438	0.528423
	N258	N	0.820428	0.095854	0.457689
	N259	N	0.820960	0.919346	0.527569
	N260	N	0.464387	0.185440	0.907586
	N261	N	0.537811	0.185567	0.080425
	N262	N	0.466356	0.827755	0.078545
	N263	N	0.537667	0.826375	0.905575
	N264	N	0.468290	0.917495	0.174877
	N265	N	0.536893	0.095245	0.175947
	N266	N	0.466401	0.095127	0.811172
	N267	N	0.537239	0.917777	0.810777
	N268	N	0.915546	0.187481	0.456357
	N269	N	0.090321	0.188219	0.527587
	N270	N	0.089995	0.826065	0.458006
	N271	N	0.915549	0.826899	0.527851
	N272	N	0.180975	0.471348	0.904583
	N273	N	0.179129	0.542822	0.077798
	N274	N	0.822529	0.470158	0.077666
	N275	N	0.819739	0.542007	0.903127
	O276	O	0.325166	0.547946	0.602813
	H277	H	0.306029	0.543170	0.609128
	H278	H	0.326009	0.544438	0.604676
	O279	O	-0.218520	0.097168	-0.046968
	H280	H	-0.222693	0.105002	-0.041248
	H281	H	-0.224266	0.080268	-0.031848
	O282	O	0.445955	0.342321	0.518878
	H283	H	0.437527	0.328239	0.537244
	H284	H	0.459436	0.350004	0.527854
	O285	O	1.723577	0.379152	0.593193
	H286	H	1.746759	0.383484	0.590279
	H287	H	1.720797	0.382937	0.607403
	O288	O	0.657985	0.374990	0.336301
	H289	H	0.628929	0.376365	0.335582
	H290	H	0.654468	0.369377	0.331101
	O291	O	0.549499	0.478650	0.587280
	H292	H	0.570522	0.495103	0.594099
	H293	H	0.532688	0.470287	0.594161
	O294	O	1.206250	0.813510	0.974611
	H295	H	1.206357	0.812381	0.982984
	H296	H	1.199817	0.811085	0.984632
	O297	O	0.577667	0.461676	0.561482
	H298	H	0.581882	0.470223	0.574886
	H299	H	0.580699	0.466843	0.553603
	O300	O	0.477175	0.639194	0.576108
	H301	H	0.478993	0.655565	0.578764
	H302	H	0.470614	0.637406	0.567567
	O303	O	0.654297	0.491991	0.356264
	H304	H	0.638751	0.484267	0.356715
	H305	H	0.665859	0.496990	0.339618
	O306	O	-0.139827	0.099116	0.875994
	H307	H	-0.155705	0.125876	0.868585
	H308	H	-0.141803	0.095075	0.874213
	O309	O	1.015133	-0.187630	-0.205329
	H310	H	1.003686	-0.202198	-0.215357
	H311	H	0.994857	-0.150110	-0.205331
	O312	O	0.345862	0.638320	0.339229
	H313	H	0.344507	0.630341	0.350395
	H314	H	0.358366	0.625661	0.333325
	O315	O	0.550366	0.613725	0.432310
	H316	H	0.559782	0.609185	0.425530
	H317	H	0.556116	0.607998	0.430702
	O318	O	-0.091593	-0.098216	-0.098507
	H319	H	-0.067284	-0.091585	-0.087229
	H320	H	-0.098795	-0.090751	-0.116609
	O321	O	0.367631	0.479543	0.633113
	H322	H	0.383624	0.495285	0.648301
	H323	H	0.374437	0.472842	0.641378
	O324	O	0.828410	0.001013	1.106561
	H325	H	0.813537	0.002799	1.125763
	H326	H	0.852909	0.030133	1.103190
	O327	O	0.414104	0.467749	0.475435
	H328	H	0.414967	0.451431	0.481064
	H329	H	0.416040	0.472554	0.483269
	O330	O	0.124789	1.067621	0.976476
	H331	H	0.128246	1.077678	0.965836
	H332	H	0.131286	1.080378	0.974533
	O333	O	-0.197508	1.063797	0.046357
	H334	H	-0.195102	1.049377	0.048292
	H335	H	-0.181604	1.058152	0.031370
	O336	O	0.852836	0.878802	-0.084059
	H337	H	0.852612	0.887258	-0.085147
	H338	H	0.835738	0.898505	-0.095244
	O339	O	0.019642	0.980984	1.206441
	H340	H	0.044295	0.986808	1.206894
	H341	H	0.030649	1.001604	1.203187
	O342	O	0.367933	0.540651	0.319436
	H343	H	0.355317	0.519557	0.331806
	H344	H	0.370533	0.525160	0.311418
	O345	O	0.208642	0.041195	1.198218
	H346	H	0.235123	0.036464	1.210871
	H347	H	0.217493	0.008074	1.179511
	O348	O	0.381580	0.674428	0.457817
	H349	H	0.387840	0.659569	0.441040
	H350	H	0.350406	0.689715	0.452756
	O351	O	1.144077	1.029959	-0.216759
	H352	H	1.163835	1.017704	-0.214760
	H353	H	1.138931	1.022269	-0.214456
	O354	O	1.025044	1.220541	1.207537
	H355	H	1.022026	1.239184	1.221476
	H356	H	1.008590	1.230045	1.201236
	O357	O	-0.199819	-0.095204	0.194142
	H358	H	-0.210735	-0.082261	0.203675
	H359	H	-0.203923	-0.116252	0.197801
	O360	O	0.032062	0.009799	1.000721
	H361	H	0.049885	0.023720	1.005667
	H362	H	0.031675	0.012946	1.018547
	O363	O	1.207273	-0.087556	0.106645
	H364	H	1.218992	-0.086952	0.096691
	H365	H	1.183960	-0.110616	0.084627
	O366	O	0.182688	-0.173479	0.810967
	H367	H	0.164191	-0.180259	0.839215
	H368	H	0.159716	-0.181870	0.824877
	O369	O	1.615563	0.625885	1.615077
	H370	H	1.615207	0.631227	1.617806
	H371	H	1.618051	0.629372	1.613191
	O372	O	0.970824	0.795442	-0.025599
	H373	H	0.963508	0.786222	-0.009753
	H374	H	0.955585	0.805550	-0.029097
	O375	O	-0.421414	-0.363568	1.531590
	H376	H	-0.436025	-0.348711	1.524748
	H377	H	-0.422005	-0.359530	1.534804
	O378	O	0.662716	0.493622	0.680032
	H379	H	0.651662	0.506142	0.674254
	H380	H	0.687043	0.504839	0.696398
	O381	O	-0.017892	0.800899	0.204422
	H382	H	-0.019928	0.779490	0.233687
	H383	H	-0.014656	0.816524	0.196916
	O384	O	0.595109	0.645632	0.604802
	H385	H	0.585700	0.648370	0.585197
	H386	H	0.590703	0.626073	0.602665
	O387	O	0.199390	0.223590	0.009084
	H388	H	0.236812	0.256666	0.021308
	H389	H	0.179891	0.214520	0.055124
	O390	O	1.042285	0.846207	0.041501
	H391	H	1.043021	0.843533	0.041405
	H392	H	1.020984	0.848927	0.035862
	O393	O	0.908533	0.185756	1.052629
	H394	H	0.877976	0.181416	1.050720
	H395	H	0.922681	0.171227	1.029750
	O396	O	0.424797	0.536988	0.370600
	H397	H	0.421082	0.531406	0.375973
	H398	H	0.431853	0.537845	0.381295
	O399	O	0.454887	0.638336	0.443902
	H400	H	0.444862	0.656153	0.433929
	H401	H	0.461300	0.621673	0.446940
	O402	O	1.055790	1.164294	0.006495
	H403	H	1.056840	1.160911	0.023665
	H404	H	1.073219	1.177886	0.010404
	O405	O	0.393668	0.370527	0.609980
	H406	H	0.391889	0.378530	0.631987
	H407	H	0.415011	0.371065	0.611721
	O408	O	0.592863	0.523993	0.597827
	H409	H	0.599961	0.520579	0.594596
	H410	H	0.587023	0.518913	0.597630
	O411	O	0.802302	0.808327	1.096975
	H412	H	0.816564	0.788572	1.105924
	H413	H	0.805757	0.804008	1.078728
	O414	O	0.028339	0.137876	0.776124
	H415	H	0.022049	0.126433	0.791836
	H416	H	0.040184	0.135721	0.769114
	O417	O	0.189974	1.191152	1.155158
	H418	H	0.175593	1.178832	1.165469
	H419	H	0.171416	1.168348	1.172790
	O420	O	-0.216139	1.034189	0.770766
	H421	H	-0.257620	1.036504	0.735780
	H422	H	-0.214769	1.047143	0.800410
	O423	O	0.213601	1.048373	-0.163703
	H424	H	0.211617	1.028303	-0.166869
	H425	H	0.213045	1.055395	-0.181210
	O426	O	0.293650	0.340622	0.508806
	H427	H	0.285392	0.332306	0.536008
	H428	H	0.286341	0.322387	0.533038
	O429	O	0.511888	0.322288	0.608000
	H430	H	0.520757	0.331136	0.613797
	H431	H	0.527772	0.328651	0.612028
	O432	O	0.477147	0.473186	0.305939
	H433	H	0.474559	0.477416	0.293345
	H434	H	0.464697	0.475878	0.324850
	O435	O	-0.102606	0.203438	-0.206596
	H436	H	-0.098255	0.181275	-0.214243
	H437	H	-0.084041	0.196279	-0.190083
	O438	O	0.016312	1.015889	1.181960
	H439	H	0.013724	1.006557	1.176771
	H440	H	0.016724	1.000084	1.190339
	O441	O	0.605596	0.385941	0.382293
	H442	H	0.605787	0.382140	0.386527
	H443	H	0.593575	0.388953	0.371481
