data_Molecule from HDF5

_cell_length_a		16.587273
_cell_length_b		16.631936
_cell_length_c		16.529626
_cell_angle_alpha	89.843105
_cell_angle_beta	89.912927
_cell_angle_gamma	90.015736
_symmetry_space_group_name_H-M	'P 1'
_symmetry_Int_Tables_number		1

loop_
	_symmetry_equiv_pos_as_xyz
	x,y,z

loop_
	_atom_site_label
	_atom_site_type_symbol
	_atom_site_fract_x
	_atom_site_fract_y
	_atom_site_fract_z
	H0	H	0.388512	0.840710	0.706864
	H1	H	0.592885	0.155825	0.709274
	H2	H	0.597292	0.844848	0.266642
	H3	H	0.383385	0.154532	0.266539
	H4	H	0.708619	0.394609	0.832804
	H5	H	0.708725	0.602647	0.145627
	H6	H	0.269011	0.602888	0.832679
	H7	H	0.265323	0.391223	0.145633
	H8	H	0.833803	0.723423	0.380471
	H9	H	0.145845	0.719045	0.592246
	H10	H	0.833508	0.277129	0.594456
	H11	H	0.144769	0.276423	0.381634
	H12	H	0.833166	0.393472	0.710066
	H13	H	0.146179	0.600826	0.707842
	H14	H	0.832532	0.605257	0.268152
	H15	H	0.145185	0.393668	0.265821
	H16	H	0.381038	0.722359	0.834514
	H17	H	0.594513	0.720632	0.145029
	H18	H	0.592945	0.278328	0.832998
	H19	H	0.379808	0.274313	0.145425
	H20	H	0.714531	0.845263	0.381148
	H21	H	0.710665	0.155667	0.594274
	H22	H	0.270381	0.841583	0.591483
	H23	H	0.267603	0.155373	0.383252
	H24	H	0.882244	0.345498	0.213970
	H25	H	0.094634	0.654899	0.210416
	H26	H	0.095867	0.345048	0.766153
	H27	H	0.882867	0.653607	0.766903
	H28	H	0.214790	0.890978	0.334510
	H29	H	0.208044	0.102402	0.646514
	H30	H	0.766787	0.106581	0.334174
	H31	H	0.771091	0.896604	0.647510
	H32	H	0.332637	0.218928	0.884528
	H33	H	0.643020	0.221665	0.095519
	H34	H	0.334790	0.773198	0.101346
	H35	H	0.643964	0.775631	0.883993
	H36	H	0.334838	0.890252	0.216311
	H37	H	0.644047	0.104535	0.211802
	H38	H	0.331788	0.100862	0.770377
	H39	H	0.645051	0.893172	0.768908
	H40	H	0.884223	0.221684	0.333253
	H41	H	0.094262	0.219698	0.645815
	H42	H	0.098485	0.775545	0.334631
	H43	H	0.885777	0.779167	0.646181
	H44	H	0.211740	0.345479	0.882040
	H45	H	0.213596	0.652735	0.097436
	H46	H	0.766223	0.343618	0.096316
	H47	H	0.766455	0.654148	0.883418
	H48	H	0.400252	0.112591	0.585870
	H49	H	0.577115	0.888079	0.580962
	H50	H	0.577554	0.109456	0.404899
	H51	H	0.396842	0.886817	0.402835
	H52	H	0.577951	0.407290	0.103053
	H53	H	0.576706	0.587670	0.877004
	H54	H	0.406164	0.585605	0.099287
	H55	H	0.400342	0.410432	0.878851
	H56	H	0.101479	0.587497	0.395730
	H57	H	0.878716	0.584623	0.577445
	H58	H	0.097669	0.418220	0.576626
	H59	H	0.876556	0.405017	0.403851
	H60	H	0.105555	0.407594	0.586541
	H61	H	0.874385	0.590725	0.584296
	H62	H	0.101061	0.593295	0.403622
	H63	H	0.882260	0.414866	0.408109
	H64	H	0.398805	0.591091	0.103578
	H65	H	0.575450	0.586718	0.877448
	H66	H	0.577342	0.412015	0.101905
	H67	H	0.400072	0.406768	0.876694
	H68	H	0.577447	0.110305	0.402154
	H69	H	0.581700	0.887500	0.576610
	H70	H	0.400385	0.109287	0.576416
	H71	H	0.406372	0.889484	0.399295
	H72	H	0.898879	0.608646	0.071792
	H73	H	0.074049	0.389156	0.077726
	H74	H	0.079981	0.611770	0.900702
	H75	H	0.896125	0.388676	0.907286
	H76	H	0.083139	0.918238	0.600178
	H77	H	0.078274	0.085914	0.377642
	H78	H	0.898916	0.089859	0.602966
	H79	H	0.900048	0.906368	0.374892
	H80	H	0.600314	0.086321	0.901130
	H81	H	0.378213	0.082590	0.079538
	H82	H	0.599661	0.913040	0.078967
	H83	H	0.375336	0.908848	0.897496
	H84	H	0.600640	0.908009	0.076782
	H85	H	0.377146	0.088797	0.078438
	H86	H	0.602474	0.089114	0.896091
	H87	H	0.376545	0.907439	0.902776
	H88	H	0.900375	0.085131	0.600832
	H89	H	0.075766	0.089968	0.377144
	H90	H	0.069373	0.910061	0.597774
	H91	H	0.896970	0.914261	0.376368
	H92	H	0.075266	0.610982	0.897814
	H93	H	0.074724	0.389609	0.075026
	H94	H	0.892294	0.613535	0.079534
	H95	H	0.893162	0.383690	0.895906
	H96	H	0.392060	0.112822	0.580080
	H97	H	0.582733	0.885202	0.582181
	H98	H	0.575512	0.108364	0.403399
	H99	H	0.403951	0.891595	0.408873
	H100	H	0.573620	0.409099	0.101289
	H101	H	0.575481	0.587883	0.877666
	H102	H	0.397348	0.580769	0.101420
	H103	H	0.397213	0.409530	0.876576
	H104	H	0.097498	0.584149	0.404164
	H105	H	0.875870	0.593815	0.574794
	H106	H	0.100948	0.402985	0.571290
	H107	H	0.878110	0.415033	0.396632
	H108	H	0.902924	0.610355	0.082265
	H109	H	0.076589	0.388538	0.076718
	H110	H	0.075525	0.608802	0.903109
	H111	H	0.905182	0.387315	0.898036
	H112	H	0.082219	0.902708	0.604953
	H113	H	0.080469	0.089183	0.376088
	H114	H	0.903455	0.089086	0.601085
	H115	H	0.905086	0.912165	0.378983
	H116	H	0.602026	0.092619	0.901120
	H117	H	0.378133	0.085486	0.073356
	H118	H	0.597991	0.911576	0.074096
	H119	H	0.377789	0.912953	0.900930
	C120	C	0.367329	0.007340	0.611216
	C121	C	0.611322	0.990747	0.611369
	C122	C	0.610899	0.007562	0.369156
	C123	C	0.368700	0.991448	0.369207
	C124	C	0.608568	0.377484	-0.001522
	C125	C	0.608738	0.619392	0.980813
	C126	C	0.367813	0.618971	-0.001677
	C127	C	0.366345	0.376353	0.981159
	C128	C	-0.002617	0.621404	0.367765
	C129	C	0.980604	0.620167	0.609768
	C130	C	-0.002061	0.376986	0.610844
	C131	C	0.981598	0.378801	0.368630
	C132	C	0.866198	0.507951	0.110924
	C133	C	0.109296	0.490828	0.110109
	C134	C	0.109877	0.508073	0.867994
	C135	C	0.866239	0.489784	0.867858
	C136	C	0.111042	0.877999	0.497768
	C137	C	0.110063	0.120161	0.480572
	C138	C	0.868450	0.120688	0.498129
	C139	C	0.868956	0.878989	0.480896
	C140	C	0.497533	0.119929	0.867960
	C141	C	0.480269	0.119305	0.110298
	C142	C	0.497054	0.877541	0.111418
	C143	C	0.480086	0.877047	0.868555
	C144	C	0.368735	0.888071	0.667964
	C145	C	0.612013	0.108619	0.670066
	C146	C	0.614695	0.891298	0.307466
	C147	C	0.365060	0.108025	0.307137
	C148	C	0.668442	0.376088	0.879997
	C149	C	0.669006	0.621421	0.098587
	C150	C	0.308261	0.621610	0.880181
	C151	C	0.305748	0.373509	0.098703
	C152	C	0.880585	0.682753	0.363762
	C153	C	0.098864	0.678808	0.610925
	C154	C	0.880493	0.317060	0.612930
	C155	C	0.098395	0.317313	0.364159
	C156	C	0.880288	0.374972	0.670367
	C157	C	0.098899	0.620420	0.668620
	C158	C	0.880031	0.623905	0.307475
	C159	C	0.098354	0.375457	0.306495
	C160	C	0.364236	0.680853	0.881084
	C161	C	0.611922	0.679729	0.098474
	C162	C	0.610996	0.318211	0.880142
	C163	C	0.362830	0.315295	0.098561
	C164	C	0.673109	0.891519	0.364519
	C165	C	0.670549	0.108647	0.612800
	C166	C	0.309982	0.888646	0.610772
	C167	C	0.307634	0.108419	0.365360
	C168	C	0.863749	0.391479	0.172782
	C169	C	0.113031	0.607783	0.170705
	C170	C	0.113604	0.391532	0.806627
	C171	C	0.864354	0.606950	0.807227
	C172	C	0.173483	0.874167	0.380942
	C173	C	0.168935	0.121238	0.599167
	C174	C	0.807407	0.124424	0.380686
	C175	C	0.810385	0.877752	0.599916
	C176	C	0.379425	0.178770	0.866402
	C177	C	0.596891	0.180815	0.113528
	C178	C	0.381122	0.814848	0.117617
	C179	C	0.597313	0.816545	0.866255
	C180	C	0.381340	0.872937	0.175012
	C181	C	0.597467	0.122637	0.171122
	C182	C	0.379102	0.120243	0.809538
	C183	C	0.598074	0.874869	0.808914
	C184	C	0.865793	0.181347	0.380292
	C185	C	0.112173	0.179508	0.598861
	C186	C	0.115613	0.816565	0.380879
	C187	C	0.867304	0.819309	0.599244
	C188	C	0.171182	0.391817	0.864281
	C189	C	0.172181	0.606739	0.114362
	C190	C	0.806298	0.390593	0.114322
	C191	C	0.806471	0.607094	0.865049
	C192	C	0.390783	0.090146	0.587745
	C193	C	0.587399	0.908510	0.586941
	C194	C	0.584387	0.088323	0.395942
	C195	C	0.394905	0.910488	0.395987
	C196	C	0.583430	0.402345	0.080514
	C197	C	0.583131	0.594456	0.898678
	C198	C	0.393401	0.593197	0.080122
	C199	C	0.391925	0.401640	0.898729
	C200	C	0.078877	0.595663	0.393730
	C201	C	0.897752	0.596501	0.585672
	C202	C	0.080019	0.402266	0.585599
	C203	C	0.900263	0.404279	0.395338
	C204	C	0.891108	0.589574	0.085220
	C205	C	0.082717	0.410076	0.083939
	C206	C	0.084141	0.589237	0.893454
	C207	C	0.891182	0.407901	0.892995
	C208	C	0.085318	0.903141	0.579690
	C209	C	0.085222	0.095499	0.398393
	C210	C	0.893822	0.095249	0.580130
	C211	C	0.893709	0.903777	0.398297
	C212	C	0.580197	0.096143	0.892338
	C213	C	0.398994	0.093103	0.084535
	C214	C	0.578253	0.903598	0.084219
	C215	C	0.397965	0.902349	0.893413
	Zn216	Zn	0.489394	-0.001545	0.739918
	Zn217	Zn	0.489399	-0.000738	0.240157
	Zn218	Zn	0.737444	0.498543	-0.010634
	Zn219	Zn	0.238730	0.498730	-0.010489
	Zn220	Zn	-0.010696	0.749928	0.488535
	Zn221	Zn	-0.010259	0.249208	0.489041
	Zn222	Zn	-0.011280	0.498385	0.739531
	Zn223	Zn	-0.011287	0.499847	0.239470
	Zn224	Zn	0.487973	0.748553	-0.009569
	Zn225	Zn	0.487795	0.248731	-0.010179
	Zn226	Zn	0.740218	-0.000466	0.489753
	Zn227	Zn	0.238782	-0.000482	0.489158
	N228	N	0.403559	0.963013	0.668560
	N229	N	0.576098	0.034188	0.669560
	N230	N	0.576731	0.964569	0.310010
	N231	N	0.402182	0.034286	0.309264
	N232	N	0.667436	0.412004	0.954753
	N233	N	0.667028	0.584559	0.024446
	N234	N	0.310166	0.583974	0.954218
	N235	N	0.307742	0.410742	0.024455
	N236	N	0.954884	0.681551	0.400486
	N237	N	0.024114	0.679058	0.575427
	N238	N	0.954904	0.318051	0.576724
	N239	N	0.024788	0.319130	0.402016
	N240	N	0.954447	0.411475	0.669320
	N241	N	0.024134	0.584747	0.668130
	N242	N	0.953713	0.586619	0.309605
	N243	N	0.024728	0.413046	0.309204
	N244	N	0.400352	0.679631	0.955779
	N245	N	0.575295	0.678823	0.024089
	N246	N	0.574534	0.318832	0.954733
	N247	N	0.399678	0.316965	0.024134
	N248	N	0.671046	0.964969	0.402146
	N249	N	0.670440	0.034158	0.577155
	N250	N	0.308496	0.964007	0.576759
	N251	N	0.309738	0.034855	0.403267
	N252	N	0.900189	0.465524	0.171028
	N253	N	0.074527	0.534769	0.168286
	N254	N	0.076091	0.464884	0.808687
	N255	N	0.900785	0.532793	0.808603
	N256	N	0.170711	0.911663	0.454554
	N257	N	0.167764	0.084953	0.524671
	N258	N	0.808895	0.087553	0.455164
	N259	N	0.811041	0.913851	0.525135
	N260	N	0.454357	0.179117	0.901722
	N261	N	0.522959	0.178894	0.076553
	N262	N	0.454302	0.817559	0.078640
	N263	N	0.522827	0.817752	0.902430
	N264	N	0.454509	0.911240	0.171349
	N265	N	0.523929	0.085081	0.169221
	N266	N	0.453594	0.084450	0.810261
	N267	N	0.524088	0.912033	0.810252
	N268	N	0.902906	0.179408	0.454325
	N269	N	0.076232	0.179082	0.524131
	N270	N	0.077242	0.818874	0.454489
	N271	N	0.902801	0.819708	0.524101
	N272	N	0.168930	0.465206	0.901882
	N273	N	0.170018	0.532893	0.077405
	N274	N	0.807675	0.464125	0.076660
	N275	N	0.807260	0.533052	0.901828
	O276	O	0.206736	0.780853	-0.039597
	H277	H	0.213482	0.790294	-0.030905
	H278	H	0.217494	0.760401	-0.037968
	O279	O	0.462776	0.713440	0.279038
	H280	H	0.457651	0.721787	0.294424
	H281	H	0.462502	0.729706	0.262876
	O282	O	0.850011	-0.216780	1.200937
	H283	H	0.836580	-0.220431	1.175761
	H284	H	0.845187	-0.247411	1.230396
	O285	O	0.474718	0.469654	0.453339
	H286	H	0.477632	0.483625	0.439900
	H287	H	0.462588	0.463643	0.457517
	O288	O	0.582722	0.497775	0.653282
	H289	H	0.580857	0.484811	0.657410
	H290	H	0.573589	0.482233	0.648573
	O291	O	0.286584	0.303527	0.691657
	H292	H	0.294063	0.342340	0.697444
	H293	H	0.270009	0.280799	0.709479
	O294	O	1.349638	0.248349	1.244965
	H295	H	1.353670	0.240132	1.235071
	H296	H	1.357114	0.243616	1.252335
	O297	O	0.418987	0.364897	0.426116
	H298	H	0.421807	0.364943	0.421962
	H299	H	0.402413	0.365649	0.428660
	O300	O	0.025477	-0.224284	0.768754
	H301	H	0.027327	-0.237149	0.746108
	H302	H	0.050046	-0.225611	0.769120
	O303	O	0.343419	0.409999	0.399718
	H304	H	0.339920	0.419217	0.393382
	H305	H	0.340249	0.390600	0.404236
	O306	O	0.709346	0.404902	0.522521
	H307	H	0.703983	0.390220	0.511403
	H308	H	0.709012	0.413739	0.511865
	O309	O	0.500675	0.368170	0.712194
	H310	H	0.495233	0.347246	0.713368
	H311	H	0.496273	0.366102	0.700562
	O312	O	0.699640	0.460285	0.279569
	H313	H	0.706100	0.451530	0.271926
	H314	H	0.710110	0.456624	0.279550
	O315	O	1.198522	1.061229	0.924098
	H316	H	1.201984	1.049636	0.903972
	H317	H	1.186023	1.054819	0.933201
	O318	O	0.186110	0.201850	0.791559
	H319	H	0.173370	0.212641	0.803541
	H320	H	0.169633	0.172934	0.801050
	O321	O	0.428184	0.605374	0.663912
	H322	H	0.453694	0.612351	0.666906
	H323	H	0.446383	0.595791	0.664500
	O324	O	0.856039	0.832131	0.148164
	H325	H	0.850918	0.829348	0.124669
	H326	H	0.859348	0.834482	0.154124
	O327	O	0.200309	0.026945	1.203563
	H328	H	0.200086	0.033031	1.212041
	H329	H	0.204352	0.027647	1.209833
	O330	O	0.132161	0.881654	0.157317
	H331	H	0.139562	0.884153	0.156893
	H332	H	0.140468	0.863025	0.172281
	O333	O	0.768496	0.024137	0.775296
	H334	H	0.779817	0.041201	0.763966
	H335	H	0.754429	0.043451	0.753461
	O336	O	0.695422	0.291310	0.282404
	H337	H	0.720283	0.266081	0.255168
	H338	H	0.698924	0.309109	0.306496
	O339	O	0.769541	0.220361	0.956832
	H340	H	0.751741	0.216388	0.963237
	H341	H	0.762512	0.230416	0.949572
	O342	O	0.021150	0.215778	0.200415
	H343	H	0.033964	0.219623	0.206723
	H344	H	0.010845	0.220383	0.201113
	O345	O	0.205679	1.224353	1.017571
	H346	H	0.227480	1.227232	1.016244
	H347	H	0.216365	1.225571	1.035338
	O348	O	0.542297	0.630200	0.493591
	H349	H	0.557796	0.641276	0.495448
	H350	H	0.545327	0.616652	0.492990
	O351	O	0.079172	0.819505	0.196075
	H352	H	0.083876	0.832015	0.199089
	H353	H	0.078578	0.803441	0.210238
	O354	O	0.036428	-0.042029	1.197426
	H355	H	0.058337	-0.052900	1.216545
	H356	H	0.028441	-0.036786	1.186587
	O357	O	0.268925	0.280833	0.517867
	H358	H	0.247224	0.260492	0.526306
	H359	H	0.274728	0.279677	0.549483
	O360	O	0.480525	0.344381	0.276023
	H361	H	0.495188	0.326572	0.274514
	H362	H	0.493384	0.341315	0.274780
	O363	O	0.055252	-0.210443	-0.112731
	H364	H	0.063970	-0.191419	-0.124438
	H365	H	0.054585	-0.211036	-0.104652
	O366	O	0.301609	0.434880	0.648575
	H367	H	0.301220	0.439451	0.655166
	H368	H	0.293303	0.447688	0.654450
	O369	O	1.200434	-0.142652	-0.225038
	H370	H	1.195250	-0.140763	-0.206029
	H371	H	1.219151	-0.156139	-0.249741
	O372	O	0.966551	1.170954	0.041261
	H373	H	0.974168	1.165747	0.042801
	H374	H	0.963614	1.170264	0.032493
	O375	O	0.889180	0.015219	-0.109433
	H376	H	0.894434	0.031893	-0.107899
	H377	H	0.875548	0.021099	-0.122462
	O378	O	0.713573	0.562597	0.443078
	H379	H	0.708414	0.572126	0.447627
	H380	H	0.711643	0.579451	0.431403
	O381	O	0.154384	0.992271	0.771864
	H382	H	0.153113	0.970684	0.765818
	H383	H	0.162266	0.972319	0.767486
	O384	O	0.928662	-0.036181	1.175824
	H385	H	0.934200	-0.058541	1.196589
	H386	H	0.937154	-0.058631	1.152894
	O387	O	0.773670	0.783821	0.017835
	H388	H	0.774767	0.787374	0.002099
	H389	H	0.763014	0.778014	0.012924
	O390	O	0.667620	0.284421	0.477236
	H391	H	0.669796	0.278850	0.461499
	H392	H	0.662585	0.272659	0.481188
	O393	O	0.405026	0.462044	0.342522
	H394	H	0.401339	0.466734	0.351735
	H395	H	0.413266	0.452090	0.339191
	O396	O	-0.011896	1.062010	0.789805
	H397	H	0.016416	1.058777	0.780813
	H398	H	-0.025783	1.073070	0.791986
	O399	O	0.089037	0.194214	1.119961
	H400	H	0.068930	0.187132	1.114628
	H401	H	0.089077	0.190978	1.101972
	O402	O	0.801258	-0.191484	0.807214
	H403	H	0.821836	-0.176692	0.824413
	H404	H	0.817955	-0.167204	0.820878
	O405	O	1.463628	0.293728	0.647660
	H406	H	1.448187	0.286553	0.646895
	H407	H	1.465498	0.293021	0.652897
	O408	O	-0.203545	0.191535	0.183158
	H409	H	-0.195297	0.177382	0.169921
	H410	H	-0.175613	0.179991	0.168167
	O411	O	0.833726	1.022490	1.007319
	H412	H	0.829818	1.011353	1.006243
	H413	H	0.829079	1.039548	1.007940
	O414	O	0.702033	0.509656	0.663931
	H415	H	0.709258	0.500916	0.676264
	H416	H	0.703671	0.498278	0.640990
	O417	O	0.665788	0.670520	0.307885
	H418	H	0.656508	0.672920	0.317152
	H419	H	0.649077	0.646375	0.305703
	O420	O	0.378286	0.512481	0.593020
	H421	H	0.374331	0.515639	0.597915
	H422	H	0.371589	0.517222	0.577281
	O423	O	-0.032110	-0.037559	1.066205
	H424	H	-0.017138	-0.039225	1.049910
	H425	H	-0.035000	-0.036823	1.081018
	O426	O	0.657182	0.347375	0.655684
	H427	H	0.639544	0.356452	0.639327
	H428	H	0.646948	0.364149	0.633326
	O429	O	1.222303	0.973473	1.044322
	H430	H	1.217257	0.978749	1.066789
	H431	H	1.219151	0.962365	1.025990
	O432	O	0.517638	0.712277	0.701901
	H433	H	0.544257	0.727947	0.712670
	H434	H	0.531337	0.708543	0.714649
	O435	O	-0.313091	0.700556	-0.313185
	H436	H	-0.285429	0.703315	-0.283189
	H437	H	-0.317656	0.669380	-0.302342
	O438	O	-0.038596	-0.147216	0.074792
	H439	H	-0.046302	-0.155527	0.083472
	H440	H	-0.039704	-0.157961	0.094467
	O441	O	-0.283991	-0.274992	-0.482002
	H442	H	-0.282801	-0.279851	-0.448883
	H443	H	-0.256583	-0.248510	-0.463773
	O444	O	0.475105	0.719332	0.438751
	H445	H	0.495349	0.721890	0.453035
	H446	H	0.477101	0.717839	0.453775
	O447	O	-0.035123	1.218336	0.773999
	H448	H	-0.046229	1.226080	0.757126
	H449	H	-0.038069	1.229640	0.782692
	O450	O	-0.179125	0.956801	0.946639
	H451	H	-0.178144	0.961470	0.932266
	H452	H	-0.186910	0.959188	0.943079
	O453	O	0.358208	0.630334	0.329180
	H454	H	0.375640	0.635050	0.333231
	H455	H	0.357829	0.591472	0.321380
	O456	O	0.532383	0.542530	1.323014
	H457	H	0.527522	0.530787	1.322276
	H458	H	0.516155	0.549393	1.329188
	O459	O	0.940769	0.944487	-0.221617
	H460	H	0.957574	0.931892	-0.218937
	H461	H	0.946123	0.952275	-0.219002
	O462	O	0.290753	0.609226	0.509793
	H463	H	0.283414	0.606267	0.501507
	H464	H	0.295898	0.632428	0.505119
	O465	O	1.458742	0.301314	0.468903
	H466	H	1.457645	0.296711	0.471622
	H467	H	1.450645	0.289164	0.452976
	O468	O	0.306187	0.641456	0.658339
	H469	H	0.308212	0.634259	0.630539
	H470	H	0.334861	0.630561	0.664275
	O471	O	0.774240	0.219422	0.773602
	H472	H	0.744634	0.236595	0.750368
	H473	H	0.783562	0.227019	0.795935
	O474	O	0.277604	0.533958	0.276711
	H475	H	0.282627	0.527484	0.260119
	H476	H	0.277655	0.517254	0.265708
	O477	O	1.056295	-0.107419	2.112885
	H478	H	1.054919	-0.125183	2.139475
	H479	H	1.049494	-0.101876	2.117325
	O480	O	0.342059	0.682516	0.508883
	H481	H	0.354177	0.691193	0.518345
	H482	H	0.337433	0.674093	0.502242
	O483	O	0.037288	0.921991	-0.032191
	H484	H	0.028457	0.918592	-0.019335
	H485	H	0.063363	0.922310	-0.017779
	O486	O	0.765427	0.025750	1.111857
	H487	H	0.772165	0.022018	1.120895
	H488	H	0.764375	0.021737	1.122628
	O489	O	1.046478	1.225646	-0.068644
	H490	H	1.048939	1.217285	-0.063107
	H491	H	1.062029	1.231076	-0.060953
