data_Molecule from HDF5

_cell_length_a		16.125278
_cell_length_b		16.309340
_cell_length_c		16.361711
_cell_angle_alpha	89.780777
_cell_angle_beta	89.801546
_cell_angle_gamma	89.998058
_symmetry_space_group_name_H-M	'P 1'
_symmetry_Int_Tables_number		1

loop_
	_symmetry_equiv_pos_as_xyz
	x,y,z

loop_
	_atom_site_label
	_atom_site_type_symbol
	_atom_site_fract_x
	_atom_site_fract_y
	_atom_site_fract_z
	H0	H	0.394559	0.833452	0.717288
	H1	H	0.596280	0.159297	0.713732
	H2	H	0.597944	0.833996	0.283339
	H3	H	0.395094	0.158026	0.281303
	H4	H	0.710757	0.401045	0.836203
	H5	H	0.710142	0.592650	0.162976
	H6	H	0.283790	0.594732	0.834880
	H7	H	0.282666	0.399369	0.162051
	H8	H	0.831482	0.709874	0.399916
	H9	H	0.160989	0.711315	0.595240
	H10	H	0.832081	0.282988	0.598027
	H11	H	0.161908	0.284129	0.400462
	H12	H	0.831442	0.398824	0.712206
	H13	H	0.161737	0.596875	0.711788
	H14	H	0.832476	0.595736	0.284949
	H15	H	0.161262	0.398045	0.284659
	H16	H	0.399557	0.713097	0.835769
	H17	H	0.598332	0.711417	0.161425
	H18	H	0.597773	0.282061	0.836462
	H19	H	0.394923	0.279393	0.161241
	H20	H	0.710209	0.833088	0.401864
	H21	H	0.709084	0.161204	0.594282
	H22	H	0.281560	0.833086	0.597548
	H23	H	0.285627	0.160440	0.402575
	H24	H	0.894406	0.334913	0.216989
	H25	H	0.098260	0.659276	0.213698
	H26	H	0.097738	0.333641	0.782369
	H27	H	0.895878	0.659810	0.782833
	H28	H	0.211125	0.900682	0.334581
	H29	H	0.209087	0.092602	0.661896
	H30	H	0.783849	0.094577	0.334637
	H31	H	0.783058	0.900456	0.662377
	H32	H	0.331861	0.211049	0.900322
	H33	H	0.661715	0.209110	0.094884
	H34	H	0.333712	0.781420	0.099612
	H35	H	0.663580	0.785052	0.900987
	H36	H	0.332776	0.896867	0.213511
	H37	H	0.661326	0.095072	0.211149
	H38	H	0.331940	0.096061	0.785205
	H39	H	0.661531	0.896988	0.783768
	H40	H	0.897995	0.213670	0.335770
	H41	H	0.096001	0.211573	0.661501
	H42	H	0.096997	0.782675	0.334625
	H43	H	0.894977	0.779898	0.660171
	H44	H	0.210191	0.331786	0.902262
	H45	H	0.209945	0.659839	0.094026
	H46	H	0.784324	0.332742	0.096206
	H47	H	0.783844	0.660547	0.903095
	H48	H	0.400162	0.115335	0.595728
	H49	H	0.589329	0.877356	0.601896
	H50	H	0.595113	0.116126	0.399525
	H51	H	0.411563	0.879176	0.399070
	H52	H	0.589136	0.393972	0.117911
	H53	H	0.591377	0.600167	0.879958
	H54	H	0.402523	0.589612	0.115296
	H55	H	0.407048	0.403320	0.884018
	H56	H	0.112909	0.587057	0.409088
	H57	H	0.880899	0.588998	0.587114
	H58	H	0.115396	0.406613	0.594496
	H59	H	0.878810	0.401182	0.410062
	H60	H	0.115736	0.400574	0.591181
	H61	H	0.879459	0.585835	0.594583
	H62	H	0.115284	0.587451	0.401011
	H63	H	0.881582	0.409747	0.409129
	H64	H	0.405296	0.588423	0.113458
	H65	H	0.598208	0.586185	0.882653
	H66	H	0.595607	0.405857	0.116673
	H67	H	0.404531	0.400454	0.881942
	H68	H	0.581070	0.112224	0.399631
	H69	H	0.579991	0.883687	0.588897
	H70	H	0.409148	0.111666	0.595848
	H71	H	0.407750	0.883673	0.413815
	H72	H	0.901165	0.612695	0.089459
	H73	H	0.074412	0.386482	0.086153
	H74	H	0.094457	0.613883	0.902105
	H75	H	0.901248	0.380098	0.908221
	H76	H	0.091115	0.899826	0.615177
	H77	H	0.095894	0.093259	0.380358
	H78	H	0.895798	0.095953	0.618150
	H79	H	0.906551	0.907127	0.384348
	H80	H	0.617118	0.092384	0.900647
	H81	H	0.378256	0.092605	0.087982
	H82	H	0.616142	0.907529	0.097229
	H83	H	0.379193	0.904234	0.906056
	H84	H	0.617500	0.898238	0.091622
	H85	H	0.380524	0.083500	0.088602
	H86	H	0.613542	0.092040	0.910978
	H87	H	0.379642	0.903102	0.909262
	H88	H	0.901874	0.081268	0.612364
	H89	H	0.089725	0.085419	0.383877
	H90	H	0.088932	0.908255	0.612338
	H91	H	0.904983	0.899500	0.381350
	H92	H	0.085645	0.612299	0.900722
	H93	H	0.102228	0.378408	0.084364
	H94	H	0.903416	0.615499	0.096702
	H95	H	0.902896	0.378348	0.899332
	H96	H	0.404237	0.110854	0.588367
	H97	H	0.596554	0.880097	0.586864
	H98	H	0.589161	0.110348	0.412231
	H99	H	0.396944	0.876994	0.404226
	H100	H	0.582171	0.404279	0.113101
	H101	H	0.582601	0.587995	0.885772
	H102	H	0.405569	0.591531	0.114360
	H103	H	0.402752	0.404357	0.882558
	H104	H	0.116485	0.594899	0.405997
	H105	H	0.876111	0.593856	0.592774
	H106	H	0.113345	0.406073	0.587872
	H107	H	0.876764	0.404325	0.402087
	H108	H	0.908599	0.611816	0.092761
	H109	H	0.087837	0.375304	0.108640
	H110	H	0.088704	0.610480	0.909002
	H111	H	0.909518	0.381408	0.905055
	H112	H	0.082303	0.901215	0.612282
	H113	H	0.085780	0.095831	0.382427
	H114	H	0.911772	0.095368	0.613191
	H115	H	0.899338	0.904946	0.380620
	H116	H	0.613403	0.083395	0.905290
	H117	H	0.377402	0.087589	0.096269
	H118	H	0.612618	0.907339	0.086680
	H119	H	0.381057	0.906198	0.908984
	C120	C	0.374644	0.004602	0.621887
	C121	C	0.617401	0.988451	0.620121
	C122	C	0.618155	0.005259	0.376077
	C123	C	0.375961	0.987765	0.377276
	C124	C	0.618479	0.374164	0.007918
	C125	C	0.619616	0.618815	0.990638
	C126	C	0.375796	0.619073	0.006746
	C127	C	0.375274	0.374440	0.990473
	C128	C	0.005820	0.618531	0.376634
	C129	C	0.987700	0.618604	0.619466
	C130	C	0.005548	0.375924	0.619912
	C131	C	0.988000	0.376468	0.378326
	C132	C	0.875130	0.505274	0.121200
	C133	C	0.117757	0.487845	0.120400
	C134	C	0.118787	0.504611	0.875962
	C135	C	0.875396	0.488012	0.876691
	C136	C	0.117698	0.875168	0.505641
	C137	C	0.118545	0.119302	0.490093
	C138	C	0.874469	0.119425	0.506922
	C139	C	0.874541	0.875376	0.489798
	C140	C	0.505665	0.118133	0.877274
	C141	C	0.487691	0.117081	0.119481
	C142	C	0.506822	0.875008	0.121025
	C143	C	0.489284	0.876320	0.879164
	C144	C	0.375166	0.882170	0.678080
	C145	C	0.615823	0.111186	0.675212
	C146	C	0.617417	0.882498	0.321329
	C147	C	0.376104	0.109676	0.320422
	C148	C	0.673472	0.379094	0.884945
	C149	C	0.673619	0.614357	0.113661
	C150	C	0.321192	0.615998	0.883842
	C151	C	0.319775	0.377900	0.113222
	C152	C	0.881155	0.672749	0.379765
	C153	C	0.111947	0.673672	0.616194
	C154	C	0.881045	0.321096	0.618040
	C155	C	0.112512	0.321469	0.380047
	C156	C	0.880974	0.378345	0.675031
	C157	C	0.112143	0.616793	0.673938
	C158	C	0.881539	0.615837	0.322455
	C159	C	0.112203	0.378283	0.322615
	C160	C	0.378515	0.674988	0.884354
	C161	C	0.617851	0.673564	0.113006
	C162	C	0.617393	0.319943	0.885137
	C163	C	0.375793	0.318303	0.112781
	C164	C	0.673286	0.882192	0.380193
	C165	C	0.671704	0.112096	0.615886
	C166	C	0.319087	0.881761	0.618721
	C167	C	0.321945	0.111227	0.381051
	C168	C	0.875836	0.383129	0.177576
	C169	C	0.117129	0.610672	0.175271
	C170	C	0.117188	0.381954	0.821184
	C171	C	0.876465	0.610836	0.821312
	C172	C	0.173560	0.879190	0.383254
	C173	C	0.172421	0.114635	0.612988
	C174	C	0.820776	0.116034	0.383584
	C175	C	0.819891	0.878766	0.613169
	C176	C	0.381271	0.173299	0.879654
	C177	C	0.612310	0.171702	0.115722
	C178	C	0.382675	0.819509	0.119027
	C179	C	0.613732	0.821706	0.880609
	C180	C	0.382349	0.876747	0.175964
	C181	C	0.612076	0.115443	0.173766
	C182	C	0.381332	0.116064	0.822567
	C183	C	0.612798	0.877782	0.822492
	C184	C	0.877383	0.175289	0.384370
	C185	C	0.115781	0.173681	0.612528
	C186	C	0.116589	0.820676	0.383214
	C187	C	0.875572	0.818819	0.611970
	C188	C	0.173168	0.381055	0.880528
	C189	C	0.172608	0.611018	0.115797
	C190	C	0.820929	0.382030	0.117614
	C191	C	0.821054	0.611387	0.881202
	C192	C	0.397632	0.090270	0.599697
	C193	C	0.595131	0.902780	0.598739
	C194	C	0.595071	0.090810	0.397414
	C195	C	0.398538	0.901973	0.399587
	C196	C	0.595789	0.395040	0.093687
	C197	C	0.597379	0.597734	0.904887
	C198	C	0.397925	0.596677	0.092305
	C199	C	0.398045	0.396394	0.904866
	C200	C	0.092557	0.596549	0.398754
	C201	C	0.901121	0.596212	0.598003
	C202	C	0.092331	0.397870	0.597686
	C203	C	0.901407	0.398665	0.400439
	C204	C	0.897753	0.591338	0.099263
	C205	C	0.094939	0.402050	0.099273
	C206	C	0.096201	0.590136	0.897492
	C207	C	0.897993	0.402133	0.897988
	C208	C	0.094420	0.896857	0.591181
	C209	C	0.096947	0.097855	0.404372
	C210	C	0.896423	0.097282	0.592495
	C211	C	0.896913	0.897499	0.404314
	C212	C	0.592366	0.095835	0.899081
	C213	C	0.401082	0.094378	0.097586
	C214	C	0.593146	0.897778	0.098458
	C215	C	0.402462	0.898031	0.901657
	Zn216	Zn	0.496868	-0.004040	0.750294
	Zn217	Zn	0.497000	-0.003414	0.247642
	Zn218	Zn	0.747099	0.496258	-0.000702
	Zn219	Zn	0.246434	0.496186	-0.001286
	Zn220	Zn	-0.003385	0.746167	0.497568
	Zn221	Zn	-0.003318	0.248652	0.498756
	Zn222	Zn	-0.003065	0.496775	0.747431
	Zn223	Zn	-0.003386	0.496596	0.249619
	Zn224	Zn	0.498197	0.748075	-0.000454
	Zn225	Zn	0.496564	0.245134	-0.001099
	Zn226	Zn	0.745886	-0.002981	0.498620
	Zn227	Zn	0.247367	-0.003357	0.498269
	N228	N	0.408825	0.959578	0.680277
	N229	N	0.582733	0.033397	0.678018
	N230	N	0.583753	0.959990	0.318541
	N231	N	0.409001	0.032096	0.318065
	N232	N	0.674224	0.412222	0.962125
	N233	N	0.674735	0.580985	0.036474
	N234	N	0.319224	0.582066	0.960980
	N235	N	0.319500	0.412215	0.036264
	N236	N	0.959579	0.674484	0.412774
	N237	N	0.033636	0.674902	0.583071
	N238	N	0.959440	0.319352	0.584709
	N239	N	0.034409	0.320293	0.413990
	N240	N	0.959418	0.411909	0.676207
	N241	N	0.033940	0.583205	0.676017
	N242	N	0.959962	0.582853	0.320465
	N243	N	0.033814	0.411908	0.321418
	N244	N	0.411487	0.677006	0.961831
	N245	N	0.584707	0.676347	0.035688
	N246	N	0.583920	0.316701	0.962642
	N247	N	0.409597	0.316041	0.035397
	N248	N	0.674015	0.959430	0.413587
	N249	N	0.672681	0.034841	0.582283
	N250	N	0.318624	0.958963	0.584471
	N251	N	0.321971	0.034295	0.415962
	N252	N	0.908854	0.460891	0.179861
	N253	N	0.083610	0.533107	0.178193
	N254	N	0.084231	0.459599	0.818214
	N255	N	0.909487	0.533108	0.818243
	N256	N	0.174211	0.912397	0.460515
	N257	N	0.174549	0.081476	0.535801
	N258	N	0.819100	0.081775	0.460594
	N259	N	0.819060	0.912943	0.536287
	N260	N	0.459348	0.174568	0.913093
	N261	N	0.533929	0.172849	0.082765
	N262	N	0.461027	0.818256	0.085620
	N263	N	0.535858	0.820801	0.915216
	N264	N	0.460426	0.910634	0.177301
	N265	N	0.533675	0.082094	0.176058
	N266	N	0.459616	0.082377	0.820879
	N267	N	0.534460	0.910897	0.821402
	N268	N	0.910024	0.177653	0.462005
	N269	N	0.083066	0.176460	0.535102
	N270	N	0.082782	0.817929	0.460542
	N271	N	0.908924	0.816538	0.534382
	N272	N	0.174310	0.458384	0.914001
	N273	N	0.172915	0.533840	0.082221
	N274	N	0.820635	0.458983	0.083181
	N275	N	0.820176	0.533963	0.914969
	O276	O	1.014013	0.938692	-0.061818
	H277	H	1.026145	0.941074	-0.061662
	H278	H	1.023060	0.934918	-0.069679
	O279	O	0.125656	-0.056428	-0.078584
	H280	H	0.124856	-0.052980	-0.079724
	H281	H	0.124963	-0.058088	-0.071320
	O282	O	0.016356	-0.052049	1.018395
	H283	H	0.010752	-0.054946	1.013439
	H284	H	0.011486	-0.057673	1.020019
	O285	O	0.467973	0.502167	0.472184
	H286	H	0.469087	0.498743	0.471974
	H287	H	0.464401	0.494221	0.473159
	O288	O	0.509612	0.492886	0.484721
	H289	H	0.496999	0.494483	0.485168
	H290	H	0.508916	0.490874	0.483612
	O291	O	0.471391	0.550927	0.512023
	H292	H	0.462151	0.554822	0.517748
	H293	H	0.471691	0.555577	0.510135
	O294	O	0.087398	-0.090222	-0.015372
	H295	H	0.081780	-0.095846	-0.024425
	H296	H	0.090090	-0.100527	-0.015939
	O297	O	0.457576	0.525237	0.490864
	H298	H	0.453096	0.529901	0.477744
	H299	H	0.456296	0.521799	0.494316
	O300	O	-0.005845	0.969882	1.011937
	H301	H	-0.009117	0.964897	1.015094
	H302	H	-0.007256	0.966858	1.010561
	O303	O	0.437071	0.489862	0.602301
	H304	H	0.440582	0.490357	0.604361
	H305	H	0.449165	0.480139	0.597360
	O306	O	0.055201	-0.027331	0.883197
	H307	H	0.057455	-0.033460	0.877833
	H308	H	0.053432	-0.024643	0.875056
	O309	O	1.042909	0.966880	0.886295
	H310	H	1.049197	0.975377	0.887578
	H311	H	1.031992	0.963934	0.884484
	O312	O	0.441750	0.487534	0.508191
	H313	H	0.441740	0.476794	0.520468
	H314	H	0.438673	0.493434	0.517329
	O315	O	0.530837	0.481206	0.560541
	H316	H	0.532233	0.483418	0.559627
	H317	H	0.530875	0.469556	0.560187
	O318	O	0.014795	0.962983	-0.110619
	H319	H	0.017472	0.963497	-0.111544
	H320	H	0.022188	0.957134	-0.107019
	O321	O	1.476909	1.496676	0.483520
	H322	H	1.470795	1.494526	0.484524
	H323	H	1.472119	1.505535	0.491169
