data_Molecule from HDF5

_cell_length_a		16.342273
_cell_length_b		16.057541
_cell_length_c		16.264577
_cell_angle_alpha	89.782495
_cell_angle_beta	90.277960
_cell_angle_gamma	90.111626
_symmetry_space_group_name_H-M	'P 1'
_symmetry_Int_Tables_number		1

loop_
	_symmetry_equiv_pos_as_xyz
	x,y,z

loop_
	_atom_site_label
	_atom_site_type_symbol
	_atom_site_fract_x
	_atom_site_fract_y
	_atom_site_fract_z
	H0	H	0.404232	0.837536	0.711993
	H1	H	0.602828	0.167578	0.710875
	H2	H	0.598883	0.836241	0.287401
	H3	H	0.402818	0.166972	0.282833
	H4	H	0.718007	0.401988	0.835902
	H5	H	0.718754	0.603804	0.161588
	H6	H	0.284242	0.604344	0.835808
	H7	H	0.286693	0.399817	0.162027
	H8	H	0.837995	0.714410	0.400786
	H9	H	0.165422	0.715396	0.596085
	H10	H	0.837784	0.288408	0.594012
	H11	H	0.166090	0.289010	0.402353
	H12	H	0.838688	0.400338	0.714540
	H13	H	0.164623	0.603032	0.715588
	H14	H	0.839172	0.603086	0.281123
	H15	H	0.164811	0.402882	0.282681
	H16	H	0.403806	0.716104	0.833584
	H17	H	0.598725	0.714010	0.163437
	H18	H	0.597346	0.292558	0.833250
	H19	H	0.405343	0.286272	0.162063
	H20	H	0.715173	0.836617	0.400351
	H21	H	0.717650	0.167067	0.598696
	H22	H	0.289378	0.836702	0.597995
	H23	H	0.287185	0.165990	0.395578
	H24	H	0.904860	0.337307	0.210327
	H25	H	0.100254	0.669405	0.210312
	H26	H	0.098403	0.336587	0.787353
	H27	H	0.903254	0.668216	0.783020
	H28	H	0.216848	0.900224	0.334752
	H29	H	0.220541	0.102469	0.660533
	H30	H	0.784888	0.103319	0.335601
	H31	H	0.786805	0.900582	0.662470
	H32	H	0.339595	0.215943	0.899396
	H33	H	0.666703	0.214820	0.094491
	H34	H	0.338239	0.789244	0.093255
	H35	H	0.666762	0.790731	0.903435
	H36	H	0.339324	0.900757	0.213224
	H37	H	0.664610	0.102657	0.215496
	H38	H	0.340692	0.103963	0.779560
	H39	H	0.665447	0.903815	0.783387
	H40	H	0.904485	0.214827	0.333817
	H41	H	0.098808	0.213541	0.663148
	H42	H	0.094979	0.791819	0.332684
	H43	H	0.906720	0.788016	0.663457
	H44	H	0.215634	0.337552	0.899737
	H45	H	0.217644	0.667983	0.098140
	H46	H	0.788511	0.337757	0.098048
	H47	H	0.786733	0.668924	0.897752
	H48	H	0.404616	0.123111	0.591640
	H49	H	0.601130	0.880982	0.591830
	H50	H	0.604328	0.126305	0.398596
	H51	H	0.408866	0.883296	0.406183
	H52	H	0.599189	0.397438	0.119580
	H53	H	0.599074	0.601974	0.878738
	H54	H	0.413132	0.584602	0.111778
	H55	H	0.399532	0.413772	0.881139
	H56	H	0.119366	0.605857	0.413397
	H57	H	0.889302	0.589142	0.584560
	H58	H	0.120222	0.407111	0.599036
	H59	H	0.885461	0.405290	0.405102
	H60	H	0.117312	0.406056	0.588567
	H61	H	0.884556	0.588954	0.599696
	H62	H	0.113570	0.583393	0.407215
	H63	H	0.887640	0.412794	0.404705
	H64	H	0.415831	0.604129	0.115208
	H65	H	0.600139	0.588996	0.881774
	H66	H	0.605415	0.418824	0.116320
	H67	H	0.412133	0.416009	0.884256
	H68	H	0.582677	0.118419	0.400393
	H69	H	0.591420	0.882873	0.596703
	H70	H	0.417482	0.120497	0.592015
	H71	H	0.409111	0.882676	0.405254
	H72	H	0.910819	0.622615	0.091006
	H73	H	0.098045	0.380722	0.100992
	H74	H	0.088678	0.619384	0.906538
	H75	H	0.917144	0.386928	0.907193
	H76	H	0.089895	0.917430	0.610379
	H77	H	0.092869	0.094653	0.382477
	H78	H	0.909418	0.103983	0.618440
	H79	H	0.907684	0.916668	0.384296
	H80	H	0.619713	0.103537	0.908999
	H81	H	0.387841	0.091534	0.088684
	H82	H	0.616267	0.913585	0.090202
	H83	H	0.385449	0.908198	0.903705
	H84	H	0.620036	0.911159	0.100322
	H85	H	0.385162	0.092688	0.093106
	H86	H	0.617341	0.088933	0.905071
	H87	H	0.386856	0.911404	0.904192
	H88	H	0.899241	0.088761	0.616380
	H89	H	0.096896	0.097965	0.379262
	H90	H	0.093737	0.897878	0.617373
	H91	H	0.911521	0.903477	0.381314
	H92	H	0.096217	0.619723	0.911831
	H93	H	0.085759	0.387813	0.090257
	H94	H	0.908441	0.622431	0.088119
	H95	H	0.903700	0.386533	0.914956
	H96	H	0.410101	0.118467	0.580444
	H97	H	0.593036	0.886129	0.586054
	H98	H	0.596771	0.118018	0.419400
	H99	H	0.409380	0.883270	0.406828
	H100	H	0.584939	0.413236	0.111519
	H101	H	0.588314	0.595418	0.883150
	H102	H	0.397562	0.595550	0.119122
	H103	H	0.408344	0.404222	0.880464
	H104	H	0.123194	0.598347	0.390562
	H105	H	0.882691	0.603480	0.590844
	H106	H	0.115952	0.415374	0.594209
	H107	H	0.884712	0.410128	0.398489
	H108	H	0.906714	0.622653	0.092072
	H109	H	0.101503	0.384419	0.084424
	H110	H	0.096757	0.623217	0.902678
	H111	H	0.904249	0.381378	0.899808
	H112	H	0.109313	0.911716	0.617801
	H113	H	0.097481	0.092556	0.381393
	H114	H	0.916927	0.088345	0.612214
	H115	H	0.898884	0.906692	0.378477
	H116	H	0.622813	0.099071	0.894602
	H117	H	0.386245	0.096648	0.089628
	H118	H	0.619948	0.902780	0.092521
	H119	H	0.386170	0.910599	0.901297
	C120	C	0.381989	0.011167	0.617925
	C121	C	0.624065	0.993165	0.619880
	C122	C	0.622888	0.011134	0.377774
	C123	C	0.380491	0.992451	0.376361
	C124	C	0.624168	0.381343	0.007279
	C125	C	0.624016	0.624195	0.989799
	C126	C	0.379904	0.624222	0.007042
	C127	C	0.379293	0.380908	0.989830
	C128	C	0.010637	0.624354	0.375462
	C129	C	0.993436	0.623271	0.620766
	C130	C	0.009880	0.379896	0.621445
	C131	C	0.993866	0.380843	0.375515
	C132	C	0.880816	0.512570	0.119144
	C133	C	0.123568	0.493959	0.119989
	C134	C	0.122275	0.511531	0.878493
	C135	C	0.879828	0.494434	0.877659
	C136	C	0.124000	0.880655	0.506629
	C137	C	0.124521	0.123800	0.489299
	C138	C	0.879826	0.123154	0.507052
	C139	C	0.879104	0.879822	0.490154
	C140	C	0.511923	0.125456	0.874405
	C141	C	0.494332	0.123032	0.119208
	C142	C	0.510952	0.879590	0.121394
	C143	C	0.494334	0.881646	0.876037
	C144	C	0.384283	0.886817	0.674000
	C145	C	0.622566	0.118010	0.673767
	C146	C	0.619842	0.886096	0.324054
	C147	C	0.382725	0.117080	0.320323
	C148	C	0.679415	0.383007	0.884411
	C149	C	0.679999	0.622804	0.112843
	C150	C	0.323219	0.623443	0.884298
	C151	C	0.324776	0.380789	0.113165
	C152	C	0.887174	0.678095	0.379194
	C153	C	0.116415	0.678499	0.617746
	C154	C	0.886871	0.325404	0.616275
	C155	C	0.116949	0.326164	0.380279
	C156	C	0.887486	0.380997	0.676258
	C157	C	0.116025	0.622526	0.677085
	C158	C	0.887868	0.622645	0.319698
	C159	C	0.116319	0.382859	0.320837
	C160	C	0.382889	0.679125	0.883169
	C161	C	0.620228	0.677726	0.113806
	C162	C	0.619185	0.328541	0.882957
	C163	C	0.383771	0.324403	0.113168
	C164	C	0.677328	0.886215	0.380509
	C165	C	0.679969	0.117574	0.618228
	C166	C	0.326678	0.886511	0.617545
	C167	C	0.325454	0.117050	0.376811
	C168	C	0.883880	0.387076	0.173518
	C169	C	0.121174	0.619344	0.173845
	C170	C	0.119218	0.386054	0.824444
	C171	C	0.882629	0.619107	0.821334
	C172	C	0.178279	0.881738	0.383198
	C173	C	0.181127	0.121951	0.612099
	C174	C	0.823955	0.122186	0.384105
	C175	C	0.824706	0.880945	0.613497
	C176	C	0.388565	0.179056	0.877786
	C177	C	0.617446	0.177991	0.116076
	C178	C	0.387403	0.825377	0.115990
	C179	C	0.617760	0.827771	0.881293
	C180	C	0.388189	0.880881	0.175659
	C181	C	0.616516	0.121965	0.175871
	C182	C	0.389290	0.123470	0.818244
	C183	C	0.617047	0.883924	0.821774
	C184	C	0.883254	0.177783	0.383218
	C185	C	0.120849	0.177171	0.613487
	C186	C	0.117665	0.827645	0.382278
	C187	C	0.884256	0.825091	0.614146
	C188	C	0.177508	0.386731	0.880278
	C189	C	0.179477	0.618772	0.118239
	C190	C	0.826186	0.387261	0.117705
	C191	C	0.824692	0.619217	0.878090
	C192	C	0.404027	0.098246	0.594650
	C193	C	0.601850	0.905936	0.598092
	C194	C	0.600866	0.098385	0.399582
	C195	C	0.402491	0.905583	0.399528
	C196	C	0.602648	0.403257	0.093525
	C197	C	0.602160	0.602027	0.903575
	C198	C	0.402140	0.601499	0.093063
	C199	C	0.400544	0.404345	0.904158
	C200	C	0.096372	0.602447	0.397329
	C201	C	0.907660	0.600371	0.598416
	C202	C	0.095801	0.402638	0.600176
	C203	C	0.908134	0.402893	0.396654
	C204	C	0.902212	0.599889	0.096944
	C205	C	0.101526	0.406964	0.098315
	C206	C	0.100306	0.598350	0.900496
	C207	C	0.901897	0.407461	0.900615
	C208	C	0.103733	0.902507	0.592814
	C209	C	0.102275	0.101758	0.403353
	C210	C	0.901985	0.100472	0.593411
	C211	C	0.899861	0.902396	0.403727
	C212	C	0.597865	0.103679	0.896294
	C213	C	0.408651	0.100239	0.096939
	C214	C	0.596761	0.902257	0.100328
	C215	C	0.408489	0.903343	0.896942
	Zn216	Zn	0.503168	0.003263	0.746016
	Zn217	Zn	0.501978	0.001755	0.249920
	Zn218	Zn	0.752564	0.502975	-0.001185
	Zn219	Zn	0.250599	0.502678	-0.000921
	Zn220	Zn	0.001911	0.751728	0.498596
	Zn221	Zn	0.001798	0.251831	0.498463
	Zn222	Zn	0.001545	0.502411	0.750043
	Zn223	Zn	0.001842	0.503425	0.246054
	Zn224	Zn	0.502371	0.752156	-0.001583
	Zn225	Zn	0.502519	0.253014	-0.002273
	Zn226	Zn	0.750317	0.002192	0.499087
	Zn227	Zn	0.253423	0.001543	0.497401
	N228	N	0.417939	0.965532	0.674341
	N229	N	0.588544	0.039710	0.674979
	N230	N	0.586608	0.964880	0.322279
	N231	N	0.416407	0.038628	0.320055
	N232	N	0.682579	0.415044	0.962673
	N233	N	0.682469	0.590308	0.034697
	N234	N	0.321409	0.589974	0.962317
	N235	N	0.321634	0.415002	0.035462
	N236	N	0.964423	0.679265	0.413299
	N237	N	0.039367	0.678871	0.583311
	N238	N	0.964128	0.324648	0.582967
	N239	N	0.039698	0.324804	0.413511
	N240	N	0.965247	0.414185	0.679712
	N241	N	0.038384	0.589029	0.678927
	N242	N	0.965450	0.589920	0.317297
	N243	N	0.038642	0.415725	0.317508
	N244	N	0.417464	0.679861	0.960491
	N245	N	0.586234	0.678950	0.036194
	N246	N	0.585331	0.327506	0.960415
	N247	N	0.416854	0.324012	0.035580
	N248	N	0.679376	0.965036	0.413133
	N249	N	0.680812	0.038818	0.585173
	N250	N	0.325301	0.964891	0.583146
	N251	N	0.323684	0.038474	0.410707
	N252	N	0.917158	0.465929	0.174587
	N253	N	0.087113	0.540870	0.175096
	N254	N	0.085644	0.464788	0.822985
	N255	N	0.916162	0.540471	0.820890
	N256	N	0.182489	0.913933	0.461499
	N257	N	0.183775	0.089818	0.533807
	N258	N	0.821888	0.088899	0.462058
	N259	N	0.821245	0.914089	0.535302
	N260	N	0.465615	0.180525	0.911978
	N261	N	0.540370	0.178655	0.081481
	N262	N	0.464717	0.824377	0.082990
	N263	N	0.540423	0.826027	0.914239
	N264	N	0.465971	0.913838	0.179109
	N265	N	0.538916	0.088627	0.178033
	N266	N	0.467287	0.091050	0.815850
	N267	N	0.539355	0.916623	0.818280
	N268	N	0.917342	0.178696	0.460862
	N269	N	0.086291	0.178458	0.536217
	N270	N	0.084715	0.826458	0.459986
	N271	N	0.917218	0.823895	0.536515
	N272	N	0.179478	0.465422	0.913181
	N273	N	0.181082	0.539905	0.085538
	N274	N	0.824266	0.466059	0.084474
	N275	N	0.823103	0.540772	0.912508
	O276	O	0.035284	0.024464	-0.074935
	H277	H	0.030502	0.022585	-0.079183
	H278	H	0.037972	0.017698	-0.076553
	O279	O	0.491526	0.548639	0.521054
	H280	H	0.481288	0.548728	0.526992
	H281	H	0.487197	0.558441	0.528869
	O282	O	0.515090	0.429476	0.509063
	H283	H	0.504604	0.430280	0.518667
	H284	H	0.516450	0.425494	0.515372
	O285	O	1.033226	0.060484	0.987708
	H286	H	1.035346	0.068426	0.993952
	H287	H	1.039776	0.044962	0.982235
	O288	O	0.973568	-0.011777	0.030628
	H289	H	0.955079	-0.005698	0.034554
	H290	H	0.973358	0.003483	0.023644
	O291	O	0.492743	0.496978	0.535109
	H292	H	0.480920	0.492105	0.534447
	H293	H	0.496508	0.488474	0.543127
	O294	O	1.203241	0.186392	0.721658
	H295	H	1.186974	0.175968	0.718729
	H296	H	1.207660	0.187595	0.720544
	O297	O	0.071107	0.041501	0.114052
	H298	H	0.071487	0.034932	0.118387
	H299	H	0.067489	0.052817	0.124038
	O300	O	0.574097	0.560045	0.494733
	H301	H	0.580663	0.552199	0.492879
	H302	H	0.580719	0.558722	0.497737
	O303	O	0.509697	0.446186	0.570042
	H304	H	0.508682	0.447745	0.575988
	H305	H	0.499850	0.447104	0.581642
	O306	O	0.975139	0.017070	0.002934
	H307	H	0.967239	0.019459	0.014480
	H308	H	0.976343	0.019275	0.003122
	O309	O	0.009160	-0.069612	0.987602
	H310	H	0.009498	-0.072835	0.995066
	H311	H	0.011819	-0.071527	0.984999
	O312	O	1.046686	0.976598	0.969589
	H313	H	1.055089	0.972500	0.967898
	H314	H	1.056121	0.966725	0.964840
	O315	O	0.572597	0.525269	0.434923
	H316	H	0.574595	0.518977	0.433940
	H317	H	0.577505	0.523702	0.435981
	O318	O	0.462320	0.481472	0.513169
	H319	H	0.464143	0.471501	0.508502
	H320	H	0.460372	0.479109	0.516356
	O321	O	0.064016	1.004942	0.968825
	H322	H	0.068788	1.002344	0.971782
	H323	H	0.067494	1.008068	0.976796
	O324	O	0.439870	0.532611	0.526159
	H325	H	0.439143	0.529952	0.523482
	H326	H	0.433922	0.540891	0.528635
	O327	O	0.537885	0.584789	0.447875
	H328	H	0.533272	0.580378	0.439523
	H329	H	0.545908	0.589323	0.447958
	O330	O	0.568003	0.423545	0.516446
	H331	H	0.568748	0.429458	0.524029
	H332	H	0.562521	0.425587	0.513653
	O333	O	0.422379	0.474229	0.465302
	H334	H	0.429420	0.478916	0.464498
	H335	H	0.437392	0.475506	0.463870
	O336	O	0.390549	0.513575	0.518305
	H337	H	0.395764	0.517914	0.516471
	H338	H	0.405351	0.508378	0.516646
	O339	O	1.024217	1.060696	0.008099
	H340	H	1.017814	1.060974	0.010183
	H341	H	1.023990	1.063853	0.000763
	O342	O	0.558082	0.573382	0.512910
	H343	H	0.558191	0.566540	0.510071
	H344	H	0.549790	0.573419	0.510716
	O345	O	0.500397	0.432945	0.455774
	H346	H	0.496951	0.433208	0.458276
	H347	H	0.496768	0.430151	0.457581
	O348	O	0.008914	0.030427	0.081046
	H349	H	0.006128	0.030454	0.075401
	H350	H	0.016395	0.028385	0.084552
	O351	O	0.041058	1.063859	0.988977
	H352	H	0.044461	1.064274	0.987139
	H353	H	0.033028	1.059873	0.997134
	O354	O	0.521630	0.549994	0.399873
	H355	H	0.515582	0.545698	0.406548
	H356	H	0.508347	0.558755	0.394100
	O357	O	0.004740	1.006912	1.005623
	H358	H	-0.001038	1.010685	1.001649
	H359	H	0.010037	1.006111	0.999228
