data_Molecule from HDF5

_cell_length_a		16.170220
_cell_length_b		16.493148
_cell_length_c		16.252975
_cell_angle_alpha	90.005541
_cell_angle_beta	90.236453
_cell_angle_gamma	89.916330
_symmetry_space_group_name_H-M	'P 1'
_symmetry_Int_Tables_number		1

loop_
	_symmetry_equiv_pos_as_xyz
	x,y,z

loop_
	_atom_site_label
	_atom_site_type_symbol
	_atom_site_fract_x
	_atom_site_fract_y
	_atom_site_fract_z
	H0	H	0.394549	0.830803	0.722319
	H1	H	0.599859	0.150006	0.719315
	H2	H	0.599464	0.829691	0.282669
	H3	H	0.393511	0.149299	0.283724
	H4	H	0.707577	0.394709	0.838572
	H5	H	0.711762	0.589416	0.166179
	H6	H	0.277887	0.591098	0.840136
	H7	H	0.281301	0.391536	0.165816
	H8	H	0.836618	0.709395	0.395994
	H9	H	0.160971	0.705552	0.605799
	H10	H	0.835542	0.272979	0.601150
	H11	H	0.158881	0.269978	0.395140
	H12	H	0.833082	0.391724	0.713300
	H13	H	0.160554	0.589164	0.719520
	H14	H	0.833461	0.589126	0.286048
	H15	H	0.159964	0.389591	0.284679
	H16	H	0.388972	0.711643	0.842203
	H17	H	0.602031	0.710883	0.163095
	H18	H	0.599028	0.271720	0.842162
	H19	H	0.391169	0.270463	0.164125
	H20	H	0.716235	0.828856	0.399279
	H21	H	0.716509	0.149471	0.602828
	H22	H	0.280875	0.828597	0.603185
	H23	H	0.279166	0.149982	0.400890
	H24	H	0.892311	0.331314	0.220576
	H25	H	0.099775	0.648124	0.222360
	H26	H	0.101095	0.330297	0.782670
	H27	H	0.893409	0.649510	0.781465
	H28	H	0.212284	0.890533	0.339014
	H29	H	0.211620	0.088336	0.665122
	H30	H	0.780897	0.087816	0.337635
	H31	H	0.782447	0.888824	0.664885
	H32	H	0.333795	0.207104	0.901210
	H33	H	0.658495	0.209082	0.109263
	H34	H	0.335890	0.770263	0.107798
	H35	H	0.658297	0.770383	0.896703
	H36	H	0.334005	0.888903	0.218442
	H37	H	0.660800	0.088369	0.218202
	H38	H	0.334064	0.092688	0.784107
	H39	H	0.660772	0.892070	0.787965
	H40	H	0.892321	0.208508	0.339622
	H41	H	0.104262	0.210849	0.661119
	H42	H	0.104498	0.769226	0.341326
	H43	H	0.894995	0.769655	0.662535
	H44	H	0.216403	0.330671	0.900491
	H45	H	0.216591	0.649399	0.107159
	H46	H	0.778732	0.330955	0.104283
	H47	H	0.779913	0.651750	0.901726
	H48	H	0.392744	0.106315	0.590050
	H49	H	0.583227	0.878760	0.590632
	H50	H	0.580645	0.098465	0.417058
	H51	H	0.408629	0.875169	0.405082
	H52	H	0.589472	0.399303	0.119742
	H53	H	0.587251	0.588486	0.884487
	H54	H	0.409749	0.584762	0.117588
	H55	H	0.401433	0.398124	0.885696
	H56	H	0.110292	0.574384	0.418085
	H57	H	0.883382	0.578789	0.586123
	H58	H	0.112351	0.396349	0.582866
	H59	H	0.878477	0.390051	0.412629
	H60	H	0.112688	0.407291	0.595723
	H61	H	0.881029	0.579118	0.593885
	H62	H	0.115713	0.577609	0.403034
	H63	H	0.884733	0.403017	0.418504
	H64	H	0.406111	0.582836	0.119207
	H65	H	0.590660	0.577891	0.887611
	H66	H	0.585209	0.398518	0.119488
	H67	H	0.409998	0.405256	0.890182
	H68	H	0.596784	0.104618	0.415744
	H69	H	0.595341	0.874374	0.590869
	H70	H	0.409410	0.106421	0.605036
	H71	H	0.406970	0.877142	0.413746
	H72	H	0.905025	0.601555	0.083032
	H73	H	0.082682	0.377199	0.093232
	H74	H	0.087832	0.603973	0.910428
	H75	H	0.901830	0.373720	0.904954
	H76	H	0.087144	0.902643	0.615813
	H77	H	0.081853	0.083593	0.386623
	H78	H	0.906904	0.081808	0.616935
	H79	H	0.909936	0.895123	0.385883
	H80	H	0.615549	0.089554	0.912317
	H81	H	0.383557	0.074770	0.089029
	H82	H	0.612747	0.903709	0.095613
	H83	H	0.379166	0.899588	0.909013
	H84	H	0.614167	0.894924	0.091216
	H85	H	0.377312	0.082321	0.100847
	H86	H	0.610827	0.080223	0.919030
	H87	H	0.382303	0.899243	0.917210
	H88	H	0.909956	0.080025	0.615447
	H89	H	0.091276	0.083720	0.383142
	H90	H	0.083487	0.893287	0.617631
	H91	H	0.905210	0.899015	0.385665
	H92	H	0.083637	0.602642	0.910269
	H93	H	0.088467	0.377384	0.087647
	H94	H	0.894772	0.609232	0.098498
	H95	H	0.905217	0.375998	0.908148
	H96	H	0.413599	0.098224	0.585011
	H97	H	0.588630	0.874271	0.601848
	H98	H	0.586529	0.104681	0.401947
	H99	H	0.400975	0.873185	0.408693
	H100	H	0.588262	0.395559	0.120163
	H101	H	0.579672	0.581039	0.889670
	H102	H	0.409315	0.581004	0.116297
	H103	H	0.412599	0.393484	0.887316
	H104	H	0.115285	0.589326	0.414276
	H105	H	0.880594	0.586101	0.589234
	H106	H	0.119105	0.391625	0.598058
	H107	H	0.879311	0.402544	0.403208
	H108	H	0.915040	0.604696	0.100491
	H109	H	0.090224	0.374647	0.094546
	H110	H	0.085886	0.602223	0.913875
	H111	H	0.900225	0.375808	0.910242
	H112	H	0.093721	0.895541	0.619638
	H113	H	0.087604	0.075118	0.387027
	H114	H	0.910144	0.083433	0.616670
	H115	H	0.909471	0.900590	0.388170
	H116	H	0.613599	0.077987	0.907292
	H117	H	0.379519	0.089198	0.087575
	H118	H	0.609719	0.902376	0.086682
	H119	H	0.383036	0.905918	0.912837
	C120	C	0.375182	-0.001776	0.624257
	C121	C	0.620262	0.981076	0.624649
	C122	C	0.619233	-0.002649	0.380266
	C123	C	0.374614	0.981060	0.379415
	C124	C	0.617632	0.368858	0.012236
	C125	C	0.617344	0.612402	0.994050
	C126	C	0.375392	0.612811	0.010987
	C127	C	0.376261	0.368847	0.994696
	C128	C	0.006231	0.610529	0.380635
	C129	C	0.989274	0.610944	0.621889
	C130	C	0.006977	0.368420	0.622164
	C131	C	0.988370	0.368571	0.380032
	C132	C	0.874526	0.499404	0.124020
	C133	C	0.118209	0.481573	0.123636
	C134	C	0.118249	0.498109	0.880358
	C135	C	0.872987	0.481740	0.878478
	C136	C	0.119303	0.867112	0.510964
	C137	C	0.118327	0.111213	0.492630
	C138	C	0.877070	0.111038	0.509450
	C139	C	0.877091	0.867807	0.493312
	C140	C	0.505699	0.112348	0.881893
	C141	C	0.487966	0.111805	0.123990
	C142	C	0.505252	0.869192	0.122707
	C143	C	0.488498	0.870388	0.881596
	C144	C	0.375878	0.878006	0.682288
	C145	C	0.619637	0.102060	0.680950
	C146	C	0.619011	0.877289	0.322062
	C147	C	0.374732	0.101397	0.322546
	C148	C	0.671948	0.372417	0.888526
	C149	C	0.674378	0.610538	0.116811
	C150	C	0.316554	0.611430	0.889029
	C151	C	0.319341	0.370895	0.117102
	C152	C	0.884595	0.669305	0.378486
	C153	C	0.111946	0.667580	0.624165
	C154	C	0.884199	0.311682	0.620855
	C155	C	0.110516	0.309874	0.377502
	C156	C	0.882853	0.370521	0.676544
	C157	C	0.111824	0.609196	0.680449
	C158	C	0.883062	0.609688	0.323586
	C159	C	0.110964	0.369273	0.322481
	C160	C	0.371930	0.671418	0.889783
	C161	C	0.619395	0.670688	0.115480
	C162	C	0.617839	0.311447	0.890108
	C163	C	0.374000	0.310610	0.116093
	C164	C	0.677118	0.876864	0.380084
	C165	C	0.677665	0.101740	0.623111
	C166	C	0.319248	0.877021	0.623246
	C167	C	0.317493	0.101623	0.380846
	C168	C	0.873951	0.378820	0.181220
	C169	C	0.118981	0.600814	0.182830
	C170	C	0.119754	0.378184	0.822284
	C171	C	0.873761	0.602050	0.820615
	C172	C	0.175188	0.869231	0.388084
	C173	C	0.175095	0.109520	0.615224
	C174	C	0.819037	0.108737	0.386917
	C175	C	0.820035	0.868397	0.615546
	C176	C	0.382895	0.169182	0.881446
	C177	C	0.610319	0.169426	0.126441
	C178	C	0.383601	0.810476	0.124795
	C179	C	0.610240	0.810948	0.879483
	C180	C	0.382992	0.869346	0.180196
	C181	C	0.611207	0.109754	0.181231
	C182	C	0.382871	0.111958	0.823527
	C183	C	0.611485	0.871032	0.824907
	C184	C	0.874347	0.168855	0.387711
	C185	C	0.121248	0.170558	0.613353
	C186	C	0.121389	0.808981	0.389431
	C187	C	0.876256	0.809246	0.614451
	C188	C	0.177410	0.378396	0.880705
	C189	C	0.177138	0.601300	0.125300
	C190	C	0.817234	0.378825	0.123299
	C191	C	0.817253	0.602954	0.880554
	C192	C	0.398505	0.081878	0.600304
	C193	C	0.596320	0.897319	0.601214
	C194	C	0.594986	0.080954	0.404611
	C195	C	0.398551	0.896950	0.402471
	C196	C	0.594481	0.391192	0.097492
	C197	C	0.592796	0.589268	0.909204
	C198	C	0.400983	0.589651	0.095789
	C199	C	0.400758	0.392172	0.909787
	C200	C	0.091579	0.587100	0.404590
	C201	C	0.903997	0.588063	0.596964
	C202	C	0.092422	0.391582	0.599148
	C203	C	0.903167	0.391978	0.404264
	C204	C	0.898260	0.583322	0.100782
	C205	C	0.093922	0.397961	0.098938
	C206	C	0.092967	0.581389	0.904568
	C207	C	0.895842	0.397184	0.901172
	C208	C	0.095095	0.890355	0.595801
	C209	C	0.093965	0.087638	0.407639
	C210	C	0.901875	0.088211	0.594339
	C211	C	0.901340	0.891287	0.408552
	C212	C	0.591130	0.089154	0.905797
	C213	C	0.402425	0.088855	0.099513
	C214	C	0.590303	0.893181	0.098118
	C215	C	0.403668	0.894612	0.905932
	Zn216	Zn	0.497313	-0.008948	0.753585
	Zn217	Zn	0.496826	-0.010220	0.250566
	Zn218	Zn	0.745567	0.491101	0.003046
	Zn219	Zn	0.247888	0.490150	0.003034
	Zn220	Zn	-0.001217	0.739184	0.501363
	Zn221	Zn	-0.002308	0.240336	0.500305
	Zn222	Zn	-0.003473	0.489704	0.750247
	Zn223	Zn	-0.003764	0.489090	0.252381
	Zn224	Zn	0.496600	0.741719	0.002033
	Zn225	Zn	0.496789	0.239920	0.003770
	Zn226	Zn	0.748414	-0.010492	0.501870
	Zn227	Zn	0.246090	-0.011263	0.501831
	N228	N	0.410003	0.954359	0.683089
	N229	N	0.584771	0.026215	0.682223
	N230	N	0.583713	0.953199	0.321944
	N231	N	0.409471	0.025291	0.321387
	N232	N	0.672165	0.407197	0.965396
	N233	N	0.673175	0.575082	0.040329
	N234	N	0.318687	0.575561	0.965365
	N235	N	0.320833	0.406561	0.040711
	N236	N	0.962294	0.670240	0.413058
	N237	N	0.034709	0.668604	0.588314
	N238	N	0.962404	0.310139	0.587964
	N239	N	0.033305	0.309218	0.412420
	N240	N	0.960246	0.404936	0.677784
	N241	N	0.034506	0.574738	0.679301
	N242	N	0.959724	0.573821	0.324671
	N243	N	0.034099	0.405068	0.324035
	N244	N	0.407616	0.672344	0.966567
	N245	N	0.584479	0.671821	0.038134
	N246	N	0.585191	0.308716	0.968106
	N247	N	0.408845	0.309456	0.038937
	N248	N	0.677253	0.952504	0.415494
	N249	N	0.678214	0.025503	0.589091
	N250	N	0.318529	0.952704	0.587937
	N251	N	0.317429	0.025807	0.415723
	N252	N	0.908843	0.454736	0.181851
	N253	N	0.083286	0.525205	0.181985
	N254	N	0.083705	0.453766	0.821833
	N255	N	0.907558	0.525451	0.819107
	N256	N	0.174224	0.904742	0.464655
	N257	N	0.173440	0.073147	0.539056
	N258	N	0.820355	0.073716	0.463745
	N259	N	0.820432	0.903978	0.539252
	N260	N	0.460213	0.169643	0.916947
	N261	N	0.532571	0.170919	0.091734
	N262	N	0.460661	0.810267	0.089943
	N263	N	0.532587	0.810044	0.913773
	N264	N	0.459665	0.905481	0.178751
	N265	N	0.534023	0.074960	0.179891
	N266	N	0.460365	0.077595	0.823425
	N267	N	0.534904	0.907259	0.826051
	N268	N	0.909607	0.170528	0.464872
	N269	N	0.086795	0.171821	0.535964
	N270	N	0.087315	0.807603	0.466814
	N271	N	0.910807	0.808542	0.537215
	N272	N	0.176609	0.454016	0.916007
	N273	N	0.176648	0.526030	0.089181
	N274	N	0.817549	0.454706	0.088313
	N275	N	0.816706	0.527170	0.915689
	O276	O	0.514339	0.621838	0.447191
	H277	H	0.497069	0.623674	0.456629
	H278	H	0.511749	0.632107	0.441177
	O279	O	0.633423	0.588768	0.449889
	H280	H	0.639367	0.597199	0.448649
	H281	H	0.642895	0.593014	0.448128
	O282	O	0.976357	0.038603	0.912743
	H283	H	0.980167	0.054569	0.908340
	H284	H	0.972086	0.037613	0.895966
	O285	O	0.742504	0.749839	0.787953
	H286	H	0.742550	0.756148	0.785593
	H287	H	0.736805	0.747712	0.787638
	O288	O	0.924397	0.940973	0.891687
	H289	H	0.913644	0.945341	0.896339
	H290	H	0.935863	0.936026	0.911319
	O291	O	-0.036185	0.801566	-0.033487
	H292	H	-0.042451	0.798711	-0.018477
	H293	H	-0.042933	0.801252	-0.024663
	O294	O	0.452903	0.586387	0.633569
	H295	H	0.449253	0.590327	0.633980
	H296	H	0.459618	0.583189	0.639470
	O297	O	0.353550	0.472452	0.522729
	H298	H	0.345766	0.464462	0.508063
	H299	H	0.347295	0.482312	0.507199
	O300	O	0.528457	0.372901	0.593563
	H301	H	0.524888	0.369707	0.588547
	H302	H	0.527402	0.371338	0.601092
	O303	O	0.498373	0.477408	0.533411
	H304	H	0.506129	0.479095	0.541860
	H305	H	0.497172	0.469092	0.525584
	O306	O	0.510727	0.545223	0.413495
	H307	H	0.502699	0.566275	0.415852
	H308	H	0.518389	0.548146	0.403511
	O309	O	0.488636	0.479620	0.603013
	H310	H	0.478580	0.483814	0.606448
	H311	H	0.492514	0.466406	0.617666
	O312	O	0.016327	-0.119150	0.132229
	H313	H	0.018409	-0.125778	0.139557
	H314	H	0.026192	-0.121778	0.120349
	O315	O	0.650229	0.658685	0.654400
	H316	H	0.647052	0.654809	0.650337
	H317	H	0.651827	0.652064	0.661430
	O318	O	0.119663	1.000811	0.925455
	H319	H	0.129547	0.993773	0.938211
	H320	H	0.124015	1.000835	0.923865
	O321	O	0.499364	0.430239	0.372893
	H322	H	0.496746	0.438756	0.369561
	H323	H	0.498325	0.421909	0.372291
	O324	O	-0.184747	1.053746	-0.051117
	H325	H	-0.170156	1.058816	-0.056466
	H326	H	-0.181382	1.049232	-0.053618
	O327	O	0.377394	0.589499	0.332585
	H328	H	0.371470	0.569810	0.341864
	H329	H	0.371639	0.584104	0.339279
	O330	O	0.107061	0.026698	1.065355
	H331	H	0.111966	0.012180	1.063211
	H332	H	0.117047	0.017332	1.077742
	O333	O	0.169857	0.049329	0.876251
	H334	H	0.148317	0.051786	0.882367
	H335	H	0.176498	0.050027	0.877168
	O336	O	0.453904	0.486745	0.555791
	H337	H	0.453199	0.489945	0.555926
	H338	H	0.454545	0.494374	0.544330
	O339	O	1.155917	0.117656	0.071400
	H340	H	1.166099	0.118211	0.064854
	H341	H	1.149459	0.118815	0.086653
	O342	O	0.018159	0.176408	-0.089100
	H343	H	0.027133	0.187160	-0.108079
	H344	H	0.030736	0.174249	-0.084554
	O345	O	1.010025	0.010229	1.020729
	H346	H	1.005510	0.014761	1.010530
	H347	H	1.009194	0.000464	1.015275
	O348	O	0.798515	1.180302	-0.101643
	H349	H	0.793035	1.188860	-0.122704
	H350	H	0.778660	1.193462	-0.110112
	O351	O	0.505288	0.474397	0.442597
	H352	H	0.509025	0.475768	0.445814
	H353	H	0.503016	0.477012	0.446356
	O354	O	0.847042	0.099998	0.931129
	H355	H	0.845643	0.086707	0.923299
	H356	H	0.851245	0.093731	0.923047
	O357	O	0.596243	0.321447	0.405139
	H358	H	0.608632	0.330425	0.402224
	H359	H	0.596312	0.309710	0.396797
	O360	O	0.390579	0.453505	0.432265
	H361	H	0.390626	0.436164	0.436611
	H362	H	0.393503	0.464297	0.424758
	O363	O	0.101056	0.838400	0.825861
	H364	H	0.103122	0.847514	0.817509
	H365	H	0.069864	0.842941	0.825624
	O366	O	0.560870	0.379004	0.454039
	H367	H	0.557518	0.384053	0.449363
	H368	H	0.563848	0.380604	0.459543
	O369	O	0.194670	0.785145	-0.087823
	H370	H	0.188353	0.799205	-0.117328
	H371	H	0.205725	0.768041	-0.093025
	O372	O	0.574796	0.404103	0.566019
	H373	H	0.560328	0.403479	0.561980
	H374	H	0.570868	0.416015	0.570422
	O375	O	0.478060	0.508741	0.688157
	H376	H	0.478564	0.511824	0.690199
	H377	H	0.482137	0.510426	0.683618
	O378	O	0.827677	0.784221	0.208902
	H379	H	0.828685	0.794821	0.212916
	H380	H	0.829132	0.780040	0.225086
	O381	O	1.031213	0.134784	0.076965
	H382	H	1.035527	0.149204	0.083791
	H383	H	1.022807	0.143573	0.075875
	O384	O	1.026672	0.850075	0.093542
	H385	H	1.027374	0.841724	0.094660
	H386	H	1.027655	0.848032	0.084524
	O387	O	0.131545	0.109980	0.066168
	H388	H	0.126744	0.107521	0.074146
	H389	H	0.130482	0.094910	0.081411
	O390	O	-0.112850	1.038206	0.137743
	H391	H	-0.102193	1.053890	0.143975
	H392	H	-0.126470	1.037000	0.124198
	O393	O	1.129000	0.899993	0.960648
	H394	H	1.135200	0.889515	0.952230
	H395	H	1.118219	0.889094	0.948228
	O396	O	0.457834	0.335655	0.619201
	H397	H	0.452592	0.328939	0.624498
	H398	H	0.456407	0.331492	0.615099
	O399	O	-0.123052	1.063572	1.048128
	H400	H	-0.120088	1.070683	1.039067
	H401	H	-0.131179	1.060423	1.055587
	O402	O	0.377694	0.568662	0.617838
	H403	H	0.374293	0.586691	0.610165
	H404	H	0.381895	0.571699	0.640852
	O405	O	0.876327	0.930160	0.039705
	H406	H	0.866712	0.937714	0.042406
	H407	H	0.887589	0.941491	0.043268
	O408	O	0.942464	0.913525	0.161102
	H409	H	0.941757	0.914247	0.165692
	H410	H	0.937058	0.920379	0.163096
	O411	O	0.847698	-0.104363	0.689009
	H412	H	0.844064	-0.109161	0.686440
	H413	H	0.841099	-0.105406	0.683631
	O414	O	0.647231	0.379315	0.442030
	H415	H	0.648626	0.378211	0.461250
	H416	H	0.651590	0.385685	0.443556
	O417	O	0.523257	0.552587	0.494352
	H418	H	0.529976	0.557834	0.499186
	H419	H	0.514526	0.560343	0.478685
