data_Molecule from HDF5

_cell_length_a		16.284777
_cell_length_b		16.308648
_cell_length_c		16.222840
_cell_angle_alpha	89.849043
_cell_angle_beta	89.708788
_cell_angle_gamma	90.040941
_symmetry_space_group_name_H-M	'P 1'
_symmetry_Int_Tables_number		1

loop_
	_symmetry_equiv_pos_as_xyz
	x,y,z

loop_
	_atom_site_label
	_atom_site_type_symbol
	_atom_site_fract_x
	_atom_site_fract_y
	_atom_site_fract_z
	H0	H	0.402938	0.840697	0.714983
	H1	H	0.597493	0.168513	0.715129
	H2	H	0.600196	0.841387	0.286938
	H3	H	0.404767	0.169536	0.288468
	H4	H	0.715193	0.406655	0.837319
	H5	H	0.711930	0.602250	0.166806
	H6	H	0.287359	0.603279	0.837553
	H7	H	0.285969	0.407398	0.166308
	H8	H	0.837213	0.721137	0.403131
	H9	H	0.164046	0.719689	0.600262
	H10	H	0.836906	0.290034	0.601726
	H11	H	0.164280	0.291836	0.402530
	H12	H	0.836483	0.407106	0.717429
	H13	H	0.163931	0.603798	0.715530
	H14	H	0.835666	0.602038	0.289929
	H15	H	0.164441	0.407775	0.287144
	H16	H	0.399997	0.720957	0.837958
	H17	H	0.596933	0.719233	0.165994
	H18	H	0.598098	0.292480	0.837481
	H19	H	0.399063	0.289624	0.165521
	H20	H	0.716720	0.842515	0.402681
	H21	H	0.714882	0.168982	0.599365
	H22	H	0.284360	0.842552	0.601943
	H23	H	0.286735	0.168818	0.403191
	H24	H	0.900959	0.341605	0.217148
	H25	H	0.095081	0.669861	0.213143
	H26	H	0.097018	0.341497	0.787942
	H27	H	0.903018	0.669442	0.788527
	H28	H	0.215569	0.908635	0.337993
	H29	H	0.213321	0.102318	0.666860
	H30	H	0.788375	0.103787	0.337190
	H31	H	0.785920	0.906634	0.665583
	H32	H	0.335762	0.220608	0.902953
	H33	H	0.664100	0.219515	0.098324
	H34	H	0.335966	0.791114	0.101739
	H35	H	0.662994	0.791235	0.903293
	H36	H	0.336472	0.907620	0.217427
	H37	H	0.664892	0.102133	0.212811
	H38	H	0.335540	0.102697	0.788137
	H39	H	0.664771	0.908084	0.789228
	H40	H	0.903878	0.219795	0.337653
	H41	H	0.099295	0.220039	0.666525
	H42	H	0.099442	0.792680	0.337448
	H43	H	0.900556	0.790574	0.666089
	H44	H	0.215101	0.341675	0.903079
	H45	H	0.213273	0.669124	0.099353
	H46	H	0.784844	0.341616	0.100577
	H47	H	0.785956	0.668721	0.904082
	H48	H	0.404893	0.123337	0.598163
	H49	H	0.604465	0.885925	0.593541
	H50	H	0.598258	0.123335	0.404144
	H51	H	0.410581	0.890300	0.412503
	H52	H	0.591555	0.412787	0.118150
	H53	H	0.585629	0.602233	0.886485
	H54	H	0.400466	0.598547	0.120508
	H55	H	0.406419	0.403008	0.881791
	H56	H	0.114770	0.598099	0.413373
	H57	H	0.884728	0.598920	0.592033
	H58	H	0.113361	0.415342	0.586786
	H59	H	0.882646	0.414200	0.403336
	H60	H	0.116885	0.417634	0.601280
	H61	H	0.883823	0.596548	0.596585
	H62	H	0.117424	0.594235	0.402472
	H63	H	0.882061	0.404738	0.412345
	H64	H	0.408505	0.593628	0.116957
	H65	H	0.600761	0.603874	0.881511
	H66	H	0.591536	0.409870	0.119125
	H67	H	0.399913	0.419128	0.884926
	H68	H	0.591031	0.120619	0.406401
	H69	H	0.591802	0.886335	0.604827
	H70	H	0.412696	0.120129	0.594421
	H71	H	0.403996	0.888265	0.410903
	H72	H	0.914649	0.620110	0.098743
	H73	H	0.105259	0.386265	0.091408
	H74	H	0.099589	0.622358	0.910650
	H75	H	0.901751	0.388664	0.913696
	H76	H	0.089548	0.903302	0.620779
	H77	H	0.105387	0.094699	0.383292
	H78	H	0.910224	0.098819	0.617888
	H79	H	0.910247	0.908986	0.384747
	H80	H	0.614855	0.098570	0.910909
	H81	H	0.385400	0.089224	0.099003
	H82	H	0.616194	0.907393	0.089836
	H83	H	0.381924	0.912817	0.903453
	H84	H	0.614610	0.916651	0.091779
	H85	H	0.380634	0.104784	0.101029
	H86	H	0.616158	0.097328	0.905001
	H87	H	0.382211	0.908397	0.910795
	H88	H	0.905633	0.100169	0.619875
	H89	H	0.085956	0.093387	0.390053
	H90	H	0.101304	0.913320	0.621441
	H91	H	0.905606	0.913957	0.384535
	H92	H	0.092677	0.622611	0.902285
	H93	H	0.088849	0.386941	0.107524
	H94	H	0.902506	0.619677	0.086212
	H95	H	0.907119	0.387337	0.903825
	H96	H	0.405179	0.121384	0.589652
	H97	H	0.589448	0.891990	0.588496
	H98	H	0.596941	0.120826	0.411610
	H99	H	0.409718	0.888834	0.405924
	H100	H	0.593692	0.411090	0.119245
	H101	H	0.595106	0.590185	0.886590
	H102	H	0.409046	0.603314	0.119276
	H103	H	0.416331	0.415945	0.887973
	H104	H	0.119212	0.605928	0.405607
	H105	H	0.883258	0.601447	0.596053
	H106	H	0.119194	0.404612	0.595320
	H107	H	0.886392	0.415885	0.415180
	H108	H	0.898173	0.626338	0.103062
	H109	H	0.084036	0.394185	0.085396
	H110	H	0.088600	0.619078	0.912183
	H111	H	0.913007	0.391762	0.912763
	H112	H	0.087637	0.917383	0.615355
	H113	H	0.093505	0.110701	0.382249
	H114	H	0.906291	0.095278	0.618924
	H115	H	0.911153	0.915276	0.386643
	H116	H	0.616763	0.103048	0.906768
	H117	H	0.386205	0.099810	0.086342
	H118	H	0.617667	0.910535	0.098677
	H119	H	0.384805	0.916172	0.910604
	C120	C	0.378978	0.013483	0.623245
	C121	C	0.622346	0.996573	0.623014
	C122	C	0.623229	0.013511	0.379254
	C123	C	0.379852	0.996980	0.380892
	C124	C	0.621231	0.383809	0.010178
	C125	C	0.621317	0.627037	0.993506
	C126	C	0.378428	0.626899	0.010190
	C127	C	0.378331	0.383823	0.993265
	C128	C	0.008698	0.627498	0.379778
	C129	C	0.992190	0.626789	0.623134
	C130	C	0.008622	0.383624	0.623865
	C131	C	0.992151	0.383742	0.380773
	C132	C	0.876992	0.513520	0.124404
	C133	C	0.120726	0.497230	0.123010
	C134	C	0.122079	0.513286	0.879705
	C135	C	0.878928	0.497305	0.881301
	C136	C	0.121842	0.883904	0.510511
	C137	C	0.122484	0.127128	0.494002
	C138	C	0.879653	0.126779	0.510114
	C139	C	0.879353	0.883661	0.493426
	C140	C	0.507729	0.127428	0.879471
	C141	C	0.492033	0.126599	0.122885
	C142	C	0.508352	0.883336	0.123168
	C143	C	0.491191	0.883833	0.880116
	C144	C	0.381922	0.889896	0.677719
	C145	C	0.618694	0.119991	0.677321
	C146	C	0.620800	0.890605	0.324438
	C147	C	0.383754	0.120655	0.326385
	C148	C	0.676750	0.386734	0.886383
	C149	C	0.674715	0.623183	0.117633
	C150	C	0.324833	0.623793	0.886369
	C151	C	0.322975	0.386240	0.116935
	C152	C	0.885807	0.682543	0.383012
	C153	C	0.115192	0.681727	0.620415
	C154	C	0.885684	0.327993	0.622122
	C155	C	0.115572	0.329726	0.382690
	C156	C	0.885033	0.386608	0.678825
	C157	C	0.115176	0.624210	0.677874
	C158	C	0.885088	0.623827	0.326446
	C159	C	0.115410	0.387135	0.324955
	C160	C	0.380815	0.682249	0.886701
	C161	C	0.617466	0.681222	0.117174
	C162	C	0.618693	0.329938	0.886293
	C163	C	0.379641	0.328009	0.116615
	C164	C	0.678452	0.890854	0.382074
	C165	C	0.676846	0.120019	0.619937
	C166	C	0.322764	0.890880	0.621857
	C167	C	0.324924	0.120247	0.383214
	C168	C	0.880662	0.390271	0.178929
	C169	C	0.116955	0.620658	0.176627
	C170	C	0.118637	0.390413	0.825109
	C171	C	0.881795	0.620371	0.826030
	C172	C	0.177082	0.887940	0.386667
	C173	C	0.176610	0.123759	0.617750
	C174	C	0.825891	0.124032	0.386415
	C175	C	0.824031	0.886478	0.616840
	C176	C	0.384517	0.182067	0.882670
	C177	C	0.615031	0.182067	0.119403
	C178	C	0.384861	0.828824	0.121879
	C179	C	0.614377	0.828809	0.882714
	C180	C	0.385265	0.886432	0.179595
	C181	C	0.615578	0.123627	0.176261
	C182	C	0.384476	0.123698	0.825481
	C183	C	0.615249	0.886982	0.825968
	C184	C	0.883055	0.181833	0.386748
	C185	C	0.120053	0.182183	0.617429
	C186	C	0.119950	0.829874	0.386614
	C187	C	0.880981	0.828615	0.617019
	C188	C	0.177041	0.390502	0.882513
	C189	C	0.175381	0.620394	0.119872
	C190	C	0.822529	0.390418	0.121428
	C191	C	0.823881	0.620157	0.883559
	C192	C	0.401302	0.099405	0.600725
	C193	C	0.601451	0.910343	0.601765
	C194	C	0.601610	0.099338	0.401009
	C195	C	0.401655	0.911301	0.403294
	C196	C	0.598858	0.404992	0.096400
	C197	C	0.600175	0.605256	0.907160
	C198	C	0.399767	0.604958	0.096725
	C199	C	0.400883	0.406170	0.907084
	C200	C	0.094900	0.605779	0.401055
	C201	C	0.906120	0.605094	0.601441
	C202	C	0.094306	0.405987	0.601199
	C203	C	0.906027	0.405204	0.403535
	C204	C	0.898738	0.599680	0.102500
	C205	C	0.099184	0.411292	0.101076
	C206	C	0.100137	0.599126	0.901825
	C207	C	0.900930	0.411338	0.903563
	C208	C	0.099540	0.905116	0.596899
	C209	C	0.101080	0.105899	0.407562
	C210	C	0.901105	0.104655	0.596526
	C211	C	0.902168	0.906154	0.407448
	C212	C	0.593802	0.105897	0.901160
	C213	C	0.406149	0.104678	0.101614
	C214	C	0.594027	0.905051	0.100196
	C215	C	0.405093	0.905816	0.901996
	Zn216	Zn	0.500058	0.004885	0.751665
	Zn217	Zn	0.501054	0.004858	0.251740
	Zn218	Zn	0.749279	0.505394	0.001797
	Zn219	Zn	0.250403	0.505679	0.001794
	Zn220	Zn	0.000348	0.755490	0.501976
	Zn221	Zn	0.000955	0.255382	0.502145
	Zn222	Zn	-0.000119	0.505586	0.751580
	Zn223	Zn	-0.000272	0.505198	0.251850
	Zn224	Zn	0.499151	0.755058	0.001208
	Zn225	Zn	0.499652	0.255794	0.001527
	Zn226	Zn	0.751217	0.005499	0.501640
	Zn227	Zn	0.250570	0.005792	0.502677
	N228	N	0.416063	0.967275	0.678910
	N229	N	0.585567	0.042324	0.679515
	N230	N	0.587146	0.967834	0.322702
	N231	N	0.417160	0.043183	0.324744
	N232	N	0.678515	0.419397	0.964541
	N233	N	0.677253	0.590070	0.039678
	N234	N	0.323073	0.590179	0.964244
	N235	N	0.322181	0.420446	0.039333
	N236	N	0.963784	0.685071	0.415347
	N237	N	0.037624	0.683522	0.587108
	N238	N	0.963469	0.326097	0.588639
	N239	N	0.037979	0.327399	0.416457
	N240	N	0.962315	0.420643	0.679891
	N241	N	0.037591	0.590762	0.679472
	N242	N	0.962493	0.590275	0.324417
	N243	N	0.037700	0.420334	0.323941
	N244	N	0.413594	0.684008	0.964631
	N245	N	0.584866	0.683582	0.039158
	N246	N	0.584893	0.327904	0.964112
	N247	N	0.413296	0.326321	0.038644
	N248	N	0.680386	0.968292	0.415278
	N249	N	0.679259	0.042365	0.587216
	N250	N	0.320859	0.968623	0.588923
	N251	N	0.322300	0.042457	0.416268
	N252	N	0.913721	0.467922	0.180813
	N253	N	0.083807	0.543184	0.178671
	N254	N	0.085067	0.467696	0.823455
	N255	N	0.915245	0.542947	0.824516
	N256	N	0.178624	0.920589	0.464749
	N257	N	0.178032	0.090128	0.540110
	N258	N	0.823417	0.090588	0.464451
	N259	N	0.823044	0.920232	0.539023
	N260	N	0.462289	0.184489	0.915520
	N261	N	0.537094	0.184104	0.087013
	N262	N	0.462261	0.826431	0.087762
	N263	N	0.536247	0.826647	0.915344
	N264	N	0.462912	0.919820	0.180343
	N265	N	0.538237	0.089806	0.178507
	N266	N	0.462107	0.090518	0.823381
	N267	N	0.537747	0.920568	0.824284
	N268	N	0.915779	0.183387	0.464593
	N269	N	0.087036	0.184250	0.539567
	N270	N	0.086066	0.827567	0.464497
	N271	N	0.915174	0.827169	0.539436
	N272	N	0.179399	0.468082	0.915478
	N273	N	0.177905	0.542586	0.087154
	N274	N	0.820143	0.468150	0.088412
	N275	N	0.822068	0.542677	0.917217
	O276	O	-0.044386	0.001002	1.016013
	H277	H	-0.047976	0.001982	1.007742
	H278	H	-0.049609	-0.008459	1.019362
	O279	O	0.465776	0.469122	0.475128
	H280	H	0.447899	0.461164	0.476584
	H281	H	0.464287	0.480064	0.473293
	O282	O	0.452421	0.498150	0.487846
	H283	H	0.459355	0.497318	0.488363
	H284	H	0.452185	0.499935	0.494966
	O285	O	0.461938	0.500784	0.472018
	H286	H	0.461175	0.503909	0.478838
	H287	H	0.466313	0.498083	0.466034
	O288	O	0.927728	-0.004621	0.007869
	H289	H	0.922972	-0.002894	0.006782
	H290	H	0.927753	-0.000562	0.010308
	O291	O	-0.039277	1.028741	1.030652
	H292	H	-0.041047	1.030498	1.024999
	H293	H	-0.039033	1.023946	1.028887
	O294	O	0.444614	0.467152	0.506934
	H295	H	0.441770	0.464565	0.503493
	H296	H	0.449564	0.463315	0.498831
	O297	O	0.957978	0.036959	0.025303
	H298	H	0.968274	0.036771	0.026455
	H299	H	0.957234	0.040659	0.031741
