data_Molecule from HDF5

_cell_length_a		16.267975
_cell_length_b		16.462430
_cell_length_c		16.109818
_cell_angle_alpha	90.255840
_cell_angle_beta	89.780415
_cell_angle_gamma	89.959884
_symmetry_space_group_name_H-M	'P 1'
_symmetry_Int_Tables_number		1

loop_
	_symmetry_equiv_pos_as_xyz
	x,y,z

loop_
	_atom_site_label
	_atom_site_type_symbol
	_atom_site_fract_x
	_atom_site_fract_y
	_atom_site_fract_z
	H0	H	0.395424	0.833016	0.720289
	H1	H	0.598561	0.153753	0.720918
	H2	H	0.599123	0.832107	0.285204
	H3	H	0.400735	0.154996	0.286978
	H4	H	0.718948	0.388223	0.839713
	H5	H	0.714367	0.592974	0.167531
	H6	H	0.286192	0.591806	0.838627
	H7	H	0.283629	0.392490	0.166370
	H8	H	0.837769	0.715727	0.396309
	H9	H	0.156583	0.719554	0.610518
	H10	H	0.836016	0.279072	0.605513
	H11	H	0.157870	0.274272	0.395398
	H12	H	0.835818	0.397674	0.718593
	H13	H	0.161652	0.598387	0.719151
	H14	H	0.835791	0.595834	0.285748
	H15	H	0.162303	0.397535	0.289247
	H16	H	0.393458	0.712210	0.842151
	H17	H	0.602207	0.711321	0.166627
	H18	H	0.607548	0.271212	0.841609
	H19	H	0.398195	0.276347	0.166359
	H20	H	0.717140	0.832247	0.399611
	H21	H	0.714468	0.154628	0.605369
	H22	H	0.275286	0.835972	0.606432
	H23	H	0.279711	0.155039	0.398697
	H24	H	0.900687	0.332328	0.217607
	H25	H	0.099231	0.655543	0.220074
	H26	H	0.101011	0.334152	0.782679
	H27	H	0.900029	0.656687	0.787914
	H28	H	0.215250	0.892864	0.339220
	H29	H	0.214422	0.099883	0.665169
	H30	H	0.783843	0.091831	0.337751
	H31	H	0.783290	0.896879	0.666836
	H32	H	0.339918	0.212641	0.898595
	H33	H	0.661175	0.211351	0.106898
	H34	H	0.338566	0.773052	0.110999
	H35	H	0.660120	0.771818	0.897348
	H36	H	0.335864	0.895523	0.218164
	H37	H	0.662947	0.091228	0.216502
	H38	H	0.336926	0.092785	0.789073
	H39	H	0.662121	0.891247	0.785125
	H40	H	0.895042	0.211041	0.338246
	H41	H	0.098784	0.214980	0.664350
	H42	H	0.103408	0.774791	0.340995
	H43	H	0.890677	0.776560	0.664149
	H44	H	0.218315	0.333347	0.898805
	H45	H	0.220598	0.654091	0.107842
	H46	H	0.782131	0.333203	0.103410
	H47	H	0.776626	0.652806	0.897638
	H48	H	0.403086	0.107590	0.591460
	H49	H	0.583850	0.881617	0.587905
	H50	H	0.587013	0.105566	0.413920
	H51	H	0.414720	0.885743	0.421050
	H52	H	0.594398	0.399445	0.121283
	H53	H	0.588432	0.587657	0.885487
	H54	H	0.409701	0.591696	0.122891
	H55	H	0.413221	0.404025	0.887760
	H56	H	0.114815	0.585111	0.406649
	H57	H	0.882848	0.587712	0.593474
	H58	H	0.113978	0.405834	0.591677
	H59	H	0.883737	0.409893	0.411321
	H60	H	0.114488	0.400899	0.590489
	H61	H	0.883679	0.586267	0.593495
	H62	H	0.113556	0.593362	0.418261
	H63	H	0.877567	0.398509	0.401958
	H64	H	0.402759	0.578514	0.120466
	H65	H	0.592285	0.578600	0.887002
	H66	H	0.590313	0.407489	0.117152
	H67	H	0.413084	0.395290	0.885127
	H68	H	0.598171	0.109555	0.413532
	H69	H	0.599170	0.877772	0.589513
	H70	H	0.406242	0.109987	0.598912
	H71	H	0.393666	0.877850	0.416142
	H72	H	0.903367	0.606363	0.084763
	H73	H	0.086196	0.381450	0.096655
	H74	H	0.093589	0.609955	0.908781
	H75	H	0.907726	0.381268	0.914051
	H76	H	0.078494	0.904791	0.617260
	H77	H	0.086958	0.089743	0.383787
	H78	H	0.903806	0.090674	0.621049
	H79	H	0.920400	0.906523	0.389718
	H80	H	0.613832	0.081076	0.916247
	H81	H	0.385565	0.078631	0.095452
	H82	H	0.614505	0.896114	0.086037
	H83	H	0.380793	0.900218	0.905112
	H84	H	0.612990	0.907616	0.092201
	H85	H	0.380212	0.091044	0.099522
	H86	H	0.616275	0.081632	0.909370
	H87	H	0.384056	0.893640	0.920504
	H88	H	0.904795	0.087179	0.619475
	H89	H	0.091880	0.084176	0.384225
	H90	H	0.088978	0.903868	0.620862
	H91	H	0.906441	0.891446	0.380274
	H92	H	0.090916	0.607390	0.913615
	H93	H	0.094101	0.381480	0.087089
	H94	H	0.900155	0.612613	0.100356
	H95	H	0.907775	0.378957	0.908804
	H96	H	0.411287	0.106743	0.593398
	H97	H	0.589915	0.876189	0.601575
	H98	H	0.592149	0.109134	0.403877
	H99	H	0.410222	0.877687	0.399317
	H100	H	0.583867	0.398830	0.119091
	H101	H	0.582484	0.580223	0.889533
	H102	H	0.417285	0.580336	0.116878
	H103	H	0.406344	0.400703	0.883895
	H104	H	0.109934	0.579934	0.418155
	H105	H	0.882227	0.587126	0.595021
	H106	H	0.112935	0.403558	0.587151
	H107	H	0.881438	0.396236	0.417569
	H108	H	0.915212	0.606913	0.096408
	H109	H	0.097221	0.377266	0.097928
	H110	H	0.096154	0.609586	0.914105
	H111	H	0.912154	0.381769	0.911244
	H112	H	0.085092	0.913432	0.616453
	H113	H	0.085792	0.083691	0.386760
	H114	H	0.907236	0.089673	0.619641
	H115	H	0.898640	0.911540	0.385281
	H116	H	0.617254	0.087065	0.913737
	H117	H	0.384229	0.089507	0.086778
	H118	H	0.618084	0.897350	0.098481
	H119	H	0.387761	0.909032	0.917701
	C120	C	0.375215	0.002563	0.625352
	C121	C	0.620136	0.984700	0.623868
	C122	C	0.621811	0.001642	0.380056
	C123	C	0.376801	0.986271	0.381006
	C124	C	0.621432	0.370707	0.011603
	C125	C	0.619350	0.613263	0.995110
	C126	C	0.379090	0.613734	0.012318
	C127	C	0.379906	0.371017	0.993760
	C128	C	0.006262	0.616363	0.382160
	C129	C	0.989520	0.618274	0.624887
	C130	C	0.006958	0.374613	0.621823
	C131	C	0.988595	0.372593	0.379960
	C132	C	0.876861	0.502413	0.124254
	C133	C	0.122577	0.486283	0.125202
	C134	C	0.122770	0.502479	0.880557
	C135	C	0.877863	0.486240	0.880908
	C136	C	0.116990	0.875366	0.511237
	C137	C	0.118540	0.117275	0.492829
	C138	C	0.875952	0.116913	0.511220
	C139	C	0.877088	0.873616	0.493353
	C140	C	0.508989	0.113655	0.882580
	C141	C	0.490743	0.115349	0.124447
	C142	C	0.507872	0.871348	0.124199
	C143	C	0.490875	0.870142	0.882176
	C144	C	0.375662	0.881656	0.682082
	C145	C	0.618689	0.105785	0.682017
	C146	C	0.619694	0.880173	0.323466
	C147	C	0.379314	0.107009	0.324418
	C148	C	0.680282	0.369686	0.889076
	C149	C	0.676464	0.612959	0.118371
	C150	C	0.323237	0.612464	0.888425
	C151	C	0.322092	0.372401	0.117232
	C152	C	0.885500	0.675223	0.379378
	C153	C	0.109788	0.678340	0.627331
	C154	C	0.884623	0.317960	0.623845
	C155	C	0.110223	0.314554	0.378137
	C156	C	0.884556	0.376826	0.680146
	C157	C	0.111872	0.618354	0.681916
	C158	C	0.884694	0.615653	0.324006
	C159	C	0.112414	0.375704	0.325114
	C160	C	0.376820	0.672410	0.890178
	C161	C	0.620891	0.671784	0.117936
	C162	C	0.624669	0.311141	0.889735
	C163	C	0.379330	0.314808	0.117431
	C164	C	0.678271	0.880330	0.380589
	C165	C	0.676423	0.105932	0.624428
	C166	C	0.315605	0.883097	0.625587
	C167	C	0.319301	0.106843	0.380407
	C168	C	0.879680	0.380800	0.180024
	C169	C	0.120258	0.607271	0.181942
	C170	C	0.121177	0.381931	0.822024
	C171	C	0.878792	0.607705	0.825014
	C172	C	0.176102	0.874075	0.388322
	C173	C	0.175636	0.118625	0.616043
	C174	C	0.820887	0.112940	0.387040
	C175	C	0.820377	0.875872	0.617222
	C176	C	0.387401	0.172083	0.881314
	C177	C	0.612812	0.172315	0.125283
	C178	C	0.386491	0.813306	0.127646
	C179	C	0.612262	0.811423	0.879602
	C180	C	0.385115	0.873776	0.181569
	C181	C	0.613906	0.112119	0.179444
	C182	C	0.385964	0.112474	0.826807
	C183	C	0.613107	0.870963	0.823555
	C184	C	0.876015	0.172446	0.387523
	C185	C	0.118101	0.175751	0.615630
	C186	C	0.120652	0.815042	0.389321
	C187	C	0.873948	0.815957	0.615878
	C188	C	0.179603	0.381542	0.879590
	C189	C	0.180714	0.606297	0.125926
	C190	C	0.820666	0.381172	0.123433
	C191	C	0.817584	0.605833	0.879802
	C192	C	0.399752	0.086393	0.601605
	C193	C	0.597520	0.900540	0.599922
	C194	C	0.599067	0.086193	0.403739
	C195	C	0.399648	0.902191	0.405181
	C196	C	0.596483	0.394974	0.096981
	C197	C	0.594874	0.589215	0.909642
	C198	C	0.402952	0.590290	0.097956
	C199	C	0.403976	0.393448	0.908114
	C200	C	0.090884	0.592736	0.407068
	C201	C	0.904748	0.594132	0.600799
	C202	C	0.091712	0.396891	0.596963
	C203	C	0.903080	0.395038	0.403460
	C204	C	0.899716	0.586524	0.100657
	C205	C	0.099284	0.401718	0.100927
	C206	C	0.100081	0.586956	0.905008
	C207	C	0.902184	0.402444	0.904479
	C208	C	0.091456	0.900087	0.596287
	C209	C	0.095060	0.092961	0.406894
	C210	C	0.898601	0.095386	0.597738
	C211	C	0.901551	0.896408	0.407485
	C212	C	0.593747	0.090048	0.906183
	C213	C	0.405370	0.092999	0.100841
	C214	C	0.592972	0.893853	0.099499
	C215	C	0.406263	0.893926	0.907306
	Zn216	Zn	0.498968	-0.006985	0.754149
	Zn217	Zn	0.499458	-0.006855	0.251418
	Zn218	Zn	0.747636	0.493125	0.002844
	Zn219	Zn	0.252227	0.493319	0.002330
	Zn220	Zn	-0.002652	0.746351	0.502918
	Zn221	Zn	-0.002771	0.244698	0.501282
	Zn222	Zn	0.000112	0.495132	0.751382
	Zn223	Zn	-0.001294	0.494462	0.253557
	Zn224	Zn	0.498891	0.741765	0.004102
	Zn225	Zn	0.500585	0.242504	0.002885
	Zn226	Zn	0.750040	-0.006289	0.502498
	Zn227	Zn	0.245927	-0.004498	0.502290
	N228	N	0.411916	0.956974	0.682092
	N229	N	0.584301	0.029469	0.681915
	N230	N	0.585381	0.956551	0.323075
	N231	N	0.414213	0.031013	0.324717
	N232	N	0.678266	0.406179	0.965786
	N233	N	0.675371	0.577076	0.041087
	N234	N	0.324425	0.576596	0.965344
	N235	N	0.322033	0.406537	0.039510
	N236	N	0.962144	0.675797	0.415092
	N237	N	0.032725	0.678431	0.592634
	N238	N	0.961665	0.316268	0.588362
	N239	N	0.032327	0.312415	0.411662
	N240	N	0.961505	0.411539	0.678886
	N241	N	0.035863	0.581744	0.680678
	N242	N	0.960841	0.579603	0.325608
	N243	N	0.035829	0.410869	0.326026
	N244	N	0.410737	0.673400	0.968210
	N245	N	0.586058	0.672206	0.040263
	N246	N	0.588586	0.311681	0.966937
	N247	N	0.414521	0.313749	0.039639
	N248	N	0.679990	0.957009	0.414809
	N249	N	0.677609	0.029784	0.589010
	N250	N	0.315252	0.959381	0.591107
	N251	N	0.317580	0.030667	0.415002
	N252	N	0.913758	0.457277	0.181044
	N253	N	0.084885	0.531483	0.181387
	N254	N	0.086675	0.458171	0.822423
	N255	N	0.915518	0.532379	0.825521
	N256	N	0.174115	0.910748	0.465060
	N257	N	0.175829	0.082813	0.538712
	N258	N	0.820677	0.079044	0.464922
	N259	N	0.822226	0.911090	0.540010
	N260	N	0.464773	0.173209	0.915073
	N261	N	0.535232	0.174501	0.091846
	N262	N	0.463741	0.811656	0.092585
	N263	N	0.535308	0.810690	0.914959
	N264	N	0.461653	0.909155	0.179509
	N265	N	0.536954	0.077424	0.179084
	N266	N	0.462402	0.076530	0.827663
	N267	N	0.536634	0.906800	0.824890
	N268	N	0.909457	0.175096	0.465774
	N269	N	0.083465	0.175105	0.537782
	N270	N	0.084572	0.815828	0.466814
	N271	N	0.908506	0.814613	0.537789
	N272	N	0.180743	0.457665	0.914948
	N273	N	0.182347	0.529639	0.091544
	N274	N	0.818996	0.457670	0.089549
	N275	N	0.816863	0.529316	0.913753
	O276	O	0.093292	0.100812	-0.021055
	H277	H	0.089859	0.099650	-0.010872
	H278	H	0.084318	0.091771	-0.026624
	O279	O	0.437110	0.414506	0.490527
	H280	H	0.439505	0.414308	0.496213
	H281	H	0.427553	0.400238	0.493831
	O282	O	0.903070	-0.053567	0.065251
	H283	H	0.920302	-0.056001	0.064868
	H284	H	0.909288	-0.064415	0.070465
	O285	O	-0.038761	1.057894	0.054483
	H286	H	-0.038492	1.054953	0.038854
	H287	H	-0.039490	1.056640	0.047682
	O288	O	0.360280	0.404636	0.521111
	H289	H	0.351389	0.409392	0.507805
	H290	H	0.370661	0.411388	0.524790
	O291	O	0.540520	0.590493	0.581893
	H292	H	0.541610	0.597446	0.587949
	H293	H	0.536310	0.589037	0.588496
	O294	O	0.962160	0.897767	1.087561
	H295	H	0.954967	0.899547	1.088063
	H296	H	0.974760	0.900827	1.095683
	O297	O	0.048053	-0.061341	-0.056293
	H298	H	0.049559	-0.055471	-0.056599
	H299	H	0.053120	-0.057337	-0.064753
	O300	O	0.371325	0.527341	0.558022
	H301	H	0.374607	0.529462	0.553179
	H302	H	0.369838	0.526089	0.558832
	O303	O	0.087437	1.082222	1.020548
	H304	H	0.087035	1.097632	1.028095
	H305	H	0.079022	1.077386	1.009282
	O306	O	1.020944	1.019588	-0.044054
	H307	H	1.024859	1.013224	-0.032731
	H308	H	1.022702	1.019636	-0.047955
	O309	O	1.094079	0.041388	-0.131811
	H310	H	1.096084	0.019707	-0.133165
	H311	H	1.113381	0.045164	-0.135678
	O312	O	0.071587	0.088382	1.081588
	H313	H	0.070390	0.095634	1.073768
	H314	H	0.078737	0.096245	1.089056
	O315	O	0.622453	0.590751	0.603076
	H316	H	0.627991	0.582069	0.587675
	H317	H	0.632770	0.578093	0.611087
	O318	O	0.371770	0.472154	0.345748
	H319	H	0.391206	0.493362	0.350754
	H320	H	0.361471	0.460854	0.340989
	O321	O	0.528211	0.474358	0.650207
	H322	H	0.539349	0.473122	0.658078
	H323	H	0.524361	0.467538	0.653827
	O324	O	0.569662	0.502708	0.536565
	H325	H	0.556897	0.503109	0.535602
	H326	H	0.576663	0.515215	0.543417
	O327	O	0.012668	0.887429	0.994895
	H328	H	0.015163	0.898567	0.980459
	H329	H	0.015358	0.887037	0.987064
	O330	O	0.432779	0.579416	0.521649
	H331	H	0.439714	0.581069	0.506996
	H332	H	0.424067	0.573249	0.543029
	O333	O	-0.091481	0.916780	1.165953
	H334	H	-0.097077	0.912103	1.165372
	H335	H	-0.090955	0.914184	1.171218
	O336	O	0.950770	0.916789	0.929275
	H337	H	0.945169	0.919470	0.935202
	H338	H	0.944293	0.907978	0.921614
	O339	O	0.472450	0.408737	0.629850
	H340	H	0.464441	0.392252	0.627825
	H341	H	0.475547	0.412791	0.619709
	O342	O	0.990886	0.022557	-0.154037
	H343	H	0.995368	0.001512	-0.152259
	H344	H	1.001812	0.007904	-0.161951
	O345	O	0.477771	0.556851	0.389069
	H346	H	0.475486	0.561386	0.386708
	H347	H	0.483776	0.557333	0.399879
	O348	O	0.916320	0.943369	1.003756
	H349	H	0.920039	0.952547	1.000956
	H350	H	0.928036	0.951677	1.007832
	O351	O	0.516779	1.383335	-0.465458
	H352	H	0.509906	1.392200	-0.455757
	H353	H	0.499311	1.381420	-0.466037
	O354	O	0.504029	0.360331	0.387463
	H355	H	0.506773	0.370686	0.394522
	H356	H	0.492993	0.371890	0.386533
	O357	O	0.396788	0.455629	0.464921
	H358	H	0.399441	0.457638	0.461987
	H359	H	0.407311	0.461433	0.458341
	O360	O	-0.054716	0.128144	0.010394
	H361	H	-0.051938	0.127783	0.013583
	H362	H	-0.068344	0.129736	0.012635
	O363	O	0.573916	0.629614	0.501299
	H364	H	0.577403	0.624932	0.520076
	H365	H	0.575343	0.627057	0.499919
	O366	O	0.406240	0.395354	0.552598
	H367	H	0.391184	0.397963	0.553408
	H368	H	0.412051	0.393709	0.558538
	O369	O	0.362537	0.610373	0.489060
	H370	H	0.366765	0.600616	0.483982
	H371	H	0.373307	0.615108	0.488238
	O372	O	0.622489	0.518645	0.471181
	H373	H	0.625031	0.511355	0.464558
	H374	H	0.626952	0.542118	0.461171
	O375	O	0.633131	0.471952	0.438859
	H376	H	0.646572	0.474482	0.437767
	H377	H	0.620673	0.473130	0.431301
	O378	O	0.512590	0.626701	0.480087
	H379	H	0.524714	0.615954	0.471333
	H380	H	0.491622	0.630058	0.480545
	O381	O	0.565250	0.561521	0.447363
	H382	H	0.564203	0.552524	0.456037
	H383	H	0.558206	0.565581	0.443554
	O384	O	0.046034	0.950410	-0.004233
	H385	H	0.045419	0.939241	-0.012443
	H386	H	0.034808	0.959618	-0.014822
	O387	O	0.863190	-0.079434	0.992589
	H388	H	0.868128	-0.073185	1.001042
	H389	H	0.862037	-0.075870	0.992206
	O390	O	0.057491	0.973476	-0.095511
	H391	H	0.051517	0.968569	-0.113679
	H392	H	0.044899	0.992605	-0.088254
	O393	O	1.097961	0.956459	0.006886
	H394	H	1.106296	0.947988	0.027918
	H395	H	1.092407	0.956487	0.006986
	O396	O	0.592228	0.301194	0.598938
	H397	H	0.586371	0.309640	0.590601
	H398	H	0.595212	0.281590	0.587983
	O399	O	-0.071144	0.991822	1.046399
	H400	H	-0.065057	0.981042	1.046121
	H401	H	-0.084974	0.999542	1.052020
	O402	O	1.124122	0.921295	1.024026
	H403	H	1.127095	0.913536	1.024828
	H404	H	1.119505	0.925724	1.030205
	O405	O	0.467591	0.442686	0.519472
	H406	H	0.478045	0.433211	0.521949
	H407	H	0.479106	0.440233	0.508182
