data_Molecule from HDF5

_cell_length_a		16.283077
_cell_length_b		16.315255
_cell_length_c		16.230156
_cell_angle_alpha	90.071139
_cell_angle_beta	90.138624
_cell_angle_gamma	90.109824
_symmetry_space_group_name_H-M	'P 1'
_symmetry_Int_Tables_number		1

loop_
	_symmetry_equiv_pos_as_xyz
	x,y,z

loop_
	_atom_site_label
	_atom_site_type_symbol
	_atom_site_fract_x
	_atom_site_fract_y
	_atom_site_fract_z
	H0	H	0.402230	0.836424	0.710377
	H1	H	0.598359	0.164144	0.710898
	H2	H	0.598272	0.836314	0.283310
	H3	H	0.402416	0.163714	0.282795
	H4	H	0.714199	0.399589	0.833298
	H5	H	0.713159	0.597890	0.161905
	H6	H	0.285979	0.596647	0.832997
	H7	H	0.286361	0.401126	0.162196
	H8	H	0.836360	0.713770	0.399552
	H9	H	0.164117	0.714173	0.597156
	H10	H	0.837341	0.284412	0.596054
	H11	H	0.164189	0.285318	0.399013
	H12	H	0.835261	0.402410	0.709515
	H13	H	0.164643	0.596788	0.712390
	H14	H	0.835478	0.595372	0.285194
	H15	H	0.163993	0.402083	0.284531
	H16	H	0.400662	0.713139	0.832885
	H17	H	0.598394	0.714526	0.161268
	H18	H	0.597113	0.285593	0.833058
	H19	H	0.401076	0.283903	0.160895
	H20	H	0.714831	0.836860	0.399363
	H21	H	0.715863	0.163432	0.596227
	H22	H	0.285971	0.836721	0.594943
	H23	H	0.285425	0.163204	0.398042
	H24	H	0.902694	0.335664	0.211110
	H25	H	0.097581	0.663250	0.212037
	H26	H	0.098054	0.335922	0.783396
	H27	H	0.901318	0.662788	0.783333
	H28	H	0.212367	0.902378	0.332763
	H29	H	0.216290	0.098924	0.661172
	H30	H	0.787928	0.097103	0.333065
	H31	H	0.787064	0.901356	0.661770
	H32	H	0.336093	0.213770	0.897074
	H33	H	0.662982	0.215615	0.096945
	H34	H	0.335934	0.784530	0.095691
	H35	H	0.662793	0.783015	0.896966
	H36	H	0.335974	0.902332	0.210747
	H37	H	0.664731	0.097948	0.210242
	H38	H	0.336112	0.095571	0.783554
	H39	H	0.664044	0.902549	0.783721
	H40	H	0.903216	0.213363	0.333755
	H41	H	0.099703	0.213482	0.661899
	H42	H	0.099391	0.784590	0.333775
	H43	H	0.902806	0.785705	0.661545
	H44	H	0.213909	0.336254	0.898811
	H45	H	0.215100	0.663294	0.096968
	H46	H	0.783317	0.336825	0.098715
	H47	H	0.785759	0.662767	0.899867
	H48	H	0.410390	0.116396	0.592275
	H49	H	0.593963	0.886324	0.582232
	H50	H	0.592462	0.115631	0.403576
	H51	H	0.406090	0.883578	0.402975
	H52	H	0.594142	0.400578	0.116842
	H53	H	0.589502	0.583254	0.883812
	H54	H	0.407690	0.585103	0.111810
	H55	H	0.402238	0.403431	0.879435
	H56	H	0.118104	0.601396	0.407659
	H57	H	0.884836	0.596588	0.585049
	H58	H	0.114394	0.409567	0.586045
	H59	H	0.883253	0.410982	0.398162
	H60	H	0.117157	0.410421	0.597255
	H61	H	0.885502	0.586910	0.590793
	H62	H	0.113808	0.587859	0.410742
	H63	H	0.880603	0.396690	0.403464
	H64	H	0.413436	0.597698	0.113829
	H65	H	0.586378	0.599332	0.880276
	H66	H	0.596855	0.412324	0.113770
	H67	H	0.405646	0.411052	0.882272
	H68	H	0.595758	0.116351	0.405612
	H69	H	0.599468	0.881238	0.593326
	H70	H	0.407852	0.115203	0.586015
	H71	H	0.405458	0.883956	0.402923
	H72	H	0.911125	0.613468	0.090054
	H73	H	0.102314	0.381468	0.087357
	H74	H	0.096084	0.616356	0.906095
	H75	H	0.902191	0.384412	0.911211
	H76	H	0.091194	0.908290	0.613924
	H77	H	0.086245	0.095867	0.382398
	H78	H	0.914314	0.094491	0.612767
	H79	H	0.903939	0.907775	0.379703
	H80	H	0.613929	0.087391	0.908303
	H81	H	0.380512	0.095736	0.096402
	H82	H	0.610937	0.915129	0.082584
	H83	H	0.387522	0.911920	0.912529
	H84	H	0.619384	0.908273	0.102841
	H85	H	0.384826	0.096985	0.082845
	H86	H	0.619652	0.092975	0.896585
	H87	H	0.381838	0.911048	0.892594
	H88	H	0.903567	0.096245	0.617622
	H89	H	0.098348	0.097549	0.378030
	H90	H	0.094225	0.904055	0.615139
	H91	H	0.909848	0.908528	0.381614
	H92	H	0.091223	0.615648	0.902725
	H93	H	0.091316	0.381160	0.100429
	H94	H	0.903238	0.616663	0.087341
	H95	H	0.901174	0.379839	0.897825
	H96	H	0.404336	0.117806	0.590641
	H97	H	0.586776	0.884692	0.593770
	H98	H	0.595656	0.117669	0.402380
	H99	H	0.405556	0.882771	0.402357
	H100	H	0.585540	0.407696	0.111712
	H101	H	0.602301	0.593391	0.877581
	H102	H	0.400113	0.595818	0.117269
	H103	H	0.410697	0.403728	0.880995
	H104	H	0.118756	0.591401	0.397355
	H105	H	0.881259	0.596679	0.595749
	H106	H	0.118900	0.400123	0.591411
	H107	H	0.887087	0.407547	0.412579
	H108	H	0.905220	0.617229	0.096083
	H109	H	0.086024	0.387334	0.084548
	H110	H	0.091423	0.614419	0.908215
	H111	H	0.913276	0.384466	0.902866
	H112	H	0.097117	0.908613	0.614304
	H113	H	0.094463	0.085932	0.382611
	H114	H	0.906402	0.085519	0.613602
	H115	H	0.907879	0.902627	0.380277
	H116	H	0.617316	0.100778	0.908099
	H117	H	0.385274	0.084379	0.089392
	H118	H	0.618872	0.894072	0.085066
	H119	H	0.380139	0.894348	0.904473
	C120	C	0.378796	0.008500	0.618188
	C121	C	0.622029	0.992033	0.618598
	C122	C	0.622345	0.008440	0.375544
	C123	C	0.377896	0.991689	0.374620
	C124	C	0.620833	0.377947	0.005611
	C125	C	0.620829	0.620935	0.989233
	C126	C	0.378471	0.620547	0.005623
	C127	C	0.377748	0.377295	0.989167
	C128	C	0.008322	0.621083	0.376712
	C129	C	0.992196	0.621173	0.619515
	C130	C	0.008710	0.377762	0.619755
	C131	C	0.991874	0.377376	0.376315
	C132	C	0.878184	0.507755	0.119583
	C133	C	0.121471	0.491473	0.119362
	C134	C	0.121205	0.507373	0.876904
	C135	C	0.877273	0.490739	0.875670
	C136	C	0.121940	0.878544	0.505881
	C137	C	0.121951	0.121430	0.489293
	C138	C	0.879689	0.120969	0.506225
	C139	C	0.878831	0.878013	0.489232
	C140	C	0.508619	0.121414	0.875331
	C141	C	0.491836	0.121314	0.118352
	C142	C	0.507999	0.878032	0.118515
	C143	C	0.491539	0.877696	0.875225
	C144	C	0.381676	0.885310	0.672738
	C145	C	0.619390	0.115140	0.673800
	C146	C	0.618981	0.885275	0.320876
	C147	C	0.381395	0.114858	0.320301
	C148	C	0.675825	0.379843	0.882236
	C149	C	0.675702	0.618535	0.112686
	C150	C	0.323321	0.617510	0.882037
	C151	C	0.323596	0.380254	0.112814
	C152	C	0.884974	0.675407	0.379293
	C153	C	0.115335	0.676293	0.617476
	C154	C	0.885680	0.322757	0.616373
	C155	C	0.115133	0.322921	0.378699
	C156	C	0.884711	0.381240	0.672989
	C157	C	0.115449	0.618104	0.674924
	C158	C	0.884620	0.616879	0.322481
	C159	C	0.115300	0.381264	0.321966
	C160	C	0.380224	0.675483	0.881893
	C161	C	0.618830	0.676655	0.112250
	C162	C	0.617660	0.323092	0.882038
	C163	C	0.380308	0.321993	0.112357
	C164	C	0.677177	0.885489	0.378261
	C165	C	0.677741	0.114777	0.616849
	C166	C	0.323822	0.885548	0.615432
	C167	C	0.323163	0.114472	0.377335
	C168	C	0.881191	0.384706	0.174151
	C169	C	0.118761	0.614458	0.174595
	C170	C	0.118260	0.384594	0.821373
	C171	C	0.880524	0.614053	0.821199
	C172	C	0.175615	0.881262	0.382131
	C173	C	0.178086	0.119213	0.612474
	C174	C	0.825265	0.118062	0.382378
	C175	C	0.824441	0.881024	0.612721
	C176	C	0.384964	0.175832	0.877372
	C177	C	0.614687	0.176945	0.116415
	C178	C	0.384631	0.823037	0.115839
	C179	C	0.614432	0.822202	0.877254
	C180	C	0.384747	0.881206	0.173091
	C181	C	0.615333	0.118458	0.173036
	C182	C	0.385087	0.117605	0.820567
	C183	C	0.614975	0.881191	0.820662
	C184	C	0.882600	0.175614	0.382606
	C185	C	0.120405	0.176196	0.612856
	C186	C	0.119393	0.822735	0.382619
	C187	C	0.881914	0.823395	0.612689
	C188	C	0.176042	0.384791	0.878826
	C189	C	0.176917	0.614439	0.117301
	C190	C	0.822507	0.385125	0.117764
	C191	C	0.822799	0.613892	0.878765
	C192	C	0.400885	0.094251	0.596181
	C193	C	0.599868	0.906287	0.596341
	C194	C	0.600944	0.094373	0.397413
	C195	C	0.399464	0.905558	0.396204
	C196	C	0.598697	0.400391	0.091874
	C197	C	0.598982	0.598634	0.902799
	C198	C	0.400597	0.599109	0.091907
	C199	C	0.399633	0.399454	0.903144
	C200	C	0.094546	0.599786	0.398530
	C201	C	0.906221	0.599790	0.597043
	C202	C	0.094556	0.399991	0.598027
	C203	C	0.905780	0.398706	0.398210
	C204	C	0.900048	0.593822	0.097563
	C205	C	0.099606	0.405434	0.097450
	C206	C	0.099195	0.593300	0.899048
	C207	C	0.899035	0.405064	0.897548
	C208	C	0.100414	0.900478	0.592186
	C209	C	0.099639	0.099433	0.403201
	C210	C	0.901586	0.098608	0.592418
	C211	C	0.900626	0.900011	0.402850
	C212	C	0.594563	0.100106	0.897821
	C213	C	0.405888	0.098961	0.096122
	C214	C	0.594115	0.899561	0.096603
	C215	C	0.405465	0.899354	0.896884
	Zn216	Zn	0.500361	0.000253	0.746969
	Zn217	Zn	0.500376	0.000208	0.246957
	Zn218	Zn	0.749431	0.499139	-0.002000
	Zn219	Zn	0.250578	0.499158	-0.002294
	Zn220	Zn	0.000533	0.750082	0.497634
	Zn221	Zn	0.001016	0.249384	0.497913
	Zn222	Zn	-0.000514	0.499253	0.748116
	Zn223	Zn	-0.000137	0.499404	0.248185
	Zn224	Zn	0.499566	0.748988	-0.003169
	Zn225	Zn	0.499287	0.249483	-0.003008
	Zn226	Zn	0.751027	0.000194	0.497324
	Zn227	Zn	0.249892	0.000147	0.496998
	N228	N	0.415097	0.962777	0.674627
	N229	N	0.585612	0.037775	0.675115
	N230	N	0.585587	0.962660	0.319232
	N231	N	0.414359	0.037404	0.318239
	N232	N	0.677784	0.413381	0.960044
	N233	N	0.677016	0.584351	0.035102
	N234	N	0.322107	0.584146	0.959872
	N235	N	0.322042	0.413907	0.035117
	N236	N	0.962959	0.678291	0.411998
	N237	N	0.037712	0.678295	0.583652
	N238	N	0.963460	0.320715	0.583792
	N239	N	0.037532	0.320692	0.411872
	N240	N	0.962249	0.414996	0.675211
	N241	N	0.037922	0.584641	0.676360
	N242	N	0.962320	0.583916	0.320777
	N243	N	0.037539	0.414373	0.320182
	N244	N	0.413863	0.677575	0.959757
	N245	N	0.585343	0.678039	0.034385
	N246	N	0.584007	0.321978	0.959764
	N247	N	0.413269	0.320014	0.034527
	N248	N	0.679280	0.963042	0.411561
	N249	N	0.679513	0.037310	0.583315
	N250	N	0.322167	0.963047	0.581986
	N251	N	0.320892	0.036801	0.410456
	N252	N	0.915222	0.461933	0.175413
	N253	N	0.085109	0.537056	0.176034
	N254	N	0.084673	0.461844	0.820171
	N255	N	0.913517	0.536532	0.819073
	N256	N	0.177310	0.915174	0.459660
	N257	N	0.179185	0.085875	0.534580
	N258	N	0.823502	0.084605	0.460146
	N259	N	0.822475	0.914191	0.534829
	N260	N	0.462785	0.178331	0.910831
	N261	N	0.536970	0.178491	0.082921
	N262	N	0.462319	0.820871	0.082535
	N263	N	0.536791	0.819999	0.910507
	N264	N	0.462394	0.914609	0.174734
	N265	N	0.537821	0.084385	0.174309
	N266	N	0.462627	0.084622	0.819265
	N267	N	0.537517	0.914835	0.819117
	N268	N	0.915632	0.177520	0.460714
	N269	N	0.086326	0.177808	0.535388
	N270	N	0.086369	0.821120	0.460627
	N271	N	0.915054	0.821528	0.534837
	N272	N	0.177752	0.462076	0.912659
	N273	N	0.178776	0.536934	0.083657
	N274	N	0.820594	0.462613	0.084522
	N275	N	0.820661	0.536219	0.911820
	O276	O	0.022102	-0.044828	0.977487
	H277	H	0.021787	-0.050951	0.965645
	H278	H	0.021036	-0.043890	0.983397
	O279	O	0.481570	0.564045	0.514348
	H280	H	0.479328	0.567814	0.517848
	H281	H	0.480187	0.563352	0.511493
	O282	O	0.507093	0.591180	0.561139
	H283	H	0.509712	0.598040	0.569022
	H284	H	0.512828	0.591674	0.561352
	O285	O	0.550336	0.604209	0.558333
	H286	H	0.542233	0.603856	0.553895
	H287	H	0.557433	0.612829	0.556513
	O288	O	0.550416	0.598368	0.537430
	H289	H	0.533660	0.594174	0.529680
	H290	H	0.551349	0.599273	0.541372
	O291	O	0.008363	0.985784	1.006821
	H292	H	0.002548	0.984766	1.003332
	H293	H	0.015195	0.983841	1.013401
	O294	O	0.523207	0.590914	0.548348
	H295	H	0.529909	0.590037	0.550299
	H296	H	0.534777	0.592446	0.554815
	O297	O	1.010931	-0.016680	-0.018773
	H298	H	1.014192	-0.013388	-0.018227
	H299	H	1.011181	-0.017714	-0.015608
