data_Molecule from HDF5

_cell_length_a		16.301137
_cell_length_b		16.334512
_cell_length_c		16.384049
_cell_angle_alpha	90.075237
_cell_angle_beta	90.126291
_cell_angle_gamma	90.031554
_symmetry_space_group_name_H-M	'P 1'
_symmetry_Int_Tables_number		1

loop_
	_symmetry_equiv_pos_as_xyz
	x,y,z

loop_
	_atom_site_label
	_atom_site_type_symbol
	_atom_site_fract_x
	_atom_site_fract_y
	_atom_site_fract_z
	H0	H	0.389366	0.834718	0.722302
	H1	H	0.597604	0.155637	0.720468
	H2	H	0.602323	0.834979	0.280154
	H3	H	0.391379	0.153689	0.283658
	H4	H	0.711621	0.388894	0.840646
	H5	H	0.712543	0.595563	0.162037
	H6	H	0.274303	0.594220	0.841502
	H7	H	0.273729	0.389059	0.161413
	H8	H	0.833663	0.712111	0.396957
	H9	H	0.155282	0.710244	0.604778
	H10	H	0.832117	0.274367	0.602009
	H11	H	0.153852	0.273366	0.397956
	H12	H	0.834161	0.384342	0.721875
	H13	H	0.155516	0.593234	0.720015
	H14	H	0.832914	0.596403	0.282020
	H15	H	0.153898	0.388158	0.281993
	H16	H	0.390359	0.712226	0.841834
	H17	H	0.596543	0.711832	0.163257
	H18	H	0.595489	0.273308	0.841865
	H19	H	0.389201	0.272822	0.161078
	H20	H	0.713326	0.833278	0.398768
	H21	H	0.713104	0.155326	0.604209
	H22	H	0.275469	0.833586	0.605687
	H23	H	0.273553	0.152461	0.397310
	H24	H	0.888629	0.332729	0.219447
	H25	H	0.097908	0.652401	0.221577
	H26	H	0.099288	0.331414	0.781595
	H27	H	0.890501	0.651390	0.780789
	H28	H	0.214256	0.887472	0.342981
	H29	H	0.213744	0.098032	0.662688
	H30	H	0.775316	0.094626	0.341502
	H31	H	0.774049	0.889147	0.662017
	H32	H	0.333141	0.211982	0.900095
	H33	H	0.654607	0.213339	0.106017
	H34	H	0.333125	0.775526	0.106028
	H35	H	0.654532	0.774228	0.898657
	H36	H	0.334959	0.888196	0.223182
	H37	H	0.656001	0.097159	0.220717
	H38	H	0.333716	0.100695	0.781189
	H39	H	0.655178	0.891586	0.783989
	H40	H	0.889199	0.210779	0.341401
	H41	H	0.097691	0.213813	0.660908
	H42	H	0.097941	0.771411	0.342336
	H43	H	0.889092	0.771480	0.661744
	H44	H	0.213365	0.331870	0.898195
	H45	H	0.211482	0.652872	0.105434
	H46	H	0.775755	0.331863	0.100781
	H47	H	0.775067	0.652646	0.896386
	H48	H	0.408947	0.108658	0.593890
	H49	H	0.582275	0.881522	0.590068
	H50	H	0.593220	0.111393	0.411935
	H51	H	0.405189	0.879711	0.416799
	H52	H	0.590897	0.407251	0.117098
	H53	H	0.584024	0.584513	0.887472
	H54	H	0.397401	0.577615	0.116693
	H55	H	0.399425	0.397148	0.883842
	H56	H	0.109775	0.577732	0.404010
	H57	H	0.878443	0.585236	0.590746
	H58	H	0.109233	0.396533	0.586166
	H59	H	0.878312	0.400353	0.411960
	H60	H	0.104275	0.410198	0.587655
	H61	H	0.881134	0.578717	0.588326
	H62	H	0.110560	0.589015	0.413782
	H63	H	0.878782	0.405336	0.409474
	H64	H	0.410231	0.584804	0.113904
	H65	H	0.582136	0.583733	0.887583
	H66	H	0.578366	0.408862	0.111636
	H67	H	0.399489	0.411159	0.890527
	H68	H	0.579598	0.108863	0.405000
	H69	H	0.586500	0.879082	0.592768
	H70	H	0.403085	0.107799	0.587988
	H71	H	0.402023	0.877388	0.410016
	H72	H	0.908819	0.607703	0.094500
	H73	H	0.076953	0.380233	0.089207
	H74	H	0.081600	0.605742	0.911168
	H75	H	0.902023	0.379876	0.919542
	H76	H	0.080612	0.898844	0.616718
	H77	H	0.084008	0.084697	0.386495
	H78	H	0.914824	0.080623	0.612610
	H79	H	0.908842	0.906421	0.391890
	H80	H	0.608730	0.085014	0.911958
	H81	H	0.378686	0.088972	0.090109
	H82	H	0.609958	0.905146	0.093396
	H83	H	0.379328	0.909606	0.905220
	H84	H	0.609226	0.902603	0.091569
	H85	H	0.382938	0.078749	0.088822
	H86	H	0.608873	0.083421	0.912499
	H87	H	0.376280	0.897010	0.911906
	H88	H	0.903089	0.092822	0.619255
	H89	H	0.087348	0.081237	0.387752
	H90	H	0.088975	0.901622	0.617893
	H91	H	0.906099	0.894601	0.386067
	H92	H	0.082690	0.605799	0.911751
	H93	H	0.088798	0.377201	0.087507
	H94	H	0.904379	0.606521	0.086829
	H95	H	0.895339	0.372601	0.906083
	H96	H	0.401652	0.111000	0.595040
	H97	H	0.581457	0.879654	0.595790
	H98	H	0.580571	0.104720	0.420177
	H99	H	0.409309	0.879149	0.409912
	H100	H	0.581989	0.397137	0.117870
	H101	H	0.583067	0.585602	0.888084
	H102	H	0.398742	0.591993	0.119963
	H103	H	0.412142	0.402928	0.889858
	H104	H	0.104735	0.575791	0.417832
	H105	H	0.879039	0.579036	0.595131
	H106	H	0.110341	0.403251	0.598804
	H107	H	0.877153	0.401215	0.406794
	H108	H	0.900747	0.608936	0.093520
	H109	H	0.083193	0.374616	0.097844
	H110	H	0.082609	0.606522	0.910165
	H111	H	0.911508	0.378321	0.906715
	H112	H	0.082174	0.907417	0.614318
	H113	H	0.082770	0.081168	0.389302
	H114	H	0.897077	0.076112	0.616381
	H115	H	0.896515	0.904690	0.386619
	H116	H	0.609453	0.083853	0.910189
	H117	H	0.378490	0.080642	0.098592
	H118	H	0.608023	0.906124	0.090245
	H119	H	0.382870	0.908004	0.919412
	C120	C	0.372440	0.003254	0.624199
	C121	C	0.615537	0.986261	0.623579
	C122	C	0.616247	0.002526	0.380868
	C123	C	0.373882	0.984609	0.381051
	C124	C	0.614697	0.372226	0.009714
	C125	C	0.614840	0.615366	0.993633
	C126	C	0.370900	0.615375	0.010584
	C127	C	0.371947	0.372036	0.993302
	C128	C	0.002385	0.612682	0.380359
	C129	C	0.985788	0.612558	0.623341
	C130	C	0.001869	0.370976	0.622005
	C131	C	0.984337	0.370469	0.378646
	C132	C	0.872750	0.501631	0.121732
	C133	C	0.114323	0.483488	0.122755
	C134	C	0.114650	0.500190	0.880169
	C135	C	0.872037	0.482941	0.879051
	C136	C	0.115543	0.871018	0.510618
	C137	C	0.115912	0.114578	0.493424
	C138	C	0.873489	0.113854	0.510013
	C139	C	0.872054	0.870419	0.493761
	C140	C	0.502675	0.115493	0.880588
	C141	C	0.485753	0.114772	0.123909
	C142	C	0.502910	0.872712	0.123866
	C143	C	0.485357	0.872980	0.880811
	C144	C	0.370939	0.882353	0.682709
	C145	C	0.616651	0.107285	0.681359
	C146	C	0.619124	0.882361	0.320902
	C147	C	0.372196	0.105474	0.322608
	C148	C	0.672480	0.370651	0.888776
	C149	C	0.673669	0.615206	0.114006
	C150	C	0.313009	0.614583	0.889694
	C151	C	0.313156	0.370577	0.113658
	C152	C	0.881752	0.672430	0.378528
	C153	C	0.106942	0.671061	0.624172
	C154	C	0.880706	0.312781	0.621638
	C155	C	0.105425	0.312332	0.378851
	C156	C	0.881727	0.367582	0.681588
	C157	C	0.107015	0.612831	0.681530
	C158	C	0.881374	0.614731	0.321245
	C159	C	0.105533	0.369329	0.320806
	C160	C	0.370663	0.673185	0.889900
	C161	C	0.615655	0.672884	0.114653
	C162	C	0.614836	0.312828	0.889528
	C163	C	0.370507	0.312712	0.113536
	C164	C	0.674851	0.881521	0.379703
	C165	C	0.674371	0.107044	0.623590
	C166	C	0.314364	0.881885	0.624706
	C167	C	0.313662	0.104830	0.379204
	C168	C	0.870367	0.380774	0.180087
	C169	C	0.116264	0.604235	0.182143
	C170	C	0.117157	0.379449	0.821337
	C171	C	0.871380	0.603604	0.820143
	C172	C	0.174881	0.869252	0.390722
	C173	C	0.174642	0.116385	0.614144
	C174	C	0.814616	0.113872	0.389457
	C175	C	0.813170	0.869701	0.613983
	C176	C	0.381435	0.173882	0.880050
	C177	C	0.606708	0.173624	0.124534
	C178	C	0.381992	0.814027	0.125161
	C179	C	0.606307	0.813706	0.879955
	C180	C	0.383006	0.870138	0.183821
	C181	C	0.607151	0.116244	0.182267
	C182	C	0.381967	0.117844	0.821233
	C183	C	0.606410	0.871822	0.822455
	C184	C	0.871356	0.171842	0.389410
	C185	C	0.116823	0.174301	0.613413
	C186	C	0.116654	0.811518	0.390289
	C187	C	0.870353	0.810877	0.613768
	C188	C	0.173903	0.379671	0.879343
	C189	C	0.172492	0.604655	0.123840
	C190	C	0.814346	0.380375	0.120922
	C191	C	0.813937	0.604275	0.877515
	C192	C	0.397375	0.087032	0.599485
	C193	C	0.590690	0.901760	0.599642
	C194	C	0.591523	0.086467	0.405272
	C195	C	0.398569	0.900720	0.405347
	C196	C	0.590777	0.397256	0.093648
	C197	C	0.590267	0.591443	0.909379
	C198	C	0.395244	0.591589	0.095053
	C199	C	0.396629	0.396806	0.909776
	C200	C	0.086471	0.588017	0.404934
	C201	C	0.901424	0.588009	0.598502
	C202	C	0.086058	0.396160	0.597728
	C203	C	0.899905	0.395064	0.402555
	C204	C	0.897422	0.585766	0.098318
	C205	C	0.089900	0.399370	0.098559
	C206	C	0.089628	0.584163	0.904195
	C207	C	0.895961	0.398746	0.903558
	C208	C	0.090996	0.895655	0.594410
	C209	C	0.091632	0.089595	0.409724
	C210	C	0.897896	0.090103	0.594131
	C211	C	0.896859	0.894697	0.409877
	C212	C	0.587203	0.091220	0.904605
	C213	C	0.401717	0.089830	0.099632
	C214	C	0.587183	0.897528	0.099007
	C215	C	0.401424	0.897681	0.905241
	Zn216	Zn	0.493960	-0.005308	0.751999
	Zn217	Zn	0.495157	-0.006378	0.252615
	Zn218	Zn	0.744019	0.493425	0.000327
	Zn219	Zn	0.242689	0.492277	0.002007
	Zn220	Zn	-0.006089	0.741216	0.501723
	Zn221	Zn	-0.006708	0.242916	0.500698
	Zn222	Zn	-0.006166	0.490768	0.751780
	Zn223	Zn	-0.006467	0.492454	0.251026
	Zn224	Zn	0.493384	0.744319	0.002423
	Zn225	Zn	0.493574	0.243456	0.002377
	Zn226	Zn	0.744189	-0.006285	0.502177
	Zn227	Zn	0.245148	-0.006757	0.502721
	N228	N	0.406242	0.958865	0.682588
	N229	N	0.580867	0.031124	0.681317
	N230	N	0.583469	0.958635	0.321521
	N231	N	0.408903	0.029630	0.323475
	N232	N	0.672473	0.406955	0.964522
	N233	N	0.673490	0.580380	0.037498
	N234	N	0.312847	0.580038	0.966109
	N235	N	0.313960	0.406584	0.038038
	N236	N	0.957801	0.671446	0.414668
	N237	N	0.030345	0.671290	0.589047
	N238	N	0.956525	0.314819	0.585478
	N239	N	0.028956	0.312991	0.413959
	N240	N	0.958117	0.403181	0.681957
	N241	N	0.030396	0.577378	0.681154
	N242	N	0.957488	0.578373	0.322197
	N243	N	0.029076	0.404800	0.320473
	N244	N	0.405838	0.673927	0.966297
	N245	N	0.580171	0.673412	0.038446
	N246	N	0.579936	0.313592	0.965807
	N247	N	0.406542	0.313452	0.037798
	N248	N	0.673206	0.957132	0.416408
	N249	N	0.673737	0.030558	0.588343
	N250	N	0.315037	0.958115	0.589332
	N251	N	0.314493	0.028749	0.414789
	N252	N	0.905904	0.457162	0.180757
	N253	N	0.081004	0.527866	0.181869
	N254	N	0.080968	0.455322	0.821726
	N255	N	0.906629	0.527095	0.820824
	N256	N	0.174530	0.905230	0.466803
	N257	N	0.174272	0.080013	0.538522
	N258	N	0.815825	0.078403	0.465264
	N259	N	0.813716	0.905628	0.538121
	N260	N	0.457458	0.172564	0.916502
	N261	N	0.530223	0.172889	0.088815
	N262	N	0.457642	0.815565	0.088534
	N263	N	0.529910	0.814018	0.915392
	N264	N	0.459444	0.905941	0.183105
	N265	N	0.531028	0.080137	0.181875
	N266	N	0.458278	0.082223	0.821552
	N267	N	0.530300	0.907999	0.822879
	N268	N	0.907347	0.171939	0.465408
	N269	N	0.081032	0.173423	0.537334
	N270	N	0.080473	0.812426	0.465758
	N271	N	0.906045	0.811236	0.537855
	N272	N	0.172351	0.455618	0.915454
	N273	N	0.171426	0.528653	0.087535
	N274	N	0.815557	0.456561	0.085530
	N275	N	0.813901	0.528290	0.913042
	O276	O	0.307123	0.667045	0.349766
	H277	H	0.313426	0.652852	0.344445
	H278	H	0.319226	0.646541	0.344294
	O279	O	0.431096	0.299588	0.532298
	H280	H	0.427465	0.278733	0.550563
	H281	H	0.446744	0.298758	0.528537
	O282	O	0.691520	0.482872	0.605468
	H283	H	0.705825	0.483336	0.621212
	H284	H	0.688103	0.511520	0.608589
	O285	O	1.133198	-0.201650	-0.058221
	H286	H	1.143590	-0.205556	-0.062058
	H287	H	1.116366	-0.208424	-0.081712
	O288	O	-0.521709	0.289908	0.466254
	H289	H	-0.499641	0.279531	0.463163
	H290	H	-0.520729	0.291135	0.474035
	O291	O	0.360305	0.404887	0.534472
	H292	H	0.370241	0.417145	0.559958
	H293	H	0.352087	0.404481	0.541939
	O294	O	0.665236	0.688501	0.610264
	H295	H	0.652588	0.690534	0.616670
	H296	H	0.677862	0.692024	0.607416
	O297	O	1.186108	0.868213	1.035241
	H298	H	1.192683	0.852484	1.019956
	H299	H	1.196971	0.869064	1.022415
	O300	O	-0.104978	0.192918	0.001201
	H301	H	-0.106244	0.189099	-0.022243
	H302	H	-0.103870	0.200028	-0.015319
	O303	O	0.594994	0.466361	0.437439
	H304	H	0.592893	0.478952	0.440820
	H305	H	0.587340	0.480278	0.431361
	O306	O	0.915477	0.083095	0.132774
	H307	H	0.913007	0.075869	0.118962
	H308	H	0.934155	0.099620	0.136011
	O309	O	0.451336	0.651797	0.310964
	H310	H	0.461210	0.659061	0.298834
	H311	H	0.464944	0.650523	0.319464
	O312	O	0.861748	0.887290	-0.139471
	H313	H	0.867903	0.906733	-0.141654
	H314	H	0.844374	0.877853	-0.117233
	O315	O	0.312063	0.478452	0.455496
	H316	H	0.303689	0.463496	0.461787
	H317	H	0.308346	0.458561	0.447486
	O318	O	0.901887	0.893127	-0.186208
	H319	H	0.886716	0.907513	-0.176176
	H320	H	0.900453	0.880945	-0.188254
	O321	O	1.586529	-0.419880	1.485007
	H322	H	1.587660	-0.412705	1.499416
	H323	H	1.573957	-0.437335	1.482347
	O324	O	-0.047495	0.005534	1.050422
	H325	H	-0.039164	0.005342	1.060643
	H326	H	-0.046370	0.011661	1.044242
	O327	O	0.424314	0.412508	0.517108
	H328	H	0.419596	0.397407	0.513602
	H329	H	0.430531	0.409958	0.512944
	O330	O	0.543041	0.429697	0.479527
	H331	H	0.540753	0.422752	0.480473
	H332	H	0.535293	0.423373	0.482605
	O333	O	0.840670	1.250866	0.756072
	H334	H	0.844855	1.263685	0.748271
	H335	H	0.838870	1.245206	0.748672
	O336	O	1.164866	0.051254	1.138774
	H337	H	1.148815	0.027410	1.152770
	H338	H	1.189500	0.052481	1.162234
	O339	O	0.950340	-0.147347	1.040843
	H340	H	0.956399	-0.151863	1.051806
	H341	H	0.948437	-0.145182	1.048520
	O342	O	-0.186574	0.836331	1.185706
	H343	H	-0.171879	0.852522	1.190990
	H344	H	-0.186413	0.849466	1.191214
	O345	O	0.026270	1.158001	0.999737
	H346	H	0.029372	1.137588	0.992961
	H347	H	0.026996	1.161012	1.001832
	O348	O	1.174847	0.974363	-0.085613
	H349	H	1.172158	0.963070	-0.072795
	H350	H	1.187463	0.969506	-0.101891
	O351	O	0.132336	-0.092870	0.196681
	H352	H	0.122097	-0.095173	0.195398
	H353	H	0.141745	-0.096462	0.190963
	O354	O	0.801159	0.945514	0.091417
	H355	H	0.786038	0.927232	0.096771
	H356	H	0.805943	0.954199	0.089278
	O357	O	0.100590	1.182482	0.186395
	H358	H	0.112783	1.171241	0.186394
	H359	H	0.101430	1.188333	0.203063
	O360	O	0.341669	0.695468	0.508717
	H361	H	0.336427	0.700420	0.481823
	H362	H	0.327655	0.691372	0.495419
	O363	O	0.590338	0.468238	0.583185
	H364	H	0.592692	0.474823	0.583395
	H365	H	0.605990	0.483014	0.577840
	O366	O	0.480215	0.577075	0.680834
	H367	H	0.493292	0.563445	0.688964
	H368	H	0.484692	0.590939	0.670270
	O369	O	0.606929	0.374572	0.311291
	H370	H	0.610100	0.380808	0.303567
	H371	H	0.595592	0.386957	0.304164
	O372	O	-0.010355	1.145454	-0.141281
	H373	H	-0.012911	1.131077	-0.146130
	H374	H	-0.008932	1.149002	-0.119056
	O375	O	0.328882	0.432236	0.626346
	H376	H	0.333978	0.430555	0.635740
	H377	H	0.341530	0.439973	0.630141
	O378	O	0.456896	0.413381	0.624442
	H379	H	0.460492	0.406659	0.629526
	H380	H	0.465503	0.410766	0.611812
	O381	O	0.563926	0.686866	0.693554
	H382	H	0.549392	0.671268	0.691144
	H383	H	0.569048	0.690476	0.699206
	O384	O	-0.184206	1.095273	0.898163
	H385	H	-0.179837	1.103986	0.901998
	H386	H	-0.183770	1.093657	0.904054
	O387	O	1.560064	0.378859	0.364213
	H388	H	1.564318	0.369251	0.355319
	H389	H	1.557434	0.394932	0.358029
	O390	O	0.639736	0.533091	0.445918
	H391	H	0.647324	0.516566	0.457884
	H392	H	0.648521	0.531528	0.447462
	O393	O	1.132625	0.174459	1.059611
	H394	H	1.144990	0.180895	1.039446
	H395	H	1.138690	0.152818	1.054142
	O396	O	0.013008	0.956765	0.847869
	H397	H	0.025046	0.945920	0.846742
	H398	H	0.011821	0.950094	0.857855
	O399	O	0.459754	0.573572	0.417676
	H400	H	0.468152	0.568091	0.432509
	H401	H	0.447472	0.575073	0.419197
	O402	O	1.024139	0.152328	1.076880
	H403	H	1.015865	0.138827	1.074853
	H404	H	1.021349	0.163168	1.072347
	O405	O	-0.092784	-0.193815	-0.040598
	H406	H	-0.094509	-0.202676	-0.035975
	H407	H	-0.093149	-0.198864	-0.021556
	O408	O	0.914202	1.058450	1.177726
	H409	H	0.937476	1.084451	1.174450
	H410	H	0.896933	1.063410	1.183975
	O411	O	1.033163	0.795086	-0.156530
	H412	H	1.035010	0.773433	-0.182486
	H413	H	0.994650	0.789340	-0.159003
	O414	O	-0.042062	0.044287	0.920774
	H415	H	-0.023694	0.035563	0.917876
	H416	H	-0.044969	0.046727	0.927120
	O417	O	0.677774	0.566401	0.415080
	H418	H	0.690414	0.553886	0.412769
	H419	H	0.681097	0.581192	0.416546
	O420	O	0.033428	0.820465	0.158714
	H421	H	0.041421	0.799569	0.147593
	H422	H	0.034629	0.831296	0.162235
	O423	O	0.466941	0.646278	-0.409871
	H424	H	0.460526	0.647030	-0.427750
	H425	H	0.450476	0.650544	-0.419151
	O426	O	0.189545	-0.037586	0.799169
	H427	H	0.197321	-0.055394	0.802051
	H428	H	0.203549	-0.026935	0.782449
	O429	O	0.397296	0.376675	0.497564
	H430	H	0.405603	0.377313	0.510530
	H431	H	0.398696	0.366810	0.501181
