data_Molecule from HDF5

_cell_length_a		16.278692
_cell_length_b		16.142134
_cell_length_c		16.205704
_cell_angle_alpha	90.240256
_cell_angle_beta	89.398943
_cell_angle_gamma	89.617381
_symmetry_space_group_name_H-M	'P 1'
_symmetry_Int_Tables_number		1

loop_
	_symmetry_equiv_pos_as_xyz
	x,y,z

loop_
	_atom_site_label
	_atom_site_type_symbol
	_atom_site_fract_x
	_atom_site_fract_y
	_atom_site_fract_z
	H0	H	0.406867	0.839931	0.709463
	H1	H	0.603026	0.168633	0.709480
	H2	H	0.606446	0.839536	0.280863
	H3	H	0.409316	0.170576	0.285915
	H4	H	0.725401	0.403765	0.833956
	H5	H	0.715947	0.603236	0.162798
	H6	H	0.290485	0.605565	0.833263
	H7	H	0.289792	0.405155	0.160271
	H8	H	0.841061	0.720553	0.403115
	H9	H	0.169513	0.719237	0.595465
	H10	H	0.840937	0.292875	0.597771
	H11	H	0.168188	0.289404	0.395857
	H12	H	0.842450	0.408288	0.715450
	H13	H	0.169701	0.603995	0.710536
	H14	H	0.841330	0.606281	0.285947
	H15	H	0.168106	0.403989	0.280847
	H16	H	0.408341	0.717806	0.831401
	H17	H	0.601076	0.719811	0.161058
	H18	H	0.607878	0.290751	0.831552
	H19	H	0.408557	0.293953	0.161494
	H20	H	0.724095	0.839681	0.392572
	H21	H	0.715975	0.169701	0.591991
	H22	H	0.292007	0.840129	0.595680
	H23	H	0.289099	0.167795	0.394520
	H24	H	0.906901	0.339277	0.212100
	H25	H	0.101658	0.669996	0.211611
	H26	H	0.107571	0.340675	0.781974
	H27	H	0.908729	0.671411	0.789312
	H28	H	0.222553	0.901733	0.332445
	H29	H	0.218920	0.104805	0.659951
	H30	H	0.792673	0.104048	0.332061
	H31	H	0.787903	0.904705	0.658992
	H32	H	0.342545	0.222386	0.899197
	H33	H	0.671000	0.217182	0.091894
	H34	H	0.341825	0.792516	0.094313
	H35	H	0.669468	0.788352	0.893399
	H36	H	0.342492	0.906128	0.212376
	H37	H	0.670639	0.102424	0.208742
	H38	H	0.341336	0.106643	0.782298
	H39	H	0.669063	0.905011	0.778480
	H40	H	0.907540	0.219726	0.332904
	H41	H	0.100962	0.218981	0.661226
	H42	H	0.105903	0.788192	0.333618
	H43	H	0.908209	0.797144	0.663283
	H44	H	0.222199	0.339653	0.897118
	H45	H	0.218881	0.669668	0.097635
	H46	H	0.791603	0.340136	0.097681
	H47	H	0.792464	0.669805	0.902473
	H48	H	0.412608	0.119912	0.580358
	H49	H	0.604298	0.883348	0.590560
	H50	H	0.605144	0.122483	0.408053
	H51	H	0.421346	0.888516	0.401486
	H52	H	0.596251	0.416089	0.113477
	H53	H	0.606988	0.595692	0.878153
	H54	H	0.406209	0.595164	0.114083
	H55	H	0.409810	0.419486	0.879408
	H56	H	0.120695	0.592311	0.402107
	H57	H	0.886898	0.601354	0.600204
	H58	H	0.119512	0.414835	0.583049
	H59	H	0.883885	0.403541	0.402348
	H60	H	0.122512	0.416228	0.595503
	H61	H	0.888409	0.605605	0.592996
	H62	H	0.122979	0.598899	0.402612
	H63	H	0.891239	0.414206	0.416091
	H64	H	0.416902	0.593534	0.110954
	H65	H	0.599227	0.591122	0.881215
	H66	H	0.596846	0.405282	0.115524
	H67	H	0.423169	0.414733	0.882468
	H68	H	0.603149	0.125449	0.395400
	H69	H	0.592566	0.887493	0.588928
	H70	H	0.404105	0.125205	0.591684
	H71	H	0.411749	0.886896	0.410413
	H72	H	0.913579	0.620730	0.089108
	H73	H	0.101008	0.384227	0.098578
	H74	H	0.105759	0.624633	0.907474
	H75	H	0.921949	0.388416	0.904987
	H76	H	0.104812	0.914608	0.616132
	H77	H	0.096888	0.104289	0.377130
	H78	H	0.909319	0.099339	0.614104
	H79	H	0.915719	0.915329	0.380913
	H80	H	0.622684	0.095796	0.896657
	H81	H	0.389017	0.104819	0.090351
	H82	H	0.625693	0.909551	0.094806
	H83	H	0.393700	0.924115	0.906543
	H84	H	0.622788	0.904726	0.081451
	H85	H	0.391097	0.095033	0.088069
	H86	H	0.623234	0.100268	0.901853
	H87	H	0.383827	0.908906	0.889862
	H88	H	0.907909	0.098561	0.614097
	H89	H	0.106776	0.093804	0.377270
	H90	H	0.096974	0.917358	0.612369
	H91	H	0.918778	0.909339	0.379100
	H92	H	0.099254	0.625322	0.898609
	H93	H	0.090265	0.389828	0.085845
	H94	H	0.905836	0.624076	0.092379
	H95	H	0.913721	0.387851	0.911995
	H96	H	0.418064	0.122469	0.592801
	H97	H	0.600186	0.887377	0.579304
	H98	H	0.592932	0.120362	0.402885
	H99	H	0.409941	0.882954	0.398062
	H100	H	0.606576	0.411466	0.116916
	H101	H	0.598734	0.600445	0.878700
	H102	H	0.413506	0.603650	0.114854
	H103	H	0.412990	0.406361	0.876316
	H104	H	0.121322	0.596111	0.408467
	H105	H	0.889916	0.597406	0.593286
	H106	H	0.123867	0.404887	0.589593
	H107	H	0.887947	0.422118	0.399158
	H108	H	0.913617	0.624040	0.097832
	H109	H	0.107447	0.386489	0.082437
	H110	H	0.094878	0.620423	0.908093
	H111	H	0.912825	0.385564	0.901469
	H112	H	0.097774	0.908737	0.615652
	H113	H	0.093650	0.091490	0.382108
	H114	H	0.909401	0.097784	0.614099
	H115	H	0.911965	0.910423	0.377318
	H116	H	0.620663	0.093800	0.902899
	H117	H	0.388782	0.097828	0.097295
	H118	H	0.620112	0.919043	0.084550
	H119	H	0.388602	0.901385	0.912309
	C120	C	0.384000	0.013306	0.617035
	C121	C	0.626385	0.995116	0.615583
	C122	C	0.629429	0.013465	0.372977
	C123	C	0.385289	0.995385	0.374597
	C124	C	0.629815	0.382288	0.006199
	C125	C	0.627784	0.625569	0.988197
	C126	C	0.384238	0.626291	0.004863
	C127	C	0.385751	0.384506	0.987972
	C128	C	0.013514	0.626444	0.377180
	C129	C	0.996907	0.628894	0.621651
	C130	C	0.013647	0.383887	0.619310
	C131	C	0.995811	0.383122	0.375465
	C132	C	0.883008	0.513691	0.121195
	C133	C	0.126838	0.496021	0.118316
	C134	C	0.129249	0.514122	0.875328
	C135	C	0.886815	0.496777	0.878256
	C136	C	0.128789	0.882884	0.506017
	C137	C	0.126793	0.125790	0.487668
	C138	C	0.882398	0.127191	0.505386
	C139	C	0.885507	0.884218	0.488062
	C140	C	0.513905	0.126621	0.873457
	C141	C	0.497848	0.126905	0.118761
	C142	C	0.514764	0.882893	0.117239
	C143	C	0.496765	0.882160	0.872766
	C144	C	0.386575	0.889334	0.671958
	C145	C	0.623115	0.119521	0.670971
	C146	C	0.627282	0.889089	0.317838
	C147	C	0.387799	0.120231	0.321218
	C148	C	0.686896	0.383757	0.882810
	C149	C	0.679772	0.623796	0.112922
	C150	C	0.328882	0.625020	0.881774
	C151	C	0.328896	0.386199	0.111632
	C152	C	0.890116	0.682626	0.381965
	C153	C	0.120576	0.682040	0.616651
	C154	C	0.890314	0.329906	0.618241
	C155	C	0.119190	0.327030	0.376152
	C156	C	0.890929	0.387138	0.676803
	C157	C	0.120524	0.624803	0.674105
	C158	C	0.890363	0.625930	0.323339
	C159	C	0.119044	0.383950	0.318814
	C160	C	0.387421	0.680953	0.880874
	C161	C	0.622560	0.681541	0.112190
	C162	C	0.628438	0.327353	0.881623
	C163	C	0.387620	0.330601	0.112133
	C164	C	0.685557	0.889215	0.373749
	C165	C	0.679313	0.119983	0.612852
	C166	C	0.329227	0.889469	0.615382
	C167	C	0.328061	0.119041	0.375368
	C168	C	0.886355	0.388892	0.175116
	C169	C	0.122696	0.620697	0.173885
	C170	C	0.127853	0.389954	0.819546
	C171	C	0.888848	0.621719	0.825651
	C172	C	0.184500	0.882827	0.381897
	C173	C	0.180988	0.124621	0.610953
	C174	C	0.829613	0.124477	0.381346
	C175	C	0.827923	0.886321	0.611160
	C176	C	0.391235	0.183749	0.877819
	C177	C	0.621595	0.180213	0.113590
	C178	C	0.391058	0.829493	0.115237
	C179	C	0.620388	0.826423	0.873683
	C180	C	0.391528	0.885724	0.174240
	C181	C	0.621398	0.123302	0.171855
	C182	C	0.390739	0.125997	0.819761
	C183	C	0.620035	0.883932	0.816041
	C184	C	0.886687	0.182180	0.381866
	C185	C	0.122103	0.180893	0.611818
	C186	C	0.126740	0.826013	0.382554
	C187	C	0.887611	0.832438	0.613135
	C188	C	0.185052	0.389594	0.876890
	C189	C	0.181311	0.620345	0.117303
	C190	C	0.828991	0.389364	0.118283
	C191	C	0.830545	0.620784	0.881696
	C192	C	0.405400	0.100060	0.594884
	C193	C	0.605191	0.908505	0.592880
	C194	C	0.607000	0.100306	0.395509
	C195	C	0.407865	0.908664	0.396697
	C196	C	0.606669	0.404305	0.092688
	C197	C	0.607516	0.602731	0.901736
	C198	C	0.405975	0.604146	0.091007
	C199	C	0.408684	0.406874	0.901821
	C200	C	0.099385	0.602876	0.398263
	C201	C	0.910571	0.607754	0.601397
	C202	C	0.099713	0.405659	0.596131
	C203	C	0.910025	0.406385	0.399019
	C204	C	0.904568	0.600467	0.099483
	C205	C	0.105767	0.409373	0.095622
	C206	C	0.106695	0.600871	0.898108
	C207	C	0.909672	0.409786	0.899863
	C208	C	0.106369	0.906427	0.592364
	C209	C	0.105437	0.103255	0.401166
	C210	C	0.902858	0.105123	0.591962
	C211	C	0.908846	0.905390	0.401423
	C212	C	0.599867	0.103360	0.894339
	C213	C	0.411888	0.105657	0.097965
	C214	C	0.600807	0.904648	0.093901
	C215	C	0.410904	0.904725	0.896173
	Zn216	Zn	0.505234	0.004440	0.744395
	Zn217	Zn	0.506938	0.004412	0.247000
	Zn218	Zn	0.757065	0.504455	-0.001590
	Zn219	Zn	0.256266	0.504909	-0.003007
	Zn220	Zn	0.005797	0.756262	0.498978
	Zn221	Zn	0.004774	0.254924	0.496747
	Zn222	Zn	0.006362	0.506009	0.748935
	Zn223	Zn	0.004898	0.504739	0.247474
	Zn224	Zn	0.505733	0.753955	-0.004498
	Zn225	Zn	0.506484	0.255565	-0.003458
	Zn226	Zn	0.756010	0.003844	0.495439
	Zn227	Zn	0.256653	0.004395	0.495724
	N228	N	0.419885	0.967350	0.673134
	N229	N	0.590916	0.040845	0.672913
	N230	N	0.593011	0.967136	0.317145
	N231	N	0.422783	0.042241	0.320698
	N232	N	0.687792	0.417077	0.961185
	N233	N	0.683275	0.589647	0.034885
	N234	N	0.326762	0.591665	0.959764
	N235	N	0.327516	0.418913	0.033444
	N236	N	0.967875	0.683136	0.414702
	N237	N	0.042794	0.684595	0.584614
	N238	N	0.967870	0.327547	0.583464
	N239	N	0.041611	0.326347	0.410729
	N240	N	0.968697	0.419858	0.677577
	N241	N	0.042572	0.592516	0.677498
	N242	N	0.967979	0.591675	0.320174
	N243	N	0.041319	0.418356	0.318324
	N244	N	0.421307	0.681647	0.958425
	N245	N	0.591093	0.682948	0.033648
	N246	N	0.593608	0.326098	0.959444
	N247	N	0.422455	0.329634	0.034368
	N248	N	0.686997	0.967636	0.407428
	N249	N	0.681403	0.041693	0.579160
	N250	N	0.327572	0.967693	0.581634
	N251	N	0.326401	0.040447	0.407924
	N252	N	0.919463	0.467169	0.176838
	N253	N	0.089693	0.542406	0.174755
	N254	N	0.093973	0.468314	0.818351
	N255	N	0.922911	0.543364	0.823441
	N256	N	0.186000	0.917479	0.459702
	N257	N	0.183935	0.090910	0.532699
	N258	N	0.826675	0.091049	0.459294
	N259	N	0.826519	0.917730	0.532250
	N260	N	0.468764	0.184201	0.910625
	N261	N	0.543804	0.182841	0.081324
	N262	N	0.468572	0.827461	0.080638
	N263	N	0.542685	0.825129	0.908221
	N264	N	0.469649	0.918209	0.175658
	N265	N	0.543492	0.090760	0.175268
	N266	N	0.468240	0.091245	0.816778
	N267	N	0.542272	0.917757	0.815192
	N268	N	0.918944	0.183976	0.460041
	N269	N	0.089225	0.181857	0.533963
	N270	N	0.092710	0.825906	0.460519
	N271	N	0.923064	0.831360	0.535647
	N272	N	0.186197	0.467969	0.910693
	N273	N	0.184142	0.541930	0.083649
	N274	N	0.826469	0.467871	0.085867
	N275	N	0.829291	0.541969	0.913768
	O276	O	0.000717	0.036483	-0.014500
	H277	H	-0.000732	0.042180	-0.020865
	H278	H	0.003495	0.036248	-0.013016
	O279	O	0.558206	0.516303	0.471530
	H280	H	0.563123	0.524781	0.472670
	H281	H	0.556017	0.506664	0.465387
	O282	O	0.453429	0.451821	0.551008
	H283	H	0.455978	0.455772	0.545857
	H284	H	0.442555	0.445082	0.559413
	O285	O	1.029845	0.031007	1.032760
	H286	H	1.032197	0.030238	1.037139
	H287	H	1.030089	0.028487	1.036362
	O288	O	0.990433	-0.007972	0.057176
	H289	H	0.989752	-0.002266	0.057336
	H290	H	0.996392	-0.011640	0.052970
	O291	O	0.517909	0.591539	0.383224
	H292	H	0.510698	0.593678	0.384689
	H293	H	0.510082	0.599831	0.380444
	O294	O	0.992046	0.024315	0.986517
	H295	H	0.984911	0.028477	0.989747
	H296	H	1.004609	0.022405	0.996571
	O297	O	-0.039470	0.098133	-0.039245
	H298	H	-0.031788	0.094881	-0.033952
	H299	H	-0.039362	0.098454	-0.036767
	O300	O	0.548038	0.384149	0.457129
	H301	H	0.550741	0.375336	0.453817
	H302	H	0.527979	0.386638	0.459178
	O303	O	0.456285	0.537670	0.504475
	H304	H	0.449531	0.527924	0.505116
	H305	H	0.471015	0.540126	0.518951
	O306	O	1.017665	0.036283	0.068117
	H307	H	1.026720	0.041761	0.059782
	H308	H	1.014175	0.032955	0.075790
	O309	O	0.039347	-0.027272	0.969494
	H310	H	0.030638	-0.028334	0.964891
	H311	H	0.035511	-0.018163	0.964893
	O312	O	1.025230	1.046462	1.025781
	H313	H	1.023656	1.041218	1.023227
	H314	H	1.027157	1.056421	1.020082
	O315	O	0.472236	0.466861	0.517362
	H316	H	0.472044	0.462809	0.519317
	H317	H	0.470813	0.464122	0.508863
	O318	O	0.365482	0.552939	0.493130
	H319	H	0.365903	0.551015	0.486940
	H320	H	0.358056	0.551402	0.507829
	O321	O	0.108681	0.955925	0.949399
	H322	H	0.119223	0.944972	0.946668
	H323	H	0.099246	0.946894	0.946153
	O324	O	0.612272	0.487142	0.534724
	H325	H	0.610671	0.487668	0.536904
	H326	H	0.603167	0.486662	0.533245
	O327	O	0.451010	0.537839	0.599213
	H328	H	0.449005	0.529351	0.602402
	H329	H	0.457361	0.539662	0.608152
	O330	O	0.434504	0.566228	0.366004
	H331	H	0.427796	0.575239	0.359884
	H332	H	0.430858	0.571832	0.374840
	O333	O	0.519230	0.472044	0.485227
	H334	H	0.524441	0.466893	0.477217
	H335	H	0.527809	0.476479	0.484793
	O336	O	0.528635	0.473498	0.513994
	H337	H	0.536839	0.477429	0.510497
	H338	H	0.529615	0.465733	0.509021
	O339	O	1.027383	1.027285	0.012938
	H340	H	1.020458	1.029335	0.015927
	H341	H	1.032610	1.029695	0.006047
	O342	O	0.444664	0.466789	0.503220
	H343	H	0.446608	0.466051	0.504226
	H344	H	0.446053	0.475016	0.489304
	O345	O	0.466698	0.476181	0.600101
	H346	H	0.470519	0.478479	0.589941
	H347	H	0.476879	0.464816	0.607204
	O348	O	-0.096634	0.008858	-0.038424
	H349	H	-0.103714	0.002984	-0.034485
	H350	H	-0.100737	0.010943	-0.031256
	O351	O	0.006863	0.947322	1.022762
	H352	H	-0.001182	0.947950	1.014796
	H353	H	0.005823	0.943974	1.017563
	O354	O	0.516703	0.476957	0.469239
	H355	H	0.509229	0.478878	0.458542
	H356	H	0.523953	0.483943	0.456962
	O357	O	-0.003009	0.944223	0.954263
	H358	H	-0.006087	0.942422	0.959424
	H359	H	0.004351	0.943715	0.953612
