data_Molecule from HDF5

_cell_length_a		16.345598
_cell_length_b		16.225057
_cell_length_c		16.413718
_cell_angle_alpha	90.097145
_cell_angle_beta	90.265739
_cell_angle_gamma	90.060381
_symmetry_space_group_name_H-M	'P 1'
_symmetry_Int_Tables_number		1

loop_
	_symmetry_equiv_pos_as_xyz
	x,y,z

loop_
	_atom_site_label
	_atom_site_type_symbol
	_atom_site_fract_x
	_atom_site_fract_y
	_atom_site_fract_z
	H0	H	0.408895	0.823018	0.714679
	H1	H	0.614451	0.147107	0.720097
	H2	H	0.613087	0.824627	0.282370
	H3	H	0.408099	0.148091	0.282551
	H4	H	0.728848	0.381260	0.841294
	H5	H	0.729587	0.591446	0.160451
	H6	H	0.288012	0.587942	0.840333
	H7	H	0.290368	0.382120	0.160735
	H8	H	0.847332	0.703350	0.401629
	H9	H	0.171749	0.703385	0.603194
	H10	H	0.848023	0.268003	0.603838
	H11	H	0.170317	0.270027	0.402768
	H12	H	0.847151	0.384792	0.718357
	H13	H	0.170005	0.588408	0.721144
	H14	H	0.850121	0.592808	0.280491
	H15	H	0.168943	0.380944	0.283229
	H16	H	0.408258	0.701470	0.838271
	H17	H	0.609581	0.703259	0.161651
	H18	H	0.608894	0.268947	0.838737
	H19	H	0.407186	0.267595	0.159959
	H20	H	0.726539	0.824121	0.400134
	H21	H	0.726725	0.148412	0.603276
	H22	H	0.293592	0.823839	0.598652
	H23	H	0.291905	0.148203	0.396319
	H24	H	0.901810	0.327163	0.224472
	H25	H	0.115994	0.647156	0.223922
	H26	H	0.111347	0.325648	0.782594
	H27	H	0.902103	0.647310	0.781591
	H28	H	0.228365	0.881094	0.340716
	H29	H	0.234480	0.092440	0.659141
	H30	H	0.786356	0.093823	0.343590
	H31	H	0.788897	0.881414	0.660661
	H32	H	0.348080	0.203183	0.894912
	H33	H	0.669255	0.206977	0.102258
	H34	H	0.348169	0.768864	0.100195
	H35	H	0.670953	0.767241	0.899051
	H36	H	0.350070	0.881106	0.219577
	H37	H	0.668238	0.094515	0.222461
	H38	H	0.349893	0.088534	0.778450
	H39	H	0.670128	0.880131	0.780546
	H40	H	0.904049	0.208957	0.343654
	H41	H	0.114242	0.205411	0.662486
	H42	H	0.112118	0.765900	0.341784
	H43	H	0.908423	0.769807	0.662915
	H44	H	0.224213	0.324048	0.899414
	H45	H	0.230092	0.647125	0.107008
	H46	H	0.788037	0.325943	0.106326
	H47	H	0.788644	0.647784	0.897694
	H48	H	0.421889	0.100163	0.585692
	H49	H	0.593205	0.871726	0.592636
	H50	H	0.594834	0.102393	0.405368
	H51	H	0.417136	0.869928	0.410328
	H52	H	0.594247	0.401020	0.110951
	H53	H	0.602587	0.578986	0.883658
	H54	H	0.414700	0.568537	0.113402
	H55	H	0.418625	0.397690	0.886501
	H56	H	0.123142	0.577815	0.416408
	H57	H	0.892888	0.577045	0.596863
	H58	H	0.125173	0.395593	0.598131
	H59	H	0.895486	0.393811	0.418410
	H60	H	0.123303	0.394773	0.591261
	H61	H	0.893109	0.582163	0.592796
	H62	H	0.122559	0.572962	0.412578
	H63	H	0.897366	0.406426	0.414783
	H64	H	0.426325	0.579165	0.112974
	H65	H	0.601152	0.570733	0.887663
	H66	H	0.596841	0.391078	0.115225
	H67	H	0.414674	0.391119	0.883978
	H68	H	0.596027	0.099413	0.416044
	H69	H	0.602297	0.871558	0.583811
	H70	H	0.419073	0.103010	0.591811
	H71	H	0.419708	0.869717	0.405807
	H72	H	0.917961	0.599806	0.084221
	H73	H	0.098149	0.370558	0.094985
	H74	H	0.102522	0.604094	0.911096
	H75	H	0.923853	0.373658	0.913402
	H76	H	0.094946	0.895834	0.613901
	H77	H	0.096175	0.075758	0.389663
	H78	H	0.918303	0.067563	0.613518
	H79	H	0.915859	0.894573	0.386911
	H80	H	0.623617	0.078044	0.911542
	H81	H	0.395683	0.077931	0.085030
	H82	H	0.624435	0.897603	0.093032
	H83	H	0.394979	0.893510	0.908414
	H84	H	0.624765	0.893574	0.091205
	H85	H	0.396541	0.069222	0.089978
	H86	H	0.622815	0.073877	0.910579
	H87	H	0.395331	0.896754	0.905736
	H88	H	0.926956	0.080332	0.614551
	H89	H	0.099459	0.080959	0.386242
	H90	H	0.107194	0.890259	0.618662
	H91	H	0.916895	0.898935	0.387991
	H92	H	0.094844	0.601962	0.908504
	H93	H	0.095964	0.372780	0.091827
	H94	H	0.917443	0.604169	0.095869
	H95	H	0.912509	0.370895	0.914946
	H96	H	0.426205	0.100848	0.591377
	H97	H	0.604565	0.866352	0.595049
	H98	H	0.605192	0.103891	0.410425
	H99	H	0.421863	0.871061	0.410181
	H100	H	0.604476	0.398834	0.115353
	H101	H	0.594141	0.576705	0.888010
	H102	H	0.412575	0.583028	0.118133
	H103	H	0.410571	0.397815	0.884985
	H104	H	0.125648	0.577785	0.411263
	H105	H	0.895340	0.576263	0.590899
	H106	H	0.122388	0.401540	0.594915
	H107	H	0.893070	0.397100	0.406078
	H108	H	0.928199	0.598698	0.091071
	H109	H	0.100302	0.371028	0.091223
	H110	H	0.097005	0.599933	0.916455
	H111	H	0.918074	0.368701	0.905087
	H112	H	0.106782	0.904152	0.614877
	H113	H	0.102418	0.075356	0.387917
	H114	H	0.912700	0.080746	0.619695
	H115	H	0.920266	0.895758	0.388185
	H116	H	0.624971	0.075729	0.907875
	H117	H	0.392857	0.077914	0.094418
	H118	H	0.623864	0.897659	0.088987
	H119	H	0.393386	0.893011	0.904875
	C120	C	0.390537	-0.005697	0.620051
	C121	C	0.631271	0.977097	0.622226
	C122	C	0.630316	-0.004882	0.379649
	C123	C	0.388674	0.977259	0.377848
	C124	C	0.629813	0.364965	0.008318
	C125	C	0.630450	0.607153	0.992379
	C126	C	0.386600	0.607478	0.008770
	C127	C	0.385672	0.364128	0.991210
	C128	C	0.017815	0.608089	0.381490
	C129	C	1.000631	0.608847	0.624356
	C130	C	0.017413	0.365406	0.624556
	C131	C	1.000801	0.366573	0.381807
	C132	C	0.888421	0.494965	0.122648
	C133	C	0.130919	0.477606	0.124620
	C134	C	0.128687	0.495210	0.881180
	C135	C	0.886715	0.477960	0.880032
	C136	C	0.132060	0.865147	0.509727
	C137	C	0.132283	0.108959	0.492868
	C138	C	0.887504	0.108513	0.510547
	C139	C	0.887701	0.865489	0.493436
	C140	C	0.517825	0.106706	0.878088
	C141	C	0.500408	0.107910	0.121424
	C142	C	0.518252	0.864849	0.121339
	C143	C	0.501105	0.863313	0.877098
	C144	C	0.389756	0.872040	0.676403
	C145	C	0.632685	0.098674	0.680932
	C146	C	0.631741	0.873246	0.321405
	C147	C	0.388425	0.099302	0.320419
	C148	C	0.688946	0.363041	0.888726
	C149	C	0.689690	0.609263	0.112757
	C150	C	0.327865	0.607372	0.888127
	C151	C	0.329125	0.363485	0.112333
	C152	C	0.896227	0.665476	0.381609
	C153	C	0.122926	0.665016	0.623044
	C154	C	0.896197	0.307117	0.623641
	C155	C	0.121953	0.308455	0.382518
	C156	C	0.895664	0.365220	0.680517
	C157	C	0.122017	0.608079	0.681795
	C158	C	0.897674	0.610551	0.321209
	C159	C	0.121224	0.363978	0.323130
	C160	C	0.387751	0.663745	0.887105
	C161	C	0.630062	0.664980	0.113366
	C162	C	0.629006	0.307251	0.887368
	C163	C	0.387339	0.306461	0.112117
	C164	C	0.688091	0.872888	0.380011
	C165	C	0.688403	0.099542	0.622455
	C166	C	0.332677	0.872352	0.618540
	C167	C	0.330874	0.099462	0.377403
	C168	C	0.884640	0.374937	0.183833
	C169	C	0.133810	0.598891	0.184056
	C170	C	0.129674	0.373625	0.822160
	C171	C	0.884076	0.598988	0.820843
	C172	C	0.189513	0.862851	0.388983
	C173	C	0.193483	0.110777	0.612252
	C174	C	0.826846	0.111624	0.391203
	C175	C	0.828793	0.863703	0.613318
	C176	C	0.396708	0.164682	0.876147
	C177	C	0.621075	0.167906	0.122230
	C178	C	0.396662	0.807080	0.120414
	C179	C	0.622515	0.805390	0.878818
	C180	C	0.397770	0.863073	0.179849
	C181	C	0.620584	0.111828	0.181882
	C182	C	0.397482	0.107473	0.818309
	C183	C	0.622165	0.861939	0.820111
	C184	C	0.885633	0.168831	0.391183
	C185	C	0.133799	0.167122	0.613811
	C186	C	0.131477	0.805474	0.389476
	C187	C	0.888330	0.808203	0.614494
	C188	C	0.185590	0.372776	0.880593
	C189	C	0.190855	0.598903	0.126146
	C190	C	0.827993	0.374140	0.124829
	C191	C	0.827535	0.599307	0.878790
	C192	C	0.415232	0.079392	0.596496
	C193	C	0.607079	0.892055	0.597655
	C194	C	0.606000	0.079728	0.403637
	C195	C	0.412596	0.892205	0.401783
	C196	C	0.605591	0.389678	0.092241
	C197	C	0.606317	0.582572	0.908365
	C198	C	0.410912	0.583931	0.092849
	C199	C	0.408079	0.388396	0.906997
	C200	C	0.101991	0.583297	0.406179
	C201	C	0.915893	0.585295	0.600718
	C202	C	0.101793	0.389939	0.601459
	C203	C	0.917077	0.391781	0.406061
	C204	C	0.913908	0.579033	0.097540
	C205	C	0.105505	0.393526	0.099950
	C206	C	0.104995	0.579775	0.905144
	C207	C	0.911205	0.393061	0.904165
	C208	C	0.109536	0.889662	0.593789
	C209	C	0.106861	0.084490	0.409706
	C210	C	0.912385	0.083391	0.594160
	C211	C	0.911043	0.889488	0.409469
	C212	C	0.601932	0.082722	0.902858
	C213	C	0.416927	0.082292	0.096954
	C214	C	0.602582	0.889327	0.097774
	C215	C	0.416560	0.887515	0.899768
	Zn216	Zn	0.510625	-0.014376	0.749355
	Zn217	Zn	0.509881	-0.013971	0.250409
	Zn218	Zn	0.759376	0.486161	0.001262
	Zn219	Zn	0.256944	0.485874	0.001507
	Zn220	Zn	0.009160	0.737411	0.502705
	Zn221	Zn	0.009496	0.237157	0.502793
	Zn222	Zn	0.007990	0.486700	0.753005
	Zn223	Zn	0.009352	0.486880	0.252270
	Zn224	Zn	0.509430	0.736391	-0.000045
	Zn225	Zn	0.508070	0.235774	-0.001043
	Zn226	Zn	0.758549	-0.013623	0.501826
	Zn227	Zn	0.261169	-0.013275	0.499651
	N228	N	0.425131	0.948968	0.677238
	N229	N	0.598209	0.021419	0.680957
	N230	N	0.596704	0.950234	0.320868
	N231	N	0.423354	0.022320	0.320563
	N232	N	0.689345	0.398333	0.964880
	N233	N	0.690109	0.574107	0.036447
	N234	N	0.326730	0.573617	0.964849
	N235	N	0.327959	0.398710	0.036188
	N236	N	0.972066	0.664342	0.418220
	N237	N	0.046342	0.665577	0.588023
	N238	N	0.972712	0.307399	0.589315
	N239	N	0.046006	0.309678	0.418094
	N240	N	0.972221	0.400544	0.681412
	N241	N	0.044899	0.574150	0.682813
	N242	N	0.974301	0.575897	0.320950
	N243	N	0.044653	0.399063	0.322332
	N244	N	0.423660	0.663934	0.963178
	N245	N	0.594299	0.664121	0.037516
	N246	N	0.592838	0.308513	0.962846
	N247	N	0.421791	0.306725	0.035861
	N248	N	0.687661	0.949776	0.415308
	N249	N	0.687811	0.022615	0.586919
	N250	N	0.332961	0.949655	0.584257
	N251	N	0.330642	0.022337	0.412180
	N252	N	0.921642	0.450947	0.182356
	N253	N	0.097243	0.522618	0.183168
	N254	N	0.094691	0.450623	0.822453
	N255	N	0.920049	0.522390	0.821454
	N256	N	0.189886	0.899460	0.464638
	N257	N	0.192616	0.075164	0.536229
	N258	N	0.828017	0.074739	0.466441
	N259	N	0.828139	0.898458	0.536972
	N260	N	0.472488	0.164280	0.912844
	N261	N	0.545437	0.165690	0.085453
	N262	N	0.472674	0.808028	0.084785
	N263	N	0.546143	0.805909	0.913440
	N264	N	0.474281	0.898439	0.180433
	N265	N	0.544849	0.075189	0.181568
	N266	N	0.473903	0.072302	0.819311
	N267	N	0.545648	0.897131	0.818840
	N268	N	0.922714	0.166919	0.466412
	N269	N	0.096365	0.166159	0.538687
	N270	N	0.096550	0.806612	0.465468
	N271	N	0.924382	0.809108	0.538982
	N272	N	0.185051	0.449125	0.916828
	N273	N	0.189043	0.522590	0.089681
	N274	N	0.830023	0.449894	0.087518
	N275	N	0.829065	0.522953	0.914858
	O276	O	0.479910	0.648032	0.556328
	H277	H	0.486189	0.656731	0.570306
	H278	H	0.481618	0.640894	0.554821
	O279	O	0.426936	0.376765	0.386378
	H280	H	0.439206	0.386860	0.382057
	H281	H	0.423625	0.377430	0.400092
	O282	O	1.093674	-0.170486	0.827883
	H283	H	1.114670	-0.161690	0.829300
	H284	H	1.097379	-0.181034	0.807216
	O285	O	0.981426	0.776161	1.214915
	H286	H	0.983987	0.749932	1.239166
	H287	H	0.942198	0.783211	1.211489
	O288	O	0.909861	1.094138	0.855833
	H289	H	0.901529	1.102870	0.869517
	H290	H	0.894788	1.063676	0.858207
	O291	O	0.085399	0.960558	0.191169
	H292	H	0.091410	0.938792	0.195454
	H293	H	0.088449	0.951227	0.177405
	O294	O	0.010427	1.002370	1.092907
	H295	H	0.021026	0.987698	1.075047
	H296	H	0.011389	1.005459	1.104731
	O297	O	0.471647	0.432124	0.567078
	H298	H	0.471415	0.425688	0.569950
	H299	H	0.465814	0.435976	0.566087
	O300	O	1.141861	-0.056791	0.032410
	H301	H	1.135143	-0.059727	0.036707
	H302	H	1.143778	-0.068251	0.032039
	O303	O	0.153717	0.915417	1.033585
	H304	H	0.138591	0.914891	1.039263
	H305	H	0.152218	0.909539	1.027051
	O306	O	0.404279	0.552117	0.506607
	H307	H	0.412708	0.555653	0.503426
	H308	H	0.405818	0.554228	0.497237
	O309	O	0.481163	0.397443	0.632378
	H310	H	0.472779	0.393702	0.638847
	H311	H	0.467643	0.407256	0.630863
	O312	O	0.112940	-0.219991	-0.004309
	H313	H	0.105486	-0.230496	0.005014
	H314	H	0.112252	-0.222276	-0.002986
	O315	O	0.472414	1.499652	-0.397336
	H316	H	0.464033	1.499743	-0.393060
	H317	H	0.466484	1.496701	-0.388903
	O318	O	-0.178787	0.793140	1.012481
	H319	H	-0.171836	0.796262	0.988126
	H320	H	-0.181590	0.786256	1.001882
	O321	O	0.907040	-0.113672	0.906057
	H322	H	0.919469	-0.107739	0.897747
	H323	H	0.902983	-0.094543	0.903517
	O324	O	0.513829	0.329477	-0.499432
	H325	H	0.507816	0.332255	-0.494481
	H326	H	0.512583	0.315442	-0.506874
	O327	O	0.685480	0.511137	0.517094
	H328	H	0.705020	0.514341	0.531714
	H329	H	0.668050	0.510396	0.519941
	O330	O	-0.052585	0.100894	1.209761
	H331	H	-0.043251	0.104651	1.221008
	H332	H	-0.054946	0.091123	1.224798
	O333	O	-0.130064	0.155700	1.074002
	H334	H	-0.133311	0.160831	1.071151
	H335	H	-0.114482	0.162638	1.094814
	O336	O	0.620762	0.437311	0.579596
	H337	H	0.617308	0.452824	0.579943
	H338	H	0.636677	0.439930	0.579782
	O339	O	1.001717	0.192595	-0.023339
	H340	H	0.999029	0.204272	-0.032569
	H341	H	0.985369	0.191383	-0.015073
	O342	O	0.204906	-0.173418	-0.096919
	H343	H	0.209832	-0.157650	-0.105166
	H344	H	0.215534	-0.170183	-0.084993
	O345	O	0.390668	-0.464227	1.523567
	H346	H	0.384237	-0.467708	1.524904
	H347	H	0.384970	-0.464807	1.522285
	O348	O	0.811102	1.086152	-0.037396
	H349	H	0.821980	1.079428	-0.027309
	H350	H	0.812374	1.095601	-0.035922
	O351	O	0.634931	0.389757	0.491959
	H352	H	0.638240	0.375769	0.488316
	H353	H	0.628397	0.397491	0.491691
	O354	O	0.861694	0.012869	1.180672
	H355	H	0.868098	0.025666	1.174745
	H356	H	0.857080	0.006602	1.192923
	O357	O	0.343097	0.227273	0.615586
	H358	H	0.333949	0.226383	0.610266
	H359	H	0.336806	0.241907	0.610067
	O360	O	0.521633	0.515833	0.483165
	H361	H	0.499830	0.507314	0.479701
	H362	H	0.536246	0.520405	0.496447
	O363	O	0.204317	1.122122	1.196323
	H364	H	0.204518	1.141368	1.200583
	H365	H	0.210865	1.084968	1.204442
	O366	O	0.525845	0.525207	0.396303
	H367	H	0.545422	0.534417	0.395629
	H368	H	0.533500	0.527388	0.411500
	O369	O	0.212644	1.187819	0.069309
	H370	H	0.210410	1.190498	0.077731
	H371	H	0.213891	1.205834	0.069717
	O372	O	0.069142	1.089848	-0.129318
	H373	H	0.056806	1.090564	-0.132400
	H374	H	0.075192	1.071948	-0.117173
	O375	O	0.142429	-0.039429	0.823246
	H376	H	0.135031	-0.019802	0.820624
	H377	H	0.134356	-0.033916	0.827204
	O378	O	0.606016	0.483172	0.470132
	H379	H	0.628825	0.485072	0.471291
	H380	H	0.611086	0.469464	0.474441
	O381	O	0.821190	-0.201120	0.181884
	H382	H	0.812852	-0.194765	0.147435
	H383	H	0.818780	-0.180994	0.176543
	O384	O	0.947133	1.018604	-0.032341
	H385	H	0.967529	1.006904	-0.034691
	H386	H	0.949700	1.018717	-0.014766
	O387	O	-0.036069	0.084160	-0.011914
	H388	H	-0.038243	0.087412	-0.009665
	H389	H	-0.043501	0.096323	-0.023795
	O390	O	-0.164690	1.065858	-0.088865
	H391	H	-0.183590	1.070197	-0.099645
	H392	H	-0.142723	1.074340	-0.072479
	O393	O	1.112237	1.049571	1.023716
	H394	H	1.123266	1.042258	1.035517
	H395	H	1.112374	1.056208	1.034220
	O396	O	0.456168	0.515291	0.512601
	H397	H	0.446341	0.516845	0.508356
	H398	H	0.467056	0.533990	0.517630
	O399	O	-0.057863	0.936333	0.985151
	H400	H	-0.057569	0.937720	0.979618
	H401	H	-0.058318	0.942640	0.988133
	O402	O	-0.054154	0.964968	-0.169625
	H403	H	-0.049975	0.958972	-0.154757
	H404	H	-0.053521	0.966095	-0.174938
	O405	O	1.534500	1.638843	0.472436
	H406	H	1.521969	1.631277	0.469806
	H407	H	1.530330	1.643792	0.480121
	O408	O	0.551925	1.408771	-0.412414
	H409	H	0.549203	1.406293	-0.404128
	H410	H	0.542592	1.412862	-0.420600
	O411	O	0.387506	-0.531095	0.409981
	H412	H	0.391271	-0.532776	0.410011
	H413	H	0.386746	-0.537982	0.401378
	O414	O	0.531780	0.591961	0.471369
	H415	H	0.537765	0.576253	0.462032
	H416	H	0.534802	0.589069	0.466819
	O417	O	0.613826	0.491010	0.359667
	H418	H	0.612519	0.482865	0.347629
	H419	H	0.624665	0.496233	0.360220
