data_Molecule from HDF5

_cell_length_a		16.249731
_cell_length_b		16.277979
_cell_length_c		16.297420
_cell_angle_alpha	90.024288
_cell_angle_beta	89.928125
_cell_angle_gamma	89.966534
_symmetry_space_group_name_H-M	'P 1'
_symmetry_Int_Tables_number		1

loop_
	_symmetry_equiv_pos_as_xyz
	x,y,z

loop_
	_atom_site_label
	_atom_site_type_symbol
	_atom_site_fract_x
	_atom_site_fract_y
	_atom_site_fract_z
	H0	H	0.400787	0.836252	0.714796
	H1	H	0.597330	0.163508	0.713889
	H2	H	0.598121	0.835921	0.285507
	H3	H	0.402056	0.163783	0.285706
	H4	H	0.714576	0.402047	0.836462
	H5	H	0.713863	0.598028	0.163703
	H6	H	0.285425	0.599553	0.836456
	H7	H	0.286062	0.402883	0.163760
	H8	H	0.836202	0.713575	0.402680
	H9	H	0.164590	0.714085	0.598048
	H10	H	0.835769	0.285790	0.598367
	H11	H	0.164366	0.285721	0.401728
	H12	H	0.836346	0.401462	0.714745
	H13	H	0.164637	0.597717	0.713865
	H14	H	0.835618	0.597469	0.286897
	H15	H	0.163890	0.400531	0.285610
	H16	H	0.401237	0.715207	0.836971
	H17	H	0.596945	0.714423	0.164182
	H18	H	0.598748	0.285406	0.836445
	H19	H	0.402691	0.287325	0.163727
	H20	H	0.713937	0.836124	0.401689
	H21	H	0.713065	0.163800	0.597713
	H22	H	0.285939	0.835857	0.597315
	H23	H	0.287097	0.164028	0.402218
	H24	H	0.900210	0.336122	0.215382
	H25	H	0.097619	0.663622	0.214789
	H26	H	0.099497	0.336526	0.786096
	H27	H	0.901404	0.663339	0.784721
	H28	H	0.214579	0.901391	0.336216
	H29	H	0.213817	0.097408	0.663602
	H30	H	0.786043	0.098359	0.336385
	H31	H	0.786322	0.902256	0.663819
	H32	H	0.335709	0.214079	0.902433
	H33	H	0.664345	0.212888	0.096616
	H34	H	0.335830	0.785547	0.098686
	H35	H	0.664148	0.786703	0.902221
	H36	H	0.335599	0.902106	0.213527
	H37	H	0.664049	0.098114	0.214025
	H38	H	0.335604	0.098692	0.785017
	H39	H	0.663358	0.901388	0.785778
	H40	H	0.902250	0.214548	0.335826
	H41	H	0.096417	0.211970	0.663915
	H42	H	0.099063	0.784496	0.336485
	H43	H	0.902642	0.785993	0.663738
	H44	H	0.214543	0.337305	0.902741
	H45	H	0.213470	0.664640	0.098526
	H46	H	0.786091	0.335827	0.097875
	H47	H	0.787129	0.664484	0.903397
	H48	H	0.414909	0.111463	0.586161
	H49	H	0.598165	0.881326	0.591130
	H50	H	0.588177	0.114889	0.406722
	H51	H	0.402356	0.882856	0.411834
	H52	H	0.588815	0.400234	0.116900
	H53	H	0.588383	0.590955	0.885788
	H54	H	0.403779	0.590886	0.116693
	H55	H	0.408476	0.401100	0.881483
	H56	H	0.113228	0.587462	0.416596
	H57	H	0.884504	0.592355	0.591618
	H58	H	0.119262	0.399284	0.592358
	H59	H	0.883413	0.411780	0.402575
	H60	H	0.114991	0.409261	0.588923
	H61	H	0.883303	0.591127	0.595141
	H62	H	0.118062	0.586166	0.396961
	H63	H	0.881079	0.400030	0.406154
	H64	H	0.410711	0.593930	0.114641
	H65	H	0.592940	0.599271	0.882464
	H66	H	0.600543	0.406355	0.118965
	H67	H	0.401223	0.409234	0.882853
	H68	H	0.596229	0.116179	0.409903
	H69	H	0.592383	0.881462	0.599063
	H70	H	0.397365	0.118491	0.588770
	H71	H	0.404149	0.880498	0.399109
	H72	H	0.900725	0.619340	0.097307
	H73	H	0.089232	0.384994	0.094236
	H74	H	0.090695	0.619025	0.898848
	H75	H	0.907367	0.384255	0.909183
	H76	H	0.083541	0.901403	0.614917
	H77	H	0.092892	0.102516	0.380309
	H78	H	0.906552	0.091002	0.615834
	H79	H	0.907553	0.899944	0.381854
	H80	H	0.617207	0.093657	0.904891
	H81	H	0.385016	0.089897	0.088938
	H82	H	0.617374	0.903221	0.094195
	H83	H	0.382456	0.906876	0.907539
	H84	H	0.615575	0.907715	0.089441
	H85	H	0.381726	0.090864	0.099473
	H86	H	0.616410	0.094622	0.906740
	H87	H	0.384226	0.908980	0.908544
	H88	H	0.909049	0.095182	0.615764
	H89	H	0.102221	0.088802	0.381828
	H90	H	0.101891	0.900047	0.620539
	H91	H	0.901114	0.909302	0.382269
	H92	H	0.087485	0.614163	0.911638
	H93	H	0.094835	0.384984	0.088945
	H94	H	0.913848	0.615295	0.097216
	H95	H	0.905255	0.382663	0.905700
	H96	H	0.409911	0.118894	0.602702
	H97	H	0.589097	0.885469	0.590505
	H98	H	0.594187	0.118669	0.401962
	H99	H	0.413826	0.885667	0.406439
	H100	H	0.590047	0.413527	0.113712
	H101	H	0.598368	0.590391	0.883731
	H102	H	0.405226	0.598126	0.118409
	H103	H	0.410680	0.411154	0.885851
	H104	H	0.120195	0.603313	0.406522
	H105	H	0.882948	0.594824	0.593893
	H106	H	0.117964	0.408322	0.599631
	H107	H	0.885496	0.408656	0.414100
	H108	H	0.906543	0.613617	0.086084
	H109	H	0.096686	0.381699	0.095946
	H110	H	0.100658	0.619236	0.909333
	H111	H	0.909081	0.383886	0.905239
	H112	H	0.095154	0.917052	0.613367
	H113	H	0.085894	0.088362	0.386450
	H114	H	0.904351	0.095181	0.617477
	H115	H	0.911962	0.909591	0.385855
	H116	H	0.616530	0.092284	0.906436
	H117	H	0.381224	0.100658	0.092823
	H118	H	0.616735	0.909516	0.095988
	H119	H	0.382321	0.908348	0.905957
	C120	C	0.378417	0.008150	0.621093
	C121	C	0.621349	0.991034	0.621600
	C122	C	0.621428	0.008228	0.377760
	C123	C	0.378745	0.991709	0.378325
	C124	C	0.621860	0.378411	0.008386
	C125	C	0.621512	0.622034	0.992000
	C126	C	0.378278	0.622415	0.008509
	C127	C	0.378353	0.378863	0.991509
	C128	C	0.008552	0.620482	0.378636
	C129	C	0.992156	0.621008	0.621726
	C130	C	0.008602	0.377823	0.621868
	C131	C	0.991853	0.378222	0.378667
	C132	C	0.878005	0.508065	0.122043
	C133	C	0.121772	0.492092	0.121686
	C134	C	0.121776	0.509195	0.878554
	C135	C	0.878774	0.491884	0.878715
	C136	C	0.122057	0.877774	0.508271
	C137	C	0.121667	0.121164	0.491033
	C138	C	0.878380	0.121953	0.508294
	C139	C	0.878632	0.878001	0.491595
	C140	C	0.507933	0.121713	0.878266
	C141	C	0.491415	0.121946	0.121784
	C142	C	0.508051	0.878743	0.121369
	C143	C	0.491171	0.878815	0.878729
	C144	C	0.380581	0.885041	0.676415
	C145	C	0.618333	0.114597	0.676390
	C146	C	0.618850	0.884983	0.323103
	C147	C	0.381369	0.114787	0.323438
	C148	C	0.676673	0.381438	0.885249
	C149	C	0.676146	0.618888	0.115165
	C150	C	0.323513	0.619464	0.885238
	C151	C	0.323898	0.382138	0.114856
	C152	C	0.885024	0.675753	0.381626
	C153	C	0.115633	0.675999	0.618686
	C154	C	0.884912	0.323566	0.618657
	C155	C	0.115362	0.323681	0.381497
	C156	C	0.885196	0.380754	0.676929
	C157	C	0.115865	0.618439	0.676136
	C158	C	0.884719	0.618204	0.324223
	C159	C	0.115261	0.381071	0.323888
	C160	C	0.380689	0.677239	0.885294
	C161	C	0.618320	0.676689	0.115145
	C162	C	0.619215	0.323659	0.885332
	C163	C	0.381436	0.324402	0.114677
	C164	C	0.676416	0.884994	0.380875
	C165	C	0.675515	0.114870	0.618370
	C166	C	0.323381	0.884668	0.618260
	C167	C	0.324066	0.114948	0.381155
	C168	C	0.880538	0.385045	0.177040
	C169	C	0.118387	0.615159	0.176761
	C170	C	0.119770	0.385706	0.824057
	C171	C	0.881074	0.614914	0.823459
	C172	C	0.176869	0.880746	0.385031
	C173	C	0.175950	0.117934	0.614715
	C174	C	0.823252	0.119265	0.385230
	C175	C	0.823790	0.881145	0.614832
	C176	C	0.384401	0.176577	0.881417
	C177	C	0.615061	0.176113	0.118261
	C178	C	0.384516	0.823942	0.118708
	C179	C	0.614685	0.823893	0.881514
	C180	C	0.384458	0.881591	0.175986
	C181	C	0.614955	0.118808	0.176282
	C182	C	0.384585	0.119336	0.823256
	C183	C	0.614666	0.881066	0.823863
	C184	C	0.881231	0.176662	0.384827
	C185	C	0.118151	0.175291	0.614869
	C186	C	0.119181	0.823078	0.385028
	C187	C	0.881507	0.823471	0.614886
	C188	C	0.176964	0.385943	0.881729
	C189	C	0.175899	0.615571	0.118964
	C190	C	0.823372	0.384750	0.118852
	C191	C	0.824051	0.615252	0.881905
	C192	C	0.400785	0.094013	0.598910
	C193	C	0.599613	0.904993	0.600036
	C194	C	0.599310	0.094464	0.399615
	C195	C	0.400372	0.905231	0.399657
	C196	C	0.599640	0.400352	0.094475
	C197	C	0.599546	0.600118	0.905892
	C198	C	0.400099	0.600830	0.094340
	C199	C	0.400202	0.400728	0.905551
	C200	C	0.094764	0.598738	0.400209
	C201	C	0.905953	0.599079	0.600047
	C202	C	0.095063	0.399344	0.599980
	C203	C	0.905469	0.400176	0.400962
	C204	C	0.900427	0.594068	0.100037
	C205	C	0.099978	0.406015	0.099625
	C206	C	0.099563	0.595159	0.900215
	C207	C	0.900735	0.405904	0.900261
	C208	C	0.100140	0.899651	0.594150
	C209	C	0.100105	0.099665	0.404994
	C210	C	0.900288	0.100158	0.594112
	C211	C	0.900510	0.899822	0.405416
	C212	C	0.594311	0.099919	0.899841
	C213	C	0.405012	0.100103	0.100144
	C214	C	0.594358	0.900442	0.099607
	C215	C	0.405220	0.901393	0.900704
	Zn216	Zn	0.499518	-0.000189	0.750285
	Zn217	Zn	0.499635	-0.000067	0.249520
	Zn218	Zn	0.749979	0.500209	0.000187
	Zn219	Zn	0.250233	0.501014	0.000051
	Zn220	Zn	0.000158	0.749277	0.500301
	Zn221	Zn	0.000404	0.249731	0.499796
	Zn222	Zn	0.000640	0.499864	0.750211
	Zn223	Zn	0.000103	0.499585	0.250077
	Zn224	Zn	0.499637	0.750400	0.000061
	Zn225	Zn	0.499889	0.250155	-0.000238
	Zn226	Zn	0.749743	-0.000089	0.499881
	Zn227	Zn	0.249986	-0.000351	0.499389
	N228	N	0.413910	0.962689	0.678422
	N229	N	0.585265	0.036757	0.678566
	N230	N	0.585350	0.962612	0.321167
	N231	N	0.414493	0.037015	0.321627
	N232	N	0.678339	0.414832	0.962888
	N233	N	0.678050	0.585614	0.037500
	N234	N	0.321978	0.586015	0.962842
	N235	N	0.321778	0.415177	0.037281
	N236	N	0.962952	0.677463	0.414840
	N237	N	0.037855	0.677698	0.585560
	N238	N	0.962661	0.321621	0.585199
	N239	N	0.037587	0.321844	0.414907
	N240	N	0.963060	0.413851	0.678918
	N241	N	0.038138	0.584818	0.678025
	N242	N	0.962491	0.584839	0.322011
	N243	N	0.037377	0.414279	0.322139
	N244	N	0.414082	0.679010	0.962694
	N245	N	0.585153	0.678770	0.037528
	N246	N	0.586019	0.321517	0.962943
	N247	N	0.414928	0.322562	0.037076
	N248	N	0.677951	0.962639	0.414211
	N249	N	0.677456	0.037198	0.585019
	N250	N	0.321961	0.962167	0.584554
	N251	N	0.322577	0.037461	0.414838
	N252	N	0.913738	0.462797	0.179076
	N253	N	0.085536	0.537281	0.178424
	N254	N	0.086232	0.463323	0.821879
	N255	N	0.914497	0.537239	0.821499
	N256	N	0.178531	0.914005	0.462585
	N257	N	0.178381	0.085207	0.536965
	N258	N	0.821634	0.085709	0.462770
	N259	N	0.821931	0.914475	0.537219
	N260	N	0.462033	0.178206	0.914844
	N261	N	0.537257	0.178155	0.085035
	N262	N	0.462398	0.822215	0.085282
	N263	N	0.536866	0.822450	0.915024
	N264	N	0.462063	0.914895	0.177744
	N265	N	0.537047	0.085933	0.178459
	N266	N	0.462359	0.085777	0.821346
	N267	N	0.537013	0.914708	0.822046
	N268	N	0.914944	0.178349	0.462236
	N269	N	0.085008	0.177295	0.537078
	N270	N	0.085699	0.820986	0.462615
	N271	N	0.914848	0.821484	0.537242
	N272	N	0.178281	0.463590	0.914984
	N273	N	0.177834	0.538174	0.085124
	N274	N	0.821900	0.462237	0.085163
	N275	N	0.822647	0.537801	0.915618
