data_Molecule from HDF5

_cell_length_a		16.362261
_cell_length_b		16.317931
_cell_length_c		16.262035
_cell_angle_alpha	89.855141
_cell_angle_beta	90.048052
_cell_angle_gamma	90.008082
_symmetry_space_group_name_H-M	'P 1'
_symmetry_Int_Tables_number		1

loop_
	_symmetry_equiv_pos_as_xyz
	x,y,z

loop_
	_atom_site_label
	_atom_site_type_symbol
	_atom_site_fract_x
	_atom_site_fract_y
	_atom_site_fract_z
	H0	H	0.394628	0.830010	0.718883
	H1	H	0.598591	0.153187	0.717982
	H2	H	0.594688	0.830004	0.283734
	H3	H	0.393252	0.154165	0.283696
	H4	H	0.711689	0.391714	0.839513
	H5	H	0.710182	0.593795	0.163642
	H6	H	0.274528	0.597355	0.840414
	H7	H	0.275471	0.388708	0.163141
	H8	H	0.833913	0.709044	0.399381
	H9	H	0.155875	0.709119	0.604857
	H10	H	0.833634	0.270758	0.604057
	H11	H	0.155251	0.271998	0.397378
	H12	H	0.832063	0.388467	0.719083
	H13	H	0.154275	0.595807	0.722629
	H14	H	0.832074	0.590236	0.287086
	H15	H	0.155261	0.389401	0.282668
	H16	H	0.391802	0.710589	0.839009
	H17	H	0.592706	0.707127	0.164140
	H18	H	0.597418	0.276262	0.839226
	H19	H	0.392026	0.273462	0.162604
	H20	H	0.712071	0.829528	0.398796
	H21	H	0.714886	0.151844	0.603821
	H22	H	0.278692	0.829300	0.603503
	H23	H	0.271706	0.150207	0.392820
	H24	H	0.891711	0.330725	0.219086
	H25	H	0.095304	0.653765	0.220318
	H26	H	0.094641	0.331182	0.784393
	H27	H	0.891297	0.654077	0.782567
	H28	H	0.214659	0.884869	0.340067
	H29	H	0.213749	0.093315	0.661550
	H30	H	0.777688	0.092477	0.339126
	H31	H	0.778135	0.888083	0.663885
	H32	H	0.333486	0.213103	0.895981
	H33	H	0.655607	0.210404	0.102605
	H34	H	0.332814	0.773479	0.105076
	H35	H	0.655170	0.774542	0.900115
	H36	H	0.332977	0.890410	0.219940
	H37	H	0.656382	0.094554	0.218127
	H38	H	0.333703	0.095187	0.781464
	H39	H	0.657333	0.892817	0.785999
	H40	H	0.891039	0.208481	0.339297
	H41	H	0.097360	0.208148	0.662264
	H42	H	0.097218	0.773367	0.339605
	H43	H	0.895756	0.774604	0.664080
	H44	H	0.216195	0.334126	0.894407
	H45	H	0.213516	0.652962	0.107086
	H46	H	0.774321	0.332204	0.105826
	H47	H	0.776729	0.655071	0.899259
	H48	H	0.400770	0.107749	0.590391
	H49	H	0.587619	0.874267	0.596022
	H50	H	0.579452	0.105039	0.407666
	H51	H	0.401298	0.874613	0.406988
	H52	H	0.587163	0.407357	0.116171
	H53	H	0.579449	0.588514	0.885797
	H54	H	0.407434	0.588050	0.117147
	H55	H	0.404480	0.410740	0.889180
	H56	H	0.106516	0.575627	0.416033
	H57	H	0.879020	0.582162	0.593538
	H58	H	0.108742	0.398580	0.591459
	H59	H	0.880876	0.402429	0.410480
	H60	H	0.107306	0.401798	0.590483
	H61	H	0.880133	0.584340	0.588954
	H62	H	0.112359	0.580423	0.400848
	H63	H	0.878239	0.397786	0.408423
	H64	H	0.396709	0.583780	0.118997
	H65	H	0.591696	0.586977	0.882004
	H66	H	0.578121	0.401487	0.114548
	H67	H	0.409391	0.400843	0.887092
	H68	H	0.588691	0.105379	0.418418
	H69	H	0.583702	0.876905	0.592478
	H70	H	0.406548	0.105732	0.591778
	H71	H	0.410027	0.877823	0.410024
	H72	H	0.909324	0.605768	0.093495
	H73	H	0.080543	0.377191	0.096314
	H74	H	0.080829	0.605851	0.915211
	H75	H	0.904740	0.382377	0.923372
	H76	H	0.085449	0.904978	0.613757
	H77	H	0.085420	0.075134	0.387067
	H78	H	0.904138	0.081237	0.616520
	H79	H	0.908092	0.903431	0.387841
	H80	H	0.609813	0.087750	0.911380
	H81	H	0.378387	0.081876	0.096680
	H82	H	0.608705	0.903964	0.095860
	H83	H	0.382806	0.909336	0.911264
	H84	H	0.610205	0.895431	0.092867
	H85	H	0.378612	0.087973	0.088794
	H86	H	0.607824	0.082813	0.911565
	H87	H	0.377270	0.900503	0.902705
	H88	H	0.904723	0.079550	0.616697
	H89	H	0.079190	0.081232	0.387139
	H90	H	0.083578	0.894895	0.617664
	H91	H	0.904223	0.892773	0.383862
	H92	H	0.087462	0.607788	0.912867
	H93	H	0.081839	0.380762	0.085644
	H94	H	0.896966	0.607734	0.086629
	H95	H	0.888957	0.373379	0.910250
	H96	H	0.404549	0.105429	0.586210
	H97	H	0.587918	0.876472	0.589985
	H98	H	0.592312	0.109838	0.405449
	H99	H	0.402475	0.877569	0.415349
	H100	H	0.586513	0.396616	0.119739
	H101	H	0.584924	0.577327	0.887500
	H102	H	0.404771	0.577422	0.114354
	H103	H	0.398847	0.402671	0.883569
	H104	H	0.111659	0.591284	0.413481
	H105	H	0.881854	0.579857	0.590303
	H106	H	0.108425	0.401013	0.594326
	H107	H	0.879721	0.397526	0.413754
	H108	H	0.898029	0.611864	0.100303
	H109	H	0.090639	0.376044	0.091132
	H110	H	0.081594	0.608004	0.909073
	H111	H	0.909363	0.376683	0.901321
	H112	H	0.092842	0.899411	0.618910
	H113	H	0.086531	0.082725	0.382952
	H114	H	0.905255	0.081130	0.616424
	H115	H	0.897163	0.902974	0.384392
	H116	H	0.609874	0.084411	0.906796
	H117	H	0.382815	0.078720	0.088046
	H118	H	0.607367	0.901514	0.087266
	H119	H	0.379726	0.897140	0.915382
	C120	C	0.373771	-0.000280	0.621443
	C121	C	0.617010	0.982727	0.622705
	C122	C	0.616602	-0.000156	0.380154
	C123	C	0.372863	0.982817	0.378990
	C124	C	0.615377	0.371638	0.010018
	C125	C	0.615164	0.614197	0.992462
	C126	C	0.371959	0.614397	0.009940
	C127	C	0.372713	0.371930	0.992808
	C128	C	0.003366	0.612816	0.380150
	C129	C	0.986388	0.612914	0.622524
	C130	C	0.002085	0.369009	0.623173
	C131	C	0.985776	0.368799	0.379399
	C132	C	0.871449	0.501391	0.123794
	C133	C	0.115347	0.484114	0.123056
	C134	C	0.114514	0.501133	0.880679
	C135	C	0.871169	0.484376	0.880364
	C136	C	0.117277	0.868854	0.509853
	C137	C	0.115232	0.111084	0.492094
	C138	C	0.873400	0.111497	0.509675
	C139	C	0.873668	0.869341	0.492828
	C140	C	0.502818	0.115551	0.878455
	C141	C	0.486379	0.113574	0.121880
	C142	C	0.502494	0.870178	0.123070
	C143	C	0.486364	0.871721	0.880090
	C144	C	0.375019	0.878300	0.679733
	C145	C	0.617492	0.104468	0.679536
	C146	C	0.614955	0.878259	0.322641
	C147	C	0.372736	0.104753	0.321138
	C148	C	0.673222	0.372110	0.888178
	C149	C	0.671387	0.613079	0.115169
	C150	C	0.314202	0.615555	0.888297
	C151	C	0.314544	0.370194	0.114565
	C152	C	0.882171	0.670301	0.380239
	C153	C	0.107390	0.670664	0.623844
	C154	C	0.881494	0.310440	0.623158
	C155	C	0.106889	0.310943	0.378413
	C156	C	0.880794	0.369229	0.680389
	C157	C	0.106694	0.613864	0.682294
	C158	C	0.881070	0.611059	0.324335
	C159	C	0.106919	0.369326	0.321226
	C160	C	0.372481	0.671768	0.887780
	C161	C	0.613357	0.669947	0.115092
	C162	C	0.616260	0.314614	0.887976
	C163	C	0.372304	0.312600	0.114270
	C164	C	0.672971	0.877854	0.380095
	C165	C	0.675596	0.103824	0.622724
	C166	C	0.317225	0.877948	0.622220
	C167	C	0.312593	0.102934	0.375989
	C168	C	0.871963	0.379565	0.180927
	C169	C	0.114834	0.605247	0.181356
	C170	C	0.114581	0.379738	0.822608
	C171	C	0.871872	0.605858	0.821896
	C172	C	0.175355	0.867469	0.388373
	C173	C	0.174370	0.112185	0.613406
	C174	C	0.815854	0.111828	0.387869
	C175	C	0.816848	0.868990	0.615181
	C176	C	0.381799	0.173530	0.877811
	C177	C	0.607383	0.171612	0.121959
	C178	C	0.381000	0.812706	0.123564
	C179	C	0.607211	0.813684	0.880522
	C180	C	0.381320	0.870705	0.181054
	C181	C	0.607690	0.113851	0.179601
	C182	C	0.381837	0.115112	0.820356
	C183	C	0.608365	0.872846	0.824029
	C184	C	0.872554	0.169676	0.387692
	C185	C	0.116452	0.169157	0.613830
	C186	C	0.117039	0.811512	0.388069
	C187	C	0.875209	0.812320	0.615363
	C188	C	0.175170	0.381390	0.877323
	C189	C	0.173839	0.605005	0.125103
	C190	C	0.813450	0.380318	0.124465
	C191	C	0.814767	0.606312	0.880095
	C192	C	0.396985	0.084337	0.596560
	C193	C	0.593327	0.897934	0.599445
	C194	C	0.593628	0.084650	0.403825
	C195	C	0.397358	0.898690	0.403621
	C196	C	0.591099	0.395090	0.094667
	C197	C	0.592103	0.590945	0.907156
	C198	C	0.395843	0.589969	0.094757
	C199	C	0.397096	0.397304	0.908664
	C200	C	0.088138	0.589477	0.403334
	C201	C	0.902197	0.588940	0.597846
	C202	C	0.086265	0.393439	0.599103
	C203	C	0.901638	0.392474	0.403800
	C204	C	0.894794	0.586404	0.100342
	C205	C	0.091378	0.399945	0.098018
	C206	C	0.090226	0.585314	0.905483
	C207	C	0.894420	0.399449	0.904581
	C208	C	0.094027	0.892774	0.594725
	C209	C	0.090765	0.086872	0.407614
	C210	C	0.897689	0.087668	0.594512
	C211	C	0.896481	0.892856	0.407577
	C212	C	0.587336	0.091857	0.902761
	C213	C	0.401901	0.089738	0.098055
	C214	C	0.586808	0.893591	0.098995
	C215	C	0.401901	0.895440	0.903143
	Zn216	Zn	0.494737	-0.007574	0.750172
	Zn217	Zn	0.494999	-0.007553	0.251313
	Zn218	Zn	0.743241	0.492942	0.001993
	Zn219	Zn	0.244021	0.493363	0.001566
	Zn220	Zn	-0.004415	0.741843	0.501047
	Zn221	Zn	-0.005432	0.239632	0.501082
	Zn222	Zn	-0.006925	0.492381	0.751648
	Zn223	Zn	-0.006125	0.491637	0.251310
	Zn224	Zn	0.493579	0.741537	0.001200
	Zn225	Zn	0.494446	0.243394	0.000771
	Zn226	Zn	0.745221	-0.009660	0.501396
	Zn227	Zn	0.244433	-0.009600	0.500413
	N228	N	0.409353	0.955282	0.679383
	N229	N	0.581743	0.028164	0.679718
	N230	N	0.580587	0.955083	0.322499
	N231	N	0.409546	0.029057	0.322815
	N232	N	0.672924	0.406848	0.965109
	N233	N	0.672978	0.579555	0.037649
	N234	N	0.313763	0.580654	0.965412
	N235	N	0.314412	0.406132	0.037861
	N236	N	0.959153	0.671325	0.414269
	N237	N	0.031536	0.670068	0.587386
	N238	N	0.957975	0.310285	0.588321
	N239	N	0.030580	0.310324	0.413800
	N240	N	0.956900	0.404936	0.680611
	N241	N	0.030402	0.578570	0.681511
	N242	N	0.957418	0.575966	0.324113
	N243	N	0.030636	0.404411	0.321559
	N244	N	0.407394	0.671380	0.964642
	N245	N	0.579231	0.670596	0.037896
	N246	N	0.580775	0.314162	0.964524
	N247	N	0.407835	0.313606	0.037725
	N248	N	0.674058	0.954562	0.414929
	N249	N	0.675187	0.027070	0.588091
	N250	N	0.316657	0.954321	0.586347
	N251	N	0.312388	0.026215	0.411039
	N252	N	0.907389	0.455914	0.180654
	N253	N	0.079329	0.529036	0.180327
	N254	N	0.077685	0.455358	0.824347
	N255	N	0.906369	0.529000	0.821892
	N256	N	0.175573	0.902369	0.465087
	N257	N	0.173877	0.076697	0.536650
	N258	N	0.816285	0.076475	0.464588
	N259	N	0.815571	0.903480	0.537922
	N260	N	0.458190	0.173873	0.913064
	N261	N	0.530791	0.171754	0.086815
	N262	N	0.457362	0.812314	0.088098
	N263	N	0.530451	0.812944	0.914640
	N264	N	0.457750	0.905672	0.181028
	N265	N	0.531442	0.078408	0.179613
	N266	N	0.458141	0.080127	0.820342
	N267	N	0.532023	0.908124	0.823456
	N268	N	0.907763	0.169880	0.464578
	N269	N	0.080489	0.168573	0.537496
	N270	N	0.081565	0.812280	0.464541
	N271	N	0.909867	0.812361	0.538297
	N272	N	0.174916	0.457799	0.912754
	N273	N	0.174415	0.528530	0.089619
	N274	N	0.813081	0.457020	0.089568
	N275	N	0.814252	0.529711	0.915681
	O276	O	0.466774	0.547798	0.371357
	H277	H	0.456279	0.537410	0.366980
	H278	H	0.461407	0.540542	0.386909
	O279	O	0.327982	0.373632	0.617620
	H280	H	0.331686	0.379874	0.601601
	H281	H	0.323419	0.380268	0.624750
	O282	O	1.018160	0.134439	0.995080
	H283	H	1.027966	0.144053	0.985227
	H284	H	1.016900	0.143144	0.995869
	O285	O	0.938158	1.155135	0.838236
	H286	H	0.941395	1.157862	0.827872
	H287	H	0.940755	1.159165	0.851996
	O288	O	1.107129	0.991054	0.891690
	H289	H	1.112454	0.990596	0.903727
	H290	H	1.113038	1.008584	0.896937
	O291	O	-0.120067	0.919227	0.031649
	H292	H	-0.114913	0.906448	0.024007
	H293	H	-0.144438	0.920875	0.024696
	O294	O	0.481582	0.505267	0.624227
	H295	H	0.497257	0.499742	0.630491
	H296	H	0.491694	0.499463	0.642804
	O297	O	0.391348	0.552273	0.668274
	H298	H	0.402187	0.550386	0.673402
	H299	H	0.381131	0.559136	0.664679
	O300	O	0.388467	0.306254	0.536658
	H301	H	0.400242	0.301092	0.510466
	H302	H	0.393866	0.310161	0.531188
	O303	O	0.641340	0.526231	0.504420
	H304	H	0.637565	0.529646	0.506593
	H305	H	0.643759	0.519177	0.495745
	O306	O	0.592840	0.390000	0.478317
	H307	H	0.601733	0.396752	0.459000
	H308	H	0.593841	0.388305	0.487311
	O309	O	0.614329	0.447547	0.475241
	H310	H	0.605859	0.451224	0.463590
	H311	H	0.623042	0.444678	0.468144
	O312	O	-0.127798	-0.053568	0.082166
	H313	H	-0.133091	-0.060651	0.077843
	H314	H	-0.114271	-0.050697	0.073478
	O315	O	0.980831	0.841926	-0.009243
	H316	H	0.981284	0.837311	-0.024901
	H317	H	0.992407	0.835253	-0.009529
	O318	O	0.064004	1.033224	0.935467
	H319	H	0.077448	1.039832	0.935177
	H320	H	0.072450	1.028611	0.944040
	O321	O	1.024203	-0.144920	0.937685
	H322	H	1.022281	-0.127692	0.942523
	H323	H	1.034502	-0.155690	0.940932
	O324	O	0.429929	0.567662	-0.540854
	H325	H	0.430418	0.578490	-0.533817
	H326	H	0.429678	0.555449	-0.530305
	O327	O	0.449181	0.579611	0.435339
	H328	H	0.452854	0.573040	0.439404
	H329	H	0.426866	0.596886	0.430423
	O330	O	-0.000689	0.094255	0.959629
	H331	H	0.003970	0.108514	0.959268
	H332	H	-0.003601	0.094023	0.966579
	O333	O	0.014544	-0.142679	0.995251
	H334	H	0.014105	-0.145577	0.990104
	H335	H	0.001434	-0.131363	0.993724
	O336	O	0.642416	0.498933	0.470897
	H337	H	0.644942	0.502811	0.479622
	H338	H	0.654777	0.493698	0.466644
	O339	O	0.956282	0.137446	-0.091300
	H340	H	0.948741	0.142410	-0.116059
	H341	H	0.967455	0.138067	-0.090952
	O342	O	0.114154	-0.037783	0.062089
	H343	H	0.110746	-0.045530	0.047145
	H344	H	0.117971	-0.035704	0.061828
	O345	O	0.704541	-0.096804	1.250057
	H346	H	0.710497	-0.109979	1.245633
	H347	H	0.700490	-0.111242	1.248462
	O348	O	0.916209	1.068816	0.077051
	H349	H	0.899743	1.070551	0.087752
	H350	H	0.907641	1.071742	0.073813
	O351	O	0.328242	0.340562	0.506150
	H352	H	0.323615	0.342702	0.499037
	H353	H	0.344880	0.345824	0.483671
	O354	O	0.851955	0.032735	0.809361
	H355	H	0.860850	0.041950	0.820437
	H356	H	0.834481	0.035705	0.808441
	O357	O	0.531989	0.631527	0.548010
	H358	H	0.522476	0.627016	0.560334
	H359	H	0.530840	0.641653	0.546843
	O360	O	0.465920	0.594721	0.377513
	H361	H	0.450874	0.596506	0.383377
	H362	H	0.463607	0.612091	0.364714
	O363	O	0.127283	1.114232	1.086287
	H364	H	0.137532	1.082270	1.097036
	H365	H	0.115037	1.124221	1.105586
	O366	O	0.358206	0.447154	0.411470
	H367	H	0.365780	0.437453	0.405842
	H368	H	0.374402	0.448301	0.427576
	O369	O	0.186561	1.111024	-0.011397
	H370	H	0.183410	1.096104	0.004590
	H371	H	0.202202	1.115759	-0.006759
	O372	O	0.063506	0.931424	-0.104084
	H373	H	0.065031	0.939675	-0.105202
	H374	H	0.070644	0.924069	-0.096973
	O375	O	0.398901	0.470272	0.355862
	H376	H	0.396188	0.467365	0.349760
	H377	H	0.396853	0.475087	0.371213
	O378	O	0.385061	0.441025	0.529637
	H379	H	0.385466	0.439865	0.524714
	H380	H	0.389915	0.437197	0.542465
	O381	O	0.808535	-0.004521	0.025948
	H382	H	0.787610	-0.008451	0.030932
	H383	H	0.824042	0.008758	0.029022
	O384	O	1.106144	1.046857	0.190965
	H385	H	1.086685	1.033365	0.192653
	H386	H	1.117360	1.042236	0.207692
	O387	O	-0.040178	-0.118034	-0.062512
	H388	H	-0.040352	-0.102075	-0.061525
	H389	H	-0.019961	-0.118938	-0.045165
	O390	O	0.092964	0.960311	0.128180
	H391	H	0.069873	0.947354	0.128393
	H392	H	0.097365	0.964526	0.128436
	O393	O	1.024982	1.054828	1.035472
	H394	H	1.031986	1.055087	1.035395
	H395	H	1.027474	1.061731	1.046694
	O396	O	0.490016	0.310072	0.710591
	H397	H	0.476148	0.286399	0.729760
	H398	H	0.464798	0.306483	0.708359
	O399	O	-0.137151	0.841138	1.119441
	H400	H	-0.132462	0.836753	1.099313
	H401	H	-0.133428	0.855478	1.112652
	O402	O	0.569334	0.548765	0.547189
	H403	H	0.557023	0.562748	0.547976
	H404	H	0.582086	0.546155	0.551126
	O405	O	1.627128	1.419153	0.637140
	H406	H	1.628374	1.427499	0.642503
	H407	H	1.636570	1.423512	0.631147
	O408	O	1.023361	0.840093	0.060171
	H409	H	0.992686	0.844614	0.052785
	H410	H	1.023597	0.831875	0.055519
	O411	O	0.610085	-0.509722	0.458881
	H412	H	0.623614	-0.509153	0.463291
	H413	H	0.613787	-0.532899	0.451262
	O414	O	0.472124	0.514721	0.528365
	H415	H	0.470034	0.503270	0.546474
	H416	H	0.456433	0.498070	0.519815
	O417	O	0.660464	0.575418	0.457458
	H418	H	0.651649	0.576252	0.456776
	H419	H	0.651503	0.589403	0.455373
