data_Molecule from HDF5

_cell_length_a		16.185577
_cell_length_b		16.330793
_cell_length_c		16.205707
_cell_angle_alpha	90.128584
_cell_angle_beta	90.030030
_cell_angle_gamma	89.548094
_symmetry_space_group_name_H-M	'P 1'
_symmetry_Int_Tables_number		1

loop_
	_symmetry_equiv_pos_as_xyz
	x,y,z

loop_
	_atom_site_label
	_atom_site_type_symbol
	_atom_site_fract_x
	_atom_site_fract_y
	_atom_site_fract_z
	H0	H	0.400412	0.836322	0.719161
	H1	H	0.596187	0.162251	0.719985
	H2	H	0.601333	0.838257	0.285336
	H3	H	0.393247	0.161656	0.287461
	H4	H	0.713480	0.400197	0.839848
	H5	H	0.713182	0.598509	0.168217
	H6	H	0.284225	0.600152	0.839696
	H7	H	0.283993	0.400124	0.165985
	H8	H	0.834590	0.715722	0.403131
	H9	H	0.161713	0.714167	0.604473
	H10	H	0.834463	0.285764	0.606741
	H11	H	0.160005	0.277698	0.400016
	H12	H	0.834144	0.403969	0.718696
	H13	H	0.163209	0.596772	0.717010
	H14	H	0.835452	0.600061	0.289453
	H15	H	0.162003	0.395229	0.287359
	H16	H	0.397237	0.716764	0.840649
	H17	H	0.602511	0.718149	0.165606
	H18	H	0.603548	0.281123	0.841579
	H19	H	0.397239	0.283248	0.165439
	H20	H	0.715889	0.836895	0.403177
	H21	H	0.714229	0.161796	0.606499
	H22	H	0.283949	0.835737	0.603298
	H23	H	0.278239	0.160448	0.403348
	H24	H	0.898935	0.337222	0.221833
	H25	H	0.098811	0.661696	0.222221
	H26	H	0.100330	0.336934	0.787593
	H27	H	0.899128	0.664098	0.791257
	H28	H	0.213599	0.897293	0.340468
	H29	H	0.210488	0.096787	0.667630
	H30	H	0.781918	0.099302	0.340407
	H31	H	0.786282	0.902014	0.668439
	H32	H	0.336061	0.217896	0.901825
	H33	H	0.662020	0.214665	0.104872
	H34	H	0.335913	0.784025	0.104733
	H35	H	0.662112	0.781898	0.902739
	H36	H	0.334137	0.901332	0.218671
	H37	H	0.661464	0.100171	0.220450
	H38	H	0.333445	0.099655	0.790745
	H39	H	0.663162	0.899362	0.789520
	H40	H	0.892356	0.218966	0.341688
	H41	H	0.097503	0.214323	0.666945
	H42	H	0.099221	0.782714	0.340749
	H43	H	0.898938	0.785707	0.667485
	H44	H	0.217141	0.337619	0.902713
	H45	H	0.214529	0.662854	0.105100
	H46	H	0.784785	0.335919	0.103538
	H47	H	0.781254	0.662156	0.905796
	H48	H	0.407864	0.112654	0.593757
	H49	H	0.592905	0.881810	0.601743
	H50	H	0.590802	0.113907	0.413779
	H51	H	0.405708	0.883122	0.410115
	H52	H	0.583974	0.400016	0.120943
	H53	H	0.576916	0.587157	0.892061
	H54	H	0.410128	0.595923	0.119945
	H55	H	0.420862	0.407387	0.889738
	H56	H	0.117290	0.599645	0.418104
	H57	H	0.881390	0.590422	0.599384
	H58	H	0.118845	0.398351	0.601626
	H59	H	0.885282	0.407095	0.424379
	H60	H	0.114207	0.403922	0.586065
	H61	H	0.878755	0.597602	0.601184
	H62	H	0.111548	0.582707	0.419331
	H63	H	0.885030	0.421323	0.411684
	H64	H	0.405200	0.593728	0.121808
	H65	H	0.592667	0.603981	0.882202
	H66	H	0.599942	0.404276	0.124537
	H67	H	0.404181	0.399428	0.881416
	H68	H	0.587632	0.115244	0.411378
	H69	H	0.587196	0.885496	0.595168
	H70	H	0.397501	0.115989	0.594634
	H71	H	0.410111	0.883737	0.411570
	H72	H	0.899821	0.618730	0.102855
	H73	H	0.084965	0.389277	0.087960
	H74	H	0.086133	0.614530	0.910683
	H75	H	0.895432	0.383718	0.921956
	H76	H	0.085478	0.897373	0.621447
	H77	H	0.089993	0.091613	0.385858
	H78	H	0.911821	0.083137	0.615983
	H79	H	0.912680	0.906826	0.389126
	H80	H	0.616661	0.093113	0.911664
	H81	H	0.381602	0.095651	0.093600
	H82	H	0.615105	0.912087	0.099155
	H83	H	0.382063	0.906643	0.915574
	H84	H	0.616951	0.902390	0.096235
	H85	H	0.382759	0.090939	0.092362
	H86	H	0.614572	0.088964	0.913990
	H87	H	0.382387	0.910324	0.909643
	H88	H	0.912396	0.103950	0.622516
	H89	H	0.087165	0.084860	0.388713
	H90	H	0.100056	0.903717	0.625611
	H91	H	0.905132	0.901998	0.384308
	H92	H	0.094803	0.616233	0.913997
	H93	H	0.101503	0.382580	0.090116
	H94	H	0.915450	0.612327	0.098590
	H95	H	0.903479	0.377983	0.893648
	H96	H	0.404485	0.116885	0.602936
	H97	H	0.596410	0.883325	0.592520
	H98	H	0.587002	0.114431	0.415127
	H99	H	0.407121	0.884730	0.413912
	H100	H	0.589519	0.414436	0.117847
	H101	H	0.600864	0.580742	0.886263
	H102	H	0.408840	0.590209	0.119611
	H103	H	0.404112	0.418441	0.887739
	H104	H	0.118033	0.588864	0.404066
	H105	H	0.880534	0.595827	0.593562
	H106	H	0.113927	0.413951	0.598969
	H107	H	0.878521	0.403930	0.406461
	H108	H	0.903064	0.612128	0.087374
	H109	H	0.089996	0.382278	0.104261
	H110	H	0.093908	0.618507	0.905681
	H111	H	0.924384	0.389730	0.913841
	H112	H	0.088181	0.912954	0.618964
	H113	H	0.081763	0.091006	0.387959
	H114	H	0.894349	0.092742	0.624171
	H115	H	0.903488	0.911117	0.386929
	H116	H	0.615753	0.088814	0.908644
	H117	H	0.380676	0.091965	0.097684
	H118	H	0.613229	0.910227	0.089276
	H119	H	0.379077	0.904238	0.909667
	C120	C	0.375425	0.007702	0.625896
	C121	C	0.620493	0.991047	0.626092
	C122	C	0.619985	0.008046	0.382326
	C123	C	0.376042	0.990589	0.382254
	C124	C	0.621447	0.376842	0.012991
	C125	C	0.619968	0.620456	0.995186
	C126	C	0.377907	0.622174	0.012078
	C127	C	0.379204	0.379148	0.994163
	C128	C	0.007591	0.620913	0.383411
	C129	C	0.989175	0.622181	0.625994
	C130	C	0.007185	0.378349	0.625372
	C131	C	0.990164	0.378332	0.383151
	C132	C	0.877118	0.507222	0.125702
	C133	C	0.121182	0.491779	0.125201
	C134	C	0.121846	0.508994	0.880867
	C135	C	0.877535	0.491404	0.881969
	C136	C	0.120319	0.875815	0.513411
	C137	C	0.117238	0.119279	0.495117
	C138	C	0.875297	0.122703	0.512712
	C139	C	0.877736	0.878097	0.495237
	C140	C	0.507331	0.120604	0.882559
	C141	C	0.489424	0.121798	0.124785
	C142	C	0.507078	0.878945	0.124774
	C143	C	0.489915	0.877286	0.882346
	C144	C	0.379349	0.884966	0.681141
	C145	C	0.617395	0.113520	0.682434
	C146	C	0.620318	0.886472	0.324371
	C147	C	0.374803	0.112951	0.326049
	C148	C	0.676915	0.379035	0.889569
	C149	C	0.675580	0.618796	0.118921
	C150	C	0.321765	0.620361	0.889015
	C151	C	0.322132	0.380264	0.117158
	C152	C	0.884204	0.677755	0.383762
	C153	C	0.112799	0.676517	0.624184
	C154	C	0.883461	0.324026	0.625332
	C155	C	0.111773	0.317849	0.381619
	C156	C	0.883428	0.382656	0.681433
	C157	C	0.113532	0.618222	0.680252
	C158	C	0.884442	0.619953	0.327138
	C159	C	0.112949	0.376496	0.325657
	C160	C	0.378253	0.678193	0.889341
	C161	C	0.620697	0.678441	0.117482
	C162	C	0.621888	0.319883	0.890309
	C163	C	0.378292	0.321917	0.116721
	C164	C	0.677523	0.885922	0.382946
	C165	C	0.676059	0.113099	0.625584
	C166	C	0.321023	0.884929	0.623767
	C167	C	0.317144	0.112280	0.383388
	C168	C	0.879062	0.385403	0.182713
	C169	C	0.119121	0.613531	0.183076
	C170	C	0.120323	0.385966	0.825444
	C171	C	0.878960	0.614716	0.828137
	C172	C	0.175921	0.877462	0.389735
	C173	C	0.173301	0.117402	0.618438
	C174	C	0.819055	0.120327	0.389730
	C175	C	0.823187	0.881362	0.619047
	C176	C	0.384488	0.178604	0.882819
	C177	C	0.612960	0.176798	0.124404
	C178	C	0.384475	0.822691	0.124397
	C179	C	0.613275	0.820550	0.883278
	C180	C	0.383603	0.880965	0.180999
	C181	C	0.612508	0.120093	0.182140
	C182	C	0.383172	0.119648	0.827658
	C183	C	0.613504	0.878897	0.826754
	C184	C	0.874270	0.179672	0.390414
	C185	C	0.116875	0.175942	0.618012
	C186	C	0.119103	0.820264	0.390053
	C187	C	0.879478	0.823330	0.618570
	C188	C	0.178840	0.386309	0.882609
	C189	C	0.176756	0.614008	0.124806
	C190	C	0.822207	0.384670	0.123949
	C191	C	0.820297	0.613980	0.885168
	C192	C	0.397042	0.093110	0.603710
	C193	C	0.598472	0.905638	0.603185
	C194	C	0.595474	0.092635	0.406508
	C195	C	0.400517	0.905888	0.405249
	C196	C	0.597909	0.399593	0.098802
	C197	C	0.596958	0.597451	0.909277
	C198	C	0.401045	0.599830	0.098192
	C199	C	0.402914	0.401796	0.908716
	C200	C	0.093422	0.597324	0.406790
	C201	C	0.902708	0.601043	0.604279
	C202	C	0.093340	0.399023	0.602172
	C203	C	0.904869	0.403709	0.407078
	C204	C	0.899709	0.592351	0.102857
	C205	C	0.098791	0.406726	0.101339
	C206	C	0.098472	0.594304	0.903493
	C207	C	0.900852	0.405866	0.903770
	C208	C	0.097629	0.898144	0.599663
	C209	C	0.093302	0.095851	0.409610
	C210	C	0.899085	0.099849	0.598612
	C211	C	0.900445	0.900361	0.409151
	C212	C	0.593432	0.097275	0.905201
	C213	C	0.403764	0.099482	0.101411
	C214	C	0.592728	0.901484	0.101563
	C215	C	0.403418	0.900320	0.904915
	Zn216	Zn	0.498040	-0.000412	0.754617
	Zn217	Zn	0.497602	0.000735	0.253381
	Zn218	Zn	0.747848	0.498606	0.004203
	Zn219	Zn	0.250613	0.500442	0.003199
	Zn220	Zn	-0.001743	0.748917	0.503965
	Zn221	Zn	-0.002533	0.249524	0.503866
	Zn222	Zn	-0.000874	0.500550	0.752591
	Zn223	Zn	-0.000765	0.499481	0.255183
	Zn224	Zn	0.499326	0.749810	0.003890
	Zn225	Zn	0.499406	0.249415	0.002896
	Zn226	Zn	0.749472	-0.000591	0.504363
	Zn227	Zn	0.246421	-0.001735	0.503201
	N228	N	0.412459	0.962307	0.682822
	N229	N	0.583365	0.036684	0.682769
	N230	N	0.585177	0.963476	0.323699
	N231	N	0.410678	0.036325	0.324981
	N232	N	0.676860	0.413575	0.966913
	N233	N	0.675480	0.583650	0.041855
	N234	N	0.321310	0.586478	0.966569
	N235	N	0.322473	0.415043	0.039956
	N236	N	0.961852	0.678300	0.418227
	N237	N	0.034537	0.679164	0.591268
	N238	N	0.961313	0.321036	0.591128
	N239	N	0.034524	0.319046	0.416769
	N240	N	0.961307	0.415602	0.681736
	N241	N	0.035656	0.585085	0.681359
	N242	N	0.962150	0.585209	0.326643
	N243	N	0.036307	0.413655	0.326659
	N244	N	0.412647	0.679406	0.967045
	N245	N	0.586735	0.679406	0.039706
	N246	N	0.588259	0.318020	0.968165
	N247	N	0.413122	0.320901	0.039298
	N248	N	0.677510	0.962509	0.418240
	N249	N	0.678183	0.035919	0.591438
	N250	N	0.318533	0.962069	0.590113
	N251	N	0.317926	0.035308	0.417730
	N252	N	0.912719	0.462510	0.183706
	N253	N	0.085369	0.536503	0.183581
	N254	N	0.085452	0.463075	0.824473
	N255	N	0.913910	0.537605	0.825925
	N256	N	0.177013	0.911192	0.467520
	N257	N	0.173536	0.082853	0.541042
	N258	N	0.819637	0.085787	0.466958
	N259	N	0.822077	0.914854	0.541268
	N260	N	0.462652	0.179392	0.916190
	N261	N	0.535414	0.178282	0.089586
	N262	N	0.462186	0.821190	0.090273
	N263	N	0.535198	0.819364	0.916681
	N264	N	0.460922	0.915307	0.181312
	N265	N	0.534622	0.086948	0.182868
	N266	N	0.460483	0.084199	0.827356
	N267	N	0.535765	0.913446	0.825969
	N268	N	0.908549	0.181270	0.468097
	N269	N	0.082684	0.177059	0.540335
	N270	N	0.085426	0.818983	0.467992
	N271	N	0.912726	0.821218	0.540560
	N272	N	0.179724	0.463634	0.916557
	N273	N	0.178014	0.537386	0.089331
	N274	N	0.820874	0.461418	0.089252
	N275	N	0.819285	0.536349	0.917914
	O276	O	1.071148	-0.049648	0.996208
	H277	H	1.071661	-0.050043	0.995775
	H278	H	1.070144	-0.043927	0.992516
	O279	O	0.500959	0.639907	0.427276
	H280	H	0.491171	0.637084	0.424269
	H281	H	0.496477	0.648639	0.439452
	O282	O	0.533375	0.590383	0.449454
	H283	H	0.523109	0.598982	0.464854
	H284	H	0.529059	0.584698	0.450131
	O285	O	0.564166	0.461236	0.463015
	H286	H	0.577999	0.458513	0.472989
	H287	H	0.558809	0.461857	0.449792
	O288	O	0.458436	0.570930	0.480420
	H289	H	0.467186	0.564389	0.471556
	H290	H	0.452665	0.576443	0.480320
	O291	O	-0.025279	0.119065	0.910394
	H292	H	-0.020736	0.102843	0.919305
	H293	H	-0.020958	0.129125	0.902084
	O294	O	0.935407	1.121368	-0.077038
	H295	H	0.936601	1.129558	-0.086610
	H296	H	0.936538	1.136370	-0.078052
	O297	O	1.023643	0.918936	0.057109
	H298	H	1.022660	0.911886	0.054895
	H299	H	1.018781	0.925094	0.062736
	O300	O	0.648771	0.399767	0.411110
	H301	H	0.646479	0.410200	0.405674
	H302	H	0.653450	0.416932	0.407864
	O303	O	0.483537	0.566204	0.516963
	H304	H	0.476801	0.565956	0.524871
	H305	H	0.474218	0.560814	0.515583
	O306	O	0.507715	0.491950	0.451880
	H307	H	0.502533	0.489095	0.451166
	H308	H	0.500886	0.478574	0.475704
	O309	O	0.496654	0.456435	0.470542
	H310	H	0.497773	0.459331	0.466887
	H311	H	0.504059	0.449098	0.452446
	O312	O	1.006818	0.932630	1.042877
	H313	H	1.005562	0.946938	1.049775
	H314	H	0.993106	0.928993	1.040384
	O315	O	1.105971	1.043322	-0.001565
	H316	H	1.112747	1.044385	0.002512
	H317	H	1.103164	1.047399	0.000782
	O318	O	0.514263	0.544532	0.459555
	H319	H	0.507502	0.533450	0.458167
	H320	H	0.509478	0.540527	0.457860
	O321	O	0.473826	0.403073	0.643815
	H322	H	0.484464	0.405319	0.656763
	H323	H	0.481662	0.407701	0.634982
	O324	O	-0.108333	1.020560	0.994351
	H325	H	-0.112438	1.011989	0.982926
	H326	H	-0.110724	1.018187	0.997952
	O327	O	-0.028364	1.036581	1.046872
	H328	H	-0.032797	1.046283	1.051880
	H329	H	-0.029535	1.028525	1.046838
	O330	O	0.108648	-0.108128	-0.025737
	H331	H	0.121342	-0.110621	-0.042852
	H332	H	0.104297	-0.104528	-0.036736
	O333	O	0.359520	0.455291	0.578827
	H334	H	0.350546	0.447208	0.570557
	H335	H	0.360786	0.451086	0.580985
	O336	O	0.086542	-0.041860	-0.083230
	H337	H	0.082925	-0.040934	-0.100198
	H338	H	0.084395	-0.039841	-0.081813
	O339	O	-0.034877	0.084683	0.073046
	H340	H	-0.034329	0.083278	0.081375
	H341	H	-0.034955	0.080544	0.082656
	O342	O	0.407325	0.606020	0.455746
	H343	H	0.403634	0.594512	0.463550
	H344	H	0.407284	0.598671	0.450406
	O345	O	-0.048609	0.987235	1.047655
	H346	H	-0.044547	0.992630	1.044662
	H347	H	-0.065077	0.983901	1.046734
	O348	O	0.391128	0.475301	0.486503
	H349	H	0.393163	0.464461	0.480971
	H350	H	0.397169	0.492685	0.490988
	O351	O	0.465210	0.415718	0.473387
	H352	H	0.468683	0.410924	0.466978
	H353	H	0.470423	0.422968	0.478460
	O354	O	0.034299	1.093093	-0.001032
	H355	H	0.040270	1.091809	0.001434
	H356	H	0.023899	1.085724	0.000390
	O357	O	0.590384	0.381995	0.506910
	H358	H	0.586174	0.372266	0.495211
	H359	H	0.603614	0.386674	0.501827
	O360	O	0.882837	-0.072497	1.006881
	H361	H	0.878863	-0.076865	1.017450
	H362	H	0.884262	-0.067470	1.006559
	O363	O	0.650759	0.324332	0.505030
	H364	H	0.658082	0.339380	0.492074
	H365	H	0.666446	0.315967	0.491562
	O366	O	0.500347	0.543432	0.557801
	H367	H	0.482611	0.533963	0.545008
	H368	H	0.492905	0.532612	0.559444
	O369	O	0.938984	0.042350	0.052816
	H370	H	0.934209	0.039634	0.049190
	H371	H	0.940793	0.053799	0.054644
	O372	O	0.431409	0.459147	0.573430
	H373	H	0.429978	0.445632	0.573610
	H374	H	0.424284	0.472001	0.580758
	O375	O	0.946931	0.036455	1.065178
	H376	H	0.957849	0.029576	1.064932
	H377	H	0.946597	0.027056	1.062323
	O378	O	-0.555323	1.557953	-0.459266
	H379	H	-0.543799	1.556869	-0.454579
	H380	H	-0.564937	1.563451	-0.462381
	O381	O	0.600796	0.498148	0.523053
	H382	H	0.599017	0.511490	0.520040
	H383	H	0.607729	0.515363	0.526502
	O384	O	1.064570	0.947233	-0.062663
	H385	H	1.069312	0.943513	-0.064312
	H386	H	1.060549	0.947225	-0.062699
	O387	O	1.025670	0.039444	1.020706
	H388	H	1.043885	0.043273	1.016921
	H389	H	1.019951	0.034654	1.014617
	O390	O	0.939096	0.889624	0.035940
	H391	H	0.935887	0.889214	0.033411
	H392	H	0.942919	0.891741	0.042176
	O393	O	0.430505	0.580160	0.383004
	H394	H	0.440639	0.578097	0.377752
	H395	H	0.426123	0.585644	0.386121
