data_Molecule from HDF5

_cell_length_a		16.297889
_cell_length_b		16.190094
_cell_length_c		16.181102
_cell_angle_alpha	90.200454
_cell_angle_beta	89.981918
_cell_angle_gamma	89.750844
_symmetry_space_group_name_H-M	'P 1'
_symmetry_Int_Tables_number		1

loop_
	_symmetry_equiv_pos_as_xyz
	x,y,z

loop_
	_atom_site_label
	_atom_site_type_symbol
	_atom_site_fract_x
	_atom_site_fract_y
	_atom_site_fract_z
	H0	H	0.403611	0.835886	0.715618
	H1	H	0.595967	0.165796	0.716332
	H2	H	0.600330	0.837516	0.287921
	H3	H	0.401220	0.166198	0.289782
	H4	H	0.717352	0.399718	0.837027
	H5	H	0.716416	0.599839	0.165319
	H6	H	0.286318	0.601186	0.837012
	H7	H	0.285750	0.400709	0.164259
	H8	H	0.836880	0.716070	0.402692
	H9	H	0.163891	0.716518	0.599731
	H10	H	0.836158	0.289194	0.599677
	H11	H	0.162792	0.284079	0.402019
	H12	H	0.837470	0.404651	0.715847
	H13	H	0.164868	0.601072	0.715201
	H14	H	0.836364	0.599104	0.287192
	H15	H	0.163941	0.398924	0.285984
	H16	H	0.403010	0.715780	0.837147
	H17	H	0.599746	0.713539	0.166679
	H18	H	0.600353	0.286475	0.836673
	H19	H	0.406402	0.290690	0.166998
	H20	H	0.716827	0.837942	0.401442
	H21	H	0.713498	0.165829	0.603973
	H22	H	0.284601	0.836879	0.603188
	H23	H	0.283768	0.165264	0.403043
	H24	H	0.904853	0.335286	0.212317
	H25	H	0.098243	0.665472	0.215432
	H26	H	0.101274	0.336578	0.785529
	H27	H	0.903783	0.666181	0.788978
	H28	H	0.217832	0.899090	0.338019
	H29	H	0.214341	0.102585	0.665963
	H30	H	0.783493	0.101301	0.339021
	H31	H	0.785598	0.902598	0.666454
	H32	H	0.339089	0.217386	0.902996
	H33	H	0.666737	0.214544	0.100652
	H34	H	0.338446	0.786416	0.102661
	H35	H	0.665632	0.786839	0.904745
	H36	H	0.336810	0.904859	0.215546
	H37	H	0.664424	0.099764	0.218757
	H38	H	0.336586	0.098425	0.791174
	H39	H	0.664251	0.900089	0.785856
	H40	H	0.900386	0.213967	0.336702
	H41	H	0.097847	0.216647	0.665377
	H42	H	0.099367	0.786511	0.336762
	H43	H	0.902642	0.787860	0.666122
	H44	H	0.218284	0.337659	0.899484
	H45	H	0.215906	0.665132	0.101457
	H46	H	0.788299	0.336635	0.098054
	H47	H	0.785263	0.664807	0.900959
	H48	H	0.405936	0.115494	0.586776
	H49	H	0.589179	0.886580	0.592141
	H50	H	0.587209	0.118304	0.409926
	H51	H	0.410302	0.886271	0.416507
	H52	H	0.592115	0.410426	0.117511
	H53	H	0.600389	0.589397	0.882915
	H54	H	0.391857	0.591968	0.122926
	H55	H	0.403180	0.415043	0.883631
	H56	H	0.117668	0.602839	0.412649
	H57	H	0.883195	0.602935	0.591972
	H58	H	0.117885	0.403128	0.591109
	H59	H	0.884166	0.406790	0.412124
	H60	H	0.114128	0.411908	0.589361
	H61	H	0.886993	0.589430	0.590710
	H62	H	0.112947	0.585601	0.414181
	H63	H	0.884271	0.413974	0.403602
	H64	H	0.416099	0.579323	0.112099
	H65	H	0.588817	0.589686	0.886582
	H66	H	0.596390	0.402953	0.120904
	H67	H	0.417826	0.409853	0.886180
	H68	H	0.594431	0.117738	0.417409
	H69	H	0.598202	0.883033	0.590487
	H70	H	0.395778	0.122377	0.600206
	H71	H	0.402388	0.882515	0.409639
	H72	H	0.912658	0.616710	0.092672
	H73	H	0.096047	0.382967	0.094710
	H74	H	0.093385	0.618734	0.907530
	H75	H	0.913557	0.384429	0.906055
	H76	H	0.097265	0.911097	0.619002
	H77	H	0.091696	0.090372	0.385148
	H78	H	0.903652	0.095715	0.620826
	H79	H	0.913541	0.910461	0.386638
	H80	H	0.620961	0.098510	0.906150
	H81	H	0.388156	0.085174	0.095558
	H82	H	0.619037	0.900742	0.093739
	H83	H	0.382556	0.904636	0.904537
	H84	H	0.615521	0.913369	0.090861
	H85	H	0.381394	0.101413	0.105567
	H86	H	0.616096	0.092660	0.915140
	H87	H	0.385493	0.904416	0.914902
	H88	H	0.906771	0.092195	0.617962
	H89	H	0.090802	0.093088	0.384397
	H90	H	0.089202	0.912855	0.616872
	H91	H	0.905076	0.901541	0.380884
	H92	H	0.094168	0.618905	0.909641
	H93	H	0.092637	0.384124	0.092205
	H94	H	0.903337	0.618783	0.090597
	H95	H	0.906795	0.383821	0.911065
	H96	H	0.413566	0.118174	0.602859
	H97	H	0.593310	0.882382	0.599026
	H98	H	0.595911	0.121575	0.407205
	H99	H	0.412897	0.883991	0.405108
	H100	H	0.600768	0.410795	0.119672
	H101	H	0.594299	0.599839	0.881930
	H102	H	0.416581	0.608130	0.120716
	H103	H	0.406780	0.399276	0.880042
	H104	H	0.118994	0.591237	0.399024
	H105	H	0.882721	0.593756	0.602001
	H106	H	0.117608	0.409833	0.597964
	H107	H	0.880656	0.403849	0.402841
	H108	H	0.906479	0.620166	0.099776
	H109	H	0.096968	0.383464	0.090584
	H110	H	0.096023	0.618808	0.907677
	H111	H	0.906948	0.381809	0.903816
	H112	H	0.091543	0.904796	0.619796
	H113	H	0.093851	0.091426	0.384113
	H114	H	0.908868	0.097423	0.620105
	H115	H	0.900835	0.914050	0.384372
	H116	H	0.617790	0.086644	0.905501
	H117	H	0.386133	0.102785	0.086363
	H118	H	0.618982	0.909141	0.104099
	H119	H	0.386223	0.913497	0.908992
	C120	C	0.377700	0.009501	0.624790
	C121	C	0.621667	0.992664	0.623721
	C122	C	0.622132	0.010489	0.381581
	C123	C	0.378980	0.992879	0.381602
	C124	C	0.624179	0.379178	0.010414
	C125	C	0.623112	0.622018	0.992546
	C126	C	0.379439	0.622630	0.010025
	C127	C	0.380871	0.379588	0.992131
	C128	C	0.008750	0.622400	0.379360
	C129	C	0.992315	0.624061	0.623379
	C130	C	0.008697	0.380309	0.622106
	C131	C	0.991392	0.378497	0.378469
	C132	C	0.879818	0.509830	0.122323
	C133	C	0.123391	0.492134	0.122347
	C134	C	0.123838	0.510275	0.878502
	C135	C	0.880204	0.492389	0.879073
	C136	C	0.121555	0.879993	0.509912
	C137	C	0.120892	0.122060	0.492912
	C138	C	0.877450	0.123418	0.510973
	C139	C	0.878337	0.880230	0.492913
	C140	C	0.510224	0.121669	0.880883
	C141	C	0.493435	0.124163	0.124471
	C142	C	0.509627	0.879779	0.124395
	C143	C	0.492731	0.878300	0.880224
	C144	C	0.381933	0.885335	0.678932
	C145	C	0.617609	0.116582	0.679364
	C146	C	0.620407	0.886813	0.325779
	C147	C	0.380779	0.116703	0.327134
	C148	C	0.679041	0.380551	0.886142
	C149	C	0.678248	0.619872	0.116527
	C150	C	0.324295	0.621179	0.886237
	C151	C	0.324913	0.381465	0.115658
	C152	C	0.885595	0.678096	0.382024
	C153	C	0.115114	0.679050	0.620326
	C154	C	0.885577	0.325903	0.620354
	C155	C	0.114334	0.322274	0.381446
	C156	C	0.885906	0.383696	0.677820
	C157	C	0.115738	0.621482	0.677744
	C158	C	0.885556	0.619997	0.324452
	C159	C	0.114682	0.379557	0.323771
	C160	C	0.382297	0.678006	0.886414
	C161	C	0.620254	0.676388	0.117206
	C162	C	0.621158	0.324062	0.885987
	C163	C	0.384794	0.326610	0.116969
	C164	C	0.678467	0.887175	0.382319
	C165	C	0.675771	0.116465	0.623143
	C166	C	0.322384	0.886103	0.623137
	C167	C	0.322467	0.116268	0.383693
	C168	C	0.883903	0.384965	0.175441
	C169	C	0.119993	0.616166	0.178283
	C170	C	0.121582	0.385990	0.823148
	C171	C	0.882746	0.616560	0.825532
	C172	C	0.178813	0.880130	0.386720
	C173	C	0.176567	0.122012	0.616553
	C174	C	0.821935	0.121074	0.387511
	C175	C	0.823592	0.882307	0.617218
	C176	C	0.387303	0.178180	0.883523
	C177	C	0.617086	0.177714	0.121749
	C178	C	0.386835	0.824800	0.122279
	C179	C	0.616387	0.823741	0.883449
	C180	C	0.386124	0.883412	0.178946
	C181	C	0.616062	0.120717	0.180343
	C182	C	0.386136	0.119291	0.827644
	C183	C	0.615636	0.880074	0.824303
	C184	C	0.880251	0.177030	0.386484
	C185	C	0.118360	0.178551	0.616524
	C186	C	0.119932	0.824436	0.385843
	C187	C	0.881819	0.825537	0.617129
	C188	C	0.179687	0.386549	0.879645
	C189	C	0.178064	0.616041	0.121079
	C190	C	0.825896	0.385642	0.118866
	C191	C	0.823759	0.615874	0.881234
	C192	C	0.398866	0.096190	0.603055
	C193	C	0.600071	0.906245	0.600756
	C194	C	0.599241	0.096907	0.404663
	C195	C	0.401769	0.906445	0.403957
	C196	C	0.602681	0.401456	0.096962
	C197	C	0.600874	0.599816	0.906267
	C198	C	0.401481	0.599879	0.096261
	C199	C	0.402653	0.401562	0.905595
	C200	C	0.094627	0.599994	0.402080
	C201	C	0.906462	0.601856	0.601504
	C202	C	0.094297	0.401949	0.599476
	C203	C	0.905283	0.401267	0.399967
	C204	C	0.901224	0.596293	0.100657
	C205	C	0.101792	0.405855	0.099165
	C206	C	0.101149	0.596544	0.901490
	C207	C	0.902466	0.405622	0.900669
	C208	C	0.099201	0.902970	0.596020
	C209	C	0.098542	0.098583	0.406924
	C210	C	0.899716	0.101551	0.597340
	C211	C	0.900126	0.902193	0.406517
	C212	C	0.595995	0.099076	0.902526
	C213	C	0.407499	0.102877	0.102274
	C214	C	0.595703	0.901327	0.102554
	C215	C	0.407006	0.900722	0.902901
	Zn216	Zn	0.500731	0.000719	0.752056
	Zn217	Zn	0.500917	0.001610	0.253543
	Zn218	Zn	0.751697	0.501269	0.000910
	Zn219	Zn	0.251804	0.500905	0.000458
	Zn220	Zn	0.000146	0.752035	0.501009
	Zn221	Zn	-0.000626	0.250545	0.500644
	Zn222	Zn	0.001853	0.501642	0.751313
	Zn223	Zn	0.000960	0.500451	0.250479
	Zn224	Zn	0.501520	0.750627	0.002480
	Zn225	Zn	0.502902	0.252029	0.001225
	Zn226	Zn	0.750046	0.002056	0.502998
	Zn227	Zn	0.249516	0.001209	0.502363
	N228	N	0.415405	0.963062	0.680063
	N229	N	0.584430	0.038453	0.679799
	N230	N	0.586054	0.964645	0.325126
	N231	N	0.415258	0.038952	0.325718
	N232	N	0.681143	0.414224	0.964419
	N233	N	0.679880	0.586486	0.038288
	N234	N	0.322468	0.587401	0.964120
	N235	N	0.322172	0.413498	0.036927
	N236	N	0.963214	0.679670	0.415538
	N237	N	0.037508	0.680684	0.587175
	N238	N	0.962862	0.323763	0.586306
	N239	N	0.036681	0.321507	0.414655
	N240	N	0.963577	0.416610	0.679274
	N241	N	0.038373	0.587913	0.679721
	N242	N	0.963198	0.586066	0.322855
	N243	N	0.037271	0.413826	0.321818
	N244	N	0.415745	0.679300	0.964443
	N245	N	0.586279	0.677676	0.039226
	N246	N	0.587854	0.323089	0.964035
	N247	N	0.418904	0.325468	0.039144
	N248	N	0.679490	0.965248	0.416290
	N249	N	0.678309	0.038476	0.589265
	N250	N	0.319582	0.964470	0.590320
	N251	N	0.321487	0.038158	0.417064
	N252	N	0.916755	0.463172	0.177803
	N253	N	0.086876	0.538212	0.179144
	N254	N	0.087446	0.464002	0.822347
	N255	N	0.917092	0.538859	0.824151
	N256	N	0.180125	0.913874	0.464861
	N257	N	0.178229	0.087533	0.538866
	N258	N	0.820092	0.088579	0.465823
	N259	N	0.821392	0.915700	0.539187
	N260	N	0.465352	0.180051	0.915751
	N261	N	0.539777	0.180002	0.087622
	N262	N	0.464536	0.822545	0.089116
	N263	N	0.538865	0.822415	0.917392
	N264	N	0.463524	0.917007	0.180355
	N265	N	0.538158	0.088201	0.182336
	N266	N	0.463551	0.084817	0.825835
	N267	N	0.537814	0.913208	0.822180
	N268	N	0.914273	0.178537	0.464377
	N269	N	0.084365	0.178719	0.538627
	N270	N	0.085318	0.823747	0.463418
	N271	N	0.914960	0.823858	0.538838
	N272	N	0.181150	0.464653	0.913358
	N273	N	0.180099	0.537974	0.086841
	N274	N	0.823106	0.464144	0.086714
	N275	N	0.822141	0.537455	0.913814
	O276	O	-0.029697	0.003995	-0.059530
	H277	H	-0.025893	-0.001672	-0.060416
	H278	H	-0.026372	0.005341	-0.061410
	O279	O	0.529117	0.437710	0.466383
	H280	H	0.528527	0.429592	0.471198
	H281	H	0.531045	0.439719	0.464760
	O282	O	0.557783	0.499505	0.463974
	H283	H	0.546295	0.501881	0.448035
	H284	H	0.563524	0.502019	0.458692
	O285	O	1.051773	-0.003614	0.962320
	H286	H	1.051193	-0.007916	0.957747
	H287	H	1.056492	-0.000228	0.951153
	O288	O	0.955374	0.006798	-0.005511
	H289	H	0.952005	0.006064	0.007313
	H290	H	0.953749	0.003225	-0.019843
	O291	O	0.414309	0.595849	0.481393
	H292	H	0.414668	0.599249	0.498350
	H293	H	0.409749	0.601764	0.476725
	O294	O	1.557946	0.498190	0.547896
	H295	H	1.558114	0.500111	0.540575
	H296	H	1.559923	0.495760	0.549436
	O297	O	0.026824	-0.017247	-0.010527
	H298	H	0.042016	-0.011868	-0.008858
	H299	H	0.027061	-0.028239	-0.017694
	O300	O	0.611600	0.548992	0.570596
	H301	H	0.617517	0.549702	0.570490
	H302	H	0.613248	0.546223	0.554559
	O303	O	0.429184	0.484439	0.441528
	H304	H	0.416262	0.477652	0.435376
	H305	H	0.418846	0.491481	0.446995
	O306	O	1.054884	-0.054534	-0.040993
	H307	H	1.069809	-0.058853	-0.039114
	H308	H	1.046675	-0.040436	-0.052796
	O309	O	0.021639	0.057834	1.048111
	H310	H	0.021261	0.061405	1.055798
	H311	H	0.019359	0.063957	1.057118
	O312	O	0.985511	1.030558	0.967204
	H313	H	0.983364	1.028329	0.971021
	H314	H	0.986903	1.028727	0.965103
	O315	O	0.535958	0.515702	0.542916
	H316	H	0.533342	0.531333	0.561455
	H317	H	0.549898	0.505477	0.535843
	O318	O	0.501842	0.504616	0.471183
	H319	H	0.504461	0.514245	0.480776
	H320	H	0.496931	0.506554	0.470683
	O321	O	0.071309	1.020910	1.056699
	H322	H	0.084013	1.014308	1.054863
	H323	H	0.074638	1.024620	1.065031
	O324	O	0.529943	0.491668	0.434111
	H325	H	0.523404	0.494815	0.444472
	H326	H	0.522461	0.495058	0.427202
	O327	O	0.416953	0.552411	0.450061
	H328	H	0.408104	0.563058	0.450681
	H329	H	0.430669	0.549079	0.466373
	O330	O	0.474524	0.460836	0.459505
	H331	H	0.484563	0.450890	0.454966
	H332	H	0.473439	0.465005	0.456286
	O333	O	0.447494	0.477604	0.542735
	H334	H	0.445668	0.468894	0.543678
	H335	H	0.466029	0.475834	0.544827
	O336	O	0.460364	0.438538	0.528489
	H337	H	0.461860	0.437101	0.529290
	H338	H	0.458829	0.443309	0.512718
	O339	O	1.078979	0.981244	0.010767
	H340	H	1.073469	0.985195	0.006980
	H341	H	1.083795	0.980266	0.011444
	O342	O	0.578884	0.506868	0.474746
	H343	H	0.569810	0.498213	0.469657
	H344	H	0.573054	0.517775	0.468189
	O345	O	0.510668	0.609128	0.512899
	H346	H	0.514647	0.618704	0.517582
	H347	H	0.510757	0.604366	0.512121
	O348	O	-0.026276	0.009225	-0.081535
	H349	H	-0.020186	0.011877	-0.082325
	H350	H	-0.030467	0.014465	-0.068710
	O351	O	0.080531	0.969700	0.974865
	H352	H	0.072372	0.966637	0.971990
	H353	H	0.080686	0.968770	0.972219
	O354	O	0.381884	0.557597	0.465017
	H355	H	0.383297	0.557583	0.469927
	H356	H	0.377099	0.549869	0.472405
	O357	O	0.009081	0.954028	1.027502
	H358	H	0.013161	0.940133	1.034920
	H359	H	0.001452	0.963045	1.023502
