data_Molecule from HDF5

_cell_length_a		16.397013
_cell_length_b		16.405377
_cell_length_c		16.127702
_cell_angle_alpha	89.829272
_cell_angle_beta	90.081704
_cell_angle_gamma	89.895935
_symmetry_space_group_name_H-M	'P 1'
_symmetry_Int_Tables_number		1

loop_
	_symmetry_equiv_pos_as_xyz
	x,y,z

loop_
	_atom_site_label
	_atom_site_type_symbol
	_atom_site_fract_x
	_atom_site_fract_y
	_atom_site_fract_z
	H0	H	0.400803	0.832241	0.718340
	H1	H	0.602650	0.154731	0.716740
	H2	H	0.599827	0.831109	0.284402
	H3	H	0.400549	0.153630	0.281426
	H4	H	0.719497	0.390567	0.836633
	H5	H	0.719211	0.593487	0.163646
	H6	H	0.285333	0.594098	0.836403
	H7	H	0.283725	0.388854	0.162768
	H8	H	0.840243	0.712405	0.395586
	H9	H	0.160691	0.712409	0.605177
	H10	H	0.839372	0.273681	0.603652
	H11	H	0.159825	0.270948	0.394863
	H12	H	0.838099	0.394215	0.714785
	H13	H	0.163574	0.590356	0.714728
	H14	H	0.838715	0.591654	0.283301
	H15	H	0.162341	0.392372	0.284822
	H16	H	0.398415	0.710661	0.837748
	H17	H	0.602274	0.708172	0.164924
	H18	H	0.604469	0.274311	0.837411
	H19	H	0.402091	0.275992	0.164101
	H20	H	0.720518	0.832951	0.394538
	H21	H	0.720559	0.153265	0.602749
	H22	H	0.279381	0.833841	0.607395
	H23	H	0.279598	0.152489	0.392274
	H24	H	0.900877	0.331170	0.217621
	H25	H	0.102010	0.653221	0.216309
	H26	H	0.101124	0.329983	0.783901
	H27	H	0.903174	0.654371	0.783281
	H28	H	0.219830	0.889478	0.336610
	H29	H	0.220326	0.096430	0.661678
	H30	H	0.784964	0.092649	0.334789
	H31	H	0.783080	0.890922	0.662558
	H32	H	0.342025	0.214961	0.893771
	H33	H	0.661501	0.210735	0.105238
	H34	H	0.340538	0.771968	0.107034
	H35	H	0.660160	0.772534	0.897174
	H36	H	0.339543	0.892352	0.216973
	H37	H	0.663317	0.090302	0.214818
	H38	H	0.339425	0.095187	0.782572
	H39	H	0.663148	0.895571	0.786178
	H40	H	0.896995	0.209997	0.335797
	H41	H	0.101654	0.208609	0.662711
	H42	H	0.104059	0.774570	0.336683
	H43	H	0.899844	0.776334	0.663276
	H44	H	0.221100	0.331599	0.895579
	H45	H	0.221134	0.652084	0.104402
	H46	H	0.781271	0.332495	0.105931
	H47	H	0.782099	0.652801	0.895461
	H48	H	0.417267	0.105196	0.588811
	H49	H	0.596500	0.876222	0.596227
	H50	H	0.596047	0.107204	0.412245
	H51	H	0.402755	0.875259	0.405852
	H52	H	0.586851	0.396703	0.116994
	H53	H	0.591762	0.577977	0.887107
	H54	H	0.411178	0.592016	0.120528
	H55	H	0.408742	0.403326	0.883155
	H56	H	0.117081	0.585660	0.404200
	H57	H	0.882724	0.602250	0.587297
	H58	H	0.113967	0.400770	0.589650
	H59	H	0.888293	0.405382	0.413442
	H60	H	0.115526	0.397874	0.592519
	H61	H	0.893788	0.575585	0.576626
	H62	H	0.114922	0.588628	0.414238
	H63	H	0.884332	0.401822	0.402748
	H64	H	0.401452	0.577398	0.118595
	H65	H	0.586650	0.586356	0.884491
	H66	H	0.599586	0.400454	0.119257
	H67	H	0.413498	0.406338	0.885686
	H68	H	0.594325	0.109404	0.404488
	H69	H	0.586219	0.881135	0.591622
	H70	H	0.405773	0.105298	0.581046
	H71	H	0.416252	0.879664	0.407379
	H72	H	0.914914	0.607119	0.097354
	H73	H	0.091720	0.382685	0.077190
	H74	H	0.090745	0.607939	0.901807
	H75	H	0.914998	0.379682	0.910407
	H76	H	0.083978	0.894363	0.616251
	H77	H	0.090208	0.081522	0.383498
	H78	H	0.908777	0.086529	0.617189
	H79	H	0.907577	0.895675	0.380442
	H80	H	0.613670	0.081328	0.913532
	H81	H	0.386707	0.080909	0.091676
	H82	H	0.619062	0.896805	0.098195
	H83	H	0.384729	0.902452	0.907140
	H84	H	0.615180	0.893553	0.085407
	H85	H	0.384914	0.088747	0.090291
	H86	H	0.615780	0.082645	0.905076
	H87	H	0.385190	0.897908	0.911991
	H88	H	0.906648	0.081222	0.616125
	H89	H	0.088636	0.083105	0.384001
	H90	H	0.099894	0.903563	0.617956
	H91	H	0.904932	0.907982	0.383322
	H92	H	0.091288	0.604660	0.913295
	H93	H	0.105575	0.372308	0.094769
	H94	H	0.914421	0.602813	0.080859
	H95	H	0.906312	0.377536	0.912205
	H96	H	0.405008	0.110210	0.594224
	H97	H	0.595303	0.879537	0.584392
	H98	H	0.587888	0.106176	0.409249
	H99	H	0.407780	0.880483	0.418333
	H100	H	0.590631	0.408474	0.113746
	H101	H	0.595880	0.585447	0.882060
	H102	H	0.418035	0.577269	0.112844
	H103	H	0.413991	0.401281	0.883853
	H104	H	0.112372	0.578775	0.411203
	H105	H	0.883177	0.577522	0.605707
	H106	H	0.115433	0.396946	0.588278
	H107	H	0.884725	0.394247	0.411599
	H108	H	0.900893	0.608429	0.089016
	H109	H	0.082190	0.378488	0.099405
	H110	H	0.100724	0.608747	0.907585
	H111	H	0.909188	0.375632	0.904225
	H112	H	0.085368	0.911620	0.610882
	H113	H	0.090236	0.083389	0.383330
	H114	H	0.912241	0.081987	0.614293
	H115	H	0.916319	0.903277	0.385162
	H116	H	0.617078	0.088407	0.910545
	H117	H	0.388492	0.084218	0.084496
	H118	H	0.612883	0.906241	0.089532
	H119	H	0.388019	0.903804	0.912821
	C120	C	0.379249	0.001049	0.620562
	C121	C	0.623068	0.985007	0.621366
	C122	C	0.622391	0.001227	0.377932
	C123	C	0.378146	0.984220	0.377747
	C124	C	0.623397	0.371055	0.008689
	C125	C	0.621839	0.613376	0.992403
	C126	C	0.379906	0.613209	0.009158
	C127	C	0.381485	0.372204	0.992032
	C128	C	0.009228	0.614933	0.377668
	C129	C	0.992925	0.614281	0.620823
	C130	C	0.008564	0.369573	0.621087
	C131	C	0.991856	0.370186	0.378505
	C132	C	0.879820	0.500034	0.120950
	C133	C	0.123377	0.483714	0.121164
	C134	C	0.123644	0.500473	0.877325
	C135	C	0.879992	0.483957	0.878208
	C136	C	0.121678	0.871840	0.507898
	C137	C	0.121171	0.113868	0.490807
	C138	C	0.878836	0.113603	0.507726
	C139	C	0.879499	0.871733	0.490860
	C140	C	0.509671	0.115731	0.877680
	C141	C	0.493091	0.113838	0.120484
	C142	C	0.509369	0.869445	0.122341
	C143	C	0.492107	0.871126	0.879161
	C144	C	0.380352	0.880378	0.679465
	C145	C	0.622342	0.106114	0.678464
	C146	C	0.620620	0.879652	0.321764
	C147	C	0.379533	0.105055	0.319346
	C148	C	0.681094	0.370881	0.885776
	C149	C	0.679974	0.613206	0.115127
	C150	C	0.323302	0.613313	0.885901
	C151	C	0.323220	0.370569	0.114258
	C152	C	0.888311	0.672923	0.376601
	C153	C	0.113381	0.672028	0.622611
	C154	C	0.887285	0.313092	0.621899
	C155	C	0.112372	0.311478	0.377134
	C156	C	0.886703	0.372854	0.677469
	C157	C	0.114818	0.611356	0.677239
	C158	C	0.887356	0.613001	0.320862
	C159	C	0.113765	0.371867	0.322471
	C160	C	0.379596	0.671567	0.886616
	C161	C	0.622002	0.670331	0.115473
	C162	C	0.623964	0.312985	0.886196
	C163	C	0.382121	0.314534	0.115028
	C164	C	0.680550	0.880543	0.376899
	C165	C	0.681383	0.105419	0.622020
	C166	C	0.319812	0.881433	0.624321
	C167	C	0.319484	0.104560	0.374714
	C168	C	0.881064	0.379188	0.178980
	C169	C	0.122538	0.604597	0.178686
	C170	C	0.121938	0.378559	0.821271
	C171	C	0.881885	0.605683	0.821100
	C172	C	0.180786	0.870802	0.385488
	C173	C	0.180033	0.114716	0.613280
	C174	C	0.822619	0.112777	0.384146
	C175	C	0.822073	0.871800	0.613729
	C176	C	0.389633	0.175080	0.875838
	C177	C	0.613615	0.171381	0.123094
	C178	C	0.388625	0.811745	0.124460
	C179	C	0.612757	0.812687	0.878261
	C180	C	0.387899	0.871664	0.179303
	C181	C	0.614479	0.111371	0.177745
	C182	C	0.388262	0.115395	0.820296
	C183	C	0.613995	0.873677	0.823180
	C184	C	0.878819	0.170774	0.384617
	C185	C	0.121434	0.170813	0.613676
	C186	C	0.122869	0.813763	0.385333
	C187	C	0.880147	0.814733	0.614083
	C188	C	0.182014	0.379625	0.876697
	C189	C	0.181661	0.604051	0.122578
	C190	C	0.821242	0.380138	0.123335
	C191	C	0.822023	0.604947	0.877178
	C192	C	0.402708	0.085005	0.595410
	C193	C	0.599513	0.900832	0.597611
	C194	C	0.599418	0.085513	0.401695
	C195	C	0.401797	0.900288	0.403136
	C196	C	0.599419	0.394883	0.094215
	C197	C	0.598295	0.590084	0.906768
	C198	C	0.403274	0.589152	0.095079
	C199	C	0.405167	0.396613	0.906423
	C200	C	0.092936	0.591186	0.402486
	C201	C	0.908616	0.591784	0.596814
	C202	C	0.093020	0.391899	0.597171
	C203	C	0.907648	0.393624	0.402201
	C204	C	0.903425	0.584268	0.096229
	C205	C	0.099931	0.399535	0.097304
	C206	C	0.100862	0.585027	0.900789
	C207	C	0.903426	0.399649	0.901966
	C208	C	0.097052	0.896260	0.592832
	C209	C	0.096828	0.089767	0.405869
	C210	C	0.902323	0.090059	0.593554
	C211	C	0.902928	0.895436	0.405221
	C212	C	0.593694	0.091459	0.902574
	C213	C	0.408700	0.091246	0.095749
	C214	C	0.593774	0.892343	0.098121
	C215	C	0.407990	0.894542	0.903417
	Zn216	Zn	0.500585	-0.006077	0.749826
	Zn217	Zn	0.500972	-0.007607	0.249260
	Zn218	Zn	0.750394	0.492566	-0.000059
	Zn219	Zn	0.251973	0.492041	-0.000611
	Zn220	Zn	0.001005	0.743645	0.499539
	Zn221	Zn	-0.000630	0.241105	0.499461
	Zn222	Zn	0.001517	0.491586	0.748891
	Zn223	Zn	0.001286	0.491896	0.249643
	Zn224	Zn	0.500236	0.741462	0.001125
	Zn225	Zn	0.501834	0.243552	0.000558
	Zn226	Zn	0.751307	-0.006911	0.498708
	Zn227	Zn	0.249204	-0.006854	0.499427
	N228	N	0.416369	0.955826	0.677338
	N229	N	0.586715	0.030227	0.678221
	N230	N	0.585069	0.955518	0.322351
	N231	N	0.415153	0.029092	0.320896
	N232	N	0.680899	0.405965	0.963105
	N233	N	0.680104	0.578732	0.037640
	N234	N	0.323163	0.578064	0.963405
	N235	N	0.322711	0.405743	0.036742
	N236	N	0.964963	0.674426	0.411041
	N237	N	0.036667	0.673982	0.588169
	N238	N	0.964113	0.310849	0.587733
	N239	N	0.035620	0.310154	0.411124
	N240	N	0.963093	0.407212	0.677129
	N241	N	0.038945	0.576012	0.676282
	N242	N	0.963483	0.577573	0.321236
	N243	N	0.037937	0.407719	0.323104
	N244	N	0.414038	0.671598	0.964368
	N245	N	0.586626	0.670670	0.037974
	N246	N	0.589039	0.312815	0.963593
	N247	N	0.417340	0.315297	0.037665
	N248	N	0.681653	0.957106	0.411154
	N249	N	0.681908	0.028993	0.587228
	N250	N	0.319166	0.957486	0.588264
	N251	N	0.318452	0.028413	0.410375
	N252	N	0.916750	0.454915	0.177503
	N253	N	0.086783	0.528798	0.177944
	N254	N	0.086589	0.454628	0.821395
	N255	N	0.917214	0.529576	0.821574
	N256	N	0.180323	0.906188	0.462747
	N257	N	0.180101	0.080154	0.535867
	N258	N	0.822461	0.077978	0.461742
	N259	N	0.821554	0.906645	0.536113
	N260	N	0.466299	0.175539	0.910619
	N261	N	0.537197	0.173041	0.088097
	N262	N	0.465154	0.810352	0.089912
	N263	N	0.535980	0.810802	0.912285
	N264	N	0.463964	0.906829	0.178276
	N265	N	0.538300	0.076229	0.176457
	N266	N	0.464008	0.079326	0.821289
	N267	N	0.537939	0.909021	0.823454
	N268	N	0.913114	0.171444	0.462475
	N269	N	0.085396	0.170439	0.536599
	N270	N	0.087019	0.814207	0.462407
	N271	N	0.914989	0.814415	0.536598
	N272	N	0.183190	0.456441	0.910859
	N273	N	0.182499	0.527735	0.087756
	N274	N	0.820666	0.456335	0.087789
	N275	N	0.820533	0.528153	0.911667
	O276	O	0.637223	0.422111	0.473753
	H277	H	0.635736	0.421416	0.487321
	H278	H	0.633908	0.428249	0.471766
	O279	O	0.431625	0.596225	0.540736
	H280	H	0.436145	0.611843	0.535955
	H281	H	0.432598	0.579676	0.543417
	O282	O	1.182557	0.097396	0.991787
	H283	H	1.196626	0.114874	1.000066
	H284	H	1.169071	0.088002	1.003694
	O285	O	0.978080	0.962256	0.857517
	H286	H	0.979542	0.964376	0.871149
	H287	H	0.975201	0.976472	0.858800
	O288	O	0.936076	0.916307	0.911645
	H289	H	0.929305	0.914543	0.902740
	H290	H	0.955171	0.916921	0.907959
	O291	O	0.019190	0.984857	0.090907
	H292	H	0.028006	0.975212	0.094709
	H293	H	0.028125	0.989882	0.076276
	O294	O	0.476438	0.664380	0.547599
	H295	H	0.482962	0.665562	0.535989
	H296	H	0.477458	0.668619	0.539286
	O297	O	0.378328	0.528289	0.563726
	H298	H	0.382123	0.533744	0.574078
	H299	H	0.375763	0.533579	0.573456
	O300	O	0.543353	0.568455	0.641079
	H301	H	0.537535	0.559583	0.634236
	H302	H	0.540867	0.571307	0.657743
	O303	O	0.363298	0.323111	0.680214
	H304	H	0.358841	0.337456	0.662057
	H305	H	0.350208	0.327719	0.686085
	O306	O	0.534156	0.489368	0.475793
	H307	H	0.541339	0.489830	0.475809
	H308	H	0.523985	0.492088	0.492770
	O309	O	0.433239	0.352808	0.614359
	H310	H	0.423787	0.352670	0.618150
	H311	H	0.429787	0.338565	0.620229
	O312	O	-0.001948	-0.147094	0.109773
	H313	H	-0.016059	-0.166280	0.104364
	H314	H	-0.015446	-0.142622	0.103248
	O315	O	0.527410	0.631688	0.605167
	H316	H	0.521660	0.633010	0.584927
	H317	H	0.530392	0.643635	0.597123
	O318	O	0.018515	0.939131	1.114000
	H319	H	0.005163	0.959635	1.120758
	H320	H	0.020810	0.926421	1.133134
	O321	O	0.516874	0.567022	0.398216
	H322	H	0.523125	0.567616	0.401592
	H323	H	0.502089	0.568565	0.404999
	O324	O	-0.136734	1.077470	0.001554
	H325	H	-0.124669	1.079030	0.004999
	H326	H	-0.139615	1.086973	-0.008376
	O327	O	0.506926	0.429903	0.521285
	H328	H	0.497287	0.430133	0.517486
	H329	H	0.508452	0.433543	0.532895
	O330	O	-0.187189	0.132335	0.991493
	H331	H	-0.181820	0.128546	0.981617
	H332	H	-0.197601	0.143976	1.000987
	O333	O	0.168654	-0.069722	0.830866
	H334	H	0.167887	-0.064875	0.822526
	H335	H	0.166381	-0.079612	0.833443
	O336	O	0.402968	0.456251	0.477392
	H337	H	0.398168	0.469133	0.475042
	H338	H	0.411605	0.442476	0.484767
	O339	O	1.104153	0.147050	0.106699
	H340	H	1.095973	0.143723	0.125087
	H341	H	1.104111	0.130737	0.120815
	O342	O	-0.050121	-0.032535	-0.035680
	H343	H	-0.064175	-0.038760	-0.048375
	H344	H	-0.045132	-0.029823	-0.048012
	O345	O	1.174548	-0.147178	1.019748
	H346	H	1.164368	-0.148996	1.018992
	H347	H	1.179140	-0.164624	1.036115
	O348	O	0.934430	1.101963	-0.084884
	H349	H	0.938570	1.108502	-0.073815
	H350	H	0.934841	1.106749	-0.079040
	O351	O	0.541637	0.518691	0.546411
	H352	H	0.543331	0.520261	0.533294
	H353	H	0.547318	0.525648	0.564669
	O354	O	1.069156	-0.058722	0.854853
	H355	H	1.045905	-0.057006	0.864348
	H356	H	1.075668	-0.058720	0.864713
	O357	O	0.657627	0.415804	0.442021
	H358	H	0.657541	0.410829	0.455899
	H359	H	0.652053	0.439107	0.429065
	O360	O	0.413247	0.364953	0.414927
	H361	H	0.419793	0.360147	0.424763
	H362	H	0.402983	0.358761	0.425479
	O363	O	-0.006904	1.082555	1.014519
	H364	H	-0.021779	1.096149	1.011677
	H365	H	-0.002558	1.082061	0.991168
	O366	O	0.546884	0.504031	0.386223
	H367	H	0.553920	0.499251	0.389274
	H368	H	0.543735	0.499356	0.368232
	O369	O	0.153227	0.931474	-0.090479
	H370	H	0.150364	0.926018	-0.082604
	H371	H	0.168336	0.942143	-0.101685
	O372	O	0.534920	0.646298	0.529089
	H373	H	0.529807	0.657866	0.542601
	H374	H	0.553471	0.648725	0.523660
	O375	O	0.413288	0.475629	0.557933
	H376	H	0.413650	0.475987	0.550889
	H377	H	0.418264	0.491243	0.565640
	O378	O	0.493892	0.443098	0.328843
	H379	H	0.484417	0.452488	0.331496
	H380	H	0.495576	0.452467	0.323311
	O381	O	0.858626	0.038496	-0.075537
	H382	H	0.860337	0.033028	-0.084632
	H383	H	0.864830	0.033290	-0.076140
	O384	O	0.891195	1.039609	0.124889
	H385	H	0.887944	1.045420	0.120133
	H386	H	0.902371	1.040656	0.135541
	O387	O	0.017442	-0.014103	0.049699
	H388	H	0.024326	-0.011872	0.056954
	H389	H	0.014191	-0.026359	0.059147
	O390	O	0.024782	1.033911	0.006297
	H391	H	0.029597	1.040512	0.010040
	H392	H	0.044368	1.033456	0.018501
	O393	O	0.961625	0.874100	0.961146
	H394	H	0.967012	0.882248	0.947194
	H395	H	0.973197	0.868288	0.963083
	O396	O	0.575783	0.435087	0.571648
	H397	H	0.573450	0.430341	0.576303
	H398	H	0.581715	0.423067	0.575138
	O399	O	-0.015600	1.002104	1.105053
	H400	H	-0.031774	0.999684	1.114404
	H401	H	-0.022716	1.012211	1.116439
	O402	O	0.437339	0.585152	0.383492
	H403	H	0.436430	0.572046	0.385567
	H404	H	0.448419	0.587285	0.381875
	O405	O	1.047948	1.096503	0.026998
	H406	H	1.046495	1.100237	0.012838
	H407	H	1.060388	1.106096	0.019733
	O408	O	0.882474	0.812640	0.119085
	H409	H	0.876711	0.807375	0.120927
	H410	H	0.881143	0.823900	0.117022
	O411	O	0.599972	-0.414948	0.429852
	H412	H	0.597885	-0.422901	0.434459
	H413	H	0.592831	-0.402840	0.435608
	O414	O	0.612697	0.400376	0.616681
	H415	H	0.617941	0.416864	0.618682
	H416	H	0.604925	0.388229	0.614360
	O417	O	0.410818	0.475815	0.413024
	H418	H	0.418396	0.477338	0.431124
	H419	H	0.405776	0.454124	0.417353
