data_Molecule from HDF5

_cell_length_a		16.242329
_cell_length_b		16.283513
_cell_length_c		16.272269
_cell_angle_alpha	90.110140
_cell_angle_beta	90.127173
_cell_angle_gamma	90.053253
_symmetry_space_group_name_H-M	'P 1'
_symmetry_Int_Tables_number		1

loop_
	_symmetry_equiv_pos_as_xyz
	x,y,z

loop_
	_atom_site_label
	_atom_site_type_symbol
	_atom_site_fract_x
	_atom_site_fract_y
	_atom_site_fract_z
	H0	H	0.406066	0.842246	0.717366
	H1	H	0.603523	0.169320	0.717935
	H2	H	0.603060	0.842737	0.287616
	H3	H	0.404478	0.169938	0.287280
	H4	H	0.718196	0.407198	0.838844
	H5	H	0.718260	0.602948	0.167127
	H6	H	0.290755	0.603754	0.839120
	H7	H	0.291606	0.408065	0.167232
	H8	H	0.840743	0.719631	0.404956
	H9	H	0.168735	0.720266	0.601134
	H10	H	0.841284	0.292191	0.602292
	H11	H	0.169717	0.291421	0.404830
	H12	H	0.840556	0.408209	0.716781
	H13	H	0.168824	0.605497	0.718151
	H14	H	0.840742	0.603822	0.289864
	H15	H	0.169823	0.407864	0.288974
	H16	H	0.406411	0.719702	0.839043
	H17	H	0.605639	0.722185	0.165903
	H18	H	0.603432	0.290945	0.839209
	H19	H	0.406039	0.291194	0.166710
	H20	H	0.718943	0.841788	0.403704
	H21	H	0.719645	0.169219	0.601910
	H22	H	0.290470	0.841940	0.601526
	H23	H	0.289349	0.169963	0.404352
	H24	H	0.906675	0.342432	0.216600
	H25	H	0.104010	0.670433	0.217959
	H26	H	0.103018	0.342042	0.788781
	H27	H	0.907647	0.670275	0.790329
	H28	H	0.218679	0.906035	0.339696
	H29	H	0.219864	0.103871	0.666760
	H30	H	0.790915	0.103242	0.338669
	H31	H	0.790520	0.908454	0.667187
	H32	H	0.340751	0.219120	0.904044
	H33	H	0.669284	0.221361	0.102096
	H34	H	0.341504	0.790551	0.102046
	H35	H	0.669172	0.791246	0.903996
	H36	H	0.341462	0.906913	0.217484
	H37	H	0.669303	0.105791	0.217744
	H38	H	0.341269	0.103290	0.788031
	H39	H	0.669207	0.907819	0.789707
	H40	H	0.905372	0.221399	0.339927
	H41	H	0.104386	0.221020	0.667052
	H42	H	0.103396	0.790184	0.340255
	H43	H	0.905058	0.790919	0.666738
	H44	H	0.219215	0.341784	0.904520
	H45	H	0.220043	0.670190	0.101753
	H46	H	0.791368	0.341357	0.099495
	H47	H	0.790292	0.669386	0.904781
	H48	H	0.411195	0.121357	0.591062
	H49	H	0.593082	0.891897	0.590427
	H50	H	0.596530	0.122216	0.408330
	H51	H	0.408866	0.890787	0.416887
	H52	H	0.595395	0.414137	0.118297
	H53	H	0.588740	0.601895	0.887880
	H54	H	0.404135	0.603293	0.123211
	H55	H	0.406876	0.419567	0.888003
	H56	H	0.122933	0.600929	0.409386
	H57	H	0.886851	0.604281	0.595068
	H58	H	0.120816	0.417000	0.597428
	H59	H	0.884234	0.396119	0.411280
	H60	H	0.122670	0.411345	0.597007
	H61	H	0.889190	0.595901	0.594567
	H62	H	0.120956	0.598010	0.412988
	H63	H	0.895820	0.421650	0.424545
	H64	H	0.413942	0.586940	0.115923
	H65	H	0.604543	0.604364	0.882643
	H66	H	0.597833	0.410471	0.119241
	H67	H	0.419986	0.410482	0.888333
	H68	H	0.596396	0.121300	0.412880
	H69	H	0.606364	0.887439	0.594719
	H70	H	0.408514	0.124159	0.598834
	H71	H	0.407192	0.887373	0.403497
	H72	H	0.909491	0.621630	0.089416
	H73	H	0.106353	0.386800	0.099799
	H74	H	0.108504	0.624403	0.915291
	H75	H	0.920936	0.392344	0.911040
	H76	H	0.097536	0.915104	0.620074
	H77	H	0.100145	0.095671	0.387098
	H78	H	0.909597	0.093142	0.618484
	H79	H	0.910947	0.912687	0.386875
	H80	H	0.626188	0.108988	0.904834
	H81	H	0.391121	0.095044	0.091806
	H82	H	0.622520	0.913313	0.098884
	H83	H	0.384368	0.906269	0.900987
	H84	H	0.622124	0.910712	0.093019
	H85	H	0.387420	0.096864	0.100046
	H86	H	0.619161	0.099730	0.922423
	H87	H	0.389667	0.906849	0.918627
	H88	H	0.918239	0.102067	0.619027
	H89	H	0.092692	0.098863	0.388033
	H90	H	0.095891	0.911504	0.619333
	H91	H	0.912221	0.913021	0.386947
	H92	H	0.096600	0.624678	0.900031
	H93	H	0.090270	0.390438	0.101936
	H94	H	0.907711	0.624942	0.101613
	H95	H	0.905558	0.390118	0.916987
	H96	H	0.416808	0.121369	0.598378
	H97	H	0.595086	0.887363	0.604039
	H98	H	0.599447	0.123061	0.411219
	H99	H	0.419262	0.892553	0.407949
	H100	H	0.600155	0.414763	0.119561
	H101	H	0.600318	0.589233	0.887567
	H102	H	0.424244	0.604834	0.118070
	H103	H	0.406427	0.404894	0.882786
	H104	H	0.121572	0.596994	0.409207
	H105	H	0.886601	0.599394	0.602446
	H106	H	0.121365	0.413333	0.592388
	H107	H	0.887058	0.421881	0.394772
	H108	H	0.919576	0.620831	0.098325
	H109	H	0.097577	0.392967	0.087031
	H110	H	0.090081	0.617550	0.917063
	H111	H	0.909094	0.386199	0.901238
	H112	H	0.099466	0.911618	0.620574
	H113	H	0.098626	0.103588	0.385078
	H114	H	0.906339	0.104823	0.622626
	H115	H	0.912425	0.912031	0.386765
	H116	H	0.620698	0.088819	0.904845
	H117	H	0.388014	0.103435	0.093721
	H118	H	0.619935	0.916973	0.094530
	H119	H	0.390423	0.922403	0.908415
	C120	C	0.383644	0.013893	0.624365
	C121	C	0.626121	0.997009	0.624539
	C122	C	0.626309	0.014451	0.381440
	C123	C	0.382670	0.998480	0.380722
	C124	C	0.626272	0.384271	0.011097
	C125	C	0.626754	0.627657	0.994114
	C126	C	0.384597	0.627096	0.011305
	C127	C	0.383121	0.383756	0.994604
	C128	C	0.013343	0.627323	0.382126
	C129	C	0.996187	0.628047	0.625226
	C130	C	0.013424	0.385364	0.624357
	C131	C	0.997381	0.384290	0.381643
	C132	C	0.883341	0.514290	0.124503
	C133	C	0.127024	0.498132	0.125247
	C134	C	0.126897	0.514176	0.881640
	C135	C	0.883188	0.497483	0.881244
	C136	C	0.126060	0.884107	0.511875
	C137	C	0.126300	0.127445	0.494875
	C138	C	0.882936	0.127956	0.511595
	C139	C	0.883089	0.884269	0.495079
	C140	C	0.513712	0.127129	0.881649
	C141	C	0.497073	0.127984	0.124592
	C142	C	0.513193	0.884806	0.124174
	C143	C	0.496749	0.883926	0.881274
	C144	C	0.385832	0.891004	0.679618
	C145	C	0.623972	0.120385	0.680035
	C146	C	0.624027	0.891260	0.325492
	C147	C	0.384346	0.121054	0.325160
	C148	C	0.680779	0.386592	0.887736
	C149	C	0.681506	0.624695	0.117795
	C150	C	0.328897	0.624205	0.888112
	C151	C	0.328872	0.387250	0.118131
	C152	C	0.889740	0.681860	0.384684
	C153	C	0.119827	0.683033	0.622477
	C154	C	0.890083	0.330093	0.622169
	C155	C	0.120559	0.329220	0.384186
	C156	C	0.889927	0.387506	0.679427
	C157	C	0.119784	0.625446	0.680183
	C158	C	0.889870	0.624757	0.327069
	C159	C	0.120574	0.387020	0.326432
	C160	C	0.386116	0.682063	0.888019
	C161	C	0.625349	0.683548	0.117227
	C162	C	0.623285	0.329122	0.887893
	C163	C	0.385673	0.329167	0.117933
	C164	C	0.681281	0.890991	0.383445
	C165	C	0.681154	0.120722	0.622089
	C166	C	0.328307	0.890829	0.621998
	C167	C	0.327193	0.121116	0.383672
	C168	C	0.886084	0.391028	0.178905
	C169	C	0.124640	0.621382	0.180373
	C170	C	0.124033	0.390919	0.826377
	C171	C	0.886548	0.621179	0.827361
	C172	C	0.180941	0.885644	0.388591
	C173	C	0.181572	0.124636	0.618061
	C174	C	0.828118	0.124707	0.388129
	C175	C	0.828271	0.887568	0.618298
	C176	C	0.389886	0.181588	0.883680
	C177	C	0.620235	0.183787	0.122875
	C178	C	0.390243	0.829147	0.121902
	C179	C	0.620213	0.829217	0.883729
	C180	C	0.390245	0.886784	0.179504
	C181	C	0.620449	0.126026	0.179935
	C182	C	0.389938	0.123922	0.826284
	C183	C	0.620129	0.887111	0.826801
	C184	C	0.885171	0.183032	0.388489
	C185	C	0.124703	0.182869	0.618134
	C186	C	0.123941	0.828010	0.389010
	C187	C	0.885045	0.829187	0.618066
	C188	C	0.181538	0.390750	0.884202
	C189	C	0.182130	0.621413	0.122493
	C190	C	0.828744	0.390662	0.120846
	C191	C	0.828298	0.620762	0.884226
	C192	C	0.405676	0.100071	0.602380
	C193	C	0.604420	0.911199	0.602815
	C194	C	0.604021	0.100004	0.404106
	C195	C	0.405289	0.912331	0.402884
	C196	C	0.604370	0.406592	0.097064
	C197	C	0.604324	0.605252	0.908206
	C198	C	0.407319	0.604876	0.096885
	C199	C	0.404646	0.405107	0.908532
	C200	C	0.099683	0.605275	0.404074
	C201	C	0.909850	0.606390	0.603679
	C202	C	0.099568	0.407474	0.602121
	C203	C	0.911274	0.406491	0.403815
	C204	C	0.905569	0.600324	0.102767
	C205	C	0.104653	0.412208	0.102638
	C206	C	0.104911	0.600166	0.904245
	C207	C	0.905337	0.411600	0.903387
	C208	C	0.104268	0.906520	0.597735
	C209	C	0.103871	0.105720	0.409011
	C210	C	0.905006	0.106535	0.597850
	C211	C	0.905333	0.906014	0.409154
	C212	C	0.599744	0.105577	0.904000
	C213	C	0.411127	0.105164	0.101793
	C214	C	0.599352	0.907229	0.101999
	C215	C	0.410396	0.905430	0.902998
	Zn216	Zn	0.505255	0.005512	0.753284
	Zn217	Zn	0.505314	0.006652	0.252371
	Zn218	Zn	0.754620	0.505940	0.002745
	Zn219	Zn	0.255660	0.505868	0.003572
	Zn220	Zn	0.004690	0.755862	0.503266
	Zn221	Zn	0.005144	0.256349	0.503730
	Zn222	Zn	0.004908	0.506032	0.753152
	Zn223	Zn	0.004824	0.506229	0.253592
	Zn224	Zn	0.505487	0.756088	0.002749
	Zn225	Zn	0.504950	0.255823	0.003046
	Zn226	Zn	0.754547	0.005614	0.503337
	Zn227	Zn	0.254392	0.005717	0.503057
	N228	N	0.419829	0.968482	0.680925
	N229	N	0.590583	0.042759	0.681640
	N230	N	0.590486	0.968864	0.323950
	N231	N	0.418200	0.043511	0.323290
	N232	N	0.682551	0.420367	0.965261
	N233	N	0.682560	0.590635	0.040367
	N234	N	0.327920	0.590577	0.965582
	N235	N	0.327237	0.420545	0.040541
	N236	N	0.967538	0.683647	0.418050
	N237	N	0.042041	0.684584	0.588900
	N238	N	0.967861	0.328517	0.588681
	N239	N	0.042815	0.327218	0.417490
	N240	N	0.967497	0.421499	0.680530
	N241	N	0.041992	0.591981	0.681883
	N242	N	0.967718	0.591432	0.325485
	N243	N	0.042852	0.420506	0.324763
	N244	N	0.420034	0.684030	0.965542
	N245	N	0.592059	0.685417	0.039500
	N246	N	0.589986	0.327680	0.965600
	N247	N	0.418651	0.326775	0.040133
	N248	N	0.682895	0.968418	0.417472
	N249	N	0.682781	0.043131	0.588387
	N250	N	0.326844	0.968371	0.588411
	N251	N	0.325987	0.043756	0.417270
	N252	N	0.919199	0.468864	0.181278
	N253	N	0.090813	0.543745	0.181916
	N254	N	0.090804	0.468586	0.824759
	N255	N	0.919792	0.543485	0.825263
	N256	N	0.182517	0.919923	0.465969
	N257	N	0.182671	0.091049	0.540476
	N258	N	0.826802	0.091059	0.465610
	N259	N	0.827004	0.921002	0.540783
	N260	N	0.467555	0.183722	0.917562
	N261	N	0.542492	0.184901	0.089021
	N262	N	0.467907	0.827781	0.088410
	N263	N	0.542340	0.827162	0.916879
	N264	N	0.467880	0.920709	0.180840
	N265	N	0.542771	0.092226	0.181256
	N266	N	0.467908	0.090942	0.824895
	N267	N	0.542413	0.920435	0.825249
	N268	N	0.918548	0.185246	0.466283
	N269	N	0.090694	0.184579	0.540603
	N270	N	0.090447	0.827016	0.466487
	N271	N	0.918909	0.827332	0.540464
	N272	N	0.183708	0.468429	0.917719
	N273	N	0.183764	0.543815	0.089005
	N274	N	0.826892	0.468300	0.087745
	N275	N	0.825999	0.542941	0.917045
	O276	O	0.511043	0.506392	0.461481
	H277	H	0.495559	0.506672	0.462692
	H278	H	0.517781	0.513369	0.452096
	O279	O	0.044524	0.013962	0.036004
	H280	H	0.037902	0.015513	0.030375
	H281	H	0.041589	0.005460	0.023089
	O282	O	0.505412	0.451710	0.441932
	H283	H	0.513307	0.462868	0.438354
	H284	H	0.510146	0.446174	0.440032
	O285	O	0.511412	0.484033	0.462254
	H286	H	0.513546	0.485139	0.459461
	H287	H	0.510454	0.476938	0.459918
	O288	O	1.045821	0.020501	0.063884
	H289	H	1.047445	0.022596	0.069006
	H290	H	1.054017	0.029595	0.082661
	O291	O	-0.506045	0.513068	-0.507271
	H292	H	-0.517170	0.508446	-0.507322
	H293	H	-0.502720	0.511312	-0.503278
	O294	O	0.497806	0.477069	0.454477
	H295	H	0.507828	0.482550	0.451551
	H296	H	0.502332	0.468896	0.466293
	O297	O	-0.010743	1.019721	0.065778
	H298	H	-0.015361	1.011763	0.063951
	H299	H	-0.017366	1.022638	0.071754
	O300	O	1.001614	0.004406	1.076621
	H301	H	1.004673	0.000706	1.080199
	H302	H	1.002024	-0.002665	1.078505
	O303	O	0.493722	0.500785	0.429931
	H304	H	0.489467	0.505247	0.431689
	H305	H	0.487555	0.512398	0.426325
	O306	O	0.055178	1.022734	1.045971
	H307	H	0.056108	1.032841	1.038583
	H308	H	0.063230	1.021832	1.050889
	O309	O	0.457142	0.454850	0.457153
	H310	H	0.453163	0.451212	0.455892
	H311	H	0.454354	0.451898	0.457279
