data_Molecule from HDF5

_cell_length_a		16.545528
_cell_length_b		16.567217
_cell_length_c		16.611054
_cell_angle_alpha	90.142015
_cell_angle_beta	90.138968
_cell_angle_gamma	90.016418
_symmetry_space_group_name_H-M	'P 1'
_symmetry_Int_Tables_number		1

loop_
	_symmetry_equiv_pos_as_xyz
	x,y,z

loop_
	_atom_site_label
	_atom_site_type_symbol
	_atom_site_fract_x
	_atom_site_fract_y
	_atom_site_fract_z
	H0	H	0.383288	0.839261	0.712454
	H1	H	0.592772	0.152801	0.713841
	H2	H	0.592638	0.840249	0.270259
	H3	H	0.378682	0.149974	0.268445
	H4	H	0.707104	0.390825	0.834509
	H5	H	0.712670	0.603515	0.145649
	H6	H	0.264555	0.601353	0.837672
	H7	H	0.263239	0.387278	0.145302
	H8	H	0.828469	0.713700	0.389390
	H9	H	0.143874	0.715243	0.595614
	H10	H	0.831768	0.272594	0.597923
	H11	H	0.145509	0.278426	0.390412
	H12	H	0.830628	0.390118	0.712779
	H13	H	0.142620	0.600550	0.713570
	H14	H	0.829524	0.599117	0.271043
	H15	H	0.143799	0.392401	0.272454
	H16	H	0.382819	0.716049	0.835832
	H17	H	0.598745	0.722332	0.144488
	H18	H	0.589871	0.275366	0.834174
	H19	H	0.380186	0.272038	0.146122
	H20	H	0.705890	0.837980	0.389989
	H21	H	0.710273	0.151846	0.598565
	H22	H	0.267701	0.838012	0.595091
	H23	H	0.262754	0.149594	0.384413
	H24	H	0.879156	0.339130	0.214292
	H25	H	0.092333	0.651407	0.213606
	H26	H	0.093646	0.342013	0.767487
	H27	H	0.879130	0.651085	0.768427
	H28	H	0.206801	0.891051	0.335050
	H29	H	0.207496	0.098196	0.648979
	H30	H	0.763576	0.101269	0.336737
	H31	H	0.768932	0.893713	0.649999
	H32	H	0.329332	0.213463	0.889359
	H33	H	0.642696	0.219004	0.099446
	H34	H	0.332427	0.772989	0.097099
	H35	H	0.644221	0.773244	0.885661
	H36	H	0.333307	0.888372	0.214897
	H37	H	0.642068	0.104768	0.217031
	H38	H	0.329741	0.098180	0.771805
	H39	H	0.644178	0.889337	0.769853
	H40	H	0.880090	0.217690	0.336201
	H41	H	0.092685	0.216283	0.648200
	H42	H	0.089135	0.775378	0.334719
	H43	H	0.885927	0.777557	0.650014
	H44	H	0.210881	0.341763	0.883926
	H45	H	0.208858	0.651026	0.097905
	H46	H	0.765864	0.338056	0.095374
	H47	H	0.763238	0.650186	0.884279
	H48	H	0.402536	0.107339	0.584345
	H49	H	0.575827	0.882612	0.585466
	H50	H	0.574326	0.105637	0.407887
	H51	H	0.396389	0.881019	0.398126
	H52	H	0.575220	0.407145	0.102739
	H53	H	0.580689	0.585324	0.876820
	H54	H	0.398399	0.583727	0.104185
	H55	H	0.401840	0.411364	0.882729
	H56	H	0.097133	0.584077	0.404202
	H57	H	0.874700	0.585642	0.578784
	H58	H	0.100966	0.406957	0.584689
	H59	H	0.875566	0.408438	0.402403
	H60	H	0.098472	0.404368	0.578531
	H61	H	0.874850	0.583193	0.580890
	H62	H	0.099387	0.584572	0.398721
	H63	H	0.873442	0.404786	0.401411
	H64	H	0.401596	0.582845	0.102666
	H65	H	0.574738	0.576662	0.883436
	H66	H	0.576201	0.405319	0.103537
	H67	H	0.401568	0.400016	0.878093
	H68	H	0.576974	0.108494	0.404336
	H69	H	0.575900	0.884798	0.580129
	H70	H	0.396891	0.106296	0.576892
	H71	H	0.405136	0.885489	0.402239
	H72	H	0.895487	0.608206	0.081520
	H73	H	0.078008	0.381952	0.081802
	H74	H	0.075174	0.606319	0.908133
	H75	H	0.899924	0.386605	0.907424
	H76	H	0.074852	0.905845	0.603075
	H77	H	0.077847	0.086680	0.378708
	H78	H	0.899739	0.088190	0.604428
	H79	H	0.896364	0.904207	0.379921
	H80	H	0.598713	0.080862	0.900253
	H81	H	0.374847	0.085753	0.080361
	H82	H	0.598763	0.913520	0.083006
	H83	H	0.376469	0.908608	0.902059
	H84	H	0.600698	0.905848	0.078707
	H85	H	0.377038	0.082430	0.078180
	H86	H	0.602356	0.088212	0.898644
	H87	H	0.375067	0.904812	0.899977
	H88	H	0.896046	0.082266	0.603875
	H89	H	0.076636	0.081944	0.381354
	H90	H	0.078815	0.901196	0.605075
	H91	H	0.896308	0.904344	0.379956
	H92	H	0.078664	0.609339	0.902417
	H93	H	0.073321	0.383450	0.082476
	H94	H	0.901570	0.606286	0.083241
	H95	H	0.894286	0.381234	0.900822
	H96	H	0.393429	0.110175	0.584497
	H97	H	0.581007	0.882554	0.581827
	H98	H	0.571881	0.107644	0.403555
	H99	H	0.396032	0.884870	0.407950
	H100	H	0.577220	0.407426	0.102881
	H101	H	0.569354	0.587357	0.881689
	H102	H	0.400678	0.585979	0.103784
	H103	H	0.391647	0.406798	0.878425
	H104	H	0.100391	0.589124	0.402327
	H105	H	0.873315	0.585782	0.581656
	H106	H	0.097673	0.410976	0.580245
	H107	H	0.875113	0.405181	0.405241
	H108	H	0.899138	0.604699	0.077427
	H109	H	0.075429	0.384281	0.078173
	H110	H	0.071709	0.607640	0.901918
	H111	H	0.903781	0.384893	0.898385
	H112	H	0.080673	0.907606	0.604789
	H113	H	0.072658	0.085683	0.380755
	H114	H	0.902380	0.082730	0.601251
	H115	H	0.896315	0.905016	0.379733
	H116	H	0.599559	0.086941	0.906215
	H117	H	0.375309	0.082180	0.082268
	H118	H	0.596434	0.912144	0.074462
	H119	H	0.376215	0.904694	0.904016
	C120	C	0.366264	0.004087	0.613033
	C121	C	0.609764	0.987193	0.614623
	C122	C	0.607532	0.004044	0.372283
	C123	C	0.365588	0.986568	0.370046
	C124	C	0.608480	0.373859	-0.000144
	C125	C	0.609408	0.617225	0.982712
	C126	C	0.367410	0.616264	0.000628
	C127	C	0.365657	0.373719	0.982682
	C128	C	-0.005210	0.616527	0.370541
	C129	C	0.977792	0.616956	0.612986
	C130	C	-0.004051	0.374233	0.613610
	C131	C	0.978582	0.374763	0.371522
	C132	C	0.865452	0.503132	0.112785
	C133	C	0.108285	0.486420	0.113410
	C134	C	0.108079	0.504776	0.870654
	C135	C	0.866077	0.487218	0.869878
	C136	C	0.108812	0.873285	0.500416
	C137	C	0.108507	0.116424	0.483537
	C138	C	0.866316	0.116836	0.500425
	C139	C	0.865999	0.874244	0.484056
	C140	C	0.495923	0.116107	0.870568
	C141	C	0.478596	0.117050	0.113670
	C142	C	0.496062	0.875672	0.111820
	C143	C	0.479352	0.873721	0.869704
	C144	C	0.364686	0.885955	0.672383
	C145	C	0.611865	0.105357	0.674497
	C146	C	0.610459	0.886582	0.311293
	C147	C	0.361220	0.103207	0.308870
	C148	C	0.667344	0.372450	0.881577
	C149	C	0.671962	0.621441	0.099076
	C150	C	0.305819	0.619062	0.883689
	C151	C	0.304198	0.369983	0.099041
	C152	C	0.875936	0.674688	0.369982
	C153	C	0.096428	0.675988	0.614792
	C154	C	0.878764	0.312873	0.616301
	C155	C	0.097807	0.317028	0.371015
	C156	C	0.878098	0.371550	0.673238
	C157	C	0.095871	0.619246	0.673460
	C158	C	0.876654	0.617814	0.310956
	C159	C	0.096888	0.373816	0.312576
	C160	C	0.364561	0.676120	0.883093
	C161	C	0.615328	0.680563	0.098467
	C162	C	0.609436	0.314545	0.881555
	C163	C	0.362297	0.312688	0.099527
	C164	C	0.666874	0.885749	0.370495
	C165	C	0.669888	0.105046	0.616928
	C166	C	0.307125	0.885510	0.614157
	C167	C	0.303532	0.103015	0.366554
	C168	C	0.861922	0.385959	0.173548
	C169	C	0.110718	0.604046	0.173889
	C170	C	0.111633	0.388108	0.808825
	C171	C	0.861674	0.604247	0.808679
	C172	C	0.167357	0.872117	0.382294
	C173	C	0.167844	0.117245	0.601612
	C174	C	0.804599	0.119565	0.383397
	C175	C	0.808225	0.874396	0.602761
	C176	C	0.376915	0.174397	0.869938
	C177	C	0.595634	0.178680	0.117392
	C178	C	0.379254	0.813722	0.115097
	C179	C	0.597214	0.813511	0.867520
	C180	C	0.379443	0.871061	0.173523
	C181	C	0.595430	0.121831	0.175819
	C182	C	0.377067	0.117021	0.811635
	C183	C	0.597060	0.871084	0.809708
	C184	C	0.862648	0.177212	0.383069
	C185	C	0.110712	0.175936	0.601357
	C186	C	0.108948	0.814673	0.381894
	C187	C	0.866220	0.816508	0.602619
	C188	C	0.169762	0.388205	0.866472
	C189	C	0.168726	0.603950	0.116301
	C190	C	0.805297	0.385379	0.114439
	C191	C	0.803910	0.603795	0.866273
	C192	C	0.390767	0.086328	0.588821
	C193	C	0.584618	0.904832	0.589772
	C194	C	0.581854	0.085933	0.397950
	C195	C	0.391837	0.904931	0.395545
	C196	C	0.583506	0.399186	0.081703
	C197	C	0.582647	0.590579	0.901761
	C198	C	0.392875	0.591360	0.082243
	C199	C	0.391037	0.398811	0.901090
	C200	C	0.077589	0.592876	0.394847
	C201	C	0.895590	0.592041	0.587742
	C202	C	0.077819	0.400131	0.588352
	C203	C	0.896225	0.399105	0.396036
	C204	C	0.891209	0.585087	0.087770
	C205	C	0.082827	0.404672	0.088073
	C206	C	0.082343	0.586534	0.896746
	C207	C	0.891989	0.405512	0.895026
	C208	C	0.084902	0.897696	0.582895
	C209	C	0.083084	0.091802	0.401578
	C210	C	0.891956	0.091651	0.582036
	C211	C	0.889436	0.897853	0.401413
	C212	C	0.578729	0.092088	0.894944
	C213	C	0.396901	0.090825	0.087749
	C214	C	0.577367	0.902768	0.085901
	C215	C	0.397383	0.898943	0.894874
	Zn216	Zn	0.487671	-0.004621	0.741678
	Zn217	Zn	0.487618	-0.003940	0.242060
	Zn218	Zn	0.737345	0.495395	-0.008952
	Zn219	Zn	0.236881	0.495815	-0.007748
	Zn220	Zn	-0.013528	0.745116	0.491967
	Zn221	Zn	-0.012744	0.245651	0.491580
	Zn222	Zn	-0.013244	0.496206	0.741537
	Zn223	Zn	-0.013473	0.494872	0.241675
	Zn224	Zn	0.488547	0.745860	-0.008525
	Zn225	Zn	0.487295	0.244943	-0.008273
	Zn226	Zn	0.736969	-0.004261	0.492398
	Zn227	Zn	0.237563	-0.005140	0.491684
	N228	N	0.400502	0.960701	0.672053
	N229	N	0.575479	0.030829	0.673382
	N230	N	0.574306	0.961214	0.312094
	N231	N	0.399359	0.029755	0.310982
	N232	N	0.667214	0.408257	0.956234
	N233	N	0.668409	0.582575	0.026016
	N234	N	0.307354	0.582561	0.957784
	N235	N	0.305959	0.407257	0.025399
	N236	N	0.950615	0.674057	0.406258
	N237	N	0.022114	0.674757	0.578064
	N238	N	0.953246	0.314234	0.579964
	N239	N	0.023122	0.317327	0.406933
	N240	N	0.952113	0.408854	0.671830
	N241	N	0.020954	0.583465	0.672654
	N242	N	0.951642	0.582485	0.311190
	N243	N	0.021674	0.408727	0.312433
	N244	N	0.402029	0.674888	0.956780
	N245	N	0.577315	0.677921	0.025092
	N246	N	0.573952	0.314790	0.956231
	N247	N	0.399809	0.314668	0.026043
	N248	N	0.665360	0.959980	0.407442
	N249	N	0.668989	0.030455	0.580704
	N250	N	0.307771	0.960034	0.578211
	N251	N	0.306136	0.029347	0.403914
	N252	N	0.898568	0.460374	0.172621
	N253	N	0.073916	0.529955	0.172415
	N254	N	0.073946	0.461774	0.811279
	N255	N	0.899671	0.530628	0.810769
	N256	N	0.167499	0.907716	0.457061
	N257	N	0.166682	0.081012	0.527289
	N258	N	0.806535	0.082687	0.457391
	N259	N	0.807939	0.909608	0.528020
	N260	N	0.451974	0.174249	0.905393
	N261	N	0.521963	0.175760	0.079258
	N262	N	0.452932	0.816460	0.077571
	N263	N	0.522964	0.814873	0.904025
	N264	N	0.453193	0.908944	0.171561
	N265	N	0.521515	0.084235	0.173736
	N266	N	0.452125	0.081422	0.811899
	N267	N	0.522662	0.907780	0.810775
	N268	N	0.900062	0.175817	0.456935
	N269	N	0.074561	0.175610	0.526925
	N270	N	0.073548	0.814867	0.456562
	N271	N	0.901317	0.816332	0.527730
	N272	N	0.167472	0.461896	0.904270
	N273	N	0.167750	0.529668	0.079765
	N274	N	0.807366	0.459331	0.077334
	N275	N	0.806344	0.530056	0.903358
	O276	O	0.155846	0.897472	-0.012301
	H277	H	0.158375	0.881333	-0.022378
	H278	H	0.157752	0.898621	0.000456
	O279	O	0.403636	0.530323	0.463269
	H280	H	0.396308	0.552290	0.469722
	H281	H	0.437321	0.521471	0.465411
	O282	O	1.090139	0.020823	1.025426
	H283	H	1.088535	0.026126	1.023088
	H284	H	1.095276	0.017517	1.025618
	O285	O	0.688139	0.420340	0.564297
	H286	H	0.682403	0.414147	0.556814
	H287	H	0.694464	0.402853	0.567034
	O288	O	0.436620	0.300795	0.453584
	H289	H	0.437773	0.298860	0.454966
	H290	H	0.442647	0.299791	0.474389
	O291	O	0.281212	0.286968	0.699995
	H292	H	0.278418	0.319732	0.689599
	H293	H	0.246823	0.259515	0.732453
	O294	O	1.506999	0.285275	1.278191
	H295	H	1.515611	0.263891	1.273057
	H296	H	1.506893	0.274424	1.290880
	O297	O	0.453126	0.274724	0.710173
	H298	H	0.446493	0.246795	0.737045
	H299	H	0.419940	0.279056	0.702604
	O300	O	0.173486	-0.027037	0.776045
	H301	H	0.173309	-0.047637	0.772697
	H302	H	0.184091	-0.049208	0.764717
	O303	O	0.356351	0.592016	0.463732
	H304	H	0.360864	0.567860	0.462098
	H305	H	0.360168	0.592138	0.458591
	O306	O	0.509489	0.705826	0.702886
	H307	H	0.533562	0.718142	0.712440
	H308	H	0.534849	0.708061	0.703889
	O309	O	0.429321	0.547785	0.722254
	H310	H	0.439795	0.550460	0.729292
	H311	H	0.430208	0.558184	0.711543
	O312	O	0.437727	0.694621	0.551054
	H313	H	0.445802	0.692393	0.550284
	H314	H	0.453816	0.685327	0.560923
	O315	O	0.769150	1.028350	0.774878
	H316	H	0.762737	1.034619	0.759634
	H317	H	0.763399	1.035760	0.764996
	O318	O	0.174695	0.187122	0.803410
	H319	H	0.160660	0.156191	0.815448
	H320	H	0.153766	0.182618	0.832227
	O321	O	0.550598	0.302106	0.509472
	H322	H	0.559472	0.298980	0.523578
	H323	H	0.558367	0.313873	0.511631
	O324	O	1.037081	0.798572	0.199949
	H325	H	1.031715	0.796202	0.200189
	H326	H	1.031310	0.787709	0.216405
	O327	O	-0.170689	0.126968	1.125258
	H328	H	-0.161661	0.130047	1.118363
	H329	H	-0.166426	0.132650	1.136315
	O330	O	0.186397	1.194201	0.186819
	H331	H	0.204714	1.215142	0.200107
	H332	H	0.196957	1.167964	0.168926
	O333	O	0.764625	0.216183	0.957335
	H334	H	0.736026	0.241173	0.964091
	H335	H	0.765978	0.202367	0.943893
	O336	O	0.685791	0.295563	0.294795
	H337	H	0.685502	0.325490	0.282091
	H338	H	0.675283	0.299288	0.297916
	O339	O	0.930484	0.207827	1.032311
	H340	H	0.933066	0.204681	1.028293
	H341	H	0.917556	0.209001	1.043730
	O342	O	0.289476	0.296134	0.289652
	H343	H	0.299175	0.311090	0.287509
	H344	H	0.298231	0.296443	0.308312
	O345	O	0.192506	1.208894	1.015473
	H346	H	0.189873	1.201333	1.022141
	H347	H	0.211939	1.212182	1.014893
	O348	O	0.334132	0.441555	0.400948
	H349	H	0.332656	0.458076	0.396318
	H350	H	0.335924	0.433642	0.395700
	O351	O	-0.053060	0.933740	0.029002
	H352	H	-0.051739	0.935215	0.036125
	H353	H	-0.044468	0.931603	0.030061
	O354	O	0.184113	-0.091298	1.172894
	H355	H	0.177542	-0.077708	1.161097
	H356	H	0.168896	-0.104426	1.173516
	O357	O	0.271207	0.269669	0.526013
	H358	H	0.247018	0.248124	0.541197
	H359	H	0.275376	0.270831	0.536451
	O360	O	0.275033	0.575103	0.463066
	H361	H	0.291173	0.575982	0.455078
	H362	H	0.261872	0.573681	0.469455
	O363	O	0.018880	-0.219780	-0.222530
	H364	H	0.018439	-0.218426	-0.224018
	H365	H	0.012733	-0.234925	-0.224677
	O366	O	0.280195	0.466191	0.701499
	H367	H	0.290425	0.470267	0.689911
	H368	H	0.271143	0.465662	0.713845
	O369	O	1.196630	-0.213667	-0.217038
	H370	H	1.162512	-0.209048	-0.214242
	H371	H	1.226773	-0.247501	-0.249538
	O372	O	0.957868	1.208687	0.205838
	H373	H	0.965486	1.231575	0.221322
	H374	H	0.978842	1.209466	0.206199
	O375	O	0.932196	0.059167	0.197909
	H376	H	0.932799	0.044284	0.199657
	H377	H	0.938996	0.067339	0.202253
	O378	O	0.541354	0.389984	0.670488
	H379	H	0.530148	0.395089	0.677295
	H380	H	0.542691	0.379577	0.674498
	O381	O	0.016614	0.839926	0.891436
	H382	H	0.009542	0.828622	0.884694
	H383	H	0.010246	0.850780	0.908880
	O384	O	1.029487	0.013128	0.772577
	H385	H	1.042260	0.014791	0.764476
	H386	H	1.025707	0.007933	0.779181
	O387	O	0.882603	0.801710	-0.118967
	H388	H	0.881994	0.812602	-0.114738
	H389	H	0.884499	0.811542	-0.094822
	O390	O	0.700054	0.278903	0.466390
	H391	H	0.701680	0.271461	0.452442
	H392	H	0.705449	0.262232	0.451507
	O393	O	0.461667	0.706464	0.278451
	H394	H	0.460921	0.718528	0.280656
	H395	H	0.458214	0.704871	0.276047
	O396	O	-0.219626	0.869008	1.082010
	H397	H	-0.196100	0.887979	1.075940
	H398	H	-0.208186	0.869019	1.094761
	O399	O	0.111208	0.060912	1.206853
	H400	H	0.122610	0.066218	1.202561
	H401	H	0.123812	0.064777	1.213592
	O402	O	0.666490	-0.404723	0.494108
	H403	H	0.676225	-0.417372	0.516382
	H404	H	0.670274	-0.404336	0.514647
	O405	O	1.675121	0.664944	0.322391
	H406	H	1.677036	0.670636	0.331772
	H407	H	1.651764	0.651928	0.323249
	O408	O	0.049175	-0.184454	0.093593
	H409	H	0.048413	-0.197366	0.095423
	H410	H	0.049950	-0.187828	0.080543
	O411	O	0.783795	0.786983	1.009874
	H412	H	0.769033	0.786307	1.011775
	H413	H	0.773683	0.791975	1.014391
	O414	O	0.557706	0.417825	0.473094
	H415	H	0.553020	0.427274	0.484088
	H416	H	0.561323	0.417109	0.461690
	O417	O	0.857183	0.779948	0.207334
	H418	H	0.853971	0.770069	0.218576
	H419	H	0.853529	0.766074	0.194002
	O420	O	0.481904	0.554287	0.510576
	H421	H	0.455924	0.555019	0.500178
	H422	H	0.487053	0.553316	0.525384
	O423	O	-0.190504	-0.046270	0.910222
	H424	H	-0.182875	-0.032174	0.908771
	H425	H	-0.191302	-0.024455	0.913261
	O426	O	0.638360	0.340804	0.680091
	H427	H	0.645766	0.332426	0.698622
	H428	H	0.618112	0.337438	0.671429
	O429	O	1.041336	1.228818	0.928448
	H430	H	1.040624	1.231431	0.922113
	H431	H	1.039103	1.227365	0.948647
	O432	O	0.267450	0.521015	0.267728
	H433	H	0.253044	0.522344	0.238877
	H434	H	0.262595	0.548090	0.279528
	O435	O	-0.311044	0.702941	-0.303746
	H436	H	-0.292389	0.717021	-0.309134
	H437	H	-0.295797	0.677579	-0.288585
	O438	O	-0.009694	0.033986	0.172133
	H439	H	-0.008215	0.034974	0.177936
	H440	H	0.000307	0.039525	0.178085
	O441	O	-0.298553	-0.321467	-0.493718
	H442	H	-0.300112	-0.310574	-0.482857
	H443	H	-0.299832	-0.304270	-0.502440
	O444	O	0.555092	0.552003	0.406861
	H445	H	0.562908	0.539304	0.410099
	H446	H	0.554200	0.541557	0.401145
	O447	O	-0.039863	1.210659	0.776069
	H448	H	-0.027658	1.200601	0.760545
	H449	H	-0.035000	1.229113	0.779105
	O450	O	-0.081074	0.887034	0.826976
	H451	H	-0.072083	0.900980	0.831471
	H452	H	-0.067434	0.886019	0.821675
	O453	O	0.284532	0.705664	0.280787
	H454	H	0.294479	0.701463	0.267456
	H455	H	0.288844	0.711350	0.322403
	O456	O	0.702958	0.461918	1.275796
	H457	H	0.715233	0.480576	1.281677
	H458	H	0.709193	0.470838	1.260469
	O459	O	0.954317	1.016068	-0.105743
	H460	H	0.947636	1.017696	-0.090594
	H461	H	0.955808	1.023173	-0.095273
	O462	O	0.464702	0.597428	0.326201
	H463	H	0.448018	0.589028	0.316109
	H464	H	0.453454	0.609695	0.319148
	O465	O	1.440653	0.473435	0.334046
	H466	H	1.421759	0.468556	0.336142
	H467	H	1.443258	0.456574	0.325050
	O468	O	0.297904	0.683485	0.680995
	H469	H	0.310138	0.665301	0.655926
	H470	H	0.324802	0.662648	0.673611
	O471	O	0.790142	0.198749	0.793489
	H472	H	0.792173	0.179272	0.807244
	H473	H	0.821078	0.200136	0.791999
	O474	O	0.693724	0.536394	0.705499
	H475	H	0.705197	0.520530	0.718902
	H476	H	0.689286	0.535076	0.704881
	O477	O	1.185752	0.053550	1.956321
	H478	H	1.172154	0.045861	1.961433
	H479	H	1.193733	0.039007	1.947100
	O480	O	0.445580	0.638380	0.470637
	H481	H	0.445199	0.631495	0.480416
	H482	H	0.452991	0.628979	0.467368
	O483	O	0.211636	0.805753	-0.025637
	H484	H	0.230452	0.784610	-0.035459
	H485	H	0.214449	0.800366	-0.041776
	O486	O	0.858446	0.003603	1.005539
	H487	H	0.856415	-0.004686	1.008090
	H488	H	0.853622	-0.007066	1.014527
	O489	O	0.768673	0.964237	0.203350
	H490	H	0.775761	0.967641	0.208942
	H491	H	0.760236	0.963180	0.216427
