data_Molecule from HDF5

_cell_length_a		16.617547
_cell_length_b		16.597362
_cell_length_c		16.685050
_cell_angle_alpha	90.192972
_cell_angle_beta	89.782605
_cell_angle_gamma	89.956219
_symmetry_space_group_name_H-M	'P 1'
_symmetry_Int_Tables_number		1

loop_
	_symmetry_equiv_pos_as_xyz
	x,y,z

loop_
	_atom_site_label
	_atom_site_type_symbol
	_atom_site_fract_x
	_atom_site_fract_y
	_atom_site_fract_z
	H0	H	0.385871	0.853315	0.715344
	H1	H	0.599764	0.161760	0.717806
	H2	H	0.601190	0.854472	0.267815
	H3	H	0.385720	0.162924	0.271688
	H4	H	0.713233	0.404184	0.836595
	H5	H	0.714899	0.615698	0.147213
	H6	H	0.272981	0.612152	0.836641
	H7	H	0.267808	0.401807	0.145977
	H8	H	0.836602	0.730219	0.388523
	H9	H	0.148572	0.727576	0.594900
	H10	H	0.837344	0.287712	0.597581
	H11	H	0.148158	0.288457	0.387697
	H12	H	0.836327	0.404851	0.713278
	H13	H	0.147644	0.613386	0.713502
	H14	H	0.836123	0.613838	0.272706
	H15	H	0.148044	0.404027	0.271442
	H16	H	0.388914	0.728544	0.837570
	H17	H	0.597545	0.731528	0.147439
	H18	H	0.596014	0.288651	0.836459
	H19	H	0.384328	0.285414	0.146039
	H20	H	0.712674	0.851815	0.388117
	H21	H	0.716281	0.161929	0.601005
	H22	H	0.268436	0.854980	0.601925
	H23	H	0.272752	0.164541	0.390724
	H24	H	0.886627	0.352575	0.212812
	H25	H	0.095622	0.664160	0.212416
	H26	H	0.093950	0.351998	0.773284
	H27	H	0.891760	0.666670	0.776111
	H28	H	0.215235	0.903349	0.339197
	H29	H	0.211098	0.112774	0.649404
	H30	H	0.769276	0.114080	0.339427
	H31	H	0.769817	0.902991	0.648062
	H32	H	0.337331	0.230137	0.888850
	H33	H	0.648445	0.230078	0.098317
	H34	H	0.336366	0.789446	0.097563
	H35	H	0.648562	0.790295	0.890803
	H36	H	0.336931	0.904961	0.214775
	H37	H	0.647411	0.115140	0.215305
	H38	H	0.338402	0.116149	0.771205
	H39	H	0.646987	0.903967	0.772284
	H40	H	0.887620	0.228179	0.337581
	H41	H	0.094674	0.229672	0.648368
	H42	H	0.098875	0.787474	0.338541
	H43	H	0.888977	0.789281	0.649030
	H44	H	0.209942	0.351474	0.889832
	H45	H	0.211285	0.664177	0.095630
	H46	H	0.773430	0.351515	0.094379
	H47	H	0.775402	0.666889	0.892160
	H48	H	0.407303	0.119572	0.586435
	H49	H	0.579514	0.898972	0.577302
	H50	H	0.579490	0.118542	0.406231
	H51	H	0.407546	0.898424	0.406213
	H52	H	0.585938	0.418580	0.105335
	H53	H	0.582442	0.597525	0.881797
	H54	H	0.401833	0.598814	0.103813
	H55	H	0.400078	0.421622	0.881742
	H56	H	0.102040	0.596478	0.404574
	H57	H	0.879971	0.600339	0.582430
	H58	H	0.103396	0.423047	0.584220
	H59	H	0.880655	0.421173	0.403176
	H60	H	0.106104	0.415786	0.583431
	H61	H	0.881956	0.596993	0.580305
	H62	H	0.103422	0.594880	0.401462
	H63	H	0.879254	0.418442	0.399758
	H64	H	0.401426	0.595919	0.103340
	H65	H	0.582992	0.600322	0.880985
	H66	H	0.581773	0.424269	0.102022
	H67	H	0.407688	0.420659	0.883878
	H68	H	0.582588	0.119921	0.405116
	H69	H	0.582796	0.896043	0.582108
	H70	H	0.404902	0.117987	0.578707
	H71	H	0.403084	0.897493	0.406733
	H72	H	0.902435	0.619857	0.078720
	H73	H	0.080066	0.396750	0.079292
	H74	H	0.088695	0.622861	0.903394
	H75	H	0.895992	0.391397	0.892236
	H76	H	0.075041	0.921359	0.600892
	H77	H	0.079199	0.100190	0.382141
	H78	H	0.902445	0.095473	0.603341
	H79	H	0.903680	0.922495	0.383462
	H80	H	0.601961	0.091757	0.908081
	H81	H	0.382179	0.095540	0.082417
	H82	H	0.605428	0.915414	0.078998
	H83	H	0.375560	0.913333	0.899327
	H84	H	0.602226	0.924595	0.079812
	H85	H	0.380950	0.097752	0.084912
	H86	H	0.605428	0.095086	0.899442
	H87	H	0.382061	0.917331	0.912088
	H88	H	0.905749	0.097266	0.602976
	H89	H	0.087490	0.099317	0.379492
	H90	H	0.081923	0.911282	0.607972
	H91	H	0.906817	0.917773	0.382398
	H92	H	0.080760	0.622912	0.895470
	H93	H	0.080146	0.395650	0.080499
	H94	H	0.900600	0.621820	0.084764
	H95	H	0.913612	0.398974	0.899524
	H96	H	0.399430	0.121102	0.584173
	H97	H	0.576696	0.897072	0.583090
	H98	H	0.580548	0.119342	0.402684
	H99	H	0.404757	0.896483	0.402841
	H100	H	0.578829	0.417187	0.102887
	H101	H	0.585679	0.598000	0.880944
	H102	H	0.403723	0.597426	0.103124
	H103	H	0.403047	0.414929	0.880479
	H104	H	0.104463	0.598144	0.402154
	H105	H	0.880816	0.596473	0.584792
	H106	H	0.102197	0.419004	0.577717
	H107	H	0.879637	0.416675	0.403961
	H108	H	0.906627	0.619261	0.083941
	H109	H	0.078954	0.396499	0.080522
	H110	H	0.078085	0.619674	0.906015
	H111	H	0.897221	0.398156	0.911633
	H112	H	0.088135	0.924512	0.605860
	H113	H	0.083281	0.092467	0.383115
	H114	H	0.903059	0.098549	0.605089
	H115	H	0.901294	0.918318	0.380950
	H116	H	0.604538	0.101390	0.907360
	H117	H	0.381133	0.099145	0.081220
	H118	H	0.606072	0.919933	0.087161
	H119	H	0.381794	0.926627	0.900705
	C120	C	0.370888	0.017237	0.615669
	C121	C	0.612806	0.999878	0.614023
	C122	C	0.613819	0.016483	0.371808
	C123	C	0.372278	1.000048	0.373059
	C124	C	0.613670	0.387691	0.000542
	C125	C	0.614717	0.630540	0.984187
	C126	C	0.371316	0.628896	0.000603
	C127	C	0.370387	0.386728	0.983955
	C128	C	0.000718	0.629687	0.371023
	C129	C	0.984009	0.629660	0.613658
	C130	C	0.000327	0.388201	0.613104
	C131	C	0.983409	0.387168	0.370937
	C132	C	0.870902	0.517207	0.113852
	C133	C	0.112471	0.499408	0.112834
	C134	C	0.113505	0.517835	0.870289
	C135	C	0.871547	0.500393	0.871278
	C136	C	0.114766	0.886684	0.502409
	C137	C	0.114068	0.129977	0.484441
	C138	C	0.870871	0.129493	0.501618
	C139	C	0.871523	0.887344	0.484792
	C140	C	0.501391	0.129220	0.872463
	C141	C	0.484255	0.130274	0.114742
	C142	C	0.501521	0.887821	0.114617
	C143	C	0.482985	0.886821	0.871793
	C144	C	0.367689	0.900590	0.675718
	C145	C	0.617146	0.115904	0.676379
	C146	C	0.617597	0.900345	0.309879
	C147	C	0.368595	0.116745	0.312666
	C148	C	0.672931	0.385887	0.883290
	C149	C	0.674326	0.633479	0.100859
	C150	C	0.312656	0.630599	0.883573
	C151	C	0.308933	0.383952	0.099866
	C152	C	0.883422	0.690037	0.369834
	C153	C	0.101718	0.688531	0.614475
	C154	C	0.883512	0.328402	0.615450
	C155	C	0.101220	0.328255	0.369457
	C156	C	0.883261	0.386014	0.673342
	C157	C	0.101107	0.631826	0.673182
	C158	C	0.883263	0.632092	0.312239
	C159	C	0.101170	0.385763	0.311693
	C160	C	0.370629	0.688286	0.884019
	C161	C	0.616336	0.691130	0.100892
	C162	C	0.614654	0.328454	0.883268
	C163	C	0.366921	0.326249	0.100032
	C164	C	0.673422	0.899098	0.369291
	C165	C	0.675008	0.115932	0.618557
	C166	C	0.309316	0.901086	0.619187
	C167	C	0.312379	0.117418	0.371851
	C168	C	0.868164	0.399500	0.173114
	C169	C	0.114459	0.616993	0.172972
	C170	C	0.113578	0.399083	0.812372
	C171	C	0.872325	0.619359	0.814929
	C172	C	0.175284	0.884701	0.385901
	C173	C	0.171820	0.131707	0.602290
	C174	C	0.809987	0.132066	0.385514
	C175	C	0.810514	0.884734	0.601465
	C176	C	0.384368	0.190049	0.870466
	C177	C	0.601515	0.190398	0.116945
	C178	C	0.383457	0.828839	0.116459
	C179	C	0.601315	0.829098	0.871318
	C180	C	0.383887	0.886050	0.174723
	C181	C	0.601010	0.133211	0.174887
	C182	C	0.384562	0.133272	0.812070
	C183	C	0.600352	0.885327	0.812289
	C184	C	0.868734	0.188896	0.384735
	C185	C	0.114166	0.189772	0.601755
	C186	C	0.117339	0.827202	0.385427
	C187	C	0.869747	0.828287	0.601914
	C188	C	0.170934	0.398880	0.870207
	C189	C	0.171716	0.617030	0.114754
	C190	C	0.812070	0.398974	0.114238
	C191	C	0.814366	0.619271	0.872534
	C192	C	0.396585	0.098639	0.590020
	C193	C	0.586902	0.918555	0.588236
	C194	C	0.588193	0.098147	0.397468
	C195	C	0.397970	0.918774	0.398011
	C196	C	0.589101	0.412851	0.082257
	C197	C	0.590593	0.605550	0.902316
	C198	C	0.395365	0.604278	0.082268
	C199	C	0.396204	0.411982	0.903064
	C200	C	0.082195	0.603957	0.395777
	C201	C	0.902149	0.604890	0.589436
	C202	C	0.082553	0.412474	0.588680
	C203	C	0.901223	0.411600	0.395464
	C204	C	0.895991	0.598992	0.089526
	C205	C	0.086910	0.417592	0.087523
	C206	C	0.089422	0.600360	0.894456
	C207	C	0.895225	0.417579	0.894384
	C208	C	0.089141	0.911717	0.583800
	C209	C	0.090323	0.104573	0.402900
	C210	C	0.896411	0.104262	0.582594
	C211	C	0.896680	0.912325	0.403483
	C212	C	0.582605	0.103253	0.897481
	C213	C	0.402640	0.104937	0.089892
	C214	C	0.583231	0.912762	0.089437
	C215	C	0.401161	0.911776	0.896920
	Zn216	Zn	0.492027	0.008442	0.743761
	Zn217	Zn	0.492987	0.009277	0.243082
	Zn218	Zn	0.743136	0.508810	-0.007212
	Zn219	Zn	0.241356	0.508188	-0.008150
	Zn220	Zn	-0.006999	0.757879	0.492638
	Zn221	Zn	-0.007802	0.258544	0.492412
	Zn222	Zn	-0.007684	0.508719	0.742221
	Zn223	Zn	-0.008240	0.508089	0.241958
	Zn224	Zn	0.492163	0.759119	-0.006709
	Zn225	Zn	0.492963	0.258066	-0.006557
	Zn226	Zn	0.742181	0.007626	0.493030
	Zn227	Zn	0.243002	0.008479	0.494246
	N228	N	0.405397	0.973937	0.673774
	N229	N	0.579272	0.042633	0.673787
	N230	N	0.581284	0.974545	0.311333
	N231	N	0.405295	0.042807	0.313141
	N232	N	0.672850	0.421832	0.957465
	N233	N	0.673479	0.596592	0.027102
	N234	N	0.312972	0.594292	0.957282
	N235	N	0.311057	0.420968	0.026601
	N236	N	0.957735	0.688828	0.405498
	N237	N	0.027865	0.687301	0.578205
	N238	N	0.957396	0.329565	0.578723
	N239	N	0.026942	0.328960	0.405737
	N240	N	0.957114	0.422572	0.671955
	N241	N	0.026907	0.595837	0.672816
	N242	N	0.957218	0.595060	0.312772
	N243	N	0.026746	0.421530	0.312176
	N244	N	0.406378	0.687623	0.957941
	N245	N	0.579927	0.689645	0.027243
	N246	N	0.578446	0.329497	0.957332
	N247	N	0.404919	0.328111	0.027136
	N248	N	0.671307	0.972609	0.407123
	N249	N	0.672494	0.042748	0.580403
	N250	N	0.311311	0.974728	0.582310
	N251	N	0.314340	0.043736	0.408700
	N252	N	0.904012	0.474083	0.173207
	N253	N	0.078596	0.542455	0.172058
	N254	N	0.079156	0.474320	0.811789
	N255	N	0.906789	0.544165	0.813686
	N256	N	0.174003	0.920850	0.459870
	N257	N	0.172068	0.095433	0.528307
	N258	N	0.810742	0.096029	0.459440
	N259	N	0.811407	0.920679	0.527566
	N260	N	0.458123	0.187875	0.907191
	N261	N	0.527665	0.189065	0.080652
	N262	N	0.457756	0.829368	0.080176
	N263	N	0.527014	0.829657	0.907331
	N264	N	0.458436	0.921797	0.173919
	N265	N	0.526854	0.096802	0.174104
	N266	N	0.458416	0.096155	0.813077
	N267	N	0.525512	0.920339	0.812192
	N268	N	0.905762	0.187594	0.458039
	N269	N	0.079315	0.189202	0.527232
	N270	N	0.080613	0.828023	0.459044
	N271	N	0.906925	0.829508	0.528234
	N272	N	0.171390	0.473857	0.905263
	N273	N	0.170849	0.542773	0.078268
	N274	N	0.813491	0.473124	0.078145
	N275	N	0.813625	0.544132	0.906686
	O276	O	0.215295	1.234228	0.217559
	H277	H	0.249792	1.259564	0.246541
	H278	H	0.220824	1.204530	0.216785
	O279	O	-0.230628	0.225612	-0.050802
	H280	H	-0.240639	0.250121	-0.038863
	H281	H	-0.219302	0.226773	-0.051475
	O282	O	1.203652	0.220515	1.026022
	H283	H	1.222445	0.229196	1.023859
	H284	H	1.204960	0.216346	1.040841
	O285	O	0.667674	0.524813	0.650119
	H286	H	0.689367	0.545235	0.674248
	H287	H	0.665582	0.544515	0.642971
	O288	O	1.215118	0.958123	0.043986
	H289	H	1.212178	0.918398	0.022751
	H290	H	1.205431	0.974849	0.019167
	O291	O	0.292735	0.424749	0.436097
	H292	H	0.285847	0.414896	0.464593
	H293	H	0.295414	0.418379	0.452023
	O294	O	0.781774	-0.196590	1.032451
	H295	H	0.788327	-0.205857	1.024631
	H296	H	0.773475	-0.204567	1.032884
	O297	O	0.764389	0.230652	0.224836
	H298	H	0.745105	0.261457	0.248846
	H299	H	0.763902	0.217958	0.237815
	O300	O	0.043592	0.208943	0.904396
	H301	H	0.012430	0.211179	0.914467
	H302	H	0.054398	0.218263	0.930154
	O303	O	0.420990	0.453664	0.277990
	H304	H	0.439584	0.460526	0.277937
	H305	H	0.435605	0.455381	0.275217
	O306	O	0.337617	0.312920	0.291618
	H307	H	0.354295	0.318662	0.323008
	H308	H	0.356105	0.330414	0.288006
	O309	O	0.275724	0.585695	0.590665
	H310	H	0.287145	0.584618	0.589476
	H311	H	0.284787	0.593334	0.576583
	O312	O	0.529715	0.731676	0.715079
	H313	H	0.516292	0.748842	0.709483
	H314	H	0.521062	0.736514	0.728107
	O315	O	1.037751	0.820133	0.790381
	H316	H	1.027143	0.836882	0.801611
	H317	H	1.023829	0.813945	0.788535
	O318	O	0.390425	0.621250	0.461178
	H319	H	0.395330	0.629842	0.452207
	H320	H	0.380318	0.607988	0.436752
	O321	O	0.434517	0.486644	0.622464
	H322	H	0.433757	0.482684	0.619565
	H323	H	0.430567	0.495754	0.630283
	O324	O	1.210046	0.794071	-0.028379
	H325	H	1.219979	0.787199	-0.067836
	H326	H	1.208385	0.779917	-0.039009
	O327	O	0.205048	0.044690	1.209502
	H328	H	0.215012	0.031957	1.183999
	H329	H	0.223763	0.051141	1.220024
	O330	O	0.503417	0.608381	0.372623
	H331	H	0.514205	0.605425	0.374147
	H332	H	0.502445	0.601749	0.360122
	O333	O	0.680764	0.315626	0.682071
	H334	H	0.657960	0.333077	0.667351
	H335	H	0.667593	0.332098	0.657475
	O336	O	0.692812	0.640805	0.366526
	H337	H	0.718036	0.633973	0.372165
	H338	H	0.707319	0.651692	0.382486
	O339	O	1.190324	-0.192321	0.798446
	H340	H	1.149229	-0.187516	0.786493
	H341	H	1.216263	-0.223243	0.765738
	O342	O	-0.067846	-0.134940	-0.159537
	H343	H	-0.066344	-0.129108	-0.141534
	H344	H	-0.069275	-0.117609	-0.149076
	O345	O	-0.338449	0.701374	1.668385
	H346	H	-0.318734	0.733057	1.701774
	H347	H	-0.372424	0.710230	1.663391
	O348	O	-0.221206	0.019933	0.161993
	H349	H	-0.218986	0.018320	0.164848
	H350	H	-0.223939	0.009019	0.179274
	O351	O	1.280435	0.715185	-0.298352
	H352	H	1.294360	0.704859	-0.315690
	H353	H	1.298759	0.699918	-0.321233
	O354	O	0.286858	-0.284098	1.281411
	H355	H	0.333394	-0.285425	1.276564
	H356	H	0.274982	-0.321702	1.276627
	O357	O	0.712318	0.540507	0.349624
	H358	H	0.719709	0.521371	0.366748
	H359	H	0.726712	0.548790	0.365568
	O360	O	-0.067348	0.199632	1.004892
	H361	H	-0.078170	0.183820	1.015621
	H362	H	-0.068031	0.202588	1.035852
	O363	O	-0.017637	0.005855	-0.060233
	H364	H	-0.018026	0.008504	-0.053476
	H365	H	-0.009503	-0.000858	-0.061183
	O366	O	0.544760	0.702670	0.467978
	H367	H	0.564002	0.705908	0.462480
	H368	H	0.560529	0.692829	0.458735
	O369	O	0.618529	0.411691	0.331934
	H370	H	0.618088	0.419389	0.335576
	H371	H	0.625765	0.418077	0.330751
	O372	O	1.053042	0.930548	0.209651
	H373	H	1.057516	0.959645	0.209292
	H374	H	1.080721	0.933606	0.211556
	O375	O	0.891900	-0.025473	0.122171
	H376	H	0.895656	-0.036208	0.126839
	H377	H	0.875624	-0.026929	0.128086
	O378	O	0.447724	0.373548	0.642116
	H379	H	0.435994	0.371040	0.654946
	H380	H	0.449683	0.366447	0.642705
	O381	O	-0.034772	0.900469	0.894587
	H382	H	-0.026569	0.911762	0.903208
	H383	H	-0.034082	0.910308	0.913219
	O384	O	0.901439	0.167243	0.772164
	H385	H	0.889970	0.174268	0.774959
	H386	H	0.897118	0.193570	0.767452
	O387	O	0.931837	1.061604	0.217885
	H388	H	0.918734	1.049982	0.215072
	H389	H	0.947106	1.088716	0.217483
	O390	O	0.716151	0.728729	0.528025
	H391	H	0.730463	0.750350	0.543264
	H392	H	0.718072	0.733308	0.548369
	O393	O	0.708233	0.289248	0.469915
	H394	H	0.693660	0.281090	0.473643
	H395	H	0.714986	0.274264	0.475088
	O396	O	-0.015259	0.806525	1.059638
	H397	H	-0.010598	0.809944	1.075579
	H398	H	-0.006149	0.816196	1.060890
	O399	O	0.178644	-0.176186	1.185897
	H400	H	0.188178	-0.181164	1.184222
	H401	H	0.195748	-0.168575	1.180486
	O402	O	0.274546	0.289034	0.539277
	H403	H	0.277393	0.296446	0.579902
	H404	H	0.247147	0.260413	0.553120
	O405	O	1.178058	0.198455	0.803572
	H406	H	1.161294	0.170604	0.807452
	H407	H	1.151487	0.195753	0.833350
	O408	O	-0.175811	0.054415	-0.160352
	H409	H	-0.187569	0.078581	-0.162850
	H410	H	-0.175268	0.069594	-0.153271
	O411	O	0.772017	0.792225	0.773317
	H412	H	0.769552	0.810301	0.783562
	H413	H	0.795740	0.812033	0.799400
	O414	O	0.530899	0.295523	0.292860
	H415	H	0.530556	0.274774	0.269820
	H416	H	0.544372	0.303951	0.304735
	O417	O	0.645077	0.447493	0.514221
	H418	H	0.637599	0.450355	0.529062
	H419	H	0.652416	0.439918	0.521312
	O420	O	0.548629	0.269753	0.558673
	H421	H	0.531176	0.265722	0.578236
	H422	H	0.531445	0.269060	0.554687
	O423	O	-0.035040	0.050444	0.800391
	H424	H	-0.038062	0.053869	0.796964
	H425	H	-0.065259	0.054575	0.801546
	O426	O	0.506169	0.553252	0.519222
	H427	H	0.497364	0.563156	0.520317
	H428	H	0.505432	0.563067	0.520023
	O429	O	0.770342	0.953257	0.918419
	H430	H	0.767237	0.969615	0.918769
	H431	H	0.778812	0.954408	0.929982
	O432	O	0.648683	0.350443	0.307256
	H433	H	0.651203	0.376034	0.317810
	H434	H	0.634138	0.353285	0.329628
	O435	O	0.272813	0.734992	0.466811
	H436	H	0.280230	0.715469	0.423128
	H437	H	0.237565	0.770960	0.456823
	O438	O	0.423360	-0.268274	0.554604
	H439	H	0.406509	-0.261279	0.527786
	H440	H	0.436437	-0.260890	0.530564
	O441	O	-0.105594	0.198335	0.141375
	H442	H	-0.099486	0.208607	0.170416
	H443	H	-0.118825	0.181274	0.154451
	O444	O	0.537705	0.562147	0.255533
	H445	H	0.557076	0.576288	0.254733
	H446	H	0.550304	0.558813	0.259734
	O447	O	0.213602	0.991132	0.776751
	H448	H	0.221044	0.978345	0.755205
	H449	H	0.209965	0.966894	0.767656
	O450	O	-0.209204	0.834801	1.161604
	H451	H	-0.172571	0.834715	1.173154
	H452	H	-0.212772	0.835943	1.128722
	O453	O	0.421169	0.291567	0.437583
	H454	H	0.417891	0.297762	0.441480
	H455	H	0.409063	0.282357	0.447380
	O456	O	-0.154608	0.032316	1.045842
	H457	H	-0.160070	0.036493	1.054587
	H458	H	-0.149465	0.037084	1.035778
	O459	O	1.017959	1.230739	0.196325
	H460	H	1.038222	1.239434	0.204407
	H461	H	1.036601	1.244211	0.215889
	O462	O	0.480112	0.541734	0.717912
	H463	H	0.491569	0.525456	0.726239
	H464	H	0.489878	0.558311	0.710311
	O465	O	0.987156	-0.212917	0.014348
	H466	H	1.005247	-0.215446	0.023565
	H467	H	1.001383	-0.205582	0.019424
	O468	O	0.526591	0.483498	0.429217
	H469	H	0.514501	0.472568	0.442621
	H470	H	0.523428	0.478196	0.433321
	O471	O	0.285305	0.296729	0.701198
	H472	H	0.252874	0.269962	0.734586
	H473	H	0.292652	0.334931	0.710337
	O474	O	0.459652	0.734920	0.271612
	H475	H	0.466595	0.741675	0.263684
	H476	H	0.473894	0.744070	0.260532
	O477	O	0.273438	0.536287	1.276137
	H478	H	0.271763	0.516770	1.285320
	H479	H	0.267665	0.525207	1.255421
	O480	O	0.488239	0.394679	0.717644
	H481	H	0.491506	0.380620	0.719263
	H482	H	0.477778	0.401063	0.725983
	O483	O	0.718338	0.516027	0.646482
	H484	H	0.700137	0.547903	0.646430
	H485	H	0.741354	0.516634	0.671460
	O486	O	0.788249	0.214414	0.780663
	H487	H	0.779768	0.235997	0.768149
	H488	H	0.774531	0.231354	0.798129
	O489	O	0.950931	0.790945	0.210936
	H490	H	0.967711	0.803307	0.220857
	H491	H	0.966737	0.787977	0.229197
	O492	O	0.227178	0.065426	-0.059822
	H493	H	0.224225	0.077942	-0.065363
	H494	H	0.227686	0.052225	-0.089161
	O495	O	0.047508	1.067328	0.783453
	H496	H	0.046553	1.069802	0.780271
	H497	H	0.036623	1.072618	0.790638
	O498	O	1.080859	1.091464	1.118723
	H499	H	1.089867	1.095403	1.113856
	H500	H	1.083140	1.109273	1.125660
	O501	O	0.271608	0.470244	0.715257
	H502	H	0.261234	0.481911	0.709489
	H503	H	0.254073	0.479103	0.718616
