data_Molecule from HDF5

_cell_length_a		16.311266
_cell_length_b		16.296654
_cell_length_c		16.201971
_cell_angle_alpha	90.118429
_cell_angle_beta	89.915921
_cell_angle_gamma	90.142433
_symmetry_space_group_name_H-M	'P 1'
_symmetry_Int_Tables_number		1

loop_
	_symmetry_equiv_pos_as_xyz
	x,y,z

loop_
	_atom_site_label
	_atom_site_type_symbol
	_atom_site_fract_x
	_atom_site_fract_y
	_atom_site_fract_z
	H0	H	0.404634	0.828156	0.706308
	H1	H	0.598685	0.156043	0.706151
	H2	H	0.597649	0.828182	0.279207
	H3	H	0.407560	0.156372	0.281724
	H4	H	0.714093	0.394836	0.828352
	H5	H	0.715158	0.591836	0.157198
	H6	H	0.289247	0.589360	0.828025
	H7	H	0.286784	0.394707	0.157735
	H8	H	0.838287	0.704654	0.395232
	H9	H	0.164456	0.706467	0.590304
	H10	H	0.838159	0.278233	0.589507
	H11	H	0.165529	0.276403	0.393490
	H12	H	0.837525	0.395782	0.705038
	H13	H	0.166140	0.589476	0.705483
	H14	H	0.837178	0.587285	0.280561
	H15	H	0.165441	0.394459	0.277772
	H16	H	0.403463	0.705692	0.828550
	H17	H	0.598672	0.706190	0.156781
	H18	H	0.597992	0.278907	0.828429
	H19	H	0.402513	0.278774	0.157938
	H20	H	0.716037	0.827477	0.393591
	H21	H	0.716503	0.155656	0.590691
	H22	H	0.285889	0.828669	0.593301
	H23	H	0.287088	0.154705	0.394768
	H24	H	0.903107	0.327381	0.204687
	H25	H	0.098095	0.656049	0.206442
	H26	H	0.097542	0.327819	0.778348
	H27	H	0.906365	0.656411	0.780780
	H28	H	0.215412	0.892872	0.327953
	H29	H	0.216083	0.091071	0.657236
	H30	H	0.790478	0.088137	0.328228
	H31	H	0.788631	0.895101	0.657163
	H32	H	0.337800	0.205698	0.895275
	H33	H	0.664699	0.207605	0.091225
	H34	H	0.337443	0.777254	0.091561
	H35	H	0.664556	0.777626	0.893884
	H36	H	0.337795	0.894716	0.207316
	H37	H	0.666234	0.090617	0.206098
	H38	H	0.338369	0.090071	0.778378
	H39	H	0.665604	0.895720	0.779448
	H40	H	0.904339	0.204866	0.328475
	H41	H	0.100742	0.206542	0.657022
	H42	H	0.099402	0.777583	0.328508
	H43	H	0.903277	0.778771	0.657934
	H44	H	0.215918	0.328282	0.892470
	H45	H	0.215714	0.656395	0.090903
	H46	H	0.784688	0.329174	0.090963
	H47	H	0.788704	0.656169	0.895254
	H48	H	0.414899	0.109284	0.592821
	H49	H	0.589627	0.877889	0.584630
	H50	H	0.600851	0.107697	0.405811
	H51	H	0.412155	0.875420	0.396402
	H52	H	0.593183	0.397796	0.111028
	H53	H	0.600344	0.590636	0.871582
	H54	H	0.406871	0.592237	0.112833
	H55	H	0.404816	0.392164	0.873440
	H56	H	0.118663	0.580702	0.393341
	H57	H	0.883377	0.583561	0.593391
	H58	H	0.118256	0.400524	0.584956
	H59	H	0.888379	0.398556	0.406375
	H60	H	0.118665	0.397947	0.586605
	H61	H	0.883215	0.591914	0.586181
	H62	H	0.120500	0.591693	0.399133
	H63	H	0.884713	0.401736	0.392042
	H64	H	0.402461	0.580757	0.110645
	H65	H	0.598730	0.579160	0.876738
	H66	H	0.595538	0.401370	0.110441
	H67	H	0.403868	0.404002	0.876386
	H68	H	0.601797	0.111455	0.394196
	H69	H	0.601136	0.874815	0.580197
	H70	H	0.411187	0.104228	0.577574
	H71	H	0.407370	0.876578	0.404992
	H72	H	0.913533	0.607509	0.088570
	H73	H	0.093736	0.377894	0.083028
	H74	H	0.110496	0.611153	0.902195
	H75	H	0.913964	0.376320	0.895307
	H76	H	0.100547	0.908848	0.608728
	H77	H	0.092064	0.083365	0.376802
	H78	H	0.910458	0.080590	0.608894
	H79	H	0.915590	0.893217	0.375759
	H80	H	0.622861	0.093552	0.889915
	H81	H	0.383534	0.080228	0.100066
	H82	H	0.618168	0.899204	0.085485
	H83	H	0.386708	0.895384	0.907943
	H84	H	0.617341	0.898653	0.085922
	H85	H	0.382142	0.097974	0.084799
	H86	H	0.616173	0.091867	0.911003
	H87	H	0.386359	0.906299	0.896930
	H88	H	0.911886	0.089375	0.610835
	H89	H	0.096159	0.086505	0.375023
	H90	H	0.082494	0.899176	0.606148
	H91	H	0.902243	0.893322	0.372593
	H92	H	0.091370	0.611366	0.884955
	H93	H	0.095327	0.375442	0.083589
	H94	H	0.906860	0.607079	0.080949
	H95	H	0.905977	0.377434	0.907652
	H96	H	0.399537	0.111354	0.586979
	H97	H	0.598242	0.872268	0.592277
	H98	H	0.591560	0.107041	0.398894
	H99	H	0.402627	0.872412	0.397349
	H100	H	0.591535	0.401594	0.109731
	H101	H	0.589032	0.587218	0.876534
	H102	H	0.414314	0.582903	0.107503
	H103	H	0.414615	0.398452	0.878125
	H104	H	0.115602	0.582709	0.406287
	H105	H	0.887385	0.582009	0.582887
	H106	H	0.118354	0.397764	0.583215
	H107	H	0.882582	0.388051	0.396822
	H108	H	0.903771	0.610892	0.090090
	H109	H	0.093886	0.376309	0.085306
	H110	H	0.086883	0.602938	0.909341
	H111	H	0.900026	0.372038	0.895167
	H112	H	0.098993	0.889205	0.614242
	H113	H	0.096651	0.081591	0.376562
	H114	H	0.904232	0.086017	0.611946
	H115	H	0.908585	0.904750	0.376995
	H116	H	0.615296	0.074100	0.898199
	H117	H	0.390275	0.077574	0.077329
	H118	H	0.617792	0.898716	0.085968
	H119	H	0.381443	0.891972	0.893029
	C120	C	0.380049	0.000336	0.614494
	C121	C	0.623946	0.983492	0.614087
	C122	C	0.625016	0.000200	0.371034
	C123	C	0.380371	0.983512	0.371787
	C124	C	0.621968	0.371498	0.001581
	C125	C	0.623448	0.613907	0.983909
	C126	C	0.380226	0.612975	0.001489
	C127	C	0.379263	0.370135	0.984844
	C128	C	0.010007	0.612570	0.371767
	C129	C	0.992887	0.613942	0.615116
	C130	C	0.010159	0.370499	0.613443
	C131	C	0.993538	0.368622	0.370176
	C132	C	0.879160	0.500141	0.114145
	C133	C	0.122916	0.484184	0.113318
	C134	C	0.123679	0.500227	0.870375
	C135	C	0.879746	0.483661	0.871349
	C136	C	0.122515	0.870711	0.500803
	C137	C	0.123536	0.113063	0.484624
	C138	C	0.880998	0.113063	0.501840
	C139	C	0.880742	0.869784	0.484287
	C140	C	0.509842	0.113742	0.871796
	C141	C	0.493487	0.114103	0.115407
	C142	C	0.509258	0.870446	0.114269
	C143	C	0.493286	0.870270	0.871181
	C144	C	0.383633	0.876906	0.668789
	C145	C	0.620197	0.107153	0.668755
	C146	C	0.619793	0.876730	0.316682
	C147	C	0.385113	0.107153	0.318257
	C148	C	0.676683	0.374084	0.877704
	C149	C	0.677493	0.611741	0.108119
	C150	C	0.326468	0.609830	0.877159
	C151	C	0.324565	0.374084	0.108662
	C152	C	0.886890	0.667199	0.374490
	C153	C	0.116213	0.668495	0.611297
	C154	C	0.886817	0.315734	0.610563
	C155	C	0.117014	0.314854	0.373299
	C156	C	0.886561	0.374226	0.667732
	C157	C	0.116748	0.610521	0.668666
	C158	C	0.886246	0.608536	0.318016
	C159	C	0.116733	0.372393	0.315066
	C160	C	0.383545	0.667071	0.877051
	C161	C	0.619907	0.668774	0.107849
	C162	C	0.618946	0.316637	0.877688
	C163	C	0.381894	0.316368	0.108759
	C164	C	0.678498	0.876546	0.373517
	C165	C	0.678775	0.106840	0.611590
	C166	C	0.324579	0.877202	0.612664
	C167	C	0.325601	0.106274	0.374437
	C168	C	0.881844	0.376876	0.168169
	C169	C	0.119533	0.607282	0.168773
	C170	C	0.119397	0.376743	0.815725
	C171	C	0.884254	0.607073	0.817516
	C172	C	0.177899	0.872672	0.377452
	C173	C	0.178107	0.110901	0.608304
	C174	C	0.827346	0.109530	0.377421
	C175	C	0.825998	0.873557	0.608181
	C176	C	0.386791	0.168332	0.874486
	C177	C	0.616146	0.169852	0.112479
	C178	C	0.386465	0.815155	0.112057
	C179	C	0.616113	0.815814	0.873467
	C180	C	0.386556	0.873559	0.169510
	C181	C	0.617096	0.111310	0.168851
	C182	C	0.386886	0.110596	0.816715
	C183	C	0.616488	0.874346	0.816617
	C184	C	0.884095	0.167168	0.377584
	C185	C	0.120958	0.168628	0.608018
	C186	C	0.120340	0.815224	0.377445
	C187	C	0.883234	0.816045	0.608511
	C188	C	0.178519	0.377297	0.872096
	C189	C	0.177510	0.607541	0.111008
	C190	C	0.823400	0.377503	0.111291
	C191	C	0.825926	0.607048	0.874491
	C192	C	0.401927	0.086026	0.592444
	C193	C	0.602656	0.897234	0.592322
	C194	C	0.604252	0.086434	0.393156
	C195	C	0.401279	0.897043	0.393136
	C196	C	0.599945	0.393808	0.088220
	C197	C	0.602268	0.592107	0.897355
	C198	C	0.401612	0.591742	0.087953
	C199	C	0.401395	0.391706	0.898296
	C200	C	0.095764	0.591329	0.393338
	C201	C	0.906991	0.592156	0.593837
	C202	C	0.096193	0.392310	0.591342
	C203	C	0.907589	0.389831	0.392144
	C204	C	0.901453	0.586262	0.092738
	C205	C	0.100883	0.398630	0.090645
	C206	C	0.102550	0.586322	0.892391
	C207	C	0.900486	0.397421	0.892866
	C208	C	0.100280	0.892699	0.587515
	C209	C	0.101440	0.090487	0.398368
	C210	C	0.902420	0.091677	0.588071
	C211	C	0.902354	0.890971	0.397494
	C212	C	0.595826	0.092827	0.893393
	C213	C	0.407567	0.091767	0.093858
	C214	C	0.595626	0.892310	0.092125
	C215	C	0.406913	0.891553	0.892847
	Zn216	Zn	0.501522	-0.008131	0.742856
	Zn217	Zn	0.502216	-0.007768	0.243484
	Zn218	Zn	0.750640	0.492634	-0.007060
	Zn219	Zn	0.252306	0.492305	-0.007687
	Zn220	Zn	0.001668	0.741932	0.492796
	Zn221	Zn	0.002053	0.240814	0.492644
	Zn222	Zn	0.001634	0.491862	0.742734
	Zn223	Zn	0.001361	0.491355	0.242427
	Zn224	Zn	0.501281	0.740957	-0.007566
	Zn225	Zn	0.501050	0.242472	-0.006308
	Zn226	Zn	0.753128	-0.008358	0.492733
	Zn227	Zn	0.251230	-0.008546	0.493292
	N228	N	0.417550	0.954227	0.669922
	N229	N	0.586949	0.029573	0.670521
	N230	N	0.587467	0.954691	0.314855
	N231	N	0.418475	0.029677	0.316726
	N232	N	0.678492	0.407518	0.955702
	N233	N	0.679919	0.578655	0.029924
	N234	N	0.324461	0.576694	0.955088
	N235	N	0.322832	0.406635	0.030465
	N236	N	0.964625	0.669795	0.407203
	N237	N	0.038328	0.670887	0.578770
	N238	N	0.964694	0.313185	0.577548
	N239	N	0.039153	0.312000	0.406284
	N240	N	0.964022	0.407430	0.669547
	N241	N	0.039217	0.577245	0.670939
	N242	N	0.963711	0.575273	0.316077
	N243	N	0.039210	0.405195	0.313353
	N244	N	0.416315	0.669128	0.955197
	N245	N	0.586800	0.670075	0.029852
	N246	N	0.585616	0.314985	0.955727
	N247	N	0.415311	0.314005	0.030793
	N248	N	0.681711	0.954232	0.406582
	N249	N	0.681133	0.029168	0.578304
	N250	N	0.322353	0.954896	0.579411
	N251	N	0.322552	0.028330	0.406664
	N252	N	0.916091	0.454174	0.169885
	N253	N	0.086055	0.529634	0.170037
	N254	N	0.086100	0.454120	0.814648
	N255	N	0.917006	0.529558	0.815514
	N256	N	0.179210	0.906427	0.455419
	N257	N	0.180101	0.077172	0.530483
	N258	N	0.825302	0.076535	0.455463
	N259	N	0.824366	0.906140	0.530082
	N260	N	0.464223	0.170377	0.908041
	N261	N	0.538495	0.171531	0.079600
	N262	N	0.464045	0.813191	0.078339
	N263	N	0.538537	0.812994	0.906449
	N264	N	0.463934	0.907196	0.170870
	N265	N	0.539753	0.077393	0.170984
	N266	N	0.464220	0.077271	0.815029
	N267	N	0.538930	0.907594	0.815460
	N268	N	0.916846	0.169374	0.455722
	N269	N	0.087509	0.169829	0.530208
	N270	N	0.086896	0.813674	0.455376
	N271	N	0.916440	0.813380	0.530347
	N272	N	0.181351	0.455130	0.905422
	N273	N	0.179948	0.529974	0.077554
	N274	N	0.821812	0.455198	0.078542
	N275	N	0.823091	0.529213	0.907547
	O276	O	1.065747	0.030191	1.033431
	H277	H	1.064453	0.044055	1.034878
	H278	H	1.076399	0.036042	1.029701
	O279	O	0.071462	1.070850	1.048020
	H280	H	0.075944	1.071117	1.055540
	H281	H	0.066819	1.061944	1.044423
	O282	O	1.059046	1.025509	0.062912
	H283	H	1.054232	1.029181	0.061435
	H284	H	1.066018	1.027455	0.058336
	O285	O	0.061145	1.053479	1.094254
	H286	H	0.054062	1.047372	1.094213
	H287	H	0.063678	1.054782	1.106522
