data_Molecule from HDF5

_cell_length_a		16.210822
_cell_length_b		16.280254
_cell_length_c		16.183398
_cell_angle_alpha	90.307876
_cell_angle_beta	90.176554
_cell_angle_gamma	90.317117
_symmetry_space_group_name_H-M	'P 1'
_symmetry_Int_Tables_number		1

loop_
	_symmetry_equiv_pos_as_xyz
	x,y,z

loop_
	_atom_site_label
	_atom_site_type_symbol
	_atom_site_fract_x
	_atom_site_fract_y
	_atom_site_fract_z
	H0	H	0.402288	0.843604	0.709037
	H1	H	0.604071	0.170242	0.713567
	H2	H	0.600668	0.844195	0.280502
	H3	H	0.403590	0.171691	0.280697
	H4	H	0.716409	0.407840	0.831927
	H5	H	0.719285	0.608468	0.160376
	H6	H	0.289258	0.604196	0.831644
	H7	H	0.288645	0.408023	0.160540
	H8	H	0.840275	0.722170	0.393757
	H9	H	0.166857	0.725889	0.597623
	H10	H	0.839606	0.292053	0.593368
	H11	H	0.167245	0.291524	0.394108
	H12	H	0.839773	0.407532	0.708728
	H13	H	0.168277	0.608296	0.711232
	H14	H	0.839963	0.604685	0.280216
	H15	H	0.169199	0.409998	0.281699
	H16	H	0.402183	0.720234	0.832249
	H17	H	0.604413	0.724195	0.159869
	H18	H	0.602564	0.290776	0.833203
	H19	H	0.403879	0.293664	0.161061
	H20	H	0.716576	0.844283	0.396673
	H21	H	0.719056	0.171019	0.596980
	H22	H	0.286674	0.844609	0.594582
	H23	H	0.288000	0.171799	0.398653
	H24	H	0.904570	0.343773	0.208645
	H25	H	0.106237	0.671178	0.211453
	H26	H	0.101074	0.343446	0.779225
	H27	H	0.904602	0.671169	0.780487
	H28	H	0.217091	0.907882	0.332146
	H29	H	0.218587	0.109508	0.659967
	H30	H	0.788758	0.106326	0.332018
	H31	H	0.788741	0.909040	0.660462
	H32	H	0.339526	0.221793	0.895617
	H33	H	0.666241	0.224317	0.099510
	H34	H	0.338832	0.791233	0.094252
	H35	H	0.666436	0.791468	0.894441
	H36	H	0.338810	0.906571	0.210555
	H37	H	0.666461	0.107515	0.211245
	H38	H	0.338137	0.103683	0.782345
	H39	H	0.667402	0.908752	0.782268
	H40	H	0.902944	0.220072	0.331217
	H41	H	0.105407	0.226025	0.658280
	H42	H	0.103715	0.791872	0.332459
	H43	H	0.901579	0.790949	0.659243
	H44	H	0.218898	0.343864	0.893582
	H45	H	0.220984	0.670538	0.096099
	H46	H	0.788010	0.344458	0.094970
	H47	H	0.788054	0.670640	0.896761
	H48	H	0.407108	0.125125	0.588349
	H49	H	0.599664	0.889159	0.589104
	H50	H	0.595454	0.120254	0.415310
	H51	H	0.406538	0.889747	0.398440
	H52	H	0.589153	0.418794	0.110942
	H53	H	0.590322	0.599592	0.880125
	H54	H	0.415127	0.605717	0.114085
	H55	H	0.406369	0.411158	0.877595
	H56	H	0.118945	0.599654	0.407431
	H57	H	0.882793	0.601132	0.599204
	H58	H	0.121653	0.417373	0.589429
	H59	H	0.888836	0.418304	0.402714
	H60	H	0.121236	0.412803	0.585439
	H61	H	0.886192	0.609317	0.579101
	H62	H	0.121446	0.599281	0.400930
	H63	H	0.885186	0.411707	0.395031
	H64	H	0.406544	0.597678	0.114187
	H65	H	0.598317	0.602971	0.877023
	H66	H	0.596573	0.406225	0.117274
	H67	H	0.411799	0.417780	0.880335
	H68	H	0.607651	0.129267	0.399126
	H69	H	0.592296	0.890710	0.591550
	H70	H	0.412202	0.124130	0.594395
	H71	H	0.414872	0.893596	0.402146
	H72	H	0.919918	0.618470	0.075461
	H73	H	0.094136	0.391776	0.086160
	H74	H	0.105399	0.625154	0.904257
	H75	H	0.907181	0.391963	0.904348
	H76	H	0.095874	0.917419	0.613524
	H77	H	0.090977	0.104930	0.377668
	H78	H	0.905533	0.100558	0.615322
	H79	H	0.905900	0.911084	0.376850
	H80	H	0.619805	0.097854	0.904337
	H81	H	0.380941	0.110159	0.092809
	H82	H	0.616684	0.917294	0.078829
	H83	H	0.389230	0.918406	0.905002
	H84	H	0.619411	0.923019	0.094181
	H85	H	0.388283	0.100312	0.076482
	H86	H	0.620242	0.101252	0.903851
	H87	H	0.382771	0.912770	0.894524
	H88	H	0.916133	0.096503	0.610389
	H89	H	0.103259	0.101078	0.375200
	H90	H	0.094384	0.916791	0.613249
	H91	H	0.908960	0.919046	0.379792
	H92	H	0.093282	0.624502	0.896736
	H93	H	0.098820	0.390124	0.086918
	H94	H	0.896902	0.627680	0.087417
	H95	H	0.908825	0.390428	0.897725
	H96	H	0.414661	0.122655	0.586465
	H97	H	0.594468	0.892788	0.583709
	H98	H	0.586081	0.124050	0.396233
	H99	H	0.407447	0.892715	0.407169
	H100	H	0.604477	0.421366	0.114819
	H101	H	0.598163	0.594285	0.879760
	H102	H	0.416726	0.594329	0.111058
	H103	H	0.415315	0.409361	0.879725
	H104	H	0.122462	0.604721	0.404743
	H105	H	0.892044	0.588097	0.582614
	H106	H	0.119607	0.418109	0.583690
	H107	H	0.886219	0.407941	0.404758
	H108	H	0.920105	0.626551	0.101789
	H109	H	0.095832	0.390444	0.090662
	H110	H	0.093467	0.619775	0.911385
	H111	H	0.913284	0.391313	0.902604
	H112	H	0.095302	0.915513	0.613285
	H113	H	0.093529	0.093150	0.380440
	H114	H	0.914752	0.108036	0.614847
	H115	H	0.914503	0.912086	0.379510
	H116	H	0.620415	0.099989	0.905664
	H117	H	0.385973	0.090835	0.094639
	H118	H	0.622682	0.907228	0.090686
	H119	H	0.384441	0.906420	0.905412
	C120	C	0.381373	0.016243	0.618182
	C121	C	0.625192	0.998656	0.618267
	C122	C	0.624807	0.016672	0.374023
	C123	C	0.380761	0.999755	0.374212
	C124	C	0.624855	0.385814	0.005433
	C125	C	0.625461	0.629124	0.987393
	C126	C	0.382752	0.627375	0.004530
	C127	C	0.381846	0.384810	0.987698
	C128	C	0.012528	0.629425	0.374215
	C129	C	0.995174	0.629536	0.617034
	C130	C	0.012253	0.386445	0.615216
	C131	C	0.995488	0.384616	0.372113
	C132	C	0.882875	0.516080	0.116712
	C133	C	0.126478	0.498813	0.117818
	C134	C	0.125694	0.515397	0.873799
	C135	C	0.881145	0.498977	0.873159
	C136	C	0.124165	0.887073	0.505076
	C137	C	0.125280	0.129670	0.486691
	C138	C	0.882648	0.129193	0.504710
	C139	C	0.880950	0.885603	0.487310
	C140	C	0.511486	0.128419	0.875325
	C141	C	0.493681	0.129493	0.118069
	C142	C	0.511323	0.886285	0.116959
	C143	C	0.494082	0.884101	0.872909
	C144	C	0.382835	0.892777	0.671957
	C145	C	0.623924	0.121363	0.675285
	C146	C	0.621721	0.893399	0.318094
	C147	C	0.383171	0.123011	0.318902
	C148	C	0.679242	0.387393	0.881391
	C149	C	0.681199	0.628337	0.111157
	C150	C	0.327174	0.624037	0.880756
	C151	C	0.326449	0.387582	0.111290
	C152	C	0.889231	0.684124	0.374454
	C153	C	0.118225	0.687024	0.616867
	C154	C	0.888622	0.330260	0.613284
	C155	C	0.118414	0.329469	0.374135
	C156	C	0.888845	0.387725	0.670930
	C157	C	0.118988	0.628504	0.673197
	C158	C	0.889250	0.625858	0.317797
	C159	C	0.119648	0.388672	0.318524
	C160	C	0.383270	0.682231	0.881063
	C161	C	0.624371	0.686231	0.110635
	C162	C	0.622553	0.329406	0.882060
	C163	C	0.383657	0.330663	0.111728
	C164	C	0.679498	0.893507	0.375931
	C165	C	0.681034	0.122034	0.617380
	C166	C	0.324606	0.893423	0.615486
	C167	C	0.325566	0.122799	0.377028
	C168	C	0.884430	0.392941	0.171341
	C169	C	0.125955	0.621857	0.173852
	C170	C	0.122289	0.392490	0.817254
	C171	C	0.883641	0.622093	0.818030
	C172	C	0.179895	0.887991	0.381379
	C173	C	0.180762	0.129135	0.610601
	C174	C	0.826431	0.126119	0.381115
	C175	C	0.826341	0.888504	0.611213
	C176	C	0.388105	0.183510	0.876599
	C177	C	0.617227	0.185731	0.118101
	C178	C	0.387937	0.829394	0.115075
	C179	C	0.617314	0.828906	0.874292
	C180	C	0.387805	0.887223	0.172431
	C181	C	0.617380	0.127607	0.173767
	C182	C	0.387680	0.124905	0.819965
	C183	C	0.617772	0.887247	0.818462
	C184	C	0.883405	0.182932	0.380589
	C185	C	0.124862	0.187359	0.609633
	C186	C	0.123087	0.830527	0.381267
	C187	C	0.882415	0.829683	0.610484
	C188	C	0.180697	0.392514	0.874422
	C189	C	0.183226	0.621507	0.116305
	C190	C	0.826175	0.393281	0.114839
	C191	C	0.825839	0.622015	0.875947
	C192	C	0.404551	0.101958	0.596168
	C193	C	0.602253	0.913075	0.594855
	C194	C	0.602917	0.102362	0.396801
	C195	C	0.402960	0.914362	0.396044
	C196	C	0.603076	0.408778	0.091967
	C197	C	0.602288	0.605721	0.901072
	C198	C	0.406226	0.605799	0.090623
	C199	C	0.404439	0.406500	0.901456
	C200	C	0.098598	0.607766	0.397572
	C201	C	0.909332	0.606347	0.593878
	C202	C	0.098451	0.409430	0.592854
	C203	C	0.908988	0.406510	0.394084
	C204	C	0.905628	0.601881	0.094704
	C205	C	0.103076	0.413034	0.094727
	C206	C	0.103866	0.601041	0.897176
	C207	C	0.903225	0.413630	0.895098
	C208	C	0.101732	0.909923	0.591029
	C209	C	0.102677	0.106370	0.400174
	C210	C	0.905577	0.107916	0.591222
	C211	C	0.903316	0.907633	0.401123
	C212	C	0.597820	0.106433	0.898191
	C213	C	0.407214	0.106947	0.094892
	C214	C	0.597200	0.909033	0.094561
	C215	C	0.407740	0.906037	0.895150
	Zn216	Zn	0.503081	0.006464	0.746429
	Zn217	Zn	0.502509	0.008343	0.245016
	Zn218	Zn	0.753008	0.507550	-0.003564
	Zn219	Zn	0.254367	0.506483	-0.003945
	Zn220	Zn	0.003508	0.758078	0.495636
	Zn221	Zn	0.003562	0.256774	0.494423
	Zn222	Zn	0.003991	0.507546	0.744462
	Zn223	Zn	0.004766	0.507582	0.245592
	Zn224	Zn	0.502966	0.757014	-0.004574
	Zn225	Zn	0.503326	0.256891	-0.002680
	Zn226	Zn	0.753647	0.008686	0.496541
	Zn227	Zn	0.252432	0.008006	0.496771
	N228	N	0.417356	0.970075	0.673838
	N229	N	0.590017	0.043647	0.675939
	N230	N	0.588438	0.970882	0.316796
	N231	N	0.416511	0.045473	0.316716
	N232	N	0.680845	0.421942	0.959289
	N233	N	0.681921	0.593619	0.033449
	N234	N	0.326810	0.590652	0.958650
	N235	N	0.325099	0.420493	0.033200
	N236	N	0.966956	0.686480	0.408860
	N237	N	0.040275	0.687810	0.582603
	N238	N	0.966500	0.329187	0.579623
	N239	N	0.040222	0.326987	0.406901
	N240	N	0.966664	0.422003	0.672049
	N241	N	0.041437	0.593821	0.673789
	N242	N	0.967059	0.592770	0.317479
	N243	N	0.041798	0.421960	0.316952
	N244	N	0.417127	0.684416	0.959010
	N245	N	0.590608	0.687131	0.032375
	N246	N	0.589650	0.328289	0.960259
	N247	N	0.417486	0.328683	0.033833
	N248	N	0.681592	0.971125	0.409913
	N249	N	0.681961	0.044870	0.582455
	N250	N	0.323650	0.971212	0.582515
	N251	N	0.323933	0.045403	0.410641
	N252	N	0.919208	0.470300	0.172604
	N253	N	0.091295	0.544580	0.174894
	N254	N	0.088920	0.469896	0.816758
	N255	N	0.917335	0.544754	0.815985
	N256	N	0.180701	0.922436	0.459344
	N257	N	0.181385	0.094133	0.533144
	N258	N	0.825794	0.093343	0.459481
	N259	N	0.825063	0.922277	0.533589
	N260	N	0.466318	0.185993	0.910129
	N261	N	0.539184	0.187038	0.084270
	N262	N	0.465692	0.828794	0.080895
	N263	N	0.539234	0.826627	0.907431
	N264	N	0.465457	0.921635	0.173797
	N265	N	0.539457	0.093386	0.173897
	N266	N	0.465427	0.091482	0.818877
	N267	N	0.540128	0.920717	0.817403
	N268	N	0.917632	0.184895	0.458280
	N269	N	0.090961	0.187805	0.531308
	N270	N	0.089171	0.829687	0.458918
	N271	N	0.915546	0.827624	0.532269
	N272	N	0.183114	0.470016	0.908829
	N273	N	0.183600	0.543764	0.082096
	N274	N	0.825136	0.470873	0.081534
	N275	N	0.824009	0.544568	0.909533
	O276	O	0.611118	0.541337	0.569124
	H277	H	0.614198	0.552503	0.577150
	H278	H	0.618834	0.546774	0.580302
	O279	O	0.918512	0.026616	0.903281
	H280	H	0.919972	0.024218	0.904244
	H281	H	0.932952	0.034012	0.888576
	O282	O	1.019501	1.020169	-0.154365
	H283	H	1.023766	1.028002	-0.158593
	H284	H	1.024061	1.008144	-0.159372
	O285	O	0.970508	0.070360	0.893992
	H286	H	0.975898	0.081389	0.885982
	H287	H	0.971694	0.063345	0.910032
	O288	O	0.520021	0.501995	0.494858
	H289	H	0.525793	0.491135	0.495857
	H290	H	0.510044	0.504310	0.502815
	O291	O	0.520967	0.560126	0.484702
	H292	H	0.520702	0.561337	0.494257
	H293	H	0.510807	0.565276	0.482304
	O294	O	0.568531	0.494247	0.600661
	H295	H	0.577993	0.492618	0.611524
	H296	H	0.571164	0.485565	0.589023
	O297	O	-0.088739	-0.152825	1.043351
	H298	H	-0.093666	-0.148813	1.033337
	H299	H	-0.085603	-0.143085	1.055123
	O300	O	0.482470	0.450013	0.600826
	H301	H	0.482619	0.445056	0.599938
	H302	H	0.467439	0.455515	0.600654
	O303	O	0.425436	0.466241	0.455672
	H304	H	0.432794	0.461951	0.453959
	H305	H	0.424318	0.469375	0.458106
	O306	O	0.052836	0.917041	0.997136
	H307	H	0.045891	0.922846	1.004742
	H308	H	0.044827	0.904966	0.998851
	O309	O	0.561685	0.520481	0.486128
	H310	H	0.563599	0.522175	0.491891
	H311	H	0.557375	0.528963	0.482362
	O312	O	-0.041246	-0.092558	-0.021642
	H313	H	-0.041235	-0.083163	-0.014748
	H314	H	-0.035145	-0.099264	-0.025083
	O315	O	0.961816	-0.056820	0.004804
	H316	H	0.959784	-0.069678	0.001138
	H317	H	0.965804	-0.057091	-0.008285
	O318	O	1.070734	0.923485	0.838152
	H319	H	1.066327	0.926052	0.846901
	H320	H	1.076228	0.929566	0.839339
	O321	O	-0.108525	-0.046411	0.976969
	H322	H	-0.116522	-0.041446	0.963462
	H323	H	-0.109939	-0.040214	0.973189
	O324	O	0.472676	0.517600	0.423455
	H325	H	0.473614	0.515682	0.427553
	H326	H	0.466464	0.521580	0.415573
	O327	O	-0.006359	-0.010836	0.043586
	H328	H	-0.013399	-0.011919	0.038111
	H329	H	-0.001438	-0.016043	0.045238
	O330	O	0.547875	0.494527	0.562540
	H331	H	0.562987	0.483184	0.553652
	H332	H	0.539290	0.500583	0.569541
	O333	O	0.008619	1.076381	1.116417
	H334	H	0.026883	1.083586	1.109904
	H335	H	0.003694	1.078766	1.098811
	O336	O	0.041469	-0.065175	-0.004322
	H337	H	0.047344	-0.066580	0.013154
	H338	H	0.028546	-0.077952	-0.003301
	O339	O	0.395482	0.603787	0.522749
	H340	H	0.393102	0.604247	0.522170
	H341	H	0.389650	0.595861	0.519537
	O342	O	1.129563	1.091971	1.088297
	H343	H	1.127488	1.087419	1.104917
	H344	H	1.124332	1.093804	1.081037
	O345	O	0.987994	1.019742	0.135881
	H346	H	0.986814	1.011624	0.127812
	H347	H	0.988381	1.030360	0.142866
	O348	O	0.480402	0.471997	0.449348
	H349	H	0.480948	0.473679	0.450989
	H350	H	0.479015	0.468401	0.448152
	O351	O	0.452073	0.527414	0.565386
	H352	H	0.444352	0.528053	0.566096
	H353	H	0.444434	0.526407	0.554311
	O354	O	-0.012904	0.053028	-0.041870
	H355	H	-0.022687	0.044415	-0.038537
	H356	H	-0.022286	0.059398	-0.043838
	O357	O	0.979949	0.062786	1.020837
	H358	H	0.974917	0.058008	1.033206
	H359	H	0.979244	0.058153	1.009431
	O360	O	0.478962	0.531847	0.436393
	H361	H	0.485418	0.537960	0.438765
	H362	H	0.483162	0.533714	0.443145
	O363	O	0.465183	0.534463	0.478735
	H364	H	0.456715	0.537476	0.464798
	H365	H	0.467400	0.532797	0.481077
	O366	O	1.040190	0.943808	1.060771
	H367	H	1.044012	0.950075	1.069725
	H368	H	1.016961	0.937815	1.065248
	O369	O	1.066688	0.172661	1.040403
	H370	H	1.073419	0.171636	1.047604
	H371	H	1.066859	0.180824	1.051568
	O372	O	0.079162	0.062394	0.103501
	H373	H	0.075913	0.052776	0.112274
	H374	H	0.081182	0.073210	0.104803
	O375	O	0.939874	0.154592	-0.105244
	H376	H	0.945322	0.146031	-0.091802
	H377	H	0.952329	0.156340	-0.104834
	O378	O	0.446433	0.555638	0.469064
	H379	H	0.452035	0.551331	0.456212
	H380	H	0.451457	0.551799	0.479919
	O381	O	0.647297	0.555617	0.519471
	H382	H	0.648129	0.571251	0.526953
	H383	H	0.646134	0.554824	0.524234
