data_Molecule from HDF5

_cell_length_a		16.294591
_cell_length_b		16.244716
_cell_length_c		16.513565
_cell_angle_alpha	89.689053
_cell_angle_beta	90.016979
_cell_angle_gamma	90.158959
_symmetry_space_group_name_H-M	'P 1'
_symmetry_Int_Tables_number		1

loop_
	_symmetry_equiv_pos_as_xyz
	x,y,z

loop_
	_atom_site_label
	_atom_site_type_symbol
	_atom_site_fract_x
	_atom_site_fract_y
	_atom_site_fract_z
	H0	H	0.388359	0.834036	0.719806
	H1	H	0.599504	0.155151	0.718784
	H2	H	0.597534	0.834302	0.279949
	H3	H	0.388146	0.155499	0.278505
	H4	H	0.714645	0.391682	0.842550
	H5	H	0.714179	0.598544	0.160678
	H6	H	0.273166	0.598741	0.842276
	H7	H	0.274745	0.389246	0.161138
	H8	H	0.831934	0.712987	0.397726
	H9	H	0.156574	0.709870	0.598722
	H10	H	0.834797	0.273498	0.606380
	H11	H	0.156406	0.278308	0.401049
	H12	H	0.835393	0.387075	0.723621
	H13	H	0.154125	0.600536	0.720273
	H14	H	0.833868	0.600893	0.278902
	H15	H	0.154883	0.390132	0.281673
	H16	H	0.390476	0.714763	0.841118
	H17	H	0.597772	0.714908	0.160066
	H18	H	0.595129	0.278207	0.840248
	H19	H	0.391977	0.273467	0.159884
	H20	H	0.711619	0.832864	0.396642
	H21	H	0.712225	0.155821	0.600975
	H22	H	0.279028	0.831309	0.598299
	H23	H	0.277643	0.157378	0.397493
	H24	H	0.887375	0.334936	0.224137
	H25	H	0.099248	0.656019	0.219918
	H26	H	0.098257	0.334848	0.781688
	H27	H	0.887394	0.655258	0.779631
	H28	H	0.213848	0.891714	0.340335
	H29	H	0.215717	0.097471	0.658382
	H30	H	0.772483	0.101322	0.341976
	H31	H	0.771553	0.887378	0.659071
	H32	H	0.332939	0.214471	0.895247
	H33	H	0.655915	0.211034	0.098299
	H34	H	0.332009	0.774719	0.102236
	H35	H	0.654876	0.775676	0.897439
	H36	H	0.333179	0.886676	0.221469
	H37	H	0.652490	0.104140	0.222053
	H38	H	0.333907	0.100202	0.777432
	H39	H	0.652387	0.886145	0.776697
	H40	H	0.887691	0.219938	0.343828
	H41	H	0.098361	0.212252	0.660341
	H42	H	0.097176	0.775243	0.340493
	H43	H	0.891382	0.774566	0.660428
	H44	H	0.211743	0.333940	0.898702
	H45	H	0.213167	0.656239	0.102685
	H46	H	0.777946	0.331927	0.102668
	H47	H	0.777740	0.656859	0.899945
	H48	H	0.406860	0.109084	0.588078
	H49	H	0.580220	0.880579	0.587990
	H50	H	0.584715	0.111856	0.404374
	H51	H	0.404866	0.880256	0.411755
	H52	H	0.583456	0.410846	0.110938
	H53	H	0.586873	0.584728	0.887514
	H54	H	0.403443	0.586826	0.114663
	H55	H	0.403580	0.404074	0.888166
	H56	H	0.109060	0.582094	0.405379
	H57	H	0.877330	0.584996	0.593794
	H58	H	0.110712	0.400480	0.590136
	H59	H	0.876328	0.402005	0.407285
	H60	H	0.107261	0.410851	0.590795
	H61	H	0.878977	0.585157	0.589402
	H62	H	0.110006	0.589811	0.409941
	H63	H	0.882466	0.406001	0.422508
	H64	H	0.401389	0.580629	0.113326
	H65	H	0.584071	0.584402	0.888793
	H66	H	0.578302	0.396835	0.113754
	H67	H	0.400130	0.404633	0.887076
	H68	H	0.577008	0.107426	0.408765
	H69	H	0.583647	0.878769	0.589775
	H70	H	0.401645	0.110530	0.587900
	H71	H	0.401746	0.878265	0.408393
	H72	H	0.904075	0.610696	0.092164
	H73	H	0.077995	0.380982	0.092251
	H74	H	0.087917	0.614568	0.901824
	H75	H	0.903377	0.377797	0.908911
	H76	H	0.089976	0.903936	0.614121
	H77	H	0.086503	0.085298	0.387115
	H78	H	0.908336	0.080651	0.610919
	H79	H	0.905827	0.911772	0.391017
	H80	H	0.607060	0.082351	0.910701
	H81	H	0.381132	0.076604	0.089049
	H82	H	0.607716	0.908897	0.093325
	H83	H	0.377231	0.905254	0.903163
	H84	H	0.607746	0.903854	0.090586
	H85	H	0.376601	0.084054	0.094220
	H86	H	0.608324	0.082725	0.905214
	H87	H	0.379520	0.900886	0.914439
	H88	H	0.904101	0.087429	0.614753
	H89	H	0.082783	0.084544	0.388060
	H90	H	0.083230	0.904335	0.611623
	H91	H	0.907663	0.899131	0.387376
	H92	H	0.072058	0.606645	0.909636
	H93	H	0.085201	0.379514	0.089890
	H94	H	0.906433	0.610124	0.092867
	H95	H	0.907501	0.380748	0.911451
	H96	H	0.404288	0.111308	0.592762
	H97	H	0.580051	0.879294	0.592481
	H98	H	0.585584	0.109462	0.413894
	H99	H	0.406137	0.879569	0.407183
	H100	H	0.593085	0.400814	0.117550
	H101	H	0.585206	0.586858	0.888153
	H102	H	0.407762	0.582593	0.112211
	H103	H	0.402432	0.407170	0.888235
	H104	H	0.106434	0.582506	0.413594
	H105	H	0.879475	0.580594	0.591972
	H106	H	0.110687	0.406715	0.599028
	H107	H	0.883115	0.417123	0.409830
	H108	H	0.905534	0.609828	0.090342
	H109	H	0.083211	0.378048	0.097054
	H110	H	0.088557	0.609607	0.920318
	H111	H	0.902801	0.380320	0.914225
	H112	H	0.085303	0.898745	0.614579
	H113	H	0.082826	0.088202	0.386973
	H114	H	0.900284	0.079720	0.613159
	H115	H	0.895851	0.904853	0.385331
	H116	H	0.608587	0.087188	0.908008
	H117	H	0.379402	0.086413	0.084782
	H118	H	0.606133	0.908200	0.087688
	H119	H	0.382715	0.912707	0.911235
	C120	C	0.372777	0.003364	0.620631
	C121	C	0.613738	0.985806	0.620785
	C122	C	0.614269	0.003021	0.378518
	C123	C	0.372555	0.986183	0.377981
	C124	C	0.615713	0.373006	0.009091
	C125	C	0.616443	0.616696	0.993226
	C126	C	0.372552	0.615607	0.008730
	C127	C	0.371198	0.372363	0.992653
	C128	C	0.002647	0.616889	0.378130
	C129	C	0.985446	0.615075	0.621540
	C130	C	0.003761	0.373122	0.624388
	C131	C	0.986314	0.375265	0.381230
	C132	C	0.872879	0.503542	0.123293
	C133	C	0.114732	0.486173	0.123091
	C134	C	0.114462	0.503812	0.880127
	C135	C	0.872682	0.486103	0.879732
	C136	C	0.116258	0.872414	0.507872
	C137	C	0.115745	0.116346	0.492300
	C138	C	0.871979	0.116185	0.508920
	C139	C	0.871565	0.872401	0.492363
	C140	C	0.501998	0.116357	0.876685
	C141	C	0.485379	0.115009	0.120384
	C142	C	0.501497	0.873553	0.121769
	C143	C	0.485386	0.873492	0.878326
	C144	C	0.370713	0.881845	0.679544
	C145	C	0.616979	0.106692	0.679413
	C146	C	0.615742	0.882040	0.319903
	C147	C	0.370400	0.107267	0.318637
	C148	C	0.674567	0.373133	0.889538
	C149	C	0.674868	0.617372	0.112879
	C150	C	0.313365	0.617195	0.889506
	C151	C	0.313624	0.370670	0.112976
	C152	C	0.880896	0.674620	0.378146
	C153	C	0.107461	0.672302	0.619802
	C154	C	0.883062	0.312875	0.625108
	C155	C	0.107684	0.316745	0.381081
	C156	C	0.883227	0.369511	0.683451
	C157	C	0.106358	0.617452	0.680157
	C158	C	0.881662	0.618623	0.319027
	C159	C	0.107101	0.372725	0.321871
	C160	C	0.371641	0.675120	0.889088
	C161	C	0.616776	0.675404	0.112451
	C162	C	0.615330	0.316366	0.888463
	C163	C	0.371996	0.312936	0.112347
	C164	C	0.672676	0.881570	0.378058
	C165	C	0.673137	0.107333	0.620663
	C166	C	0.316140	0.880751	0.619147
	C167	C	0.315349	0.108301	0.377953
	C168	C	0.869947	0.382766	0.183402
	C169	C	0.117302	0.607694	0.180674
	C170	C	0.116503	0.382870	0.821261
	C171	C	0.870372	0.607139	0.820009
	C172	C	0.174401	0.872612	0.387985
	C173	C	0.175882	0.116688	0.611186
	C174	C	0.812161	0.119533	0.389908
	C175	C	0.811536	0.869516	0.611648
	C176	C	0.381178	0.175230	0.876032
	C177	C	0.606832	0.173399	0.119288
	C178	C	0.380543	0.813748	0.122019
	C179	C	0.606432	0.814619	0.878141
	C180	C	0.381134	0.869560	0.181381
	C181	C	0.605122	0.119729	0.180803
	C182	C	0.381542	0.118199	0.817548
	C183	C	0.605060	0.869648	0.817844
	C184	C	0.869810	0.178438	0.390835
	C185	C	0.117260	0.173689	0.612258
	C186	C	0.116417	0.814402	0.388123
	C187	C	0.871304	0.813340	0.612364
	C188	C	0.172709	0.382330	0.879695
	C189	C	0.173895	0.607741	0.122214
	C190	C	0.815086	0.381359	0.123333
	C191	C	0.815473	0.608032	0.879702
	C192	C	0.397407	0.088200	0.596554
	C193	C	0.588585	0.901496	0.596972
	C194	C	0.589638	0.087520	0.402136
	C195	C	0.397057	0.901343	0.402260
	C196	C	0.591737	0.396069	0.092452
	C197	C	0.592449	0.592306	0.909966
	C198	C	0.397069	0.590576	0.091719
	C199	C	0.395044	0.397890	0.909567
	C200	C	0.086716	0.591776	0.402523
	C201	C	0.900803	0.590548	0.598373
	C202	C	0.087614	0.398751	0.600340
	C203	C	0.902524	0.400881	0.405920
	C204	C	0.898060	0.588119	0.098665
	C205	C	0.089428	0.401696	0.099727
	C206	C	0.089862	0.588148	0.903788
	C207	C	0.897253	0.401608	0.904321
	C208	C	0.092847	0.895632	0.591721
	C209	C	0.090981	0.092881	0.409115
	C210	C	0.897010	0.089941	0.591547
	C211	C	0.895917	0.897954	0.409501
	C212	C	0.586082	0.091399	0.900976
	C213	C	0.400964	0.089485	0.096400
	C214	C	0.585271	0.899675	0.097621
	C215	C	0.401613	0.898890	0.902828
	Zn216	Zn	0.493689	-0.005696	0.749113
	Zn217	Zn	0.493076	-0.004653	0.249984
	Zn218	Zn	0.745450	0.494546	0.001517
	Zn219	Zn	0.242118	0.494526	0.001425
	Zn220	Zn	-0.006321	0.743940	0.500337
	Zn221	Zn	-0.004981	0.246196	0.501590
	Zn222	Zn	-0.006252	0.495452	0.751977
	Zn223	Zn	-0.005890	0.494693	0.251201
	Zn224	Zn	0.493756	0.745830	0.000166
	Zn225	Zn	0.493669	0.243553	-0.000491
	Zn226	Zn	0.742159	-0.005840	0.500077
	Zn227	Zn	0.245231	-0.005060	0.499164
	N228	N	0.404977	0.959256	0.680664
	N229	N	0.580982	0.030098	0.679632
	N230	N	0.580526	0.958874	0.319703
	N231	N	0.405148	0.030215	0.318334
	N232	N	0.675053	0.407418	0.965427
	N233	N	0.674988	0.581746	0.037592
	N234	N	0.313951	0.580855	0.964890
	N235	N	0.312870	0.406702	0.037530
	N236	N	0.957077	0.673732	0.414107
	N237	N	0.031151	0.671039	0.584174
	N238	N	0.959164	0.314779	0.589145
	N239	N	0.031718	0.317968	0.417159
	N240	N	0.959142	0.406089	0.683397
	N241	N	0.029381	0.582699	0.681491
	N242	N	0.958456	0.583633	0.318739
	N243	N	0.030474	0.408195	0.321710
	N244	N	0.407982	0.674018	0.964188
	N245	N	0.581164	0.675159	0.037052
	N246	N	0.579237	0.316167	0.963645
	N247	N	0.406867	0.313605	0.036467
	N248	N	0.671841	0.957788	0.413780
	N249	N	0.671384	0.031055	0.584956
	N250	N	0.317287	0.957276	0.583204
	N251	N	0.316292	0.031779	0.413823
	N252	N	0.905093	0.459706	0.183320
	N253	N	0.081273	0.531056	0.181287
	N254	N	0.080789	0.459326	0.821456
	N255	N	0.904872	0.530015	0.819618
	N256	N	0.174391	0.908026	0.463336
	N257	N	0.175028	0.081668	0.535590
	N258	N	0.813397	0.081657	0.464498
	N259	N	0.811223	0.905358	0.536027
	N260	N	0.456951	0.173962	0.912267
	N261	N	0.531299	0.170482	0.082450
	N262	N	0.456324	0.816020	0.085729
	N263	N	0.530884	0.816894	0.915068
	N264	N	0.457453	0.906180	0.181524
	N265	N	0.528324	0.084248	0.181452
	N266	N	0.457824	0.082423	0.817815
	N267	N	0.528933	0.905764	0.818063
	N268	N	0.905981	0.176849	0.465924
	N269	N	0.080599	0.173751	0.537314
	N270	N	0.080998	0.814258	0.463674
	N271	N	0.907739	0.814785	0.537285
	N272	N	0.171409	0.458345	0.915713
	N273	N	0.172632	0.531058	0.087300
	N274	N	0.816828	0.457657	0.086529
	N275	N	0.816566	0.531776	0.916096
	O276	O	0.395577	0.431567	0.561246
	H277	H	0.398700	0.405928	0.563284
	H278	H	0.377704	0.422894	0.569423
	O279	O	0.533667	0.349543	0.499299
	H280	H	0.537817	0.343238	0.496527
	H281	H	0.522880	0.342823	0.503987
	O282	O	0.684494	0.331924	0.484975
	H283	H	0.686030	0.324231	0.471264
	H284	H	0.687452	0.331271	0.459995
	O285	O	0.808783	-0.188954	0.128029
	H286	H	0.816540	-0.199595	0.117009
	H287	H	0.817111	-0.204803	0.119739
	O288	O	-0.609052	0.336782	0.562567
	H289	H	-0.606598	0.344445	0.557845
	H290	H	-0.603650	0.343716	0.552644
	O291	O	0.351027	0.554737	0.346694
	H292	H	0.360431	0.561282	0.357711
	H293	H	0.344384	0.555624	0.335440
	O294	O	0.341289	0.583725	0.622923
	H295	H	0.349101	0.587027	0.631595
	H296	H	0.352918	0.582220	0.627061
	O297	O	0.987742	0.928911	1.116371
	H298	H	0.974707	0.922890	1.113655
	H299	H	0.989351	0.927835	1.122495
	O300	O	-0.084244	0.113071	0.020638
	H301	H	-0.104875	0.095561	0.025528
	H302	H	-0.079732	0.125383	0.009509
	O303	O	0.309726	0.367783	0.681114
	H304	H	0.306432	0.389789	0.674304
	H305	H	0.307634	0.368079	0.660174
	O306	O	1.076998	0.105373	0.062718
	H307	H	1.064016	0.108992	0.073700
	H308	H	1.068362	0.104160	0.074987
	O309	O	0.477996	0.612934	0.336890
	H310	H	0.471138	0.616534	0.337323
	H311	H	0.472749	0.629640	0.333469
	O312	O	0.811034	0.992164	0.108808
	H313	H	0.803032	0.988255	0.119303
	H314	H	0.808492	0.977387	0.119367
	O315	O	0.431166	0.489580	0.555501
	H316	H	0.426352	0.491219	0.559951
	H317	H	0.431229	0.486393	0.560701
	O318	O	0.783856	1.017839	-0.211728
	H319	H	0.774357	1.022826	-0.228938
	H320	H	0.781098	1.051601	-0.214173
	O321	O	1.621336	-0.330586	1.594104
	H322	H	1.621324	-0.330906	1.591963
	H323	H	1.630556	-0.343204	1.606552
	O324	O	0.133142	-0.094891	0.833763
	H325	H	0.129866	-0.125161	0.832699
	H326	H	0.159136	-0.100233	0.827472
	O327	O	0.316600	0.613824	0.373071
	H328	H	0.315454	0.621116	0.375183
	H329	H	0.310701	0.610392	0.381873
	O330	O	0.441952	0.558603	0.564189
	H331	H	0.448496	0.561187	0.566471
	H332	H	0.439125	0.539494	0.577066
	O333	O	1.078110	1.019067	0.943551
	H334	H	1.078756	1.016751	0.936834
	H335	H	1.074889	1.021989	0.938314
	O336	O	1.098086	0.003595	1.187609
	H337	H	1.086807	0.021738	1.195379
	H338	H	1.124067	0.007704	1.208572
	O339	O	0.910583	-0.172773	1.090205
	H340	H	0.903047	-0.171115	1.082446
	H341	H	0.918896	-0.186367	1.086066
	O342	O	-0.043545	1.035332	1.180436
	H343	H	-0.038947	1.004318	1.186234
	H344	H	-0.070929	1.034935	1.198070
	O345	O	0.082930	1.079510	0.826618
	H346	H	0.076789	1.081618	0.841482
	H347	H	0.099884	1.059824	0.827000
	O348	O	1.161190	0.818609	-0.189674
	H349	H	1.155485	0.816454	-0.179999
	H350	H	1.160577	0.822293	-0.172075
	O351	O	0.022827	0.016148	-0.034470
	H352	H	0.038288	0.025732	-0.035356
	H353	H	0.021726	0.021805	-0.020509
	O354	O	0.948426	1.055477	0.169272
	H355	H	0.941024	1.057851	0.158082
	H356	H	0.934602	1.039014	0.171354
	O357	O	0.096799	1.184015	0.100643
	H358	H	0.076048	1.180160	0.099603
	H359	H	0.088701	1.197359	0.091048
	O360	O	0.440491	0.645239	0.616950
	H361	H	0.458404	0.663584	0.643183
	H362	H	0.442284	0.629285	0.609994
	O363	O	0.690889	0.653076	0.535610
	H364	H	0.674407	0.653398	0.539152
	H365	H	0.706367	0.677404	0.540487
	O366	O	0.615199	0.492865	0.586288
	H367	H	0.610964	0.476183	0.582029
	H368	H	0.612539	0.480500	0.597330
	O369	O	0.534502	0.347675	0.645290
	H370	H	0.524192	0.353393	0.649056
	H371	H	0.528791	0.335822	0.651832
	O372	O	0.180058	0.869260	-0.059342
	H373	H	0.175434	0.874984	-0.047722
	H374	H	0.197498	0.867572	-0.064083
	O375	O	0.414520	0.535287	0.624133
	H376	H	0.428595	0.521790	0.633426
	H377	H	0.421992	0.510199	0.627680
	O378	O	0.345468	0.359504	0.425472
	H379	H	0.346097	0.354551	0.409761
	H380	H	0.341400	0.359355	0.415349
	O381	O	0.674629	0.527216	0.663567
	H382	H	0.670863	0.520274	0.670832
	H383	H	0.682904	0.497245	0.664720
	O384	O	-0.191758	1.183573	0.838833
	H385	H	-0.186184	1.182963	0.852322
	H386	H	-0.168196	1.197909	0.844099
	O387	O	1.547530	0.513443	0.325005
	H388	H	1.553959	0.518916	0.328026
	H389	H	1.547182	0.523838	0.319149
	O390	O	0.594414	0.325741	0.367518
	H391	H	0.585442	0.316815	0.360262
	H392	H	0.604292	0.362199	0.350879
	O393	O	0.972494	0.168298	0.848833
	H394	H	0.976920	0.157290	0.838125
	H395	H	0.986589	0.158688	0.849990
	O396	O	-0.003976	0.886875	0.928967
	H397	H	-0.007975	0.900858	0.938001
	H398	H	-0.019990	0.890144	0.933678
	O399	O	0.508644	0.680892	0.395756
	H400	H	0.499221	0.680452	0.407407
	H401	H	0.504243	0.675770	0.376450
	O402	O	0.980926	0.065498	1.075850
	H403	H	0.995475	0.066997	1.067233
	H404	H	0.995076	0.062510	1.077832
	O405	O	-0.060870	-0.112008	-0.088508
	H406	H	-0.061387	-0.128689	-0.106365
	H407	H	-0.066212	-0.102779	-0.082982
	O408	O	0.918270	1.059677	1.069574
	H409	H	0.906748	1.049963	1.057953
	H410	H	0.920918	1.063983	1.067493
	O411	O	0.927185	0.964452	0.038127
	H412	H	0.931473	0.959230	0.028737
	H413	H	0.919436	0.978727	0.046972
	O414	O	-0.159522	-0.157960	0.939234
	H415	H	-0.170413	-0.165493	0.932378
	H416	H	-0.154747	-0.141549	0.915773
	O417	O	0.651920	0.399874	0.294922
	H418	H	0.654572	0.414503	0.297761
	H419	H	0.676149	0.416496	0.283996
	O420	O	0.147750	0.907014	0.107948
	H421	H	0.137469	0.915319	0.100235
	H422	H	0.156291	0.922881	0.118278
	O423	O	0.543069	0.429602	-0.448210
	H424	H	0.542103	0.434018	-0.444318
	H425	H	0.542657	0.416615	-0.459258
	O426	O	0.198098	0.185704	1.023097
	H427	H	0.218909	0.196824	1.023992
	H428	H	0.205096	0.186083	1.033887
	O429	O	0.652169	0.461713	0.407716
	H430	H	0.649617	0.471147	0.427734
	H431	H	0.655039	0.476351	0.406653
