data_Molecule from HDF5

_cell_length_a		16.329729
_cell_length_b		16.192101
_cell_length_c		16.335791
_cell_angle_alpha	90.140814
_cell_angle_beta	90.387665
_cell_angle_gamma	90.219428
_symmetry_space_group_name_H-M	'P 1'
_symmetry_Int_Tables_number		1

loop_
	_symmetry_equiv_pos_as_xyz
	x,y,z

loop_
	_atom_site_label
	_atom_site_type_symbol
	_atom_site_fract_x
	_atom_site_fract_y
	_atom_site_fract_z
	H0	H	0.395201	0.836874	0.716390
	H1	H	0.601987	0.160774	0.715342
	H2	H	0.598099	0.836180	0.279696
	H3	H	0.397619	0.162740	0.284981
	H4	H	0.712186	0.392025	0.836806
	H5	H	0.717536	0.603097	0.158098
	H6	H	0.276987	0.600123	0.835678
	H7	H	0.279895	0.397201	0.159966
	H8	H	0.836112	0.714656	0.392398
	H9	H	0.159578	0.712482	0.598626
	H10	H	0.835739	0.277963	0.595424
	H11	H	0.160725	0.280202	0.398367
	H12	H	0.836149	0.388366	0.715309
	H13	H	0.158176	0.597467	0.716328
	H14	H	0.836242	0.598125	0.277955
	H15	H	0.159151	0.393729	0.279289
	H16	H	0.392937	0.716996	0.835923
	H17	H	0.599076	0.715961	0.160103
	H18	H	0.592263	0.282564	0.836161
	H19	H	0.395993	0.283016	0.160556
	H20	H	0.712932	0.834184	0.395912
	H21	H	0.717092	0.159730	0.600988
	H22	H	0.282040	0.835816	0.601626
	H23	H	0.281167	0.161265	0.399333
	H24	H	0.897404	0.332648	0.210877
	H25	H	0.100323	0.659617	0.216287
	H26	H	0.094503	0.331974	0.783118
	H27	H	0.893980	0.657722	0.776785
	H28	H	0.216200	0.894399	0.337374
	H29	H	0.216013	0.099165	0.660539
	H30	H	0.777230	0.099897	0.337966
	H31	H	0.781158	0.894022	0.659882
	H32	H	0.333809	0.211004	0.899413
	H33	H	0.659475	0.215612	0.098384
	H34	H	0.334252	0.782060	0.097449
	H35	H	0.658818	0.780412	0.897353
	H36	H	0.334746	0.898376	0.214620
	H37	H	0.658342	0.103481	0.217727
	H38	H	0.337267	0.101602	0.777525
	H39	H	0.659413	0.895821	0.781153
	H40	H	0.897420	0.210875	0.335223
	H41	H	0.099350	0.214094	0.659776
	H42	H	0.094827	0.782335	0.335019
	H43	H	0.896107	0.778135	0.658993
	H44	H	0.210683	0.332999	0.898856
	H45	H	0.212976	0.661123	0.098633
	H46	H	0.779375	0.334235	0.096198
	H47	H	0.778165	0.659533	0.893091
	H48	H	0.409922	0.115299	0.589374
	H49	H	0.591168	0.880656	0.588074
	H50	H	0.589592	0.112805	0.412992
	H51	H	0.406300	0.883096	0.410507
	H52	H	0.586306	0.410896	0.112417
	H53	H	0.585895	0.582294	0.884464
	H54	H	0.404974	0.589574	0.112091
	H55	H	0.411853	0.402336	0.884050
	H56	H	0.109230	0.585185	0.413755
	H57	H	0.881553	0.582029	0.590190
	H58	H	0.115212	0.403703	0.594850
	H59	H	0.881666	0.399922	0.403258
	H60	H	0.112825	0.401882	0.586773
	H61	H	0.879693	0.590386	0.588282
	H62	H	0.112965	0.582402	0.400730
	H63	H	0.883595	0.404907	0.406446
	H64	H	0.404992	0.588231	0.111681
	H65	H	0.581779	0.592651	0.882828
	H66	H	0.587029	0.404862	0.114016
	H67	H	0.396034	0.398056	0.878664
	H68	H	0.590876	0.115458	0.407578
	H69	H	0.588372	0.879987	0.593820
	H70	H	0.406477	0.115129	0.588363
	H71	H	0.403966	0.880493	0.403958
	H72	H	0.900886	0.613848	0.085161
	H73	H	0.092648	0.382990	0.075486
	H74	H	0.091836	0.612391	0.911281
	H75	H	0.905154	0.384417	0.916316
	H76	H	0.096931	0.900552	0.617038
	H77	H	0.082738	0.081471	0.387402
	H78	H	0.904501	0.084931	0.613458
	H79	H	0.906279	0.905382	0.383906
	H80	H	0.612325	0.090329	0.907348
	H81	H	0.378738	0.089918	0.100098
	H82	H	0.611283	0.901970	0.082015
	H83	H	0.383812	0.911575	0.906436
	H84	H	0.607443	0.919338	0.088429
	H85	H	0.379171	0.098330	0.088259
	H86	H	0.613661	0.091264	0.906327
	H87	H	0.382601	0.908235	0.904570
	H88	H	0.909626	0.085561	0.611836
	H89	H	0.089170	0.095640	0.379813
	H90	H	0.091830	0.912756	0.611465
	H91	H	0.903080	0.905810	0.382154
	H92	H	0.088472	0.616120	0.898994
	H93	H	0.097375	0.375311	0.097369
	H94	H	0.909958	0.614782	0.093674
	H95	H	0.894580	0.376477	0.903687
	H96	H	0.406672	0.116413	0.591277
	H97	H	0.585518	0.882640	0.588257
	H98	H	0.585697	0.112791	0.408377
	H99	H	0.410723	0.882365	0.404841
	H100	H	0.592431	0.408938	0.114020
	H101	H	0.592275	0.590685	0.880833
	H102	H	0.406262	0.588976	0.111770
	H103	H	0.399014	0.414388	0.884136
	H104	H	0.115162	0.595081	0.405730
	H105	H	0.883942	0.585001	0.582441
	H106	H	0.111598	0.409763	0.590437
	H107	H	0.882654	0.405094	0.399849
	H108	H	0.911853	0.609324	0.082839
	H109	H	0.075921	0.384160	0.092070
	H110	H	0.079253	0.610609	0.906903
	H111	H	0.910963	0.380783	0.899075
	H112	H	0.083642	0.901443	0.612636
	H113	H	0.099445	0.082081	0.381813
	H114	H	0.907144	0.090096	0.614528
	H115	H	0.905047	0.908399	0.383681
	H116	H	0.612601	0.092089	0.908076
	H117	H	0.384102	0.084606	0.087575
	H118	H	0.615545	0.906860	0.099917
	H119	H	0.383235	0.908534	0.908250
	C120	C	0.377485	0.007627	0.619851
	C121	C	0.619661	0.988959	0.620062
	C122	C	0.618783	0.006385	0.377936
	C123	C	0.376591	0.989935	0.377439
	C124	C	0.616880	0.376880	0.006397
	C125	C	0.618268	0.619897	0.989361
	C126	C	0.374334	0.619784	0.005382
	C127	C	0.373225	0.375649	0.989383
	C128	C	0.005713	0.617870	0.375229
	C129	C	0.988704	0.616661	0.618296
	C130	C	0.006282	0.373708	0.619173
	C131	C	0.989269	0.373545	0.374340
	C132	C	0.876732	0.505093	0.117046
	C133	C	0.118865	0.488767	0.119265
	C134	C	0.116126	0.504748	0.876682
	C135	C	0.873103	0.487445	0.874659
	C136	C	0.120323	0.874735	0.506939
	C137	C	0.120557	0.117711	0.489773
	C138	C	0.876503	0.117069	0.506454
	C139	C	0.875074	0.874932	0.489535
	C140	C	0.506064	0.120564	0.876613
	C141	C	0.488059	0.121636	0.121375
	C142	C	0.504970	0.878279	0.119881
	C143	C	0.489394	0.877696	0.876601
	C144	C	0.376780	0.885347	0.677523
	C145	C	0.620757	0.111757	0.677139
	C146	C	0.618191	0.884451	0.318851
	C147	C	0.377413	0.113346	0.322226
	C148	C	0.673389	0.374904	0.885183
	C149	C	0.677488	0.621212	0.110246
	C150	C	0.315943	0.619708	0.883965
	C151	C	0.318088	0.377506	0.111501
	C152	C	0.884517	0.675414	0.373996
	C153	C	0.110498	0.674273	0.618349
	C154	C	0.884452	0.315740	0.616512
	C155	C	0.111840	0.317841	0.377285
	C156	C	0.884380	0.371524	0.675652
	C157	C	0.109889	0.617135	0.677030
	C158	C	0.884587	0.617553	0.316603
	C159	C	0.111099	0.374276	0.317830
	C160	C	0.373929	0.677864	0.884188
	C161	C	0.618595	0.677525	0.111114
	C162	C	0.613509	0.320329	0.884612
	C163	C	0.375678	0.320488	0.111776
	C164	C	0.675098	0.883586	0.376933
	C165	C	0.677982	0.111168	0.620100
	C166	C	0.320197	0.884764	0.620201
	C167	C	0.319536	0.112494	0.379068
	C168	C	0.877458	0.381786	0.172959
	C169	C	0.118982	0.611152	0.176905
	C170	C	0.114688	0.381139	0.820966
	C171	C	0.873791	0.609580	0.815979
	C172	C	0.176728	0.875473	0.385437
	C173	C	0.177486	0.118336	0.611826
	C174	C	0.817461	0.117926	0.385467
	C175	C	0.818947	0.874547	0.611238
	C176	C	0.383117	0.174416	0.878454
	C177	C	0.610369	0.178280	0.119461
	C178	C	0.382876	0.820649	0.117869
	C179	C	0.610550	0.819420	0.877477
	C180	C	0.383257	0.878438	0.176235
	C181	C	0.609905	0.122418	0.178854
	C182	C	0.384998	0.120203	0.817438
	C183	C	0.611018	0.877071	0.819720
	C184	C	0.877191	0.173168	0.384198
	C185	C	0.119049	0.175087	0.611604
	C186	C	0.116793	0.819322	0.384248
	C187	C	0.876710	0.817209	0.610895
	C188	C	0.172617	0.381721	0.878269
	C189	C	0.174952	0.611976	0.118365
	C190	C	0.818680	0.382611	0.115980
	C191	C	0.816590	0.610350	0.874036
	C192	C	0.400838	0.093304	0.596601
	C193	C	0.595343	0.903336	0.596706
	C194	C	0.595559	0.091519	0.402392
	C195	C	0.400091	0.904410	0.399727
	C196	C	0.595056	0.401205	0.091501
	C197	C	0.593910	0.595563	0.904633
	C198	C	0.398528	0.595885	0.089877
	C199	C	0.395577	0.398216	0.904278
	C200	C	0.090360	0.594194	0.399764
	C201	C	0.903829	0.592717	0.593930
	C202	C	0.091146	0.398149	0.597253
	C203	C	0.904750	0.396510	0.396659
	C204	C	0.900778	0.590360	0.093965
	C205	C	0.095512	0.402865	0.095303
	C206	C	0.093143	0.590646	0.899183
	C207	C	0.896617	0.402598	0.899101
	C208	C	0.097490	0.898022	0.591840
	C209	C	0.097110	0.093542	0.404963
	C210	C	0.900284	0.093690	0.591337
	C211	C	0.898069	0.899201	0.405067
	C212	C	0.590970	0.097804	0.900364
	C213	C	0.402681	0.098035	0.098510
	C214	C	0.589610	0.902417	0.096828
	C215	C	0.404943	0.902166	0.899636
	Zn216	Zn	0.498635	-0.001224	0.747573
	Zn217	Zn	0.497472	-0.000417	0.249267
	Zn218	Zn	0.745831	0.497931	-0.003123
	Zn219	Zn	0.245395	0.497611	-0.002384
	Zn220	Zn	-0.003033	0.746433	0.497254
	Zn221	Zn	-0.001509	0.245151	0.497312
	Zn222	Zn	-0.004097	0.494968	0.747016
	Zn223	Zn	-0.001976	0.496448	0.246515
	Zn224	Zn	0.496692	0.748841	-0.002115
	Zn225	Zn	0.496212	0.248343	-0.000849
	Zn226	Zn	0.746884	-0.003571	0.499105
	Zn227	Zn	0.249605	-0.002970	0.499333
	N228	N	0.411744	0.962629	0.677523
	N229	N	0.585009	0.034704	0.677184
	N230	N	0.583753	0.961827	0.319462
	N231	N	0.412201	0.036241	0.321116
	N232	N	0.675380	0.409867	0.962030
	N233	N	0.677346	0.586244	0.033421
	N234	N	0.316219	0.584251	0.960310
	N235	N	0.316114	0.410888	0.034354
	N236	N	0.960837	0.675749	0.409782
	N237	N	0.033906	0.674204	0.582618
	N238	N	0.960952	0.317115	0.581872
	N239	N	0.035151	0.316950	0.411544
	N240	N	0.961149	0.406747	0.677458
	N241	N	0.033080	0.582093	0.677020
	N242	N	0.961159	0.582511	0.317225
	N243	N	0.034120	0.408071	0.315752
	N244	N	0.409793	0.677703	0.960552
	N245	N	0.582405	0.676822	0.034870
	N246	N	0.579217	0.321484	0.961108
	N247	N	0.409393	0.319145	0.034927
	N248	N	0.675489	0.960465	0.413035
	N249	N	0.677340	0.033748	0.585320
	N250	N	0.320637	0.961741	0.584970
	N251	N	0.318860	0.034747	0.412806
	N252	N	0.912901	0.458953	0.173691
	N253	N	0.084752	0.533455	0.177395
	N254	N	0.080618	0.458578	0.819745
	N255	N	0.908172	0.532143	0.816079
	N256	N	0.179242	0.908802	0.463008
	N257	N	0.178131	0.083255	0.535141
	N258	N	0.816749	0.084124	0.462601
	N259	N	0.817980	0.909947	0.534631
	N260	N	0.459256	0.174725	0.914689
	N261	N	0.533589	0.177535	0.084245
	N262	N	0.459553	0.820509	0.083558
	N263	N	0.534109	0.819873	0.912060
	N264	N	0.460119	0.913413	0.177515
	N265	N	0.532751	0.088172	0.180192
	N266	N	0.462278	0.087081	0.816454
	N267	N	0.534658	0.912669	0.818902
	N268	N	0.913382	0.172655	0.460315
	N269	N	0.084271	0.174768	0.534695
	N270	N	0.082426	0.818764	0.460844
	N271	N	0.910610	0.817129	0.534157
	N272	N	0.173433	0.459568	0.912386
	N273	N	0.174955	0.534627	0.083354
	N274	N	0.817979	0.460314	0.082202
	N275	N	0.815876	0.533384	0.909385
	O276	O	0.052311	0.103113	-0.018907
	H277	H	0.062914	0.108375	-0.008556
	H278	H	0.063957	0.111662	-0.030451
	O279	O	0.402188	0.417421	0.425405
	H280	H	0.417186	0.406543	0.428681
	H281	H	0.406839	0.429938	0.413803
	O282	O	1.014032	0.077732	0.009806
	H283	H	1.020838	0.064329	0.006320
	H284	H	1.021308	0.084187	-0.000375
	O285	O	0.089533	0.933259	-0.158826
	H286	H	0.091673	0.930434	-0.163556
	H287	H	0.095296	0.948111	-0.151046
	O288	O	0.606964	0.583082	0.621878
	H289	H	0.620394	0.597510	0.601143
	H290	H	0.592764	0.591354	0.618739
	O291	O	0.476840	0.525362	0.654080
	H292	H	0.465729	0.521738	0.662326
	H293	H	0.475246	0.516681	0.653206
	O294	O	1.061904	0.914484	0.963642
	H295	H	1.066534	0.904365	0.962673
	H296	H	1.055709	0.905435	0.954503
	O297	O	-0.037645	0.119840	-0.105560
	H298	H	-0.051007	0.125131	-0.098070
	H299	H	-0.033653	0.132970	-0.112416
	O300	O	0.346550	0.611986	0.323319
	H301	H	0.335744	0.621684	0.321711
	H302	H	0.351093	0.610974	0.329500
	O303	O	0.062641	0.949269	0.878666
	H304	H	0.063489	0.945446	0.869371
	H305	H	0.060480	0.955399	0.877392
	O306	O	0.414610	0.438700	0.478488
	H307	H	0.431281	0.446043	0.467153
	H308	H	0.415515	0.449544	0.479344
	O309	O	0.981984	-0.149476	-0.099672
	H310	H	0.981361	-0.173595	-0.106453
	H311	H	0.987489	-0.141248	-0.092951
	O312	O	0.134059	0.020238	1.076007
	H313	H	0.139155	0.025609	1.082095
	H314	H	0.117767	0.027243	1.075651
	O315	O	0.454388	0.490183	0.489580
	H316	H	0.454979	0.507975	0.483997
	H317	H	0.469139	0.497641	0.491528
	O318	O	0.371014	0.408498	0.531068
	H319	H	0.358692	0.410668	0.539227
	H320	H	0.379756	0.401916	0.532990
	O321	O	0.469496	0.674890	0.470118
	H322	H	0.459577	0.681110	0.458959
	H323	H	0.470857	0.662822	0.467428
	O324	O	0.611111	0.568466	0.657700
	H325	H	0.617608	0.594203	0.662032
	H326	H	0.628616	0.574922	0.667453
	O327	O	0.110237	0.949009	0.999743
	H328	H	0.094995	0.952231	0.998530
	H329	H	0.111216	0.970975	0.995016
	O330	O	0.642109	0.555186	0.470598
	H331	H	0.637385	0.550156	0.467774
	H332	H	0.644459	0.569132	0.462567
	O333	O	0.048441	0.993347	0.968842
	H334	H	0.045025	0.989302	0.966121
	H335	H	0.055359	0.994210	0.959702
	O336	O	0.871531	0.882722	1.102960
	H337	H	0.872065	0.899127	1.109456
	H338	H	0.892781	0.875150	1.107897
	O339	O	0.595369	0.397684	0.406731
	H340	H	0.586300	0.384410	0.399671
	H341	H	0.580089	0.396849	0.418055
	O342	O	0.964899	0.053456	0.190754
	H343	H	0.963819	0.050728	0.199186
	H344	H	0.963902	0.064544	0.195640
	O345	O	0.534965	0.381661	0.545110
	H346	H	0.550956	0.386348	0.541669
	H347	H	0.551098	0.383052	0.564293
	O348	O	1.121475	1.022744	1.131768
	H349	H	1.112351	1.041464	1.132008
	H350	H	1.131392	1.026942	1.132601
	O351	O	0.872172	0.936452	-0.024315
	H352	H	0.852054	0.904770	-0.011814
	H353	H	0.872730	0.944267	-0.013209
	O354	O	0.663903	0.573276	0.518089
	H355	H	0.666656	0.554097	0.511589
	H356	H	0.642994	0.571738	0.531227
	O357	O	0.448478	0.579453	0.540369
	H358	H	0.444140	0.571113	0.547905
	H359	H	0.444582	0.571278	0.548639
	O360	O	-0.054067	0.108660	-0.022011
	H361	H	-0.068677	0.095730	-0.019717
	H362	H	-0.058263	0.116034	-0.027435
	O363	O	0.432554	0.517029	0.685436
	H364	H	0.423718	0.503638	0.691008
	H365	H	0.426284	0.514353	0.685780
	O366	O	0.367577	0.636661	0.395490
	H367	H	0.370624	0.639582	0.386309
	H368	H	0.357529	0.644274	0.390310
	O369	O	0.567135	0.420712	0.532974
	H370	H	0.560477	0.416755	0.539600
	H371	H	0.578212	0.426604	0.537446
	O372	O	0.632716	0.491843	0.376727
	H373	H	0.640913	0.478953	0.361726
	H374	H	0.641981	0.468832	0.377049
	O375	O	0.442676	0.432781	0.329837
	H376	H	0.438705	0.431490	0.324919
	H377	H	0.429224	0.434815	0.329995
	O378	O	0.520540	0.395953	0.406719
	H379	H	0.507470	0.399687	0.406921
	H380	H	0.526268	0.399594	0.407223
	O381	O	0.456405	0.423567	0.631941
	H382	H	0.452735	0.423896	0.626284
	H383	H	0.464591	0.435467	0.636402
	O384	O	-0.019060	0.861116	0.036840
	H385	H	-0.013682	0.867329	0.031036
	H386	H	-0.024556	0.865944	0.040204
	O387	O	0.844231	0.093669	0.916470
	H388	H	0.831073	0.097008	0.915396
	H389	H	0.848106	0.089204	0.931359
	O390	O	-0.109333	1.001919	0.124612
	H391	H	-0.111724	1.009712	0.129886
	H392	H	-0.108476	1.004743	0.133582
	O393	O	1.037984	0.934249	0.031221
	H394	H	1.028694	0.931958	0.026117
	H395	H	1.037927	0.921212	0.024524
	O396	O	0.572908	0.418200	0.525524
	H397	H	0.568899	0.433863	0.532872
	H398	H	0.578372	0.428883	0.525131
	O399	O	-0.026157	1.031412	0.956563
	H400	H	-0.029448	1.022924	0.960765
	H401	H	-0.029126	1.039710	0.947699
	O402	O	1.076615	1.037167	0.995299
	H403	H	1.070519	1.034679	0.988892
	H404	H	1.083585	1.035016	0.997992
	O405	O	0.565034	0.651310	0.453757
	H406	H	0.563697	0.645008	0.455436
	H407	H	0.559585	0.649435	0.451735
