data_Molecule from HDF5

_cell_length_a		16.282780
_cell_length_b		16.193037
_cell_length_c		16.303748
_cell_angle_alpha	90.013651
_cell_angle_beta	89.769215
_cell_angle_gamma	89.906318
_symmetry_space_group_name_H-M	'P 1'
_symmetry_Int_Tables_number		1

loop_
	_symmetry_equiv_pos_as_xyz
	x,y,z

loop_
	_atom_site_label
	_atom_site_type_symbol
	_atom_site_fract_x
	_atom_site_fract_y
	_atom_site_fract_z
	H0	H	0.406870	0.843365	0.720018
	H1	H	0.602796	0.173009	0.717993
	H2	H	0.604810	0.843842	0.290304
	H3	H	0.406715	0.172792	0.291885
	H4	H	0.720690	0.409680	0.841043
	H5	H	0.718922	0.607076	0.168244
	H6	H	0.291710	0.607360	0.841486
	H7	H	0.290171	0.409790	0.168576
	H8	H	0.840667	0.721339	0.408156
	H9	H	0.168857	0.721203	0.600612
	H10	H	0.840857	0.294881	0.603359
	H11	H	0.169252	0.294407	0.407237
	H12	H	0.841650	0.409133	0.721316
	H13	H	0.168964	0.607784	0.718978
	H14	H	0.840734	0.606130	0.291183
	H15	H	0.168722	0.407313	0.288496
	H16	H	0.408161	0.722600	0.841281
	H17	H	0.602573	0.721979	0.168979
	H18	H	0.604144	0.294100	0.840676
	H19	H	0.408816	0.295946	0.169692
	H20	H	0.719295	0.843433	0.406446
	H21	H	0.718885	0.172529	0.603388
	H22	H	0.290234	0.843597	0.604631
	H23	H	0.291504	0.173099	0.407662
	H24	H	0.906998	0.343361	0.218972
	H25	H	0.103267	0.672284	0.218312
	H26	H	0.104392	0.343789	0.789981
	H27	H	0.907465	0.672993	0.790987
	H28	H	0.222231	0.907562	0.341477
	H29	H	0.218302	0.107061	0.668066
	H30	H	0.791313	0.106356	0.340704
	H31	H	0.789892	0.908813	0.667941
	H32	H	0.340915	0.221651	0.909578
	H33	H	0.669793	0.221477	0.101706
	H34	H	0.341644	0.795010	0.103521
	H35	H	0.669996	0.794996	0.906937
	H36	H	0.341529	0.910566	0.220341
	H37	H	0.668510	0.108101	0.220287
	H38	H	0.341353	0.108001	0.791352
	H39	H	0.668700	0.908976	0.788801
	H40	H	0.907620	0.222447	0.340508
	H41	H	0.101906	0.221795	0.668287
	H42	H	0.103388	0.793378	0.340228
	H43	H	0.905278	0.792890	0.667565
	H44	H	0.220470	0.344095	0.904964
	H45	H	0.218139	0.672525	0.102539
	H46	H	0.791432	0.343378	0.102575
	H47	H	0.792024	0.673392	0.907182
	H48	H	0.418107	0.121173	0.592884
	H49	H	0.602661	0.889912	0.594772
	H50	H	0.592624	0.123603	0.414416
	H51	H	0.405694	0.890091	0.416938
	H52	H	0.599933	0.414107	0.121713
	H53	H	0.597821	0.603931	0.888068
	H54	H	0.410247	0.602136	0.121911
	H55	H	0.406388	0.408097	0.885261
	H56	H	0.122108	0.602016	0.408087
	H57	H	0.890094	0.603541	0.590848
	H58	H	0.119009	0.419070	0.592992
	H59	H	0.885699	0.419372	0.398885
	H60	H	0.121822	0.416966	0.603834
	H61	H	0.890718	0.592344	0.601089
	H62	H	0.120898	0.601540	0.413401
	H63	H	0.886075	0.402602	0.414580
	H64	H	0.410170	0.602105	0.121438
	H65	H	0.602132	0.601588	0.886772
	H66	H	0.599105	0.416374	0.120704
	H67	H	0.410067	0.425290	0.890970
	H68	H	0.602441	0.125996	0.415451
	H69	H	0.597640	0.888742	0.603865
	H70	H	0.402334	0.126574	0.595523
	H71	H	0.412734	0.888266	0.403894
	H72	H	0.913015	0.626244	0.101497
	H73	H	0.096419	0.390894	0.096262
	H74	H	0.104437	0.628654	0.904097
	H75	H	0.913210	0.395931	0.925890
	H76	H	0.107576	0.909913	0.625127
	H77	H	0.092311	0.098273	0.390399
	H78	H	0.907138	0.102551	0.622001
	H79	H	0.920448	0.920531	0.392151
	H80	H	0.621049	0.097028	0.909631
	H81	H	0.390822	0.103455	0.091020
	H82	H	0.622711	0.920059	0.105882
	H83	H	0.392336	0.917538	0.920634
	H84	H	0.624611	0.906724	0.098032
	H85	H	0.389548	0.094077	0.104297
	H86	H	0.623475	0.103108	0.908469
	H87	H	0.388989	0.922288	0.904843
	H88	H	0.911316	0.098345	0.619951
	H89	H	0.099450	0.108913	0.385272
	H90	H	0.097352	0.926188	0.616146
	H91	H	0.912162	0.905148	0.385621
	H92	H	0.090369	0.623655	0.909580
	H93	H	0.100175	0.390278	0.095852
	H94	H	0.913781	0.624557	0.096454
	H95	H	0.902871	0.386834	0.907176
	H96	H	0.413199	0.127618	0.607909
	H97	H	0.592363	0.893749	0.595298
	H98	H	0.598927	0.126978	0.406300
	H99	H	0.420424	0.894146	0.416037
	H100	H	0.597080	0.414345	0.120963
	H101	H	0.598429	0.599240	0.889075
	H102	H	0.410259	0.602179	0.121960
	H103	H	0.422719	0.413066	0.890873
	H104	H	0.119995	0.597585	0.410268
	H105	H	0.885413	0.605648	0.604905
	H106	H	0.123160	0.408445	0.595980
	H107	H	0.894362	0.423902	0.420542
	H108	H	0.908510	0.626441	0.098041
	H109	H	0.098392	0.389868	0.099476
	H110	H	0.102159	0.625153	0.919584
	H111	H	0.925114	0.392725	0.905525
	H112	H	0.087618	0.907899	0.619650
	H113	H	0.105271	0.096544	0.387877
	H114	H	0.913051	0.104235	0.620858
	H115	H	0.903213	0.920856	0.387000
	H116	H	0.621141	0.101357	0.914155
	H117	H	0.384730	0.110391	0.105067
	H118	H	0.619192	0.919508	0.091451
	H119	H	0.385813	0.906084	0.910240
	C120	C	0.382854	0.016416	0.627351
	C121	C	0.626086	0.999630	0.626169
	C122	C	0.626682	0.016808	0.383573
	C123	C	0.384492	0.999817	0.384354
	C124	C	0.627461	0.386451	0.012999
	C125	C	0.627004	0.629947	0.996355
	C126	C	0.382867	0.630611	0.013367
	C127	C	0.384146	0.387051	0.997102
	C128	C	0.012911	0.629008	0.382898
	C129	C	0.996763	0.629753	0.626669
	C130	C	0.013140	0.386601	0.626532
	C131	C	0.996888	0.386290	0.382752
	C132	C	0.883699	0.516837	0.126561
	C133	C	0.126417	0.498936	0.125629
	C134	C	0.127367	0.516981	0.882594
	C135	C	0.884572	0.500269	0.883904
	C136	C	0.126857	0.885729	0.512409
	C137	C	0.126329	0.129455	0.496140
	C138	C	0.882737	0.130268	0.512890
	C139	C	0.883278	0.886602	0.496313
	C140	C	0.513597	0.129766	0.883030
	C141	C	0.496879	0.130647	0.127509
	C142	C	0.513961	0.886865	0.126883
	C143	C	0.497390	0.886681	0.883337
	C144	C	0.385937	0.892492	0.682296
	C145	C	0.623544	0.123682	0.680631
	C146	C	0.624901	0.892999	0.328172
	C147	C	0.386462	0.123752	0.329571
	C148	C	0.682897	0.389022	0.889914
	C149	C	0.681408	0.627664	0.119601
	C150	C	0.329019	0.628065	0.890424
	C151	C	0.329002	0.389792	0.120085
	C152	C	0.889627	0.683858	0.386734
	C153	C	0.119934	0.684293	0.622583
	C154	C	0.889788	0.332378	0.623982
	C155	C	0.120172	0.331248	0.386008
	C156	C	0.890285	0.388926	0.682640
	C157	C	0.119885	0.627578	0.681221
	C158	C	0.889570	0.626544	0.328690
	C159	C	0.119996	0.387688	0.327013
	C160	C	0.387406	0.685034	0.890240
	C161	C	0.623343	0.684431	0.120056
	C162	C	0.625127	0.331458	0.889813
	C163	C	0.387454	0.332789	0.120567
	C164	C	0.681347	0.892569	0.386254
	C165	C	0.681327	0.123326	0.623580
	C166	C	0.328034	0.892610	0.624919
	C167	C	0.329338	0.123755	0.387117
	C168	C	0.886269	0.392455	0.181047
	C169	C	0.123452	0.623329	0.180222
	C170	C	0.125091	0.392898	0.827708
	C171	C	0.887001	0.624010	0.828828
	C172	C	0.183050	0.887853	0.389787
	C173	C	0.180593	0.126952	0.619136
	C174	C	0.828585	0.127616	0.389613
	C175	C	0.827887	0.888852	0.619272
	C176	C	0.389919	0.184449	0.887632
	C177	C	0.620684	0.184394	0.123109
	C178	C	0.390537	0.832405	0.124500
	C179	C	0.620795	0.832295	0.886195
	C180	C	0.390469	0.890316	0.182095
	C181	C	0.619923	0.128085	0.182012
	C182	C	0.390272	0.128013	0.828981
	C183	C	0.620140	0.888789	0.827434
	C184	C	0.886765	0.184765	0.389388
	C185	C	0.122757	0.184148	0.619376
	C186	C	0.124416	0.830738	0.389405
	C187	C	0.885454	0.831454	0.619022
	C188	C	0.182737	0.393300	0.884801
	C189	C	0.180785	0.623354	0.122786
	C190	C	0.829111	0.392556	0.123288
	C191	C	0.829742	0.624328	0.886789
	C192	C	0.404747	0.102773	0.605328
	C193	C	0.603967	0.912961	0.604447
	C194	C	0.604540	0.103153	0.405519
	C195	C	0.406595	0.913363	0.405964
	C196	C	0.605140	0.408409	0.098919
	C197	C	0.605687	0.608191	0.910257
	C198	C	0.403982	0.608721	0.099728
	C199	C	0.406650	0.408970	0.911127
	C200	C	0.098908	0.606835	0.404171
	C201	C	0.910863	0.607230	0.605354
	C202	C	0.099132	0.408445	0.604085
	C203	C	0.910767	0.408766	0.404773
	C204	C	0.905316	0.603215	0.105156
	C205	C	0.104758	0.412648	0.103749
	C206	C	0.105307	0.603470	0.904523
	C207	C	0.907115	0.414024	0.906341
	C208	C	0.104133	0.908004	0.598206
	C209	C	0.105085	0.107667	0.409986
	C210	C	0.904235	0.108267	0.598508
	C211	C	0.905374	0.909108	0.410223
	C212	C	0.599567	0.107336	0.904433
	C213	C	0.410668	0.109024	0.106330
	C214	C	0.599965	0.908690	0.104813
	C215	C	0.411189	0.908755	0.905460
	Zn216	Zn	0.504868	0.008513	0.754665
	Zn217	Zn	0.505753	0.008465	0.255631
	Zn218	Zn	0.755726	0.508675	0.004843
	Zn219	Zn	0.254777	0.508424	0.004547
	Zn220	Zn	0.004512	0.757772	0.504362
	Zn221	Zn	0.004907	0.257997	0.504875
	Zn222	Zn	0.005537	0.508055	0.755265
	Zn223	Zn	0.005392	0.508073	0.254070
	Zn224	Zn	0.505683	0.758134	0.005280
	Zn225	Zn	0.505891	0.258035	0.004627
	Zn226	Zn	0.754705	0.007887	0.504459
	Zn227	Zn	0.255393	0.007942	0.504773
	N228	N	0.419351	0.970418	0.683821
	N229	N	0.589910	0.045857	0.682358
	N230	N	0.591511	0.971088	0.326399
	N231	N	0.420063	0.045789	0.327555
	N232	N	0.684348	0.422522	0.967482
	N233	N	0.683730	0.594409	0.041942
	N234	N	0.326425	0.594894	0.967939
	N235	N	0.326817	0.422644	0.042314
	N236	N	0.967267	0.685332	0.419652
	N237	N	0.042530	0.685497	0.589213
	N238	N	0.967210	0.330794	0.589952
	N239	N	0.042634	0.330325	0.420024
	N240	N	0.968077	0.421939	0.684415
	N241	N	0.042258	0.594400	0.683849
	N242	N	0.967290	0.593140	0.326233
	N243	N	0.042353	0.421165	0.324962
	N244	N	0.420248	0.686491	0.967955
	N245	N	0.590313	0.686058	0.042487
	N246	N	0.591443	0.329613	0.967363
	N247	N	0.421404	0.331291	0.043178
	N248	N	0.682733	0.970555	0.419789
	N249	N	0.682844	0.045162	0.590192
	N250	N	0.325926	0.970730	0.591666
	N251	N	0.328139	0.045794	0.420593
	N252	N	0.919540	0.470415	0.183145
	N253	N	0.090391	0.545252	0.182379
	N254	N	0.091273	0.470843	0.826293
	N255	N	0.920710	0.546076	0.827481
	N256	N	0.184422	0.921506	0.467192
	N257	N	0.182907	0.093703	0.541460
	N258	N	0.825817	0.094623	0.467255
	N259	N	0.826819	0.922826	0.541878
	N260	N	0.467684	0.185946	0.920395
	N261	N	0.543160	0.186174	0.089868
	N262	N	0.467966	0.830516	0.090686
	N263	N	0.543327	0.831013	0.920391
	N264	N	0.468322	0.923447	0.183695
	N265	N	0.542079	0.095513	0.184723
	N266	N	0.468175	0.094785	0.826045
	N267	N	0.542321	0.921909	0.825599
	N268	N	0.919606	0.186656	0.467127
	N269	N	0.089763	0.185870	0.541860
	N270	N	0.090023	0.829567	0.466670
	N271	N	0.919238	0.830126	0.541539
	N272	N	0.184328	0.471317	0.918107
	N273	N	0.182488	0.545264	0.089387
	N274	N	0.827276	0.470851	0.090217
	N275	N	0.828135	0.546297	0.920294
	O276	O	0.499234	0.453758	0.459540
	H277	H	0.506391	0.454522	0.453952
	H278	H	0.507112	0.447651	0.463898
	O279	O	0.006658	-0.009934	-0.038396
	H280	H	0.004446	-0.010628	-0.036982
	H281	H	-0.000010	0.000359	-0.036353
	O282	O	0.453946	0.491012	0.511080
	H283	H	0.451985	0.486071	0.498701
	H284	H	0.455022	0.496101	0.508403
	O285	O	0.512921	0.419683	0.502493
	H286	H	0.502294	0.423931	0.498922
	H287	H	0.518666	0.417249	0.495898
	O288	O	1.013294	-0.028236	-0.034718
	H289	H	1.015781	-0.041774	-0.045857
	H290	H	1.012046	-0.036999	-0.027139
	O291	O	-0.501247	0.471740	-0.492534
	H292	H	-0.493488	0.463039	-0.500683
	H293	H	-0.503950	0.467158	-0.490961
	O294	O	0.503408	0.462543	0.492745
	H295	H	0.494474	0.466447	0.496018
	H296	H	0.496317	0.459090	0.494574
	O297	O	0.039891	0.981764	-0.068892
	H298	H	0.044705	0.987300	-0.073684
	H299	H	0.040482	0.993437	-0.065458
	O300	O	1.056403	0.013926	0.930677
	H301	H	1.060623	0.006295	0.929516
	H302	H	1.058984	0.015589	0.928431
	O303	O	0.482736	0.442395	0.502699
	H304	H	0.486691	0.437533	0.508048
	H305	H	0.479794	0.442358	0.505832
	O306	O	0.034437	0.952384	0.943253
	H307	H	0.033898	0.950531	0.932872
	H308	H	0.038112	0.951594	0.944983
	O309	O	0.466466	0.477613	0.512647
	H310	H	0.465681	0.484753	0.510732
	H311	H	0.466877	0.478626	0.523294
