data_Molecule from HDF5

_cell_length_a		16.632086
_cell_length_b		16.426746
_cell_length_c		16.406436
_cell_angle_alpha	90.039418
_cell_angle_beta	89.981162
_cell_angle_gamma	90.059670
_symmetry_space_group_name_H-M	'P 1'
_symmetry_Int_Tables_number		1

loop_
	_symmetry_equiv_pos_as_xyz
	x,y,z

loop_
	_atom_site_label
	_atom_site_type_symbol
	_atom_site_fract_x
	_atom_site_fract_y
	_atom_site_fract_z
	H0	H	0.397375	0.845112	0.704172
	H1	H	0.605454	0.161621	0.708114
	H2	H	0.601461	0.844564	0.267629
	H3	H	0.390864	0.160402	0.260573
	H4	H	0.727760	0.388835	0.830873
	H5	H	0.722551	0.607956	0.142447
	H6	H	0.278041	0.608148	0.830220
	H7	H	0.278241	0.394739	0.144549
	H8	H	0.843010	0.722172	0.381442
	H9	H	0.156001	0.720937	0.588134
	H10	H	0.844802	0.275837	0.595486
	H11	H	0.155879	0.278168	0.379490
	H12	H	0.844484	0.391963	0.712334
	H13	H	0.155697	0.605267	0.706028
	H14	H	0.842906	0.604769	0.264502
	H15	H	0.156182	0.394491	0.262743
	H16	H	0.397276	0.720984	0.827530
	H17	H	0.605224	0.723275	0.143221
	H18	H	0.606296	0.278760	0.828143
	H19	H	0.396763	0.281914	0.145734
	H20	H	0.719907	0.845698	0.381379
	H21	H	0.727294	0.157899	0.599521
	H22	H	0.280078	0.845582	0.588266
	H23	H	0.271900	0.158687	0.372458
	H24	H	0.893723	0.344266	0.208506
	H25	H	0.099375	0.661400	0.203213
	H26	H	0.104056	0.343687	0.766277
	H27	H	0.896569	0.661221	0.767585
	H28	H	0.220501	0.896231	0.327758
	H29	H	0.225758	0.112399	0.641322
	H30	H	0.775952	0.109177	0.330480
	H31	H	0.775557	0.893576	0.643635
	H32	H	0.342697	0.222877	0.883410
	H33	H	0.657045	0.226189	0.092791
	H34	H	0.343953	0.782781	0.089046
	H35	H	0.657025	0.781234	0.879753
	H36	H	0.343522	0.900474	0.204705
	H37	H	0.656948	0.109489	0.209670
	H38	H	0.343263	0.108171	0.764834
	H39	H	0.657241	0.900172	0.764973
	H40	H	0.894205	0.222847	0.328771
	H41	H	0.106981	0.225460	0.643490
	H42	H	0.098222	0.784877	0.326151
	H43	H	0.893663	0.780080	0.644823
	H44	H	0.222293	0.345710	0.880978
	H45	H	0.219871	0.659441	0.091737
	H46	H	0.772906	0.346741	0.097205
	H47	H	0.775352	0.657634	0.876732
	H48	H	0.410813	0.117589	0.573567
	H49	H	0.592968	0.887575	0.578393
	H50	H	0.588905	0.118071	0.394208
	H51	H	0.406025	0.889837	0.396266
	H52	H	0.584706	0.422345	0.093787
	H53	H	0.587131	0.588371	0.872856
	H54	H	0.406311	0.596339	0.103717
	H55	H	0.408619	0.412581	0.871709
	H56	H	0.111581	0.590890	0.394012
	H57	H	0.886654	0.592006	0.573961
	H58	H	0.111631	0.410961	0.576196
	H59	H	0.888488	0.412923	0.397691
	H60	H	0.107851	0.415185	0.570723
	H61	H	0.886305	0.588536	0.579420
	H62	H	0.112993	0.594522	0.394512
	H63	H	0.889925	0.413166	0.399071
	H64	H	0.408404	0.586911	0.099670
	H65	H	0.588731	0.591747	0.871134
	H66	H	0.583574	0.412037	0.097876
	H67	H	0.410088	0.417677	0.875379
	H68	H	0.581214	0.112906	0.402833
	H69	H	0.581876	0.892636	0.576986
	H70	H	0.412711	0.115549	0.571693
	H71	H	0.410612	0.891040	0.395012
	H72	H	0.909809	0.614532	0.072669
	H73	H	0.088632	0.389708	0.069698
	H74	H	0.095535	0.616875	0.898417
	H75	H	0.910417	0.385318	0.889353
	H76	H	0.087216	0.915190	0.597928
	H77	H	0.090829	0.089378	0.372045
	H78	H	0.912504	0.089766	0.599622
	H79	H	0.905470	0.907691	0.370518
	H80	H	0.614474	0.094951	0.892802
	H81	H	0.393184	0.087212	0.069518
	H82	H	0.614656	0.914264	0.081605
	H83	H	0.387674	0.911685	0.895266
	H84	H	0.614480	0.907608	0.074466
	H85	H	0.388812	0.088965	0.080164
	H86	H	0.609860	0.094147	0.903881
	H87	H	0.387577	0.911798	0.894504
	H88	H	0.910567	0.085625	0.598934
	H89	H	0.085725	0.085160	0.376121
	H90	H	0.089926	0.909129	0.600933
	H91	H	0.904668	0.917515	0.373545
	H92	H	0.088437	0.617032	0.892795
	H93	H	0.096528	0.385825	0.074993
	H94	H	0.911756	0.614335	0.074475
	H95	H	0.924441	0.395291	0.902717
	H96	H	0.409354	0.117059	0.570935
	H97	H	0.589919	0.892639	0.567586
	H98	H	0.592862	0.115692	0.406082
	H99	H	0.408977	0.892793	0.399588
	H100	H	0.592861	0.417485	0.098888
	H101	H	0.591006	0.588889	0.872090
	H102	H	0.415088	0.594118	0.099328
	H103	H	0.414083	0.413134	0.875539
	H104	H	0.111453	0.592472	0.397289
	H105	H	0.884464	0.594445	0.579705
	H106	H	0.109662	0.418332	0.577242
	H107	H	0.889715	0.414828	0.398124
	H108	H	0.911857	0.612615	0.072150
	H109	H	0.087244	0.386504	0.079413
	H110	H	0.087443	0.613870	0.901465
	H111	H	0.904593	0.390092	0.910194
	H112	H	0.094047	0.914972	0.600341
	H113	H	0.083861	0.092348	0.374096
	H114	H	0.914942	0.086573	0.597660
	H115	H	0.912846	0.912259	0.374549
	H116	H	0.608906	0.084532	0.896720
	H117	H	0.388512	0.097391	0.072321
	H118	H	0.611503	0.917149	0.072679
	H119	H	0.388033	0.911168	0.894798
	C120	C	0.379028	0.012294	0.604941
	C121	C	0.621547	0.994559	0.608199
	C122	C	0.619406	0.011457	0.367756
	C123	C	0.376096	0.994704	0.362780
	C124	C	0.621438	0.381456	-0.006027
	C125	C	0.621354	0.622725	0.976385
	C126	C	0.378623	0.624020	-0.003938
	C127	C	0.378959	0.381727	0.978631
	C128	C	0.007983	0.623084	0.364021
	C129	C	0.989637	0.623873	0.608392
	C130	C	0.007244	0.380147	0.608643
	C131	C	0.991714	0.379790	0.364459
	C132	C	0.878407	0.509988	0.106748
	C133	C	0.121142	0.492550	0.107100
	C134	C	0.121702	0.511170	0.865423
	C135	C	0.879711	0.493475	0.866240
	C136	C	0.120292	0.881672	0.494422
	C137	C	0.120653	0.123240	0.477563
	C138	C	0.878775	0.122212	0.495724
	C139	C	0.876459	0.879924	0.477833
	C140	C	0.508315	0.124471	0.864814
	C141	C	0.492760	0.124748	0.108264
	C142	C	0.509444	0.881622	0.107142
	C143	C	0.491626	0.880443	0.863324
	C144	C	0.378019	0.892868	0.664725
	C145	C	0.624219	0.113540	0.668988
	C146	C	0.620630	0.892131	0.307588
	C147	C	0.373092	0.112779	0.300937
	C148	C	0.685164	0.373705	0.877125
	C149	C	0.682134	0.626105	0.095085
	C150	C	0.318216	0.626375	0.877249
	C151	C	0.318549	0.377846	0.097322
	C152	C	0.889770	0.682014	0.362724
	C153	C	0.108598	0.682033	0.608133
	C154	C	0.891184	0.317199	0.612849
	C155	C	0.108922	0.318370	0.361399
	C156	C	0.891131	0.374966	0.671352
	C157	C	0.108510	0.624620	0.666592
	C158	C	0.889937	0.623791	0.304560
	C159	C	0.109137	0.376310	0.303239
	C160	C	0.377575	0.682532	0.875977
	C161	C	0.623947	0.683491	0.095561
	C162	C	0.625163	0.318303	0.876066
	C163	C	0.377866	0.321903	0.098052
	C164	C	0.679648	0.892851	0.363938
	C165	C	0.684816	0.111555	0.614638
	C166	C	0.319783	0.892971	0.607333
	C167	C	0.313855	0.112120	0.357026
	C168	C	0.875109	0.391790	0.168503
	C169	C	0.120616	0.612808	0.165620
	C170	C	0.123023	0.391695	0.805731
	C171	C	0.877172	0.612689	0.805956
	C172	C	0.179408	0.879137	0.374780
	C173	C	0.183962	0.128991	0.594811
	C174	C	0.816847	0.126687	0.377334
	C175	C	0.816044	0.876153	0.596558
	C176	C	0.390050	0.183865	0.863882
	C177	C	0.610122	0.185690	0.111217
	C178	C	0.391082	0.822682	0.107510
	C179	C	0.609977	0.821416	0.861691
	C180	C	0.390773	0.880989	0.165290
	C181	C	0.610178	0.127718	0.169331
	C182	C	0.390379	0.126856	0.804918
	C183	C	0.610093	0.880269	0.804309
	C184	C	0.875676	0.183158	0.376723
	C185	C	0.124956	0.185319	0.595881
	C186	C	0.119139	0.823600	0.374043
	C187	C	0.875067	0.819763	0.596978
	C188	C	0.181864	0.392478	0.862472
	C189	C	0.180040	0.612051	0.109913
	C190	C	0.815105	0.393006	0.112908
	C191	C	0.816979	0.611155	0.860456
	C192	C	0.403892	0.095295	0.579532
	C193	C	0.595552	0.912156	0.581933
	C194	C	0.594732	0.093995	0.393652
	C195	C	0.401513	0.912468	0.389334
	C196	C	0.594818	0.409193	0.075598
	C197	C	0.596150	0.597021	0.893608
	C198	C	0.402999	0.599493	0.079281
	C199	C	0.403657	0.407314	0.895846
	C200	C	0.090450	0.599416	0.388313
	C201	C	0.907131	0.599031	0.584504
	C202	C	0.088555	0.407123	0.582251
	C203	C	0.910606	0.406125	0.390693
	C204	C	0.903867	0.592282	0.080494
	C205	C	0.097557	0.409123	0.082066
	C206	C	0.097420	0.594178	0.890275
	C207	C	0.905544	0.411757	0.893099
	C208	C	0.097049	0.906185	0.577925
	C209	C	0.094350	0.096607	0.395521
	C210	C	0.905031	0.095040	0.577320
	C211	C	0.900676	0.905263	0.394568
	C212	C	0.589845	0.098677	0.890222
	C213	C	0.411348	0.098467	0.081802
	C214	C	0.592112	0.905961	0.083245
	C215	C	0.409318	0.904710	0.887753
	Zn216	Zn	0.499501	0.003898	0.734957
	Zn217	Zn	0.500550	0.003475	0.237038
	Zn218	Zn	0.750222	0.501964	-0.014859
	Zn219	Zn	0.250285	0.502309	-0.012992
	Zn220	Zn	-0.001342	0.752746	0.486353
	Zn221	Zn	-0.000333	0.251130	0.486791
	Zn222	Zn	-0.000631	0.502069	0.737523
	Zn223	Zn	0.000252	0.500955	0.234765
	Zn224	Zn	0.500887	0.751377	-0.014559
	Zn225	Zn	0.500197	0.253558	-0.013429
	Zn226	Zn	0.749430	0.002439	0.487422
	Zn227	Zn	0.249003	0.002988	0.484910
	N228	N	0.414055	0.968211	0.663603
	N229	N	0.585509	0.039674	0.665167
	N230	N	0.583698	0.966719	0.309994
	N231	N	0.411281	0.038603	0.304306
	N232	N	0.683106	0.412034	0.951503
	N233	N	0.680722	0.589276	0.019947
	N234	N	0.318644	0.590828	0.952933
	N235	N	0.319115	0.414477	0.021870
	N236	N	0.964059	0.681767	0.398988
	N237	N	0.033445	0.681979	0.573160
	N238	N	0.964655	0.320150	0.574862
	N239	N	0.034900	0.320307	0.398724
	N240	N	0.964472	0.413375	0.668869
	N241	N	0.033541	0.589387	0.667211
	N242	N	0.964422	0.587881	0.305278
	N243	N	0.035282	0.413673	0.304790
	N244	N	0.414247	0.681480	0.950868
	N245	N	0.587178	0.681793	0.020620
	N246	N	0.586092	0.323028	0.949728
	N247	N	0.414938	0.324165	0.023475
	N248	N	0.679088	0.968095	0.400756
	N249	N	0.683228	0.036562	0.577637
	N250	N	0.320006	0.968422	0.571225
	N251	N	0.315647	0.037699	0.394836
	N252	N	0.913873	0.465415	0.164772
	N253	N	0.084917	0.537291	0.164190
	N254	N	0.086385	0.466488	0.807282
	N255	N	0.915295	0.538610	0.809073
	N256	N	0.180373	0.914581	0.450758
	N257	N	0.181745	0.091664	0.519960
	N258	N	0.818438	0.089670	0.452456
	N259	N	0.816973	0.913120	0.521428
	N260	N	0.464454	0.182626	0.900179
	N261	N	0.536092	0.184064	0.074149
	N262	N	0.466120	0.822575	0.072470
	N263	N	0.535218	0.821258	0.897180
	N264	N	0.465372	0.916844	0.165305
	N265	N	0.535765	0.091027	0.167927
	N266	N	0.464924	0.090898	0.805072
	N267	N	0.535420	0.916180	0.804673
	N268	N	0.913470	0.180681	0.451107
	N269	N	0.086290	0.181736	0.522035
	N270	N	0.083022	0.825104	0.449231
	N271	N	0.911761	0.821915	0.522026
	N272	N	0.181344	0.467822	0.898722
	N273	N	0.180790	0.536176	0.074780
	N274	N	0.816897	0.467678	0.075322
	N275	N	0.818237	0.535957	0.897236
	O276	O	0.511282	0.441122	0.421447
	H277	H	0.515750	0.426445	0.407260
	H278	H	0.515575	0.435828	0.435874
	O279	O	0.356914	0.452443	0.439526
	H280	H	0.361604	0.450577	0.452064
	H281	H	0.376747	0.441679	0.443658
	O282	O	1.057815	1.058393	-0.235510
	H283	H	1.048344	1.074390	-0.232525
	H284	H	1.059847	1.068742	-0.231661
	O285	O	0.790376	0.021803	0.785746
	H286	H	0.806197	0.006937	0.790404
	H287	H	0.775461	0.017869	0.762569
	O288	O	-0.180572	0.185619	-0.199976
	H289	H	-0.197901	0.146551	-0.212046
	H290	H	-0.193429	0.196881	-0.147329
	O291	O	1.231925	0.738503	0.215721
	H292	H	1.219049	0.731817	0.188641
	H293	H	1.220191	0.733348	0.226120
	O294	O	0.714690	0.284147	-0.534274
	H295	H	0.706633	0.283598	-0.525060
	H296	H	0.730664	0.269990	-0.536180
	O297	O	0.471092	0.285720	0.702309
	H298	H	0.474387	0.255148	0.730121
	H299	H	0.456335	0.293136	0.685616
	O300	O	0.533526	0.717514	0.440118
	H301	H	0.538853	0.729563	0.443629
	H302	H	0.518949	0.714376	0.410933
	O303	O	0.206668	0.153804	1.071783
	H304	H	0.213792	0.150953	1.055970
	H305	H	0.196106	0.159268	1.065789
	O306	O	-0.094771	0.858929	0.919520
	H307	H	-0.093778	0.851624	0.904899
	H308	H	-0.095104	0.844891	0.913955
	O309	O	0.961164	1.107125	0.999724
	H310	H	0.974542	1.097317	0.989897
	H311	H	0.965978	1.102783	1.010045
	O312	O	0.714601	0.523994	0.699833
	H313	H	0.706567	0.503263	0.705597
	H314	H	0.731368	0.512257	0.705566
	O315	O	0.021438	0.220671	1.202635
	H316	H	0.058826	0.219003	1.199872
	H317	H	0.041094	0.240485	1.227690
	O318	O	-0.507625	0.349910	0.430259
	H319	H	-0.522734	0.349703	0.454729
	H320	H	-0.506174	0.362867	0.415404
	O321	O	0.281996	0.286479	0.507637
	H322	H	0.280127	0.256883	0.499074
	H323	H	0.280186	0.277583	0.530086
	O324	O	1.103134	-0.194196	0.858612
	H325	H	1.113055	-0.194676	0.849212
	H326	H	1.105821	-0.186121	0.851940
	O327	O	1.531506	0.718280	0.707450
	H328	H	1.552970	0.742014	0.732755
	H329	H	1.565942	0.721541	0.702747
	O330	O	1.104153	0.129273	-0.054029
	H331	H	1.106440	0.124396	-0.068504
	H332	H	1.088877	0.123101	-0.049252
	O333	O	0.934116	1.055601	1.158138
	H334	H	0.935225	1.058907	1.162307
	H335	H	0.940819	1.077445	1.158747
	O336	O	1.215000	-0.206123	0.960520
	H337	H	1.207016	-0.206192	0.936741
	H338	H	1.236050	-0.222915	0.949685
	O339	O	0.555581	0.439055	0.694513
	H340	H	0.540628	0.449662	0.699777
	H341	H	0.552980	0.414788	0.690431
	O342	O	0.639590	0.616854	0.296209
	H343	H	0.636081	0.634717	0.300751
	H344	H	0.619539	0.599229	0.306318
	O345	O	0.136321	0.199680	-0.145740
	H346	H	0.118400	0.192000	-0.153172
	H347	H	0.124269	0.185478	-0.140555
	O348	O	0.920834	-0.068118	0.845916
	H349	H	0.940743	-0.058108	0.847060
	H350	H	0.918071	-0.080834	0.831326
	O351	O	0.806279	0.999826	0.165211
	H352	H	0.805620	1.002546	0.168422
	H353	H	0.808579	0.990709	0.166644
	O354	O	0.620254	0.366643	0.545100
	H355	H	0.600043	0.371902	0.525838
	H356	H	0.638543	0.360471	0.521645
	O357	O	0.790586	1.212144	0.963087
	H358	H	0.791214	1.225993	0.979492
	H359	H	0.793601	1.224984	0.981973
	O360	O	0.191756	0.084225	0.180801
	H361	H	0.195669	0.069920	0.185504
	H362	H	0.196366	0.087161	0.175684
	O363	O	-0.031883	1.140901	0.097037
	H364	H	-0.017874	1.133157	0.105059
	H365	H	-0.020838	1.144573	0.106954
	O366	O	1.033014	-0.219030	0.765400
	H367	H	1.046332	-0.229007	0.748898
	H368	H	1.044466	-0.232160	0.755835
	O369	O	0.501459	0.381075	0.489404
	H370	H	0.509428	0.375825	0.490070
	H371	H	0.503787	0.397745	0.495959
	O372	O	0.281415	0.563079	0.592021
	H373	H	0.279146	0.557087	0.572409
	H374	H	0.270237	0.564437	0.598603
	O375	O	1.255865	0.747046	-0.273184
	H376	H	1.275719	0.716599	-0.297711
	H377	H	1.250481	0.751461	-0.286512
	O378	O	0.670071	0.326163	0.307846
	H379	H	0.668265	0.344835	0.322896
	H380	H	0.677110	0.342715	0.323651
	O381	O	0.991646	0.056495	0.051454
	H382	H	0.994925	0.056319	0.063611
	H383	H	0.981730	0.048285	0.042482
	O384	O	0.012028	-0.200006	1.124443
	H385	H	0.013997	-0.194754	1.122173
	H386	H	-0.001383	-0.204583	1.100608
	O387	O	-0.712068	0.510099	1.600455
	H388	H	-0.696235	0.515427	1.607058
	H389	H	-0.711232	0.507388	1.587392
	O390	O	0.166959	0.073958	1.125051
	H391	H	0.167978	0.070774	1.110922
	H392	H	0.169343	0.059958	1.091008
	O393	O	0.850104	0.814271	-0.016537
	H394	H	0.834501	0.813996	-0.027942
	H395	H	0.843563	0.817660	-0.001402
	O396	O	0.467199	0.718543	0.268020
	H397	H	0.425958	0.709437	0.283367
	H398	H	0.454252	0.750960	0.235157
	O399	O	0.399074	0.425386	0.471341
	H400	H	0.386121	0.447952	0.475442
	H401	H	0.395348	0.411941	0.453264
	O402	O	-0.712482	0.518965	1.321071
	H403	H	-0.722873	0.511098	1.315528
	H404	H	-0.707274	0.489281	1.335033
	O405	O	0.030890	0.070805	0.004939
	H406	H	0.032833	0.062459	0.006639
	H407	H	0.042728	0.073051	0.011822
	O408	O	0.716796	0.556284	0.431795
	H409	H	0.723070	0.547636	0.425881
	H410	H	0.699984	0.559017	0.419705
	O411	O	0.632573	0.440960	0.513656
	H412	H	0.613526	0.453569	0.523078
	H413	H	0.648983	0.441912	0.512749
	O414	O	0.504589	0.596178	0.408914
	H415	H	0.486095	0.608667	0.409142
	H416	H	0.496752	0.592482	0.417195
	O417	O	0.343129	0.712891	0.497766
	H418	H	0.356149	0.706749	0.489433
	H419	H	0.342492	0.728720	0.512427
	O420	O	0.523324	0.277924	0.271658
	H421	H	0.534690	0.255633	0.246319
	H422	H	0.555933	0.282045	0.271030
	O423	O	-0.126648	0.800930	0.194294
	H424	H	-0.105723	0.797560	0.168138
	H425	H	-0.123684	0.813557	0.194344
	O426	O	0.330339	1.601716	1.276443
	H427	H	0.312014	1.606587	1.271168
	H428	H	0.314023	1.583582	1.262978
	O429	O	0.029469	-1.123743	1.024068
	H430	H	0.019838	-1.112638	1.017980
	H431	H	0.012861	-1.127968	1.011564
	O432	O	0.704536	0.708324	0.514278
	H433	H	0.702627	0.689866	0.487387
	H434	H	0.721854	0.725193	0.504892
	O435	O	-0.202361	0.014588	-0.021520
	H436	H	-0.191131	0.017900	-0.018020
	H437	H	-0.208817	0.027655	-0.035729
	O438	O	1.208857	0.012900	0.031489
	H439	H	1.211236	-0.000047	0.020752
	H440	H	1.193371	0.020450	0.033955
	O441	O	0.365916	0.699778	0.622250
	H442	H	0.379884	0.690693	0.625145
	H443	H	0.391237	0.699963	0.593327
	O444	O	0.120319	0.960574	0.774992
	H445	H	0.129530	0.960837	0.767444
	H446	H	0.111633	0.984706	0.776457
	O447	O	0.950536	0.911547	1.079156
	H448	H	0.929710	0.886235	1.073736
	H449	H	0.940766	0.929849	1.098826
	O450	O	0.692287	0.500170	0.291572
	H451	H	0.693056	0.503578	0.297850
	H452	H	0.672921	0.509121	0.275203
	O453	O	0.718320	0.728798	0.235912
	H454	H	0.719908	0.737175	0.235502
	H455	H	0.714761	0.718633	0.233407
	O456	O	0.444372	0.555976	0.701333
	H457	H	0.460709	0.560812	0.705611
	H458	H	0.435925	0.576401	0.703305
	O459	O	0.689595	0.688074	0.676456
	H460	H	0.701013	0.634399	0.686448
	H461	H	0.697491	0.697113	0.621990
	O462	O	0.310610	1.314857	1.672496
	H463	H	0.292621	1.301005	1.658884
	H464	H	0.329848	1.339901	1.681816
	O465	O	0.978443	0.212854	-0.226494
	H466	H	0.957549	0.232579	-0.241564
	H467	H	0.946093	0.213338	-0.232516
