data_Molecule from HDF5

_cell_length_a		16.562623
_cell_length_b		16.597812
_cell_length_c		16.439482
_cell_angle_alpha	89.876201
_cell_angle_beta	90.093831
_cell_angle_gamma	89.999955
_symmetry_space_group_name_H-M	'P 1'
_symmetry_Int_Tables_number		1

loop_
	_symmetry_equiv_pos_as_xyz
	x,y,z

loop_
	_atom_site_label
	_atom_site_type_symbol
	_atom_site_fract_x
	_atom_site_fract_y
	_atom_site_fract_z
	H0	H	0.404769	0.851068	0.733177
	H1	H	0.614669	0.162686	0.734296
	H2	H	0.613342	0.851727	0.290252
	H3	H	0.403748	0.164786	0.291134
	H4	H	0.728531	0.403678	0.854511
	H5	H	0.730391	0.612329	0.169298
	H6	H	0.285749	0.613648	0.855210
	H7	H	0.288409	0.402395	0.170561
	H8	H	0.853364	0.730275	0.403990
	H9	H	0.165378	0.727327	0.615755
	H10	H	0.852123	0.285832	0.616398
	H11	H	0.164290	0.285351	0.406273
	H12	H	0.850718	0.403069	0.730955
	H13	H	0.166310	0.609208	0.731096
	H14	H	0.851929	0.610876	0.290903
	H15	H	0.166160	0.405175	0.293296
	H16	H	0.403156	0.728436	0.855509
	H17	H	0.612267	0.726921	0.169996
	H18	H	0.614330	0.285897	0.855122
	H19	H	0.404027	0.286238	0.169709
	H20	H	0.731673	0.852143	0.405686
	H21	H	0.733799	0.161108	0.620788
	H22	H	0.286298	0.851269	0.617795
	H23	H	0.284904	0.162988	0.405766
	H24	H	0.904928	0.349120	0.231943
	H25	H	0.108273	0.664974	0.228122
	H26	H	0.110017	0.348306	0.793524
	H27	H	0.908211	0.664703	0.793386
	H28	H	0.227434	0.905000	0.353053
	H29	H	0.228062	0.110224	0.670632
	H30	H	0.787111	0.111047	0.353995
	H31	H	0.790016	0.902501	0.669957
	H32	H	0.352271	0.230726	0.903341
	H33	H	0.665478	0.227586	0.116382
	H34	H	0.351009	0.787744	0.116075
	H35	H	0.665095	0.786681	0.908324
	H36	H	0.349818	0.906444	0.230025
	H37	H	0.665914	0.110074	0.231753
	H38	H	0.350564	0.111212	0.790154
	H39	H	0.665925	0.905627	0.793892
	H40	H	0.905500	0.225427	0.352794
	H41	H	0.111723	0.226432	0.670465
	H42	H	0.110280	0.788862	0.352512
	H43	H	0.906245	0.786059	0.668797
	H44	H	0.229069	0.349251	0.907448
	H45	H	0.227795	0.663517	0.114315
	H46	H	0.786349	0.350358	0.116851
	H47	H	0.789509	0.665041	0.908840
	H48	H	0.423311	0.118959	0.604490
	H49	H	0.598716	0.895992	0.599939
	H50	H	0.600487	0.119385	0.426398
	H51	H	0.419028	0.897638	0.427382
	H52	H	0.595733	0.419977	0.123789
	H53	H	0.596562	0.595619	0.899748
	H54	H	0.418603	0.595881	0.125467
	H55	H	0.414754	0.421646	0.898125
	H56	H	0.121152	0.598038	0.422487
	H57	H	0.894719	0.595950	0.605320
	H58	H	0.120341	0.414352	0.598010
	H59	H	0.894808	0.413057	0.422199
	H60	H	0.120029	0.419887	0.601430
	H61	H	0.895568	0.601598	0.599042
	H62	H	0.121252	0.597186	0.421978
	H63	H	0.896799	0.417923	0.425286
	H64	H	0.419463	0.596595	0.126227
	H65	H	0.596346	0.598559	0.899175
	H66	H	0.595565	0.415935	0.125422
	H67	H	0.424536	0.422073	0.901505
	H68	H	0.597518	0.119746	0.420619
	H69	H	0.599539	0.893740	0.602309
	H70	H	0.420337	0.116897	0.594442
	H71	H	0.412247	0.893521	0.421338
	H72	H	0.916024	0.620840	0.104115
	H73	H	0.094170	0.395369	0.101041
	H74	H	0.093490	0.617879	0.917217
	H75	H	0.920350	0.397765	0.928800
	H76	H	0.103185	0.912524	0.627678
	H77	H	0.096992	0.096445	0.399146
	H78	H	0.924376	0.095185	0.623135
	H79	H	0.922294	0.911178	0.396072
	H80	H	0.618989	0.093400	0.923368
	H81	H	0.397044	0.095497	0.099650
	H82	H	0.623548	0.916727	0.109764
	H83	H	0.399776	0.923704	0.927853
	H84	H	0.621851	0.909127	0.097380
	H85	H	0.395388	0.097475	0.102294
	H86	H	0.621045	0.098307	0.921811
	H87	H	0.393627	0.918013	0.914722
	H88	H	0.920498	0.099142	0.625805
	H89	H	0.097750	0.097213	0.398558
	H90	H	0.099669	0.922934	0.623163
	H91	H	0.911758	0.921642	0.396642
	H92	H	0.097545	0.615964	0.927894
	H93	H	0.102592	0.393973	0.097586
	H94	H	0.922793	0.617937	0.101635
	H95	H	0.910073	0.392612	0.922711
	H96	H	0.413121	0.121223	0.601111
	H97	H	0.596891	0.895483	0.602308
	H98	H	0.594707	0.117036	0.425348
	H99	H	0.421661	0.894455	0.418126
	H100	H	0.599397	0.417925	0.125902
	H101	H	0.598824	0.596911	0.898547
	H102	H	0.418124	0.596476	0.126159
	H103	H	0.420868	0.413030	0.898046
	H104	H	0.122083	0.597390	0.421554
	H105	H	0.898223	0.593514	0.597913
	H106	H	0.122420	0.414589	0.603842
	H107	H	0.895312	0.418155	0.419358
	H108	H	0.916387	0.617615	0.096909
	H109	H	0.100578	0.391935	0.106280
	H110	H	0.104114	0.620964	0.920133
	H111	H	0.921381	0.393427	0.916496
	H112	H	0.091680	0.914200	0.624329
	H113	H	0.097906	0.096232	0.398355
	H114	H	0.918743	0.093223	0.624286
	H115	H	0.925713	0.924350	0.402118
	H116	H	0.618634	0.097910	0.926870
	H117	H	0.395869	0.098939	0.098784
	H118	H	0.617954	0.922989	0.098140
	H119	H	0.394781	0.909107	0.927674
	C120	C	0.387346	0.015724	0.632662
	C121	C	0.630832	0.998070	0.634152
	C122	C	0.630186	0.016005	0.391035
	C123	C	0.385863	0.998749	0.389990
	C124	C	0.629060	0.386515	0.020646
	C125	C	0.629363	0.628673	1.003742
	C126	C	0.386518	0.628156	0.021656
	C127	C	0.387752	0.386400	1.003560
	C128	C	0.017451	0.628600	0.389857
	C129	C	1.000154	0.627949	0.632265
	C130	C	0.017122	0.384751	0.633054
	C131	C	0.999748	0.385485	0.390382
	C132	C	0.886625	0.515172	0.133222
	C133	C	0.129555	0.498024	0.132616
	C134	C	0.130417	0.514714	0.889891
	C135	C	0.886494	0.498679	0.890845
	C136	C	0.129390	0.886242	0.519878
	C137	C	0.129311	0.128084	0.503555
	C138	C	0.888066	0.127724	0.520101
	C139	C	0.888111	0.886173	0.502751
	C140	C	0.516420	0.129101	0.890179
	C141	C	0.500178	0.128468	0.132487
	C142	C	0.517113	0.885557	0.133636
	C143	C	0.499741	0.885516	0.891276
	C144	C	0.385486	0.897932	0.693336
	C145	C	0.633272	0.115408	0.694609
	C146	C	0.632190	0.898587	0.330265
	C147	C	0.384773	0.117196	0.330679
	C148	C	0.688987	0.384663	0.901928
	C149	C	0.689793	0.630792	0.122243
	C150	C	0.326049	0.631327	0.902724
	C151	C	0.328286	0.383994	0.122834
	C152	C	0.900116	0.689484	0.386346
	C153	C	0.118619	0.687020	0.634123
	C154	C	0.898987	0.325505	0.635002
	C155	C	0.117722	0.325878	0.388163
	C156	C	0.898522	0.384115	0.691805
	C157	C	0.118894	0.628490	0.691543
	C158	C	0.899140	0.629925	0.330288
	C159	C	0.118528	0.385242	0.331932
	C160	C	0.384231	0.688418	0.902722
	C161	C	0.631333	0.687706	0.122634
	C162	C	0.631967	0.326377	0.902084
	C163	C	0.385806	0.326185	0.122543
	C164	C	0.690992	0.898789	0.387569
	C165	C	0.692497	0.114769	0.638056
	C166	C	0.326700	0.898138	0.636116
	C167	C	0.325659	0.116339	0.387454
	C168	C	0.885519	0.396547	0.192680
	C169	C	0.128619	0.617334	0.189647
	C170	C	0.129881	0.395899	0.832357
	C171	C	0.887509	0.617473	0.832402
	C172	C	0.187655	0.886106	0.400443
	C173	C	0.188576	0.129265	0.622998
	C174	C	0.827534	0.129699	0.401216
	C175	C	0.829576	0.884020	0.622162
	C176	C	0.398657	0.189528	0.886529
	C177	C	0.618565	0.187503	0.134432
	C178	C	0.398206	0.827498	0.134563
	C179	C	0.618149	0.826678	0.890097
	C180	C	0.397752	0.886332	0.191363
	C181	C	0.618676	0.129225	0.192000
	C182	C	0.398102	0.130372	0.829945
	C183	C	0.618436	0.885710	0.833151
	C184	C	0.886238	0.186439	0.400497
	C185	C	0.130939	0.187145	0.622966
	C186	C	0.129652	0.828454	0.400004
	C187	C	0.887053	0.826126	0.621673
	C188	C	0.189229	0.396500	0.889077
	C189	C	0.187823	0.616696	0.133201
	C190	C	0.826616	0.397262	0.135521
	C191	C	0.828820	0.617602	0.889870
	C192	C	0.412017	0.097808	0.607281
	C193	C	0.605572	0.916241	0.608746
	C194	C	0.604763	0.097523	0.416891
	C195	C	0.410695	0.916530	0.415092
	C196	C	0.604241	0.411082	0.103394
	C197	C	0.604404	0.604062	0.920729
	C198	C	0.411558	0.603493	0.104424
	C199	C	0.412682	0.411744	0.920911
	C200	C	0.099862	0.604231	0.414771
	C201	C	0.917736	0.603997	0.607695
	C202	C	0.099596	0.409147	0.608260
	C203	C	0.917144	0.409554	0.415166
	C204	C	0.911432	0.597319	0.108196
	C205	C	0.105927	0.415210	0.108696
	C206	C	0.105520	0.597073	0.914540
	C207	C	0.910370	0.416224	0.915471
	C208	C	0.105069	0.909896	0.603363
	C209	C	0.104412	0.103697	0.420319
	C210	C	0.913646	0.102874	0.602866
	C211	C	0.912745	0.911766	0.419743
	C212	C	0.598131	0.103730	0.916273
	C213	C	0.417661	0.104163	0.107410
	C214	C	0.599796	0.909411	0.108912
	C215	C	0.417275	0.909956	0.916196
	Zn216	Zn	0.508224	0.007435	0.762124
	Zn217	Zn	0.508279	0.007705	0.262102
	Zn218	Zn	0.757076	0.507622	0.011845
	Zn219	Zn	0.259106	0.506347	0.011911
	Zn220	Zn	0.008770	0.757559	0.511186
	Zn221	Zn	0.008436	0.256767	0.511726
	Zn222	Zn	0.008448	0.506453	0.761350
	Zn223	Zn	0.008636	0.506732	0.262160
	Zn224	Zn	0.507841	0.756621	0.012580
	Zn225	Zn	0.508280	0.257885	0.011757
	Zn226	Zn	0.759694	0.006986	0.512370
	Zn227	Zn	0.257578	0.007650	0.512181
	N228	N	0.422604	0.971882	0.691144
	N229	N	0.595602	0.041711	0.692390
	N230	N	0.595095	0.972482	0.332281
	N231	N	0.421391	0.042886	0.331969
	N232	N	0.687174	0.421516	0.976516
	N233	N	0.688651	0.594858	0.047189
	N234	N	0.327459	0.594415	0.977544
	N235	N	0.329135	0.420380	0.047690
	N236	N	0.974637	0.688812	0.422765
	N237	N	0.043881	0.686871	0.597946
	N238	N	0.973845	0.325642	0.599257
	N239	N	0.042825	0.325875	0.423701
	N240	N	0.973100	0.420106	0.690853
	N241	N	0.044241	0.592617	0.690750
	N242	N	0.973335	0.593179	0.331983
	N243	N	0.044082	0.421488	0.333084
	N244	N	0.421295	0.686593	0.977493
	N245	N	0.594558	0.686563	0.047824
	N246	N	0.595492	0.327277	0.977032
	N247	N	0.421708	0.327200	0.047260
	N248	N	0.689931	0.972808	0.424630
	N249	N	0.691160	0.040659	0.601303
	N250	N	0.327653	0.972407	0.599194
	N251	N	0.326062	0.041630	0.423417
	N252	N	0.921853	0.471050	0.191679
	N253	N	0.093192	0.542507	0.189591
	N254	N	0.094205	0.470503	0.832718
	N255	N	0.922473	0.542531	0.832692
	N256	N	0.187488	0.921074	0.475937
	N257	N	0.187695	0.093612	0.547687
	N258	N	0.828746	0.093932	0.476625
	N259	N	0.829930	0.920210	0.547126
	N260	N	0.473238	0.189096	0.923193
	N261	N	0.543679	0.187171	0.098226
	N262	N	0.473512	0.826798	0.099630
	N263	N	0.543211	0.826539	0.925610
	N264	N	0.472802	0.921666	0.191148
	N265	N	0.544002	0.093442	0.191018
	N266	N	0.472328	0.093561	0.832125
	N267	N	0.543789	0.921652	0.833851
	N268	N	0.923220	0.185458	0.475388
	N269	N	0.094705	0.186528	0.547586
	N270	N	0.094393	0.828170	0.475522
	N271	N	0.922644	0.827255	0.546098
	N272	N	0.189876	0.471689	0.923988
	N273	N	0.188540	0.541498	0.098575
	N274	N	0.826904	0.471949	0.099603
	N275	N	0.827801	0.542496	0.925087
	O276	O	0.906588	0.934122	0.199889
	H277	H	0.890566	0.913990	0.202464
	H278	H	0.893684	0.932326	0.187274
	O279	O	-0.196563	-0.052868	1.047372
	H280	H	-0.204847	-0.052250	1.047568
	H281	H	-0.203116	-0.057666	1.053919
	O282	O	0.414632	0.403121	0.343291
	H283	H	0.422073	0.391704	0.360220
	H284	H	0.426628	0.404712	0.340618
	O285	O	0.478010	0.286289	0.726230
	H286	H	0.478341	0.287770	0.737874
	H287	H	0.461163	0.273606	0.736012
	O288	O	1.077841	0.169154	1.002678
	H289	H	1.095010	0.164640	1.021051
	H290	H	1.086622	0.180283	1.000705
	O291	O	0.594585	0.513359	0.443231
	H292	H	0.587672	0.520302	0.445362
	H293	H	0.601497	0.496018	0.446297
	O294	O	0.035389	0.927139	-1.193954
	H295	H	0.046854	0.911092	-1.194328
	H296	H	0.061480	0.939218	-1.202145
	O297	O	0.472182	-0.348569	-0.518263
	H298	H	0.471724	-0.357097	-0.523057
	H299	H	0.466205	-0.330048	-0.524824
	O300	O	-0.033892	0.221406	-0.080077
	H301	H	-0.047837	0.230801	-0.089596
	H302	H	-0.018645	0.214520	-0.078618
	O303	O	-0.171806	-0.175025	-0.174959
	H304	H	-0.146098	-0.154553	-0.169778
	H305	H	-0.157891	-0.159697	-0.150953
	O306	O	0.873279	0.076816	-0.016783
	H307	H	0.851669	0.076554	-0.006657
	H308	H	0.878279	0.070716	-0.033971
	O309	O	0.553774	0.683902	0.726179
	H310	H	0.565352	0.698551	0.737672
	H311	H	0.579951	0.691195	0.721891
	O312	O	-0.004659	-0.120639	0.173597
	H313	H	-0.014342	-0.118242	0.156258
	H314	H	-0.005552	-0.145800	0.185440
	O315	O	0.248585	0.249077	0.254102
	H316	H	0.267548	0.232976	0.256724
	H317	H	0.225093	0.251994	0.269051
	O318	O	0.606864	0.471357	0.628913
	H319	H	0.613370	0.466327	0.622106
	H320	H	0.614399	0.478294	0.639529
	O321	O	0.182365	0.814875	0.826582
	H322	H	0.206924	0.805908	0.800221
	H323	H	0.199371	0.837498	0.830279
	O324	O	1.321607	0.309640	0.693195
	H325	H	1.329029	0.331528	0.685690
	H326	H	1.320432	0.327965	0.699860
	O327	O	1.180784	-0.165578	0.196900
	H328	H	1.156901	-0.150813	0.187235
	H329	H	1.170316	-0.145976	0.175671
	O330	O	0.405548	0.607251	0.568674
	H331	H	0.407517	0.603849	0.567081
	H332	H	0.408525	0.612949	0.547929
	O333	O	0.331268	0.480718	0.471208
	H334	H	0.321186	0.476268	0.474729
	H335	H	0.335988	0.477310	0.489035
	O336	O	0.577441	0.481178	0.636118
	H337	H	0.584120	0.486985	0.632310
	H338	H	0.587285	0.485296	0.633058
	O339	O	0.721607	0.722397	0.541475
	H340	H	0.720225	0.725924	0.534056
	H341	H	0.721464	0.736455	0.535864
	O342	O	0.192597	1.022584	0.043714
	H343	H	0.187633	1.031353	0.061052
	H344	H	0.194161	1.011715	0.057045
	O345	O	0.681404	0.528231	0.577111
	H346	H	0.695269	0.519656	0.583668
	H347	H	0.676818	0.530495	0.584159
	O348	O	0.104897	0.788218	0.894059
	H349	H	0.136889	0.773053	0.880621
	H350	H	0.113103	0.787478	0.875062
	O351	O	-0.117175	0.206641	0.817265
	H352	H	-0.127762	0.225145	0.807012
	H353	H	-0.097955	0.205033	0.819467
	O354	O	1.286283	-0.269103	1.288505
	H355	H	1.258355	-0.259735	1.265111
	H356	H	1.273507	-0.298094	1.281285
	O357	O	0.317480	0.534596	0.303072
	H358	H	0.323718	0.523740	0.304719
	H359	H	0.328793	0.514713	0.297831
	O360	O	0.291963	0.725413	0.478815
	H361	H	0.278657	0.737222	0.466344
	H362	H	0.287306	0.733880	0.451946
	O363	O	0.605763	0.523364	0.378331
	H364	H	0.608505	0.518962	0.390857
	H365	H	0.603088	0.509291	0.381730
	O366	O	0.816679	0.204506	0.911073
	H367	H	0.815023	0.204200	0.912573
	H368	H	0.823770	0.203798	0.903130
	O369	O	0.024569	-0.055997	1.182588
	H370	H	0.010033	-0.072572	1.191636
	H371	H	0.007063	-0.043625	1.165478
	O372	O	0.168299	1.264157	0.848678
	H373	H	0.163752	1.268330	0.874053
	H374	H	0.188488	1.274273	0.844481
	O375	O	0.961541	-0.104949	-0.088437
	H376	H	0.981529	-0.102690	-0.101817
	H377	H	0.961663	-0.107856	-0.084157
	O378	O	0.570074	0.534470	0.392748
	H379	H	0.571871	0.540527	0.398120
	H380	H	0.560526	0.543852	0.388361
	O381	O	0.219954	1.037533	0.220701
	H382	H	0.240020	1.048179	0.245142
	H383	H	0.191142	1.029356	0.229309
	O384	O	0.569692	0.275258	0.570767
	H385	H	0.556409	0.270426	0.566992
	H386	H	0.549615	0.279265	0.571625
	O387	O	0.040921	1.083133	1.107866
	H388	H	0.027924	1.073800	1.091197
	H389	H	0.039381	1.098296	1.110684
	O390	O	-0.121522	0.945234	1.030241
	H391	H	-0.112112	0.952095	1.006303
	H392	H	-0.120459	0.938203	1.022940
	O393	O	1.217353	0.218476	0.111304
	H394	H	1.246598	0.253537	0.127501
	H395	H	1.187457	0.216574	0.138669
	O396	O	0.896116	0.208581	0.121661
	H397	H	0.881997	0.225146	0.122211
	H398	H	0.915456	0.190962	0.107083
	O399	O	0.461024	0.289847	0.451114
	H400	H	0.465441	0.292870	0.442013
	H401	H	0.453110	0.293315	0.437631
	O402	O	0.833423	-0.197706	1.220323
	H403	H	0.833676	-0.198911	1.204940
	H404	H	0.811168	-0.228560	1.246994
	O405	O	0.542323	0.289499	0.292058
	H406	H	0.553037	0.268956	0.272533
	H407	H	0.576970	0.290011	0.292798
	O408	O	0.833577	1.028930	0.810366
	H409	H	0.831683	1.051968	0.809217
	H410	H	0.832562	1.026610	0.791492
	O411	O	0.962379	1.135593	0.211717
	H412	H	0.951119	1.146829	0.217159
	H413	H	0.953556	1.112122	0.217164
	O414	O	-0.069177	-0.175980	0.092972
	H415	H	-0.066686	-0.178164	0.100708
	H416	H	-0.087195	-0.169527	0.084321
	O417	O	0.298265	0.295162	0.529077
	H418	H	0.311746	0.310424	0.548942
	H419	H	0.282995	0.269405	0.542420
	O420	O	0.715599	-0.280696	0.723149
	H421	H	0.717740	-0.284916	0.687776
	H422	H	0.749804	-0.248788	0.748790
	O423	O	1.221566	1.027611	-0.032926
	H424	H	1.228924	1.043847	-0.014192
	H425	H	1.225228	1.019672	-0.007997
	O426	O	0.563449	0.731686	0.452802
	H427	H	0.543678	0.731900	0.457677
	H428	H	0.549113	0.731470	0.426868
	O429	O	0.395285	0.554488	0.452199
	H430	H	0.385390	0.550381	0.444934
	H431	H	0.396793	0.556360	0.456637
	O432	O	0.831468	0.104035	1.150334
	H433	H	0.830285	0.094698	1.155645
	H434	H	0.821793	0.090162	1.151446
	O435	O	0.213099	0.857526	0.931305
	H436	H	0.220388	0.867321	0.916456
	H437	H	0.213146	0.857588	0.937570
	O438	O	0.392481	0.557870	0.645620
	H439	H	0.400052	0.553451	0.639284
	H440	H	0.403808	0.567225	0.643599
	O441	O	0.717187	0.482432	0.297205
	H442	H	0.711141	0.475043	0.296656
	H443	H	0.735507	0.484374	0.293247
	O444	O	0.476712	0.617581	0.322068
	H445	H	0.462820	0.613242	0.309730
	H446	H	0.459296	0.612259	0.315643
	O447	O	0.709982	0.304177	0.712243
	H448	H	0.711933	0.306718	0.716461
	H449	H	0.691538	0.296963	0.691583
	O450	O	0.396423	0.655984	-0.438903
	H451	H	0.388662	0.663194	-0.438993
	H452	H	0.398373	0.649075	-0.425036
	O453	O	0.309571	0.708361	0.711145
	H454	H	0.332187	0.689454	0.694204
	H455	H	0.326582	0.692262	0.702773
	O456	O	0.027639	1.060345	0.857702
	H457	H	0.033776	1.053960	0.855476
	H458	H	0.046800	1.072909	0.862517
	O459	O	0.729441	0.542903	0.733406
	H460	H	0.728465	0.575307	0.736271
	H461	H	0.747710	0.540980	0.757546
	O462	O	0.704501	0.323044	0.316226
	H463	H	0.705305	0.349491	0.331098
	H464	H	0.715341	0.314550	0.335381
	O465	O	0.307222	0.505742	0.724585
	H466	H	0.317219	0.522659	0.726862
	H467	H	0.306661	0.512733	0.732327
	O468	O	-0.098065	0.855040	0.003830
	H469	H	-0.097284	0.869453	0.003346
	H470	H	-0.103642	0.851060	-0.013283
	O471	O	0.709420	0.664503	0.355552
	H472	H	0.697069	0.661164	0.370517
	H473	H	0.690349	0.653949	0.363863
	O474	O	1.175306	1.036970	-0.159086
	H475	H	1.160823	1.051621	-0.148030
	H476	H	1.194094	1.034651	-0.144639
	O477	O	0.718510	0.293484	0.484252
	H478	H	0.715081	0.286995	0.501302
	H479	H	0.719532	0.285653	0.489352
