data_Molecule from HDF5

_cell_length_a		16.246185
_cell_length_b		16.349109
_cell_length_c		16.201291
_cell_angle_alpha	89.952417
_cell_angle_beta	90.105639
_cell_angle_gamma	90.010076
_symmetry_space_group_name_H-M	'P 1'
_symmetry_Int_Tables_number		1

loop_
	_symmetry_equiv_pos_as_xyz
	x,y,z

loop_
	_atom_site_label
	_atom_site_type_symbol
	_atom_site_fract_x
	_atom_site_fract_y
	_atom_site_fract_z
	H0	H	0.403954	0.841410	0.718191
	H1	H	0.601839	0.166962	0.717571
	H2	H	0.599902	0.839701	0.289940
	H3	H	0.404537	0.166239	0.287827
	H4	H	0.715315	0.406104	0.838404
	H5	H	0.716614	0.600974	0.168468
	H6	H	0.288049	0.601128	0.838703
	H7	H	0.291133	0.404703	0.168057
	H8	H	0.839782	0.718524	0.402278
	H9	H	0.166569	0.719346	0.603817
	H10	H	0.838971	0.287624	0.602947
	H11	H	0.166334	0.287477	0.404111
	H12	H	0.838317	0.406161	0.716438
	H13	H	0.168167	0.599669	0.716739
	H14	H	0.839182	0.600254	0.289104
	H15	H	0.167752	0.405833	0.290646
	H16	H	0.403450	0.717708	0.839027
	H17	H	0.603483	0.718004	0.167112
	H18	H	0.602304	0.288501	0.839500
	H19	H	0.404482	0.288048	0.166821
	H20	H	0.716187	0.840015	0.404982
	H21	H	0.717111	0.166162	0.601245
	H22	H	0.287910	0.840715	0.602554
	H23	H	0.288505	0.166989	0.404304
	H24	H	0.905380	0.339819	0.217819
	H25	H	0.102519	0.666399	0.218558
	H26	H	0.102369	0.339475	0.788882
	H27	H	0.904494	0.665976	0.787617
	H28	H	0.216271	0.905437	0.337972
	H29	H	0.216659	0.101176	0.666863
	H30	H	0.789769	0.101279	0.337855
	H31	H	0.788958	0.905654	0.667304
	H32	H	0.340482	0.219305	0.901377
	H33	H	0.667005	0.217069	0.102004
	H34	H	0.340459	0.785679	0.103418
	H35	H	0.667475	0.788366	0.904018
	H36	H	0.338011	0.906258	0.215033
	H37	H	0.667752	0.098168	0.215484
	H38	H	0.339337	0.101432	0.789402
	H39	H	0.667480	0.906242	0.789247
	H40	H	0.902506	0.218769	0.339623
	H41	H	0.101565	0.216820	0.667282
	H42	H	0.101009	0.789647	0.338321
	H43	H	0.902425	0.788274	0.666829
	H44	H	0.218060	0.339839	0.904687
	H45	H	0.219230	0.665797	0.103538
	H46	H	0.789924	0.339864	0.100953
	H47	H	0.788653	0.666527	0.904278
	H48	H	0.413840	0.119725	0.599900
	H49	H	0.588295	0.887883	0.603281
	H50	H	0.591543	0.119038	0.406444
	H51	H	0.402058	0.884663	0.406644
	H52	H	0.597973	0.409681	0.121497
	H53	H	0.600355	0.600635	0.884035
	H54	H	0.407583	0.595359	0.121020
	H55	H	0.408698	0.413137	0.886227
	H56	H	0.121875	0.601197	0.409542
	H57	H	0.886126	0.597195	0.596894
	H58	H	0.119550	0.412654	0.597582
	H59	H	0.885356	0.399777	0.417372
	H60	H	0.121190	0.405572	0.597627
	H61	H	0.887588	0.597433	0.593254
	H62	H	0.118975	0.597213	0.415893
	H63	H	0.890645	0.420071	0.416448
	H64	H	0.413545	0.592348	0.118330
	H65	H	0.598196	0.590004	0.887380
	H66	H	0.595311	0.409336	0.120364
	H67	H	0.414797	0.411104	0.886597
	H68	H	0.598328	0.119035	0.414583
	H69	H	0.593366	0.890716	0.587393
	H70	H	0.409846	0.118151	0.590462
	H71	H	0.415815	0.887634	0.405307
	H72	H	0.914459	0.620340	0.101642
	H73	H	0.090932	0.389988	0.094942
	H74	H	0.087600	0.616437	0.907407
	H75	H	0.910980	0.390788	0.920006
	H76	H	0.099907	0.911117	0.620969
	H77	H	0.097415	0.098078	0.383863
	H78	H	0.905844	0.091255	0.619571
	H79	H	0.911024	0.907428	0.385727
	H80	H	0.620078	0.098079	0.912250
	H81	H	0.386789	0.097210	0.092435
	H82	H	0.618623	0.911251	0.091823
	H83	H	0.382362	0.905998	0.901326
	H84	H	0.620355	0.912273	0.100599
	H85	H	0.385712	0.094902	0.096264
	H86	H	0.619643	0.095106	0.911841
	H87	H	0.387541	0.902934	0.920381
	H88	H	0.915362	0.094865	0.618747
	H89	H	0.095426	0.094347	0.386262
	H90	H	0.092720	0.914713	0.617932
	H91	H	0.906153	0.908779	0.384133
	H92	H	0.098900	0.616698	0.918999
	H93	H	0.103029	0.386719	0.093044
	H94	H	0.911296	0.616929	0.090061
	H95	H	0.899159	0.382772	0.907132
	H96	H	0.404207	0.122644	0.597425
	H97	H	0.604371	0.884663	0.598808
	H98	H	0.600766	0.122764	0.404810
	H99	H	0.409568	0.889602	0.417626
	H100	H	0.596549	0.407429	0.121701
	H101	H	0.589983	0.598226	0.887670
	H102	H	0.413751	0.598911	0.120868
	H103	H	0.409661	0.407759	0.884964
	H104	H	0.120031	0.593448	0.409053
	H105	H	0.887088	0.594286	0.595117
	H106	H	0.118061	0.408444	0.591976
	H107	H	0.883078	0.410178	0.398805
	H108	H	0.903451	0.621867	0.097205
	H109	H	0.097834	0.384612	0.104846
	H110	H	0.102289	0.622146	0.904867
	H111	H	0.917074	0.386934	0.902203
	H112	H	0.092771	0.906908	0.620242
	H113	H	0.092597	0.097805	0.385184
	H114	H	0.908146	0.100112	0.621912
	H115	H	0.909461	0.912153	0.386505
	H116	H	0.621126	0.096249	0.909179
	H117	H	0.384865	0.099377	0.096092
	H118	H	0.621983	0.904439	0.097192
	H119	H	0.390444	0.920258	0.912609
	C120	C	0.380584	0.012335	0.624977
	C121	C	0.624169	0.995395	0.624991
	C122	C	0.624326	0.011949	0.381013
	C123	C	0.380626	0.994977	0.380917
	C124	C	0.624999	0.380961	0.012205
	C125	C	0.624595	0.624344	0.995137
	C126	C	0.381907	0.624448	0.011984
	C127	C	0.382410	0.381719	0.994587
	C128	C	0.011871	0.624966	0.381986
	C129	C	0.995012	0.624681	0.624422
	C130	C	0.011307	0.380812	0.624989
	C131	C	0.994709	0.381990	0.382353
	C132	C	0.881916	0.511481	0.124645
	C133	C	0.125917	0.494874	0.125977
	C134	C	0.124721	0.510603	0.882217
	C135	C	0.880424	0.494569	0.880918
	C136	C	0.123807	0.882258	0.511004
	C137	C	0.123783	0.124512	0.493953
	C138	C	0.881186	0.124268	0.511424
	C139	C	0.880365	0.881507	0.494238
	C140	C	0.511912	0.124897	0.881839
	C141	C	0.494544	0.124487	0.123984
	C142	C	0.511558	0.880994	0.124485
	C143	C	0.495064	0.881551	0.882070
	C144	C	0.383239	0.889916	0.680254
	C145	C	0.621877	0.118046	0.679848
	C146	C	0.620935	0.888604	0.327113
	C147	C	0.383742	0.117787	0.325597
	C148	C	0.678930	0.384728	0.888155
	C149	C	0.678745	0.621201	0.119431
	C150	C	0.326138	0.621855	0.887967
	C151	C	0.328209	0.384098	0.118511
	C152	C	0.888583	0.680322	0.382562
	C153	C	0.117953	0.680841	0.623491
	C154	C	0.887943	0.325527	0.623407
	C155	C	0.117929	0.326480	0.384595
	C156	C	0.887623	0.384490	0.679524
	C157	C	0.118825	0.621135	0.679365
	C158	C	0.888396	0.621812	0.326225
	C159	C	0.118489	0.384925	0.327756
	C160	C	0.383369	0.679693	0.888082
	C161	C	0.623022	0.679868	0.118542
	C162	C	0.622352	0.326413	0.888430
	C163	C	0.384501	0.326131	0.117887
	C164	C	0.678668	0.888811	0.384348
	C165	C	0.679211	0.117787	0.621924
	C166	C	0.325640	0.889739	0.622551
	C167	C	0.326098	0.118155	0.383560
	C168	C	0.885057	0.388483	0.179680
	C169	C	0.123181	0.617547	0.180850
	C170	C	0.122309	0.387994	0.827135
	C171	C	0.883907	0.617439	0.825731
	C172	C	0.178597	0.884922	0.387236
	C173	C	0.178699	0.121429	0.617870
	C174	C	0.826718	0.121873	0.387399
	C175	C	0.825870	0.884411	0.618012
	C176	C	0.389081	0.180714	0.882495
	C177	C	0.618241	0.178779	0.121679
	C178	C	0.388666	0.825122	0.122601
	C179	C	0.618638	0.826635	0.884059
	C180	C	0.387595	0.884570	0.178632
	C181	C	0.618511	0.120154	0.178320
	C182	C	0.388430	0.122373	0.826514
	C183	C	0.618552	0.884766	0.826863
	C184	C	0.883005	0.179974	0.388040
	C185	C	0.121805	0.179093	0.617982
	C186	C	0.121429	0.827363	0.387441
	C187	C	0.882609	0.826268	0.617908
	C188	C	0.179989	0.388288	0.884556
	C189	C	0.181165	0.617214	0.123543
	C190	C	0.827226	0.388476	0.121949
	C191	C	0.826023	0.617547	0.883469
	C192	C	0.402710	0.098125	0.602604
	C193	C	0.601821	0.909921	0.603113
	C194	C	0.603225	0.097990	0.402389
	C195	C	0.402566	0.909365	0.403264
	C196	C	0.603139	0.402539	0.099019
	C197	C	0.602626	0.602794	0.908792
	C198	C	0.404924	0.602223	0.097789
	C199	C	0.404550	0.404024	0.908252
	C200	C	0.097906	0.603525	0.404712
	C201	C	0.909231	0.602783	0.601771
	C202	C	0.097310	0.402402	0.602387
	C203	C	0.908506	0.403579	0.404489
	C204	C	0.903377	0.597301	0.102683
	C205	C	0.103827	0.409222	0.104137
	C206	C	0.102693	0.596412	0.904094
	C207	C	0.902586	0.409021	0.903212
	C208	C	0.101519	0.904403	0.597329
	C209	C	0.101485	0.103181	0.407359
	C210	C	0.903209	0.102068	0.597813
	C211	C	0.902337	0.903140	0.407697
	C212	C	0.598055	0.102944	0.904413
	C213	C	0.408024	0.103238	0.101696
	C214	C	0.597972	0.902674	0.102795
	C215	C	0.409093	0.903313	0.904769
	Zn216	Zn	0.502792	0.003873	0.754100
	Zn217	Zn	0.502867	0.003022	0.252686
	Zn218	Zn	0.752401	0.503360	0.003719
	Zn219	Zn	0.254207	0.502504	0.003516
	Zn220	Zn	0.002926	0.753907	0.502916
	Zn221	Zn	0.002389	0.252437	0.503245
	Zn222	Zn	0.003605	0.502728	0.753323
	Zn223	Zn	0.003742	0.503368	0.253926
	Zn224	Zn	0.503948	0.752376	0.003153
	Zn225	Zn	0.503119	0.253242	0.002875
	Zn226	Zn	0.752728	0.003156	0.502629
	Zn227	Zn	0.252309	0.003596	0.502614
	N228	N	0.416758	0.967166	0.681882
	N229	N	0.588182	0.040795	0.681612
	N230	N	0.587955	0.966041	0.324954
	N231	N	0.416982	0.040320	0.324023
	N232	N	0.680582	0.417840	0.966214
	N233	N	0.680030	0.587654	0.041724
	N234	N	0.325023	0.588264	0.965862
	N235	N	0.326613	0.418029	0.040762
	N236	N	0.966154	0.682312	0.416818
	N237	N	0.040040	0.683187	0.590184
	N238	N	0.965682	0.323335	0.589896
	N239	N	0.039945	0.324312	0.417517
	N240	N	0.965267	0.418202	0.680553
	N241	N	0.041433	0.586932	0.680148
	N242	N	0.965930	0.588155	0.325720
	N243	N	0.040897	0.418877	0.326532
	N244	N	0.417247	0.681620	0.966011
	N245	N	0.589896	0.681828	0.040398
	N246	N	0.589618	0.323979	0.966675
	N247	N	0.417589	0.324701	0.039880
	N248	N	0.680829	0.966542	0.417259
	N249	N	0.680945	0.040612	0.588484
	N250	N	0.324031	0.966958	0.588814
	N251	N	0.324218	0.040888	0.417213
	N252	N	0.918203	0.466049	0.181725
	N253	N	0.089578	0.540405	0.182452
	N254	N	0.088489	0.465155	0.825514
	N255	N	0.916988	0.539868	0.823975
	N256	N	0.180229	0.918289	0.465093
	N257	N	0.179959	0.088117	0.539878
	N258	N	0.825583	0.087781	0.465078
	N259	N	0.824646	0.918110	0.540331
	N260	N	0.466873	0.182394	0.916279
	N261	N	0.540005	0.181679	0.088679
	N262	N	0.466782	0.822677	0.090029
	N263	N	0.540774	0.824405	0.917613
	N264	N	0.465027	0.918641	0.179857
	N265	N	0.540622	0.087296	0.179806
	N266	N	0.465864	0.088481	0.826067
	N267	N	0.540905	0.918380	0.825792
	N268	N	0.916232	0.181626	0.466118
	N269	N	0.088212	0.180916	0.539920
	N270	N	0.088198	0.825501	0.465463
	N271	N	0.915801	0.824263	0.539781
	N272	N	0.181503	0.465540	0.918110
	N273	N	0.182997	0.539900	0.090137
	N274	N	0.825275	0.465883	0.088563
	N275	N	0.824103	0.540399	0.917309
	O276	O	0.525921	0.583655	0.530775
	H277	H	0.522189	0.577623	0.530010
	H278	H	0.526830	0.588737	0.541090
	O279	O	0.037250	-0.020462	-0.036844
	H280	H	0.026396	-0.008184	-0.042709
	H281	H	0.032385	-0.019020	-0.036182
	O282	O	0.548448	0.575293	0.533925
	H283	H	0.547179	0.569847	0.525573
	H284	H	0.555301	0.572705	0.530205
	O285	O	0.470532	0.546935	0.530511
	H286	H	0.467283	0.546128	0.527014
	H287	H	0.462465	0.547493	0.526421
	O288	O	1.000565	0.015762	-0.066208
	H289	H	0.991392	0.010191	-0.065191
	H290	H	1.001221	0.021358	-0.075425
	O291	O	-0.511477	0.566945	-0.488031
	H292	H	-0.508782	0.569201	-0.481812
	H293	H	-0.510768	0.566496	-0.481924
	O294	O	0.527357	0.525672	0.536635
	H295	H	0.522447	0.527110	0.542009
	H296	H	0.532682	0.534078	0.528480
	O297	O	0.009306	0.993299	-0.059274
	H298	H	0.020134	0.992460	-0.066484
	H299	H	0.021478	0.984735	-0.048915
	O300	O	1.110846	-0.045240	0.958833
	H301	H	1.119914	-0.058084	0.959844
	H302	H	1.119980	-0.037305	0.950274
	O303	O	0.556270	0.567355	0.516657
	H304	H	0.556827	0.576208	0.518311
	H305	H	0.558444	0.563069	0.511377
	O306	O	0.086165	0.976107	0.974469
	H307	H	0.072804	0.975161	0.971056
	H308	H	0.093133	0.974509	0.972140
	O309	O	0.537875	0.611665	0.544430
	H310	H	0.536206	0.624609	0.549724
	H311	H	0.549903	0.606478	0.542653
