data_Molecule from HDF5

_cell_length_a		16.248407
_cell_length_b		16.521672
_cell_length_c		16.269828
_cell_angle_alpha	89.917089
_cell_angle_beta	90.272497
_cell_angle_gamma	90.012707
_symmetry_space_group_name_H-M	'P 1'
_symmetry_Int_Tables_number		1

loop_
	_symmetry_equiv_pos_as_xyz
	x,y,z

loop_
	_atom_site_label
	_atom_site_type_symbol
	_atom_site_fract_x
	_atom_site_fract_y
	_atom_site_fract_z
	H0	H	0.388976	0.837973	0.722287
	H1	H	0.598205	0.154852	0.719629
	H2	H	0.595785	0.837525	0.278184
	H3	H	0.389810	0.156502	0.281204
	H4	H	0.708004	0.399047	0.836652
	H5	H	0.712563	0.599783	0.160929
	H6	H	0.273732	0.597903	0.837443
	H7	H	0.278935	0.397541	0.162236
	H8	H	0.833393	0.715183	0.391736
	H9	H	0.152682	0.716865	0.606895
	H10	H	0.834136	0.272940	0.606030
	H11	H	0.154469	0.276085	0.396412
	H12	H	0.831928	0.392371	0.717748
	H13	H	0.155522	0.596824	0.717425
	H14	H	0.831457	0.595649	0.281269
	H15	H	0.156496	0.395456	0.284517
	H16	H	0.383658	0.719101	0.838671
	H17	H	0.598227	0.717874	0.159663
	H18	H	0.596797	0.277606	0.838780
	H19	H	0.387443	0.276836	0.159482
	H20	H	0.710857	0.835176	0.396374
	H21	H	0.715480	0.153886	0.604591
	H22	H	0.274873	0.835973	0.604669
	H23	H	0.273091	0.154974	0.397273
	H24	H	0.892048	0.336273	0.216910
	H25	H	0.100470	0.653604	0.222829
	H26	H	0.097637	0.337445	0.779376
	H27	H	0.888551	0.654164	0.776547
	H28	H	0.210057	0.894965	0.337720
	H29	H	0.212430	0.096353	0.661982
	H30	H	0.775122	0.096408	0.337967
	H31	H	0.776936	0.893061	0.661038
	H32	H	0.332238	0.216441	0.894624
	H33	H	0.653466	0.217408	0.105132
	H34	H	0.332955	0.774858	0.105997
	H35	H	0.651588	0.774734	0.889644
	H36	H	0.330237	0.895978	0.215703
	H37	H	0.654747	0.098126	0.217813
	H38	H	0.331878	0.098695	0.780207
	H39	H	0.655121	0.895978	0.782656
	H40	H	0.885878	0.217306	0.340816
	H41	H	0.101771	0.216529	0.659776
	H42	H	0.098001	0.775751	0.338722
	H43	H	0.886036	0.771606	0.657450
	H44	H	0.214137	0.337112	0.896261
	H45	H	0.214866	0.654733	0.104091
	H46	H	0.772414	0.338372	0.103140
	H47	H	0.774841	0.656089	0.894891
	H48	H	0.401117	0.110131	0.591198
	H49	H	0.582602	0.880498	0.597681
	H50	H	0.582360	0.106784	0.412998
	H51	H	0.407318	0.883594	0.405848
	H52	H	0.582706	0.406196	0.114621
	H53	H	0.580161	0.589382	0.884181
	H54	H	0.407521	0.590622	0.113577
	H55	H	0.409905	0.403380	0.884792
	H56	H	0.111687	0.594367	0.409906
	H57	H	0.877493	0.592280	0.581368
	H58	H	0.109630	0.398912	0.586589
	H59	H	0.878002	0.399857	0.413078
	H60	H	0.105370	0.409001	0.585280
	H61	H	0.883721	0.576681	0.581634
	H62	H	0.105580	0.583385	0.419211
	H63	H	0.880111	0.409528	0.410475
	H64	H	0.403366	0.586609	0.113836
	H65	H	0.583042	0.589802	0.884255
	H66	H	0.583326	0.407270	0.114255
	H67	H	0.398568	0.403044	0.881455
	H68	H	0.587103	0.109599	0.410179
	H69	H	0.578564	0.885425	0.587819
	H70	H	0.406227	0.107781	0.589466
	H71	H	0.400834	0.884256	0.412652
	H72	H	0.905681	0.608655	0.089677
	H73	H	0.084976	0.382771	0.092486
	H74	H	0.086551	0.608602	0.914344
	H75	H	0.900545	0.383163	0.911329
	H76	H	0.078045	0.896942	0.615053
	H77	H	0.085746	0.086725	0.383799
	H78	H	0.907463	0.086970	0.615166
	H79	H	0.902730	0.902029	0.382656
	H80	H	0.608572	0.093636	0.915737
	H81	H	0.378559	0.085327	0.087180
	H82	H	0.605713	0.906674	0.082757
	H83	H	0.377916	0.910137	0.908920
	H84	H	0.605520	0.912262	0.088676
	H85	H	0.375957	0.089944	0.092032
	H86	H	0.606786	0.083688	0.912424
	H87	H	0.377754	0.904886	0.912302
	H88	H	0.902466	0.084262	0.616021
	H89	H	0.080274	0.080412	0.387917
	H90	H	0.090075	0.905473	0.616454
	H91	H	0.901097	0.905379	0.383168
	H92	H	0.085407	0.611009	0.903756
	H93	H	0.085343	0.383698	0.089253
	H94	H	0.903599	0.609657	0.089068
	H95	H	0.901106	0.382098	0.906900
	H96	H	0.402234	0.107400	0.586145
	H97	H	0.589443	0.881866	0.588274
	H98	H	0.581557	0.109021	0.407075
	H99	H	0.398712	0.880092	0.404148
	H100	H	0.581740	0.407252	0.114044
	H101	H	0.581750	0.586814	0.884181
	H102	H	0.408777	0.585451	0.111521
	H103	H	0.403084	0.412538	0.885737
	H104	H	0.108881	0.580635	0.404591
	H105	H	0.876095	0.582634	0.594617
	H106	H	0.110649	0.406664	0.595349
	H107	H	0.876346	0.402935	0.403311
	H108	H	0.904833	0.610115	0.091369
	H109	H	0.087855	0.381561	0.091417
	H110	H	0.077068	0.606541	0.909677
	H111	H	0.904712	0.383778	0.909779
	H112	H	0.077607	0.910637	0.610564
	H113	H	0.076614	0.089042	0.385922
	H114	H	0.906954	0.081666	0.612922
	H115	H	0.904711	0.904832	0.384156
	H116	H	0.610618	0.090350	0.905622
	H117	H	0.377157	0.092490	0.084939
	H118	H	0.608594	0.904920	0.090142
	H119	H	0.380200	0.910440	0.914569
	C120	C	0.371996	0.003770	0.621353
	C121	C	0.616020	0.987122	0.622418
	C122	C	0.614258	0.003597	0.378144
	C123	C	0.370264	0.987683	0.376870
	C124	C	0.613735	0.376504	0.007751
	C125	C	0.614244	0.619517	0.990490
	C126	C	0.372264	0.618780	0.006964
	C127	C	0.372694	0.375960	0.991068
	C128	C	0.002147	0.616489	0.378349
	C129	C	0.984865	0.615949	0.619331
	C130	C	0.002240	0.373602	0.620970
	C131	C	0.984845	0.373915	0.378485
	C132	C	0.872990	0.504462	0.120708
	C133	C	0.117285	0.487420	0.122714
	C134	C	0.114918	0.504071	0.878256
	C135	C	0.871350	0.488231	0.877073
	C136	C	0.114083	0.873583	0.508059
	C137	C	0.114105	0.116211	0.492005
	C138	C	0.872710	0.115923	0.508442
	C139	C	0.871647	0.872759	0.489805
	C140	C	0.502073	0.119211	0.878539
	C141	C	0.483915	0.119738	0.120684
	C142	C	0.500702	0.876199	0.119436
	C143	C	0.484670	0.876465	0.878896
	C144	C	0.370747	0.885151	0.682003
	C145	C	0.617083	0.106791	0.680709
	C146	C	0.614609	0.884664	0.318416
	C147	C	0.370358	0.108106	0.319690
	C148	C	0.670407	0.377914	0.885655
	C149	C	0.673216	0.619149	0.112410
	C150	C	0.312607	0.618163	0.885705
	C151	C	0.316348	0.377427	0.113164
	C152	C	0.881059	0.674947	0.374916
	C153	C	0.105115	0.676265	0.623509
	C154	C	0.881640	0.313423	0.623641
	C155	C	0.106523	0.315632	0.377826
	C156	C	0.880730	0.372856	0.679275
	C157	C	0.106554	0.616440	0.678553
	C158	C	0.880549	0.615957	0.319218
	C159	C	0.107291	0.374926	0.321912
	C160	C	0.367667	0.678212	0.886460
	C161	C	0.616745	0.678232	0.111548
	C162	C	0.615000	0.317788	0.886680
	C163	C	0.370391	0.317155	0.111716
	C164	C	0.671733	0.883249	0.377679
	C165	C	0.675457	0.106430	0.623152
	C166	C	0.313757	0.884064	0.623088
	C167	C	0.312116	0.107411	0.377414
	C168	C	0.872421	0.384214	0.178254
	C169	C	0.118997	0.606317	0.182712
	C170	C	0.116696	0.384868	0.818774
	C171	C	0.870204	0.606900	0.816682
	C172	C	0.171915	0.874558	0.386280
	C173	C	0.173759	0.116068	0.613203
	C174	C	0.813606	0.116349	0.386835
	C175	C	0.814132	0.872506	0.611739
	C176	C	0.380552	0.177223	0.876159
	C177	C	0.605422	0.177824	0.123267
	C178	C	0.380468	0.815744	0.122726
	C179	C	0.604416	0.815832	0.874424
	C180	C	0.379108	0.875861	0.177650
	C181	C	0.605942	0.118675	0.179518
	C182	C	0.380334	0.118553	0.819299
	C183	C	0.606149	0.876196	0.820781
	C184	C	0.869000	0.176354	0.388297
	C185	C	0.118902	0.176219	0.612089
	C186	C	0.115936	0.815276	0.386918
	C187	C	0.869151	0.812613	0.610240
	C188	C	0.174450	0.384785	0.877269
	C189	C	0.175930	0.607093	0.123680
	C190	C	0.812892	0.385393	0.121650
	C191	C	0.813087	0.607879	0.875469
	C192	C	0.396061	0.086850	0.596120
	C193	C	0.591017	0.904278	0.598154
	C194	C	0.590734	0.086636	0.403013
	C195	C	0.394927	0.904272	0.400711
	C196	C	0.589360	0.400010	0.092282
	C197	C	0.589069	0.595606	0.906390
	C198	C	0.398841	0.594606	0.091118
	C199	C	0.396719	0.399605	0.906078
	C200	C	0.086620	0.592890	0.403833
	C201	C	0.900962	0.591053	0.593443
	C202	C	0.086579	0.397831	0.596068
	C203	C	0.900295	0.397162	0.402325
	C204	C	0.897632	0.587865	0.097128
	C205	C	0.093052	0.404323	0.098173
	C206	C	0.090235	0.587036	0.902239
	C207	C	0.895309	0.404602	0.902168
	C208	C	0.089219	0.897460	0.592207
	C209	C	0.088224	0.092290	0.407693
	C210	C	0.898191	0.091380	0.592741
	C211	C	0.895941	0.897045	0.405398
	C212	C	0.586572	0.095732	0.903932
	C213	C	0.399420	0.096126	0.095400
	C214	C	0.584645	0.900935	0.094438
	C215	C	0.400388	0.901372	0.904657
	Zn216	Zn	0.493818	-0.003268	0.751213
	Zn217	Zn	0.492325	-0.003178	0.247872
	Zn218	Zn	0.742664	0.497401	-0.000778
	Zn219	Zn	0.245080	0.496666	-0.000395
	Zn220	Zn	-0.006837	0.744882	0.498757
	Zn221	Zn	-0.006136	0.245203	0.500180
	Zn222	Zn	-0.006663	0.495544	0.748339
	Zn223	Zn	-0.005858	0.495242	0.250281
	Zn224	Zn	0.492618	0.747869	-0.001626
	Zn225	Zn	0.493010	0.247828	-0.000346
	Zn226	Zn	0.744561	-0.005311	0.499728
	Zn227	Zn	0.242021	-0.005250	0.500298
	N228	N	0.406452	0.960539	0.680997
	N229	N	0.580876	0.031690	0.680369
	N230	N	0.579650	0.960337	0.318624
	N231	N	0.405696	0.032556	0.318974
	N232	N	0.669910	0.413504	0.961850
	N233	N	0.672184	0.583686	0.035991
	N234	N	0.315608	0.581675	0.961592
	N235	N	0.317449	0.413145	0.036778
	N236	N	0.957795	0.675469	0.410868
	N237	N	0.028485	0.676018	0.587276
	N238	N	0.958293	0.313650	0.588265
	N239	N	0.029374	0.314646	0.412090
	N240	N	0.956765	0.409302	0.677879
	N241	N	0.030677	0.579549	0.676070
	N242	N	0.956968	0.580466	0.321011
	N243	N	0.030959	0.410641	0.322339
	N244	N	0.403763	0.678798	0.963080
	N245	N	0.580913	0.678598	0.034935
	N246	N	0.580688	0.316706	0.963862
	N247	N	0.404685	0.316279	0.034688
	N248	N	0.671887	0.958372	0.413969
	N249	N	0.675085	0.031032	0.587682
	N250	N	0.314560	0.958767	0.585900
	N251	N	0.312031	0.031570	0.412276
	N252	N	0.908997	0.459151	0.177766
	N253	N	0.083190	0.530937	0.182114
	N254	N	0.080419	0.459981	0.819161
	N255	N	0.905540	0.531244	0.817581
	N256	N	0.170922	0.910014	0.462597
	N257	N	0.170987	0.079543	0.537351
	N258	N	0.815642	0.079621	0.462608
	N259	N	0.815458	0.909152	0.535853
	N260	N	0.457151	0.177744	0.912169
	N261	N	0.528546	0.178711	0.087766
	N262	N	0.457016	0.815811	0.087276
	N263	N	0.527694	0.815912	0.909769
	N264	N	0.454878	0.912943	0.175581
	N265	N	0.529370	0.083565	0.178295
	N266	N	0.457031	0.083419	0.820401
	N267	N	0.530451	0.913271	0.823494
	N268	N	0.905088	0.176044	0.464915
	N269	N	0.082431	0.176458	0.535650
	N270	N	0.080980	0.814406	0.463748
	N271	N	0.904000	0.812508	0.533389
	N272	N	0.173350	0.459833	0.913763
	N273	N	0.175235	0.532153	0.087338
	N274	N	0.812990	0.461173	0.086515
	N275	N	0.813582	0.532945	0.912228
	O276	O	0.416751	0.403784	0.636559
	H277	H	0.396754	0.406898	0.631989
	H278	H	0.417511	0.403859	0.649763
	O279	O	0.588360	0.375013	0.348667
	H280	H	0.597620	0.390480	0.353617
	H281	H	0.589708	0.368564	0.341093
	O282	O	0.677846	0.373075	0.443697
	H283	H	0.684225	0.365888	0.463787
	H284	H	0.685017	0.373140	0.442836
	O285	O	0.894440	-0.136360	-0.108427
	H286	H	0.892899	-0.113071	-0.095824
	H287	H	0.888139	-0.138506	-0.092956
	O288	O	-0.379005	0.342975	0.400446
	H289	H	-0.365723	0.340822	0.385509
	H290	H	-0.386332	0.330131	0.418602
	O291	O	0.340944	0.639731	0.440797
	H292	H	0.338083	0.642507	0.413099
	H293	H	0.331855	0.650188	0.438316
	O294	O	0.394430	0.467350	0.610662
	H295	H	0.380167	0.465818	0.608431
	H296	H	0.391907	0.472856	0.605629
	O297	O	1.059770	0.941830	1.177562
	H298	H	1.039293	0.926222	1.164227
	H299	H	1.050946	0.938400	1.189546
	O300	O	0.083115	0.194542	0.202312
	H301	H	0.087976	0.199897	0.222231
	H302	H	0.073580	0.184068	0.202715
	O303	O	0.358212	0.482400	0.592642
	H304	H	0.367036	0.481823	0.585849
	H305	H	0.351459	0.498290	0.588030
	O306	O	1.161064	-0.201843	-0.032736
	H307	H	1.145577	-0.193636	-0.060518
	H308	H	1.183492	-0.222791	-0.033656
	O309	O	0.496564	0.351100	0.395991
	H310	H	0.504707	0.344941	0.373917
	H311	H	0.517674	0.361240	0.401357
	O312	O	0.815544	0.870002	0.182142
	H313	H	0.812521	0.889223	0.158681
	H314	H	0.857604	0.869278	0.197351
	O315	O	0.421955	0.473216	0.369590
	H316	H	0.429552	0.469570	0.385205
	H317	H	0.438234	0.476449	0.378837
	O318	O	0.991871	0.913973	-0.019621
	H319	H	0.993369	0.906913	-0.022796
	H320	H	0.977945	0.914798	-0.025603
	O321	O	1.491948	-0.352871	1.599033
	H322	H	1.504271	-0.338024	1.591097
	H323	H	1.487427	-0.342161	1.610760
	O324	O	-0.180056	-0.208123	0.952645
	H325	H	-0.177282	-0.193332	0.970792
	H326	H	-0.200704	-0.227727	0.950360
	O327	O	0.492875	0.605516	0.432978
	H328	H	0.491871	0.607321	0.449713
	H329	H	0.505978	0.593774	0.442379
	O330	O	0.609191	0.525351	0.389240
	H331	H	0.607288	0.529839	0.381106
	H332	H	0.615589	0.546506	0.390959
	O333	O	0.999688	0.810429	1.152976
	H334	H	0.998915	0.795799	1.152410
	H335	H	1.024792	0.807738	1.132099
	O336	O	0.843766	-0.070392	1.190148
	H337	H	0.836020	-0.048081	1.195921
	H338	H	0.858587	-0.065792	1.184314
	O339	O	0.809175	-0.049829	0.910810
	H340	H	0.811919	-0.035805	0.894194
	H341	H	0.806628	-0.043824	0.916604
	O342	O	0.047634	1.179633	0.895643
	H343	H	0.047306	1.185598	0.891216
	H344	H	0.064120	1.179354	0.905520
	O345	O	0.176246	1.167886	1.060142
	H346	H	0.166175	1.177202	1.080848
	H347	H	0.185395	1.185380	1.055647
	O348	O	1.122112	0.988188	-0.132067
	H349	H	1.126523	0.997017	-0.131451
	H350	H	1.128219	0.999400	-0.124291
	O351	O	-0.017140	-0.062314	-0.132601
	H352	H	-0.015569	-0.073698	-0.125517
	H353	H	-0.023796	-0.052589	-0.130463
	O354	O	1.021037	1.149013	0.095455
	H355	H	1.022256	1.154913	0.089211
	H356	H	1.023547	1.140995	0.116867
	O357	O	-0.162259	1.113062	0.140929
	H358	H	-0.151790	1.087262	0.143493
	H359	H	-0.182721	1.116575	0.129909
	O360	O	0.412673	0.566826	0.539230
	H361	H	0.409811	0.568557	0.544925
	H362	H	0.428668	0.564874	0.536122
	O363	O	0.571546	0.511517	0.648737
	H364	H	0.567252	0.503076	0.634862
	H365	H	0.573235	0.512909	0.664536
	O366	O	0.531000	0.470048	0.580015
	H367	H	0.528463	0.478247	0.579450
	H368	H	0.523147	0.468848	0.574515
	O369	O	0.578226	0.445145	0.551763
	H370	H	0.559672	0.434656	0.564856
	H371	H	0.565527	0.451739	0.546198
	O372	O	0.010705	0.805208	-0.109735
	H373	H	0.002669	0.804504	-0.121105
	H374	H	-0.011013	0.817660	-0.119322
	O375	O	0.578867	0.543239	0.489519
	H376	H	0.588300	0.527113	0.490193
	H377	H	0.581476	0.552764	0.475291
	O378	O	0.501349	0.484378	0.547686
	H379	H	0.499931	0.491446	0.542427
	H380	H	0.501224	0.480318	0.537676
	O381	O	0.575490	0.507299	0.575367
	H382	H	0.571542	0.511772	0.570536
	H383	H	0.583962	0.505491	0.587171
	O384	O	-0.041484	1.069607	0.869751
	H385	H	-0.029615	1.075311	0.870173
	H386	H	-0.034029	1.073623	0.869575
	O387	O	1.373226	0.622465	0.427714
	H388	H	1.381295	0.621472	0.424905
	H389	H	1.360172	0.614892	0.418335
	O390	O	0.458540	0.588292	0.305842
	H391	H	0.449713	0.574812	0.293806
	H392	H	0.472115	0.597606	0.303606
	O393	O	0.802222	0.097242	0.971840
	H394	H	0.812479	0.098830	0.971447
	H395	H	0.792109	0.092068	0.969058
	O396	O	0.172717	0.825844	0.975677
	H397	H	0.166168	0.825774	0.965014
	H398	H	0.180105	0.858425	0.975184
	O399	O	0.521417	0.534340	0.644095
	H400	H	0.524134	0.555863	0.648253
	H401	H	0.527531	0.526602	0.654389
	O402	O	1.085184	0.050037	1.082256
	H403	H	1.088417	0.031178	1.060912
	H404	H	1.100510	0.051588	1.093108
	O405	O	-0.213038	0.010661	-0.149770
	H406	H	-0.207302	0.014290	-0.144541
	H407	H	-0.227264	0.006087	-0.165749
	O408	O	1.184853	0.995446	1.092057
	H409	H	1.169327	1.015528	1.092971
	H410	H	1.198730	1.000944	1.103048
	O411	O	1.052803	1.077786	0.176595
	H412	H	1.036399	1.062666	0.177425
	H413	H	1.050497	1.053207	0.168428
	O414	O	-0.144694	0.131003	0.996685
	H415	H	-0.153727	0.146283	0.982458
	H416	H	-0.130559	0.122377	0.978384
	O417	O	0.336951	0.492271	0.368342
	H418	H	0.336501	0.501784	0.377713
	H419	H	0.336113	0.483419	0.367825
	O420	O	0.117529	0.943140	-0.143148
	H421	H	0.106239	0.924455	-0.124728
	H422	H	0.125648	0.932505	-0.151821
	O423	O	0.730867	0.402824	-0.234800
	H424	H	0.741448	0.406156	-0.236565
	H425	H	0.744860	0.382313	-0.234876
	O426	O	0.069287	0.158140	0.920988
	H427	H	0.073099	0.163971	0.925297
	H428	H	0.070445	0.154117	0.942787
	O429	O	0.520084	0.360243	0.510097
	H430	H	0.514431	0.352311	0.496910
	H431	H	0.510768	0.355351	0.501226
