data_Molecule from HDF5

_cell_length_a		16.315437
_cell_length_b		16.288490
_cell_length_c		16.238032
_cell_angle_alpha	89.981596
_cell_angle_beta	90.197820
_cell_angle_gamma	90.084048
_symmetry_space_group_name_H-M	'P 1'
_symmetry_Int_Tables_number		1

loop_
	_symmetry_equiv_pos_as_xyz
	x,y,z

loop_
	_atom_site_label
	_atom_site_type_symbol
	_atom_site_fract_x
	_atom_site_fract_y
	_atom_site_fract_z
	H0	H	0.409245	0.827645	0.707514
	H1	H	0.603312	0.155660	0.709274
	H2	H	0.603519	0.828115	0.281655
	H3	H	0.408335	0.155447	0.280724
	H4	H	0.718873	0.394370	0.831727
	H5	H	0.720167	0.591261	0.159336
	H6	H	0.290560	0.590865	0.830970
	H7	H	0.291304	0.393787	0.158799
	H8	H	0.842794	0.706068	0.395446
	H9	H	0.169461	0.706570	0.593672
	H10	H	0.843065	0.275822	0.592992
	H11	H	0.169663	0.278222	0.396566
	H12	H	0.842188	0.392870	0.708908
	H13	H	0.169028	0.589821	0.710139
	H14	H	0.842597	0.589518	0.279945
	H15	H	0.169434	0.395309	0.281058
	H16	H	0.406235	0.706270	0.831225
	H17	H	0.603352	0.705383	0.158684
	H18	H	0.602617	0.278271	0.830728
	H19	H	0.406956	0.278225	0.158946
	H20	H	0.720463	0.828418	0.396777
	H21	H	0.721818	0.155514	0.594913
	H22	H	0.289401	0.829142	0.595519
	H23	H	0.291415	0.155113	0.396272
	H24	H	0.907435	0.328749	0.209092
	H25	H	0.103304	0.655790	0.208708
	H26	H	0.102405	0.328057	0.781980
	H27	H	0.906881	0.655668	0.779718
	H28	H	0.219476	0.893981	0.331435
	H29	H	0.222343	0.091971	0.658095
	H30	H	0.790740	0.090992	0.331243
	H31	H	0.792155	0.892677	0.659064
	H32	H	0.341721	0.205940	0.895900
	H33	H	0.668406	0.207762	0.094507
	H34	H	0.341663	0.776827	0.093037
	H35	H	0.668401	0.776406	0.896542
	H36	H	0.341702	0.894422	0.208100
	H37	H	0.669121	0.090057	0.209180
	H38	H	0.341538	0.088655	0.780129
	H39	H	0.669668	0.893928	0.781732
	H40	H	0.906772	0.206549	0.330560
	H41	H	0.105041	0.205769	0.658882
	H42	H	0.103547	0.778925	0.330950
	H43	H	0.908011	0.777073	0.658951
	H44	H	0.218994	0.328013	0.896601
	H45	H	0.220690	0.655449	0.093318
	H46	H	0.791385	0.328723	0.093441
	H47	H	0.789192	0.655275	0.894506
	H48	H	0.412057	0.110195	0.591982
	H49	H	0.593018	0.880288	0.578079
	H50	H	0.594825	0.107100	0.404832
	H51	H	0.405708	0.873155	0.400630
	H52	H	0.597904	0.393812	0.113737
	H53	H	0.608440	0.580312	0.876485
	H54	H	0.411710	0.578960	0.110525
	H55	H	0.411666	0.402016	0.878801
	H56	H	0.120710	0.587041	0.408034
	H57	H	0.890179	0.581534	0.587764
	H58	H	0.118137	0.400504	0.576910
	H59	H	0.892088	0.404395	0.402840
	H60	H	0.121501	0.408227	0.597233
	H61	H	0.888528	0.586610	0.589081
	H62	H	0.121517	0.580325	0.397696
	H63	H	0.887693	0.397157	0.396683
	H64	H	0.416668	0.587647	0.111372
	H65	H	0.589422	0.576168	0.882732
	H66	H	0.603935	0.401657	0.112670
	H67	H	0.414144	0.396161	0.877605
	H68	H	0.603110	0.108753	0.405453
	H69	H	0.614200	0.871928	0.587024
	H70	H	0.416693	0.107472	0.587309
	H71	H	0.416828	0.875383	0.396820
	H72	H	0.907613	0.611058	0.088226
	H73	H	0.092123	0.375117	0.095492
	H74	H	0.099427	0.608135	0.903410
	H75	H	0.911925	0.373837	0.894203
	H76	H	0.092614	0.900496	0.609737
	H77	H	0.109284	0.075115	0.377964
	H78	H	0.908373	0.076662	0.610034
	H79	H	0.911135	0.906671	0.380482
	H80	H	0.622897	0.087414	0.898728
	H81	H	0.389084	0.087084	0.085852
	H82	H	0.622242	0.904244	0.095011
	H83	H	0.387022	0.899766	0.892334
	H84	H	0.624754	0.889532	0.090086
	H85	H	0.390302	0.082100	0.087081
	H86	H	0.621711	0.088307	0.906219
	H87	H	0.387750	0.889621	0.904470
	H88	H	0.923768	0.082655	0.607674
	H89	H	0.085627	0.082510	0.382039
	H90	H	0.100326	0.894342	0.614031
	H91	H	0.919660	0.894792	0.379467
	H92	H	0.098851	0.609142	0.901167
	H93	H	0.097061	0.377971	0.079293
	H94	H	0.915250	0.609397	0.092281
	H95	H	0.918665	0.379372	0.907402
	H96	H	0.409667	0.108789	0.585289
	H97	H	0.594593	0.872693	0.601187
	H98	H	0.598884	0.109429	0.397550
	H99	H	0.413395	0.877076	0.408415
	H100	H	0.594323	0.402446	0.110097
	H101	H	0.594903	0.594776	0.875747
	H102	H	0.406981	0.587071	0.114421
	H103	H	0.408296	0.397184	0.876109
	H104	H	0.126366	0.591910	0.397196
	H105	H	0.890728	0.585757	0.583953
	H106	H	0.126349	0.387270	0.592370
	H107	H	0.890355	0.395113	0.406600
	H108	H	0.914381	0.606449	0.083703
	H109	H	0.108626	0.371641	0.090362
	H110	H	0.097230	0.607639	0.902516
	H111	H	0.903173	0.375128	0.907466
	H112	H	0.102221	0.903972	0.611313
	H113	H	0.102423	0.098783	0.372298
	H114	H	0.912044	0.092234	0.614211
	H115	H	0.906045	0.894681	0.375578
	H116	H	0.620445	0.081614	0.903093
	H117	H	0.388168	0.085299	0.090549
	H118	H	0.618715	0.899825	0.080207
	H119	H	0.392821	0.904521	0.906691
	C120	C	0.384561	0.000044	0.616249
	C121	C	0.628728	0.983413	0.617635
	C122	C	0.627067	0.000299	0.374389
	C123	C	0.383697	0.983076	0.373219
	C124	C	0.626592	0.370949	0.003691
	C125	C	0.626515	0.612780	0.986518
	C126	C	0.383288	0.613166	0.003766
	C127	C	0.383548	0.370634	0.986347
	C128	C	0.014699	0.614165	0.372529
	C129	C	0.997373	0.613574	0.616425
	C130	C	0.014176	0.369808	0.617087
	C131	C	0.997820	0.370412	0.373388
	C132	C	0.883791	0.500855	0.116555
	C133	C	0.127397	0.483589	0.116317
	C134	C	0.127092	0.500248	0.873731
	C135	C	0.883290	0.484082	0.873550
	C136	C	0.126799	0.871111	0.503522
	C137	C	0.127908	0.113908	0.485917
	C138	C	0.885170	0.112971	0.502776
	C139	C	0.884135	0.870111	0.486871
	C140	C	0.513695	0.113675	0.873459
	C141	C	0.497172	0.113802	0.116896
	C142	C	0.513699	0.869446	0.116711
	C143	C	0.497196	0.869563	0.873041
	C144	C	0.387905	0.876857	0.670493
	C145	C	0.625254	0.106520	0.672433
	C146	C	0.624043	0.876732	0.319653
	C147	C	0.387094	0.106406	0.318081
	C148	C	0.681227	0.373355	0.880469
	C149	C	0.681921	0.610814	0.110360
	C150	C	0.328432	0.611228	0.879874
	C151	C	0.329298	0.373757	0.109945
	C152	C	0.891484	0.668431	0.375001
	C153	C	0.120678	0.668491	0.614118
	C154	C	0.891483	0.314248	0.613787
	C155	C	0.121008	0.316338	0.376541
	C156	C	0.891015	0.372495	0.671155
	C157	C	0.120504	0.610559	0.671907
	C158	C	0.891253	0.610454	0.317646
	C159	C	0.120734	0.374048	0.318792
	C160	C	0.385915	0.668444	0.880104
	C161	C	0.624118	0.667693	0.110074
	C162	C	0.623435	0.315804	0.880038
	C163	C	0.386560	0.316229	0.110129
	C164	C	0.682051	0.876917	0.376847
	C165	C	0.683713	0.106626	0.615289
	C166	C	0.328715	0.877310	0.614439
	C167	C	0.329345	0.106473	0.375731
	C168	C	0.886615	0.377573	0.171207
	C169	C	0.124232	0.606923	0.170727
	C170	C	0.123282	0.377009	0.819403
	C171	C	0.885946	0.606845	0.817702
	C172	C	0.181459	0.873725	0.380025
	C173	C	0.183571	0.111623	0.609474
	C174	C	0.828801	0.111585	0.379949
	C175	C	0.829700	0.872297	0.610125
	C176	C	0.390427	0.167942	0.875433
	C177	C	0.619888	0.169315	0.114664
	C178	C	0.390640	0.814748	0.113595
	C179	C	0.620033	0.814602	0.875969
	C180	C	0.390791	0.872911	0.171105
	C181	C	0.620194	0.110935	0.171627
	C182	C	0.390427	0.109713	0.818120
	C183	C	0.620568	0.873068	0.819065
	C184	C	0.886927	0.168611	0.379549
	C185	C	0.125368	0.168311	0.609777
	C186	C	0.123978	0.816456	0.379965
	C187	C	0.887068	0.814620	0.609937
	C188	C	0.181767	0.377070	0.876001
	C189	C	0.182776	0.606531	0.113900
	C190	C	0.828459	0.377891	0.114245
	C191	C	0.827544	0.606726	0.874635
	C192	C	0.406167	0.086495	0.594393
	C193	C	0.606890	0.897266	0.595290
	C194	C	0.605382	0.086149	0.396033
	C195	C	0.405464	0.897396	0.395394
	C196	C	0.604988	0.392905	0.089983
	C197	C	0.604176	0.590312	0.900497
	C198	C	0.405254	0.591096	0.089924
	C199	C	0.405040	0.392180	0.899806
	C200	C	0.100497	0.592669	0.394526
	C201	C	0.911752	0.591252	0.593573
	C202	C	0.099980	0.392106	0.595343
	C203	C	0.912138	0.392485	0.395518
	C204	C	0.905903	0.586775	0.094411
	C205	C	0.105605	0.397273	0.094701
	C206	C	0.105110	0.586325	0.896043
	C207	C	0.905000	0.398164	0.896246
	C208	C	0.105012	0.893180	0.589590
	C209	C	0.105822	0.091969	0.399648
	C210	C	0.908075	0.090545	0.588663
	C211	C	0.905693	0.892493	0.400657
	C212	C	0.599326	0.092023	0.896135
	C213	C	0.411367	0.091398	0.094457
	C214	C	0.599767	0.891300	0.094849
	C215	C	0.411383	0.891484	0.894716
	Zn216	Zn	0.505666	-0.008121	0.745051
	Zn217	Zn	0.506125	-0.008612	0.245361
	Zn218	Zn	0.755163	0.492545	-0.004604
	Zn219	Zn	0.255414	0.491952	-0.005332
	Zn220	Zn	0.006177	0.742268	0.494354
	Zn221	Zn	0.006552	0.241409	0.494519
	Zn222	Zn	0.005233	0.491860	0.745465
	Zn223	Zn	0.005945	0.491988	0.244729
	Zn224	Zn	0.505210	0.740440	-0.005142
	Zn225	Zn	0.504778	0.242466	-0.004895
	Zn226	Zn	0.756336	-0.007998	0.495117
	Zn227	Zn	0.255160	-0.008235	0.495118
	N228	N	0.421856	0.954166	0.671623
	N229	N	0.591656	0.029047	0.673754
	N230	N	0.590511	0.954164	0.317959
	N231	N	0.420221	0.028793	0.316351
	N232	N	0.683264	0.406754	0.958035
	N233	N	0.683524	0.577460	0.032530
	N234	N	0.326726	0.577625	0.957582
	N235	N	0.327254	0.406794	0.031888
	N236	N	0.968976	0.670808	0.408300
	N237	N	0.043239	0.670181	0.580020
	N238	N	0.969201	0.312299	0.581028
	N239	N	0.043561	0.314008	0.409668
	N240	N	0.968208	0.406347	0.673105
	N241	N	0.042907	0.577257	0.673527
	N242	N	0.968912	0.577513	0.315809
	N243	N	0.043241	0.407080	0.316864
	N244	N	0.419385	0.669712	0.958078
	N245	N	0.590310	0.668900	0.032365
	N246	N	0.590350	0.313969	0.957959
	N247	N	0.419471	0.314124	0.032244
	N248	N	0.684158	0.954775	0.409957
	N249	N	0.685920	0.029026	0.581984
	N250	N	0.326621	0.955148	0.581379
	N251	N	0.327014	0.029005	0.409421
	N252	N	0.920311	0.454928	0.172914
	N253	N	0.090595	0.529412	0.172408
	N254	N	0.089993	0.454570	0.817861
	N255	N	0.919757	0.529524	0.816942
	N256	N	0.183416	0.906959	0.457910
	N257	N	0.185106	0.078361	0.531481
	N258	N	0.827901	0.077565	0.457475
	N259	N	0.827905	0.906168	0.532450
	N260	N	0.467841	0.170705	0.909108
	N261	N	0.542267	0.171045	0.081236
	N262	N	0.468174	0.812580	0.080483
	N263	N	0.542477	0.812599	0.909246
	N264	N	0.468330	0.906238	0.173117
	N265	N	0.542844	0.077096	0.173165
	N266	N	0.468044	0.076661	0.816724
	N267	N	0.543182	0.906449	0.817224
	N268	N	0.921274	0.169610	0.457138
	N269	N	0.091471	0.169737	0.532148
	N270	N	0.090613	0.814865	0.457606
	N271	N	0.920256	0.813229	0.532253
	N272	N	0.184038	0.454869	0.909087
	N273	N	0.184693	0.528765	0.080794
	N274	N	0.826770	0.455535	0.080810
	N275	N	0.825936	0.529419	0.908866
	O276	O	0.896621	0.024817	0.965861
	H277	H	0.890528	0.020873	0.969000
	H278	H	0.894316	0.021421	0.969051
	O279	O	-0.066490	1.065212	0.970719
	H280	H	-0.063622	1.065499	0.968697
	H281	H	-0.074651	1.053123	0.979396
	O282	O	0.923731	1.054696	-0.023221
	H283	H	0.921553	1.059923	-0.024295
	H284	H	0.929702	1.067286	-0.025665
	O285	O	-0.094738	1.033963	0.992146
	H286	H	-0.100212	1.031400	0.984753
	H287	H	-0.092569	1.044638	0.987518
