data_Molecule from HDF5

_cell_length_a		16.693750
_cell_length_b		16.666691
_cell_length_c		16.572045
_cell_angle_alpha	89.761142
_cell_angle_beta	89.976937
_cell_angle_gamma	89.973449
_symmetry_space_group_name_H-M	'P 1'
_symmetry_Int_Tables_number		1

loop_
	_symmetry_equiv_pos_as_xyz
	x,y,z

loop_
	_atom_site_label
	_atom_site_type_symbol
	_atom_site_fract_x
	_atom_site_fract_y
	_atom_site_fract_z
	H0	H	0.363130	0.839309	0.739842
	H1	H	0.573427	0.148251	0.733573
	H2	H	0.576375	0.836927	0.296098
	H3	H	0.364979	0.146099	0.291404
	H4	H	0.689072	0.391549	0.856842
	H5	H	0.697143	0.600228	0.168416
	H6	H	0.251674	0.597992	0.860468
	H7	H	0.253614	0.388030	0.171954
	H8	H	0.816917	0.714878	0.408482
	H9	H	0.125469	0.715119	0.621021
	H10	H	0.815730	0.272950	0.619788
	H11	H	0.124927	0.269830	0.408737
	H12	H	0.816604	0.388655	0.736725
	H13	H	0.126930	0.596635	0.735007
	H14	H	0.817053	0.598545	0.292603
	H15	H	0.126847	0.389886	0.295811
	H16	H	0.364780	0.716598	0.861612
	H17	H	0.581397	0.715887	0.168590
	H18	H	0.574291	0.274799	0.857342
	H19	H	0.371747	0.273904	0.172603
	H20	H	0.693639	0.837727	0.410921
	H21	H	0.693244	0.145855	0.620933
	H22	H	0.245874	0.839266	0.624615
	H23	H	0.247443	0.145924	0.405959
	H24	H	0.867124	0.337880	0.236687
	H25	H	0.074349	0.649453	0.232398
	H26	H	0.074964	0.335871	0.796469
	H27	H	0.862808	0.645656	0.788315
	H28	H	0.192761	0.887935	0.360300
	H29	H	0.195364	0.101185	0.667762
	H30	H	0.748795	0.098527	0.360742
	H31	H	0.749322	0.884384	0.671078
	H32	H	0.317430	0.213461	0.910181
	H33	H	0.628358	0.211606	0.118953
	H34	H	0.319884	0.766685	0.126263
	H35	H	0.625314	0.769635	0.908982
	H36	H	0.320001	0.882925	0.241450
	H37	H	0.628110	0.094796	0.234812
	H38	H	0.317026	0.097281	0.794514
	H39	H	0.625895	0.887217	0.793857
	H40	H	0.863922	0.215753	0.360895
	H41	H	0.075931	0.213423	0.669922
	H42	H	0.077720	0.771806	0.359877
	H43	H	0.864510	0.768412	0.670256
	H44	H	0.192211	0.336615	0.911492
	H45	H	0.194096	0.646987	0.120252
	H46	H	0.750221	0.338074	0.121479
	H47	H	0.744167	0.644082	0.900903
	H48	H	0.385574	0.103753	0.606287
	H49	H	0.558171	0.878683	0.611751
	H50	H	0.563591	0.104771	0.427598
	H51	H	0.379934	0.883377	0.434473
	H52	H	0.558046	0.401569	0.125634
	H53	H	0.551480	0.582453	0.905341
	H54	H	0.387286	0.578467	0.125072
	H55	H	0.381428	0.405651	0.903772
	H56	H	0.084113	0.585069	0.424263
	H57	H	0.862477	0.577143	0.600734
	H58	H	0.084481	0.399746	0.607079
	H59	H	0.861159	0.402091	0.427991
	H60	H	0.082336	0.400744	0.601339
	H61	H	0.860951	0.579864	0.602846
	H62	H	0.081856	0.583251	0.427553
	H63	H	0.860875	0.406435	0.425937
	H64	H	0.384295	0.581411	0.127873
	H65	H	0.562370	0.581776	0.901547
	H66	H	0.563747	0.397557	0.129600
	H67	H	0.383868	0.398399	0.901474
	H68	H	0.559449	0.103640	0.423361
	H69	H	0.555611	0.883500	0.600442
	H70	H	0.383144	0.100535	0.598841
	H71	H	0.383032	0.880071	0.425845
	H72	H	0.882951	0.604338	0.102372
	H73	H	0.061992	0.379364	0.109853
	H74	H	0.069780	0.605184	0.928332
	H75	H	0.883622	0.382812	0.927300
	H76	H	0.052159	0.900776	0.625190
	H77	H	0.062485	0.079957	0.402538
	H78	H	0.881585	0.079277	0.627187
	H79	H	0.884500	0.910191	0.407768
	H80	H	0.583386	0.086054	0.928465
	H81	H	0.361408	0.078576	0.106730
	H82	H	0.580173	0.908203	0.100184
	H83	H	0.360034	0.901501	0.927680
	H84	H	0.584063	0.904789	0.108004
	H85	H	0.360380	0.085169	0.103887
	H86	H	0.582907	0.078818	0.923964
	H87	H	0.363079	0.905377	0.931962
	H88	H	0.883267	0.082437	0.627823
	H89	H	0.055422	0.078072	0.404982
	H90	H	0.063908	0.901205	0.629192
	H91	H	0.886848	0.899738	0.403504
	H92	H	0.061068	0.605210	0.917685
	H93	H	0.059823	0.382213	0.102673
	H94	H	0.884322	0.603157	0.101979
	H95	H	0.885160	0.383251	0.928769
	H96	H	0.377665	0.104858	0.603753
	H97	H	0.566925	0.878454	0.602802
	H98	H	0.558443	0.102280	0.429375
	H99	H	0.389053	0.885023	0.431314
	H100	H	0.564868	0.404845	0.126954
	H101	H	0.557626	0.573159	0.907700
	H102	H	0.382394	0.576475	0.127277
	H103	H	0.376973	0.400734	0.900624
	H104	H	0.082042	0.580911	0.423897
	H105	H	0.862459	0.581493	0.599723
	H106	H	0.082235	0.404852	0.605783
	H107	H	0.858256	0.402808	0.424265
	H108	H	0.882664	0.602602	0.100762
	H109	H	0.067543	0.380765	0.104164
	H110	H	0.057196	0.600564	0.929601
	H111	H	0.883287	0.382778	0.929695
	H112	H	0.058432	0.911578	0.624448
	H113	H	0.057601	0.085008	0.402459
	H114	H	0.879866	0.081850	0.628120
	H115	H	0.876937	0.904636	0.401687
	H116	H	0.586294	0.085544	0.920193
	H117	H	0.363010	0.080347	0.099938
	H118	H	0.583255	0.899517	0.100582
	H119	H	0.360892	0.907588	0.926426
	C120	C	0.348570	0.001318	0.636901
	C121	C	0.592245	0.983221	0.636588
	C122	C	0.593037	0.000905	0.394911
	C123	C	0.350706	0.984244	0.394982
	C124	C	0.593132	0.370867	0.023420
	C125	C	0.592305	0.612767	1.006613
	C126	C	0.351401	0.612641	0.024456
	C127	C	0.350833	0.370849	1.006366
	C128	C	-0.019706	0.615031	0.392848
	C129	C	0.963712	0.612733	0.634915
	C130	C	-0.019832	0.370493	0.636844
	C131	C	0.962821	0.371727	0.394023
	C132	C	0.850514	0.501357	0.135434
	C133	C	0.094054	0.484025	0.136402
	C134	C	0.093882	0.500534	0.894136
	C135	C	0.850315	0.484250	0.893164
	C136	C	0.091520	0.872037	0.523691
	C137	C	0.091680	0.113823	0.505811
	C138	C	0.849187	0.113805	0.524609
	C139	C	0.849837	0.871061	0.506711
	C140	C	0.480988	0.114607	0.892974
	C141	C	0.464045	0.113049	0.135936
	C142	C	0.481215	0.870170	0.137577
	C143	C	0.462830	0.871674	0.895152
	C144	C	0.345177	0.885391	0.698851
	C145	C	0.593072	0.100983	0.694723
	C146	C	0.595088	0.883805	0.335552
	C147	C	0.347364	0.099988	0.332391
	C148	C	0.650447	0.371728	0.904489
	C149	C	0.655534	0.617299	0.122206
	C150	C	0.291097	0.616421	0.907301
	C151	C	0.293368	0.369742	0.124965
	C152	C	0.863464	0.674811	0.390424
	C153	C	0.079319	0.674173	0.638455
	C154	C	0.862671	0.312250	0.638393
	C155	C	0.078911	0.310788	0.391102
	C156	C	0.863004	0.369652	0.696454
	C157	C	0.080182	0.615295	0.695274
	C158	C	0.863632	0.617157	0.332662
	C159	C	0.079777	0.370271	0.334895
	C160	C	0.347341	0.675186	0.907968
	C161	C	0.597998	0.674695	0.122586
	C162	C	0.593352	0.313739	0.904689
	C163	C	0.351781	0.312910	0.125310
	C164	C	0.653275	0.884148	0.392718
	C165	C	0.652571	0.099820	0.638870
	C166	C	0.286883	0.885609	0.641669
	C167	C	0.288783	0.099800	0.389260
	C168	C	0.848244	0.384638	0.196555
	C169	C	0.093977	0.601967	0.193941
	C170	C	0.094044	0.382839	0.835944
	C171	C	0.845570	0.599350	0.829563
	C172	C	0.152491	0.869604	0.406736
	C173	C	0.153658	0.118131	0.621955
	C174	C	0.788515	0.117020	0.407605
	C175	C	0.789373	0.866963	0.624111
	C176	C	0.363991	0.173464	0.891767
	C177	C	0.581326	0.171929	0.137568
	C178	C	0.366071	0.807784	0.143108
	C179	C	0.579014	0.810527	0.891417
	C180	C	0.366167	0.865604	0.200532
	C181	C	0.581282	0.113996	0.195280
	C182	C	0.363595	0.115786	0.834317
	C183	C	0.579357	0.868927	0.834093
	C184	C	0.845790	0.174902	0.407577
	C185	C	0.094454	0.173885	0.622970
	C186	C	0.095474	0.811664	0.406936
	C187	C	0.846364	0.808908	0.623430
	C188	C	0.152474	0.383259	0.892942
	C189	C	0.153468	0.600863	0.138054
	C190	C	0.790049	0.384903	0.139348
	C191	C	0.786579	0.598691	0.885898
	C192	C	0.374704	0.082145	0.610395
	C193	C	0.567426	0.901505	0.611950
	C194	C	0.567792	0.082207	0.419821
	C195	C	0.376682	0.903857	0.422625
	C196	C	0.569288	0.394452	0.105922
	C197	C	0.564874	0.586601	0.925837
	C198	C	0.377314	0.586228	0.105663
	C199	C	0.374032	0.394830	0.923473
	C200	C	0.061591	0.590218	0.418177
	C201	C	0.882915	0.586830	0.608826
	C202	C	0.061795	0.394967	0.611832
	C203	C	0.881416	0.396603	0.419027
	C204	C	0.876020	0.582296	0.109224
	C205	C	0.070150	0.402327	0.112453
	C206	C	0.069777	0.582436	0.918510
	C207	C	0.876795	0.403875	0.920861
	C208	C	0.065587	0.897339	0.605046
	C209	C	0.066128	0.088086	0.424510
	C210	C	0.874444	0.088443	0.606360
	C211	C	0.875350	0.897441	0.425517
	C212	C	0.562984	0.090299	0.917246
	C213	C	0.382885	0.088409	0.110723
	C214	C	0.561718	0.896640	0.110473
	C215	C	0.382293	0.897487	0.921257
	Zn216	Zn	0.470921	-0.007362	0.765141
	Zn217	Zn	0.472159	-0.007870	0.265347
	Zn218	Zn	0.721197	0.492744	0.013851
	Zn219	Zn	0.222895	0.491849	0.015467
	Zn220	Zn	-0.028937	0.743211	0.514507
	Zn221	Zn	-0.029478	0.242109	0.515265
	Zn222	Zn	-0.027677	0.492251	0.765057
	Zn223	Zn	-0.028396	0.493295	0.264577
	Zn224	Zn	0.472099	0.741757	0.015868
	Zn225	Zn	0.472350	0.242760	0.014990
	Zn226	Zn	0.721615	-0.008232	0.515841
	Zn227	Zn	0.220343	-0.007459	0.515068
	N228	N	0.383063	0.958406	0.696046
	N229	N	0.556383	0.027305	0.693624
	N230	N	0.558336	0.957537	0.336525
	N231	N	0.385386	0.026911	0.335734
	N232	N	0.650661	0.406385	0.979499
	N233	N	0.652105	0.579431	0.049025
	N234	N	0.293216	0.578346	0.980806
	N235	N	0.292435	0.404596	0.049831
	N236	N	0.937109	0.673672	0.427086
	N237	N	0.005813	0.672721	0.601481
	N238	N	0.936778	0.312239	0.602346
	N239	N	0.004960	0.311459	0.427236
	N240	N	0.937376	0.404823	0.695950
	N241	N	0.007099	0.577789	0.693287
	N242	N	0.937283	0.580672	0.333912
	N243	N	0.006518	0.407498	0.336441
	N244	N	0.383907	0.673324	0.982036
	N245	N	0.559162	0.671911	0.049745
	N246	N	0.558669	0.312752	0.979868
	N247	N	0.386683	0.313136	0.050290
	N248	N	0.652412	0.958168	0.428512
	N249	N	0.652463	0.025277	0.603769
	N250	N	0.289001	0.958858	0.603818
	N251	N	0.290822	0.026862	0.427700
	N252	N	0.885099	0.458206	0.194426
	N253	N	0.058013	0.528115	0.193603
	N254	N	0.058363	0.457007	0.836158
	N255	N	0.884910	0.527151	0.834073
	N256	N	0.150321	0.906562	0.480547
	N257	N	0.152015	0.081262	0.548222
	N258	N	0.790483	0.079704	0.481465
	N259	N	0.791232	0.904903	0.550434
	N260	N	0.438118	0.173102	0.927296
	N261	N	0.507287	0.171907	0.101589
	N262	N	0.438791	0.810259	0.104684
	N263	N	0.505674	0.812087	0.928799
	N264	N	0.439033	0.903713	0.197216
	N265	N	0.507236	0.078216	0.194593
	N266	N	0.437737	0.079983	0.834632
	N267	N	0.505892	0.906002	0.835825
	N268	N	0.882853	0.173122	0.481432
	N269	N	0.056467	0.171458	0.549710
	N270	N	0.058263	0.813015	0.480610
	N271	N	0.883404	0.811293	0.549513
	N272	N	0.152558	0.457617	0.928402
	N273	N	0.153812	0.526383	0.103128
	N274	N	0.790932	0.458684	0.102145
	N275	N	0.789698	0.526133	0.925194
	O276	O	0.377712	1.472332	0.449698
	H277	H	0.369296	1.465954	0.455977
	H278	H	0.381965	1.465331	0.458337
	O279	O	-0.059487	0.043451	0.109080
	H280	H	-0.057598	0.055975	0.087642
	H281	H	-0.061451	0.040619	0.110387
	O282	O	1.058399	0.126071	1.207175
	H283	H	1.020161	0.124227	1.212494
	H284	H	1.060809	0.107978	1.174472
	O285	O	-0.163369	0.765679	-0.001640
	H286	H	-0.166998	0.764943	-0.016334
	H287	H	-0.165192	0.773162	-0.015323
	O288	O	0.935874	1.214855	-0.209086
	H289	H	0.924433	1.236474	-0.229680
	H290	H	0.900011	1.217082	-0.211048
	O291	O	0.260026	0.713208	0.491297
	H292	H	0.245147	0.705628	0.493303
	H293	H	0.247501	0.714230	0.478562
	O294	O	1.675383	0.692683	0.315711
	H295	H	1.651198	0.687504	0.327430
	H296	H	1.681552	0.705591	0.304514
	O297	O	1.193095	-0.022559	-0.203610
	H298	H	1.199626	-0.044369	-0.220278
	H299	H	1.192337	-0.030732	-0.210056
	O300	O	0.305904	0.307698	1.265170
	H301	H	0.314143	0.307985	1.261044
	H302	H	0.265915	0.314712	1.256364
	O303	O	0.512059	0.269887	0.301398
	H304	H	0.503241	0.265420	0.286621
	H305	H	0.496581	0.282380	0.288686
	O306	O	0.666277	0.624294	0.721767
	H307	H	0.663037	0.601845	0.716985
	H308	H	0.670518	0.613597	0.703119
	O309	O	0.779704	0.182725	0.204703
	H310	H	0.770379	0.201989	0.219943
	H311	H	0.801357	0.162155	0.209968
	O312	O	0.255250	0.513350	0.302636
	H313	H	0.248323	0.505749	0.294898
	H314	H	0.250315	0.518016	0.301338
	O315	O	0.765963	1.198819	0.808728
	H316	H	0.735425	1.220574	0.781099
	H317	H	0.761527	1.162820	0.813432
	O318	O	0.508470	0.450034	0.702189
	H319	H	0.496323	0.437632	0.707885
	H320	H	0.496484	0.466841	0.707034
	O321	O	0.354100	0.380441	0.344906
	H322	H	0.361332	0.388521	0.345128
	H323	H	0.335316	0.376249	0.337205
	O324	O	1.285678	0.668528	-0.300803
	H325	H	1.295341	0.664736	-0.300531
	H326	H	1.280109	0.670930	-0.300582
	O327	O	0.500531	0.265542	1.558400
	H328	H	0.505290	0.262221	1.539311
	H329	H	0.498011	0.272165	1.551087
	O330	O	0.694435	0.461759	0.295093
	H331	H	0.721817	0.464558	0.260940
	H332	H	0.676105	0.463313	0.304989
	O333	O	0.970931	0.165367	0.033137
	H334	H	0.961040	0.158294	0.031874
	H335	H	0.951302	0.167939	0.018407
	O336	O	0.413610	0.477946	0.730317
	H337	H	0.407798	0.481040	0.741483
	H338	H	0.398766	0.490114	0.726183
	O339	O	1.283160	-0.524556	0.735635
	H340	H	1.270075	-0.530535	0.745798
	H341	H	1.275490	-0.551851	0.743766
	O342	O	0.194618	0.011561	0.224378
	H343	H	0.210747	0.008036	0.233597
	H344	H	0.177392	0.015464	0.235090
	O345	O	-0.319436	0.292607	1.315987
	H346	H	-0.351225	0.301544	1.309969
	H347	H	-0.318623	0.305247	1.321795
	O348	O	-0.200445	-0.013245	0.071576
	H349	H	-0.196910	-0.006741	0.051623
	H350	H	-0.200285	-0.007708	0.074957
	O351	O	1.439698	0.726955	-0.457050
	H352	H	1.422444	0.730459	-0.457671
	H353	H	1.429152	0.721954	-0.446212
	O354	O	0.201206	0.216617	1.046493
	H355	H	0.217844	0.243739	1.057425
	H356	H	0.183315	0.226768	1.050171
	O357	O	0.961155	0.210621	0.095682
	H358	H	0.936002	0.209397	0.101964
	H359	H	0.953348	0.204062	0.081542
	O360	O	0.034852	-0.071438	1.226360
	H361	H	0.024671	-0.090705	1.236595
	H362	H	0.019888	-0.071054	1.217444
	O363	O	0.008722	-0.215376	-0.203741
	H364	H	0.011499	-0.219620	-0.200322
	H365	H	0.003733	-0.233416	-0.203215
	O366	O	0.689259	0.704655	0.538286
	H367	H	0.670996	0.705114	0.528679
	H368	H	0.699056	0.727586	0.533045
	O369	O	0.447962	0.711957	0.297467
	H370	H	0.419995	0.724517	0.284134
	H371	H	0.436468	0.717843	0.288599
	O372	O	1.119914	0.967345	0.017929
	H373	H	1.111620	0.968364	0.018663
	H374	H	1.129599	0.983611	0.007579
	O375	O	0.756833	-0.090302	-0.075162
	H376	H	0.752561	-0.073745	-0.079624
	H377	H	0.766208	-0.100718	-0.089620
	O378	O	1.011545	1.039083	-0.207253
	H379	H	1.019852	1.029225	-0.213700
	H380	H	1.008095	1.063373	-0.208338
	O381	O	-0.002247	1.186540	1.204043
	H382	H	-0.008037	1.180002	1.207360
	H383	H	-0.020560	1.198875	1.209770
	O384	O	0.662336	0.297491	0.706050
	H385	H	0.647145	0.306743	0.685488
	H386	H	0.646937	0.324753	0.695603
	O387	O	0.754799	0.957643	0.235594
	H388	H	0.742785	0.969374	0.236302
	H389	H	0.748525	0.947444	0.241902
	O390	O	0.942691	0.778524	0.231585
	H391	H	0.930726	0.760659	0.237118
	H392	H	0.917022	0.772060	0.230602
	O393	O	0.446397	0.415747	0.544804
	H394	H	0.456217	0.414531	0.541724
	H395	H	0.442899	0.425121	0.547215
	O396	O	0.037610	0.808557	1.091738
	H397	H	0.049478	0.804080	1.088776
	H398	H	0.044731	0.814937	1.092735
	O399	O	0.042563	-0.037673	0.951619
	H400	H	0.037052	-0.019196	0.943757
	H401	H	0.040615	-0.035481	0.965853
	O402	O	-0.249339	0.031629	0.794064
	H403	H	-0.247219	0.022578	0.772995
	H404	H	-0.259618	0.017743	0.791577
	O405	O	1.242559	0.453817	0.472589
	H406	H	1.249702	0.450897	0.463496
	H407	H	1.240081	0.459857	0.478549
	O408	O	-0.047092	0.030488	0.191664
	H409	H	-0.041143	0.008876	0.188978
	H410	H	-0.039231	0.025548	0.187439
	O411	O	0.901772	0.926533	0.786976
	H412	H	0.904351	0.924406	0.798335
	H413	H	0.912613	0.922383	0.779157
	O414	O	0.545928	0.542972	0.657795
	H415	H	0.542050	0.548190	0.653475
	H416	H	0.550801	0.534154	0.657030
	O417	O	0.547837	0.527667	0.298835
	H418	H	0.521911	0.537492	0.302575
	H419	H	0.563313	0.532212	0.297471
	O420	O	0.690827	0.464195	0.518346
	H421	H	0.692797	0.461122	0.501992
	H422	H	0.692454	0.462257	0.499062
	O423	O	0.180762	-0.220074	0.806615
	H424	H	0.184359	-0.233270	0.819048
	H425	H	0.161057	-0.202608	0.817624
	O426	O	0.449687	0.549166	0.504752
	H427	H	0.460986	0.547886	0.513366
	H428	H	0.442912	0.556881	0.507103
	O429	O	0.977858	0.816967	0.925445
	H430	H	0.975564	0.805473	0.942729
	H431	H	0.984090	0.814838	0.934447
	O432	O	0.533452	0.689668	0.422669
	H433	H	0.525198	0.690884	0.409988
	H434	H	0.506383	0.696049	0.423055
	O435	O	0.345045	0.274389	0.451192
	H436	H	0.356353	0.279777	0.455082
	H437	H	0.321522	0.258159	0.435274
	O438	O	0.203388	-0.235195	0.249886
	H439	H	0.193880	-0.232289	0.229867
	H440	H	0.191761	-0.224453	0.256507
	O441	O	-0.061044	-0.143101	-0.041216
	H442	H	-0.065250	-0.147383	-0.053753
	H443	H	-0.062081	-0.140262	-0.037736
	O444	O	0.257017	0.323390	0.585778
	H445	H	0.256757	0.319875	0.583127
	H446	H	0.250926	0.324627	0.579347
	O447	O	0.134697	1.061824	1.002786
	H448	H	0.127063	1.069227	0.993017
	H449	H	0.147884	1.077130	0.999123
	O450	O	-0.166188	0.860205	1.069003
	H451	H	-0.154669	0.871618	1.056815
	H452	H	-0.173882	0.861212	1.060692
	O453	O	0.493946	0.717032	0.734863
	H454	H	0.510304	0.724048	0.741719
	H455	H	0.504706	0.728366	0.739822
	O456	O	-0.179691	0.070615	1.014538
	H457	H	-0.185771	0.076470	1.022606
	H458	H	-0.187580	0.089029	1.025270
	O459	O	1.163488	1.178885	-0.178410
	H460	H	1.169303	1.164797	-0.175728
	H461	H	1.146988	1.181520	-0.172950
	O462	O	0.267123	0.287720	0.719303
	H463	H	0.254683	0.282537	0.714915
	H464	H	0.284048	0.280348	0.699095
	O465	O	1.195715	-0.227826	-0.010289
	H466	H	1.198127	-0.194783	0.001853
	H467	H	1.227738	-0.250899	-0.012744
	O468	O	0.285840	0.596065	0.570485
	H469	H	0.289418	0.608284	0.577557
	H470	H	0.282562	0.581887	0.586103
	O471	O	0.756546	0.780109	0.205330
	H472	H	0.759290	0.784623	0.167393
	H473	H	0.746792	0.786607	0.215506
	O474	O	0.730360	0.756293	0.777628
	H475	H	0.736779	0.757420	0.763886
	H476	H	0.725037	0.730807	0.773068
	O477	O	0.623171	0.541550	1.467394
	H478	H	0.621961	0.565776	1.478756
	H479	H	0.619476	0.545515	1.446160
	O480	O	0.689557	0.273627	0.488985
	H481	H	0.708711	0.250404	0.476630
	H482	H	0.677279	0.272531	0.467688
	O483	O	0.458482	0.270023	0.700094
	H484	H	0.472732	0.246618	0.713571
	H485	H	0.454525	0.272719	0.703968
	O486	O	0.680239	0.463515	0.661368
	H487	H	0.679122	0.448259	0.637527
	H488	H	0.670506	0.455854	0.661421
	O489	O	1.208020	0.849516	0.136203
	H490	H	1.209527	0.846212	0.147996
	H491	H	1.193632	0.863109	0.123250
	O492	O	-0.251527	0.221907	-0.022963
	H493	H	-0.254882	0.216634	-0.053767
	H494	H	-0.278997	0.242274	-0.026265
	O495	O	0.025753	1.170841	0.924021
	H496	H	0.019787	1.170898	0.904942
	H497	H	0.030250	1.162197	0.915115
	O498	O	1.495515	1.385871	1.445031
	H499	H	1.497735	1.376607	1.438476
	H500	H	1.491498	1.391204	1.443051
	O501	O	0.311745	0.666567	0.349755
	H502	H	0.287953	0.688612	0.338687
	H503	H	0.309978	0.651038	0.368840
