data_Molecule from HDF5

_cell_length_a		16.632591
_cell_length_b		16.288518
_cell_length_c		16.245418
_cell_angle_alpha	89.756166
_cell_angle_beta	89.749484
_cell_angle_gamma	90.000101
_symmetry_space_group_name_H-M	'P 1'
_symmetry_Int_Tables_number		1

loop_
	_symmetry_equiv_pos_as_xyz
	x,y,z

loop_
	_atom_site_label
	_atom_site_type_symbol
	_atom_site_fract_x
	_atom_site_fract_y
	_atom_site_fract_z
	H0	H	0.399515	0.836532	0.714272
	H1	H	0.593851	0.162264	0.706264
	H2	H	0.603374	0.838048	0.278860
	H3	H	0.398159	0.159379	0.278084
	H4	H	0.720306	0.395558	0.838276
	H5	H	0.722861	0.607446	0.156728
	H6	H	0.279638	0.606481	0.837528
	H7	H	0.275132	0.388844	0.156974
	H8	H	0.842496	0.718189	0.396131
	H9	H	0.158670	0.720718	0.600935
	H10	H	0.842936	0.279590	0.600792
	H11	H	0.158007	0.275038	0.390561
	H12	H	0.843597	0.398674	0.716511
	H13	H	0.160716	0.600759	0.715350
	H14	H	0.843421	0.603068	0.277905
	H15	H	0.158017	0.391398	0.272852
	H16	H	0.399690	0.717625	0.834609
	H17	H	0.600853	0.716282	0.158671
	H18	H	0.598726	0.285240	0.836105
	H19	H	0.395962	0.278455	0.159689
	H20	H	0.723270	0.840235	0.388662
	H21	H	0.718115	0.158312	0.599660
	H22	H	0.278586	0.838542	0.604861
	H23	H	0.278498	0.157849	0.388832
	H24	H	0.899714	0.337777	0.215528
	H25	H	0.103244	0.659258	0.216603
	H26	H	0.102877	0.336249	0.781117
	H27	H	0.903199	0.661331	0.780620
	H28	H	0.223209	0.891213	0.338284
	H29	H	0.218644	0.102372	0.658203
	H30	H	0.778240	0.106914	0.336789
	H31	H	0.778805	0.891972	0.657980
	H32	H	0.341072	0.218866	0.896920
	H33	H	0.658306	0.217732	0.100285
	H34	H	0.343389	0.777119	0.101422
	H35	H	0.659024	0.779727	0.891673
	H36	H	0.344349	0.892063	0.220976
	H37	H	0.657797	0.101702	0.216172
	H38	H	0.339589	0.100983	0.780110
	H39	H	0.659391	0.900528	0.778681
	H40	H	0.899384	0.217152	0.334646
	H41	H	0.097603	0.212558	0.659854
	H42	H	0.100038	0.783404	0.334765
	H43	H	0.900475	0.782990	0.660851
	H44	H	0.223637	0.339859	0.891931
	H45	H	0.222702	0.658101	0.104928
	H46	H	0.779629	0.339982	0.106054
	H47	H	0.779769	0.658553	0.888644
	H48	H	0.412530	0.112145	0.587171
	H49	H	0.589387	0.881324	0.590427
	H50	H	0.593673	0.115498	0.404828
	H51	H	0.415755	0.885697	0.407929
	H52	H	0.598737	0.410355	0.116486
	H53	H	0.591342	0.585648	0.882891
	H54	H	0.409720	0.589928	0.112684
	H55	H	0.409231	0.418820	0.886864
	H56	H	0.112620	0.585982	0.404753
	H57	H	0.888801	0.593761	0.585145
	H58	H	0.115224	0.407264	0.592555
	H59	H	0.893130	0.415098	0.410621
	H60	H	0.115047	0.401269	0.586629
	H61	H	0.890344	0.584613	0.589883
	H62	H	0.114445	0.592731	0.405297
	H63	H	0.887390	0.408409	0.401011
	H64	H	0.407407	0.583595	0.111689
	H65	H	0.591769	0.587447	0.882727
	H66	H	0.588823	0.414273	0.112437
	H67	H	0.418409	0.410558	0.886881
	H68	H	0.586827	0.111726	0.407515
	H69	H	0.588808	0.883809	0.583245
	H70	H	0.403806	0.113164	0.580262
	H71	H	0.411055	0.886824	0.417886
	H72	H	0.908781	0.613116	0.081316
	H73	H	0.095778	0.383293	0.084130
	H74	H	0.093270	0.614724	0.904740
	H75	H	0.909458	0.385155	0.911526
	H76	H	0.091600	0.906231	0.614659
	H77	H	0.093574	0.093518	0.378633
	H78	H	0.909213	0.087087	0.611929
	H79	H	0.904692	0.907921	0.380559
	H80	H	0.612373	0.086340	0.899011
	H81	H	0.391005	0.082243	0.082415
	H82	H	0.613342	0.903605	0.082748
	H83	H	0.387373	0.902322	0.912558
	H84	H	0.609483	0.913115	0.083449
	H85	H	0.387273	0.085127	0.093862
	H86	H	0.615748	0.097406	0.899813
	H87	H	0.389920	0.913571	0.906182
	H88	H	0.906331	0.088008	0.612448
	H89	H	0.096972	0.079836	0.382982
	H90	H	0.093121	0.915393	0.611517
	H91	H	0.909344	0.915965	0.384676
	H92	H	0.087720	0.611664	0.907583
	H93	H	0.086356	0.385707	0.088759
	H94	H	0.908616	0.615529	0.088284
	H95	H	0.906717	0.383413	0.907973
	H96	H	0.402600	0.116295	0.591067
	H97	H	0.594808	0.881294	0.585659
	H98	H	0.592954	0.112115	0.412950
	H99	H	0.405278	0.883053	0.409113
	H100	H	0.589912	0.403350	0.115638
	H101	H	0.592646	0.586359	0.882561
	H102	H	0.413853	0.584594	0.109546
	H103	H	0.407373	0.407501	0.881063
	H104	H	0.112546	0.589552	0.410632
	H105	H	0.886352	0.592836	0.595835
	H106	H	0.112785	0.408948	0.584796
	H107	H	0.888868	0.402518	0.412499
	H108	H	0.914978	0.612139	0.085472
	H109	H	0.087530	0.388425	0.078467
	H110	H	0.093953	0.613485	0.911670
	H111	H	0.911610	0.383785	0.907043
	H112	H	0.084614	0.910712	0.609664
	H113	H	0.083576	0.084696	0.384870
	H114	H	0.906541	0.085425	0.610821
	H115	H	0.914541	0.907115	0.382870
	H116	H	0.610372	0.092037	0.908875
	H117	H	0.386657	0.093668	0.084966
	H118	H	0.614498	0.909018	0.091770
	H119	H	0.384587	0.903902	0.900176
	C120	C	0.376532	0.007335	0.618731
	C121	C	0.620171	0.989551	0.616615
	C122	C	0.622499	0.007520	0.375975
	C123	C	0.379342	0.990613	0.377522
	C124	C	0.622043	0.378271	0.008039
	C125	C	0.622819	0.619361	0.988685
	C126	C	0.379378	0.619293	0.005251
	C127	C	0.378894	0.378453	0.990433
	C128	C	0.008918	0.620686	0.375995
	C129	C	0.993421	0.621117	0.620237
	C130	C	0.009577	0.375879	0.619444
	C131	C	0.993354	0.376245	0.374916
	C132	C	0.879657	0.507823	0.118284
	C133	C	0.122004	0.490752	0.117556
	C134	C	0.123214	0.507202	0.876081
	C135	C	0.879558	0.490390	0.876271
	C136	C	0.121170	0.878243	0.505961
	C137	C	0.120895	0.117696	0.488849
	C138	C	0.877687	0.119203	0.504974
	C139	C	0.878478	0.878167	0.489331
	C140	C	0.507859	0.122398	0.873796
	C141	C	0.491976	0.119187	0.118801
	C142	C	0.508996	0.876308	0.118779
	C143	C	0.491934	0.876634	0.874306
	C144	C	0.378390	0.885452	0.676766
	C145	C	0.616336	0.112682	0.670722
	C146	C	0.622982	0.886485	0.317336
	C147	C	0.378762	0.110991	0.316963
	C148	C	0.680336	0.377107	0.886550
	C149	C	0.682314	0.623686	0.109057
	C150	C	0.320220	0.623123	0.884907
	C151	C	0.316822	0.372865	0.109654
	C152	C	0.890119	0.679140	0.376355
	C153	C	0.111929	0.680533	0.620324
	C154	C	0.890412	0.318703	0.620064
	C155	C	0.110921	0.315279	0.372060
	C156	C	0.890598	0.377906	0.677330
	C157	C	0.112870	0.621183	0.677280
	C158	C	0.890510	0.621712	0.317451
	C159	C	0.111073	0.373766	0.313660
	C160	C	0.379768	0.678783	0.883725
	C161	C	0.621596	0.677873	0.110106
	C162	C	0.619724	0.322412	0.885327
	C163	C	0.376900	0.317536	0.111078
	C164	C	0.682693	0.887740	0.371894
	C165	C	0.677877	0.110561	0.617545
	C166	C	0.318279	0.886505	0.622036
	C167	C	0.319242	0.110254	0.372401
	C168	C	0.879627	0.386614	0.177455
	C169	C	0.122960	0.611291	0.177228
	C170	C	0.123126	0.385474	0.818734
	C171	C	0.881996	0.612322	0.818510
	C172	C	0.181792	0.874626	0.385558
	C173	C	0.178943	0.119972	0.610092
	C174	C	0.819054	0.122956	0.384464
	C175	C	0.819241	0.875287	0.610050
	C176	C	0.388502	0.180023	0.876173
	C177	C	0.610554	0.178627	0.119445
	C178	C	0.390539	0.816661	0.120566
	C179	C	0.611472	0.819158	0.873521
	C180	C	0.390983	0.873981	0.179767
	C181	C	0.610421	0.120609	0.177197
	C182	C	0.387863	0.121336	0.818054
	C183	C	0.611503	0.878823	0.816566
	C184	C	0.879086	0.178250	0.383461
	C185	C	0.118947	0.174944	0.610947
	C186	C	0.120709	0.820845	0.383847
	C187	C	0.879640	0.820442	0.611466
	C188	C	0.183075	0.387141	0.873872
	C189	C	0.182258	0.610575	0.121636
	C190	C	0.819703	0.387763	0.122852
	C191	C	0.820688	0.610897	0.872438
	C192	C	0.399736	0.091907	0.593658
	C193	C	0.597500	0.904424	0.593293
	C194	C	0.598122	0.091318	0.401210
	C195	C	0.403689	0.906915	0.404077
	C196	C	0.599118	0.402404	0.092759
	C197	C	0.599057	0.593838	0.904542
	C198	C	0.403410	0.593543	0.089380
	C199	C	0.404524	0.404894	0.906549
	C200	C	0.091636	0.596365	0.399922
	C201	C	0.910219	0.597453	0.596889
	C202	C	0.092872	0.399025	0.595060
	C203	C	0.911113	0.401521	0.400668
	C204	C	0.903980	0.591799	0.092413
	C205	C	0.097088	0.407577	0.091455
	C206	C	0.098821	0.591344	0.900886
	C207	C	0.902783	0.406090	0.901551
	C208	C	0.096701	0.903200	0.589988
	C209	C	0.098079	0.093197	0.404275
	C210	C	0.900772	0.094089	0.589657
	C211	C	0.902562	0.903273	0.404815
	C212	C	0.591101	0.098740	0.896034
	C213	C	0.409812	0.094296	0.094229
	C214	C	0.590998	0.901260	0.093288
	C215	C	0.408893	0.899729	0.899034
	Zn216	Zn	0.499035	-0.000994	0.744956
	Zn217	Zn	0.500782	-0.001783	0.249096
	Zn218	Zn	0.751350	0.499230	-0.001712
	Zn219	Zn	0.250781	0.499263	-0.002576
	Zn220	Zn	0.000983	0.750337	0.497887
	Zn221	Zn	0.000702	0.246327	0.497043
	Zn222	Zn	0.002322	0.498696	0.748453
	Zn223	Zn	0.000597	0.499363	0.245665
	Zn224	Zn	0.500951	0.746834	-0.003237
	Zn225	Zn	0.499864	0.250182	-0.001318
	Zn226	Zn	0.749339	-0.001969	0.496859
	Zn227	Zn	0.249840	-0.001414	0.497011
	N228	N	0.414004	0.961662	0.674769
	N229	N	0.581160	0.036298	0.670495
	N230	N	0.586118	0.962057	0.319646
	N231	N	0.415454	0.035422	0.319956
	N232	N	0.682202	0.410847	0.963903
	N233	N	0.683258	0.588236	0.032376
	N234	N	0.319818	0.587004	0.961484
	N235	N	0.318195	0.410184	0.033701
	N236	N	0.964743	0.678526	0.412080
	N237	N	0.036507	0.680816	0.585846
	N238	N	0.965523	0.317394	0.584884
	N239	N	0.036625	0.316722	0.409379
	N240	N	0.966025	0.412179	0.677423
	N241	N	0.038256	0.584973	0.677188
	N242	N	0.965482	0.586197	0.316979
	N243	N	0.037020	0.411032	0.315391
	N244	N	0.415878	0.676392	0.959680
	N245	N	0.585504	0.675489	0.034141
	N246	N	0.584316	0.322914	0.961973
	N247	N	0.415145	0.321283	0.035952
	N248	N	0.682470	0.963933	0.407427
	N249	N	0.680438	0.032797	0.585195
	N250	N	0.317079	0.963297	0.586860
	N251	N	0.319576	0.034380	0.409443
	N252	N	0.916193	0.462272	0.174545
	N253	N	0.086264	0.535771	0.174918
	N254	N	0.086577	0.461193	0.820107
	N255	N	0.918106	0.536368	0.820821
	N256	N	0.182205	0.909597	0.462466
	N257	N	0.180427	0.085423	0.533071
	N258	N	0.818054	0.087016	0.461214
	N259	N	0.818373	0.910231	0.532916
	N260	N	0.464204	0.181119	0.909753
	N261	N	0.535780	0.177951	0.083911
	N262	N	0.464806	0.818003	0.083410
	N263	N	0.535936	0.817453	0.908368
	N264	N	0.465493	0.910237	0.178766
	N265	N	0.535820	0.084423	0.176967
	N266	N	0.463162	0.086415	0.816149
	N267	N	0.536239	0.913764	0.816953
	N268	N	0.914781	0.176042	0.459573
	N269	N	0.083568	0.173593	0.534598
	N270	N	0.083630	0.823077	0.459569
	N271	N	0.915959	0.822113	0.535358
	N272	N	0.183181	0.463894	0.908526
	N273	N	0.181844	0.534543	0.085616
	N274	N	0.819709	0.464190	0.086598
	N275	N	0.819126	0.534208	0.907892
	O276	O	0.497766	0.395560	0.412042
	H277	H	0.493042	0.388603	0.418639
	H278	H	0.486981	0.405680	0.415407
	O279	O	0.551456	0.646315	0.451466
	H280	H	0.534332	0.648755	0.450572
	H281	H	0.542837	0.642486	0.445157
	O282	O	0.507894	0.638223	0.689641
	H283	H	0.517335	0.652829	0.707144
	H284	H	0.537180	0.634904	0.689900
	O285	O	1.002596	1.138241	0.078105
	H286	H	1.000011	1.140964	0.073721
	H287	H	1.001874	1.145894	0.071118
	O288	O	0.295890	0.480948	0.433991
	H289	H	0.290743	0.483868	0.449097
	H290	H	0.299774	0.460288	0.437582
	O291	O	0.526038	0.298720	0.304226
	H292	H	0.529487	0.305126	0.294770
	H293	H	0.525078	0.295874	0.301955
	O294	O	0.992699	0.906998	1.120540
	H295	H	0.995377	0.915917	1.109038
	H296	H	1.001870	0.926994	1.128641
	O297	O	0.696043	0.343838	0.309473
	H298	H	0.706975	0.374226	0.296977
	H299	H	0.673636	0.345665	0.305995
	O300	O	0.616023	0.332969	0.472595
	H301	H	0.629616	0.324259	0.476905
	H302	H	0.600764	0.338996	0.458685
	O303	O	0.308164	0.692975	0.310338
	H304	H	0.298448	0.671062	0.330294
	H305	H	0.298771	0.689727	0.298843
	O306	O	0.054449	-0.189141	1.005462
	H307	H	0.045330	-0.181862	1.001273
	H308	H	0.035405	-0.176826	1.006076
	O309	O	0.816625	0.074393	-0.110161
	H310	H	0.804152	0.072530	-0.122033
	H311	H	0.804571	0.091254	-0.109959
	O312	O	0.401461	0.468605	0.434518
	H313	H	0.399828	0.457628	0.442163
	H314	H	0.411995	0.466918	0.437830
	O315	O	0.517543	0.358717	0.374383
	H316	H	0.501347	0.369684	0.366875
	H317	H	0.515204	0.370016	0.367019
	O318	O	-0.006526	-0.092898	0.091396
	H319	H	-0.006094	-0.077915	0.092490
	H320	H	-0.005082	-0.103986	0.099648
	O321	O	0.599501	0.551790	0.348504
	H322	H	0.595802	0.557077	0.333689
	H323	H	0.599579	0.542129	0.355532
	O324	O	1.195196	0.078355	1.170780
	H325	H	1.204704	0.071763	1.179223
	H326	H	1.175901	0.078657	1.159023
	O327	O	0.634292	0.499863	0.334602
	H328	H	0.628958	0.512126	0.323037
	H329	H	0.610249	0.504077	0.336133
	O330	O	-0.029277	1.150783	0.901777
	H331	H	-0.034260	1.148687	0.885362
	H332	H	-0.040191	1.161580	0.897462
	O333	O	0.154174	1.012048	-0.116914
	H334	H	0.155139	0.988417	-0.127331
	H335	H	0.155577	1.014705	-0.124282
	O336	O	1.197243	0.817472	-0.009198
	H337	H	1.206094	0.808927	-0.020122
	H338	H	1.189051	0.819361	-0.020098
	O339	O	-0.022259	0.965562	0.889534
	H340	H	-0.031493	0.944194	0.887110
	H341	H	-0.024479	0.981337	0.885263
	O342	O	0.464592	0.664258	0.507014
	H343	H	0.452696	0.662707	0.485203
	H344	H	0.479946	0.676565	0.521404
	O345	O	0.053555	-0.097412	0.983916
	H346	H	0.062717	-0.095151	0.986222
	H347	H	0.052617	-0.094728	0.978424
	O348	O	0.312736	0.292198	0.504046
	H349	H	0.290831	0.281342	0.515780
	H350	H	0.328669	0.289324	0.523534
	O351	O	1.182366	1.107883	-0.070627
	H352	H	1.179835	1.111587	-0.074826
	H353	H	1.164330	1.102279	-0.078277
	O354	O	0.826452	1.079460	1.104366
	H355	H	0.828494	1.066776	1.107060
	H356	H	0.831312	1.077251	1.101305
	O357	O	0.163102	-0.099895	-0.176839
	H358	H	0.163476	-0.108685	-0.165026
	H359	H	0.123003	-0.095884	-0.174768
	O360	O	0.295785	0.486621	0.649818
	H361	H	0.293825	0.491456	0.660149
	H362	H	0.291314	0.498007	0.646687
	O363	O	0.929601	-0.026338	-0.179690
	H364	H	0.909330	-0.035914	-0.180645
	H365	H	0.929033	-0.012997	-0.176343
	O366	O	0.155289	-0.087920	1.140545
	H367	H	0.167827	-0.090848	1.134812
	H368	H	0.144181	-0.086164	1.144794
	O369	O	0.797675	0.156494	0.792646
	H370	H	0.774301	0.168908	0.774676
	H371	H	0.802781	0.138424	0.806323
	O372	O	0.547197	0.664486	0.622588
	H373	H	0.560454	0.650271	0.622931
	H374	H	0.566986	0.653268	0.611864
	O375	O	-0.479901	-0.480350	1.499195
	H376	H	-0.483428	-0.484169	1.501040
	H377	H	-0.482162	-0.478473	1.483464
	O378	O	0.483511	0.705870	0.381091
	H379	H	0.484255	0.723089	0.388932
	H380	H	0.455968	0.712774	0.377325
	O381	O	-0.116530	0.826843	0.169887
	H382	H	-0.111607	0.817862	0.172176
	H383	H	-0.111118	0.830476	0.173961
	O384	O	0.661089	0.493286	0.595156
	H385	H	0.650022	0.490320	0.583203
	H386	H	0.655716	0.502276	0.597296
	O387	O	0.297510	0.695681	0.485832
	H388	H	0.312121	0.694474	0.481440
	H389	H	0.279151	0.702936	0.488115
	O390	O	0.880948	1.022117	0.091232
	H391	H	0.885273	1.028807	0.111628
	H392	H	0.881863	1.034446	0.100147
	O393	O	1.142877	0.116590	1.114686
	H394	H	1.145671	0.130720	1.091236
	H395	H	1.145140	0.094766	1.130454
	O396	O	0.682347	0.650673	0.537372
	H397	H	0.668377	0.641867	0.534716
	H398	H	0.689155	0.644580	0.541183
	O399	O	0.683248	0.496679	0.413722
	H400	H	0.683391	0.490247	0.409753
	H401	H	0.675952	0.479007	0.397098
	O402	O	0.805159	0.904929	0.121794
	H403	H	0.825994	0.904953	0.125505
	H404	H	0.803573	0.920435	0.120398
	O405	O	0.335568	0.528585	0.292608
	H406	H	0.304092	0.525727	0.260584
	H407	H	0.329299	0.513925	0.323300
	O408	O	0.492855	0.487700	0.693107
	H409	H	0.471635	0.475454	0.692798
	H410	H	0.484080	0.493733	0.697963
	O411	O	0.789944	0.793513	0.997057
	H412	H	0.790373	0.795827	1.022058
	H413	H	0.771075	0.773387	1.013474
	O414	O	0.524028	0.313406	0.688982
	H415	H	0.517557	0.313772	0.679128
	H416	H	0.516383	0.315639	0.688258
	O417	O	0.033598	1.079979	1.002130
	H418	H	0.037314	1.076929	0.984304
	H419	H	0.008865	1.083103	1.005616
	O420	O	-0.093470	0.875958	0.883173
	H421	H	-0.081445	0.864528	0.875681
	H422	H	-0.114863	0.860260	0.902513
	O423	O	-0.019173	1.177261	0.146539
	H424	H	-0.029661	1.198010	0.146490
	H425	H	-0.004983	1.170609	0.141136
	O426	O	0.636109	0.592035	0.650743
	H427	H	0.642795	0.587209	0.639109
	H428	H	0.628711	0.589022	0.662816
	O429	O	0.347132	0.319322	0.675298
	H430	H	0.353814	0.337774	0.680556
	H431	H	0.345724	0.315804	0.687548
	O432	O	0.694134	0.374073	0.614147
	H433	H	0.697123	0.373084	0.578906
	H434	H	0.680367	0.384910	0.611998
	O435	O	-0.132903	0.207548	-0.141174
	H436	H	-0.166383	0.220953	-0.147180
	H437	H	-0.138701	0.195396	-0.152553
	O438	O	0.090835	1.097930	0.915942
	H439	H	0.087690	1.103416	0.913032
	H440	H	0.084495	1.101952	0.904854
	O441	O	0.360913	0.466747	0.695226
	H442	H	0.362073	0.467117	0.695302
	H443	H	0.353776	0.472424	0.693877
