data_Molecule from HDF5

_cell_length_a		16.246948
_cell_length_b		16.301049
_cell_length_c		16.270595
_cell_angle_alpha	89.997030
_cell_angle_beta	90.120847
_cell_angle_gamma	89.937324
_symmetry_space_group_name_H-M	'P 1'
_symmetry_Int_Tables_number		1

loop_
	_symmetry_equiv_pos_as_xyz
	x,y,z

loop_
	_atom_site_label
	_atom_site_type_symbol
	_atom_site_fract_x
	_atom_site_fract_y
	_atom_site_fract_z
	H0	H	0.404380	0.838438	0.714225
	H1	H	0.599787	0.166239	0.714320
	H2	H	0.600181	0.839060	0.286283
	H3	H	0.402733	0.165930	0.286588
	H4	H	0.714409	0.405102	0.836120
	H5	H	0.716478	0.600030	0.164299
	H6	H	0.288342	0.599632	0.836672
	H7	H	0.290354	0.404670	0.164839
	H8	H	0.837131	0.716395	0.401780
	H9	H	0.165340	0.715617	0.599224
	H10	H	0.837967	0.288250	0.597942
	H11	H	0.165803	0.286906	0.402367
	H12	H	0.837944	0.403179	0.714969
	H13	H	0.165242	0.599921	0.715211
	H14	H	0.836958	0.600101	0.285619
	H15	H	0.166148	0.404406	0.287705
	H16	H	0.403256	0.716261	0.836505
	H17	H	0.601362	0.717364	0.164032
	H18	H	0.599564	0.288768	0.836608
	H19	H	0.405542	0.288594	0.164061
	H20	H	0.715508	0.838289	0.402749
	H21	H	0.715444	0.165711	0.598955
	H22	H	0.288051	0.838456	0.598066
	H23	H	0.286144	0.165782	0.401842
	H24	H	0.904064	0.338435	0.214147
	H25	H	0.101408	0.665247	0.216020
	H26	H	0.100848	0.338481	0.787500
	H27	H	0.904159	0.664908	0.786347
	H28	H	0.214619	0.903528	0.336808
	H29	H	0.214737	0.098914	0.664095
	H30	H	0.786850	0.099888	0.337459
	H31	H	0.787900	0.904101	0.665007
	H32	H	0.337912	0.216666	0.901421
	H33	H	0.666297	0.216261	0.098601
	H34	H	0.338161	0.788288	0.098538
	H35	H	0.666188	0.788595	0.902917
	H36	H	0.337173	0.905473	0.213082
	H37	H	0.666007	0.100853	0.215822
	H38	H	0.338517	0.101233	0.785784
	H39	H	0.666059	0.904417	0.785916
	H40	H	0.901629	0.217146	0.337516
	H41	H	0.100675	0.216147	0.663690
	H42	H	0.100038	0.786535	0.337549
	H43	H	0.901651	0.786366	0.664384
	H44	H	0.216781	0.338832	0.903721
	H45	H	0.215566	0.665906	0.098554
	H46	H	0.789059	0.338100	0.097106
	H47	H	0.788545	0.665622	0.901792
	H48	H	0.419299	0.115888	0.595232
	H49	H	0.593717	0.886908	0.591057
	H50	H	0.593397	0.115552	0.416303
	H51	H	0.412654	0.887867	0.408493
	H52	H	0.591114	0.403894	0.117802
	H53	H	0.591873	0.593187	0.885701
	H54	H	0.409810	0.594792	0.116766
	H55	H	0.403784	0.408969	0.882037
	H56	H	0.116493	0.590189	0.407404
	H57	H	0.881788	0.591981	0.604552
	H58	H	0.121158	0.407781	0.599469
	H59	H	0.885041	0.417307	0.398833
	H60	H	0.118993	0.403226	0.590334
	H61	H	0.882641	0.605637	0.589196
	H62	H	0.119474	0.597582	0.404717
	H63	H	0.881064	0.398177	0.404029
	H64	H	0.410570	0.597034	0.117303
	H65	H	0.594192	0.601108	0.882447
	H66	H	0.602343	0.407573	0.119750
	H67	H	0.410760	0.413462	0.885587
	H68	H	0.601603	0.121381	0.405993
	H69	H	0.599773	0.883491	0.594883
	H70	H	0.401542	0.117455	0.582907
	H71	H	0.404992	0.886572	0.410906
	H72	H	0.902188	0.622111	0.098965
	H73	H	0.088771	0.389479	0.089543
	H74	H	0.104588	0.622844	0.902968
	H75	H	0.909982	0.388601	0.917573
	H76	H	0.094575	0.912309	0.616441
	H77	H	0.099293	0.102392	0.379727
	H78	H	0.898635	0.094646	0.620429
	H79	H	0.905286	0.914062	0.385171
	H80	H	0.618814	0.093104	0.905813
	H81	H	0.384113	0.098841	0.094890
	H82	H	0.617469	0.912539	0.092309
	H83	H	0.383920	0.902179	0.908833
	H84	H	0.620276	0.909645	0.096611
	H85	H	0.386099	0.096340	0.088861
	H86	H	0.620658	0.098134	0.905557
	H87	H	0.387983	0.912159	0.911682
	H88	H	0.913723	0.088199	0.614441
	H89	H	0.097205	0.084988	0.385043
	H90	H	0.091690	0.905947	0.617062
	H91	H	0.914132	0.907390	0.385937
	H92	H	0.086264	0.618395	0.900625
	H93	H	0.105265	0.384037	0.090658
	H94	H	0.918114	0.616507	0.096787
	H95	H	0.897716	0.380815	0.904546
	H96	H	0.400902	0.123484	0.603209
	H97	H	0.593073	0.885360	0.598282
	H98	H	0.587211	0.118007	0.402909
	H99	H	0.407727	0.884382	0.403687
	H100	H	0.594786	0.414238	0.114905
	H101	H	0.599898	0.594606	0.882795
	H102	H	0.408279	0.596575	0.117350
	H103	H	0.411391	0.405080	0.882691
	H104	H	0.117272	0.596920	0.412330
	H105	H	0.889273	0.585510	0.586383
	H106	H	0.117152	0.413844	0.592473
	H107	H	0.889000	0.411424	0.417445
	H108	H	0.907460	0.616617	0.084549
	H109	H	0.095118	0.383225	0.104295
	H110	H	0.094878	0.615447	0.917463
	H111	H	0.916062	0.385411	0.899932
	H112	H	0.098252	0.906840	0.619390
	H113	H	0.082840	0.096755	0.385651
	H114	H	0.912936	0.104772	0.619201
	H115	H	0.904694	0.903599	0.381468
	H116	H	0.617850	0.096824	0.910387
	H117	H	0.385809	0.092248	0.094917
	H118	H	0.618691	0.907130	0.091699
	H119	H	0.383541	0.910738	0.900945
	C120	C	0.379434	0.010752	0.622198
	C121	C	0.623464	0.993675	0.622583
	C122	C	0.623187	0.010720	0.379518
	C123	C	0.379361	0.993893	0.378947
	C124	C	0.624148	0.380354	0.009106
	C125	C	0.623716	0.624056	0.991987
	C126	C	0.380640	0.624280	0.008999
	C127	C	0.380791	0.380842	0.991932
	C128	C	0.009402	0.623701	0.378785
	C129	C	0.993091	0.623012	0.622132
	C130	C	0.010678	0.380043	0.622438
	C131	C	0.993573	0.380584	0.379319
	C132	C	0.880696	0.510289	0.121630
	C133	C	0.124524	0.493642	0.122879
	C134	C	0.123485	0.510503	0.879316
	C135	C	0.879771	0.493201	0.878477
	C136	C	0.123047	0.880025	0.509191
	C137	C	0.122519	0.123249	0.491671
	C138	C	0.879971	0.123930	0.509564
	C139	C	0.880084	0.880364	0.492795
	C140	C	0.510492	0.124042	0.878828
	C141	C	0.493737	0.124155	0.121788
	C142	C	0.510411	0.881075	0.122158
	C143	C	0.493601	0.880943	0.878984
	C144	C	0.383215	0.887477	0.676675
	C145	C	0.620511	0.117091	0.677120
	C146	C	0.620777	0.887662	0.324267
	C147	C	0.381761	0.117029	0.323945
	C148	C	0.677394	0.384154	0.885210
	C149	C	0.678521	0.620716	0.115470
	C150	C	0.325615	0.620927	0.885640
	C151	C	0.326981	0.383756	0.115502
	C152	C	0.885924	0.678173	0.381292
	C153	C	0.116324	0.677972	0.619491
	C154	C	0.886951	0.325836	0.618946
	C155	C	0.116943	0.325237	0.382291
	C156	C	0.886996	0.382785	0.677133
	C157	C	0.116387	0.620557	0.677256
	C158	C	0.886114	0.620520	0.323413
	C159	C	0.117184	0.383341	0.325258
	C160	C	0.382806	0.678720	0.885561
	C161	C	0.621681	0.679208	0.115199
	C162	C	0.620304	0.326608	0.885287
	C163	C	0.384198	0.326182	0.115291
	C164	C	0.678224	0.887466	0.382005
	C165	C	0.677767	0.116932	0.619596
	C166	C	0.325432	0.887448	0.619076
	C167	C	0.323857	0.116884	0.381292
	C168	C	0.883731	0.387075	0.176234
	C169	C	0.121408	0.616560	0.177812
	C170	C	0.121241	0.387371	0.825022
	C171	C	0.882977	0.616217	0.823519
	C172	C	0.177522	0.882623	0.385827
	C173	C	0.177261	0.119939	0.615129
	C174	C	0.824523	0.120722	0.386288
	C175	C	0.825690	0.883402	0.616251
	C176	C	0.387121	0.179059	0.881015
	C177	C	0.617544	0.178329	0.119164
	C178	C	0.387222	0.825946	0.119261
	C179	C	0.617393	0.826638	0.882188
	C180	C	0.386712	0.883935	0.176379
	C181	C	0.617082	0.121328	0.177540
	C182	C	0.387435	0.121642	0.823519
	C183	C	0.617361	0.884212	0.824571
	C184	C	0.881538	0.179109	0.386241
	C185	C	0.120805	0.178117	0.614846
	C186	C	0.120370	0.824726	0.386240
	C187	C	0.881923	0.824706	0.615665
	C188	C	0.178579	0.387445	0.882816
	C189	C	0.178489	0.617094	0.119793
	C190	C	0.826402	0.386939	0.118340
	C191	C	0.825737	0.616549	0.881316
	C192	C	0.400930	0.096696	0.600308
	C193	C	0.602030	0.907524	0.600973
	C194	C	0.600760	0.096198	0.401798
	C195	C	0.401908	0.908372	0.401055
	C196	C	0.602295	0.402074	0.095326
	C197	C	0.601968	0.602600	0.905950
	C198	C	0.402891	0.602622	0.094879
	C199	C	0.402395	0.402729	0.905687
	C200	C	0.095592	0.601463	0.401492
	C201	C	0.906710	0.600806	0.599872
	C202	C	0.096876	0.402021	0.600688
	C203	C	0.907400	0.402301	0.400558
	C204	C	0.902530	0.596220	0.099721
	C205	C	0.102787	0.407757	0.101176
	C206	C	0.101626	0.596630	0.900608
	C207	C	0.901519	0.407140	0.900651
	C208	C	0.101349	0.901888	0.595371
	C209	C	0.099846	0.101218	0.405623
	C210	C	0.902029	0.102227	0.595764
	C211	C	0.901777	0.901936	0.406488
	C212	C	0.596855	0.102467	0.901018
	C213	C	0.407582	0.102376	0.099255
	C214	C	0.596636	0.903257	0.100068
	C215	C	0.407282	0.902138	0.900693
	Zn216	Zn	0.501959	0.002327	0.750507
	Zn217	Zn	0.501749	0.002543	0.250508
	Zn218	Zn	0.751843	0.502053	0.000418
	Zn219	Zn	0.252475	0.502517	0.001172
	Zn220	Zn	0.001192	0.751727	0.501232
	Zn221	Zn	0.001790	0.251871	0.500647
	Zn222	Zn	0.001885	0.501661	0.750508
	Zn223	Zn	0.001836	0.501681	0.250258
	Zn224	Zn	0.501929	0.752666	0.000467
	Zn225	Zn	0.502066	0.252305	0.000351
	Zn226	Zn	0.751621	0.001900	0.501592
	Zn227	Zn	0.250743	0.002286	0.500448
	N228	N	0.416080	0.965128	0.678868
	N229	N	0.587205	0.039459	0.678943
	N230	N	0.587140	0.965088	0.322582
	N231	N	0.415907	0.039753	0.322541
	N232	N	0.680048	0.416773	0.963262
	N233	N	0.679869	0.587074	0.037937
	N234	N	0.324136	0.587811	0.963377
	N235	N	0.324744	0.417111	0.037683
	N236	N	0.963646	0.680362	0.414849
	N237	N	0.038573	0.679465	0.585806
	N238	N	0.964701	0.324024	0.585728
	N239	N	0.038948	0.323283	0.415074
	N240	N	0.964911	0.415888	0.679191
	N241	N	0.038831	0.587090	0.678752
	N242	N	0.964053	0.587380	0.321881
	N243	N	0.039830	0.417297	0.323525
	N244	N	0.416383	0.681051	0.963230
	N245	N	0.588104	0.681123	0.037675
	N246	N	0.587878	0.324039	0.963316
	N247	N	0.417027	0.324355	0.037563
	N248	N	0.679896	0.964933	0.415713
	N249	N	0.679779	0.039296	0.586570
	N250	N	0.322969	0.965009	0.585905
	N251	N	0.322203	0.039433	0.414709
	N252	N	0.916612	0.464778	0.178435
	N253	N	0.088706	0.538799	0.180045
	N254	N	0.087640	0.464870	0.822883
	N255	N	0.916008	0.538530	0.821963
	N256	N	0.179300	0.916312	0.463343
	N257	N	0.178222	0.086488	0.537388
	N258	N	0.823522	0.087116	0.463969
	N259	N	0.824371	0.917244	0.538883
	N260	N	0.464933	0.180453	0.915035
	N261	N	0.539868	0.180237	0.085491
	N262	N	0.465196	0.824115	0.086499
	N263	N	0.539557	0.824339	0.915285
	N264	N	0.464342	0.917532	0.178242
	N265	N	0.539175	0.088174	0.179070
	N266	N	0.464992	0.088273	0.822102
	N267	N	0.539431	0.917501	0.822849
	N268	N	0.915064	0.181265	0.463823
	N269	N	0.087520	0.180234	0.537128
	N270	N	0.087182	0.823056	0.463846
	N271	N	0.914895	0.822818	0.537792
	N272	N	0.180031	0.464887	0.916110
	N273	N	0.180479	0.539684	0.086395
	N274	N	0.824331	0.464612	0.085315
	N275	N	0.823385	0.538962	0.914662
	O276	O	-0.019190	0.000700	1.015915
	H277	H	-0.017284	0.000596	1.015195
	H278	H	-0.022948	0.002375	1.013579
	O279	O	0.467056	0.498463	0.423202
	H280	H	0.469260	0.501326	0.421731
	H281	H	0.464125	0.496940	0.424639
	O282	O	0.508432	0.495525	0.446551
	H283	H	0.515415	0.492436	0.438026
	H284	H	0.514203	0.492322	0.449802
	O285	O	0.499352	0.472064	0.409173
	H286	H	0.498880	0.468167	0.409866
	H287	H	0.496772	0.475135	0.404319
	O288	O	0.501486	0.516209	0.431091
	H289	H	0.497805	0.512145	0.428633
	H290	H	0.500087	0.515859	0.426523
	O291	O	0.001124	1.012797	1.024783
	H292	H	0.003259	1.011428	1.026525
	H293	H	0.005713	1.009762	1.027552
	O294	O	0.463572	0.480153	0.432413
	H295	H	0.462630	0.483688	0.429211
	H296	H	0.459868	0.481123	0.437802
	O297	O	0.968588	0.013419	0.017399
	H298	H	0.968839	0.015396	0.021711
	H299	H	0.962803	0.010608	0.016577
