data_Molecule from HDF5

_cell_length_a		16.520986
_cell_length_b		16.523170
_cell_length_c		16.557679
_cell_angle_alpha	89.850544
_cell_angle_beta	90.069536
_cell_angle_gamma	90.004391
_symmetry_space_group_name_H-M	'P 1'
_symmetry_Int_Tables_number		1

loop_
	_symmetry_equiv_pos_as_xyz
	x,y,z

loop_
	_atom_site_label
	_atom_site_type_symbol
	_atom_site_fract_x
	_atom_site_fract_y
	_atom_site_fract_z
	H0	H	0.406593	0.854427	0.723492
	H1	H	0.611889	0.170913	0.726181
	H2	H	0.613766	0.855692	0.285351
	H3	H	0.400162	0.169232	0.282291
	H4	H	0.727206	0.407080	0.848000
	H5	H	0.728249	0.615629	0.162379
	H6	H	0.286431	0.616421	0.849052
	H7	H	0.282109	0.404203	0.161374
	H8	H	0.847848	0.732210	0.403156
	H9	H	0.164009	0.731596	0.609151
	H10	H	0.850829	0.288835	0.612221
	H11	H	0.164087	0.292070	0.399787
	H12	H	0.850901	0.404743	0.728580
	H13	H	0.162746	0.617381	0.726695
	H14	H	0.847051	0.616030	0.286732
	H15	H	0.162141	0.406228	0.281482
	H16	H	0.405237	0.731049	0.848380
	H17	H	0.611974	0.732019	0.163167
	H18	H	0.610165	0.290954	0.848076
	H19	H	0.395338	0.285598	0.159795
	H20	H	0.728757	0.856222	0.403033
	H21	H	0.729121	0.170729	0.610961
	H22	H	0.288074	0.854991	0.608186
	H23	H	0.284028	0.168957	0.398165
	H24	H	0.898946	0.357285	0.228275
	H25	H	0.110866	0.670199	0.226413
	H26	H	0.116635	0.357520	0.780265
	H27	H	0.902352	0.669439	0.784161
	H28	H	0.227590	0.907988	0.347890
	H29	H	0.229064	0.117728	0.661545
	H30	H	0.784598	0.119484	0.349648
	H31	H	0.787994	0.909245	0.663453
	H32	H	0.348890	0.234147	0.898516
	H33	H	0.662211	0.235752	0.110317
	H34	H	0.350943	0.789758	0.111496
	H35	H	0.665325	0.793424	0.903408
	H36	H	0.351587	0.905061	0.229527
	H37	H	0.663438	0.118552	0.226238
	H38	H	0.350413	0.119809	0.780840
	H39	H	0.665227	0.909352	0.786307
	H40	H	0.900583	0.236408	0.349350
	H41	H	0.113624	0.234794	0.660607
	H42	H	0.110460	0.792394	0.347553
	H43	H	0.903561	0.792400	0.663107
	H44	H	0.230935	0.357218	0.898214
	H45	H	0.226551	0.670655	0.110228
	H46	H	0.786108	0.355109	0.109579
	H47	H	0.785995	0.669106	0.899681
	H48	H	0.417400	0.127198	0.598554
	H49	H	0.599521	0.898957	0.601793
	H50	H	0.594288	0.125491	0.414107
	H51	H	0.422190	0.900414	0.412270
	H52	H	0.595093	0.426287	0.115783
	H53	H	0.594965	0.607687	0.891932
	H54	H	0.414235	0.604633	0.121731
	H55	H	0.416846	0.427523	0.894376
	H56	H	0.119287	0.603456	0.412940
	H57	H	0.894023	0.595774	0.599305
	H58	H	0.112131	0.431315	0.581841
	H59	H	0.893183	0.421393	0.417176
	H60	H	0.119149	0.433236	0.604384
	H61	H	0.889756	0.608589	0.597248
	H62	H	0.118390	0.603942	0.416237
	H63	H	0.897219	0.426109	0.420651
	H64	H	0.415457	0.598269	0.118029
	H65	H	0.600286	0.601848	0.891862
	H66	H	0.592798	0.423626	0.115440
	H67	H	0.420442	0.425782	0.895550
	H68	H	0.592413	0.123048	0.418040
	H69	H	0.591991	0.902294	0.595512
	H70	H	0.423258	0.123859	0.591760
	H71	H	0.420712	0.903315	0.421652
	H72	H	0.917191	0.625308	0.094337
	H73	H	0.098229	0.403288	0.084802
	H74	H	0.086795	0.622832	0.911369
	H75	H	0.916726	0.398618	0.914247
	H76	H	0.098024	0.921765	0.617453
	H77	H	0.095587	0.101491	0.393546
	H78	H	0.920633	0.102529	0.616870
	H79	H	0.913765	0.925223	0.392591
	H80	H	0.617117	0.102326	0.920488
	H81	H	0.395975	0.101809	0.088465
	H82	H	0.619570	0.923115	0.094180
	H83	H	0.394712	0.927724	0.910503
	H84	H	0.619091	0.924623	0.096275
	H85	H	0.396568	0.094230	0.093639
	H86	H	0.617318	0.097868	0.915107
	H87	H	0.392523	0.917336	0.912514
	H88	H	0.917585	0.101651	0.618288
	H89	H	0.095031	0.100752	0.393294
	H90	H	0.097724	0.921814	0.617495
	H91	H	0.920520	0.925035	0.394821
	H92	H	0.095596	0.622125	0.924148
	H93	H	0.098706	0.397049	0.100760
	H94	H	0.916032	0.625308	0.093795
	H95	H	0.919417	0.399401	0.916288
	H96	H	0.414227	0.125767	0.590176
	H97	H	0.601468	0.900574	0.592092
	H98	H	0.596854	0.125021	0.418368
	H99	H	0.413334	0.899170	0.416880
	H100	H	0.596287	0.422923	0.117467
	H101	H	0.592888	0.600259	0.894494
	H102	H	0.420705	0.603285	0.118132
	H103	H	0.417187	0.423216	0.893899
	H104	H	0.117931	0.600429	0.414914
	H105	H	0.895721	0.601764	0.587318
	H106	H	0.122186	0.412757	0.592728
	H107	H	0.895089	0.427944	0.414576
	H108	H	0.916000	0.626348	0.094931
	H109	H	0.084340	0.404019	0.095115
	H110	H	0.101675	0.627978	0.911214
	H111	H	0.915913	0.399822	0.917755
	H112	H	0.097263	0.921773	0.617699
	H113	H	0.094726	0.101234	0.392967
	H114	H	0.919338	0.099232	0.616159
	H115	H	0.917533	0.919089	0.392258
	H116	H	0.620305	0.104491	0.914475
	H117	H	0.392608	0.101221	0.097271
	H118	H	0.620332	0.922509	0.096353
	H119	H	0.395970	0.923450	0.921196
	C120	C	0.387032	0.021099	0.625307
	C121	C	0.629201	1.005104	0.627910
	C122	C	0.627910	0.021289	0.384916
	C123	C	0.385671	1.004342	0.383927
	C124	C	0.626701	0.391486	0.012969
	C125	C	0.628733	0.634538	0.996906
	C126	C	0.385674	0.633838	0.015203
	C127	C	0.384227	0.391321	0.997079
	C128	C	0.014014	0.633900	0.383981
	C129	C	0.997417	0.633559	0.626159
	C130	C	0.015217	0.391451	0.626364
	C131	C	0.998418	0.392133	0.384221
	C132	C	0.884389	0.521737	0.126459
	C133	C	0.126513	0.504933	0.126475
	C134	C	0.128067	0.521178	0.883261
	C135	C	0.884845	0.503317	0.883504
	C136	C	0.128873	0.890179	0.513727
	C137	C	0.128194	0.133503	0.496630
	C138	C	0.885834	0.134601	0.514038
	C139	C	0.885769	0.891956	0.497447
	C140	C	0.514768	0.134115	0.883524
	C141	C	0.498247	0.133285	0.126051
	C142	C	0.515947	0.890639	0.127959
	C143	C	0.499043	0.891670	0.884366
	C144	C	0.386678	0.901948	0.684142
	C145	C	0.630614	0.123762	0.686550
	C146	C	0.631538	0.903152	0.325258
	C147	C	0.382283	0.122149	0.322679
	C148	C	0.687111	0.388773	0.895134
	C149	C	0.688403	0.635017	0.115214
	C150	C	0.326393	0.635253	0.896341
	C151	C	0.322552	0.386643	0.114389
	C152	C	0.894998	0.692452	0.383901
	C153	C	0.116379	0.692534	0.627761
	C154	C	0.897840	0.329448	0.629984
	C155	C	0.116559	0.331876	0.381435
	C156	C	0.897760	0.387144	0.687914
	C157	C	0.115814	0.635603	0.686208
	C158	C	0.894734	0.634806	0.325956
	C159	C	0.115635	0.388744	0.322539
	C160	C	0.385389	0.692246	0.895979
	C161	C	0.630254	0.692565	0.115738
	C162	C	0.628646	0.331252	0.895043
	C163	C	0.378910	0.327456	0.113484
	C164	C	0.688823	0.903243	0.383684
	C165	C	0.688511	0.123779	0.628789
	C166	C	0.328012	0.902105	0.626964
	C167	C	0.324570	0.122076	0.380484
	C168	C	0.881467	0.403764	0.187168
	C169	C	0.129028	0.622882	0.186532
	C170	C	0.133214	0.404172	0.821323
	C171	C	0.883383	0.622098	0.824024
	C172	C	0.187810	0.889121	0.395159
	C173	C	0.188699	0.135729	0.614460
	C174	C	0.824523	0.137819	0.396561
	C175	C	0.827113	0.890521	0.615981
	C176	C	0.396277	0.194107	0.880418
	C177	C	0.615514	0.194956	0.128711
	C178	C	0.397763	0.830223	0.130068
	C179	C	0.617800	0.832923	0.884117
	C180	C	0.398198	0.887091	0.188843
	C181	C	0.616010	0.136624	0.186344
	C182	C	0.396980	0.137080	0.822067
	C183	C	0.617903	0.890718	0.825840
	C184	C	0.882442	0.195691	0.396338
	C185	C	0.131419	0.194153	0.614192
	C186	C	0.129799	0.831301	0.395166
	C187	C	0.884853	0.832407	0.615786
	C188	C	0.190305	0.404166	0.880006
	C189	C	0.186683	0.623224	0.128657
	C190	C	0.825244	0.402822	0.128056
	C191	C	0.825557	0.621789	0.881598
	C192	C	0.411280	0.103916	0.600663
	C193	C	0.604573	0.922186	0.603273
	C194	C	0.602005	0.103266	0.409629
	C195	C	0.411458	0.922361	0.409718
	C196	C	0.601714	0.416891	0.095036
	C197	C	0.603489	0.610046	0.914207
	C198	C	0.409906	0.609209	0.097711
	C199	C	0.410574	0.417954	0.915915
	C200	C	0.096992	0.609563	0.407875
	C201	C	0.914673	0.609007	0.601637
	C202	C	0.096768	0.418221	0.600389
	C203	C	0.916463	0.417819	0.410145
	C204	C	0.909367	0.604122	0.101615
	C205	C	0.101011	0.422834	0.100832
	C206	C	0.101916	0.603000	0.908372
	C207	C	0.910143	0.420911	0.908687
	C208	C	0.104726	0.914749	0.596148
	C209	C	0.102301	0.108441	0.414629
	C210	C	0.911723	0.108606	0.595869
	C211	C	0.910051	0.916310	0.414693
	C212	C	0.596741	0.108852	0.909465
	C213	C	0.416285	0.106758	0.100378
	C214	C	0.598231	0.916141	0.102985
	C215	C	0.416024	0.915857	0.908064
	Zn216	Zn	0.507105	0.013231	0.755060
	Zn217	Zn	0.507080	0.012594	0.255654
	Zn218	Zn	0.756293	0.512327	0.004693
	Zn219	Zn	0.255816	0.512770	0.006288
	Zn220	Zn	0.006120	0.762451	0.505133
	Zn221	Zn	0.007258	0.262800	0.504828
	Zn222	Zn	0.006372	0.512379	0.755033
	Zn223	Zn	0.005212	0.513071	0.255084
	Zn224	Zn	0.507416	0.763091	0.006387
	Zn225	Zn	0.505199	0.262627	0.004756
	Zn226	Zn	0.756937	0.013356	0.506221
	Zn227	Zn	0.257265	0.012451	0.504778
	N228	N	0.422340	0.977022	0.683385
	N229	N	0.594707	0.048781	0.686055
	N230	N	0.594587	0.977577	0.325712
	N231	N	0.419725	0.047986	0.324746
	N232	N	0.686066	0.425437	0.969454
	N233	N	0.687529	0.599755	0.040180
	N234	N	0.326247	0.599702	0.971428
	N235	N	0.325721	0.425637	0.041102
	N236	N	0.970380	0.692203	0.418905
	N237	N	0.041615	0.691665	0.591291
	N238	N	0.972026	0.331857	0.592480
	N239	N	0.042654	0.333934	0.419104
	N240	N	0.971643	0.424983	0.685813
	N241	N	0.040822	0.599650	0.685344
	N242	N	0.969986	0.599357	0.325579
	N243	N	0.041126	0.425523	0.324218
	N244	N	0.421268	0.691700	0.970899
	N245	N	0.593839	0.692278	0.040999
	N246	N	0.591821	0.332752	0.969388
	N247	N	0.416576	0.330170	0.039550
	N248	N	0.686837	0.977855	0.420005
	N249	N	0.687815	0.048783	0.593178
	N250	N	0.327878	0.977284	0.591330
	N251	N	0.326390	0.047729	0.417738
	N252	N	0.917573	0.478531	0.186107
	N253	N	0.092661	0.548119	0.185608
	N254	N	0.095369	0.478140	0.823179
	N255	N	0.919293	0.547099	0.824686
	N256	N	0.187712	0.924713	0.470082
	N257	N	0.186880	0.098875	0.540229
	N258	N	0.826483	0.100597	0.470772
	N259	N	0.827537	0.926734	0.541375
	N260	N	0.470396	0.192443	0.918100
	N261	N	0.541013	0.193009	0.091939
	N262	N	0.472111	0.832218	0.093132
	N263	N	0.542790	0.833351	0.919484
	N264	N	0.472760	0.923771	0.187747
	N265	N	0.541835	0.099326	0.184849
	N266	N	0.471681	0.100564	0.823820
	N267	N	0.542788	0.926410	0.825604
	N268	N	0.919713	0.193876	0.470515
	N269	N	0.094308	0.192767	0.539938
	N270	N	0.093971	0.831723	0.469952
	N271	N	0.920782	0.833220	0.541084
	N272	N	0.187260	0.477946	0.917936
	N273	N	0.185390	0.548719	0.092084
	N274	N	0.826868	0.477220	0.090883
	N275	N	0.826354	0.546903	0.917800
	O276	O	0.964938	0.795606	0.218553
	H277	H	0.963629	0.781047	0.243308
	H278	H	0.941756	0.797395	0.210136
	O279	O	0.080519	0.231943	0.921904
	H280	H	0.060913	0.229211	0.946058
	H281	H	0.096091	0.226903	0.935099
	O282	O	0.299511	0.491734	0.712527
	H283	H	0.309812	0.463219	0.702600
	H284	H	0.274503	0.489958	0.729038
	O285	O	0.554956	0.492893	0.406042
	H286	H	0.552596	0.506789	0.401432
	H287	H	0.552522	0.498546	0.412562
	O288	O	1.037801	-0.132993	1.109332
	H289	H	1.039461	-0.142476	1.114510
	H290	H	1.026472	-0.129870	1.112356
	O291	O	0.433303	0.407872	0.438703
	H292	H	0.437597	0.404503	0.435853
	H293	H	0.442878	0.412846	0.432557
	O294	O	-0.012121	-0.133102	-0.201017
	H295	H	0.018702	-0.119141	-0.196127
	H296	H	-0.020885	-0.136763	-0.226830
	O297	O	0.710814	-0.420806	-0.289008
	H298	H	0.717711	-0.441942	-0.277696
	H299	H	0.713293	-0.416099	-0.288863
	O300	O	-0.211121	0.042843	-0.210648
	H301	H	-0.207971	0.063454	-0.206771
	H302	H	-0.233407	0.038535	-0.227491
	O303	O	-0.205129	-0.013015	0.220876
	H304	H	-0.217016	-0.025326	0.235520
	H305	H	-0.195290	-0.000587	0.230366
	O306	O	1.229182	0.070369	-0.050080
	H307	H	1.230608	0.050531	-0.061366
	H308	H	1.231285	0.075370	-0.066237
	O309	O	0.301943	0.310262	0.605352
	H310	H	0.286141	0.297996	0.609659
	H311	H	0.326010	0.308397	0.587238
	O312	O	0.207877	0.222506	0.039418
	H313	H	0.227640	0.207212	0.031993
	H314	H	0.217371	0.232458	0.046860
	O315	O	0.202063	0.214705	0.208670
	H316	H	0.200997	0.193661	0.208257
	H317	H	0.221273	0.227853	0.203362
	O318	O	0.806035	1.152169	0.138326
	H319	H	0.809516	1.133674	0.116705
	H320	H	0.825219	1.140653	0.129882
	O321	O	0.227224	0.981258	0.788907
	H322	H	0.238779	0.974871	0.765511
	H323	H	0.220960	0.958670	0.780972
	O324	O	1.226016	-0.137472	1.034068
	H325	H	1.216050	-0.136179	1.031245
	H326	H	1.245583	-0.160650	1.024525
	O327	O	0.709808	0.307043	0.429637
	H328	H	0.718880	0.321465	0.408977
	H329	H	0.698869	0.289186	0.425752
	O330	O	0.303001	0.649647	0.303781
	H331	H	0.299831	0.653963	0.347613
	H332	H	0.311673	0.663906	0.287932
	O333	O	0.426339	0.440186	0.292687
	H334	H	0.415375	0.429106	0.289879
	H335	H	0.427507	0.447732	0.291165
	O336	O	0.634940	0.645573	0.341000
	H337	H	0.624706	0.637740	0.362357
	H338	H	0.615881	0.649798	0.345160
	O339	O	0.568312	0.350379	0.571363
	H340	H	0.584393	0.342378	0.560724
	H341	H	0.570424	0.371199	0.559434
	O342	O	0.119623	0.835475	0.124881
	H343	H	0.107662	0.838789	0.121492
	H344	H	0.127097	0.851514	0.116057
	O345	O	0.617876	0.405454	0.670958
	H346	H	0.631171	0.415000	0.677467
	H347	H	0.630436	0.386545	0.669085
	O348	O	0.318514	0.698284	0.693817
	H349	H	0.338560	0.676389	0.679918
	H350	H	0.336858	0.677325	0.680175
	O351	O	0.062205	-0.023257	1.004453
	H352	H	0.079667	-0.015756	1.003854
	H353	H	0.067416	-0.028569	1.019553
	O354	O	0.838684	-0.092412	1.039678
	H355	H	0.841513	-0.106430	1.046201
	H356	H	0.830888	-0.103948	1.043548
	O357	O	0.326226	0.666108	0.539926
	H358	H	0.312740	0.659410	0.548856
	H359	H	0.336085	0.666898	0.547625
	O360	O	0.390113	0.720574	0.378622
	H361	H	0.395922	0.715146	0.369312
	H362	H	0.382199	0.732943	0.374136
	O363	O	0.711091	0.358428	0.297038
	H364	H	0.717655	0.381263	0.302428
	H365	H	0.724640	0.345344	0.272346
	O366	O	0.800804	0.221607	0.891756
	H367	H	0.810921	0.236537	0.886135
	H368	H	0.806045	0.215402	0.899763
	O369	O	-0.054832	0.141880	1.042564
	H370	H	-0.070725	0.143366	1.035297
	H371	H	-0.056352	0.113148	1.047906
	O372	O	-0.141294	0.876381	0.964059
	H373	H	-0.120543	0.881609	0.977821
	H374	H	-0.147470	0.860572	0.956736
	O375	O	1.208170	0.034610	0.186762
	H376	H	1.194263	0.023048	0.182429
	H377	H	1.223519	0.031935	0.199227
	O378	O	0.656496	0.507095	0.360605
	H379	H	0.662845	0.510599	0.360777
	H380	H	0.657548	0.508905	0.360076
	O381	O	-0.011325	1.153678	0.136933
	H382	H	-0.010839	1.152324	0.162890
	H383	H	-0.007470	1.137898	0.135702
	O384	O	0.481610	0.308993	0.717099
	H385	H	0.496154	0.300331	0.708610
	H386	H	0.497894	0.305235	0.727430
	O387	O	0.026160	1.225618	1.215029
	H388	H	0.035410	1.236265	1.235443
	H389	H	0.051355	1.225203	1.198234
	O390	O	-0.019525	1.227052	0.792246
	H391	H	-0.014846	1.238013	0.782443
	H392	H	0.002530	1.238838	0.803295
	O393	O	1.135493	0.142962	-0.190888
	H394	H	1.120171	0.155093	-0.173822
	H395	H	1.148797	0.148049	-0.206285
	O396	O	0.538223	0.722839	0.719566
	H397	H	0.555181	0.716070	0.717586
	H398	H	0.549464	0.742362	0.742999
	O399	O	0.380518	0.530776	0.492854
	H400	H	0.393631	0.517569	0.476976
	H401	H	0.369938	0.535144	0.498777
	O402	O	0.813077	-0.164168	0.923045
	H403	H	0.820489	-0.164201	0.911254
	H404	H	0.817382	-0.168874	0.933600
	O405	O	0.717445	0.599774	0.515167
	H406	H	0.716772	0.608605	0.512231
	H407	H	0.724650	0.590675	0.511365
	O408	O	0.785675	1.151791	1.016217
	H409	H	0.784554	1.151675	1.019939
	H410	H	0.784743	1.160201	1.021542
	O411	O	0.802086	0.814824	0.206468
	H412	H	0.813884	0.833658	0.206726
	H413	H	0.787267	0.805315	0.201327
	O414	O	-0.057123	0.017428	0.147860
	H415	H	-0.050376	0.027705	0.151800
	H416	H	-0.037063	0.012952	0.137800
	O417	O	0.583670	0.550003	0.496803
	H418	H	0.583875	0.536398	0.480282
	H419	H	0.583888	0.544000	0.504656
	O420	O	1.001975	0.011414	0.842068
	H421	H	1.004751	0.001377	0.855387
	H422	H	1.016046	0.021213	0.838952
	O423	O	1.047696	0.964074	-0.142143
	H424	H	1.058000	0.955487	-0.141848
	H425	H	1.051676	0.969018	-0.136487
	O426	O	0.433653	0.498982	0.628524
	H427	H	0.421850	0.474128	0.633190
	H428	H	0.444483	0.482941	0.626438
	O429	O	0.318404	0.629164	0.293126
	H430	H	0.322431	0.635724	0.283398
	H431	H	0.306183	0.644383	0.278954
	O432	O	0.910841	-0.101187	0.935920
	H433	H	0.918462	-0.107992	0.941261
	H434	H	0.923624	-0.074857	0.930723
	O435	O	0.502197	0.531530	0.417174
	H436	H	0.489046	0.516561	0.423441
	H437	H	0.498105	0.528310	0.416860
	O438	O	0.342961	0.370553	0.387633
	H439	H	0.346965	0.380963	0.399903
	H440	H	0.348476	0.376198	0.387081
	O441	O	0.711897	0.721525	0.666985
	H442	H	0.732219	0.739292	0.687446
	H443	H	0.719861	0.697628	0.664282
	O444	O	0.611281	0.516732	0.621661
	H445	H	0.596489	0.526494	0.615824
	H446	H	0.614371	0.520230	0.616347
	O447	O	1.039086	-0.017303	1.042122
	H448	H	1.034773	-0.012229	1.030170
	H449	H	1.040021	-0.031903	1.046479
	O450	O	0.751453	0.276792	-0.251142
	H451	H	0.771871	0.279620	-0.270264
	H452	H	0.769517	0.252395	-0.246133
	O453	O	0.620164	0.417878	0.462602
	H454	H	0.617638	0.404949	0.444521
	H455	H	0.612234	0.419847	0.452192
	O456	O	0.216879	0.804103	0.794731
	H457	H	0.239483	0.781958	0.770354
	H458	H	0.205978	0.797360	0.804222
	O459	O	0.473569	0.588715	0.488794
	H460	H	0.467318	0.574679	0.496634
	H461	H	0.475579	0.603282	0.497573
	O462	O	0.533878	0.296626	0.286461
	H463	H	0.547043	0.272935	0.270900
	H464	H	0.542185	0.300334	0.281949
	O465	O	0.501038	0.713151	0.516191
	H466	H	0.506658	0.719078	0.533252
	H467	H	0.503485	0.706131	0.521433
	O468	O	0.143557	0.800396	-0.103986
	H469	H	0.128097	0.817222	-0.104305
	H470	H	0.149978	0.780963	-0.103603
	O471	O	0.512156	0.704500	0.447228
	H472	H	0.517332	0.699560	0.455396
	H473	H	0.524785	0.724041	0.449174
	O474	O	1.126940	0.972384	0.140618
	H475	H	1.123135	0.980579	0.121624
	H476	H	1.136944	0.968081	0.120400
	O477	O	0.301918	0.305885	0.646207
	H478	H	0.302092	0.303672	0.629035
	H479	H	0.320074	0.297914	0.648685
