data_Molecule from HDF5

_cell_length_a		16.341915
_cell_length_b		16.257168
_cell_length_c		16.236247
_cell_angle_alpha	89.848145
_cell_angle_beta	89.959913
_cell_angle_gamma	90.041275
_symmetry_space_group_name_H-M	'P 1'
_symmetry_Int_Tables_number		1

loop_
	_symmetry_equiv_pos_as_xyz
	x,y,z

loop_
	_atom_site_label
	_atom_site_type_symbol
	_atom_site_fract_x
	_atom_site_fract_y
	_atom_site_fract_z
	H0	H	0.409134	0.829738	0.704491
	H1	H	0.602200	0.158751	0.704840
	H2	H	0.602051	0.829630	0.280464
	H3	H	0.407417	0.158119	0.277751
	H4	H	0.719317	0.395990	0.828824
	H5	H	0.720936	0.593696	0.156426
	H6	H	0.290525	0.594094	0.828752
	H7	H	0.289568	0.394447	0.156390
	H8	H	0.842021	0.709839	0.394049
	H9	H	0.168546	0.708642	0.590199
	H10	H	0.842213	0.279456	0.591970
	H11	H	0.168922	0.280402	0.394890
	H12	H	0.842431	0.396053	0.708007
	H13	H	0.169151	0.591275	0.706537
	H14	H	0.841711	0.592978	0.277934
	H15	H	0.168945	0.397535	0.278639
	H16	H	0.407892	0.708158	0.827871
	H17	H	0.601595	0.706892	0.157203
	H18	H	0.602817	0.281688	0.827646
	H19	H	0.406941	0.280323	0.156071
	H20	H	0.720649	0.830782	0.394288
	H21	H	0.720427	0.157619	0.592341
	H22	H	0.290515	0.830814	0.591586
	H23	H	0.291075	0.157773	0.392787
	H24	H	0.907479	0.329638	0.207019
	H25	H	0.103056	0.659105	0.205629
	H26	H	0.102417	0.329404	0.781158
	H27	H	0.909152	0.658055	0.779318
	H28	H	0.219325	0.896062	0.328996
	H29	H	0.219883	0.092377	0.656022
	H30	H	0.791675	0.094281	0.329643
	H31	H	0.789732	0.894545	0.656106
	H32	H	0.342029	0.209428	0.893760
	H33	H	0.668241	0.209789	0.091115
	H34	H	0.342011	0.779063	0.091149
	H35	H	0.668136	0.779269	0.893525
	H36	H	0.341380	0.895448	0.206677
	H37	H	0.668294	0.092365	0.206798
	H38	H	0.342056	0.092680	0.777850
	H39	H	0.668849	0.896915	0.778364
	H40	H	0.907608	0.208538	0.329132
	H41	H	0.103492	0.207389	0.657403
	H42	H	0.103755	0.780449	0.329551
	H43	H	0.907228	0.780808	0.657551
	H44	H	0.219306	0.330356	0.895654
	H45	H	0.219968	0.658223	0.091757
	H46	H	0.790464	0.330042	0.092348
	H47	H	0.791221	0.657532	0.893143
	H48	H	0.407706	0.111205	0.579743
	H49	H	0.600564	0.877223	0.582832
	H50	H	0.600532	0.112784	0.397419
	H51	H	0.419040	0.877181	0.393717
	H52	H	0.599497	0.400536	0.110057
	H53	H	0.606399	0.597180	0.870332
	H54	H	0.415587	0.588515	0.109090
	H55	H	0.416850	0.405310	0.877769
	H56	H	0.122037	0.594083	0.402448
	H57	H	0.887536	0.591661	0.587533
	H58	H	0.123207	0.398412	0.589223
	H59	H	0.889053	0.400613	0.400355
	H60	H	0.121318	0.398626	0.583874
	H61	H	0.890198	0.587434	0.582423
	H62	H	0.118380	0.583267	0.401965
	H63	H	0.889679	0.402205	0.400346
	H64	H	0.408039	0.589655	0.110925
	H65	H	0.603802	0.575661	0.877916
	H66	H	0.598019	0.404552	0.108449
	H67	H	0.411404	0.395962	0.872973
	H68	H	0.595675	0.110547	0.398599
	H69	H	0.600183	0.876346	0.588643
	H70	H	0.408759	0.114070	0.590761
	H71	H	0.413233	0.880253	0.409294
	H72	H	0.913877	0.612745	0.094412
	H73	H	0.091973	0.379612	0.084887
	H74	H	0.095602	0.608949	0.905311
	H75	H	0.913766	0.375318	0.892718
	H76	H	0.097268	0.902124	0.609905
	H77	H	0.091736	0.088871	0.377300
	H78	H	0.908940	0.075554	0.607779
	H79	H	0.918275	0.896836	0.376844
	H80	H	0.623442	0.096134	0.898149
	H81	H	0.386696	0.091959	0.089737
	H82	H	0.622100	0.897248	0.085511
	H83	H	0.385897	0.896242	0.891656
	H84	H	0.619000	0.901996	0.082291
	H85	H	0.391043	0.088788	0.077245
	H86	H	0.618216	0.086527	0.905961
	H87	H	0.390384	0.896383	0.905822
	H88	H	0.923132	0.089725	0.607750
	H89	H	0.101619	0.093084	0.373021
	H90	H	0.098748	0.900338	0.610454
	H91	H	0.905036	0.899430	0.372568
	H92	H	0.106344	0.613966	0.898958
	H93	H	0.102040	0.377929	0.080603
	H94	H	0.920783	0.605280	0.078229
	H95	H	0.916929	0.380528	0.906497
	H96	H	0.417656	0.109758	0.585533
	H97	H	0.595319	0.878249	0.585796
	H98	H	0.599884	0.110314	0.402191
	H99	H	0.403139	0.873818	0.397404
	H100	H	0.595386	0.400959	0.109068
	H101	H	0.586524	0.590206	0.878998
	H102	H	0.410787	0.581991	0.108254
	H103	H	0.405200	0.405910	0.874392
	H104	H	0.122869	0.587946	0.392776
	H105	H	0.890142	0.584693	0.589049
	H106	H	0.121595	0.403010	0.587516
	H107	H	0.889228	0.401488	0.399155
	H108	H	0.902308	0.611925	0.079276
	H109	H	0.100067	0.375751	0.091377
	H110	H	0.094739	0.612114	0.892615
	H111	H	0.903042	0.374749	0.903537
	H112	H	0.099199	0.902944	0.610187
	H113	H	0.100910	0.081721	0.376105
	H114	H	0.905134	0.094676	0.615088
	H115	H	0.912999	0.909623	0.378241
	H116	H	0.621998	0.083938	0.893380
	H117	H	0.390562	0.079668	0.086757
	H118	H	0.620648	0.903381	0.088473
	H119	H	0.390901	0.908798	0.897907
	C120	C	0.383567	0.002813	0.613801
	C121	C	0.626732	0.985944	0.613948
	C122	C	0.626947	0.002562	0.371061
	C123	C	0.384158	0.985774	0.371351
	C124	C	0.625873	0.373536	0.000680
	C125	C	0.626928	0.615857	0.984293
	C126	C	0.383473	0.615727	0.000774
	C127	C	0.383078	0.373368	0.983817
	C128	C	0.013287	0.616779	0.370697
	C129	C	0.997182	0.616147	0.614687
	C130	C	0.014103	0.371742	0.615576
	C131	C	0.997264	0.372943	0.371423
	C132	C	0.883501	0.501845	0.113982
	C133	C	0.126522	0.486072	0.113891
	C134	C	0.127003	0.502977	0.871414
	C135	C	0.883783	0.485572	0.871691
	C136	C	0.126828	0.873241	0.501962
	C137	C	0.126620	0.115924	0.483855
	C138	C	0.883924	0.115931	0.502031
	C139	C	0.883890	0.873182	0.484482
	C140	C	0.513596	0.116615	0.870629
	C141	C	0.496932	0.116072	0.113613
	C142	C	0.513032	0.872152	0.114338
	C143	C	0.497071	0.872598	0.870570
	C144	C	0.387285	0.879165	0.667840
	C145	C	0.623670	0.109625	0.667913
	C146	C	0.623569	0.878809	0.317247
	C147	C	0.386818	0.109077	0.315549
	C148	C	0.681372	0.375768	0.877347
	C149	C	0.682142	0.613392	0.107565
	C150	C	0.328495	0.614249	0.877618
	C151	C	0.327900	0.374932	0.107165
	C152	C	0.890372	0.671171	0.373807
	C153	C	0.119904	0.671002	0.611738
	C154	C	0.890834	0.317592	0.612270
	C155	C	0.120082	0.318083	0.374211
	C156	C	0.890931	0.375517	0.669954
	C157	C	0.120254	0.612360	0.668904
	C158	C	0.890425	0.613230	0.315975
	C159	C	0.120237	0.376395	0.316487
	C160	C	0.386826	0.670591	0.876997
	C161	C	0.623290	0.669990	0.108001
	C162	C	0.623344	0.319239	0.876748
	C163	C	0.385743	0.317841	0.107088
	C164	C	0.682016	0.879471	0.373910
	C165	C	0.682069	0.109040	0.611714
	C166	C	0.328779	0.879586	0.611182
	C167	C	0.329040	0.108951	0.372601
	C168	C	0.886600	0.378752	0.169497
	C169	C	0.123732	0.609982	0.168470
	C170	C	0.123462	0.378550	0.818031
	C171	C	0.887790	0.608926	0.816786
	C172	C	0.181627	0.875723	0.378014
	C173	C	0.182011	0.113098	0.607418
	C174	C	0.829431	0.114121	0.378474
	C175	C	0.828594	0.875027	0.607753
	C176	C	0.390623	0.171267	0.873476
	C177	C	0.619758	0.171474	0.111640
	C178	C	0.390541	0.817010	0.111518
	C179	C	0.619928	0.817708	0.873326
	C180	C	0.390359	0.874387	0.169482
	C181	C	0.619669	0.113196	0.168991
	C182	C	0.390704	0.113544	0.815575
	C183	C	0.619987	0.875929	0.815903
	C184	C	0.887089	0.171098	0.378394
	C185	C	0.123778	0.169849	0.608210
	C186	C	0.124261	0.818399	0.378202
	C187	C	0.886660	0.818153	0.608197
	C188	C	0.181635	0.379042	0.874637
	C189	C	0.181963	0.609425	0.111988
	C190	C	0.828481	0.378835	0.112419
	C191	C	0.829214	0.608698	0.873399
	C192	C	0.405166	0.089481	0.591837
	C193	C	0.604999	0.899611	0.592306
	C194	C	0.605114	0.088958	0.392911
	C195	C	0.405622	0.899223	0.393700
	C196	C	0.604003	0.395418	0.087024
	C197	C	0.605390	0.594152	0.898053
	C198	C	0.405152	0.593481	0.087119
	C199	C	0.404727	0.395828	0.897235
	C200	C	0.098992	0.595005	0.392578
	C201	C	0.911267	0.594399	0.592725
	C202	C	0.100011	0.393500	0.593491
	C203	C	0.911374	0.395036	0.393529
	C204	C	0.905880	0.587908	0.090986
	C205	C	0.104609	0.400251	0.092049
	C206	C	0.105480	0.589105	0.892679
	C207	C	0.905156	0.399160	0.894318
	C208	C	0.104918	0.895108	0.587921
	C209	C	0.104622	0.094299	0.397781
	C210	C	0.905731	0.093229	0.588158
	C211	C	0.905692	0.895349	0.398148
	C212	C	0.599144	0.095057	0.892651
	C213	C	0.411618	0.093642	0.091123
	C214	C	0.598540	0.894459	0.092182
	C215	C	0.411296	0.894027	0.892056
	Zn216	Zn	0.505596	-0.005568	0.742132
	Zn217	Zn	0.505061	-0.005882	0.242903
	Zn218	Zn	0.754869	0.493528	-0.007520
	Zn219	Zn	0.254868	0.495198	-0.007502
	Zn220	Zn	0.005300	0.745382	0.492846
	Zn221	Zn	0.005494	0.243911	0.493363
	Zn222	Zn	0.005926	0.493900	0.743737
	Zn223	Zn	0.005518	0.494667	0.241663
	Zn224	Zn	0.504689	0.743567	-0.007833
	Zn225	Zn	0.505325	0.245581	-0.008065
	Zn226	Zn	0.755419	-0.005278	0.492829
	Zn227	Zn	0.254959	-0.005427	0.492250
	N228	N	0.420589	0.956956	0.669659
	N229	N	0.589908	0.032042	0.669299
	N230	N	0.590120	0.956496	0.315378
	N231	N	0.420405	0.031385	0.314773
	N232	N	0.682819	0.408979	0.955200
	N233	N	0.684447	0.580547	0.029613
	N234	N	0.326404	0.581074	0.955479
	N235	N	0.326211	0.408875	0.029429
	N236	N	0.967748	0.673504	0.407106
	N237	N	0.042383	0.673154	0.578625
	N238	N	0.968291	0.315463	0.579126
	N239	N	0.042699	0.316056	0.407629
	N240	N	0.968663	0.408444	0.672069
	N241	N	0.042900	0.578984	0.670866
	N242	N	0.967858	0.580115	0.313920
	N243	N	0.042827	0.409585	0.314539
	N244	N	0.420417	0.671633	0.954882
	N245	N	0.589613	0.671560	0.030389
	N246	N	0.589513	0.317779	0.954345
	N247	N	0.419223	0.316668	0.029282
	N248	N	0.684406	0.957517	0.406505
	N249	N	0.684041	0.031115	0.578806
	N250	N	0.326410	0.957764	0.578452
	N251	N	0.327110	0.031284	0.406337
	N252	N	0.920380	0.456191	0.170092
	N253	N	0.089961	0.532325	0.169771
	N254	N	0.090276	0.456339	0.815870
	N255	N	0.920958	0.531265	0.815700
	N256	N	0.183430	0.909016	0.455786
	N257	N	0.184019	0.080309	0.529355
	N258	N	0.827432	0.080324	0.456318
	N259	N	0.826684	0.908482	0.529947
	N260	N	0.467929	0.173250	0.907008
	N261	N	0.542567	0.173511	0.077905
	N262	N	0.467821	0.815207	0.078113
	N263	N	0.542482	0.815205	0.906586
	N264	N	0.467642	0.908165	0.171213
	N265	N	0.542538	0.079271	0.170251
	N266	N	0.468070	0.080259	0.813801
	N267	N	0.542831	0.909401	0.814368
	N268	N	0.920211	0.172249	0.456217
	N269	N	0.090118	0.171754	0.530587
	N270	N	0.090697	0.816804	0.455998
	N271	N	0.920401	0.816907	0.530408
	N272	N	0.183787	0.457203	0.907263
	N273	N	0.183831	0.531724	0.078772
	N274	N	0.826295	0.456771	0.078859
	N275	N	0.826672	0.530775	0.906657
	O276	O	0.933510	-0.030116	1.057331
	H277	H	0.941016	-0.026326	1.061328
	H278	H	0.936317	-0.032115	1.060733
	O279	O	-0.069531	0.960642	1.078862
	H280	H	-0.075273	0.957720	1.074660
	H281	H	-0.068521	0.957348	1.079511
	O282	O	0.920509	0.945213	0.062852
	H283	H	0.922974	0.946086	0.057123
	H284	H	0.917851	0.951926	0.073703
	O285	O	-0.067615	0.924612	1.062154
	H286	H	-0.075911	0.913630	1.062848
	H287	H	-0.079591	0.927767	1.064836
