data_Molecule from HDF5

_cell_length_a		16.498885
_cell_length_b		16.594229
_cell_length_c		16.518373
_cell_angle_alpha	89.965356
_cell_angle_beta	89.970405
_cell_angle_gamma	89.931413
_symmetry_space_group_name_H-M	'P 1'
_symmetry_Int_Tables_number		1

loop_
	_symmetry_equiv_pos_as_xyz
	x,y,z

loop_
	_atom_site_label
	_atom_site_type_symbol
	_atom_site_fract_x
	_atom_site_fract_y
	_atom_site_fract_z
	H0	H	0.406925	0.851188	0.724466
	H1	H	0.615195	0.164004	0.725269
	H2	H	0.612925	0.850578	0.285299
	H3	H	0.404596	0.165135	0.283440
	H4	H	0.732220	0.401384	0.847841
	H5	H	0.729579	0.610558	0.162658
	H6	H	0.291027	0.608602	0.846923
	H7	H	0.288069	0.401511	0.162563
	H8	H	0.853850	0.729846	0.399619
	H9	H	0.165811	0.728803	0.611978
	H10	H	0.853257	0.283943	0.612106
	H11	H	0.166273	0.285164	0.399645
	H12	H	0.851181	0.403278	0.725418
	H13	H	0.166484	0.609956	0.726053
	H14	H	0.852730	0.611747	0.284908
	H15	H	0.166135	0.401262	0.283246
	H16	H	0.405007	0.727244	0.847559
	H17	H	0.612872	0.726977	0.162861
	H18	H	0.618883	0.282602	0.849565
	H19	H	0.403549	0.283839	0.161562
	H20	H	0.732539	0.852097	0.398798
	H21	H	0.732671	0.163454	0.609770
	H22	H	0.290600	0.850815	0.607739
	H23	H	0.287339	0.164670	0.399412
	H24	H	0.902002	0.351066	0.229217
	H25	H	0.111659	0.664590	0.224606
	H26	H	0.112781	0.349786	0.784507
	H27	H	0.902523	0.664051	0.783737
	H28	H	0.230297	0.902669	0.347633
	H29	H	0.230136	0.110693	0.662641
	H30	H	0.787504	0.114718	0.347577
	H31	H	0.786872	0.901642	0.661227
	H32	H	0.353748	0.228122	0.899786
	H33	H	0.666565	0.230689	0.112807
	H34	H	0.350791	0.789663	0.107351
	H35	H	0.668331	0.787475	0.901800
	H36	H	0.350505	0.906558	0.223282
	H37	H	0.667370	0.112205	0.226304
	H38	H	0.353256	0.111828	0.784132
	H39	H	0.668480	0.902845	0.784511
	H40	H	0.902075	0.232184	0.349471
	H41	H	0.116075	0.229340	0.661776
	H42	H	0.115546	0.784746	0.349185
	H43	H	0.904020	0.786305	0.661950
	H44	H	0.231458	0.350874	0.899378
	H45	H	0.228351	0.664680	0.107622
	H46	H	0.786312	0.351019	0.111947
	H47	H	0.787455	0.664304	0.900931
	H48	H	0.418924	0.120878	0.596947
	H49	H	0.596474	0.897841	0.589259
	H50	H	0.593916	0.120378	0.409552
	H51	H	0.417900	0.895539	0.416293
	H52	H	0.598937	0.419820	0.116133
	H53	H	0.596848	0.594868	0.893606
	H54	H	0.416878	0.597183	0.118884
	H55	H	0.423858	0.415311	0.893593
	H56	H	0.119984	0.591994	0.420344
	H57	H	0.898469	0.591731	0.593090
	H58	H	0.122013	0.421945	0.598411
	H59	H	0.898622	0.424232	0.416265
	H60	H	0.123885	0.412228	0.595546
	H61	H	0.893570	0.599144	0.599789
	H62	H	0.124063	0.595094	0.409812
	H63	H	0.895539	0.415856	0.416190
	H64	H	0.420659	0.597426	0.117266
	H65	H	0.597177	0.600546	0.891411
	H66	H	0.594959	0.420339	0.114615
	H67	H	0.418101	0.416260	0.891255
	H68	H	0.596100	0.117431	0.422559
	H69	H	0.603629	0.893888	0.592021
	H70	H	0.422687	0.119954	0.593618
	H71	H	0.419562	0.895150	0.411900
	H72	H	0.913757	0.619688	0.092264
	H73	H	0.101166	0.393413	0.098092
	H74	H	0.094653	0.618262	0.912985
	H75	H	0.920490	0.394136	0.911912
	H76	H	0.097202	0.912815	0.619183
	H77	H	0.093688	0.101298	0.392983
	H78	H	0.923870	0.096551	0.615950
	H79	H	0.927076	0.919612	0.395214
	H80	H	0.622012	0.096386	0.918289
	H81	H	0.401935	0.090461	0.088849
	H82	H	0.624171	0.915406	0.096861
	H83	H	0.398517	0.921167	0.915117
	H84	H	0.622695	0.915577	0.093108
	H85	H	0.395664	0.095007	0.102174
	H86	H	0.622295	0.092648	0.916962
	H87	H	0.395935	0.916245	0.910116
	H88	H	0.919794	0.095429	0.617121
	H89	H	0.103755	0.096766	0.390863
	H90	H	0.103692	0.918585	0.618742
	H91	H	0.921665	0.913411	0.391138
	H92	H	0.098816	0.616986	0.919814
	H93	H	0.092607	0.396575	0.094352
	H94	H	0.920711	0.620477	0.101472
	H95	H	0.923347	0.397279	0.917778
	H96	H	0.417662	0.120599	0.592071
	H97	H	0.596434	0.895362	0.597362
	H98	H	0.606093	0.122844	0.415145
	H99	H	0.421914	0.897117	0.415462
	H100	H	0.596400	0.416903	0.116464
	H101	H	0.601881	0.597341	0.891573
	H102	H	0.419226	0.600606	0.119095
	H103	H	0.421038	0.421026	0.893944
	H104	H	0.123745	0.602995	0.418629
	H105	H	0.896192	0.601806	0.589586
	H106	H	0.119181	0.418931	0.589257
	H107	H	0.899720	0.419564	0.423413
	H108	H	0.924680	0.614907	0.091789
	H109	H	0.100796	0.395947	0.089076
	H110	H	0.102356	0.620328	0.913580
	H111	H	0.916951	0.394909	0.917624
	H112	H	0.096464	0.920923	0.615753
	H113	H	0.095770	0.091066	0.395759
	H114	H	0.922775	0.093079	0.615038
	H115	H	0.918240	0.922029	0.392787
	H116	H	0.623759	0.095262	0.914268
	H117	H	0.396110	0.105130	0.090382
	H118	H	0.622128	0.918401	0.095529
	H119	H	0.397249	0.913935	0.917309
	C120	C	0.388906	0.016377	0.625490
	C121	C	0.631874	0.998947	0.625668
	C122	C	0.631255	0.016563	0.383243
	C123	C	0.387495	0.999525	0.382483
	C124	C	0.630992	0.385436	0.012965
	C125	C	0.630433	0.628755	0.996716
	C126	C	0.387878	0.628935	0.014010
	C127	C	0.388340	0.385249	0.996874
	C128	C	0.018344	0.628300	0.384497
	C129	C	1.000138	0.628938	0.626736
	C130	C	0.017919	0.385391	0.626848
	C131	C	1.001160	0.386261	0.384686
	C132	C	0.887172	0.515225	0.127696
	C133	C	0.130240	0.498749	0.126135
	C134	C	0.130275	0.514863	0.883806
	C135	C	0.887525	0.499163	0.883865
	C136	C	0.131388	0.885518	0.513760
	C137	C	0.130461	0.128291	0.496980
	C138	C	0.888972	0.128444	0.512650
	C139	C	0.889035	0.886412	0.496405
	C140	C	0.518712	0.127416	0.884366
	C141	C	0.501811	0.128759	0.126125
	C142	C	0.517983	0.886285	0.126065
	C143	C	0.501937	0.885751	0.883113
	C144	C	0.387542	0.898410	0.685131
	C145	C	0.633937	0.116876	0.685669
	C146	C	0.632841	0.898277	0.323960
	C147	C	0.385866	0.117806	0.323081
	C148	C	0.692438	0.382573	0.895334
	C149	C	0.689939	0.629768	0.115321
	C150	C	0.329801	0.628620	0.894546
	C151	C	0.327876	0.382768	0.114924
	C152	C	0.900443	0.689045	0.381486
	C153	C	0.118890	0.688462	0.629968
	C154	C	0.899804	0.324756	0.629805
	C155	C	0.119114	0.325569	0.381503
	C156	C	0.898711	0.384059	0.685946
	C157	C	0.119130	0.629506	0.686533
	C158	C	0.900007	0.630503	0.324600
	C159	C	0.119101	0.383099	0.323536
	C160	C	0.386618	0.687418	0.894943
	C161	C	0.631974	0.687558	0.115532
	C162	C	0.635889	0.323614	0.895991
	C163	C	0.385338	0.324382	0.114656
	C164	C	0.692173	0.899119	0.380469
	C165	C	0.692394	0.116593	0.628353
	C166	C	0.330190	0.898030	0.626663
	C167	C	0.327645	0.117687	0.380827
	C168	C	0.884282	0.397758	0.188492
	C169	C	0.130897	0.617396	0.184772
	C170	C	0.131702	0.396876	0.824376
	C171	C	0.885176	0.617031	0.824231
	C172	C	0.190503	0.884192	0.395120
	C173	C	0.190310	0.129450	0.615692
	C174	C	0.828254	0.131959	0.394639
	C175	C	0.827715	0.883932	0.614116
	C176	C	0.400681	0.187806	0.881819
	C177	C	0.619793	0.189698	0.129907
	C178	C	0.398162	0.829032	0.126326
	C179	C	0.620939	0.827054	0.882788
	C180	C	0.398407	0.887079	0.183977
	C181	C	0.620146	0.130886	0.186494
	C182	C	0.400582	0.130009	0.824218
	C183	C	0.621074	0.884552	0.824466
	C184	C	0.885253	0.190551	0.395661
	C185	C	0.133609	0.188391	0.615005
	C186	C	0.133502	0.825499	0.395846
	C187	C	0.886022	0.826435	0.614844
	C188	C	0.190724	0.397340	0.881484
	C189	C	0.189020	0.617430	0.126844
	C190	C	0.826598	0.397862	0.130164
	C191	C	0.827794	0.617166	0.882651
	C192	C	0.412984	0.099046	0.601253
	C193	C	0.606313	0.917090	0.600085
	C194	C	0.605918	0.098727	0.408489
	C195	C	0.412431	0.917431	0.407289
	C196	C	0.604401	0.411547	0.094639
	C197	C	0.605739	0.604572	0.913754
	C198	C	0.412018	0.605108	0.096870
	C199	C	0.413864	0.410504	0.914552
	C200	C	0.101150	0.603568	0.409129
	C201	C	0.917696	0.604625	0.601467
	C202	C	0.100257	0.410624	0.601744
	C203	C	0.919282	0.412633	0.411070
	C204	C	0.912443	0.596830	0.102396
	C205	C	0.105322	0.416773	0.101137
	C206	C	0.105636	0.597252	0.908490
	C207	C	0.913001	0.416840	0.908771
	C208	C	0.106339	0.910250	0.596409
	C209	C	0.105013	0.103533	0.414652
	C210	C	0.914789	0.102266	0.594734
	C211	C	0.915018	0.911326	0.414331
	C212	C	0.601117	0.102197	0.909526
	C213	C	0.419327	0.104095	0.100683
	C214	C	0.601280	0.909534	0.102012
	C215	C	0.418850	0.909968	0.907262
	Zn216	Zn	0.510598	0.007374	0.754389
	Zn217	Zn	0.509973	0.008039	0.254572
	Zn218	Zn	0.758653	0.506740	0.005237
	Zn219	Zn	0.259566	0.506804	0.005031
	Zn220	Zn	0.009795	0.757035	0.505360
	Zn221	Zn	0.009428	0.257523	0.505489
	Zn222	Zn	0.008685	0.507080	0.754556
	Zn223	Zn	0.009520	0.506730	0.255983
	Zn224	Zn	0.509387	0.757336	0.005060
	Zn225	Zn	0.510188	0.256989	0.004919
	Zn226	Zn	0.760402	0.007959	0.504393
	Zn227	Zn	0.259185	0.008001	0.505076
	N228	N	0.423116	0.973036	0.684603
	N229	N	0.597368	0.042429	0.684396
	N230	N	0.595745	0.972488	0.325437
	N231	N	0.422152	0.043254	0.323842
	N232	N	0.689332	0.420324	0.969162
	N233	N	0.689036	0.593919	0.040335
	N234	N	0.330220	0.593035	0.969579
	N235	N	0.329688	0.419800	0.040548
	N236	N	0.975086	0.687610	0.418210
	N237	N	0.043952	0.688365	0.593695
	N238	N	0.974979	0.325352	0.593870
	N239	N	0.044648	0.327330	0.418668
	N240	N	0.973114	0.420822	0.684384
	N241	N	0.044178	0.593501	0.685021
	N242	N	0.974484	0.593610	0.326180
	N243	N	0.044598	0.420056	0.325374
	N244	N	0.421740	0.687977	0.970285
	N245	N	0.595726	0.687074	0.040680
	N246	N	0.598452	0.325154	0.970218
	N247	N	0.422142	0.325674	0.040141
	N248	N	0.691405	0.973844	0.416244
	N249	N	0.691436	0.042253	0.591970
	N250	N	0.330706	0.972581	0.590371
	N251	N	0.328095	0.042963	0.416622
	N252	N	0.921265	0.471835	0.187223
	N253	N	0.095220	0.542563	0.184603
	N254	N	0.094704	0.470902	0.825836
	N255	N	0.921570	0.542535	0.825020
	N256	N	0.189519	0.920661	0.469700
	N257	N	0.188657	0.092980	0.541020
	N258	N	0.830470	0.094063	0.468501
	N259	N	0.829651	0.920543	0.539664
	N260	N	0.475409	0.186629	0.918288
	N261	N	0.545178	0.188475	0.093084
	N262	N	0.473643	0.828266	0.091056
	N263	N	0.545726	0.827529	0.918364
	N264	N	0.473854	0.921907	0.183938
	N265	N	0.545912	0.093694	0.184357
	N266	N	0.475013	0.093117	0.825665
	N267	N	0.545911	0.920214	0.824348
	N268	N	0.922328	0.188341	0.470092
	N269	N	0.097086	0.187783	0.540306
	N270	N	0.097458	0.826279	0.470749
	N271	N	0.923593	0.827891	0.540540
	N272	N	0.189925	0.471800	0.917739
	N273	N	0.188535	0.542708	0.090981
	N274	N	0.828056	0.471828	0.093177
	N275	N	0.828927	0.542587	0.918903
	O276	O	0.988633	0.790318	-0.015177
	H277	H	1.011655	0.791625	-0.037087
	H278	H	0.992491	0.777909	-0.021989
	O279	O	-0.138077	-0.042890	0.924606
	H280	H	-0.163883	-0.052609	0.909494
	H281	H	-0.115845	-0.061003	0.911693
	O282	O	0.509552	0.467090	0.544429
	H283	H	0.511282	0.458704	0.550434
	H284	H	0.489246	0.456610	0.547955
	O285	O	0.502582	0.295660	0.721500
	H286	H	0.492358	0.272800	0.737466
	H287	H	0.476817	0.291527	0.716417
	O288	O	1.186954	0.098471	0.894877
	H289	H	1.181537	0.085818	0.917621
	H290	H	1.190901	0.103374	0.896408
	O291	O	0.393183	0.519941	0.705771
	H292	H	0.399846	0.529998	0.718544
	H293	H	0.385418	0.530994	0.697147
	O294	O	0.216805	0.764412	-0.811957
	H295	H	0.225087	0.770509	-0.827931
	H296	H	0.204466	0.779080	-0.815298
	O297	O	0.531815	-0.513039	-0.283815
	H298	H	0.524092	-0.510539	-0.290225
	H299	H	0.527922	-0.521489	-0.275841
	O300	O	-0.202120	0.206839	0.006285
	H301	H	-0.234314	0.228064	0.001567
	H302	H	-0.193313	0.170662	-0.016356
	O303	O	-0.000452	-0.089599	-0.144376
	H304	H	-0.003077	-0.104595	-0.134397
	H305	H	0.005445	-0.088068	-0.151543
	O306	O	0.915244	0.157998	0.079957
	H307	H	0.928316	0.143806	0.083132
	H308	H	0.888779	0.166088	0.068522
	O309	O	0.541994	0.725377	0.722554
	H310	H	0.576611	0.717655	0.708303
	H311	H	0.553554	0.756567	0.752070
	O312	O	0.011954	-0.148916	0.195689
	H313	H	0.017254	-0.147775	0.199230
	H314	H	0.017357	-0.154185	0.177812
	O315	O	0.326158	0.352363	0.351867
	H316	H	0.327913	0.345610	0.343188
	H317	H	0.325329	0.350061	0.348836
	O318	O	0.700134	0.671980	0.348948
	H319	H	0.725519	0.685544	0.323896
	H320	H	0.706052	0.663934	0.365347
	O321	O	0.157238	0.818247	0.792164
	H322	H	0.177553	0.850252	0.789045
	H323	H	0.175075	0.797486	0.765575
	O324	O	1.164333	0.220407	0.868459
	H325	H	1.153707	0.208200	0.867911
	H326	H	1.158226	0.206707	0.893217
	O327	O	0.852798	0.111685	0.158393
	H328	H	0.844040	0.114591	0.160845
	H329	H	0.851203	0.130079	0.150412
	O330	O	0.294607	0.340766	0.504333
	H331	H	0.295070	0.331986	0.501994
	H332	H	0.287351	0.334902	0.499904
	O333	O	0.362556	0.602210	0.387842
	H334	H	0.367053	0.614350	0.390395
	H335	H	0.374630	0.606130	0.389623
	O336	O	0.309269	0.342590	0.708695
	H337	H	0.293203	0.340185	0.712075
	H338	H	0.308867	0.350657	0.707001
	O339	O	0.528067	0.633523	0.506353
	H340	H	0.516308	0.631763	0.502753
	H341	H	0.536598	0.635039	0.491252
	O342	O	0.200512	0.990781	-0.084709
	H343	H	0.201954	0.997694	-0.067501
	H344	H	0.218083	0.997905	-0.082051
	O345	O	0.717684	0.302330	0.719818
	H346	H	0.732087	0.290158	0.720111
	H347	H	0.711410	0.288104	0.725466
	O348	O	0.220732	0.948928	0.887967
	H349	H	0.233044	0.949203	0.893056
	H350	H	0.214656	0.962035	0.893736
	O351	O	0.208565	0.225540	1.034494
	H352	H	0.210705	0.240804	1.053176
	H353	H	0.214425	0.246132	1.030042
	O354	O	1.070837	-0.187311	0.949278
	H355	H	1.081897	-0.198770	0.949903
	H356	H	1.090465	-0.178834	0.937405
	O357	O	0.558469	0.592537	0.299035
	H358	H	0.558558	0.600425	0.315231
	H359	H	0.570993	0.595545	0.302448
	O360	O	0.401211	0.610360	0.534336
	H361	H	0.384505	0.622511	0.544466
	H362	H	0.400862	0.599456	0.536949
	O363	O	0.700695	0.459799	0.531988
	H364	H	0.704849	0.447140	0.544972
	H365	H	0.690654	0.449782	0.537889
	O366	O	0.967482	0.201545	0.899942
	H367	H	0.952616	0.219018	0.893749
	H368	H	0.959081	0.200340	0.886500
	O369	O	-0.030269	0.082537	1.025219
	H370	H	-0.032064	0.082113	0.998230
	H371	H	-0.040054	0.090166	1.025338
	O372	O	0.001935	1.034275	0.905997
	H373	H	-0.001355	1.033494	0.909886
	H374	H	0.000184	1.036514	0.905327
	O375	O	0.909001	-0.088462	0.022190
	H376	H	0.908356	-0.095061	0.024439
	H377	H	0.919008	-0.103935	0.030788
	O378	O	0.392189	0.445939	0.538544
	H379	H	0.407462	0.436258	0.544464
	H380	H	0.393031	0.445305	0.528007
	O381	O	0.225326	1.037694	0.223117
	H382	H	0.208381	1.023593	0.213679
	H383	H	0.256666	1.044520	0.253166
	O384	O	0.679094	0.294534	0.504587
	H385	H	0.692984	0.279889	0.498307
	H386	H	0.684123	0.295599	0.500104
	O387	O	0.037863	1.219028	1.217792
	H388	H	0.026787	1.228856	1.223902
	H389	H	0.022772	1.221047	1.221369
	O390	O	-0.120169	0.904254	0.802845
	H391	H	-0.107504	0.886876	0.792688
	H392	H	-0.099168	0.905615	0.797277
	O393	O	1.203084	0.202600	0.200792
	H394	H	1.162947	0.196257	0.205866
	H395	H	1.201268	0.184952	0.186233
	O396	O	0.707894	0.306188	0.307090
	H397	H	0.674016	0.311938	0.308492
	H398	H	0.711464	0.336817	0.306115
	O399	O	0.467216	0.288188	0.444806
	H400	H	0.467814	0.289068	0.452061
	H401	H	0.473353	0.287218	0.424762
	O402	O	0.804680	-0.201473	1.210468
	H403	H	0.843376	-0.190874	1.207649
	H404	H	0.797823	-0.188294	1.183394
	O405	O	0.537918	0.335774	0.294687
	H406	H	0.540518	0.339049	0.286281
	H407	H	0.533860	0.344069	0.276768
	O408	O	1.047188	1.059772	0.958482
	H409	H	1.039119	1.054303	0.963609
	H410	H	1.045960	1.067524	0.966154
	O411	O	0.794731	0.980194	0.222324
	H412	H	0.785632	0.986315	0.233567
	H413	H	0.786255	0.978437	0.227201
	O414	O	-0.027456	0.038194	0.193256
	H415	H	-0.038415	0.038177	0.191514
	H416	H	-0.029124	0.057725	0.189922
	O417	O	0.515156	0.324086	0.560191
	H418	H	0.520920	0.313296	0.557338
	H419	H	0.518245	0.324391	0.544906
	O420	O	0.706180	-0.294485	0.699796
	H421	H	0.714831	-0.291145	0.657925
	H422	H	0.709628	-0.337769	0.702673
	O423	O	1.154215	0.966431	0.087536
	H424	H	1.152266	0.968334	0.072583
	H425	H	1.138140	0.967945	0.084869
	O426	O	0.447856	0.724724	0.297149
	H427	H	0.454735	0.728876	0.294566
	H428	H	0.462425	0.733010	0.282154
	O429	O	0.296508	0.540428	0.289211
	H430	H	0.294138	0.566286	0.288222
	H431	H	0.274483	0.560362	0.276653
	O432	O	0.809110	0.033803	0.944222
	H433	H	0.804501	0.021757	0.931963
	H434	H	0.808562	0.008006	0.950240
	O435	O	0.223436	0.810096	0.927873
	H436	H	0.232849	0.821873	0.904230
	H437	H	0.243048	0.797674	0.915225
	O438	O	0.409248	0.597242	0.561512
	H439	H	0.415918	0.581727	0.555183
	H440	H	0.411801	0.605800	0.564599
	O441	O	0.719775	0.574980	0.450426
	H442	H	0.725042	0.554451	0.461538
	H443	H	0.708637	0.572997	0.465472
	O444	O	0.552534	0.498345	0.535681
	H445	H	0.539517	0.493346	0.529780
	H446	H	0.549833	0.488163	0.534891
	O447	O	0.806918	0.176657	0.801713
	H448	H	0.813895	0.166237	0.829612
	H449	H	0.802280	0.147377	0.799763
	O450	O	0.688989	0.720029	-0.461239
	H451	H	0.680356	0.717987	-0.481295
	H452	H	0.696037	0.727140	-0.474606
	O453	O	0.322456	0.696371	0.692156
	H454	H	0.330276	0.675146	0.672945
	H455	H	0.343816	0.680030	0.677207
	O456	O	-0.198172	0.806359	1.023592
	H457	H	-0.211376	0.785354	1.027932
	H458	H	-0.179375	0.803129	1.009235
	O459	O	0.647160	0.545259	0.648745
	H460	H	0.670677	0.534347	0.667897
	H461	H	0.625646	0.523203	0.649784
	O462	O	0.531577	0.449984	0.281793
	H463	H	0.526377	0.456162	0.286838
	H464	H	0.520872	0.473859	0.277793
	O465	O	0.294900	0.624410	0.508448
	H466	H	0.283967	0.638486	0.491117
	H467	H	0.304287	0.606154	0.495456
	O468	O	0.169180	0.895418	0.102462
	H469	H	0.163182	0.905075	0.088577
	H470	H	0.152685	0.898431	0.102748
	O471	O	0.511431	0.724886	0.482344
	H472	H	0.507314	0.725487	0.489145
	H473	H	0.520478	0.715652	0.486131
	O474	O	1.056582	1.160197	-0.197174
	H475	H	1.065048	1.149245	-0.183708
	H476	H	1.051554	1.164249	-0.200974
	O477	O	0.714063	0.431697	0.337787
	H478	H	0.729016	0.442487	0.339279
	H479	H	0.708734	0.446536	0.337884
