data_Molecule from HDF5

_cell_length_a		16.270138
_cell_length_b		16.149322
_cell_length_c		16.248295
_cell_angle_alpha	90.002788
_cell_angle_beta	89.381207
_cell_angle_gamma	90.183570
_symmetry_space_group_name_H-M	'P 1'
_symmetry_Int_Tables_number		1

loop_
	_symmetry_equiv_pos_as_xyz
	x,y,z

loop_
	_atom_site_label
	_atom_site_type_symbol
	_atom_site_fract_x
	_atom_site_fract_y
	_atom_site_fract_z
	H0	H	0.385395	0.840025	0.715827
	H1	H	0.586734	0.168980	0.712139
	H2	H	0.590509	0.840364	0.283016
	H3	H	0.392499	0.169135	0.285957
	H4	H	0.707444	0.402519	0.837043
	H5	H	0.700503	0.602018	0.164341
	H6	H	0.275546	0.603505	0.835824
	H7	H	0.269561	0.402285	0.163284
	H8	H	0.824017	0.717756	0.403781
	H9	H	0.152562	0.719678	0.594719
	H10	H	0.823820	0.289012	0.600401
	H11	H	0.153314	0.291416	0.399285
	H12	H	0.824831	0.404568	0.718547
	H13	H	0.152160	0.606417	0.713769
	H14	H	0.824521	0.603374	0.286828
	H15	H	0.151923	0.405604	0.282529
	H16	H	0.391953	0.717751	0.836028
	H17	H	0.585838	0.717931	0.163331
	H18	H	0.586946	0.290735	0.834687
	H19	H	0.388753	0.289631	0.164318
	H20	H	0.703312	0.839973	0.397850
	H21	H	0.702185	0.168625	0.596950
	H22	H	0.270667	0.840018	0.600272
	H23	H	0.276940	0.169539	0.401222
	H24	H	0.887958	0.338752	0.215367
	H25	H	0.085290	0.669064	0.210606
	H26	H	0.088872	0.341087	0.782860
	H27	H	0.890888	0.669641	0.788644
	H28	H	0.205886	0.905311	0.335714
	H29	H	0.202604	0.105838	0.662857
	H30	H	0.775699	0.103513	0.334272
	H31	H	0.768156	0.901840	0.660343
	H32	H	0.323994	0.216023	0.904729
	H33	H	0.652432	0.218376	0.095536
	H34	H	0.325070	0.788283	0.099241
	H35	H	0.652626	0.790399	0.899929
	H36	H	0.326228	0.902339	0.218048
	H37	H	0.653932	0.102876	0.210245
	H38	H	0.324155	0.103480	0.787339
	H39	H	0.651194	0.902913	0.780379
	H40	H	0.892064	0.219307	0.334837
	H41	H	0.085161	0.219006	0.663374
	H42	H	0.088238	0.791558	0.334217
	H43	H	0.888636	0.791267	0.663312
	H44	H	0.202271	0.339063	0.898846
	H45	H	0.203357	0.667858	0.098841
	H46	H	0.772822	0.338403	0.100415
	H47	H	0.776350	0.668326	0.903611
	H48	H	0.400823	0.121597	0.596749
	H49	H	0.573915	0.885396	0.597713
	H50	H	0.581687	0.122638	0.401827
	H51	H	0.398399	0.887665	0.409362
	H52	H	0.577160	0.415005	0.114077
	H53	H	0.593229	0.595070	0.880384
	H54	H	0.385585	0.605539	0.121578
	H55	H	0.399153	0.407353	0.883415
	H56	H	0.107287	0.600027	0.400795
	H57	H	0.872307	0.594894	0.594165
	H58	H	0.103724	0.412783	0.591214
	H59	H	0.871384	0.412721	0.401333
	H60	H	0.105600	0.412608	0.592443
	H61	H	0.870967	0.596720	0.596375
	H62	H	0.104804	0.599666	0.408106
	H63	H	0.870198	0.404173	0.409366
	H64	H	0.388670	0.581133	0.114149
	H65	H	0.579828	0.587701	0.885543
	H66	H	0.576311	0.405263	0.117465
	H67	H	0.391902	0.406837	0.881392
	H68	H	0.582374	0.121952	0.408456
	H69	H	0.573248	0.890331	0.583159
	H70	H	0.394666	0.119867	0.587333
	H71	H	0.396242	0.886875	0.409404
	H72	H	0.882075	0.625546	0.096474
	H73	H	0.073228	0.385688	0.098705
	H74	H	0.078167	0.618921	0.914797
	H75	H	0.908532	0.388807	0.905833
	H76	H	0.076322	0.909628	0.615547
	H77	H	0.088801	0.099252	0.380257
	H78	H	0.902090	0.092490	0.612030
	H79	H	0.896571	0.907781	0.380664
	H80	H	0.603409	0.092420	0.909399
	H81	H	0.370227	0.095320	0.101342
	H82	H	0.605037	0.917053	0.094732
	H83	H	0.372596	0.914701	0.906533
	H84	H	0.609232	0.904331	0.095329
	H85	H	0.371719	0.100021	0.090926
	H86	H	0.605800	0.093219	0.897556
	H87	H	0.370140	0.907639	0.905890
	H88	H	0.892653	0.104077	0.617822
	H89	H	0.083245	0.093241	0.383281
	H90	H	0.083643	0.912389	0.617743
	H91	H	0.893026	0.913021	0.381082
	H92	H	0.093183	0.624696	0.908190
	H93	H	0.076700	0.388963	0.083149
	H94	H	0.902367	0.621640	0.102801
	H95	H	0.893996	0.389624	0.920030
	H96	H	0.390528	0.124187	0.596183
	H97	H	0.587381	0.885437	0.589122
	H98	H	0.586892	0.124032	0.403893
	H99	H	0.396979	0.886601	0.407274
	H100	H	0.585817	0.409807	0.118423
	H101	H	0.580138	0.603573	0.881516
	H102	H	0.408600	0.596838	0.113237
	H103	H	0.395333	0.413032	0.883688
	H104	H	0.104502	0.593956	0.404165
	H105	H	0.871725	0.597792	0.594129
	H106	H	0.103933	0.411244	0.591299
	H107	H	0.874997	0.415075	0.413228
	H108	H	0.896868	0.617408	0.082535
	H109	H	0.088336	0.382655	0.092483
	H110	H	0.079325	0.623430	0.898305
	H111	H	0.888967	0.381410	0.901324
	H112	H	0.078325	0.917393	0.613733
	H113	H	0.080701	0.100724	0.382455
	H114	H	0.886585	0.089939	0.615164
	H115	H	0.899163	0.912711	0.382598
	H116	H	0.606705	0.103916	0.904593
	H117	H	0.374035	0.089663	0.093153
	H118	H	0.604182	0.909284	0.084101
	H119	H	0.373212	0.909768	0.912090
	C120	C	0.365314	0.013060	0.622311
	C121	C	0.607731	0.995550	0.619060
	C122	C	0.611758	0.013560	0.376107
	C123	C	0.369035	0.995898	0.379129
	C124	C	0.609843	0.381207	0.008435
	C125	C	0.611017	0.624306	0.991237
	C126	C	0.367437	0.623664	0.007683
	C127	C	0.365678	0.380400	0.991359
	C128	C	-0.002968	0.626172	0.377401
	C129	C	0.979822	0.626525	0.621913
	C130	C	-0.003668	0.382708	0.622139
	C131	C	0.980413	0.382644	0.377947
	C132	C	0.865266	0.512113	0.122815
	C133	C	0.108814	0.494734	0.120061
	C134	C	0.111635	0.513401	0.877577
	C135	C	0.868745	0.495600	0.880504
	C136	C	0.109663	0.883485	0.507279
	C137	C	0.111306	0.126588	0.490585
	C138	C	0.866569	0.125192	0.506818
	C139	C	0.865929	0.881883	0.489523
	C140	C	0.496610	0.124887	0.877292
	C141	C	0.480448	0.124237	0.121328
	C142	C	0.498014	0.881063	0.121812
	C143	C	0.480100	0.881811	0.877581
	C144	C	0.365902	0.889279	0.677848
	C145	C	0.606396	0.119840	0.674301
	C146	C	0.609989	0.889488	0.320792
	C147	C	0.372111	0.119968	0.323900
	C148	C	0.667877	0.382695	0.885610
	C149	C	0.663536	0.621882	0.115150
	C150	C	0.313548	0.622767	0.884603
	C151	C	0.308555	0.382378	0.114352
	C152	C	0.873206	0.680313	0.382340
	C153	C	0.103494	0.682430	0.617136
	C154	C	0.873108	0.326813	0.620694
	C155	C	0.104086	0.328708	0.379167
	C156	C	0.873267	0.384365	0.679460
	C157	C	0.103308	0.625637	0.675729
	C158	C	0.873522	0.623240	0.324265
	C159	C	0.103241	0.385278	0.320826
	C160	C	0.371322	0.679930	0.884790
	C161	C	0.606787	0.679953	0.114486
	C162	C	0.608101	0.327061	0.884456
	C163	C	0.367385	0.326047	0.114797
	C164	C	0.666276	0.889263	0.377835
	C165	C	0.663907	0.119496	0.617126
	C166	C	0.308753	0.889347	0.620475
	C167	C	0.314758	0.120245	0.381341
	C168	C	0.867340	0.388125	0.178169
	C169	C	0.106411	0.619482	0.174135
	C170	C	0.109010	0.389708	0.821242
	C171	C	0.870903	0.619988	0.825916
	C172	C	0.167167	0.885043	0.384321
	C173	C	0.164927	0.125193	0.613953
	C174	C	0.813040	0.123451	0.383307
	C175	C	0.807716	0.882501	0.612099
	C176	C	0.373127	0.179200	0.882469
	C177	C	0.603841	0.180175	0.116552
	C178	C	0.374202	0.825731	0.120270
	C179	C	0.603292	0.827181	0.878803
	C180	C	0.375048	0.882651	0.179244
	C181	C	0.604618	0.122943	0.173620
	C182	C	0.373286	0.123139	0.824128
	C183	C	0.602588	0.883714	0.819814
	C184	C	0.871145	0.180834	0.383502
	C185	C	0.106445	0.181597	0.614262
	C186	C	0.108537	0.828565	0.383598
	C187	C	0.867495	0.827519	0.613613
	C188	C	0.165434	0.388773	0.878831
	C189	C	0.165111	0.618673	0.118552
	C190	C	0.810528	0.387752	0.120594
	C191	C	0.813844	0.619464	0.883067
	C192	C	0.388447	0.099614	0.599912
	C193	C	0.584812	0.909469	0.596594
	C194	C	0.589879	0.100326	0.398116
	C195	C	0.390847	0.909386	0.401840
	C196	C	0.586579	0.403476	0.094442
	C197	C	0.590445	0.602041	0.904899
	C198	C	0.388126	0.601005	0.094210
	C199	C	0.388537	0.402520	0.905130
	C200	C	0.083218	0.604341	0.398208
	C201	C	0.894071	0.603467	0.601191
	C202	C	0.082291	0.405576	0.598616
	C203	C	0.894257	0.404332	0.401207
	C204	C	0.887324	0.598885	0.100510
	C205	C	0.086084	0.408214	0.097938
	C206	C	0.089928	0.599887	0.900368
	C207	C	0.890945	0.408947	0.902562
	C208	C	0.086285	0.906439	0.593282
	C209	C	0.090579	0.104113	0.404366
	C210	C	0.887578	0.102278	0.592884
	C211	C	0.889466	0.904574	0.403766
	C212	C	0.582976	0.103071	0.897927
	C213	C	0.394569	0.101620	0.101152
	C214	C	0.583983	0.903790	0.098494
	C215	C	0.394084	0.904065	0.901389
	Zn216	Zn	0.487744	0.004184	0.748700
	Zn217	Zn	0.490295	0.003856	0.250328
	Zn218	Zn	0.738999	0.503185	0.000474
	Zn219	Zn	0.237870	0.503208	-0.000812
	Zn220	Zn	-0.011377	0.754679	0.499053
	Zn221	Zn	-0.011000	0.253940	0.499244
	Zn222	Zn	-0.011222	0.505272	0.751255
	Zn223	Zn	-0.012033	0.503845	0.248859
	Zn224	Zn	0.488710	0.752308	-0.000630
	Zn225	Zn	0.487955	0.252156	-0.000384
	Zn226	Zn	0.737174	0.003894	0.498041
	Zn227	Zn	0.239346	0.004508	0.499534
	N228	N	0.400025	0.967309	0.679298
	N229	N	0.572268	0.041819	0.675643
	N230	N	0.576770	0.967651	0.319581
	N231	N	0.405095	0.041670	0.322501
	N232	N	0.668977	0.415733	0.963725
	N233	N	0.666221	0.588019	0.037358
	N234	N	0.310877	0.588705	0.962178
	N235	N	0.307389	0.415548	0.036292
	N236	N	0.951046	0.682369	0.414566
	N237	N	0.025975	0.683065	0.584158
	N238	N	0.950667	0.325784	0.585807
	N239	N	0.026672	0.326911	0.414006
	N240	N	0.950996	0.418206	0.680527
	N241	N	0.025457	0.591766	0.678972
	N242	N	0.951383	0.590339	0.321053
	N243	N	0.025185	0.417992	0.320047
	N244	N	0.404181	0.680266	0.962524
	N245	N	0.574851	0.681572	0.036384
	N246	N	0.572556	0.326094	0.961716
	N247	N	0.402516	0.324796	0.037531
	N248	N	0.667437	0.967412	0.411561
	N249	N	0.664906	0.041341	0.583424
	N250	N	0.308384	0.967373	0.586574
	N251	N	0.312563	0.041934	0.414974
	N252	N	0.900570	0.466508	0.179725
	N253	N	0.071991	0.541520	0.175240
	N254	N	0.076259	0.468152	0.820167
	N255	N	0.904511	0.541935	0.824416
	N256	N	0.167899	0.918464	0.462180
	N257	N	0.167962	0.091627	0.536134
	N258	N	0.810059	0.089587	0.461013
	N259	N	0.806582	0.915748	0.534194
	N260	N	0.450847	0.180325	0.915031
	N261	N	0.525610	0.181546	0.084963
	N262	N	0.451506	0.824556	0.085253
	N263	N	0.526113	0.826008	0.914159
	N264	N	0.453164	0.915883	0.180586
	N265	N	0.527054	0.088837	0.176664
	N266	N	0.451073	0.090235	0.820822
	N267	N	0.524644	0.916755	0.818924
	N268	N	0.903497	0.182169	0.461357
	N269	N	0.073876	0.182650	0.536435
	N270	N	0.073442	0.827547	0.461097
	N271	N	0.902790	0.826656	0.536345
	N272	N	0.167189	0.466610	0.913255
	N273	N	0.166743	0.540257	0.085504
	N274	N	0.808749	0.466128	0.087399
	N275	N	0.812287	0.541104	0.916354
	O276	O	-0.039823	-0.044456	-0.008649
	H277	H	-0.043587	-0.052983	-0.003841
	H278	H	-0.040898	-0.050834	-0.005947
	O279	O	0.394446	0.443631	0.542974
	H280	H	0.392574	0.436616	0.551617
	H281	H	0.392089	0.428490	0.547413
	O282	O	0.490783	0.596325	0.489182
	H283	H	0.488160	0.599702	0.488109
	H284	H	0.487559	0.583816	0.480885
	O285	O	-0.016081	0.939564	0.053815
	H286	H	-0.020541	0.940415	0.063656
	H287	H	-0.016315	0.932023	0.049103
	O288	O	0.537401	0.482826	0.484705
	H289	H	0.537222	0.476388	0.479511
	H290	H	0.546551	0.489409	0.482924
	O291	O	1.013716	0.976383	0.906932
	H292	H	1.015987	0.965165	0.906293
	H293	H	1.021104	0.974959	0.911722
	O294	O	0.940048	1.055488	0.931844
	H295	H	0.944084	1.049247	0.935214
	H296	H	0.938770	1.055824	0.936077
	O297	O	1.086016	-0.004170	0.933983
	H298	H	1.087446	-0.008463	0.929531
	H299	H	1.093902	-0.006258	0.933471
	O300	O	0.431260	0.503291	0.549946
	H301	H	0.425945	0.508368	0.562913
	H302	H	0.435551	0.498982	0.551108
	O303	O	0.993809	-0.022227	0.045112
	H304	H	0.998216	-0.026015	0.046695
	H305	H	0.992326	-0.020730	0.039184
	O306	O	-0.037198	1.068257	1.019832
	H307	H	-0.043142	1.073187	1.014425
	H308	H	-0.041348	1.063247	1.018872
	O309	O	0.564068	0.534816	0.562091
	H310	H	0.570606	0.541715	0.573436
	H311	H	0.579810	0.543336	0.549439
	O312	O	1.028154	0.023797	1.014257
	H313	H	1.030076	0.027634	1.008069
	H314	H	1.030085	0.036783	1.012755
	O315	O	1.008758	0.994024	-0.056121
	H316	H	1.014032	0.993263	-0.051197
	H317	H	1.008743	0.998060	-0.058727
	O318	O	0.472575	0.572571	0.423127
	H319	H	0.473012	0.585422	0.429008
	H320	H	0.472704	0.570343	0.424527
	O321	O	0.989673	1.004669	1.013048
	H322	H	0.991163	1.010951	1.011324
	H323	H	0.993410	1.012978	1.011187
	O324	O	0.432110	0.492610	0.527737
	H325	H	0.433622	0.498521	0.538209
	H326	H	0.426487	0.499897	0.523696
	O327	O	0.538595	0.534558	0.383027
	H328	H	0.530917	0.541899	0.379441
	H329	H	0.527214	0.539492	0.392371
	O330	O	1.007703	-0.013100	0.984004
	H331	H	1.014625	-0.018663	0.971376
	H332	H	0.997461	-0.006685	0.989515
	O333	O	1.009916	1.067393	0.039721
	H334	H	1.004418	1.064713	0.035371
	H335	H	1.010346	1.059917	0.044864
	O336	O	0.542481	0.516711	0.519632
	H337	H	0.533736	0.515431	0.527858
	H338	H	0.540862	0.524094	0.516393
	O339	O	0.382101	0.509191	0.483831
	H340	H	0.392729	0.510895	0.483628
	H341	H	0.379412	0.511886	0.487399
	O342	O	0.453598	0.484617	0.510971
	H343	H	0.456301	0.482647	0.516896
	H344	H	0.451179	0.469094	0.515604
	O345	O	0.005609	0.025431	-0.001665
	H346	H	0.010086	0.026140	-0.003561
	H347	H	-0.004443	0.021815	-0.000586
	O348	O	0.406513	0.453670	0.547799
	H349	H	0.404440	0.448140	0.559198
	H350	H	0.406603	0.455161	0.549779
	O351	O	0.429446	0.518870	0.584931
	H352	H	0.420678	0.518388	0.594550
	H353	H	0.429949	0.517462	0.585860
	O354	O	0.523248	0.436966	0.567296
	H355	H	0.530936	0.440206	0.560175
	H356	H	0.517882	0.425565	0.568028
	O357	O	0.491802	0.581676	0.440932
	H358	H	0.489717	0.579271	0.437390
	H359	H	0.491583	0.575199	0.435353
	O360	O	0.653931	-0.425235	0.538901
	H361	H	0.653809	-0.412679	0.522871
	H362	H	0.658468	-0.432636	0.534726
	O363	O	0.577124	0.402441	0.447785
	H364	H	0.574800	0.394384	0.440183
	H365	H	0.583183	0.407343	0.443967
	O366	O	-0.065100	0.035180	0.967658
	H367	H	-0.075670	0.048722	0.967742
	H368	H	-0.080574	0.032156	0.972098
	O369	O	0.472212	0.509041	0.499022
	H370	H	0.469334	0.511606	0.488761
	H371	H	0.480253	0.501530	0.495806
