data_Molecule from HDF5

_cell_length_a		16.426271
_cell_length_b		16.276296
_cell_length_c		16.487347
_cell_angle_alpha	90.003165
_cell_angle_beta	89.794247
_cell_angle_gamma	90.035401
_symmetry_space_group_name_H-M	'P 1'
_symmetry_Int_Tables_number		1

loop_
	_symmetry_equiv_pos_as_xyz
	x,y,z

loop_
	_atom_site_label
	_atom_site_type_symbol
	_atom_site_fract_x
	_atom_site_fract_y
	_atom_site_fract_z
	H0	H	0.394428	0.846912	0.714255
	H1	H	0.607421	0.164967	0.713855
	H2	H	0.606067	0.845213	0.270663
	H3	H	0.395316	0.165095	0.271092
	H4	H	0.721029	0.400951	0.833680
	H5	H	0.722582	0.612629	0.150384
	H6	H	0.278002	0.609849	0.833487
	H7	H	0.275862	0.397723	0.149624
	H8	H	0.841136	0.726367	0.389614
	H9	H	0.160061	0.723106	0.594917
	H10	H	0.840938	0.284166	0.595047
	H11	H	0.160263	0.286951	0.388038
	H12	H	0.839976	0.399297	0.712682
	H13	H	0.157608	0.612412	0.715381
	H14	H	0.840888	0.611634	0.272037
	H15	H	0.157051	0.398547	0.268686
	H16	H	0.395001	0.726026	0.833753
	H17	H	0.601291	0.724248	0.152416
	H18	H	0.603995	0.284907	0.833778
	H19	H	0.395461	0.284447	0.150860
	H20	H	0.721446	0.844417	0.386699
	H21	H	0.721579	0.165317	0.595876
	H22	H	0.281075	0.845441	0.597454
	H23	H	0.283452	0.166973	0.389982
	H24	H	0.892798	0.344639	0.213036
	H25	H	0.105130	0.663748	0.213926
	H26	H	0.105023	0.345250	0.770183
	H27	H	0.892608	0.664793	0.769569
	H28	H	0.223045	0.901292	0.334812
	H29	H	0.222640	0.112829	0.650765
	H30	H	0.777685	0.112899	0.334930
	H31	H	0.774574	0.894615	0.648674
	H32	H	0.341455	0.224094	0.890268
	H33	H	0.659487	0.225524	0.095458
	H34	H	0.340370	0.786222	0.096184
	H35	H	0.658961	0.782238	0.885813
	H36	H	0.342912	0.899184	0.215347
	H37	H	0.658272	0.113517	0.214471
	H38	H	0.343070	0.113822	0.769484
	H39	H	0.657572	0.895537	0.767110
	H40	H	0.897557	0.225500	0.333212
	H41	H	0.105033	0.227960	0.649955
	H42	H	0.106212	0.783722	0.334742
	H43	H	0.895199	0.783129	0.650649
	H44	H	0.219575	0.344091	0.886642
	H45	H	0.221262	0.663859	0.098284
	H46	H	0.779729	0.344427	0.094829
	H47	H	0.778402	0.665446	0.885615
	H48	H	0.416837	0.120815	0.586850
	H49	H	0.584181	0.892753	0.580649
	H50	H	0.592244	0.117139	0.410674
	H51	H	0.413468	0.892382	0.406740
	H52	H	0.592923	0.414090	0.107544
	H53	H	0.593582	0.601238	0.875564
	H54	H	0.409666	0.588451	0.102986
	H55	H	0.413756	0.420155	0.882285
	H56	H	0.112621	0.596092	0.405526
	H57	H	0.885923	0.597929	0.579252
	H58	H	0.115434	0.413992	0.587764
	H59	H	0.886488	0.418459	0.401659
	H60	H	0.112616	0.414235	0.577823
	H61	H	0.889279	0.588462	0.579185
	H62	H	0.110788	0.587976	0.403370
	H63	H	0.884974	0.413618	0.401828
	H64	H	0.412689	0.597052	0.104180
	H65	H	0.594966	0.584437	0.881731
	H66	H	0.590397	0.420047	0.104920
	H67	H	0.411287	0.408610	0.877339
	H68	H	0.592508	0.121679	0.398550
	H69	H	0.588159	0.892934	0.576097
	H70	H	0.413309	0.118507	0.576196
	H71	H	0.408683	0.889827	0.402991
	H72	H	0.911018	0.620049	0.083334
	H73	H	0.086568	0.391890	0.077660
	H74	H	0.085106	0.618074	0.901235
	H75	H	0.912958	0.389357	0.895731
	H76	H	0.094712	0.912627	0.608143
	H77	H	0.088665	0.092831	0.380857
	H78	H	0.916095	0.095984	0.603514
	H79	H	0.916627	0.925392	0.384537
	H80	H	0.614233	0.089662	0.896931
	H81	H	0.388533	0.089302	0.082811
	H82	H	0.615892	0.910803	0.080727
	H83	H	0.385986	0.908445	0.908357
	H84	H	0.611141	0.919178	0.077104
	H85	H	0.385181	0.094685	0.088164
	H86	H	0.615592	0.099460	0.903837
	H87	H	0.392472	0.925378	0.907898
	H88	H	0.906701	0.093444	0.606137
	H89	H	0.093844	0.101000	0.377295
	H90	H	0.092907	0.918929	0.605291
	H91	H	0.918961	0.907730	0.379029
	H92	H	0.085593	0.616142	0.907220
	H93	H	0.089890	0.388155	0.081712
	H94	H	0.913457	0.618820	0.081128
	H95	H	0.914898	0.394626	0.906941
	H96	H	0.406164	0.123281	0.583731
	H97	H	0.589574	0.890131	0.581275
	H98	H	0.582140	0.115730	0.402579
	H99	H	0.414928	0.890904	0.400256
	H100	H	0.585973	0.414225	0.104892
	H101	H	0.579251	0.593301	0.883926
	H102	H	0.404103	0.594567	0.106836
	H103	H	0.402457	0.417642	0.877541
	H104	H	0.114877	0.593276	0.397924
	H105	H	0.885094	0.592753	0.587080
	H106	H	0.111289	0.422862	0.583085
	H107	H	0.887163	0.415395	0.405746
	H108	H	0.910522	0.618865	0.080369
	H109	H	0.084320	0.390450	0.083311
	H110	H	0.090428	0.619352	0.904385
	H111	H	0.903006	0.388768	0.904589
	H112	H	0.087773	0.913871	0.606426
	H113	H	0.098251	0.092017	0.378304
	H114	H	0.913163	0.086596	0.601893
	H115	H	0.902581	0.915895	0.376315
	H116	H	0.610409	0.088807	0.907781
	H117	H	0.386916	0.096969	0.080180
	H118	H	0.614504	0.919077	0.086163
	H119	H	0.385223	0.918167	0.892952
	C120	C	0.379796	0.015039	0.614329
	C121	C	0.621466	0.996675	0.612763
	C122	C	0.622283	0.013512	0.370566
	C123	C	0.380486	0.997041	0.371369
	C124	C	0.621695	0.383972	0.000848
	C125	C	0.621342	0.626198	0.984708
	C126	C	0.376685	0.626255	0.000356
	C127	C	0.377478	0.383105	0.983719
	C128	C	0.008067	0.626096	0.370736
	C129	C	0.991435	0.625725	0.613984
	C130	C	0.008103	0.383789	0.614018
	C131	C	0.991405	0.383542	0.370599
	C132	C	0.878795	0.513458	0.113392
	C133	C	0.120112	0.495613	0.113635
	C134	C	0.119823	0.512568	0.871486
	C135	C	0.878028	0.496782	0.870291
	C136	C	0.123631	0.883477	0.501760
	C137	C	0.124359	0.128015	0.483591
	C138	C	0.880175	0.125336	0.499637
	C139	C	0.879333	0.883140	0.484141
	C140	C	0.508980	0.125994	0.870954
	C141	C	0.491427	0.126742	0.114810
	C142	C	0.508947	0.884015	0.113727
	C143	C	0.492474	0.883508	0.870145
	C144	C	0.376755	0.894552	0.674018
	C145	C	0.625274	0.116956	0.673743
	C146	C	0.624612	0.893119	0.310429
	C147	C	0.377951	0.117262	0.311400
	C148	C	0.681289	0.382225	0.881409
	C149	C	0.681457	0.629435	0.103503
	C150	C	0.317427	0.628661	0.881333
	C151	C	0.316606	0.380035	0.102477
	C152	C	0.889026	0.686801	0.370124
	C153	C	0.112056	0.684287	0.614516
	C154	C	0.888611	0.323633	0.614655
	C155	C	0.111629	0.325289	0.368885
	C156	C	0.888227	0.380781	0.673324
	C157	C	0.110641	0.629134	0.674389
	C158	C	0.888677	0.629501	0.311729
	C159	C	0.110207	0.381179	0.309627
	C160	C	0.376003	0.686164	0.881327
	C161	C	0.621471	0.685497	0.104302
	C162	C	0.623072	0.324346	0.881444
	C163	C	0.376306	0.323907	0.103239
	C164	C	0.682012	0.892709	0.368209
	C165	C	0.682079	0.117192	0.615046
	C166	C	0.320236	0.894096	0.615999
	C167	C	0.322020	0.118235	0.370740
	C168	C	0.875285	0.392797	0.173101
	C169	C	0.122976	0.615928	0.173845
	C170	C	0.122502	0.392792	0.810791
	C171	C	0.875272	0.617136	0.810147
	C172	C	0.183083	0.882152	0.382275
	C173	C	0.182901	0.130751	0.603060
	C174	C	0.818750	0.129844	0.381759
	C175	C	0.816546	0.878552	0.601869
	C176	C	0.389373	0.185346	0.870413
	C177	C	0.611631	0.186368	0.114958
	C178	C	0.388806	0.825068	0.115285
	C179	C	0.611120	0.822272	0.867576
	C180	C	0.389906	0.881388	0.174501
	C181	C	0.610936	0.130464	0.174100
	C182	C	0.390408	0.130395	0.810177
	C183	C	0.610543	0.878804	0.808261
	C184	C	0.878637	0.186016	0.380937
	C185	C	0.124388	0.188254	0.602654
	C186	C	0.124765	0.824037	0.382139
	C187	C	0.876499	0.822758	0.603144
	C188	C	0.179614	0.392189	0.868819
	C189	C	0.181065	0.615755	0.116364
	C190	C	0.819008	0.392717	0.114441
	C191	C	0.818199	0.617379	0.868019
	C192	C	0.404893	0.098864	0.589588
	C193	C	0.595011	0.913732	0.587099
	C194	C	0.596610	0.096498	0.396348
	C195	C	0.405283	0.912921	0.396210
	C196	C	0.596889	0.408827	0.084070
	C197	C	0.596520	0.600457	0.902093
	C198	C	0.401566	0.600692	0.083201
	C199	C	0.402133	0.408197	0.900664
	C200	C	0.091195	0.600030	0.395223
	C201	C	0.908566	0.600512	0.589117
	C202	C	0.091265	0.409480	0.589856
	C203	C	0.907905	0.408705	0.395936
	C204	C	0.904360	0.597333	0.088767
	C205	C	0.094350	0.411988	0.088089
	C206	C	0.094513	0.596132	0.897030
	C207	C	0.903105	0.412820	0.895318
	C208	C	0.098923	0.907973	0.584850
	C209	C	0.100346	0.102596	0.400444
	C210	C	0.905134	0.099326	0.582243
	C211	C	0.905197	0.909021	0.401599
	C212	C	0.591950	0.100023	0.895699
	C213	C	0.408400	0.101250	0.090566
	C214	C	0.592131	0.909171	0.088688
	C215	C	0.409503	0.909728	0.895666
	Zn216	Zn	0.500620	0.005681	0.741537
	Zn217	Zn	0.501260	0.005333	0.242546
	Zn218	Zn	0.751121	0.505610	-0.007847
	Zn219	Zn	0.248303	0.503862	-0.008244
	Zn220	Zn	0.000973	0.754394	0.493085
	Zn221	Zn	0.000771	0.255255	0.491694
	Zn222	Zn	-0.000806	0.505239	0.742866
	Zn223	Zn	-0.001531	0.504394	0.242209
	Zn224	Zn	0.499558	0.755201	-0.007452
	Zn225	Zn	0.499872	0.254534	-0.007241
	Zn226	Zn	0.750264	0.004636	0.491829
	Zn227	Zn	0.252518	0.005866	0.492906
	N228	N	0.412875	0.970802	0.673362
	N229	N	0.588501	0.040883	0.672659
	N230	N	0.588442	0.969144	0.311671
	N231	N	0.413474	0.040900	0.311798
	N232	N	0.680641	0.418322	0.956670
	N233	N	0.681821	0.593768	0.027876
	N234	N	0.317517	0.592458	0.956530
	N235	N	0.317390	0.416048	0.027269
	N236	N	0.964498	0.684995	0.405822
	N237	N	0.036933	0.682710	0.577980
	N238	N	0.964070	0.325270	0.578644
	N239	N	0.036792	0.327143	0.406332
	N240	N	0.963633	0.417342	0.673179
	N241	N	0.034726	0.593621	0.674302
	N242	N	0.963978	0.592598	0.311908
	N243	N	0.034139	0.416340	0.310393
	N244	N	0.412245	0.684794	0.956339
	N245	N	0.584922	0.683664	0.029403
	N246	N	0.586558	0.325399	0.956697
	N247	N	0.413655	0.325743	0.028549
	N248	N	0.680814	0.968583	0.404973
	N249	N	0.679960	0.041633	0.578010
	N250	N	0.321806	0.970150	0.579761
	N251	N	0.323569	0.042375	0.407547
	N252	N	0.911384	0.469115	0.172896
	N253	N	0.085958	0.540181	0.172501
	N254	N	0.086234	0.468738	0.812057
	N255	N	0.911815	0.541236	0.811458
	N256	N	0.182416	0.918183	0.457536
	N257	N	0.183150	0.094281	0.528033
	N258	N	0.819605	0.092702	0.456569
	N259	N	0.818180	0.915252	0.526725
	N260	N	0.464040	0.182915	0.907345
	N261	N	0.536352	0.184197	0.078815
	N262	N	0.463729	0.826520	0.078294
	N263	N	0.536457	0.825121	0.905262
	N264	N	0.465703	0.917219	0.173698
	N265	N	0.535437	0.094094	0.174179
	N266	N	0.465902	0.094072	0.810569
	N267	N	0.535733	0.916511	0.809996
	N268	N	0.916061	0.183246	0.455231
	N269	N	0.089028	0.186916	0.527116
	N270	N	0.088624	0.824497	0.457511
	N271	N	0.915135	0.825532	0.529006
	N272	N	0.178004	0.467719	0.905863
	N273	N	0.179255	0.540013	0.079463
	N274	N	0.820843	0.468776	0.078219
	N275	N	0.819977	0.541618	0.904931
	O276	O	0.541594	0.616264	0.409897
	H277	H	0.543495	0.611135	0.410583
	H278	H	0.550209	0.618697	0.404495
	O279	O	0.138935	-0.000445	-0.107094
	H280	H	0.128110	-0.001653	-0.098733
	H281	H	0.119092	0.002082	-0.111662
	O282	O	0.527349	0.531397	0.495472
	H283	H	0.530667	0.519932	0.497946
	H284	H	0.525543	0.531310	0.499129
	O285	O	1.374296	0.498398	0.596039
	H286	H	1.372132	0.514127	0.600118
	H287	H	1.366888	0.513393	0.578890
	O288	O	0.606116	0.505529	0.303583
	H289	H	0.606356	0.516066	0.298063
	H290	H	0.591241	0.505956	0.311320
	O291	O	0.573575	0.341179	0.417083
	H292	H	0.563071	0.346401	0.430277
	H293	H	0.555705	0.355166	0.418891
	O294	O	1.174577	0.795109	0.961854
	H295	H	1.195481	0.765690	0.967869
	H296	H	1.147660	0.795127	0.964300
	O297	O	0.550725	0.298450	0.283022
	H298	H	0.557329	0.276472	0.272928
	H299	H	0.559414	0.295192	0.278213
	O300	O	0.512750	0.434737	0.474130
	H301	H	0.513077	0.435736	0.463844
	H302	H	0.523158	0.433155	0.489707
	O303	O	0.299999	0.402624	0.441934
	H304	H	0.273057	0.378528	0.435950
	H305	H	0.294770	0.424454	0.436110
	O306	O	0.179957	-0.181932	0.805361
	H307	H	0.173490	-0.186598	0.836277
	H308	H	0.194031	-0.153122	0.796861
	O309	O	1.018848	-0.203804	-0.195203
	H310	H	1.040603	-0.202624	-0.199216
	H311	H	1.028120	-0.216665	-0.203178
	O312	O	0.676924	0.597122	0.508836
	H313	H	0.662221	0.585228	0.521514
	H314	H	0.684551	0.603359	0.520501
	O315	O	0.414299	0.598096	0.323846
	H316	H	0.394712	0.589195	0.313229
	H317	H	0.430736	0.602181	0.324874
	O318	O	0.071446	-0.026424	0.191592
	H319	H	0.084774	-0.010570	0.177821
	H320	H	0.063781	-0.017324	0.199323
	O321	O	0.564513	0.541453	0.689352
	H322	H	0.568216	0.531679	0.689958
	H323	H	0.565385	0.537251	0.690882
	O324	O	1.211900	0.021626	0.980033
	H325	H	1.209470	0.017611	0.966686
	H326	H	1.210558	0.000960	0.976382
	O327	O	0.314277	0.323621	0.684594
	H328	H	0.314534	0.322233	0.653467
	H329	H	0.323210	0.350772	0.693997
	O330	O	-0.214814	0.787034	1.017092
	H331	H	-0.205599	0.802276	1.053178
	H332	H	-0.246553	0.752361	1.018516
	O333	O	-0.194227	1.196055	-0.158156
	H334	H	-0.205689	1.207380	-0.133055
	H335	H	-0.192731	1.184805	-0.160119
	O336	O	0.975733	1.214032	-0.219336
	H337	H	0.974685	1.240010	-0.249509
	H338	H	0.958350	1.195996	-0.217292
	O339	O	0.061389	1.161455	1.190877
	H340	H	0.073230	1.162290	1.185380
	H341	H	0.076258	1.179874	1.195697
	O342	O	0.335579	0.594535	0.528481
	H343	H	0.350796	0.600929	0.527933
	H344	H	0.316489	0.614630	0.511715
	O345	O	-0.208837	0.056419	0.894925
	H346	H	-0.198657	0.059525	0.907010
	H347	H	-0.211544	0.044052	0.876313
	O348	O	0.625177	0.347164	0.570947
	H349	H	0.608201	0.351968	0.555115
	H350	H	0.624131	0.329707	0.566381
	O351	O	1.179646	1.174741	0.163795
	H352	H	1.178778	1.173583	0.151348
	H353	H	1.180916	1.175958	0.134327
	O354	O	0.995788	1.120471	0.998546
	H355	H	1.001773	1.118381	0.973694
	H356	H	1.013879	1.124872	1.014219
	O357	O	-0.023688	-0.190659	0.102460
	H358	H	-0.015692	-0.188947	0.101573
	H359	H	-0.010714	-0.187269	0.111655
	O360	O	0.013776	-0.001323	0.806445
	H361	H	0.006289	-0.009221	0.811248
	H362	H	0.014194	-0.024161	0.799762
	O363	O	1.110607	-0.078277	0.173365
	H364	H	1.115641	-0.069750	0.159619
	H365	H	1.108121	-0.064777	0.164153
	O366	O	0.029741	0.015081	0.957814
	H367	H	0.029744	0.015089	0.946941
	H368	H	0.026889	0.015757	0.947749
	O369	O	1.393042	0.598207	1.572099
	H370	H	1.389067	0.596778	1.575148
	H371	H	1.410152	0.591300	1.565561
	O372	O	0.829204	0.933848	-0.062910
	H373	H	0.832819	0.932613	-0.052340
	H374	H	0.818953	0.930351	-0.051037
	O375	O	-0.638263	-0.627562	1.461261
	H376	H	-0.641753	-0.621511	1.452100
	H377	H	-0.639999	-0.612782	1.461042
	O378	O	0.392397	0.623972	0.368714
	H379	H	0.396601	0.616196	0.361514
	H380	H	0.408016	0.622446	0.370065
	O381	O	-0.048859	1.018168	0.106631
	H382	H	-0.060087	1.013679	0.097863
	H383	H	-0.032569	1.022944	0.108082
	O384	O	0.381112	0.530162	0.458070
	H385	H	0.389045	0.511351	0.449788
	H386	H	0.372064	0.535972	0.464452
	O387	O	0.496184	0.495582	0.499666
	H388	H	0.495857	0.483007	0.493205
	H389	H	0.501011	0.485816	0.493026
	O390	O	1.033729	1.095218	0.038663
	H391	H	1.020275	1.096182	0.024390
	H392	H	1.019605	1.097713	0.027972
	O393	O	0.856505	-0.175535	1.175466
	H394	H	0.890704	-0.185394	1.191596
	H395	H	0.855108	-0.148131	1.165342
	O396	O	0.410692	0.540557	0.585462
	H397	H	0.414390	0.554347	0.575408
	H398	H	0.408079	0.534361	0.588345
	O399	O	0.573571	0.580529	0.684683
	H400	H	0.570564	0.576149	0.704014
	H401	H	0.573311	0.577510	0.686152
	O402	O	1.071872	0.909981	0.057106
	H403	H	1.067428	0.908414	0.074445
	H404	H	1.048071	0.919226	0.045081
	O405	O	0.635578	0.544755	0.475738
	H406	H	0.644143	0.540365	0.468308
	H407	H	0.639408	0.564144	0.475948
	O408	O	0.478461	0.336747	0.698361
	H409	H	0.461675	0.332868	0.692368
	H410	H	0.477678	0.332370	0.706536
	O411	O	0.811315	1.154240	1.019075
	H412	H	0.801120	1.137623	1.017376
	H413	H	0.818718	1.160835	1.037674
	O414	O	-0.018944	0.195292	1.016266
	H415	H	-0.027559	0.185770	1.013515
	H416	H	-0.006660	0.200544	1.008043
	O417	O	-0.003335	0.852718	0.966496
	H418	H	-0.003835	0.847466	0.929981
	H419	H	-0.021794	0.848171	0.963736
	O420	O	-0.131609	0.997724	0.778281
	H421	H	-0.152416	0.990707	0.761634
	H422	H	-0.141503	0.990140	0.791496
	O423	O	0.102435	0.999137	-0.132512
	H424	H	0.128118	0.990525	-0.146331
	H425	H	0.094292	1.023234	-0.112881
	O426	O	0.687800	0.473739	0.332989
	H427	H	0.688322	0.475971	0.328645
	H428	H	0.703568	0.467716	0.349070
	O429	O	0.676807	0.632644	0.586157
	H430	H	0.681341	0.630915	0.583464
	H431	H	0.670167	0.623223	0.584341
	O432	O	0.628087	0.467124	0.403859
	H433	H	0.618023	0.477575	0.387749
	H434	H	0.623568	0.462736	0.405660
	O435	O	0.175191	0.192999	0.012538
	H436	H	0.183995	0.199843	-0.005131
	H437	H	0.161962	0.187684	-0.011661
	O438	O	-0.208248	0.967488	1.202768
	H439	H	-0.191069	0.969089	1.200150
	H440	H	-0.231010	0.959336	1.232843
	O441	O	0.327656	0.676278	0.462537
	H442	H	0.322180	0.679060	0.446791
	H443	H	0.316668	0.679454	0.443406
