data_Molecule from HDF5

_cell_length_a		16.345557
_cell_length_b		16.379922
_cell_length_c		16.201948
_cell_angle_alpha	89.808867
_cell_angle_beta	89.853301
_cell_angle_gamma	90.015456
_symmetry_space_group_name_H-M	'P 1'
_symmetry_Int_Tables_number		1

loop_
	_symmetry_equiv_pos_as_xyz
	x,y,z

loop_
	_atom_site_label
	_atom_site_type_symbol
	_atom_site_fract_x
	_atom_site_fract_y
	_atom_site_fract_z
	H0	H	0.391278	0.828081	0.721225
	H1	H	0.594082	0.150735	0.721898
	H2	H	0.593747	0.827388	0.289354
	H3	H	0.392512	0.150811	0.285680
	H4	H	0.710841	0.386436	0.841346
	H5	H	0.709313	0.588484	0.167446
	H6	H	0.276882	0.591010	0.841988
	H7	H	0.274629	0.385914	0.166257
	H8	H	0.832828	0.709714	0.397242
	H9	H	0.153772	0.710311	0.605966
	H10	H	0.831318	0.271767	0.607303
	H11	H	0.154092	0.270965	0.398582
	H12	H	0.831442	0.387973	0.721899
	H13	H	0.155112	0.591215	0.719413
	H14	H	0.830653	0.589329	0.287546
	H15	H	0.155746	0.392359	0.287571
	H16	H	0.388179	0.709207	0.844375
	H17	H	0.594998	0.703376	0.168089
	H18	H	0.597320	0.269733	0.843079
	H19	H	0.392038	0.272861	0.168439
	H20	H	0.713269	0.829538	0.400419
	H21	H	0.711526	0.150854	0.607728
	H22	H	0.271292	0.830753	0.609404
	H23	H	0.274578	0.151241	0.400141
	H24	H	0.893482	0.328088	0.221059
	H25	H	0.092501	0.652024	0.217088
	H26	H	0.097556	0.328931	0.782609
	H27	H	0.891448	0.650844	0.784694
	H28	H	0.212121	0.889395	0.342453
	H29	H	0.211455	0.096944	0.664136
	H30	H	0.775780	0.094080	0.341518
	H31	H	0.775113	0.886569	0.665277
	H32	H	0.332980	0.208535	0.900437
	H33	H	0.652154	0.209289	0.111675
	H34	H	0.331471	0.767574	0.111253
	H35	H	0.653821	0.770169	0.904288
	H36	H	0.330945	0.886608	0.223348
	H37	H	0.654467	0.086642	0.220319
	H38	H	0.331888	0.090810	0.786646
	H39	H	0.654095	0.885864	0.786322
	H40	H	0.891203	0.208606	0.342132
	H41	H	0.098322	0.211446	0.663942
	H42	H	0.096880	0.774930	0.340608
	H43	H	0.888390	0.769482	0.663456
	H44	H	0.213495	0.329302	0.897822
	H45	H	0.212938	0.649328	0.106030
	H46	H	0.774051	0.328793	0.108863
	H47	H	0.773402	0.649714	0.900324
	H48	H	0.410742	0.100007	0.590993
	H49	H	0.589983	0.873023	0.595562
	H50	H	0.585596	0.103483	0.416877
	H51	H	0.408183	0.875247	0.408149
	H52	H	0.573229	0.394630	0.118333
	H53	H	0.581602	0.589689	0.886363
	H54	H	0.403595	0.579187	0.121389
	H55	H	0.408741	0.390973	0.887615
	H56	H	0.109525	0.582210	0.404063
	H57	H	0.877361	0.584273	0.593586
	H58	H	0.106819	0.402222	0.592598
	H59	H	0.880066	0.402129	0.415456
	H60	H	0.107593	0.398109	0.591327
	H61	H	0.880507	0.580228	0.588056
	H62	H	0.110715	0.589757	0.411901
	H63	H	0.876595	0.398671	0.407233
	H64	H	0.399822	0.575907	0.121330
	H65	H	0.592124	0.574910	0.887282
	H66	H	0.591032	0.389346	0.125500
	H67	H	0.395951	0.396506	0.885429
	H68	H	0.587372	0.105800	0.410745
	H69	H	0.579167	0.875657	0.598104
	H70	H	0.393909	0.104736	0.588121
	H71	H	0.403886	0.880467	0.425613
	H72	H	0.895901	0.605531	0.092959
	H73	H	0.084807	0.376300	0.087735
	H74	H	0.086165	0.601670	0.919878
	H75	H	0.893005	0.373116	0.917275
	H76	H	0.089025	0.898481	0.622253
	H77	H	0.083639	0.080193	0.388181
	H78	H	0.906180	0.077837	0.617699
	H79	H	0.899448	0.905754	0.387144
	H80	H	0.607109	0.075196	0.912667
	H81	H	0.374761	0.083837	0.099458
	H82	H	0.606325	0.896720	0.095058
	H83	H	0.378739	0.896269	0.918892
	H84	H	0.608870	0.895041	0.099648
	H85	H	0.378772	0.081765	0.089623
	H86	H	0.609642	0.083293	0.913633
	H87	H	0.379373	0.900827	0.915450
	H88	H	0.903230	0.085092	0.621087
	H89	H	0.081762	0.081061	0.388199
	H90	H	0.079409	0.908335	0.616291
	H91	H	0.907790	0.901306	0.389295
	H92	H	0.089934	0.606112	0.908165
	H93	H	0.089844	0.371343	0.098153
	H94	H	0.901516	0.605855	0.098294
	H95	H	0.904293	0.373275	0.903873
	H96	H	0.401235	0.108576	0.604057
	H97	H	0.583976	0.877693	0.588272
	H98	H	0.580773	0.103353	0.411444
	H99	H	0.391122	0.871678	0.415383
	H100	H	0.587462	0.408126	0.118618
	H101	H	0.575248	0.573550	0.893564
	H102	H	0.405073	0.575001	0.119589
	H103	H	0.405754	0.404274	0.891491
	H104	H	0.106691	0.580499	0.414481
	H105	H	0.879609	0.577898	0.594442
	H106	H	0.105783	0.400731	0.588726
	H107	H	0.876440	0.392983	0.414682
	H108	H	0.903148	0.602743	0.091064
	H109	H	0.078123	0.375154	0.098141
	H110	H	0.078423	0.601724	0.910128
	H111	H	0.909687	0.379413	0.919054
	H112	H	0.074743	0.894080	0.618786
	H113	H	0.082678	0.082512	0.387343
	H114	H	0.898445	0.077997	0.620661
	H115	H	0.900086	0.896461	0.384318
	H116	H	0.606037	0.078835	0.919831
	H117	H	0.378678	0.074188	0.097477
	H118	H	0.608455	0.891693	0.095293
	H119	H	0.376734	0.896278	0.913624
	C120	C	0.370649	-0.001272	0.626458
	C121	C	0.614977	0.981654	0.625413
	C122	C	0.615220	-0.001935	0.382622
	C123	C	0.370880	0.981678	0.383383
	C124	C	0.614898	0.366814	0.013180
	C125	C	0.613798	0.609485	0.996434
	C126	C	0.372082	0.608695	0.013647
	C127	C	0.372124	0.366926	0.995883
	C128	C	0.001816	0.613132	0.380278
	C129	C	0.985165	0.611764	0.623479
	C130	C	0.000930	0.368628	0.623870
	C131	C	0.984661	0.368272	0.381675
	C132	C	0.870702	0.498066	0.125485
	C133	C	0.114459	0.480781	0.124312
	C134	C	0.115874	0.497533	0.881001
	C135	C	0.871173	0.481262	0.882103
	C136	C	0.113074	0.870298	0.512124
	C137	C	0.114233	0.112771	0.494279
	C138	C	0.872027	0.111488	0.512687
	C139	C	0.871444	0.869208	0.494114
	C140	C	0.501556	0.109706	0.884039
	C141	C	0.484190	0.109845	0.126156
	C142	C	0.501046	0.864712	0.127934
	C143	C	0.484431	0.866851	0.884363
	C144	C	0.370934	0.877093	0.683658
	C145	C	0.614084	0.102410	0.683247
	C146	C	0.614072	0.876259	0.326701
	C147	C	0.372113	0.102686	0.324494
	C148	C	0.672687	0.366838	0.890777
	C149	C	0.671029	0.608394	0.118649
	C150	C	0.315022	0.609875	0.890994
	C151	C	0.313911	0.366939	0.118019
	C152	C	0.880723	0.670484	0.379261
	C153	C	0.105947	0.670153	0.624179
	C154	C	0.879905	0.310174	0.626031
	C155	C	0.105933	0.310743	0.380643
	C156	C	0.880035	0.368220	0.683244
	C157	C	0.106717	0.610802	0.680737
	C158	C	0.879391	0.610209	0.324901
	C159	C	0.106884	0.370732	0.324890
	C160	C	0.370369	0.668745	0.892131
	C161	C	0.613931	0.665529	0.118919
	C162	C	0.615955	0.308791	0.891398
	C163	C	0.372245	0.310494	0.118900
	C164	C	0.673901	0.877531	0.381777
	C165	C	0.672772	0.102384	0.626393
	C166	C	0.311114	0.878632	0.627982
	C167	C	0.313531	0.102834	0.381524
	C168	C	0.872953	0.376557	0.182864
	C169	C	0.113058	0.603143	0.180041
	C170	C	0.116331	0.377053	0.822077
	C171	C	0.871682	0.602562	0.824069
	C172	C	0.172446	0.870514	0.390610
	C173	C	0.172892	0.114956	0.615806
	C174	C	0.814493	0.112622	0.390424
	C175	C	0.813739	0.867785	0.616324
	C176	C	0.380657	0.168418	0.882674
	C177	C	0.604766	0.168461	0.128327
	C178	C	0.379914	0.807136	0.129550
	C179	C	0.605689	0.808992	0.884314
	C180	C	0.379285	0.866749	0.185132
	C181	C	0.605934	0.107894	0.182856
	C182	C	0.379974	0.109700	0.826000
	C183	C	0.605767	0.866630	0.825779
	C184	C	0.871836	0.169682	0.390534
	C185	C	0.116313	0.171968	0.615576
	C186	C	0.114978	0.813773	0.389711
	C187	C	0.870112	0.809266	0.615130
	C188	C	0.174308	0.377269	0.879466
	C189	C	0.173019	0.601637	0.124676
	C190	C	0.813653	0.376761	0.126822
	C191	C	0.812787	0.601968	0.881292
	C192	C	0.395101	0.082705	0.601720
	C193	C	0.591300	0.897218	0.601084
	C194	C	0.591470	0.082387	0.406215
	C195	C	0.394467	0.897743	0.408855
	C196	C	0.590919	0.390336	0.098389
	C197	C	0.589813	0.586089	0.910956
	C198	C	0.396053	0.583937	0.098563
	C199	C	0.396319	0.390282	0.910579
	C200	C	0.086647	0.590844	0.403229
	C201	C	0.900856	0.587786	0.599097
	C202	C	0.084927	0.393171	0.598285
	C203	C	0.899823	0.391115	0.405501
	C204	C	0.893534	0.582775	0.101143
	C205	C	0.091032	0.396421	0.101297
	C206	C	0.091782	0.581354	0.905674
	C207	C	0.895210	0.397164	0.906398
	C208	C	0.088142	0.893630	0.597057
	C209	C	0.089872	0.088181	0.410033
	C210	C	0.895739	0.087246	0.597881
	C211	C	0.895536	0.894074	0.408746
	C212	C	0.585577	0.085935	0.908187
	C213	C	0.399449	0.086671	0.102292
	C214	C	0.585806	0.887711	0.103822
	C215	C	0.400467	0.890705	0.908867
	Zn216	Zn	0.492951	-0.011142	0.754534
	Zn217	Zn	0.492716	-0.011691	0.254704
	Zn218	Zn	0.742137	0.489079	0.004497
	Zn219	Zn	0.244041	0.488566	0.004050
	Zn220	Zn	-0.006651	0.741378	0.501713
	Zn221	Zn	-0.007158	0.239293	0.503453
	Zn222	Zn	-0.006329	0.489591	0.752750
	Zn223	Zn	-0.007072	0.490479	0.253420
	Zn224	Zn	0.492298	0.736786	0.005957
	Zn225	Zn	0.493234	0.239230	0.005072
	Zn226	Zn	0.744164	-0.009172	0.503753
	Zn227	Zn	0.241220	-0.008595	0.504602
	N228	N	0.407152	0.952695	0.682687
	N229	N	0.578928	0.026183	0.682660
	N230	N	0.578305	0.952245	0.326909
	N231	N	0.407098	0.026280	0.325599
	N232	N	0.672259	0.402107	0.967608
	N233	N	0.670990	0.574228	0.041344
	N234	N	0.315809	0.573438	0.967614
	N235	N	0.313544	0.401066	0.040328
	N236	N	0.957633	0.672585	0.412870
	N237	N	0.029289	0.670910	0.589369
	N238	N	0.956153	0.310363	0.589722
	N239	N	0.028808	0.309047	0.415087
	N240	N	0.956313	0.403607	0.682118
	N241	N	0.030471	0.575334	0.680456
	N242	N	0.955714	0.575142	0.325263
	N243	N	0.030444	0.405716	0.325292
	N244	N	0.404957	0.668229	0.969356
	N245	N	0.578882	0.666304	0.041680
	N246	N	0.580926	0.308507	0.968613
	N247	N	0.407477	0.310162	0.041833
	N248	N	0.674818	0.954289	0.415815
	N249	N	0.673362	0.026067	0.591018
	N250	N	0.310517	0.955516	0.593242
	N251	N	0.312741	0.026727	0.417460
	N252	N	0.907637	0.453049	0.182027
	N253	N	0.077214	0.527079	0.179992
	N254	N	0.080549	0.452926	0.822863
	N255	N	0.907407	0.526620	0.824416
	N256	N	0.171402	0.905133	0.467847
	N257	N	0.171750	0.078748	0.539426
	N258	N	0.814594	0.077042	0.467414
	N259	N	0.814459	0.904206	0.539857
	N260	N	0.457201	0.168971	0.917821
	N261	N	0.527986	0.169787	0.093862
	N262	N	0.456649	0.805733	0.094761
	N263	N	0.529206	0.808626	0.919720
	N264	N	0.455851	0.901615	0.184531
	N265	N	0.529946	0.072099	0.181695
	N266	N	0.456118	0.073894	0.826638
	N267	N	0.529424	0.901898	0.825654
	N268	N	0.906850	0.169201	0.467591
	N269	N	0.080459	0.170761	0.539123
	N270	N	0.078588	0.813637	0.466239
	N271	N	0.905213	0.810167	0.537896
	N272	N	0.174202	0.453258	0.915398
	N273	N	0.174047	0.524813	0.090903
	N274	N	0.812441	0.453196	0.091581
	N275	N	0.812332	0.525415	0.916670
	O276	O	0.549559	0.466057	0.492379
	H277	H	0.556933	0.452494	0.493210
	H278	H	0.551081	0.466397	0.498181
	O279	O	0.475231	0.430160	0.381905
	H280	H	0.469204	0.420051	0.386898
	H281	H	0.471204	0.433057	0.380026
	O282	O	0.944810	0.198736	0.926168
	H283	H	0.945420	0.206357	0.913802
	H284	H	0.925020	0.207772	0.917199
	O285	O	0.895676	0.973664	0.877728
	H286	H	0.906910	0.965363	0.873725
	H287	H	0.895295	0.980579	0.873642
	O288	O	1.023292	0.904623	1.127179
	H289	H	1.021993	0.915040	1.129635
	H290	H	1.027945	0.892487	1.130780
	O291	O	-0.064717	1.003127	-0.003051
	H292	H	-0.059749	0.990031	0.008481
	H293	H	-0.069607	1.012250	-0.001261
	O294	O	0.450030	0.310300	0.606906
	H295	H	0.438292	0.305206	0.615505
	H296	H	0.448448	0.309332	0.607440
	O297	O	0.339245	0.418446	0.635991
	H298	H	0.338687	0.416602	0.639228
	H299	H	0.327054	0.424453	0.639607
	O300	O	0.430148	0.382031	0.552143
	H301	H	0.446064	0.385820	0.541230
	H302	H	0.432946	0.373298	0.537816
	O303	O	0.605108	0.568325	0.446725
	H304	H	0.606596	0.575441	0.454066
	H305	H	0.600760	0.574364	0.442634
	O306	O	0.463144	0.343088	0.391170
	H307	H	0.478501	0.337055	0.395686
	H308	H	0.463439	0.344458	0.400268
	O309	O	0.586377	0.541052	0.545576
	H310	H	0.602367	0.547906	0.557291
	H311	H	0.589915	0.548545	0.554592
	O312	O	-0.034878	-0.050384	0.160234
	H313	H	-0.021323	-0.054695	0.168004
	H314	H	-0.039595	-0.048211	0.163314
	O315	O	0.828983	0.894993	0.081886
	H316	H	0.823758	0.885057	0.063980
	H317	H	0.834021	0.892184	0.074967
	O318	O	-0.052621	0.961096	0.820596
	H319	H	-0.054133	0.952449	0.814896
	H320	H	-0.051364	0.961985	0.830452
	O321	O	1.019804	0.009494	1.028374
	H322	H	1.015323	0.024293	1.027352
	H323	H	1.009381	0.003334	1.032857
	O324	O	0.479907	0.530610	-0.667968
	H325	H	0.471539	0.528094	-0.676874
	H326	H	0.468699	0.526311	-0.674805
	O327	O	0.421928	0.557393	0.584654
	H328	H	0.437178	0.564143	0.595224
	H329	H	0.420345	0.566904	0.572916
	O330	O	-0.038889	0.124232	0.823327
	H331	H	-0.056279	0.118399	0.819723
	H332	H	-0.060309	0.132893	0.843389
	O333	O	-0.078886	0.017268	1.002610
	H334	H	-0.091220	0.015116	1.004167
	H335	H	-0.084187	0.020918	1.014441
	O336	O	0.368635	0.361170	0.431814
	H337	H	0.368835	0.361029	0.430451
	H338	H	0.361779	0.358359	0.430558
	O339	O	1.108594	0.138516	0.194675
	H340	H	1.116064	0.131556	0.198866
	H341	H	1.106615	0.139636	0.196398
	O342	O	0.148699	-0.053065	-0.052905
	H343	H	0.150104	-0.049607	-0.044746
	H344	H	0.159933	-0.042656	-0.053746
	O345	O	0.835227	0.019595	1.041743
	H346	H	0.841379	0.014039	1.033914
	H347	H	0.839129	0.007170	1.043462
	O348	O	1.042536	0.890709	0.050705
	H349	H	1.040994	0.887851	0.041462
	H350	H	1.055842	0.874310	0.059825
	O351	O	0.547124	0.513144	0.509061
	H352	H	0.542949	0.525967	0.508036
	H353	H	0.532191	0.509636	0.502279
	O354	O	1.118378	-0.209185	0.874184
	H355	H	1.111227	-0.206532	0.873879
	H356	H	1.133836	-0.193075	0.886956
	O357	O	0.618272	0.618448	0.521296
	H358	H	0.627742	0.619367	0.519069
	H359	H	0.629167	0.617663	0.533183
	O360	O	0.479741	0.579803	0.568887
	H361	H	0.491007	0.591031	0.579034
	H362	H	0.471723	0.557708	0.571881
	O363	O	-0.108458	0.957284	1.088651
	H364	H	-0.088021	0.958422	1.096616
	H365	H	-0.120658	0.958250	1.093926
	O366	O	0.330202	0.644202	0.359991
	H367	H	0.333347	0.629935	0.348244
	H368	H	0.319741	0.642538	0.391247
	O369	O	0.175633	0.960902	-0.075106
	H370	H	0.170697	0.983830	-0.087668
	H371	H	0.166059	0.972614	-0.078566
	O372	O	0.179964	1.021684	-0.019786
	H373	H	0.181687	1.005675	-0.000660
	H374	H	0.186276	1.034135	-0.021544
	O375	O	0.483857	0.576272	0.361587
	H376	H	0.473874	0.589346	0.354326
	H377	H	0.466999	0.590097	0.360316
	O378	O	0.495129	0.515521	0.489611
	H379	H	0.494497	0.517651	0.489489
	H380	H	0.488777	0.519217	0.494643
	O381	O	0.971053	-0.157093	-0.182726
	H382	H	0.981298	-0.169049	-0.176925
	H383	H	0.980090	-0.158275	-0.182773
	O384	O	0.916062	1.137341	-0.066401
	H385	H	0.914254	1.140561	-0.050042
	H386	H	0.907710	1.112446	-0.066044
	O387	O	0.137727	0.107835	-0.031051
	H388	H	0.133593	0.122817	-0.035439
	H389	H	0.144433	0.107536	-0.024495
	O390	O	0.013572	1.060891	0.179045
	H391	H	0.000750	1.061435	0.184933
	H392	H	0.010852	1.079720	0.167925
	O393	O	1.125427	1.073205	1.119163
	H394	H	1.115940	1.069886	1.105694
	H395	H	1.117860	1.084401	1.107927
	O396	O	0.537390	0.498559	0.633905
	H397	H	0.535545	0.500597	0.632360
	H398	H	0.536238	0.494145	0.635321
	O399	O	-0.111539	0.964051	0.951384
	H400	H	-0.106343	0.969970	0.942567
	H401	H	-0.104977	0.953504	0.951743
	O402	O	0.548960	0.573771	0.517850
	H403	H	0.548675	0.566727	0.512964
	H404	H	0.564946	0.589588	0.512099
	O405	O	1.406341	1.468439	0.588966
	H406	H	1.418031	1.462505	0.589805
	H407	H	1.399246	1.484088	0.596560
	O408	O	0.904927	0.853600	-0.004716
	H409	H	0.905709	0.850652	0.005400
	H410	H	0.917832	0.856088	-0.017744
	O411	O	0.632391	-0.582631	0.358955
	H412	H	0.636655	-0.595550	0.354261
	H413	H	0.644611	-0.576341	0.364811
	O414	O	0.564387	0.603836	0.673140
	H415	H	0.565491	0.581664	0.668824
	H416	H	0.561304	0.610421	0.681532
	O417	O	0.510819	0.419572	0.628266
	H418	H	0.505939	0.424456	0.628835
	H419	H	0.507258	0.424013	0.616742
