data_Molecule from HDF5

_cell_length_a		16.323445
_cell_length_b		16.677007
_cell_length_c		16.740508
_cell_angle_alpha	89.958649
_cell_angle_beta	89.896067
_cell_angle_gamma	90.187753
_symmetry_space_group_name_H-M	'P 1'
_symmetry_Int_Tables_number		1

loop_
	_symmetry_equiv_pos_as_xyz
	x,y,z

loop_
	_atom_site_label
	_atom_site_type_symbol
	_atom_site_fract_x
	_atom_site_fract_y
	_atom_site_fract_z
	H0	H	0.379544	0.834126	0.718980
	H1	H	0.601762	0.140770	0.717200
	H2	H	0.599758	0.834392	0.268100
	H3	H	0.382692	0.142014	0.269405
	H4	H	0.715149	0.384400	0.839233
	H5	H	0.713527	0.595605	0.148204
	H6	H	0.268195	0.593717	0.837814
	H7	H	0.271584	0.386161	0.147550
	H8	H	0.832141	0.706055	0.390756
	H9	H	0.148547	0.711150	0.598027
	H10	H	0.834389	0.267210	0.600104
	H11	H	0.150281	0.272668	0.392362
	H12	H	0.834354	0.382643	0.714833
	H13	H	0.147325	0.597122	0.714992
	H14	H	0.833391	0.592824	0.273712
	H15	H	0.150617	0.387188	0.275114
	H16	H	0.379448	0.715778	0.840878
	H17	H	0.600470	0.714081	0.146044
	H18	H	0.603627	0.261620	0.841297
	H19	H	0.383785	0.264996	0.145289
	H20	H	0.712971	0.832621	0.387519
	H21	H	0.711082	0.144085	0.594091
	H22	H	0.267668	0.832086	0.598281
	H23	H	0.273053	0.145146	0.392844
	H24	H	0.883437	0.335105	0.215410
	H25	H	0.099114	0.645366	0.214521
	H26	H	0.103351	0.337286	0.765964
	H27	H	0.881308	0.642972	0.767529
	H28	H	0.212531	0.886679	0.337011
	H29	H	0.212629	0.092353	0.647893
	H30	H	0.774920	0.088194	0.335369
	H31	H	0.770715	0.885879	0.648666
	H32	H	0.332694	0.205507	0.889179
	H33	H	0.649658	0.206406	0.094914
	H34	H	0.332021	0.767665	0.097760
	H35	H	0.648241	0.765107	0.885525
	H36	H	0.332155	0.881769	0.213517
	H37	H	0.648044	0.092724	0.212854
	H38	H	0.333959	0.091625	0.772451
	H39	H	0.647953	0.880043	0.769782
	H40	H	0.887249	0.210592	0.338074
	H41	H	0.103403	0.215660	0.645075
	H42	H	0.100239	0.765105	0.338119
	H43	H	0.882360	0.765247	0.646423
	H44	H	0.211557	0.333167	0.888712
	H45	H	0.211228	0.646763	0.093422
	H46	H	0.771729	0.333487	0.094561
	H47	H	0.769193	0.645472	0.888578
	H48	H	0.406256	0.095022	0.578480
	H49	H	0.574581	0.878179	0.582430
	H50	H	0.579873	0.101544	0.395103
	H51	H	0.406229	0.877634	0.401413
	H52	H	0.577417	0.395586	0.103771
	H53	H	0.573460	0.579822	0.883556
	H54	H	0.399849	0.579201	0.104155
	H55	H	0.400213	0.394000	0.877907
	H56	H	0.105777	0.577817	0.405301
	H57	H	0.880030	0.572502	0.577537
	H58	H	0.103787	0.401625	0.577273
	H59	H	0.877091	0.400713	0.406672
	H60	H	0.103575	0.406809	0.579351
	H61	H	0.876138	0.575137	0.584580
	H62	H	0.105821	0.577323	0.402106
	H63	H	0.875487	0.401757	0.399594
	H64	H	0.404574	0.574452	0.100326
	H65	H	0.580702	0.579043	0.882180
	H66	H	0.580836	0.396819	0.104817
	H67	H	0.401959	0.401396	0.881689
	H68	H	0.574437	0.096652	0.403313
	H69	H	0.580334	0.876933	0.579147
	H70	H	0.398715	0.100141	0.583463
	H71	H	0.402903	0.877928	0.405330
	H72	H	0.904202	0.601782	0.083157
	H73	H	0.074130	0.379557	0.086373
	H74	H	0.078074	0.599539	0.903311
	H75	H	0.900851	0.376811	0.899403
	H76	H	0.081038	0.896226	0.604472
	H77	H	0.080700	0.082759	0.381470
	H78	H	0.896924	0.076826	0.604583
	H79	H	0.905167	0.895159	0.381293
	H80	H	0.604096	0.077993	0.908911
	H81	H	0.371056	0.084113	0.087949
	H82	H	0.601415	0.906388	0.079739
	H83	H	0.380970	0.899891	0.914265
	H84	H	0.605510	0.900740	0.085203
	H85	H	0.378633	0.079335	0.073200
	H86	H	0.604180	0.070159	0.903226
	H87	H	0.380993	0.908836	0.902746
	H88	H	0.907507	0.076990	0.601784
	H89	H	0.081528	0.077489	0.382561
	H90	H	0.077653	0.903565	0.600382
	H91	H	0.900110	0.896349	0.379372
	H92	H	0.074386	0.598997	0.903414
	H93	H	0.083634	0.377924	0.081407
	H94	H	0.902262	0.602468	0.085168
	H95	H	0.912324	0.381366	0.902518
	H96	H	0.407899	0.097896	0.588123
	H97	H	0.579595	0.874290	0.585111
	H98	H	0.585269	0.099393	0.404357
	H99	H	0.401783	0.875373	0.400837
	H100	H	0.578756	0.399400	0.102256
	H101	H	0.576592	0.573378	0.885149
	H102	H	0.407070	0.581177	0.102641
	H103	H	0.407645	0.395274	0.882195
	H104	H	0.106627	0.580109	0.403504
	H105	H	0.876830	0.580320	0.578403
	H106	H	0.105241	0.402419	0.582753
	H107	H	0.874704	0.395196	0.402949
	H108	H	0.904910	0.601722	0.085662
	H109	H	0.082238	0.375538	0.091697
	H110	H	0.076304	0.597951	0.906569
	H111	H	0.902885	0.380809	0.911239
	H112	H	0.072211	0.896490	0.601722
	H113	H	0.076432	0.079597	0.383184
	H114	H	0.902476	0.085829	0.605930
	H115	H	0.903290	0.899727	0.382317
	H116	H	0.608045	0.078483	0.900229
	H117	H	0.377258	0.068372	0.086370
	H118	H	0.603286	0.898222	0.076784
	H119	H	0.374857	0.895319	0.901813
	C120	C	0.369554	-0.004214	0.615731
	C121	C	0.612132	0.978893	0.613993
	C122	C	0.612736	-0.003590	0.369465
	C123	C	0.370443	0.979517	0.371555
	C124	C	0.613168	0.365621	0.001584
	C125	C	0.611551	0.610519	0.984894
	C126	C	0.369582	0.610764	0.000783
	C127	C	0.370193	0.366082	0.983332
	C128	C	0.000656	0.609432	0.372598
	C129	C	0.982100	0.609591	0.612789
	C130	C	0.000452	0.369166	0.613432
	C131	C	0.981768	0.368752	0.372250
	C132	C	0.870509	0.498592	0.115419
	C133	C	0.113404	0.481088	0.116222
	C134	C	0.110936	0.497249	0.871704
	C135	C	0.870346	0.481586	0.871387
	C136	C	0.111718	0.866882	0.500469
	C137	C	0.113102	0.111347	0.484638
	C138	C	0.870551	0.110590	0.501159
	C139	C	0.869452	0.865957	0.483895
	C140	C	0.500937	0.107828	0.871988
	C141	C	0.480996	0.109383	0.114002
	C142	C	0.498984	0.868313	0.113029
	C143	C	0.482852	0.867543	0.872800
	C144	C	0.363763	0.879994	0.677247
	C145	C	0.617730	0.094799	0.675462
	C146	C	0.617030	0.880423	0.308928
	C147	C	0.366183	0.096347	0.311103
	C148	C	0.675020	0.364548	0.885635
	C149	C	0.673326	0.613656	0.101185
	C150	C	0.308210	0.612911	0.884508
	C151	C	0.310309	0.365931	0.100310
	C152	C	0.880199	0.667532	0.371481
	C153	C	0.100870	0.670958	0.616266
	C154	C	0.882030	0.307585	0.617460
	C155	C	0.102629	0.311633	0.372377
	C156	C	0.881846	0.365057	0.674698
	C157	C	0.100486	0.614131	0.674030
	C158	C	0.880843	0.611098	0.313601
	C159	C	0.102492	0.368300	0.314222
	C160	C	0.363747	0.673289	0.885941
	C161	C	0.617007	0.672889	0.100086
	C162	C	0.619338	0.303904	0.886630
	C163	C	0.366262	0.305960	0.099319
	C164	C	0.673499	0.879790	0.368181
	C165	C	0.672342	0.096694	0.614486
	C166	C	0.307955	0.879078	0.617146
	C167	C	0.311575	0.097655	0.372090
	C168	C	0.866534	0.381671	0.174937
	C169	C	0.116359	0.598665	0.174247
	C170	C	0.117927	0.382354	0.808681
	C171	C	0.864661	0.596988	0.808992
	C172	C	0.172859	0.866488	0.383798
	C173	C	0.173460	0.112253	0.600991
	C174	C	0.813015	0.109339	0.382944
	C175	C	0.809749	0.866055	0.601229
	C176	C	0.380946	0.166575	0.870103
	C177	C	0.601328	0.167764	0.114655
	C178	C	0.379728	0.807805	0.115461
	C179	C	0.601201	0.806080	0.868425
	C180	C	0.379742	0.864563	0.173187
	C181	C	0.600688	0.111254	0.172978
	C182	C	0.381565	0.110064	0.812033
	C183	C	0.600940	0.863145	0.810791
	C184	C	0.868760	0.170050	0.384262
	C185	C	0.118946	0.173258	0.599762
	C186	C	0.116999	0.806157	0.384298
	C187	C	0.865455	0.806103	0.600272
	C188	C	0.172296	0.380505	0.869476
	C189	C	0.172663	0.599145	0.114464
	C190	C	0.811194	0.380725	0.114611
	C191	C	0.808825	0.598284	0.869196
	C192	C	0.396761	0.076757	0.590520
	C193	C	0.585753	0.897595	0.589040
	C194	C	0.586955	0.077979	0.393956
	C195	C	0.396236	0.898305	0.395802
	C196	C	0.586392	0.390428	0.082506
	C197	C	0.584546	0.584540	0.904629
	C198	C	0.396294	0.585404	0.081319
	C199	C	0.396096	0.390025	0.901931
	C200	C	0.084330	0.585301	0.396771
	C201	C	0.899493	0.583606	0.587329
	C202	C	0.082828	0.395966	0.587262
	C203	C	0.897824	0.392349	0.396251
	C204	C	0.896237	0.580575	0.091391
	C205	C	0.087757	0.399048	0.093055
	C206	C	0.083982	0.577866	0.897285
	C207	C	0.897344	0.400817	0.897224
	C208	C	0.084526	0.891625	0.581325
	C209	C	0.086806	0.086893	0.403495
	C210	C	0.895266	0.086682	0.582830
	C211	C	0.895477	0.890197	0.402177
	C212	C	0.583790	0.082840	0.896924
	C213	C	0.397460	0.084356	0.089692
	C214	C	0.581976	0.894265	0.087596
	C215	C	0.400321	0.893572	0.899008
	Zn216	Zn	0.491428	-0.012949	0.744058
	Zn217	Zn	0.490267	-0.012262	0.241144
	Zn218	Zn	0.741317	0.489702	-0.006437
	Zn219	Zn	0.240575	0.488878	-0.007989
	Zn220	Zn	-0.009267	0.736732	0.492219
	Zn221	Zn	-0.007925	0.240541	0.493469
	Zn222	Zn	-0.008576	0.489599	0.741441
	Zn223	Zn	-0.008277	0.490187	0.244830
	Zn224	Zn	0.490698	0.740117	-0.007010
	Zn225	Zn	0.491099	0.236029	-0.008429
	Zn226	Zn	0.740936	-0.011788	0.492125
	Zn227	Zn	0.241434	-0.011403	0.493458
	N228	N	0.401680	0.953564	0.676314
	N229	N	0.580876	0.020610	0.675217
	N230	N	0.579851	0.954173	0.309525
	N231	N	0.401954	0.021929	0.310360
	N232	N	0.671171	0.402414	0.958209
	N233	N	0.670245	0.575426	0.028583
	N234	N	0.311490	0.574922	0.957065
	N235	N	0.312380	0.402728	0.027062
	N236	N	0.955991	0.666946	0.407063
	N237	N	0.026089	0.668444	0.578974
	N238	N	0.956905	0.309781	0.580258
	N239	N	0.026451	0.311337	0.407336
	N240	N	0.956838	0.402516	0.672510
	N241	N	0.025543	0.576702	0.672097
	N242	N	0.956806	0.575922	0.313898
	N243	N	0.026027	0.402786	0.313538
	N244	N	0.401081	0.672171	0.959285
	N245	N	0.579376	0.671212	0.026759
	N246	N	0.581648	0.304455	0.959864
	N247	N	0.402626	0.305828	0.025480
	N248	N	0.670909	0.953144	0.405227
	N249	N	0.669177	0.023555	0.576969
	N250	N	0.311565	0.952125	0.579588
	N251	N	0.314041	0.024191	0.408992
	N252	N	0.902708	0.456183	0.175754
	N253	N	0.080648	0.524015	0.175854
	N254	N	0.080489	0.455898	0.809870
	N255	N	0.902001	0.523296	0.810162
	N256	N	0.169727	0.903407	0.457029
	N257	N	0.169928	0.074286	0.528445
	N258	N	0.813802	0.073249	0.456656
	N259	N	0.811948	0.902601	0.527584
	N260	N	0.456147	0.165533	0.906614
	N261	N	0.525740	0.166912	0.078845
	N262	N	0.454977	0.809963	0.078682
	N263	N	0.526715	0.808710	0.906145
	N264	N	0.455120	0.901475	0.171888
	N265	N	0.524609	0.075949	0.172966
	N266	N	0.457273	0.074579	0.812700
	N267	N	0.526130	0.900578	0.813334
	N268	N	0.903562	0.171062	0.458919
	N269	N	0.081637	0.172490	0.526437
	N270	N	0.079888	0.805978	0.458013
	N271	N	0.901581	0.805768	0.526105
	N272	N	0.168246	0.452998	0.908136
	N273	N	0.171163	0.524720	0.079372
	N274	N	0.813353	0.454581	0.078417
	N275	N	0.811982	0.525335	0.907121
	O276	O	-0.101562	0.861416	-0.117533
	H277	H	-0.095252	0.860181	-0.117155
	H278	H	-0.122353	0.857140	-0.123694
	O279	O	0.582451	0.464267	0.554092
	H280	H	0.598550	0.479091	0.560124
	H281	H	0.591613	0.475757	0.549126
	O282	O	1.202661	0.204922	0.771104
	H283	H	1.234884	0.233058	0.748924
	H284	H	1.188186	0.203902	0.760747
	O285	O	0.548821	0.270598	0.568003
	H286	H	0.569669	0.267393	0.557788
	H287	H	0.548598	0.276004	0.549543
	O288	O	0.298239	0.302915	0.326564
	H289	H	0.311393	0.325779	0.329828
	H290	H	0.320350	0.314956	0.344489
	O291	O	0.283638	0.268421	0.658089
	H292	H	0.297231	0.275640	0.620451
	H293	H	0.304847	0.277410	0.659554
	O294	O	1.514417	0.264134	1.271964
	H295	H	1.532055	0.262062	1.269084
	H296	H	1.538256	0.249195	1.256985
	O297	O	0.456626	0.594240	0.563161
	H298	H	0.455966	0.592856	0.568882
	H299	H	0.456740	0.602244	0.574479
	O300	O	-0.186284	0.177669	1.169492
	H301	H	-0.178606	0.161207	1.148614
	H302	H	-0.158971	0.170741	1.153336
	O303	O	0.299256	0.386861	0.438857
	H304	H	0.313624	0.412663	0.425015
	H305	H	0.294435	0.387351	0.448333
	O306	O	0.512265	0.708757	0.717107
	H307	H	0.513437	0.728095	0.741739
	H308	H	0.517113	0.702331	0.712696
	O309	O	0.458327	0.562114	0.628100
	H310	H	0.453838	0.575133	0.625881
	H311	H	0.472744	0.561777	0.617607
	O312	O	0.466334	0.270550	0.444231
	H313	H	0.482671	0.300674	0.433417
	H314	H	0.466338	0.253866	0.416878
	O315	O	0.780314	1.046461	1.042519
	H316	H	0.776604	1.038459	1.031824
	H317	H	0.789367	1.041713	1.057346
	O318	O	0.030521	0.221074	0.936604
	H319	H	0.053138	0.214807	0.934353
	H320	H	0.042317	0.217853	0.919526
	O321	O	0.411807	0.600516	0.670444
	H322	H	0.421517	0.588151	0.660740
	H323	H	0.423369	0.582345	0.656535
	O324	O	0.940922	1.050571	0.221865
	H325	H	0.964135	1.045869	0.200375
	H326	H	0.954942	1.074513	0.233456
	O327	O	-0.084485	0.197977	1.057307
	H328	H	-0.080585	0.183704	1.034478
	H329	H	-0.080334	0.202124	1.032341
	O330	O	0.179300	1.113256	-0.101549
	H331	H	0.186252	1.118403	-0.113534
	H332	H	0.198042	1.134351	-0.094682
	O333	O	0.807166	0.170533	0.946022
	H334	H	0.815290	0.168987	0.936690
	H335	H	0.787764	0.169527	0.951572
	O336	O	0.418479	0.381520	0.336169
	H337	H	0.439813	0.400168	0.334658
	H338	H	0.442234	0.367469	0.324259
	O339	O	1.081666	0.001477	0.796008
	H340	H	1.104102	0.005787	0.794332
	H341	H	1.088383	0.004805	0.798815
	O342	O	0.273529	0.524691	0.265946
	H343	H	0.266107	0.515649	0.237119
	H344	H	0.272356	0.541162	0.253230
	O345	O	-0.032257	1.209636	0.775094
	H346	H	-0.024853	1.223966	0.760647
	H347	H	-0.025228	1.201849	0.768532
	O348	O	0.407250	0.579719	0.537896
	H349	H	0.405694	0.565017	0.531089
	H350	H	0.410086	0.576058	0.534114
	O351	O	-0.129653	1.045988	-0.218307
	H352	H	-0.122416	1.030327	-0.202139
	H353	H	-0.100824	1.056946	-0.217785
	O354	O	0.206054	0.210025	1.025530
	H355	H	0.206659	0.197262	1.050918
	H356	H	0.233381	0.235132	1.034265
	O357	O	0.299537	0.388857	0.574447
	H358	H	0.318087	0.383691	0.569133
	H359	H	0.298613	0.391170	0.572867
	O360	O	0.516029	0.716779	0.482671
	H361	H	0.495737	0.714436	0.495524
	H362	H	0.499828	0.721639	0.452039
	O363	O	0.028971	0.031703	0.061827
	H364	H	0.025247	0.013632	0.056207
	H365	H	0.046407	0.030124	0.058763
	O366	O	0.298559	0.690857	0.295910
	H367	H	0.296369	0.667223	0.306887
	H368	H	0.308221	0.709630	0.286808
	O369	O	1.198209	-0.128686	-0.224644
	H370	H	1.210016	-0.160870	-0.232235
	H371	H	1.217507	-0.122251	-0.237289
	O372	O	0.789315	0.776378	0.009109
	H373	H	0.777021	0.766082	0.011443
	H374	H	0.794445	0.781064	0.013051
	O375	O	0.785221	-0.019526	0.196918
	H376	H	0.790170	-0.014278	0.225366
	H377	H	0.795908	-0.013537	0.185325
	O378	O	0.531778	0.479814	0.683847
	H379	H	0.526674	0.467786	0.688598
	H380	H	0.528139	0.478500	0.674518
	O381	O	-0.213587	0.969274	0.794879
	H382	H	-0.227944	0.985247	0.779773
	H383	H	-0.200142	0.962440	0.783395
	O384	O	1.164515	-0.120887	0.966149
	H385	H	1.164351	-0.123157	0.966893
	H386	H	1.177203	-0.126247	0.968443
	O387	O	1.023467	0.866517	-0.107379
	H388	H	1.033782	0.865462	-0.114031
	H389	H	1.036251	0.855546	-0.116064
	O390	O	0.692812	0.586200	0.368524
	H391	H	0.681022	0.585885	0.381738
	H392	H	0.699307	0.615181	0.367898
	O393	O	0.400246	0.526143	0.380529
	H394	H	0.406115	0.528920	0.377958
	H395	H	0.403365	0.527029	0.369929
	O396	O	-0.205560	0.809558	1.171828
	H397	H	-0.210637	0.838236	1.176206
	H398	H	-0.181093	0.808522	1.167696
	O399	O	0.162516	0.196525	1.203987
	H400	H	0.185708	0.230866	1.233925
	H401	H	0.117710	0.207005	1.201901
	O402	O	0.702703	-0.298342	0.528559
	H403	H	0.706426	-0.289376	0.550140
	H404	H	0.704872	-0.278242	0.520394
	O405	O	1.671148	0.725812	0.314909
	H406	H	1.675460	0.722924	0.335884
	H407	H	1.694359	0.754758	0.317933
	O408	O	0.194191	-0.090272	-0.002572
	H409	H	0.188027	-0.089900	-0.004202
	H410	H	0.194859	-0.081748	-0.013896
	O411	O	1.046700	0.847189	0.804700
	H412	H	1.044997	0.841846	0.831868
	H413	H	1.050057	0.832949	0.785862
	O414	O	0.705921	0.522601	0.712992
	H415	H	0.694086	0.507963	0.717685
	H416	H	0.729833	0.527488	0.736291
	O417	O	0.963869	0.771667	0.211600
	H418	H	0.964095	0.781721	0.204992
	H419	H	0.965049	0.754825	0.234429
	O420	O	0.701876	0.500553	0.519703
	H421	H	0.704586	0.489104	0.513588
	H422	H	0.703893	0.495442	0.532106
	O423	O	0.047949	-0.067122	1.225105
	H424	H	0.064217	-0.059773	1.227140
	H425	H	0.054645	-0.057222	1.225414
	O426	O	0.277983	0.607844	0.525370
	H427	H	0.272631	0.606161	0.525810
	H428	H	0.273136	0.595138	0.514052
	O429	O	1.011784	1.211334	1.187548
	H430	H	1.004355	1.226285	1.188050
	H431	H	0.995184	1.222537	1.163825
	O432	O	0.476479	0.271246	0.716165
	H433	H	0.474400	0.249976	0.730410
	H434	H	0.483521	0.258371	0.687515
	O435	O	-0.312870	0.689432	-0.304682
	H436	H	-0.318951	0.674228	-0.318534
	H437	H	-0.320712	0.686548	-0.291881
	O438	O	-0.152859	-0.139073	-0.069854
	H439	H	-0.158953	-0.143550	-0.063660
	H440	H	-0.149842	-0.130588	-0.080388
	O441	O	-0.301273	-0.721907	-0.541559
	H442	H	-0.277951	-0.737491	-0.547655
	H443	H	-0.294777	-0.719122	-0.566926
	O444	O	0.295725	0.649286	0.485127
	H445	H	0.310705	0.633635	0.470535
	H446	H	0.276104	0.658918	0.478225
	O447	O	0.205438	1.054805	1.209650
	H448	H	0.194483	1.084999	1.206122
	H449	H	0.231693	1.064197	1.222492
	O450	O	-0.305772	1.279689	1.294986
	H451	H	-0.281239	1.259564	1.267268
	H452	H	-0.305583	1.315263	1.296227
	O453	O	0.469721	0.705470	0.277823
	H454	H	0.471063	0.699989	0.275322
	H455	H	0.469470	0.717438	0.262302
	O456	O	0.702997	0.451952	1.270566
	H457	H	0.725412	0.463614	1.257597
	H458	H	0.705134	0.458234	1.284120
	O459	O	1.147841	0.854102	0.004913
	H460	H	1.153768	0.864723	0.010209
	H461	H	1.159481	0.841356	0.014049
	O462	O	0.521446	0.509008	0.311111
	H463	H	0.530631	0.523727	0.312818
	H464	H	0.528695	0.506429	0.312538
	O465	O	1.525629	0.384685	0.358823
	H466	H	1.545510	0.383310	0.372791
	H467	H	1.523874	0.391726	0.368783
	O468	O	0.296658	0.457447	0.705063
	H469	H	0.305341	0.451481	0.696431
	H470	H	0.293827	0.458737	0.722507
	O471	O	0.748118	0.231127	0.752054
	H472	H	0.745660	0.220723	0.772116
	H473	H	0.770213	0.219129	0.755492
	O474	O	0.642349	0.366955	0.635150
	H475	H	0.652232	0.358031	0.641264
	H476	H	0.653012	0.344815	0.631042
	O477	O	1.027831	-0.220731	2.010350
	H478	H	1.021250	-0.221720	1.994646
	H479	H	1.037066	-0.220397	2.004043
	O480	O	0.003979	1.026490	-0.069916
	H481	H	0.021324	1.033269	-0.072449
	H482	H	-0.006806	1.017708	-0.068035
	O483	O	-0.175256	0.864244	0.062643
	H484	H	-0.177447	0.868995	0.051172
	H485	H	-0.166923	0.871919	0.053414
	O486	O	1.011424	-0.113684	0.766534
	H487	H	1.012584	-0.126126	0.754890
	H488	H	1.025165	-0.101941	0.767610
	O489	O	1.101954	0.861165	0.125470
	H490	H	1.093176	0.854970	0.102108
	H491	H	1.104253	0.882727	0.122447
