data_Molecule from HDF5

_cell_length_a		16.386404
_cell_length_b		16.248108
_cell_length_c		16.294650
_cell_angle_alpha	89.807044
_cell_angle_beta	90.143101
_cell_angle_gamma	90.171291
_symmetry_space_group_name_H-M	'P 1'
_symmetry_Int_Tables_number		1

loop_
	_symmetry_equiv_pos_as_xyz
	x,y,z

loop_
	_atom_site_label
	_atom_site_type_symbol
	_atom_site_fract_x
	_atom_site_fract_y
	_atom_site_fract_z
	H0	H	0.389513	0.830570	0.718199
	H1	H	0.597036	0.154593	0.714598
	H2	H	0.595424	0.831604	0.278633
	H3	H	0.391552	0.153921	0.277977
	H4	H	0.717526	0.387906	0.838430
	H5	H	0.717156	0.595429	0.160231
	H6	H	0.275877	0.597889	0.838603
	H7	H	0.280084	0.389040	0.160872
	H8	H	0.835851	0.710125	0.392550
	H9	H	0.154613	0.714289	0.603633
	H10	H	0.836316	0.271247	0.603795
	H11	H	0.156908	0.276909	0.401183
	H12	H	0.837810	0.386834	0.719950
	H13	H	0.157121	0.595510	0.716623
	H14	H	0.837536	0.594702	0.278074
	H15	H	0.157421	0.388596	0.282636
	H16	H	0.395293	0.710282	0.836264
	H17	H	0.601242	0.711719	0.160005
	H18	H	0.596716	0.278074	0.834952
	H19	H	0.395129	0.273503	0.159421
	H20	H	0.715879	0.833143	0.388730
	H21	H	0.714185	0.153306	0.600542
	H22	H	0.276413	0.830499	0.600264
	H23	H	0.277102	0.154278	0.393721
	H24	H	0.897075	0.329358	0.217120
	H25	H	0.100705	0.653410	0.217997
	H26	H	0.100338	0.329987	0.782579
	H27	H	0.894014	0.653346	0.779263
	H28	H	0.213730	0.887047	0.336175
	H29	H	0.216931	0.096706	0.657939
	H30	H	0.775522	0.099007	0.336111
	H31	H	0.773221	0.886057	0.656789
	H32	H	0.335871	0.212444	0.893169
	H33	H	0.657652	0.207597	0.098387
	H34	H	0.336941	0.771843	0.100807
	H35	H	0.657082	0.775720	0.894721
	H36	H	0.334346	0.888725	0.214227
	H37	H	0.654658	0.096042	0.217283
	H38	H	0.334794	0.095727	0.777879
	H39	H	0.655247	0.889531	0.777629
	H40	H	0.893811	0.211300	0.336717
	H41	H	0.096808	0.207206	0.660160
	H42	H	0.094179	0.774943	0.336272
	H43	H	0.888307	0.769841	0.657046
	H44	H	0.215653	0.330612	0.897353
	H45	H	0.216995	0.653387	0.103274
	H46	H	0.778162	0.330134	0.104568
	H47	H	0.778021	0.652796	0.894632
	H48	H	0.408838	0.106031	0.587130
	H49	H	0.581874	0.879199	0.582400
	H50	H	0.579624	0.104464	0.411497
	H51	H	0.408330	0.876749	0.401731
	H52	H	0.585857	0.405916	0.111692
	H53	H	0.590372	0.584390	0.882038
	H54	H	0.412971	0.584898	0.112821
	H55	H	0.411642	0.407980	0.886847
	H56	H	0.110997	0.583503	0.408408
	H57	H	0.884575	0.575860	0.584056
	H58	H	0.109683	0.398951	0.584156
	H59	H	0.883414	0.404956	0.411376
	H60	H	0.109900	0.405453	0.593699
	H61	H	0.880955	0.577143	0.594526
	H62	H	0.110759	0.584019	0.410351
	H63	H	0.880549	0.403747	0.403323
	H64	H	0.402294	0.584466	0.115790
	H65	H	0.588905	0.579153	0.885770
	H66	H	0.584620	0.397539	0.114225
	H67	H	0.406161	0.396618	0.881495
	H68	H	0.590493	0.108587	0.410031
	H69	H	0.588173	0.876063	0.586648
	H70	H	0.403731	0.106492	0.583145
	H71	H	0.403377	0.878783	0.413926
	H72	H	0.903605	0.606384	0.085495
	H73	H	0.089955	0.374369	0.093415
	H74	H	0.087280	0.608625	0.903476
	H75	H	0.906731	0.377675	0.913846
	H76	H	0.084459	0.909091	0.610240
	H77	H	0.085036	0.089609	0.380268
	H78	H	0.908398	0.074048	0.608238
	H79	H	0.905549	0.902360	0.382499
	H80	H	0.609593	0.079242	0.902940
	H81	H	0.381268	0.087921	0.081595
	H82	H	0.609441	0.903826	0.084924
	H83	H	0.380248	0.898859	0.906909
	H84	H	0.610574	0.907009	0.091564
	H85	H	0.382914	0.077633	0.085080
	H86	H	0.613048	0.088780	0.902668
	H87	H	0.383112	0.902171	0.911824
	H88	H	0.907400	0.086778	0.613379
	H89	H	0.091809	0.082093	0.380500
	H90	H	0.080895	0.900944	0.611323
	H91	H	0.903031	0.901604	0.381037
	H92	H	0.083124	0.605525	0.911857
	H93	H	0.086418	0.376954	0.090679
	H94	H	0.908343	0.608525	0.093055
	H95	H	0.904671	0.375475	0.908984
	H96	H	0.403756	0.109186	0.589400
	H97	H	0.580704	0.876923	0.590471
	H98	H	0.582704	0.109169	0.401664
	H99	H	0.395805	0.872721	0.403855
	H100	H	0.592827	0.401771	0.114849
	H101	H	0.584709	0.584500	0.884973
	H102	H	0.407426	0.575750	0.110799
	H103	H	0.398667	0.407590	0.882268
	H104	H	0.111198	0.581483	0.409346
	H105	H	0.880237	0.585272	0.587659
	H106	H	0.115130	0.394573	0.594101
	H107	H	0.879709	0.397291	0.408679
	H108	H	0.912679	0.604455	0.086092
	H109	H	0.090682	0.376153	0.089033
	H110	H	0.092886	0.607630	0.911947
	H111	H	0.910195	0.377426	0.909184
	H112	H	0.089560	0.902201	0.613786
	H113	H	0.082885	0.080991	0.384995
	H114	H	0.896831	0.078961	0.614519
	H115	H	0.903476	0.904480	0.383096
	H116	H	0.608790	0.084803	0.911723
	H117	H	0.377991	0.085183	0.091105
	H118	H	0.611568	0.899967	0.090400
	H119	H	0.381972	0.904392	0.905661
	C120	C	0.373551	0.000715	0.618696
	C121	C	0.615080	0.983983	0.617636
	C122	C	0.614988	0.001200	0.375828
	C123	C	0.372174	0.983309	0.374977
	C124	C	0.618167	0.371186	0.006689
	C125	C	0.619511	0.613880	0.990523
	C126	C	0.375884	0.613810	0.006752
	C127	C	0.375368	0.372042	0.990181
	C128	C	0.005205	0.613399	0.376964
	C129	C	0.987486	0.612743	0.620080
	C130	C	0.005742	0.368200	0.621932
	C131	C	0.987605	0.371336	0.378330
	C132	C	0.876906	0.500002	0.120450
	C133	C	0.119442	0.483019	0.121682
	C134	C	0.118899	0.500545	0.878189
	C135	C	0.875927	0.483464	0.878219
	C136	C	0.115097	0.872230	0.505387
	C137	C	0.117647	0.114216	0.488835
	C138	C	0.873497	0.113154	0.505877
	C139	C	0.871776	0.869888	0.487953
	C140	C	0.504337	0.115260	0.874586
	C141	C	0.486547	0.114108	0.118238
	C142	C	0.504653	0.871544	0.119098
	C143	C	0.487454	0.871272	0.876513
	C144	C	0.371767	0.879051	0.678157
	C145	C	0.615931	0.105711	0.675648
	C146	C	0.614864	0.879840	0.317483
	C147	C	0.372397	0.105350	0.316935
	C148	C	0.677127	0.370190	0.885807
	C149	C	0.678244	0.614769	0.111725
	C150	C	0.316003	0.616036	0.886411
	C151	C	0.318491	0.370226	0.112044
	C152	C	0.884241	0.670746	0.374910
	C153	C	0.107013	0.674011	0.621839
	C154	C	0.884804	0.309964	0.622891
	C155	C	0.108669	0.314275	0.380026
	C156	C	0.885439	0.367621	0.680551
	C157	C	0.108403	0.614930	0.678289
	C158	C	0.885076	0.613827	0.317180
	C159	C	0.108973	0.370364	0.321316
	C160	C	0.375493	0.672084	0.885256
	C161	C	0.620564	0.672610	0.111427
	C162	C	0.617257	0.315108	0.884224
	C163	C	0.376047	0.312804	0.111181
	C164	C	0.675077	0.880777	0.372309
	C165	C	0.674509	0.105097	0.618958
	C166	C	0.314983	0.878971	0.619759
	C167	C	0.315530	0.105539	0.374636
	C168	C	0.877544	0.377749	0.178188
	C169	C	0.119483	0.605139	0.178966
	C170	C	0.119412	0.378726	0.820853
	C171	C	0.875535	0.604778	0.818984
	C172	C	0.173872	0.869605	0.384498
	C173	C	0.176907	0.114762	0.609957
	C174	C	0.815232	0.116346	0.384802
	C175	C	0.812639	0.867874	0.608722
	C176	C	0.383755	0.173333	0.874062
	C177	C	0.608459	0.170772	0.118542
	C178	C	0.384347	0.811598	0.119645
	C179	C	0.608556	0.813542	0.875361
	C180	C	0.383196	0.869631	0.176244
	C181	C	0.606972	0.114747	0.177644
	C182	C	0.383286	0.115519	0.816562
	C183	C	0.607670	0.870325	0.817255
	C184	C	0.873823	0.172740	0.385009
	C185	C	0.117100	0.169833	0.611239
	C186	C	0.114446	0.813646	0.384415
	C187	C	0.869956	0.809881	0.608929
	C188	C	0.176754	0.379012	0.878168
	C189	C	0.177543	0.605072	0.121817
	C190	C	0.818011	0.378531	0.122776
	C191	C	0.817615	0.604662	0.876605
	C192	C	0.398167	0.085283	0.593996
	C193	C	0.590647	0.899438	0.593541
	C194	C	0.591076	0.085394	0.400615
	C195	C	0.395550	0.898308	0.399228
	C196	C	0.594404	0.394807	0.091315
	C197	C	0.595236	0.589455	0.906272
	C198	C	0.400500	0.589056	0.091246
	C199	C	0.398665	0.396944	0.905530
	C200	C	0.089209	0.590053	0.402151
	C201	C	0.903811	0.586979	0.595761
	C202	C	0.089679	0.392462	0.597713
	C203	C	0.903246	0.395177	0.401241
	C204	C	0.901114	0.584593	0.095372
	C205	C	0.096024	0.398057	0.098003
	C206	C	0.094657	0.585347	0.902147
	C207	C	0.900252	0.398829	0.903318
	C208	C	0.091590	0.896964	0.589831
	C209	C	0.093616	0.091057	0.404012
	C210	C	0.897232	0.087317	0.590305
	C211	C	0.896815	0.895467	0.404063
	C212	C	0.588642	0.091329	0.898649
	C213	C	0.402354	0.090409	0.093386
	C214	C	0.588597	0.896517	0.095753
	C215	C	0.403491	0.894998	0.900826
	Zn216	Zn	0.494574	-0.008027	0.747741
	Zn217	Zn	0.493425	-0.007216	0.247016
	Zn218	Zn	0.747587	0.491410	-0.000090
	Zn219	Zn	0.246397	0.492300	-0.000482
	Zn220	Zn	-0.005422	0.742119	0.497987
	Zn221	Zn	-0.004686	0.241469	0.498359
	Zn222	Zn	-0.002211	0.491365	0.749818
	Zn223	Zn	-0.002444	0.491826	0.249367
	Zn224	Zn	0.497729	0.742712	-0.001912
	Zn225	Zn	0.496867	0.243049	-0.003062
	Zn226	Zn	0.744429	-0.007465	0.496208
	Zn227	Zn	0.245367	-0.007690	0.496731
	N228	N	0.407227	0.955845	0.677886
	N229	N	0.579664	0.029353	0.675216
	N230	N	0.578294	0.955558	0.319418
	N231	N	0.406811	0.028235	0.317000
	N232	N	0.677994	0.403927	0.963026
	N233	N	0.677725	0.579044	0.035343
	N234	N	0.315943	0.580702	0.963181
	N235	N	0.318065	0.406615	0.035714
	N236	N	0.959844	0.670516	0.411573
	N237	N	0.030590	0.673271	0.586657
	N238	N	0.960683	0.310193	0.587186
	N239	N	0.032275	0.314761	0.414710
	N240	N	0.961599	0.402923	0.680262
	N241	N	0.033023	0.577727	0.677472
	N242	N	0.961329	0.578937	0.318290
	N243	N	0.032554	0.404922	0.319998
	N244	N	0.412225	0.670539	0.961146
	N245	N	0.584803	0.672247	0.035183
	N246	N	0.581463	0.315470	0.960489
	N247	N	0.410768	0.313832	0.034468
	N248	N	0.675166	0.957212	0.408139
	N249	N	0.674297	0.028242	0.583671
	N250	N	0.316013	0.955546	0.583480
	N251	N	0.315296	0.028606	0.410054
	N252	N	0.913264	0.454361	0.177054
	N253	N	0.084232	0.528329	0.178978
	N254	N	0.084083	0.455342	0.820891
	N255	N	0.911200	0.528189	0.820000
	N256	N	0.174309	0.905629	0.460830
	N257	N	0.177440	0.080965	0.532729
	N258	N	0.814905	0.080222	0.461034
	N259	N	0.813456	0.904329	0.532330
	N260	N	0.460203	0.173470	0.909235
	N261	N	0.532644	0.170551	0.082273
	N262	N	0.460731	0.812296	0.085056
	N263	N	0.532847	0.814050	0.911605
	N264	N	0.458994	0.906084	0.176244
	N265	N	0.530137	0.080519	0.177689
	N266	N	0.459341	0.080314	0.816757
	N267	N	0.531447	0.905286	0.817824
	N268	N	0.909352	0.170871	0.461596
	N269	N	0.080950	0.169696	0.534964
	N270	N	0.078663	0.815310	0.460527
	N271	N	0.906018	0.811110	0.533042
	N272	N	0.176556	0.455917	0.913154
	N273	N	0.177631	0.528071	0.086940
	N274	N	0.817696	0.455499	0.087411
	N275	N	0.817852	0.528151	0.912751
	O276	O	0.433544	0.363679	0.460939
	H277	H	0.446894	0.371452	0.475051
	H278	H	0.424893	0.355326	0.465712
	O279	O	0.438163	0.633986	0.626905
	H280	H	0.431156	0.642685	0.615691
	H281	H	0.438473	0.629972	0.639303
	O282	O	1.127697	0.072811	1.114613
	H283	H	1.117564	0.088276	1.103504
	H284	H	1.138337	0.065201	1.111387
	O285	O	1.115608	0.998970	1.048814
	H286	H	1.098241	1.009615	1.045087
	H287	H	1.112951	1.008278	1.049857
	O288	O	0.990431	1.055650	1.114876
	H289	H	0.988512	1.067398	1.108324
	H290	H	0.992538	1.061555	1.104752
	O291	O	0.151271	0.862861	0.038877
	H292	H	0.155731	0.837563	0.046868
	H293	H	0.158014	0.866848	0.049249
	O294	O	0.507352	0.580933	0.480654
	H295	H	0.503319	0.581377	0.495592
	H296	H	0.529729	0.604584	0.486955
	O297	O	0.391567	0.489539	0.444466
	H298	H	0.399335	0.496611	0.441336
	H299	H	0.378021	0.485968	0.443721
	O300	O	0.595680	0.352604	0.610637
	H301	H	0.571287	0.344930	0.605742
	H302	H	0.608680	0.333148	0.592071
	O303	O	0.477489	0.424275	0.646522
	H304	H	0.475392	0.423897	0.643198
	H305	H	0.464750	0.425486	0.644986
	O306	O	0.551396	0.544611	0.471679
	H307	H	0.554792	0.544702	0.483452
	H308	H	0.549706	0.557628	0.463002
	O309	O	0.433871	0.469526	0.524060
	H310	H	0.434640	0.454530	0.538539
	H311	H	0.447194	0.469948	0.518692
	O312	O	0.036561	0.012422	0.144246
	H313	H	0.041665	0.012913	0.148441
	H314	H	0.039819	0.008293	0.141884
	O315	O	0.471551	0.431341	0.670051
	H316	H	0.468552	0.415177	0.676902
	H317	H	0.477968	0.430755	0.671662
	O318	O	-0.117360	0.891265	1.073111
	H319	H	-0.105482	0.901266	1.071254
	H320	H	-0.128308	0.887780	1.071385
	O321	O	0.738148	0.202548	0.763633
	H322	H	0.724348	0.208960	0.751422
	H323	H	0.745748	0.208177	0.765909
	O324	O	-0.048790	1.087630	0.060903
	H325	H	-0.035285	1.064817	0.053414
	H326	H	-0.060153	1.090817	0.068387
	O327	O	0.663922	0.495473	0.660863
	H328	H	0.668419	0.487691	0.641796
	H329	H	0.671477	0.487086	0.659761
	O330	O	-0.109729	-0.055342	1.080268
	H331	H	-0.118430	-0.039984	1.079252
	H332	H	-0.127386	-0.065664	1.074098
	O333	O	0.154698	-0.036152	0.887015
	H334	H	0.168844	-0.046575	0.885591
	H335	H	0.133401	-0.049544	0.888943
	O336	O	0.515566	0.370305	0.383749
	H337	H	0.508308	0.374387	0.376646
	H338	H	0.513974	0.376262	0.388203
	O339	O	1.027540	0.158187	0.001489
	H340	H	1.037455	0.157879	-0.007728
	H341	H	1.018926	0.157818	0.004162
	O342	O	0.147983	-0.025914	-0.190398
	H343	H	0.147388	-0.041800	-0.182206
	H344	H	0.153804	-0.041465	-0.202049
	O345	O	1.138937	-0.097572	1.071735
	H346	H	1.127719	-0.084845	1.070737
	H347	H	1.145268	-0.094971	1.073640
	O348	O	0.921466	0.903213	-0.158570
	H349	H	0.938207	0.924317	-0.154120
	H350	H	0.923601	0.878772	-0.181574
	O351	O	0.496456	0.559192	0.409543
	H352	H	0.504734	0.570699	0.401441
	H353	H	0.500727	0.568814	0.415930
	O354	O	0.935031	-0.182896	0.898743
	H355	H	0.926213	-0.169227	0.902165
	H356	H	0.924421	-0.181165	0.887027
	O357	O	0.614885	0.681355	0.683222
	H358	H	0.626234	0.659926	0.702196
	H359	H	0.603105	0.682261	0.692214
	O360	O	0.604300	0.655683	0.431874
	H361	H	0.607778	0.662759	0.432933
	H362	H	0.596536	0.653522	0.463379
	O363	O	0.080481	1.024737	0.970600
	H364	H	0.072253	1.016679	0.973409
	H365	H	0.097539	1.018362	0.972751
	O366	O	0.484130	0.506667	0.520718
	H367	H	0.491212	0.500931	0.495022
	H368	H	0.483713	0.525581	0.518792
	O369	O	-0.010478	0.836459	0.105318
	H370	H	-0.019775	0.825973	0.097503
	H371	H	-0.008266	0.844667	0.102190
	O372	O	0.480817	0.382980	0.569844
	H373	H	0.472670	0.365056	0.572945
	H374	H	0.474970	0.380713	0.565271
	O375	O	0.378183	0.514932	0.359869
	H376	H	0.383551	0.513813	0.353264
	H377	H	0.390511	0.506641	0.345819
	O378	O	0.545515	0.643651	0.366158
	H379	H	0.539778	0.667032	0.371737
	H380	H	0.540492	0.640202	0.377576
	O381	O	1.107078	0.084871	-0.024106
	H382	H	1.107898	0.081089	-0.024270
	H383	H	1.107739	0.070007	-0.018975
	O384	O	0.932094	1.177715	-0.193724
	H385	H	0.935132	1.170556	-0.200448
	H386	H	0.932368	1.192875	-0.188880
	O387	O	-0.195042	0.144398	-0.103189
	H388	H	-0.201061	0.158985	-0.101719
	H389	H	-0.194526	0.143950	-0.118215
	O390	O	-0.162014	1.050017	0.131630
	H391	H	-0.156551	1.042592	0.139535
	H392	H	-0.162350	1.045640	0.138419
	O393	O	0.882485	0.983085	0.833533
	H394	H	0.887995	0.989264	0.838950
	H395	H	0.880900	0.976591	0.832157
	O396	O	0.673290	0.364198	0.419075
	H397	H	0.675677	0.369140	0.421586
	H398	H	0.670356	0.364181	0.400886
	O399	O	-0.081367	1.004167	1.050434
	H400	H	-0.078056	1.008670	1.063061
	H401	H	-0.072531	0.996229	1.048032
	O402	O	0.390136	0.505242	0.623893
	H403	H	0.387002	0.508215	0.620006
	H404	H	0.392343	0.492859	0.620665
	O405	O	1.262831	1.351285	0.345171
	H406	H	1.251779	1.347294	0.349146
	H407	H	1.267940	1.359420	0.349746
	O408	O	1.058490	0.836982	-0.118791
	H409	H	1.070077	0.824461	-0.106682
	H410	H	1.050472	0.836007	-0.115456
	O411	O	0.609323	-0.666254	0.314043
	H412	H	0.609793	-0.664602	0.307103
	H413	H	0.602536	-0.658919	0.307814
	O414	O	0.630042	0.446166	0.368167
	H415	H	0.631618	0.465071	0.384344
	H416	H	0.626574	0.438608	0.364755
	O417	O	0.300006	0.638292	0.424367
	H418	H	0.301920	0.626645	0.424007
	H419	H	0.287766	0.634460	0.413977
