data_Molecule from HDF5

_cell_length_a		16.067916
_cell_length_b		16.265995
_cell_length_c		16.327910
_cell_angle_alpha	89.719906
_cell_angle_beta	89.522767
_cell_angle_gamma	90.509181
_symmetry_space_group_name_H-M	'P 1'
_symmetry_Int_Tables_number		1

loop_
	_symmetry_equiv_pos_as_xyz
	x,y,z

loop_
	_atom_site_label
	_atom_site_type_symbol
	_atom_site_fract_x
	_atom_site_fract_y
	_atom_site_fract_z
	H0	H	0.388769	0.842445	0.711907
	H1	H	0.596723	0.168238	0.707362
	H2	H	0.594551	0.842063	0.277138
	H3	H	0.392867	0.166610	0.273647
	H4	H	0.710043	0.409024	0.828517
	H5	H	0.706983	0.601740	0.156696
	H6	H	0.283887	0.602236	0.828001
	H7	H	0.278451	0.405939	0.156688
	H8	H	0.827629	0.716624	0.395588
	H9	H	0.159113	0.720985	0.588861
	H10	H	0.830343	0.289470	0.594508
	H11	H	0.160403	0.294214	0.391996
	H12	H	0.831846	0.402280	0.710988
	H13	H	0.160427	0.607184	0.703928
	H14	H	0.828829	0.604769	0.278794
	H15	H	0.159686	0.407877	0.276425
	H16	H	0.396828	0.721956	0.829497
	H17	H	0.595066	0.721304	0.155238
	H18	H	0.597506	0.289407	0.829798
	H19	H	0.390260	0.285441	0.155021
	H20	H	0.705688	0.840407	0.396421
	H21	H	0.708897	0.169242	0.588976
	H22	H	0.277429	0.841590	0.592318
	H23	H	0.285045	0.169986	0.395704
	H24	H	0.891316	0.342221	0.210996
	H25	H	0.095018	0.669643	0.205118
	H26	H	0.098105	0.342728	0.774079
	H27	H	0.897465	0.668219	0.776182
	H28	H	0.208986	0.910013	0.329047
	H29	H	0.208146	0.103067	0.655872
	H30	H	0.783156	0.102225	0.328759
	H31	H	0.778207	0.905516	0.656005
	H32	H	0.329013	0.217550	0.894787
	H33	H	0.659250	0.220494	0.090706
	H34	H	0.330024	0.789014	0.093012
	H35	H	0.660930	0.795534	0.894108
	H36	H	0.329932	0.901002	0.209803
	H37	H	0.660732	0.103733	0.203690
	H38	H	0.329921	0.104643	0.779057
	H39	H	0.659284	0.906789	0.776904
	H40	H	0.895050	0.222480	0.330604
	H41	H	0.095556	0.222021	0.655670
	H42	H	0.094561	0.792139	0.329303
	H43	H	0.891161	0.787673	0.654838
	H44	H	0.208275	0.340312	0.894853
	H45	H	0.208089	0.670514	0.086192
	H46	H	0.778705	0.340630	0.091980
	H47	H	0.787038	0.670283	0.897069
	H48	H	0.398485	0.123133	0.587960
	H49	H	0.599636	0.886643	0.575278
	H50	H	0.590165	0.121937	0.401450
	H51	H	0.396157	0.888643	0.408982
	H52	H	0.577782	0.417590	0.104135
	H53	H	0.590278	0.599861	0.876573
	H54	H	0.394386	0.599056	0.110875
	H55	H	0.404632	0.409383	0.876654
	H56	H	0.112908	0.594874	0.391709
	H57	H	0.874514	0.593555	0.594754
	H58	H	0.112215	0.419832	0.583880
	H59	H	0.878328	0.418305	0.401728
	H60	H	0.115559	0.411487	0.586698
	H61	H	0.874857	0.602798	0.582971
	H62	H	0.114666	0.607185	0.396735
	H63	H	0.874395	0.409265	0.396656
	H64	H	0.404719	0.589764	0.105275
	H65	H	0.588772	0.603647	0.874871
	H66	H	0.582383	0.402448	0.110650
	H67	H	0.400566	0.410064	0.876263
	H68	H	0.589786	0.123242	0.393775
	H69	H	0.585545	0.883207	0.605139
	H70	H	0.406198	0.122276	0.590862
	H71	H	0.397227	0.884062	0.392580
	H72	H	0.907255	0.620957	0.086594
	H73	H	0.083615	0.390622	0.082896
	H74	H	0.091698	0.618882	0.906586
	H75	H	0.913987	0.389271	0.893391
	H76	H	0.089281	0.909840	0.611226
	H77	H	0.088572	0.101283	0.376288
	H78	H	0.896813	0.107387	0.613565
	H79	H	0.886998	0.910370	0.371559
	H80	H	0.614835	0.100797	0.897379
	H81	H	0.374462	0.102114	0.085461
	H82	H	0.609684	0.917765	0.076766
	H83	H	0.375673	0.911472	0.902995
	H84	H	0.614493	0.918611	0.094433
	H85	H	0.379210	0.090788	0.078477
	H86	H	0.611254	0.097577	0.902606
	H87	H	0.376053	0.912424	0.902114
	H88	H	0.895595	0.087570	0.607736
	H89	H	0.089221	0.100667	0.376442
	H90	H	0.083558	0.915947	0.607860
	H91	H	0.906875	0.922394	0.380164
	H92	H	0.096001	0.625761	0.890633
	H93	H	0.089424	0.386491	0.088253
	H94	H	0.898996	0.621993	0.083145
	H95	H	0.904838	0.391929	0.913221
	H96	H	0.405586	0.120446	0.582783
	H97	H	0.567433	0.895199	0.580011
	H98	H	0.583722	0.120757	0.397867
	H99	H	0.410974	0.891260	0.401520
	H100	H	0.594200	0.415285	0.110182
	H101	H	0.593538	0.602536	0.874699
	H102	H	0.407620	0.603782	0.108728
	H103	H	0.403306	0.412987	0.877443
	H104	H	0.110300	0.596916	0.404966
	H105	H	0.879690	0.588724	0.581473
	H106	H	0.113584	0.412617	0.578497
	H107	H	0.875905	0.409639	0.407339
	H108	H	0.901187	0.623855	0.091611
	H109	H	0.082146	0.387980	0.091653
	H110	H	0.080365	0.620288	0.893781
	H111	H	0.892083	0.383533	0.896398
	H112	H	0.080540	0.907060	0.608914
	H113	H	0.088850	0.100155	0.377314
	H114	H	0.913126	0.097665	0.606154
	H115	H	0.908951	0.898770	0.374565
	H116	H	0.612196	0.094321	0.897730
	H117	H	0.375489	0.090066	0.092131
	H118	H	0.616655	0.903331	0.085142
	H119	H	0.376109	0.911002	0.901391
	C120	C	0.371885	0.013815	0.616227
	C121	C	0.614800	0.996733	0.614330
	C122	C	0.616135	0.013638	0.370314
	C123	C	0.373418	0.996280	0.371560
	C124	C	0.615590	0.383679	0.000582
	C125	C	0.618102	0.628929	0.983768
	C126	C	0.374167	0.626527	0.000351
	C127	C	0.372086	0.381588	0.984329
	C128	C	0.002919	0.627550	0.370519
	C129	C	0.985791	0.625439	0.613282
	C130	C	0.004835	0.383934	0.613983
	C131	C	0.985798	0.384997	0.372063
	C132	C	0.872383	0.513709	0.115681
	C133	C	0.115387	0.496995	0.114221
	C134	C	0.117862	0.513326	0.869209
	C135	C	0.875103	0.496360	0.871601
	C136	C	0.114567	0.884016	0.501204
	C137	C	0.117226	0.129053	0.484214
	C138	C	0.873561	0.126565	0.501337
	C139	C	0.871258	0.882008	0.483399
	C140	C	0.503558	0.126571	0.870913
	C141	C	0.485932	0.124862	0.113833
	C142	C	0.504126	0.882763	0.114846
	C143	C	0.485572	0.884377	0.872278
	C144	C	0.370679	0.891173	0.672851
	C145	C	0.615078	0.119495	0.668988
	C146	C	0.614186	0.890496	0.315605
	C147	C	0.374262	0.118445	0.313524
	C148	C	0.672293	0.387419	0.877612
	C149	C	0.671054	0.623910	0.107317
	C150	C	0.320463	0.623551	0.877267
	C151	C	0.315774	0.384456	0.107459
	C152	C	0.877703	0.680540	0.374201
	C153	C	0.109992	0.682461	0.609395
	C154	C	0.880116	0.327446	0.613959
	C155	C	0.110666	0.330901	0.372216
	C156	C	0.880815	0.383565	0.671926
	C157	C	0.110533	0.626173	0.667002
	C158	C	0.878236	0.624675	0.316228
	C159	C	0.110371	0.387787	0.315241
	C160	C	0.376743	0.683059	0.877957
	C161	C	0.615450	0.683518	0.106551
	C162	C	0.616116	0.328048	0.878233
	C163	C	0.371780	0.325019	0.106697
	C164	C	0.669561	0.889762	0.374892
	C165	C	0.671012	0.120095	0.609881
	C166	C	0.315052	0.890764	0.613416
	C167	C	0.320536	0.120176	0.374408
	C168	C	0.872263	0.390876	0.172233
	C169	C	0.114510	0.620846	0.167416
	C170	C	0.116709	0.390811	0.813497
	C171	C	0.877788	0.619604	0.815328
	C172	C	0.171158	0.888486	0.378155
	C173	C	0.171367	0.125129	0.607079
	C174	C	0.820048	0.123288	0.377934
	C175	C	0.815691	0.884797	0.606766
	C176	C	0.378834	0.180611	0.874295
	C177	C	0.610091	0.182017	0.110791
	C178	C	0.379443	0.826660	0.113173
	C179	C	0.611105	0.831919	0.874033
	C180	C	0.379419	0.882405	0.171289
	C181	C	0.610732	0.123852	0.166959
	C182	C	0.379088	0.124525	0.816676
	C183	C	0.610116	0.887207	0.815590
	C184	C	0.875606	0.183365	0.378924
	C185	C	0.115215	0.184058	0.606801
	C186	C	0.114335	0.829609	0.378220
	C187	C	0.871863	0.825941	0.606205
	C188	C	0.171584	0.389634	0.873273
	C189	C	0.170827	0.621124	0.108325
	C190	C	0.815943	0.390209	0.113123
	C191	C	0.823081	0.620739	0.875574
	C192	C	0.396295	0.099831	0.593690
	C193	C	0.591058	0.910470	0.593156
	C194	C	0.594250	0.099639	0.391315
	C195	C	0.395080	0.910459	0.394311
	C196	C	0.591811	0.405299	0.086016
	C197	C	0.597140	0.608219	0.897599
	C198	C	0.395901	0.604174	0.086176
	C199	C	0.395964	0.404348	0.898838
	C200	C	0.090125	0.606072	0.391709
	C201	C	0.898710	0.601922	0.592441
	C202	C	0.091506	0.407678	0.590000
	C203	C	0.898802	0.406354	0.395032
	C204	C	0.895692	0.599996	0.093505
	C205	C	0.092134	0.410711	0.093644
	C206	C	0.095759	0.599382	0.890610
	C207	C	0.897040	0.410381	0.894196
	C208	C	0.091316	0.904866	0.586987
	C209	C	0.095271	0.107126	0.398820
	C210	C	0.895495	0.104194	0.587018
	C211	C	0.894145	0.903955	0.397556
	C212	C	0.590392	0.104179	0.892798
	C213	C	0.399008	0.100969	0.091992
	C214	C	0.591110	0.906347	0.092166
	C215	C	0.398577	0.905480	0.895267
	Zn216	Zn	0.493979	0.005147	0.744075
	Zn217	Zn	0.494696	0.004111	0.242119
	Zn218	Zn	0.745531	0.505691	-0.007620
	Zn219	Zn	0.244432	0.504419	-0.007758
	Zn220	Zn	-0.006902	0.754136	0.492089
	Zn221	Zn	-0.004796	0.257039	0.492728
	Zn222	Zn	-0.003674	0.505190	0.741351
	Zn223	Zn	-0.005723	0.505993	0.244241
	Zn224	Zn	0.495555	0.756992	-0.007475
	Zn225	Zn	0.494189	0.253026	-0.007696
	Zn226	Zn	0.743777	0.004983	0.492582
	Zn227	Zn	0.245047	0.006232	0.493121
	N228	N	0.405261	0.968828	0.674849
	N229	N	0.580887	0.041504	0.671707
	N230	N	0.581846	0.968402	0.312503
	N231	N	0.406377	0.040239	0.311466
	N232	N	0.672093	0.421519	0.954686
	N233	N	0.672983	0.590724	0.029955
	N234	N	0.318666	0.589154	0.954418
	N235	N	0.316146	0.419109	0.030390
	N236	N	0.956202	0.682554	0.406982
	N237	N	0.031277	0.682272	0.576789
	N238	N	0.958169	0.327668	0.578585
	N239	N	0.032248	0.328970	0.406870
	N240	N	0.959471	0.417860	0.672145
	N241	N	0.032346	0.591046	0.669099
	N242	N	0.957317	0.592541	0.313680
	N243	N	0.031686	0.420568	0.314882
	N244	N	0.409582	0.684882	0.955631
	N245	N	0.583463	0.686898	0.028657
	N246	N	0.581418	0.325659	0.955538
	N247	N	0.405924	0.322894	0.029018
	N248	N	0.671168	0.967355	0.408182
	N249	N	0.671034	0.042533	0.576797
	N250	N	0.316010	0.967991	0.578682
	N251	N	0.319799	0.043234	0.409731
	N252	N	0.906498	0.468759	0.173927
	N253	N	0.080973	0.542705	0.171331
	N254	N	0.084226	0.468919	0.810889
	N255	N	0.909501	0.541272	0.812759
	N256	N	0.171667	0.921592	0.455583
	N257	N	0.172908	0.091597	0.530034
	N258	N	0.818492	0.088789	0.455016
	N259	N	0.814910	0.918789	0.529408
	N260	N	0.457446	0.182202	0.907003
	N261	N	0.531327	0.182662	0.078447
	N262	N	0.458003	0.826688	0.078892
	N263	N	0.532668	0.829901	0.908449
	N264	N	0.458077	0.916653	0.172504
	N265	N	0.532416	0.089080	0.169070
	N266	N	0.457735	0.091720	0.814375
	N267	N	0.531157	0.919095	0.814364
	N268	N	0.908125	0.185562	0.456684
	N269	N	0.082484	0.186640	0.529271
	N270	N	0.079958	0.826681	0.455627
	N271	N	0.905699	0.824281	0.528545
	N272	N	0.172673	0.466840	0.907103
	N273	N	0.171431	0.543123	0.075895
	N274	N	0.815850	0.467670	0.078679
	N275	N	0.821106	0.543177	0.909814
	O276	O	-0.021717	0.008960	0.004775
	H277	H	-0.030237	0.014669	0.007547
	H278	H	-0.018329	0.016276	0.012923
	O279	O	0.468433	0.575983	0.539165
	H280	H	0.469099	0.568528	0.539838
	H281	H	0.455860	0.575674	0.540341
	O282	O	0.482860	0.560330	0.409385
	H283	H	0.481000	0.552051	0.416066
	H284	H	0.463621	0.552805	0.411858
	O285	O	0.027341	1.102673	1.038619
	H286	H	0.036229	1.097251	1.039068
	H287	H	0.033902	1.104201	1.038631
	O288	O	0.432947	0.559043	0.409025
	H289	H	0.426984	0.552043	0.409955
	H290	H	0.431060	0.542192	0.414671
	O291	O	1.040738	1.003635	1.042285
	H292	H	1.044183	1.012029	1.037665
	H293	H	1.053107	1.007028	1.054489
	O294	O	0.999757	0.963437	1.005483
	H295	H	0.991429	0.958451	0.993067
	H296	H	0.985580	0.953419	1.002233
	O297	O	0.873756	-0.049290	0.966236
	H298	H	0.876281	-0.049853	0.983131
	H299	H	0.855590	-0.049281	0.969875
	O300	O	0.584958	0.444887	0.419071
	H301	H	0.599419	0.443835	0.412747
	H302	H	0.584701	0.451357	0.409532
	O303	O	1.025481	0.048381	-0.069349
	H304	H	1.033528	0.056174	-0.065798
	H305	H	1.031864	0.056766	-0.074281
	O306	O	-0.040392	0.939208	0.989810
	H307	H	-0.050866	0.936816	0.995899
	H308	H	-0.044235	0.949033	0.984312
	O309	O	0.395893	0.418251	0.541201
	H310	H	0.393651	0.419427	0.541971
	H311	H	0.407370	0.404229	0.541704
	O312	O	1.036669	0.073774	1.010674
	H313	H	1.023179	0.080238	1.008119
	H314	H	1.042529	0.084363	1.023753
	O315	O	0.477783	0.527763	0.626697
	H316	H	0.477016	0.540743	0.633495
	H317	H	0.490516	0.533851	0.629571
	O318	O	0.512058	0.524999	0.496745
	H319	H	0.520123	0.528614	0.471124
	H320	H	0.510023	0.534417	0.487107
	O321	O	0.997299	0.971173	1.079289
	H322	H	0.998601	0.966926	1.075659
	H323	H	0.989872	0.978466	1.079465
	O324	O	0.549070	0.445635	0.551424
	H325	H	0.549809	0.445699	0.552693
	H326	H	0.558603	0.445192	0.561156
	O327	O	0.605176	0.472213	0.374573
	H328	H	0.610795	0.477729	0.375811
	H329	H	0.599729	0.466476	0.375323
	O330	O	1.008516	-0.001816	1.013819
	H331	H	1.011104	-0.016875	1.003751
	H332	H	1.003330	-0.007713	1.015450
	O333	O	1.024775	1.019405	-0.006389
	H334	H	1.020122	1.012720	-0.004051
	H335	H	1.017014	1.015722	-0.012373
	O336	O	0.494735	0.515290	0.631206
	H337	H	0.495915	0.528640	0.624302
	H338	H	0.499286	0.524788	0.637097
	O339	O	0.597031	0.452024	0.491030
	H340	H	0.600396	0.451097	0.499726
	H341	H	0.593173	0.456515	0.475454
	O342	O	0.365423	0.573344	0.587334
	H343	H	0.363740	0.570753	0.579684
	H344	H	0.356826	0.558359	0.589108
	O345	O	0.068755	0.064369	0.038802
	H346	H	0.073069	0.065394	0.039515
	H347	H	0.068182	0.065343	0.038280
	O348	O	0.567877	0.604197	0.466513
	H349	H	0.555839	0.593143	0.468246
	H350	H	0.575234	0.617513	0.471948
	O351	O	0.375587	0.525426	0.373793
	H352	H	0.367811	0.523909	0.380685
	H353	H	0.358739	0.514704	0.384414
	O354	O	0.443565	0.488643	0.474650
	H355	H	0.446936	0.491265	0.490373
	H356	H	0.450100	0.485914	0.472792
	O357	O	0.533698	0.486342	0.443202
	H358	H	0.524425	0.492064	0.430133
	H359	H	0.534211	0.486414	0.439389
	O360	O	-0.116376	-0.072556	0.060483
	H361	H	-0.128138	-0.075316	0.067493
	H362	H	-0.109864	-0.088478	0.067570
	O363	O	0.489868	0.425372	0.493231
	H364	H	0.487188	0.423132	0.492801
	H365	H	0.492886	0.441906	0.477086
	O366	O	0.031574	-0.000946	0.991831
	H367	H	0.037147	-0.011626	0.989868
	H368	H	0.040136	0.008353	0.990485
	O369	O	0.450321	0.376214	0.492331
	H370	H	0.454798	0.377158	0.514450
	H371	H	0.444318	0.370935	0.503422
