data_Molecule from HDF5

_cell_length_a		16.292502
_cell_length_b		16.273358
_cell_length_c		16.280801
_cell_angle_alpha	90.107180
_cell_angle_beta	90.006810
_cell_angle_gamma	90.086184
_symmetry_space_group_name_H-M	'P 1'
_symmetry_Int_Tables_number		1

loop_
	_symmetry_equiv_pos_as_xyz
	x,y,z

loop_
	_atom_site_label
	_atom_site_type_symbol
	_atom_site_fract_x
	_atom_site_fract_y
	_atom_site_fract_z
	H0	H	0.404248	0.828620	0.705745
	H1	H	0.600247	0.156677	0.706387
	H2	H	0.599872	0.828545	0.279000
	H3	H	0.405095	0.156812	0.278126
	H4	H	0.716257	0.394389	0.829006
	H5	H	0.716705	0.591427	0.155835
	H6	H	0.288365	0.590949	0.828609
	H7	H	0.287780	0.395234	0.155802
	H8	H	0.839220	0.706885	0.394279
	H9	H	0.166923	0.706622	0.590475
	H10	H	0.838807	0.279976	0.588418
	H11	H	0.166507	0.278770	0.395761
	H12	H	0.838283	0.396582	0.704112
	H13	H	0.166482	0.590613	0.706511
	H14	H	0.838511	0.589779	0.279157
	H15	H	0.166850	0.394174	0.277817
	H16	H	0.405622	0.705235	0.828346
	H17	H	0.600927	0.707201	0.156235
	H18	H	0.599132	0.278665	0.828444
	H19	H	0.403292	0.278338	0.156260
	H20	H	0.716561	0.828631	0.394130
	H21	H	0.715828	0.156936	0.589443
	H22	H	0.287855	0.829572	0.590291
	H23	H	0.288276	0.156734	0.393628
	H24	H	0.903709	0.328891	0.205269
	H25	H	0.100300	0.657164	0.207233
	H26	H	0.099697	0.328810	0.777988
	H27	H	0.905187	0.656816	0.779151
	H28	H	0.216483	0.893642	0.328733
	H29	H	0.219463	0.093775	0.655564
	H30	H	0.788869	0.089944	0.329076
	H31	H	0.787913	0.894173	0.656476
	H32	H	0.338099	0.205096	0.895121
	H33	H	0.666270	0.208045	0.090919
	H34	H	0.339196	0.777677	0.090681
	H35	H	0.666513	0.779408	0.894595
	H36	H	0.339557	0.893803	0.207036
	H37	H	0.667210	0.091506	0.206450
	H38	H	0.339148	0.090760	0.778054
	H39	H	0.666038	0.894584	0.778383
	H40	H	0.904846	0.205553	0.328645
	H41	H	0.101385	0.206982	0.656622
	H42	H	0.100943	0.778082	0.329055
	H43	H	0.905327	0.779252	0.656673
	H44	H	0.215984	0.329028	0.893138
	H45	H	0.216827	0.656587	0.091323
	H46	H	0.788422	0.329033	0.089434
	H47	H	0.788728	0.656823	0.895120
	H48	H	0.419098	0.108446	0.592561
	H49	H	0.594901	0.877600	0.581611
	H50	H	0.595604	0.109845	0.393869
	H51	H	0.402452	0.875744	0.402914
	H52	H	0.598429	0.405080	0.108545
	H53	H	0.589650	0.588289	0.876946
	H54	H	0.410133	0.587521	0.108689
	H55	H	0.398332	0.403031	0.873522
	H56	H	0.118023	0.584071	0.399356
	H57	H	0.886599	0.583063	0.589637
	H58	H	0.117142	0.399386	0.578546
	H59	H	0.889276	0.405637	0.401307
	H60	H	0.119477	0.406571	0.590518
	H61	H	0.884620	0.590743	0.587143
	H62	H	0.119454	0.585604	0.398282
	H63	H	0.883800	0.397639	0.390673
	H64	H	0.406767	0.586337	0.110652
	H65	H	0.600020	0.590005	0.873614
	H66	H	0.588588	0.400292	0.106757
	H67	H	0.416072	0.403305	0.879956
	H68	H	0.593432	0.107914	0.403057
	H69	H	0.601010	0.874292	0.586325
	H70	H	0.411045	0.105982	0.574264
	H71	H	0.410189	0.874166	0.391995
	H72	H	0.912381	0.609115	0.086462
	H73	H	0.103227	0.374902	0.083193
	H74	H	0.084867	0.604504	0.904674
	H75	H	0.912608	0.377329	0.898790
	H76	H	0.096546	0.885761	0.613738
	H77	H	0.101824	0.084812	0.375285
	H78	H	0.900536	0.089596	0.612895
	H79	H	0.905470	0.900514	0.375485
	H80	H	0.616412	0.080801	0.903280
	H81	H	0.384188	0.086521	0.093720
	H82	H	0.618054	0.895996	0.078743
	H83	H	0.382809	0.896789	0.890489
	H84	H	0.617570	0.906826	0.085292
	H85	H	0.387158	0.090868	0.079138
	H86	H	0.620707	0.084583	0.891715
	H87	H	0.385750	0.892491	0.905022
	H88	H	0.909790	0.077877	0.607969
	H89	H	0.092319	0.079261	0.379342
	H90	H	0.108297	0.909138	0.609705
	H91	H	0.912330	0.901077	0.378101
	H92	H	0.106725	0.610572	0.905871
	H93	H	0.091646	0.374992	0.093202
	H94	H	0.907630	0.609774	0.083310
	H95	H	0.905890	0.376015	0.901514
	H96	H	0.400384	0.113252	0.588962
	H97	H	0.593816	0.875264	0.590091
	H98	H	0.601739	0.110906	0.400287
	H99	H	0.415304	0.879252	0.403116
	H100	H	0.597160	0.394338	0.111705
	H101	H	0.597102	0.579695	0.876393
	H102	H	0.409657	0.584411	0.108566
	H103	H	0.409012	0.387859	0.872899
	H104	H	0.119423	0.585892	0.400365
	H105	H	0.887226	0.585516	0.582061
	H106	H	0.122978	0.392988	0.590153
	H107	H	0.885842	0.391923	0.404036
	H108	H	0.907494	0.610493	0.088881
	H109	H	0.089879	0.379470	0.079104
	H110	H	0.095475	0.613311	0.886608
	H111	H	0.907647	0.374668	0.894355
	H112	H	0.082575	0.905781	0.603602
	H113	H	0.091618	0.091353	0.375087
	H114	H	0.915338	0.092600	0.609071
	H115	H	0.910362	0.895382	0.375089
	H116	H	0.620489	0.093552	0.901943
	H117	H	0.389900	0.076165	0.083710
	H118	H	0.621445	0.896910	0.091767
	H119	H	0.388250	0.907491	0.900520
	C120	C	0.381619	0.000784	0.613251
	C121	C	0.624406	0.984255	0.614144
	C122	C	0.624550	0.001194	0.371219
	C123	C	0.381169	0.984589	0.370783
	C124	C	0.623186	0.371521	0.000788
	C125	C	0.624166	0.614531	0.983545
	C126	C	0.380914	0.614190	0.000854
	C127	C	0.379776	0.370353	0.983908
	C128	C	0.010725	0.613802	0.371065
	C129	C	0.994581	0.614508	0.614508
	C130	C	0.011380	0.371379	0.614001
	C131	C	0.994307	0.370504	0.370318
	C132	C	0.880773	0.501391	0.113805
	C133	C	0.123503	0.484805	0.113995
	C134	C	0.123498	0.501146	0.870817
	C135	C	0.880657	0.484325	0.870811
	C136	C	0.124107	0.871288	0.500652
	C137	C	0.124130	0.114068	0.484682
	C138	C	0.880760	0.114020	0.501588
	C139	C	0.881000	0.870817	0.484459
	C140	C	0.510892	0.114159	0.870761
	C141	C	0.494940	0.113952	0.114243
	C142	C	0.511183	0.870928	0.114132
	C143	C	0.494223	0.870829	0.870602
	C144	C	0.383827	0.877785	0.668321
	C145	C	0.621231	0.107764	0.668987
	C146	C	0.621219	0.877457	0.316351
	C147	C	0.383859	0.107951	0.315760
	C148	C	0.678443	0.373674	0.877823
	C149	C	0.678876	0.612030	0.107124
	C150	C	0.326441	0.610892	0.877375
	C151	C	0.325063	0.373643	0.106961
	C152	C	0.887658	0.668460	0.374305
	C153	C	0.117926	0.668961	0.611026
	C154	C	0.887889	0.316771	0.610420
	C155	C	0.117653	0.316129	0.373955
	C156	C	0.887558	0.374772	0.667628
	C157	C	0.117564	0.611808	0.669327
	C158	C	0.887466	0.610914	0.316654
	C159	C	0.117644	0.373631	0.315533
	C160	C	0.384202	0.668242	0.877398
	C161	C	0.621293	0.669297	0.107278
	C162	C	0.620149	0.316457	0.877469
	C163	C	0.382949	0.316133	0.107291
	C164	C	0.678859	0.877431	0.373880
	C165	C	0.678583	0.107932	0.610752
	C166	C	0.325986	0.878091	0.610944
	C167	C	0.326273	0.107960	0.373432
	C168	C	0.883203	0.377892	0.168010
	C169	C	0.121105	0.607951	0.169585
	C170	C	0.120643	0.377629	0.815797
	C171	C	0.884348	0.607913	0.816660
	C172	C	0.179252	0.873037	0.377836
	C173	C	0.180067	0.112534	0.607356
	C174	C	0.826584	0.110746	0.377998
	C175	C	0.825989	0.873787	0.607637
	C176	C	0.387389	0.168177	0.874041
	C177	C	0.617598	0.169899	0.111594
	C178	C	0.388228	0.815413	0.111704
	C179	C	0.617417	0.816774	0.874006
	C180	C	0.388437	0.873226	0.169407
	C181	C	0.618075	0.111793	0.168919
	C182	C	0.387775	0.111261	0.815926
	C183	C	0.617326	0.874321	0.816294
	C184	C	0.884322	0.168032	0.377652
	C185	C	0.121836	0.169224	0.607695
	C186	C	0.121654	0.815711	0.377866
	C187	C	0.884192	0.816766	0.607928
	C188	C	0.178388	0.377916	0.873155
	C189	C	0.178679	0.608002	0.111858
	C190	C	0.825896	0.377956	0.110350
	C191	C	0.826632	0.607935	0.874268
	C192	C	0.403684	0.087113	0.591692
	C193	C	0.602917	0.897990	0.592418
	C194	C	0.603190	0.087182	0.392625
	C195	C	0.402859	0.898630	0.392751
	C196	C	0.601315	0.393518	0.086892
	C197	C	0.602332	0.592384	0.897779
	C198	C	0.402474	0.592455	0.087036
	C199	C	0.401380	0.391705	0.897553
	C200	C	0.096677	0.591732	0.392919
	C201	C	0.908348	0.592846	0.592726
	C202	C	0.097506	0.393081	0.592737
	C203	C	0.908383	0.392021	0.392190
	C204	C	0.902650	0.587709	0.092386
	C205	C	0.101375	0.398664	0.091748
	C206	C	0.101920	0.587289	0.892507
	C207	C	0.902222	0.398291	0.892059
	C208	C	0.102226	0.893584	0.586897
	C209	C	0.101763	0.091707	0.398686
	C210	C	0.902331	0.092959	0.587768
	C211	C	0.902945	0.892533	0.398378
	C212	C	0.597078	0.092663	0.892482
	C213	C	0.409158	0.091169	0.092031
	C214	C	0.596992	0.893174	0.091699
	C215	C	0.407808	0.892491	0.892243
	Zn216	Zn	0.502409	-0.007153	0.742280
	Zn217	Zn	0.503021	-0.007380	0.242905
	Zn218	Zn	0.752495	0.493068	-0.007345
	Zn219	Zn	0.252133	0.493103	-0.007645
	Zn220	Zn	0.002764	0.742566	0.492628
	Zn221	Zn	0.002778	0.242153	0.492990
	Zn222	Zn	0.002428	0.492770	0.742370
	Zn223	Zn	0.002102	0.492894	0.242057
	Zn224	Zn	0.502631	0.742273	-0.007771
	Zn225	Zn	0.502075	0.242423	-0.007535
	Zn226	Zn	0.752942	-0.007709	0.492612
	Zn227	Zn	0.252216	-0.007081	0.492318
	N228	N	0.417699	0.955298	0.669788
	N229	N	0.588285	0.029834	0.671227
	N230	N	0.588200	0.955149	0.314650
	N231	N	0.417132	0.030286	0.313961
	N232	N	0.680113	0.407443	0.955240
	N233	N	0.680748	0.578554	0.029541
	N234	N	0.324137	0.578155	0.955331
	N235	N	0.323197	0.406575	0.029331
	N236	N	0.965373	0.670618	0.407249
	N237	N	0.040181	0.671006	0.578060
	N238	N	0.965745	0.314634	0.577620
	N239	N	0.040271	0.314081	0.407381
	N240	N	0.965214	0.408062	0.669857
	N241	N	0.040111	0.578407	0.671196
	N242	N	0.964858	0.577402	0.314749
	N243	N	0.039831	0.406357	0.312985
	N244	N	0.417362	0.670319	0.954902
	N245	N	0.588185	0.671204	0.029610
	N246	N	0.586653	0.314793	0.955004
	N247	N	0.416397	0.314184	0.029711
	N248	N	0.681177	0.955185	0.407054
	N249	N	0.680568	0.030301	0.577518
	N250	N	0.324736	0.955541	0.577246
	N251	N	0.324273	0.030311	0.406788
	N252	N	0.916703	0.455475	0.170008
	N253	N	0.087324	0.530283	0.170673
	N254	N	0.087072	0.454953	0.814483
	N255	N	0.917419	0.530179	0.814421
	N256	N	0.180612	0.906976	0.455200
	N257	N	0.181603	0.079075	0.529656
	N258	N	0.824756	0.077689	0.455558
	N259	N	0.824248	0.906741	0.530102
	N260	N	0.464875	0.170020	0.907549
	N261	N	0.540130	0.171196	0.078177
	N262	N	0.465648	0.813784	0.078028
	N263	N	0.539727	0.814655	0.907049
	N264	N	0.465731	0.906950	0.170964
	N265	N	0.540769	0.077837	0.170579
	N266	N	0.465597	0.078491	0.813692
	N267	N	0.539650	0.907145	0.813970
	N268	N	0.917450	0.170428	0.455572
	N269	N	0.087615	0.170109	0.530452
	N270	N	0.088022	0.814544	0.455367
	N271	N	0.917512	0.814524	0.530332
	N272	N	0.180491	0.455758	0.906585
	N273	N	0.180453	0.530477	0.078122
	N274	N	0.824383	0.455803	0.077350
	N275	N	0.824204	0.530171	0.907148
	O276	O	1.023739	0.005460	1.094755
	H277	H	1.030206	0.017242	1.090155
	H278	H	1.027325	0.004100	1.089463
	O279	O	0.014420	0.995530	1.056068
	H280	H	0.019793	0.988554	1.058552
	H281	H	0.008808	0.992490	1.057493
	O282	O	1.033524	1.040558	0.077562
	H283	H	1.031035	1.044680	0.089172
	H284	H	1.028222	1.040701	0.075996
	O285	O	0.055794	1.021481	1.060331
	H286	H	0.061041	1.027263	1.057368
	H287	H	0.051789	1.021590	1.064634
