data_Molecule from HDF5

_cell_length_a		16.584491
_cell_length_b		16.716061
_cell_length_c		16.609784
_cell_angle_alpha	90.005683
_cell_angle_beta	89.914448
_cell_angle_gamma	89.930972
_symmetry_space_group_name_H-M	'P 1'
_symmetry_Int_Tables_number		1

loop_
	_symmetry_equiv_pos_as_xyz
	x,y,z

loop_
	_atom_site_label
	_atom_site_type_symbol
	_atom_site_fract_x
	_atom_site_fract_y
	_atom_site_fract_z
	H0	H	0.390551	0.847151	0.713853
	H1	H	0.595359	0.159365	0.716866
	H2	H	0.597602	0.850508	0.274753
	H3	H	0.386271	0.158913	0.274522
	H4	H	0.714053	0.398781	0.841375
	H5	H	0.714088	0.609078	0.150959
	H6	H	0.276093	0.604636	0.838342
	H7	H	0.271275	0.401275	0.151858
	H8	H	0.836500	0.725846	0.389265
	H9	H	0.146075	0.725717	0.600602
	H10	H	0.835909	0.285228	0.601152
	H11	H	0.147320	0.282670	0.390201
	H12	H	0.835818	0.400465	0.716840
	H13	H	0.147312	0.607511	0.714307
	H14	H	0.836580	0.607885	0.274044
	H15	H	0.147523	0.398661	0.274301
	H16	H	0.389483	0.724103	0.839838
	H17	H	0.600000	0.726284	0.151175
	H18	H	0.598530	0.281253	0.841662
	H19	H	0.385305	0.283195	0.151193
	H20	H	0.712779	0.850102	0.392909
	H21	H	0.712613	0.159708	0.599900
	H22	H	0.272101	0.848155	0.599500
	H23	H	0.268837	0.158472	0.390368
	H24	H	0.882500	0.350755	0.222135
	H25	H	0.098265	0.657224	0.219523
	H26	H	0.098714	0.351154	0.772893
	H27	H	0.881762	0.656235	0.771226
	H28	H	0.213475	0.898687	0.340484
	H29	H	0.211662	0.107299	0.652717
	H30	H	0.772043	0.109937	0.339720
	H31	H	0.775065	0.903843	0.653158
	H32	H	0.335144	0.223318	0.892719
	H33	H	0.645548	0.228872	0.104536
	H34	H	0.336173	0.783715	0.102833
	H35	H	0.648748	0.785146	0.893904
	H36	H	0.336206	0.899619	0.218053
	H37	H	0.646971	0.111444	0.219139
	H38	H	0.336172	0.107688	0.776169
	H39	H	0.647847	0.900630	0.778275
	H40	H	0.886992	0.227046	0.341374
	H41	H	0.097322	0.225322	0.652569
	H42	H	0.098759	0.781409	0.341215
	H43	H	0.884867	0.783132	0.650500
	H44	H	0.216275	0.352098	0.887259
	H45	H	0.212853	0.658987	0.100967
	H46	H	0.766746	0.350253	0.104894
	H47	H	0.766630	0.656621	0.888644
	H48	H	0.405676	0.116487	0.596254
	H49	H	0.588057	0.891915	0.587636
	H50	H	0.585938	0.117932	0.408143
	H51	H	0.408609	0.894104	0.404141
	H52	H	0.577088	0.416649	0.106784
	H53	H	0.580380	0.592266	0.884821
	H54	H	0.398647	0.594633	0.109640
	H55	H	0.401446	0.418049	0.885085
	H56	H	0.103149	0.594900	0.407596
	H57	H	0.883093	0.587059	0.580755
	H58	H	0.104118	0.414771	0.588066
	H59	H	0.879796	0.419753	0.403509
	H60	H	0.105285	0.412495	0.584214
	H61	H	0.875944	0.593801	0.592455
	H62	H	0.102636	0.592405	0.409825
	H63	H	0.879313	0.410643	0.409995
	H64	H	0.403812	0.593297	0.107850
	H65	H	0.578382	0.593478	0.885806
	H66	H	0.577299	0.417229	0.106592
	H67	H	0.406886	0.411184	0.884382
	H68	H	0.578288	0.116371	0.402808
	H69	H	0.582454	0.892074	0.590461
	H70	H	0.407906	0.109544	0.579020
	H71	H	0.401959	0.894761	0.413204
	H72	H	0.903524	0.611731	0.078528
	H73	H	0.079954	0.392799	0.085912
	H74	H	0.079783	0.617312	0.901706
	H75	H	0.902586	0.393414	0.908272
	H76	H	0.081591	0.915275	0.608160
	H77	H	0.075067	0.102227	0.383456
	H78	H	0.900974	0.096682	0.609760
	H79	H	0.903178	0.914201	0.382997
	H80	H	0.603430	0.095511	0.911153
	H81	H	0.380634	0.092783	0.084394
	H82	H	0.605264	0.912229	0.086026
	H83	H	0.378916	0.910532	0.907550
	H84	H	0.602451	0.915109	0.082077
	H85	H	0.381993	0.091586	0.083451
	H86	H	0.602761	0.087957	0.908259
	H87	H	0.379552	0.915800	0.906259
	H88	H	0.902286	0.091582	0.606800
	H89	H	0.089057	0.093000	0.381996
	H90	H	0.077888	0.916366	0.606610
	H91	H	0.903165	0.914845	0.383737
	H92	H	0.078733	0.614899	0.907787
	H93	H	0.078377	0.394662	0.081918
	H94	H	0.900894	0.614982	0.086694
	H95	H	0.903620	0.393234	0.905661
	H96	H	0.391265	0.117035	0.584587
	H97	H	0.583044	0.894439	0.584604
	H98	H	0.578090	0.114118	0.412319
	H99	H	0.398049	0.890743	0.403643
	H100	H	0.577053	0.416392	0.105806
	H101	H	0.580148	0.594230	0.884351
	H102	H	0.402698	0.598779	0.109710
	H103	H	0.398959	0.411141	0.880675
	H104	H	0.103644	0.591645	0.406807
	H105	H	0.877841	0.601357	0.579723
	H106	H	0.103519	0.416995	0.583410
	H107	H	0.884007	0.419629	0.414406
	H108	H	0.909307	0.611159	0.085780
	H109	H	0.082664	0.393105	0.082350
	H110	H	0.084563	0.616672	0.906305
	H111	H	0.905554	0.394232	0.907718
	H112	H	0.078606	0.911879	0.607231
	H113	H	0.075233	0.086584	0.389996
	H114	H	0.906044	0.095742	0.606639
	H115	H	0.903412	0.914522	0.383522
	H116	H	0.604860	0.094041	0.903485
	H117	H	0.380885	0.091175	0.085153
	H118	H	0.603217	0.917154	0.087364
	H119	H	0.377456	0.911993	0.902849
	C120	C	0.370777	0.011557	0.617537
	C121	C	0.614600	0.995843	0.618516
	C122	C	0.613268	0.013397	0.375691
	C123	C	0.370085	0.995433	0.374726
	C124	C	0.611469	0.383207	0.004318
	C125	C	0.612928	0.625271	0.987781
	C126	C	0.371343	0.625666	0.004639
	C127	C	0.370045	0.382646	0.986611
	C128	C	-0.000023	0.624857	0.375040
	C129	C	0.982418	0.625536	0.616012
	C130	C	0.001056	0.383235	0.617690
	C131	C	0.983355	0.383455	0.375683
	C132	C	0.870176	0.511418	0.117669
	C133	C	0.112639	0.495699	0.116406
	C134	C	0.113794	0.514173	0.872932
	C135	C	0.870097	0.495033	0.873985
	C136	C	0.112293	0.882853	0.504326
	C137	C	0.112286	0.125623	0.488256
	C138	C	0.870750	0.126814	0.504832
	C139	C	0.870817	0.883254	0.486718
	C140	C	0.500502	0.124494	0.875570
	C141	C	0.483724	0.125219	0.117570
	C142	C	0.500866	0.882904	0.118027
	C143	C	0.482761	0.882229	0.875157
	C144	C	0.370785	0.894180	0.675208
	C145	C	0.614529	0.112999	0.676991
	C146	C	0.615701	0.896833	0.315472
	C147	C	0.367803	0.112477	0.314918
	C148	C	0.673121	0.380426	0.887715
	C149	C	0.673878	0.627484	0.104506
	C150	C	0.314716	0.624960	0.885845
	C151	C	0.310879	0.382242	0.104599
	C152	C	0.883043	0.685351	0.371575
	C153	C	0.099620	0.685061	0.618370
	C154	C	0.882985	0.324702	0.619351
	C155	C	0.100578	0.322937	0.372297
	C156	C	0.882918	0.382122	0.676961
	C157	C	0.100283	0.626518	0.674912
	C158	C	0.883065	0.627060	0.314411
	C159	C	0.100589	0.380268	0.314443
	C160	C	0.370975	0.684014	0.886659
	C161	C	0.617089	0.685773	0.104493
	C162	C	0.615837	0.322190	0.887735
	C163	C	0.367657	0.323661	0.104397
	C164	C	0.672876	0.896469	0.373998
	C165	C	0.672504	0.113291	0.618982
	C166	C	0.312127	0.894754	0.617968
	C167	C	0.309614	0.112153	0.372580
	C168	C	0.865458	0.396472	0.180449
	C169	C	0.116041	0.611451	0.178385
	C170	C	0.116941	0.397993	0.812573
	C171	C	0.864622	0.610364	0.812152
	C172	C	0.172773	0.880694	0.387130
	C173	C	0.171793	0.126454	0.605863
	C174	C	0.811510	0.128610	0.387133
	C175	C	0.812790	0.883573	0.605117
	C176	C	0.382196	0.183412	0.874049
	C177	C	0.599748	0.187066	0.121471
	C178	C	0.383504	0.823229	0.120964
	C179	C	0.601249	0.824486	0.875038
	C180	C	0.383467	0.880959	0.178368
	C181	C	0.600106	0.129191	0.178907
	C182	C	0.382740	0.125984	0.816302
	C183	C	0.601128	0.882009	0.817592
	C184	C	0.868436	0.186961	0.387868
	C185	C	0.115140	0.185222	0.605682
	C186	C	0.116049	0.822202	0.387488
	C187	C	0.867747	0.823587	0.603936
	C188	C	0.175257	0.398298	0.869636
	C189	C	0.172998	0.612178	0.119526
	C190	C	0.807686	0.396359	0.122500
	C191	C	0.807420	0.610483	0.870429
	C192	C	0.394888	0.093216	0.593489
	C193	C	0.591326	0.914109	0.594580
	C194	C	0.588030	0.094844	0.400708
	C195	C	0.395643	0.914455	0.399722
	C196	C	0.584752	0.409231	0.085278
	C197	C	0.587114	0.600443	0.906156
	C198	C	0.394734	0.602163	0.087596
	C199	C	0.395229	0.406481	0.904547
	C200	C	0.081978	0.599926	0.400687
	C201	C	0.900327	0.601106	0.591227
	C202	C	0.083037	0.407680	0.592529
	C203	C	0.902257	0.409288	0.401844
	C204	C	0.896969	0.591713	0.091087
	C205	C	0.087413	0.414668	0.090744
	C206	C	0.088164	0.595228	0.898184
	C207	C	0.896570	0.414516	0.899825
	C208	C	0.086652	0.907537	0.585954
	C209	C	0.086954	0.101014	0.406471
	C210	C	0.895992	0.101798	0.586551
	C211	C	0.895964	0.907510	0.404612
	C212	C	0.582172	0.099523	0.900580
	C213	C	0.402314	0.099218	0.091589
	C214	C	0.582559	0.907810	0.092334
	C215	C	0.400164	0.905908	0.898794
	Zn216	Zn	0.491944	0.003589	0.747107
	Zn217	Zn	0.492140	0.004639	0.246440
	Zn218	Zn	0.741304	0.503345	-0.003770
	Zn219	Zn	0.241663	0.504827	-0.004686
	Zn220	Zn	-0.008451	0.754511	0.495384
	Zn221	Zn	-0.007773	0.254826	0.496486
	Zn222	Zn	-0.008779	0.505163	0.745286
	Zn223	Zn	-0.008301	0.503419	0.246381
	Zn224	Zn	0.492470	0.754431	-0.002867
	Zn225	Zn	0.491262	0.253647	-0.004027
	Zn226	Zn	0.743040	0.005328	0.495827
	Zn227	Zn	0.240973	0.003708	0.496449
	N228	N	0.406790	0.967949	0.675056
	N229	N	0.579471	0.038880	0.677044
	N230	N	0.579480	0.970621	0.316243
	N231	N	0.404621	0.038834	0.315925
	N232	N	0.670534	0.417717	0.961226
	N233	N	0.671510	0.590578	0.030737
	N234	N	0.314597	0.589688	0.960447
	N235	N	0.312039	0.418243	0.030221
	N236	N	0.956950	0.684207	0.408518
	N237	N	0.025240	0.684648	0.582611
	N238	N	0.957512	0.325125	0.583213
	N239	N	0.026757	0.324773	0.409676
	N240	N	0.957439	0.417637	0.676269
	N241	N	0.026136	0.590269	0.673770
	N242	N	0.956925	0.590214	0.316517
	N243	N	0.026812	0.417303	0.316392
	N244	N	0.405285	0.685010	0.961924
	N245	N	0.579967	0.684745	0.030740
	N246	N	0.578306	0.323739	0.961253
	N247	N	0.403542	0.323494	0.029930
	N248	N	0.671604	0.970142	0.410516
	N249	N	0.672970	0.039344	0.583377
	N250	N	0.312083	0.968850	0.582890
	N251	N	0.310600	0.038486	0.408836
	N252	N	0.903898	0.468958	0.177386
	N253	N	0.079312	0.537958	0.176754
	N254	N	0.079520	0.471135	0.814304
	N255	N	0.903026	0.537626	0.814352
	N256	N	0.170677	0.917582	0.460848
	N257	N	0.170528	0.090147	0.531595
	N258	N	0.812468	0.092106	0.461150
	N259	N	0.814288	0.919918	0.531062
	N260	N	0.456671	0.183111	0.909883
	N261	N	0.526185	0.184757	0.084058
	N262	N	0.457568	0.824086	0.084270
	N263	N	0.526587	0.824290	0.909910
	N264	N	0.457685	0.917345	0.176905
	N265	N	0.526688	0.091454	0.176634
	N266	N	0.457333	0.090309	0.816847
	N267	N	0.526287	0.917283	0.817334
	N268	N	0.904315	0.186184	0.462235
	N269	N	0.079160	0.184984	0.531361
	N270	N	0.079090	0.823292	0.461471
	N271	N	0.902898	0.822859	0.528972
	N272	N	0.173514	0.471685	0.906682
	N273	N	0.171230	0.539173	0.081820
	N274	N	0.810470	0.469050	0.084063
	N275	N	0.810405	0.537676	0.908283
	O276	O	0.304548	1.315475	0.309868
	H277	H	0.327103	1.333605	0.322277
	H278	H	0.320583	1.330920	0.333664
	O279	O	0.112248	-0.205212	0.113646
	H280	H	0.093775	-0.202762	0.106576
	H281	H	0.112193	-0.183519	0.101173
	O282	O	0.782656	0.159940	1.101731
	H283	H	0.786269	0.149572	1.092048
	H284	H	0.781255	0.176295	1.098625
	O285	O	0.431830	0.447587	0.266213
	H286	H	0.445842	0.439746	0.279866
	H287	H	0.410728	0.461975	0.267448
	O288	O	0.944030	0.786357	0.135325
	H289	H	0.958302	0.779705	0.131032
	H290	H	0.955507	0.791492	0.126952
	O291	O	0.273722	0.528897	0.278083
	H292	H	0.263783	0.536997	0.271622
	H293	H	0.267465	0.550767	0.267389
	O294	O	0.775481	-0.028420	1.178622
	H295	H	0.769620	-0.035125	1.168862
	H296	H	0.759148	-0.036042	1.179534
	O297	O	1.065491	0.234514	-0.062609
	H298	H	1.068519	0.236049	-0.049564
	H299	H	1.067224	0.231235	-0.045072
	O300	O	0.212222	0.231102	1.028474
	H301	H	0.204126	0.224134	1.073107
	H302	H	0.245472	0.263076	1.033368
	O303	O	0.476485	0.703677	0.531629
	H304	H	0.497600	0.712171	0.528006
	H305	H	0.486601	0.708058	0.554772
	O306	O	0.474138	0.276793	0.410671
	H307	H	0.469180	0.279074	0.414656
	H308	H	0.465952	0.277042	0.431613
	O309	O	0.429550	0.347946	0.505695
	H310	H	0.433449	0.352508	0.520225
	H311	H	0.419261	0.355900	0.505507
	O312	O	0.343554	0.665456	0.319069
	H313	H	0.353992	0.661453	0.336194
	H314	H	0.319909	0.695918	0.302095
	O315	O	1.039952	0.943782	0.893244
	H316	H	1.025841	0.947879	0.888672
	H317	H	1.030260	0.931071	0.890311
	O318	O	0.711597	0.725402	0.532360
	H319	H	0.726822	0.729664	0.521275
	H320	H	0.726151	0.719543	0.513016
	O321	O	0.385346	0.534360	0.713656
	H322	H	0.397949	0.539787	0.716290
	H323	H	0.360712	0.525541	0.711163
	O324	O	1.010137	0.774279	-0.227983
	H325	H	1.037757	0.757346	-0.245270
	H326	H	1.030130	0.781790	-0.239603
	O327	O	0.188900	0.040121	1.216655
	H328	H	0.187595	0.041027	1.222969
	H329	H	0.194912	0.044022	1.225110
	O330	O	0.712814	0.576471	0.449142
	H331	H	0.710501	0.565579	0.450656
	H332	H	0.703148	0.575175	0.435143
	O333	O	0.699410	0.471822	0.289562
	H334	H	0.706205	0.484169	0.277824
	H335	H	0.679261	0.485254	0.278120
	O336	O	0.441795	0.525064	0.452690
	H337	H	0.454057	0.531300	0.449552
	H338	H	0.441223	0.533891	0.457862
	O339	O	1.202260	-0.214352	0.784022
	H340	H	1.219619	-0.226987	0.782823
	H341	H	1.221134	-0.231416	0.800225
	O342	O	0.212783	-0.061733	0.068754
	H343	H	0.214071	-0.047518	0.078289
	H344	H	0.191139	-0.049894	0.057779
	O345	O	-0.291065	0.470438	1.573109
	H346	H	-0.293706	0.466476	1.576699
	H347	H	-0.286032	0.470956	1.576417
	O348	O	-0.215841	0.213475	-0.209371
	H349	H	-0.177612	0.216946	-0.204922
	H350	H	-0.234101	0.232957	-0.204743
	O351	O	1.302698	0.690289	-0.316516
	H352	H	1.320380	0.677397	-0.336483
	H353	H	1.310124	0.671005	-0.337848
	O354	O	0.026941	0.226068	1.207330
	H355	H	0.036038	0.225086	1.216065
	H356	H	0.024021	0.227767	1.220358
	O357	O	0.709360	0.281796	0.469658
	H358	H	0.737667	0.252622	0.453822
	H359	H	0.702354	0.295899	0.445456
	O360	O	0.037542	-0.103861	1.215374
	H361	H	0.036329	-0.109022	1.229797
	H362	H	0.020363	-0.088974	1.203919
	O363	O	-0.208572	-0.091368	-0.040682
	H364	H	-0.197505	-0.116028	-0.047309
	H365	H	-0.229542	-0.083483	-0.061729
	O366	O	0.676260	0.694595	0.687301
	H367	H	0.680088	0.699633	0.635340
	H368	H	0.662154	0.662093	0.690772
	O369	O	0.456722	0.282290	0.716823
	H370	H	0.455359	0.276967	0.687371
	H371	H	0.454107	0.249779	0.739559
	O372	O	0.929394	0.830693	-0.026598
	H373	H	0.915360	0.830108	-0.029054
	H374	H	0.931966	0.837718	-0.028865
	O375	O	0.986319	0.031486	0.201613
	H376	H	0.964084	0.022148	0.203306
	H377	H	0.979503	0.046318	0.194062
	O378	O	0.679386	0.694012	0.309297
	H379	H	0.659417	0.681773	0.311250
	H380	H	0.706839	0.719105	0.278371
	O381	O	-0.068043	0.936695	1.084804
	H382	H	-0.074205	0.926876	1.082653
	H383	H	-0.067426	0.944055	1.080788
	O384	O	0.953765	0.228032	0.779660
	H385	H	0.963049	0.227972	0.798674
	H386	H	0.962854	0.248283	0.759040
	O387	O	1.219164	1.049023	0.008253
	H388	H	1.220603	1.052793	0.014092
	H389	H	1.217524	1.065833	0.001270
	O390	O	0.782471	0.794866	0.202960
	H391	H	0.806143	0.813644	0.195255
	H392	H	0.793965	0.794297	0.169632
	O393	O	0.263187	0.558084	0.556966
	H394	H	0.251102	0.559430	0.546864
	H395	H	0.272289	0.544030	0.535961
	O396	O	0.009748	1.155959	1.052067
	H397	H	0.018222	1.155719	1.056216
	H398	H	0.016675	1.150799	1.061263
	O399	O	-0.237031	0.035758	0.773663
	H400	H	-0.242067	0.076118	0.766810
	H401	H	-0.249677	0.041946	0.748810
	O402	O	0.046371	0.104080	0.785179
	H403	H	0.057698	0.093433	0.787340
	H404	H	0.037009	0.107096	0.784836
	O405	O	1.194350	0.181396	0.827231
	H406	H	1.174320	0.187846	0.851067
	H407	H	1.186577	0.149828	0.842039
	O408	O	-0.070035	0.144253	-0.003779
	H409	H	-0.069929	0.145586	-0.004887
	H410	H	-0.068369	0.136007	-0.010053
	O411	O	0.891954	1.112182	1.187739
	H412	H	0.899268	1.090841	1.175691
	H413	H	0.858688	1.112727	1.195790
	O414	O	0.555887	0.563754	0.269397
	H415	H	0.535353	0.570424	0.271053
	H416	H	0.536552	0.571537	0.262806
	O417	O	0.550678	0.426758	0.715247
	H418	H	0.542131	0.410503	0.715765
	H419	H	0.538095	0.425751	0.720005
	O420	O	0.262367	0.450376	0.435155
	H421	H	0.271527	0.450492	0.428589
	H422	H	0.258327	0.441936	0.425431
	O423	O	-0.167916	-0.003862	1.060245
	H424	H	-0.180209	0.002504	1.055466
	H425	H	-0.174680	0.005611	1.030863
	O426	O	0.534851	0.414846	0.460152
	H427	H	0.546213	0.416818	0.457496
	H428	H	0.552916	0.420764	0.460540
	O429	O	1.210291	0.779388	0.954649
	H430	H	1.238703	0.760085	0.960659
	H431	H	1.208117	0.805913	0.968009
	O432	O	0.574110	0.287174	0.281489
	H433	H	0.551068	0.285182	0.298802
	H434	H	0.571073	0.276723	0.263677
	O435	O	0.275880	0.716447	0.476772
	H436	H	0.283094	0.733761	0.478490
	H437	H	0.270283	0.705247	0.467629
	O438	O	0.558442	-0.480259	0.569252
	H439	H	0.548258	-0.473212	0.575030
	H440	H	0.557558	-0.486832	0.571102
	O441	O	-0.219354	0.213618	-0.010083
	H442	H	-0.236825	0.242615	0.001412
	H443	H	-0.201685	0.208135	-0.018017
	O444	O	0.544503	0.334928	0.541114
	H445	H	0.562778	0.346826	0.526145
	H446	H	0.536078	0.333242	0.520873
	O447	O	0.183974	1.035863	0.828827
	H448	H	0.205270	1.015854	0.825347
	H449	H	0.164456	1.019705	0.827593
	O450	O	-0.214623	0.797003	0.790368
	H451	H	-0.202453	0.792774	0.782282
	H452	H	-0.232867	0.772419	0.779190
	O453	O	0.290107	0.300151	0.694418
	H454	H	0.316942	0.309669	0.706643
	H455	H	0.262501	0.288776	0.725126
	O456	O	-0.021879	-0.211452	0.970311
	H457	H	-0.015411	-0.210814	0.955990
	H458	H	-0.029948	-0.221219	0.955774
	O459	O	1.156318	0.942955	-0.222004
	H460	H	1.177736	0.934345	-0.244471
	H461	H	1.146434	0.911813	-0.199035
	O462	O	0.455888	0.652588	0.572128
	H463	H	0.461941	0.646852	0.578258
	H464	H	0.468679	0.665378	0.583886
	O465	O	1.225813	-0.229015	0.229305
	H466	H	1.193703	-0.204392	0.214428
	H467	H	1.218538	-0.222230	0.228953
	O468	O	0.275897	0.283075	0.525534
	H469	H	0.277498	0.290624	0.559492
	H470	H	0.249230	0.260993	0.544804
	O471	O	0.526170	0.720034	0.434084
	H472	H	0.535796	0.714762	0.423392
	H473	H	0.542975	0.722601	0.436165
	O474	O	0.523804	0.727396	0.692709
	H475	H	0.550678	0.715932	0.688942
	H476	H	0.522505	0.751999	0.722989
	O477	O	0.470386	0.713830	1.274034
	H478	H	0.457850	0.723620	1.283013
	H479	H	0.464936	0.733322	1.262158
	O480	O	0.703314	0.523671	0.700449
	H481	H	0.686694	0.525525	0.695440
	H482	H	0.717810	0.508580	0.720460
	O483	O	0.686698	0.322066	0.309085
	H484	H	0.684353	0.349582	0.308287
	H485	H	0.669835	0.326767	0.300586
	O486	O	0.684958	0.312756	0.688190
	H487	H	0.673021	0.318815	0.664441
	H488	H	0.686916	0.315283	0.694097
	O489	O	0.776861	0.875043	0.001661
	H490	H	0.785876	0.876236	-0.003430
	H491	H	0.763341	0.877328	-0.023534
	O492	O	-0.031200	0.081691	-0.018905
	H493	H	-0.042971	0.084137	-0.029248
	H494	H	-0.018865	0.074202	-0.027634
	O495	O	-0.077801	0.965926	0.801748
	H496	H	-0.091480	0.990468	0.802321
	H497	H	-0.075500	0.959833	0.797132
	O498	O	1.206661	1.219685	1.204903
	H499	H	1.229334	1.235011	1.235832
	H500	H	1.191227	1.207157	1.216898
	O501	O	0.336413	0.471621	0.706440
	H502	H	0.311142	0.460213	0.717048
	H503	H	0.341366	0.456078	0.692560
