data_Molecule from HDF5

_cell_length_a		16.470587
_cell_length_b		16.572682
_cell_length_c		16.397654
_cell_angle_alpha	89.803673
_cell_angle_beta	90.025779
_cell_angle_gamma	89.926682
_symmetry_space_group_name_H-M	'P 1'
_symmetry_Int_Tables_number		1

loop_
	_symmetry_equiv_pos_as_xyz
	x,y,z

loop_
	_atom_site_label
	_atom_site_type_symbol
	_atom_site_fract_x
	_atom_site_fract_y
	_atom_site_fract_z
	H0	H	0.399028	0.838221	0.714679
	H1	H	0.608231	0.152995	0.712084
	H2	H	0.607547	0.839835	0.271562
	H3	H	0.399363	0.153363	0.268368
	H4	H	0.728318	0.387112	0.834332
	H5	H	0.725194	0.599286	0.148936
	H6	H	0.281568	0.601060	0.833845
	H7	H	0.285400	0.390964	0.151616
	H8	H	0.848569	0.718676	0.387171
	H9	H	0.161679	0.718959	0.601729
	H10	H	0.847555	0.273075	0.598774
	H11	H	0.162644	0.273454	0.385767
	H12	H	0.846552	0.388821	0.714933
	H13	H	0.161954	0.600824	0.715728
	H14	H	0.846423	0.599612	0.273348
	H15	H	0.163120	0.391346	0.270909
	H16	H	0.393924	0.719826	0.834717
	H17	H	0.612196	0.718600	0.147400
	H18	H	0.612254	0.271933	0.834415
	H19	H	0.397367	0.271008	0.148830
	H20	H	0.726783	0.840165	0.386804
	H21	H	0.725777	0.153338	0.596027
	H22	H	0.281472	0.838626	0.598579
	H23	H	0.281148	0.152722	0.383981
	H24	H	0.900832	0.337733	0.213342
	H25	H	0.105759	0.653918	0.210547
	H26	H	0.110522	0.339162	0.771537
	H27	H	0.896267	0.651875	0.768401
	H28	H	0.224415	0.892272	0.332290
	H29	H	0.224555	0.098726	0.650241
	H30	H	0.787134	0.098317	0.332178
	H31	H	0.782653	0.889345	0.650858
	H32	H	0.346602	0.216038	0.885094
	H33	H	0.659848	0.219436	0.100228
	H34	H	0.347450	0.773381	0.098683
	H35	H	0.661481	0.771280	0.883666
	H36	H	0.346684	0.890797	0.213218
	H37	H	0.662491	0.100285	0.212189
	H38	H	0.346495	0.098440	0.770770
	H39	H	0.663437	0.890230	0.770493
	H40	H	0.900653	0.217494	0.333812
	H41	H	0.110898	0.217008	0.649381
	H42	H	0.110256	0.774417	0.334071
	H43	H	0.898336	0.773097	0.650888
	H44	H	0.226628	0.339363	0.888267
	H45	H	0.226613	0.652014	0.098341
	H46	H	0.784123	0.337593	0.096467
	H47	H	0.777924	0.650162	0.882761
	H48	H	0.418820	0.104760	0.578082
	H49	H	0.587482	0.887949	0.576755
	H50	H	0.597657	0.111557	0.398610
	H51	H	0.412550	0.884260	0.401875
	H52	H	0.594233	0.408326	0.103348
	H53	H	0.586531	0.585912	0.879480
	H54	H	0.424596	0.585583	0.101725
	H55	H	0.415906	0.406656	0.879182
	H56	H	0.117345	0.579193	0.399486
	H57	H	0.894043	0.582188	0.578779
	H58	H	0.118887	0.404383	0.585901
	H59	H	0.892609	0.407494	0.404059
	H60	H	0.116181	0.403430	0.576211
	H61	H	0.891987	0.585375	0.581735
	H62	H	0.121136	0.591134	0.399553
	H63	H	0.891885	0.405675	0.403602
	H64	H	0.412508	0.589762	0.108312
	H65	H	0.593969	0.582686	0.877201
	H66	H	0.588215	0.407495	0.101978
	H67	H	0.414741	0.405507	0.878468
	H68	H	0.592605	0.108916	0.400333
	H69	H	0.602510	0.882502	0.574953
	H70	H	0.413051	0.106081	0.576926
	H71	H	0.418177	0.885134	0.401150
	H72	H	0.913586	0.607719	0.080478
	H73	H	0.095827	0.382587	0.083003
	H74	H	0.096805	0.607730	0.909707
	H75	H	0.916125	0.383392	0.902385
	H76	H	0.087810	0.911840	0.600947
	H77	H	0.097267	0.078627	0.379373
	H78	H	0.918110	0.089157	0.606027
	H79	H	0.918196	0.905140	0.379764
	H80	H	0.617763	0.084569	0.902973
	H81	H	0.393755	0.078419	0.078292
	H82	H	0.616220	0.906233	0.078048
	H83	H	0.387804	0.900281	0.898755
	H84	H	0.617101	0.907069	0.081685
	H85	H	0.389671	0.085769	0.084071
	H86	H	0.617846	0.084514	0.903344
	H87	H	0.395674	0.904566	0.912879
	H88	H	0.911852	0.083529	0.606372
	H89	H	0.084921	0.088009	0.379448
	H90	H	0.090824	0.899527	0.606404
	H91	H	0.915115	0.908085	0.380021
	H92	H	0.092793	0.609825	0.899504
	H93	H	0.094216	0.382744	0.083333
	H94	H	0.910478	0.609001	0.081073
	H95	H	0.918584	0.385084	0.905677
	H96	H	0.415565	0.107819	0.582276
	H97	H	0.594864	0.880716	0.589219
	H98	H	0.597939	0.109454	0.404515
	H99	H	0.416263	0.886007	0.406249
	H100	H	0.591098	0.403301	0.104662
	H101	H	0.588439	0.577806	0.881197
	H102	H	0.413097	0.576737	0.102596
	H103	H	0.414083	0.407290	0.878781
	H104	H	0.116831	0.586090	0.410129
	H105	H	0.892776	0.586382	0.577159
	H106	H	0.114516	0.411959	0.581485
	H107	H	0.893060	0.405825	0.405168
	H108	H	0.912899	0.608383	0.083506
	H109	H	0.094681	0.383169	0.081904
	H110	H	0.086696	0.604482	0.906770
	H111	H	0.914264	0.384303	0.906611
	H112	H	0.100526	0.909576	0.606692
	H113	H	0.097890	0.092682	0.373635
	H114	H	0.919983	0.081221	0.603874
	H115	H	0.919062	0.908995	0.381176
	H116	H	0.616710	0.084271	0.903008
	H117	H	0.392312	0.087394	0.073906
	H118	H	0.617499	0.903662	0.080254
	H119	H	0.394224	0.915228	0.900236
	C120	C	0.383273	0.002859	0.612695
	C121	C	0.626800	0.987435	0.612996
	C122	C	0.626986	0.005717	0.369726
	C123	C	0.382740	0.988147	0.369807
	C124	C	0.624992	0.373339	-0.000348
	C125	C	0.623791	0.615052	0.982799
	C126	C	0.382570	0.616882	0.000279
	C127	C	0.382685	0.373821	0.983337
	C128	C	0.013871	0.617140	0.371302
	C129	C	0.996485	0.617288	0.613773
	C130	C	0.012827	0.373676	0.613947
	C131	C	0.996904	0.374546	0.371479
	C132	C	0.881843	0.503970	0.113711
	C133	C	0.126069	0.487106	0.114318
	C134	C	0.125322	0.503972	0.872116
	C135	C	0.882229	0.486816	0.870509
	C136	C	0.126128	0.874513	0.500195
	C137	C	0.125656	0.117489	0.482677
	C138	C	0.884592	0.116666	0.500462
	C139	C	0.884006	0.874364	0.484358
	C140	C	0.513098	0.116392	0.870296
	C141	C	0.495765	0.116554	0.111998
	C142	C	0.513000	0.873558	0.113082
	C143	C	0.496492	0.873913	0.870547
	C144	C	0.380811	0.885075	0.674124
	C145	C	0.627679	0.105729	0.672398
	C146	C	0.627288	0.886910	0.311126
	C147	C	0.380275	0.106286	0.308821
	C148	C	0.687338	0.369702	0.881673
	C149	C	0.684939	0.617584	0.101553
	C150	C	0.321295	0.619442	0.881526
	C151	C	0.323998	0.372049	0.103218
	C152	C	0.895333	0.677610	0.369059
	C153	C	0.114549	0.678207	0.618586
	C154	C	0.894742	0.313122	0.616942
	C155	C	0.115652	0.314347	0.368544
	C156	C	0.894082	0.371250	0.674400
	C157	C	0.114563	0.619716	0.675689
	C158	C	0.894287	0.618589	0.312505
	C159	C	0.115559	0.372400	0.310943
	C160	C	0.377449	0.678512	0.881917
	C161	C	0.628757	0.676965	0.100643
	C162	C	0.629483	0.312213	0.881605
	C163	C	0.380003	0.312544	0.101987
	C164	C	0.686354	0.887083	0.368399
	C165	C	0.686126	0.105946	0.614855
	C166	C	0.322203	0.885498	0.616239
	C167	C	0.321706	0.105982	0.366257
	C168	C	0.881652	0.385172	0.173493
	C169	C	0.125632	0.606280	0.171900
	C170	C	0.128010	0.386161	0.811839
	C171	C	0.878435	0.604428	0.808645
	C172	C	0.185233	0.873118	0.380408
	C173	C	0.185338	0.118187	0.602410
	C174	C	0.826157	0.117470	0.380184
	C175	C	0.823009	0.871433	0.603234
	C176	C	0.394138	0.176144	0.866940
	C177	C	0.613358	0.178041	0.116670
	C178	C	0.394552	0.813751	0.116144
	C179	C	0.614650	0.812130	0.866464
	C180	C	0.394387	0.872047	0.173446
	C181	C	0.614715	0.118742	0.172514
	C182	C	0.394075	0.117676	0.810006
	C183	C	0.615523	0.871385	0.810153
	C184	C	0.882319	0.177019	0.381109
	C185	C	0.128662	0.176797	0.602138
	C186	C	0.128610	0.814480	0.381316
	C187	C	0.880746	0.813363	0.603191
	C188	C	0.186176	0.386331	0.869699
	C189	C	0.185896	0.605340	0.116286
	C190	C	0.823611	0.384891	0.115250
	C191	C	0.819432	0.603828	0.865651
	C192	C	0.408702	0.084934	0.586606
	C193	C	0.602014	0.905085	0.587552
	C194	C	0.602920	0.088391	0.393965
	C195	C	0.408424	0.906360	0.395740
	C196	C	0.598624	0.399168	0.082109
	C197	C	0.597311	0.589394	0.900568
	C198	C	0.409236	0.591313	0.082764
	C199	C	0.407893	0.399188	0.900247
	C200	C	0.096822	0.592519	0.396133
	C201	C	0.914502	0.591915	0.586995
	C202	C	0.095221	0.399283	0.588477
	C203	C	0.914021	0.399371	0.397070
	C204	C	0.905345	0.586724	0.088850
	C205	C	0.101894	0.404311	0.089811
	C206	C	0.099464	0.586107	0.897917
	C207	C	0.908714	0.405542	0.897335
	C208	C	0.100591	0.899727	0.583108
	C209	C	0.100515	0.093469	0.399400
	C210	C	0.909535	0.091795	0.583742
	C211	C	0.909998	0.899997	0.401833
	C212	C	0.595831	0.091842	0.896030
	C213	C	0.413455	0.091006	0.086199
	C214	C	0.595696	0.898451	0.087294
	C215	C	0.414133	0.899357	0.896478
	Zn216	Zn	0.504841	-0.004813	0.742073
	Zn217	Zn	0.504179	-0.003662	0.240777
	Zn218	Zn	0.753249	0.494472	-0.008452
	Zn219	Zn	0.254916	0.495748	-0.007129
	Zn220	Zn	0.005707	0.745951	0.492375
	Zn221	Zn	0.005306	0.245462	0.492126
	Zn222	Zn	0.004519	0.495307	0.742322
	Zn223	Zn	0.004380	0.495677	0.242808
	Zn224	Zn	0.503954	0.745244	-0.008953
	Zn225	Zn	0.503794	0.245180	-0.009108
	Zn226	Zn	0.755678	-0.003788	0.492040
	Zn227	Zn	0.253538	-0.003906	0.491239
	N228	N	0.418151	0.959148	0.671862
	N229	N	0.591924	0.030914	0.671671
	N230	N	0.591336	0.961757	0.311607
	N231	N	0.417540	0.032198	0.310849
	N232	N	0.684528	0.407068	0.956139
	N233	N	0.681998	0.579823	0.027219
	N234	N	0.324479	0.581706	0.956136
	N235	N	0.325809	0.409628	0.028421
	N236	N	0.970696	0.676850	0.404853
	N237	N	0.040093	0.676959	0.580868
	N238	N	0.969656	0.314505	0.580184
	N239	N	0.040824	0.315714	0.405460
	N240	N	0.968609	0.408302	0.672764
	N241	N	0.040200	0.582624	0.672850
	N242	N	0.968968	0.581633	0.313846
	N243	N	0.040677	0.409221	0.312682
	N244	N	0.415087	0.677096	0.956666
	N245	N	0.591436	0.675591	0.025775
	N246	N	0.591392	0.314285	0.956172
	N247	N	0.415837	0.313506	0.026295
	N248	N	0.686388	0.962013	0.403857
	N249	N	0.685922	0.031101	0.578915
	N250	N	0.323627	0.959611	0.578741
	N251	N	0.323121	0.031578	0.403565
	N252	N	0.916922	0.460244	0.172940
	N253	N	0.089292	0.531683	0.170864
	N254	N	0.090749	0.460417	0.813395
	N255	N	0.916483	0.530706	0.811274
	N256	N	0.183930	0.909540	0.455556
	N257	N	0.183767	0.082075	0.527082
	N258	N	0.827347	0.080775	0.455433
	N259	N	0.824719	0.908660	0.528305
	N260	N	0.469415	0.175900	0.903295
	N261	N	0.538533	0.176796	0.079741
	N262	N	0.469513	0.814433	0.079543
	N263	N	0.539567	0.813560	0.903193
	N264	N	0.469320	0.908385	0.171931
	N265	N	0.540562	0.081060	0.169719
	N266	N	0.468983	0.081499	0.811870
	N267	N	0.541076	0.908841	0.812458
	N268	N	0.917724	0.176699	0.456936
	N269	N	0.092711	0.176634	0.526643
	N270	N	0.093005	0.815033	0.456953
	N271	N	0.917876	0.814935	0.528155
	N272	N	0.184571	0.460742	0.906372
	N273	N	0.186160	0.530234	0.081181
	N274	N	0.823555	0.459759	0.079014
	N275	N	0.821543	0.529697	0.903260
	O276	O	0.518238	0.512682	0.380621
	H277	H	0.504550	0.517712	0.381207
	H278	H	0.515757	0.495230	0.382102
	O279	O	0.718605	0.547306	0.430212
	H280	H	0.716664	0.540584	0.440494
	H281	H	0.716129	0.552874	0.423847
	O282	O	1.034608	0.973207	0.093256
	H283	H	1.046605	0.966401	0.088030
	H284	H	1.025388	0.966043	0.084642
	O285	O	0.717509	0.290729	0.728553
	H286	H	0.718261	0.272270	0.739173
	H287	H	0.697578	0.273336	0.746780
	O288	O	-0.192001	0.199162	-0.025261
	H289	H	-0.202367	0.196964	-0.019537
	H290	H	-0.194895	0.193750	-0.012488
	O291	O	0.795364	1.017940	0.041182
	H292	H	0.806864	1.029211	0.036122
	H293	H	0.800556	1.028088	0.036086
	O294	O	0.198021	0.807147	-0.161899
	H295	H	0.205480	0.795828	-0.121217
	H296	H	0.161666	0.792884	-0.175457
	O297	O	0.693006	0.688654	0.300766
	H298	H	0.683356	0.664329	0.322325
	H299	H	0.665459	0.677342	0.317361
	O300	O	0.302990	0.286344	0.597585
	H301	H	0.285395	0.280646	0.597826
	H302	H	0.293035	0.301094	0.587687
	O303	O	0.390471	0.291415	0.695151
	H304	H	0.361297	0.289937	0.710947
	H305	H	0.380796	0.282883	0.672087
	O306	O	0.042650	1.003790	0.780050
	H307	H	0.065090	0.997377	0.778004
	H308	H	0.032706	0.997896	0.774942
	O309	O	1.097304	1.146015	1.139588
	H310	H	1.084169	1.134071	1.121063
	H311	H	1.093715	1.145343	1.146224
	O312	O	0.542637	0.464420	0.528248
	H313	H	0.541932	0.467960	0.536268
	H314	H	0.534135	0.471088	0.554095
	O315	O	-0.007175	-0.049762	0.940661
	H316	H	0.001617	-0.035715	0.937993
	H317	H	-0.007976	-0.064889	0.938401
	O318	O	-0.530125	0.318224	0.331465
	H319	H	-0.527971	0.311368	0.329962
	H320	H	-0.536753	0.312879	0.339133
	O321	O	0.713082	0.579394	0.703425
	H322	H	0.725282	0.568130	0.713269
	H323	H	0.717668	0.563582	0.718710
	O324	O	0.842205	0.149302	1.103469
	H325	H	0.864810	0.139525	1.114805
	H326	H	0.825117	0.161839	1.125007
	O327	O	1.305388	0.690065	0.295459
	H328	H	1.317478	0.691812	0.303290
	H329	H	1.317207	0.687606	0.320030
	O330	O	1.214912	0.202425	0.014055
	H331	H	1.228312	0.210446	0.030263
	H332	H	1.210503	0.206156	0.015787
	O333	O	1.021582	0.880520	1.022160
	H334	H	1.014862	0.887937	1.015585
	H335	H	1.029261	0.877663	1.021753
	O336	O	0.788010	0.030972	0.781175
	H337	H	0.807626	0.025472	0.789619
	H338	H	0.755659	0.024901	0.751551
	O339	O	0.325358	0.295829	0.422088
	H340	H	0.338361	0.303904	0.426573
	H341	H	0.312004	0.280534	0.420974
	O342	O	0.722108	0.460561	0.273722
	H343	H	0.752023	0.465138	0.248596
	H344	H	0.711674	0.451128	0.280539
	O345	O	-0.286943	0.283449	0.460944
	H346	H	-0.293040	0.281028	0.468850
	H347	H	-0.274399	0.275200	0.478786
	O348	O	1.073355	0.171854	1.166254
	H349	H	1.080688	0.178383	1.154692
	H350	H	1.061404	0.156418	1.174577
	O351	O	1.175108	0.827308	-0.003266
	H352	H	1.186344	0.833771	0.016033
	H353	H	1.186503	0.826150	0.014512
	O354	O	0.544718	0.707294	0.426021
	H355	H	0.530066	0.703118	0.448955
	H356	H	0.522499	0.709940	0.423266
	O357	O	1.194421	1.155191	0.834220
	H358	H	1.187114	1.138313	0.844956
	H359	H	1.171413	1.146734	0.842524
	O360	O	0.475452	0.710023	0.279232
	H361	H	0.482135	0.706303	0.266297
	H362	H	0.472198	0.722241	0.272465
	O363	O	-0.019185	0.784582	0.197522
	H364	H	-0.032750	0.765215	0.213167
	H365	H	-0.051228	0.792588	0.198674
	O366	O	1.063402	-0.205898	0.784408
	H367	H	1.044810	-0.214290	0.792599
	H368	H	1.057102	-0.235350	0.776868
	O369	O	0.498374	0.510703	0.283372
	H370	H	0.489723	0.500855	0.289322
	H371	H	0.513274	0.501247	0.290035
	O372	O	0.520514	0.294597	0.646315
	H373	H	0.512183	0.271035	0.664496
	H374	H	0.498054	0.296936	0.634398
	O375	O	0.504514	0.655762	0.704072
	H376	H	0.507145	0.667020	0.721272
	H377	H	0.533923	0.651742	0.706758
	O378	O	0.294868	0.466467	0.697122
	H379	H	0.296680	0.462352	0.702136
	H380	H	0.294199	0.479970	0.707338
	O381	O	0.836482	-0.079057	-0.116588
	H382	H	0.842321	-0.100043	-0.096115
	H383	H	0.846030	-0.068605	-0.120960
	O384	O	-0.128417	-0.194020	0.926007
	H385	H	-0.136323	-0.173845	0.931551
	H386	H	-0.131963	-0.199399	0.950076
	O387	O	0.026392	1.117542	0.943811
	H388	H	0.018587	1.120767	0.929181
	H389	H	0.025117	1.106206	0.939762
	O390	O	-0.109642	0.201920	0.880781
	H391	H	-0.103333	0.200340	0.873108
	H392	H	-0.105877	0.188603	0.891103
	O393	O	0.997133	0.839128	-0.004327
	H394	H	0.994551	0.835165	0.006051
	H395	H	1.011400	0.844760	0.010028
	O396	O	0.296142	0.579980	0.563965
	H397	H	0.308345	0.570120	0.566846
	H398	H	0.291139	0.592391	0.559506
	O399	O	0.287607	0.711075	0.463427
	H400	H	0.292481	0.717987	0.467386
	H401	H	0.272806	0.723044	0.475323
	O402	O	0.159092	0.027773	1.039301
	H403	H	0.164767	0.032992	1.032569
	H404	H	0.164161	0.013953	1.026704
	O405	O	-0.029161	0.078523	-0.091238
	H406	H	-0.030214	0.080960	-0.089921
	H407	H	-0.036894	0.093153	-0.101600
	O408	O	0.517777	0.393249	0.456938
	H409	H	0.509601	0.387139	0.467037
	H410	H	0.537981	0.399136	0.472479
	O411	O	0.486909	0.358071	0.279112
	H412	H	0.507614	0.365340	0.286246
	H413	H	0.479590	0.358156	0.261491
	O414	O	0.456279	0.492445	0.531311
	H415	H	0.434190	0.466512	0.523924
	H416	H	0.474721	0.488916	0.534972
	O417	O	0.293029	0.526772	0.280775
	H418	H	0.293943	0.538816	0.284567
	H419	H	0.283145	0.532665	0.263323
	O420	O	0.412075	0.696618	0.588263
	H421	H	0.431988	0.700136	0.620594
	H422	H	0.408434	0.675183	0.575609
	O423	O	-0.211575	0.953904	0.207340
	H424	H	-0.222167	0.957573	0.215997
	H425	H	-0.222931	0.971606	0.205616
	O426	O	1.169029	0.876616	1.106424
	H427	H	1.150993	0.877255	1.119771
	H428	H	1.179370	0.875084	1.115258
	O429	O	0.213123	-0.016182	0.812881
	H430	H	0.214566	-0.032633	0.816431
	H431	H	0.223766	-0.037298	0.798358
	O432	O	0.477484	0.524111	0.647945
	H433	H	0.479006	0.525272	0.641297
	H434	H	0.473834	0.526094	0.643793
	O435	O	0.011327	0.203716	-0.155317
	H436	H	-0.017791	0.200143	-0.142218
	H437	H	0.007191	0.216268	-0.161698
	O438	O	1.001248	0.057093	0.197022
	H439	H	1.010088	0.061161	0.197795
	H440	H	0.986047	0.043248	0.192664
	O441	O	0.712964	0.702379	0.513187
	H442	H	0.699185	0.711488	0.504904
	H443	H	0.721555	0.712962	0.523162
	O444	O	-0.194184	0.787491	1.192712
	H445	H	-0.223491	0.770221	1.215735
	H446	H	-0.202474	0.816653	1.200132
	O447	O	0.635173	0.693025	0.685833
	H448	H	0.647234	0.669470	0.701562
	H449	H	0.646386	0.698083	0.665364
	O450	O	0.717160	0.433056	0.560622
	H451	H	0.719409	0.419850	0.575027
	H452	H	0.714034	0.450487	0.545172
	O453	O	0.334954	0.418778	0.464445
	H454	H	0.327216	0.425048	0.474635
	H455	H	0.329386	0.418258	0.438247
	O456	O	0.701066	0.295076	0.294908
	H457	H	0.674764	0.296599	0.303009
	H458	H	0.710121	0.310498	0.321472
	O459	O	0.605640	0.468945	0.684537
	H460	H	0.610088	0.449935	0.691610
	H461	H	0.583771	0.474623	0.685403
	O462	O	-0.120894	0.827753	0.990812
	H463	H	-0.123041	0.823421	1.013450
	H464	H	-0.130187	0.822305	0.999380
	O465	O	1.207016	0.052776	0.191507
	H466	H	1.187140	0.066719	0.194946
	H467	H	1.225247	0.039558	0.199968
