data_Molecule from HDF5

_cell_length_a		16.197521
_cell_length_b		16.049102
_cell_length_c		16.413809
_cell_angle_alpha	89.884400
_cell_angle_beta	89.645010
_cell_angle_gamma	90.005520
_symmetry_space_group_name_H-M	'P 1'
_symmetry_Int_Tables_number		1

loop_
	_symmetry_equiv_pos_as_xyz
	x,y,z

loop_
	_atom_site_label
	_atom_site_type_symbol
	_atom_site_fract_x
	_atom_site_fract_y
	_atom_site_fract_z
	H0	H	0.397911	0.837854	0.720642
	H1	H	0.600749	0.167662	0.717559
	H2	H	0.602977	0.838301	0.288241
	H3	H	0.398733	0.166208	0.286604
	H4	H	0.722547	0.402160	0.840415
	H5	H	0.719128	0.601016	0.165367
	H6	H	0.289043	0.605033	0.839911
	H7	H	0.285579	0.401872	0.163873
	H8	H	0.836551	0.714459	0.405980
	H9	H	0.166977	0.716914	0.595074
	H10	H	0.836370	0.292685	0.598622
	H11	H	0.167392	0.290244	0.405251
	H12	H	0.840112	0.400848	0.720678
	H13	H	0.166697	0.606384	0.715776
	H14	H	0.841048	0.607759	0.283066
	H15	H	0.167111	0.403009	0.286067
	H16	H	0.408666	0.717499	0.839465
	H17	H	0.601625	0.716636	0.166073
	H18	H	0.603540	0.287678	0.839743
	H19	H	0.405326	0.288759	0.165774
	H20	H	0.711597	0.836639	0.405847
	H21	H	0.712515	0.169143	0.599103
	H22	H	0.287036	0.836710	0.601267
	H23	H	0.291785	0.169258	0.408333
	H24	H	0.904334	0.338842	0.217658
	H25	H	0.104606	0.668890	0.214915
	H26	H	0.106531	0.338225	0.785370
	H27	H	0.903233	0.667018	0.786064
	H28	H	0.220767	0.901545	0.340663
	H29	H	0.215082	0.102895	0.664372
	H30	H	0.785177	0.102697	0.339362
	H31	H	0.783894	0.902901	0.664718
	H32	H	0.337803	0.215758	0.909379
	H33	H	0.668511	0.212432	0.098048
	H34	H	0.338133	0.788244	0.100254
	H35	H	0.669595	0.793475	0.907942
	H36	H	0.338277	0.900339	0.219066
	H37	H	0.665112	0.103690	0.219361
	H38	H	0.338153	0.105869	0.788989
	H39	H	0.664801	0.900120	0.783356
	H40	H	0.904284	0.217257	0.338106
	H41	H	0.095716	0.216822	0.664497
	H42	H	0.098937	0.790869	0.338194
	H43	H	0.902238	0.787438	0.664179
	H44	H	0.215914	0.335660	0.905659
	H45	H	0.215466	0.669130	0.097239
	H46	H	0.793151	0.336476	0.100006
	H47	H	0.792456	0.668313	0.904270
	H48	H	0.409834	0.118346	0.589020
	H49	H	0.581664	0.887045	0.595111
	H50	H	0.597614	0.124441	0.407892
	H51	H	0.410261	0.883575	0.413748
	H52	H	0.593032	0.412656	0.116360
	H53	H	0.607752	0.584933	0.887614
	H54	H	0.408299	0.590170	0.116336
	H55	H	0.414699	0.414375	0.889134
	H56	H	0.121655	0.596370	0.401476
	H57	H	0.886377	0.594306	0.594842
	H58	H	0.120422	0.402828	0.588065
	H59	H	0.886810	0.414069	0.411326
	H60	H	0.116617	0.419118	0.590067
	H61	H	0.886896	0.591555	0.596573
	H62	H	0.120594	0.600855	0.410144
	H63	H	0.885010	0.415101	0.405195
	H64	H	0.412845	0.596508	0.116929
	H65	H	0.586176	0.595373	0.891095
	H66	H	0.598146	0.400601	0.120227
	H67	H	0.414469	0.404412	0.886223
	H68	H	0.587474	0.120841	0.404735
	H69	H	0.596037	0.885517	0.587175
	H70	H	0.399914	0.123874	0.599587
	H71	H	0.409098	0.882348	0.409660
	H72	H	0.923912	0.617954	0.091044
	H73	H	0.086860	0.388212	0.093376
	H74	H	0.091684	0.622064	0.897672
	H75	H	0.917133	0.382079	0.902043
	H76	H	0.095032	0.908803	0.618357
	H77	H	0.087612	0.098151	0.387937
	H78	H	0.903290	0.098609	0.617889
	H79	H	0.898431	0.908786	0.383034
	H80	H	0.621243	0.091290	0.897406
	H81	H	0.383749	0.096185	0.099584
	H82	H	0.619302	0.922787	0.106205
	H83	H	0.385848	0.909291	0.912897
	H84	H	0.624897	0.898528	0.103301
	H85	H	0.384312	0.096036	0.093639
	H86	H	0.621240	0.103409	0.909777
	H87	H	0.386914	0.913281	0.912685
	H88	H	0.903585	0.094016	0.616840
	H89	H	0.102981	0.102716	0.381753
	H90	H	0.093870	0.913336	0.616421
	H91	H	0.907163	0.915786	0.388247
	H92	H	0.091146	0.617317	0.915975
	H93	H	0.101268	0.384525	0.088736
	H94	H	0.902913	0.622488	0.086541
	H95	H	0.920488	0.387698	0.915576
	H96	H	0.414789	0.121062	0.603285
	H97	H	0.594696	0.881208	0.603995
	H98	H	0.591534	0.119521	0.414969
	H99	H	0.413217	0.884261	0.410323
	H100	H	0.605625	0.411773	0.119217
	H101	H	0.604897	0.608663	0.882350
	H102	H	0.406273	0.596251	0.119501
	H103	H	0.406430	0.411241	0.885670
	H104	H	0.118222	0.590830	0.408931
	H105	H	0.883946	0.594181	0.597940
	H106	H	0.122985	0.409754	0.603221
	H107	H	0.884010	0.408540	0.407212
	H108	H	0.910689	0.626134	0.106038
	H109	H	0.096948	0.381106	0.103676
	H110	H	0.107425	0.624319	0.908030
	H111	H	0.906145	0.382991	0.912679
	H112	H	0.089954	0.909423	0.617134
	H113	H	0.099869	0.086296	0.387351
	H114	H	0.908031	0.096149	0.617072
	H115	H	0.909766	0.904263	0.385194
	H116	H	0.616780	0.087090	0.913220
	H117	H	0.385875	0.090753	0.097841
	H118	H	0.615254	0.911787	0.083724
	H119	H	0.384964	0.911095	0.908964
	C120	C	0.378362	0.011865	0.626146
	C121	C	0.620170	0.994268	0.623258
	C122	C	0.621659	0.011993	0.380875
	C123	C	0.381321	0.993165	0.382599
	C124	C	0.627953	0.379628	0.011168
	C125	C	0.627363	0.624924	0.994648
	C126	C	0.381821	0.624319	0.010419
	C127	C	0.382181	0.380801	0.994176
	C128	C	0.011463	0.624997	0.379421
	C129	C	0.994082	0.624291	0.623279
	C130	C	0.011231	0.381689	0.623314
	C131	C	0.993738	0.382720	0.379616
	C132	C	0.883350	0.512457	0.123547
	C133	C	0.124273	0.494498	0.122675
	C134	C	0.126376	0.511639	0.878906
	C135	C	0.884969	0.493730	0.881341
	C136	C	0.122880	0.881602	0.510126
	C137	C	0.123497	0.124621	0.493217
	C138	C	0.877456	0.125520	0.509918
	C139	C	0.877172	0.880518	0.493399
	C140	C	0.511058	0.124051	0.880558
	C141	C	0.493598	0.123191	0.124691
	C142	C	0.511205	0.880852	0.125625
	C143	C	0.494394	0.882392	0.882119
	C144	C	0.378832	0.887274	0.682165
	C145	C	0.619761	0.118726	0.678616
	C146	C	0.621377	0.887571	0.326025
	C147	C	0.380752	0.117369	0.325900
	C148	C	0.683665	0.382090	0.888753
	C149	C	0.681613	0.621856	0.116861
	C150	C	0.327346	0.623800	0.888389
	C151	C	0.324917	0.382131	0.115821
	C152	C	0.886736	0.678656	0.383825
	C153	C	0.117706	0.680139	0.617701
	C154	C	0.886569	0.328125	0.620563
	C155	C	0.118148	0.327344	0.383516
	C156	C	0.888391	0.382279	0.681132
	C157	C	0.117507	0.625014	0.677642
	C158	C	0.888837	0.625030	0.323061
	C159	C	0.117895	0.383374	0.324200
	C160	C	0.386697	0.680175	0.888230
	C161	C	0.623055	0.679120	0.117350
	C162	C	0.624507	0.325240	0.888485
	C163	C	0.384806	0.326210	0.116889
	C164	C	0.675750	0.886776	0.384510
	C165	C	0.675434	0.119329	0.619960
	C166	C	0.323628	0.886563	0.622912
	C167	C	0.327604	0.118851	0.386459
	C168	C	0.884440	0.387929	0.179457
	C169	C	0.123598	0.619205	0.177111
	C170	C	0.125731	0.387375	0.823521
	C171	C	0.885079	0.617984	0.825297
	C172	C	0.180625	0.882716	0.388389
	C173	C	0.176858	0.122438	0.615956
	C174	C	0.823103	0.123227	0.387712
	C175	C	0.821899	0.882416	0.615848
	C176	C	0.387039	0.179046	0.886687
	C177	C	0.618472	0.176435	0.119939
	C178	C	0.387296	0.825536	0.121354
	C179	C	0.619351	0.828899	0.885552
	C180	C	0.387424	0.881163	0.180770
	C181	C	0.616663	0.122408	0.180509
	C182	C	0.387331	0.124493	0.826698
	C183	C	0.616996	0.881981	0.823841
	C184	C	0.882369	0.180153	0.387059
	C185	C	0.117871	0.179358	0.615883
	C186	C	0.120134	0.827766	0.387138
	C187	C	0.880751	0.825032	0.615655
	C188	C	0.180737	0.386314	0.882792
	C189	C	0.178573	0.619554	0.118255
	C190	C	0.829588	0.386864	0.120524
	C191	C	0.829968	0.618624	0.884055
	C192	C	0.401283	0.098802	0.603962
	C193	C	0.597481	0.907194	0.601710
	C194	C	0.598708	0.099056	0.402643
	C195	C	0.404097	0.906156	0.404671
	C196	C	0.605621	0.401680	0.096465
	C197	C	0.605787	0.602807	0.909049
	C198	C	0.402930	0.601021	0.095616
	C199	C	0.405184	0.403433	0.909037
	C200	C	0.097742	0.602575	0.400742
	C201	C	0.907903	0.600375	0.602460
	C202	C	0.097709	0.403979	0.600677
	C203	C	0.907640	0.405704	0.401423
	C204	C	0.905828	0.599784	0.101232
	C205	C	0.101694	0.407109	0.101539
	C206	C	0.103429	0.598624	0.900677
	C207	C	0.908033	0.406722	0.903443
	C208	C	0.099811	0.903999	0.595334
	C209	C	0.102906	0.102308	0.407678
	C210	C	0.898621	0.103038	0.595415
	C211	C	0.898798	0.903037	0.407656
	C212	C	0.597489	0.100727	0.900770
	C213	C	0.407015	0.100902	0.103377
	C214	C	0.597620	0.904220	0.104022
	C215	C	0.408201	0.904871	0.904704
	Zn216	Zn	0.500818	0.002312	0.752466
	Zn217	Zn	0.501146	0.002476	0.253991
	Zn218	Zn	0.756777	0.502643	0.002223
	Zn219	Zn	0.252236	0.502471	0.001715
	Zn220	Zn	0.001130	0.752132	0.501019
	Zn221	Zn	0.001214	0.253672	0.501187
	Zn222	Zn	0.004293	0.502646	0.751932
	Zn223	Zn	0.003996	0.504207	0.250800
	Zn224	Zn	0.504252	0.753475	0.003316
	Zn225	Zn	0.503844	0.251263	0.002911
	Zn226	Zn	0.747725	0.002932	0.501838
	Zn227	Zn	0.252937	0.002526	0.502675
	N228	N	0.412073	0.966256	0.684355
	N229	N	0.586217	0.040044	0.680724
	N230	N	0.588193	0.966463	0.323956
	N231	N	0.413512	0.038296	0.323368
	N232	N	0.686044	0.414987	0.965999
	N233	N	0.684232	0.588869	0.039475
	N234	N	0.324216	0.589998	0.965401
	N235	N	0.323336	0.415574	0.038615
	N236	N	0.963810	0.678601	0.418226
	N237	N	0.039877	0.679739	0.584602
	N238	N	0.963773	0.327588	0.585236
	N239	N	0.040091	0.326653	0.417059
	N240	N	0.967159	0.414627	0.682998
	N241	N	0.039649	0.590844	0.681138
	N242	N	0.967470	0.592476	0.320013
	N243	N	0.039667	0.417153	0.321762
	N244	N	0.420097	0.680594	0.965082
	N245	N	0.590150	0.681283	0.040314
	N246	N	0.590808	0.323209	0.965630
	N247	N	0.419763	0.325447	0.040340
	N248	N	0.676133	0.965157	0.418110
	N249	N	0.675715	0.040841	0.586097
	N250	N	0.323323	0.964847	0.588708
	N251	N	0.327863	0.040710	0.420987
	N252	N	0.917313	0.467046	0.181500
	N253	N	0.090428	0.540320	0.179813
	N254	N	0.093146	0.466486	0.820502
	N255	N	0.918530	0.539310	0.823616
	N256	N	0.182447	0.915257	0.465855
	N257	N	0.180636	0.089314	0.538703
	N258	N	0.819963	0.089973	0.465064
	N259	N	0.819681	0.916059	0.538714
	N260	N	0.465056	0.179073	0.919268
	N261	N	0.541002	0.177211	0.086265
	N262	N	0.465353	0.825267	0.087873
	N263	N	0.542114	0.829035	0.921057
	N264	N	0.465393	0.914787	0.183579
	N265	N	0.537925	0.089899	0.183577
	N266	N	0.465477	0.090809	0.822782
	N267	N	0.538361	0.914538	0.821650
	N268	N	0.915302	0.181600	0.464223
	N269	N	0.085405	0.180633	0.538638
	N270	N	0.084756	0.827096	0.463717
	N271	N	0.914338	0.823801	0.538481
	N272	N	0.181255	0.464605	0.916492
	N273	N	0.179053	0.540901	0.085200
	N274	N	0.828808	0.465332	0.086679
	N275	N	0.829826	0.540416	0.918355
	O276	O	0.004102	0.019673	0.031445
	H277	H	0.002518	0.022703	0.028832
	H278	H	0.000629	0.020791	0.028006
	O279	O	0.879638	0.854485	0.814111
	H280	H	0.880996	0.850927	0.819969
	H281	H	0.884691	0.865881	0.808957
	O282	O	0.534114	0.540319	0.535377
	H283	H	0.530441	0.547506	0.532061
	H284	H	0.527554	0.536765	0.542400
	O285	O	1.060585	-0.004914	1.004950
	H286	H	1.046429	-0.002792	1.002910
	H287	H	1.066203	0.003290	1.008424
	O288	O	1.007264	0.054748	0.000618
	H289	H	1.004806	0.056371	-0.009804
	H290	H	1.004215	0.048735	0.011153
	O291	O	0.456464	0.481212	0.584453
	H292	H	0.451937	0.477739	0.595708
	H293	H	0.458968	0.468440	0.579937
	O294	O	1.548125	0.533279	0.614022
	H295	H	1.550414	0.539891	0.612883
	H296	H	1.546166	0.527019	0.610968
	O297	O	-0.469081	-0.460689	-0.509314
	H298	H	-0.468072	-0.469357	-0.498584
	H299	H	-0.466579	-0.452907	-0.502870
	O300	O	0.582657	0.573085	0.473247
	H301	H	0.584362	0.566917	0.480594
	H302	H	0.578536	0.574591	0.474313
	O303	O	0.468065	0.478068	0.540456
	H304	H	0.473120	0.480155	0.527286
	H305	H	0.465865	0.481956	0.542725
	O306	O	0.937916	0.020250	-0.046712
	H307	H	0.931238	0.021597	-0.047671
	H308	H	0.939973	0.019091	-0.055660
	O309	O	-0.003395	0.037099	0.920338
	H310	H	-0.008836	0.020668	0.916697
	H311	H	0.019743	0.027018	0.919780
	O312	O	0.928332	0.988877	0.997490
	H313	H	0.931116	0.984231	1.003151
	H314	H	0.933750	0.990243	0.989058
	O315	O	0.526152	0.456408	0.514833
	H316	H	0.518384	0.458481	0.510835
	H317	H	0.527921	0.458565	0.514009
	O318	O	0.470770	0.519268	0.539894
	H319	H	0.477052	0.525421	0.536666
	H320	H	0.470946	0.515956	0.545934
	O321	O	0.096208	0.991022	0.975181
	H322	H	0.105576	0.994722	0.957034
	H323	H	0.092678	0.995688	0.974724
	O324	O	0.520475	0.504239	0.466729
	H325	H	0.524717	0.506750	0.466773
	H326	H	0.520897	0.508680	0.472935
	O327	O	0.558824	0.534436	0.519143
	H328	H	0.567928	0.546000	0.514990
	H329	H	0.550582	0.527079	0.536076
	O330	O	0.554333	0.462250	0.447555
	H331	H	0.561713	0.466020	0.445817
	H332	H	0.555369	0.455866	0.432692
	O333	O	0.380911	0.405667	0.562627
	H334	H	0.378983	0.406496	0.554825
	H335	H	0.371026	0.402651	0.551917
	O336	O	0.530711	0.389866	0.432893
	H337	H	0.536681	0.378532	0.432461
	H338	H	0.545398	0.390286	0.429704
	O339	O	1.005388	0.957574	0.033114
	H340	H	1.007125	0.950790	0.035128
	H341	H	0.998189	0.958431	0.042876
	O342	O	0.485400	0.489915	0.369549
	H343	H	0.484891	0.502730	0.374575
	H344	H	0.475827	0.483675	0.369749
	O345	O	0.470599	0.521751	0.502441
	H346	H	0.468556	0.522414	0.506278
	H347	H	0.460680	0.519756	0.500742
	O348	O	0.002313	0.028122	-0.079688
	H349	H	0.009273	0.024306	-0.082403
	H350	H	-0.001084	0.034539	-0.074642
	O351	O	0.014395	0.960445	0.949983
	H352	H	-0.003504	0.959652	0.955421
	H353	H	0.018810	0.953252	0.961387
	O354	O	0.478140	0.545423	0.510083
	H355	H	0.474606	0.529324	0.516487
	H356	H	0.482085	0.545103	0.515800
	O357	O	-0.060982	1.008810	0.907618
	H358	H	-0.059810	1.011377	0.909179
	H359	H	-0.069132	1.013522	0.904454
