data_Molecule from HDF5

_cell_length_a		16.014002
_cell_length_b		16.337585
_cell_length_c		16.324261
_cell_angle_alpha	89.814342
_cell_angle_beta	89.756091
_cell_angle_gamma	90.691170
_symmetry_space_group_name_H-M	'P 1'
_symmetry_Int_Tables_number		1

loop_
	_symmetry_equiv_pos_as_xyz
	x,y,z

loop_
	_atom_site_label
	_atom_site_type_symbol
	_atom_site_fract_x
	_atom_site_fract_y
	_atom_site_fract_z
	H0	H	0.395632	0.838822	0.716758
	H1	H	0.605939	0.162482	0.713190
	H2	H	0.599533	0.837485	0.281156
	H3	H	0.401192	0.162201	0.279627
	H4	H	0.712773	0.408630	0.833315
	H5	H	0.715259	0.598129	0.162908
	H6	H	0.290615	0.595805	0.834531
	H7	H	0.285187	0.398901	0.161645
	H8	H	0.836128	0.711960	0.399630
	H9	H	0.165277	0.716679	0.601292
	H10	H	0.835594	0.281998	0.600436
	H11	H	0.166705	0.289412	0.401019
	H12	H	0.835875	0.395720	0.714762
	H13	H	0.166961	0.598519	0.711859
	H14	H	0.836377	0.598190	0.283824
	H15	H	0.165304	0.398819	0.283591
	H16	H	0.401137	0.716885	0.836766
	H17	H	0.603328	0.719361	0.161145
	H18	H	0.604812	0.285012	0.836052
	H19	H	0.397568	0.280026	0.159981
	H20	H	0.711292	0.835488	0.400706
	H21	H	0.716564	0.164124	0.592046
	H22	H	0.284193	0.837311	0.596683
	H23	H	0.291367	0.164105	0.401004
	H24	H	0.894765	0.337507	0.217055
	H25	H	0.107253	0.659857	0.216938
	H26	H	0.101759	0.336578	0.781766
	H27	H	0.899497	0.659432	0.779045
	H28	H	0.212218	0.905724	0.334190
	H29	H	0.216394	0.098371	0.661367
	H30	H	0.792412	0.094497	0.333616
	H31	H	0.784666	0.899923	0.661686
	H32	H	0.334814	0.213468	0.898448
	H33	H	0.667539	0.217443	0.096898
	H34	H	0.336239	0.784448	0.099639
	H35	H	0.667443	0.789843	0.897991
	H36	H	0.336001	0.897769	0.212884
	H37	H	0.667174	0.101900	0.212568
	H38	H	0.335643	0.099259	0.782563
	H39	H	0.667122	0.905541	0.783550
	H40	H	0.899716	0.217338	0.337466
	H41	H	0.104934	0.218827	0.660081
	H42	H	0.104913	0.781479	0.337945
	H43	H	0.896083	0.779667	0.660887
	H44	H	0.214390	0.336179	0.901095
	H45	H	0.217656	0.662609	0.095644
	H46	H	0.782716	0.338123	0.097459
	H47	H	0.794033	0.664536	0.901473
	H48	H	0.420522	0.114046	0.592827
	H49	H	0.598092	0.882878	0.590135
	H50	H	0.588536	0.114391	0.401142
	H51	H	0.398992	0.880876	0.401518
	H52	H	0.584285	0.397990	0.114673
	H53	H	0.590977	0.585878	0.888268
	H54	H	0.412032	0.597608	0.115779
	H55	H	0.416355	0.407031	0.884480
	H56	H	0.119606	0.587306	0.403874
	H57	H	0.882614	0.581303	0.595261
	H58	H	0.120176	0.402590	0.588329
	H59	H	0.882706	0.404661	0.413991
	H60	H	0.117709	0.413255	0.587852
	H61	H	0.879997	0.595371	0.593210
	H62	H	0.121883	0.596842	0.406853
	H63	H	0.883265	0.411824	0.407078
	H64	H	0.407095	0.592813	0.116394
	H65	H	0.588809	0.609499	0.880938
	H66	H	0.602236	0.407942	0.117949
	H67	H	0.407171	0.400007	0.879917
	H68	H	0.599717	0.114608	0.409772
	H69	H	0.588568	0.883111	0.598851
	H70	H	0.406996	0.114828	0.582264
	H71	H	0.414480	0.883341	0.397922
	H72	H	0.908697	0.616925	0.088004
	H73	H	0.097009	0.381033	0.092956
	H74	H	0.093336	0.613487	0.907143
	H75	H	0.907139	0.380445	0.899933
	H76	H	0.094127	0.908233	0.615509
	H77	H	0.095022	0.090523	0.383594
	H78	H	0.918361	0.098580	0.614186
	H79	H	0.908140	0.907758	0.383205
	H80	H	0.619871	0.097532	0.906498
	H81	H	0.379609	0.101637	0.089881
	H82	H	0.621906	0.904653	0.087645
	H83	H	0.382006	0.905878	0.906735
	H84	H	0.617804	0.913653	0.085747
	H85	H	0.389054	0.085014	0.079194
	H86	H	0.617192	0.092142	0.907280
	H87	H	0.382632	0.907638	0.907639
	H88	H	0.900332	0.095184	0.618337
	H89	H	0.089523	0.098809	0.382772
	H90	H	0.088928	0.909280	0.613682
	H91	H	0.914830	0.901567	0.383055
	H92	H	0.098040	0.614939	0.905109
	H93	H	0.087485	0.381840	0.097539
	H94	H	0.909134	0.618187	0.098183
	H95	H	0.912826	0.385591	0.909099
	H96	H	0.405853	0.120924	0.598311
	H97	H	0.585971	0.886854	0.587111
	H98	H	0.601044	0.119995	0.397383
	H99	H	0.408829	0.886781	0.413323
	H100	H	0.586369	0.418657	0.109750
	H101	H	0.611083	0.598068	0.877547
	H102	H	0.413597	0.590698	0.112767
	H103	H	0.405071	0.412187	0.882032
	H104	H	0.117818	0.590568	0.412783
	H105	H	0.885798	0.587820	0.582400
	H106	H	0.121536	0.409653	0.597469
	H107	H	0.879878	0.403131	0.404501
	H108	H	0.918008	0.613632	0.093657
	H109	H	0.089790	0.385141	0.087679
	H110	H	0.093450	0.615339	0.903043
	H111	H	0.902140	0.382349	0.910334
	H112	H	0.090937	0.904326	0.615487
	H113	H	0.099265	0.099300	0.380052
	H114	H	0.911549	0.081301	0.611653
	H115	H	0.905825	0.899879	0.380040
	H116	H	0.619928	0.093625	0.903357
	H117	H	0.382821	0.082465	0.100100
	H118	H	0.621228	0.911478	0.094753
	H119	H	0.382491	0.907502	0.904481
	C120	C	0.379661	0.009016	0.620521
	C121	C	0.622569	0.991706	0.619720
	C122	C	0.623648	0.008469	0.374573
	C123	C	0.379626	0.991713	0.376022
	C124	C	0.622035	0.380150	0.006292
	C125	C	0.625521	0.625860	0.990224
	C126	C	0.381512	0.621685	0.007285
	C127	C	0.378725	0.376783	0.989518
	C128	C	0.010367	0.620016	0.378369
	C129	C	0.991922	0.618935	0.619833
	C130	C	0.010100	0.377493	0.620681
	C131	C	0.991440	0.378398	0.378831
	C132	C	0.880107	0.508708	0.121609
	C133	C	0.123258	0.490185	0.121058
	C134	C	0.123439	0.507123	0.876325
	C135	C	0.880097	0.490664	0.877282
	C136	C	0.121877	0.878623	0.507246
	C137	C	0.123574	0.123670	0.489876
	C138	C	0.881264	0.120404	0.506822
	C139	C	0.878749	0.875127	0.489918
	C140	C	0.509512	0.122648	0.876458
	C141	C	0.493270	0.120766	0.118586
	C142	C	0.510432	0.879729	0.119063
	C143	C	0.492485	0.880282	0.877208
	C144	C	0.377948	0.887043	0.677398
	C145	C	0.623825	0.114324	0.674593
	C146	C	0.620237	0.886002	0.319462
	C147	C	0.381692	0.114033	0.319046
	C148	C	0.676792	0.385739	0.882946
	C149	C	0.678681	0.620614	0.113914
	C150	C	0.327300	0.617435	0.883769
	C151	C	0.323005	0.378553	0.112663
	C152	C	0.885743	0.674513	0.379989
	C153	C	0.116105	0.677532	0.620129
	C154	C	0.885538	0.320054	0.620179
	C155	C	0.116657	0.325144	0.380421
	C156	C	0.885420	0.376703	0.676863
	C157	C	0.116842	0.618889	0.675436
	C158	C	0.886047	0.618273	0.321819
	C159	C	0.116224	0.380046	0.322274
	C160	C	0.382185	0.677892	0.884845
	C161	C	0.623151	0.680859	0.112819
	C162	C	0.622596	0.324524	0.884163
	C163	C	0.378852	0.319599	0.111812
	C164	C	0.675953	0.884954	0.378861
	C165	C	0.679056	0.115099	0.614443
	C166	C	0.322451	0.886110	0.617659
	C167	C	0.326944	0.115018	0.379223
	C168	C	0.877158	0.386345	0.178188
	C169	C	0.125138	0.611995	0.177551
	C170	C	0.121345	0.385223	0.820437
	C171	C	0.881358	0.612080	0.819253
	C172	C	0.176515	0.883060	0.383891
	C173	C	0.179338	0.120000	0.612343
	C174	C	0.828315	0.116209	0.383117
	C175	C	0.822000	0.878324	0.612632
	C176	C	0.384645	0.176591	0.878312
	C177	C	0.617861	0.178778	0.116860
	C178	C	0.385957	0.822312	0.118946
	C179	C	0.617595	0.826734	0.878221
	C180	C	0.385767	0.878870	0.175262
	C181	C	0.617897	0.120973	0.174069
	C182	C	0.384955	0.119649	0.820835
	C183	C	0.617569	0.884154	0.821361
	C184	C	0.881941	0.177408	0.385072
	C185	C	0.123736	0.179734	0.611893
	C186	C	0.122898	0.821396	0.385822
	C187	C	0.877538	0.818590	0.612303
	C188	C	0.177346	0.384800	0.879985
	C189	C	0.180392	0.613207	0.117265
	C190	C	0.821494	0.386400	0.118570
	C191	C	0.828359	0.614474	0.880088
	C192	C	0.404011	0.094344	0.597979
	C193	C	0.598138	0.906514	0.598390
	C194	C	0.602724	0.094215	0.396251
	C195	C	0.401097	0.906062	0.397749
	C196	C	0.597974	0.401711	0.092060
	C197	C	0.603613	0.604263	0.904509
	C198	C	0.404226	0.600010	0.092651
	C199	C	0.402592	0.399566	0.904250
	C200	C	0.097079	0.597892	0.401152
	C201	C	0.905217	0.595012	0.597064
	C202	C	0.097435	0.401546	0.598054
	C203	C	0.904496	0.400155	0.401666
	C204	C	0.904776	0.594065	0.099770
	C205	C	0.098667	0.404721	0.099246
	C206	C	0.101248	0.592648	0.898405
	C207	C	0.901283	0.404955	0.899753
	C208	C	0.098208	0.900750	0.592788
	C209	C	0.101168	0.102523	0.404472
	C210	C	0.903547	0.098039	0.592720
	C211	C	0.902544	0.896822	0.404282
	C212	C	0.596542	0.100930	0.899033
	C213	C	0.406293	0.096872	0.096244
	C214	C	0.597575	0.903189	0.096324
	C215	C	0.405077	0.900861	0.899586
	Zn216	Zn	0.500926	0.001020	0.749082
	Zn217	Zn	0.500776	-0.000024	0.246696
	Zn218	Zn	0.752717	0.501823	-0.001417
	Zn219	Zn	0.251742	0.499388	-0.001100
	Zn220	Zn	0.001324	0.747513	0.499715
	Zn221	Zn	0.001225	0.251309	0.498929
	Zn222	Zn	0.000483	0.498456	0.747504
	Zn223	Zn	0.001333	0.498412	0.251009
	Zn224	Zn	0.501496	0.752949	-0.001489
	Zn225	Zn	0.501212	0.249669	-0.002346
	Zn226	Zn	0.751747	-0.000896	0.497699
	Zn227	Zn	0.250995	0.000480	0.497950
	N228	N	0.412637	0.964504	0.679253
	N229	N	0.589598	0.036742	0.678081
	N230	N	0.588719	0.963816	0.316612
	N231	N	0.413567	0.036212	0.316764
	N232	N	0.676435	0.419652	0.959936
	N233	N	0.680693	0.587409	0.036580
	N234	N	0.326664	0.583171	0.960986
	N235	N	0.322737	0.413290	0.035885
	N236	N	0.964138	0.675774	0.414310
	N237	N	0.037584	0.677677	0.586217
	N238	N	0.964131	0.320576	0.585960
	N239	N	0.038117	0.323981	0.414819
	N240	N	0.963886	0.411956	0.677293
	N241	N	0.038767	0.582794	0.675240
	N242	N	0.964611	0.585255	0.320553
	N243	N	0.037324	0.412428	0.320935
	N244	N	0.415054	0.680711	0.962341
	N245	N	0.591261	0.684334	0.034812
	N246	N	0.589331	0.320981	0.961983
	N247	N	0.412986	0.318293	0.034158
	N248	N	0.678382	0.962140	0.412484
	N249	N	0.678510	0.037863	0.580942
	N250	N	0.323411	0.962930	0.582790
	N251	N	0.325547	0.038103	0.413889
	N252	N	0.913199	0.463297	0.180225
	N253	N	0.090592	0.534512	0.180227
	N254	N	0.088349	0.462552	0.818187
	N255	N	0.912905	0.534110	0.817254
	N256	N	0.176154	0.917716	0.460608
	N257	N	0.179463	0.085875	0.535436
	N258	N	0.827777	0.081310	0.460005
	N259	N	0.822323	0.912576	0.535527
	N260	N	0.463157	0.178618	0.912125
	N261	N	0.539100	0.178687	0.083007
	N262	N	0.464567	0.822543	0.084565
	N263	N	0.538801	0.824157	0.912029
	N264	N	0.464247	0.913976	0.175599
	N265	N	0.539407	0.085861	0.175434
	N266	N	0.463641	0.086966	0.819447
	N267	N	0.538741	0.916719	0.820569
	N268	N	0.913941	0.180019	0.463089
	N269	N	0.089984	0.182207	0.534674
	N270	N	0.089734	0.818497	0.463680
	N271	N	0.911954	0.816319	0.534922
	N272	N	0.178627	0.461729	0.913947
	N273	N	0.179136	0.536374	0.082795
	N274	N	0.823202	0.463348	0.084156
	N275	N	0.827543	0.537988	0.915658
	O276	O	0.495653	0.395144	0.417452
	H277	H	0.501975	0.397459	0.422772
	H278	H	0.494477	0.387132	0.421364
	O279	O	0.538671	0.505607	0.517708
	H280	H	0.531901	0.509810	0.522272
	H281	H	0.538988	0.499212	0.519410
	O282	O	1.102325	0.980048	-0.045289
	H283	H	1.113365	0.979855	-0.040187
	H284	H	1.095517	0.973437	-0.039116
	O285	O	1.020062	-0.104845	0.936999
	H286	H	1.009119	-0.106743	0.938861
	H287	H	1.019202	-0.100597	0.942451
	O288	O	0.568546	0.497012	0.490071
	H289	H	0.569443	0.497187	0.487489
	H290	H	0.560955	0.494861	0.491809
	O291	O	0.607167	0.530791	0.467951
	H292	H	0.610069	0.528253	0.460127
	H293	H	0.611179	0.541241	0.478430
	O294	O	0.447631	0.514918	0.550441
	H295	H	0.445878	0.517948	0.559874
	H296	H	0.441154	0.508503	0.560967
	O297	O	0.087565	0.042982	0.981713
	H298	H	0.081703	0.041958	0.970721
	H299	H	0.087562	0.044841	0.981002
	O300	O	0.434704	0.587332	0.559940
	H301	H	0.443806	0.583350	0.565563
	H302	H	0.432743	0.587754	0.558270
	O303	O	1.092228	0.975185	-0.048139
	H304	H	1.100934	0.974966	-0.045346
	H305	H	1.097077	0.967811	-0.056848
	O306	O	-0.022881	1.023939	0.963174
	H307	H	-0.042551	1.011998	0.965258
	H308	H	-0.025335	1.025990	0.958257
	O309	O	0.381476	0.599951	0.453672
	H310	H	0.380208	0.587499	0.448553
	H311	H	0.396856	0.612437	0.455148
	O312	O	-0.015143	0.036115	0.041303
	H313	H	-0.008426	0.029516	0.042074
	H314	H	-0.019074	0.039145	0.044423
	O315	O	0.960365	0.002840	0.016152
	H316	H	0.963827	0.000493	0.020261
	H317	H	0.958541	-0.003809	0.018193
	O318	O	0.860193	0.932402	1.028393
	H319	H	0.856950	0.918643	1.038947
	H320	H	0.856722	0.950965	1.016583
	O321	O	0.005144	0.086295	0.998483
	H322	H	0.018211	0.091189	0.995850
	H323	H	0.005332	0.087805	1.006009
	O324	O	0.562395	0.555512	0.544606
	H325	H	0.565596	0.557674	0.541301
	H326	H	0.558176	0.560732	0.540397
	O327	O	-0.055309	0.163861	-0.079611
	H328	H	-0.059952	0.167445	-0.090716
	H329	H	-0.061676	0.156554	-0.085022
	O330	O	0.429499	0.549099	0.522240
	H331	H	0.418434	0.550184	0.513179
	H332	H	0.433713	0.537403	0.514758
	O333	O	0.014248	0.988626	0.871888
	H334	H	0.015065	0.994719	0.872471
	H335	H	0.025056	0.986922	0.878113
	O336	O	-0.025529	0.074163	0.033078
	H337	H	-0.022689	0.083986	0.028030
	H338	H	-0.026472	0.071762	0.033327
	O339	O	0.550629	0.607886	0.533119
	H340	H	0.547665	0.617085	0.547929
	H341	H	0.551100	0.597474	0.533390
	O342	O	0.983170	0.879213	1.019874
	H343	H	0.990632	0.880012	1.024951
	H344	H	0.977339	0.857926	1.028156
	O345	O	1.036079	0.945717	-0.000786
	H346	H	1.025662	0.937175	-0.005696
	H347	H	1.033546	0.953659	-0.009566
	O348	O	0.526195	0.480135	0.574461
	H349	H	0.523438	0.481425	0.570528
	H350	H	0.530759	0.477215	0.574972
	O351	O	0.441732	0.482845	0.361886
	H352	H	0.428053	0.484369	0.347503
	H353	H	0.452890	0.480966	0.357155
	O354	O	0.479416	0.465420	0.601587
	H355	H	0.472137	0.467367	0.606404
	H356	H	0.474430	0.466874	0.608663
	O357	O	0.984940	-0.059240	1.051949
	H358	H	0.981324	-0.062411	1.050205
	H359	H	0.985880	-0.062429	1.059188
	O360	O	0.341131	0.390663	0.535605
	H361	H	0.330364	0.387133	0.537291
	H362	H	0.342706	0.397257	0.539386
	O363	O	0.515120	0.408457	0.460733
	H364	H	0.516305	0.390312	0.457251
	H365	H	0.513902	0.403637	0.454944
	O366	O	1.019811	0.929444	1.099807
	H367	H	1.001509	0.926100	1.098835
	H368	H	1.020335	0.925430	1.107595
	O369	O	0.905942	-0.096397	1.034531
	H370	H	0.901668	-0.096383	1.036226
	H371	H	0.895184	-0.087037	1.043494
	O372	O	0.102836	0.032298	0.059650
	H373	H	0.114359	0.033896	0.062311
	H374	H	0.109451	0.039144	0.057653
	O375	O	1.022182	0.057281	0.123231
	H376	H	1.040057	0.057195	0.117020
	H377	H	1.024802	0.066715	0.126457
	O378	O	0.519273	0.609480	0.505280
	H379	H	0.517863	0.609620	0.515832
	H380	H	0.518617	0.612564	0.519649
	O381	O	0.473874	0.563582	0.459166
	H382	H	0.474540	0.571162	0.458462
	H383	H	0.480641	0.575937	0.462867
