data_Molecule from HDF5

_cell_length_a		16.177336
_cell_length_b		16.215459
_cell_length_c		16.327997
_cell_angle_alpha	89.989497
_cell_angle_beta	90.138481
_cell_angle_gamma	89.926111
_symmetry_space_group_name_H-M	'P 1'
_symmetry_Int_Tables_number		1

loop_
	_symmetry_equiv_pos_as_xyz
	x,y,z

loop_
	_atom_site_label
	_atom_site_type_symbol
	_atom_site_fract_x
	_atom_site_fract_y
	_atom_site_fract_z
	H0	H	0.399295	0.838348	0.712163
	H1	H	0.598848	0.166861	0.712996
	H2	H	0.599055	0.838541	0.282756
	H3	H	0.398834	0.165993	0.282413
	H4	H	0.711884	0.404121	0.833907
	H5	H	0.712649	0.598860	0.161468
	H6	H	0.281732	0.602849	0.834842
	H7	H	0.283880	0.404308	0.161797
	H8	H	0.833823	0.717122	0.399834
	H9	H	0.164051	0.714185	0.596333
	H10	H	0.833334	0.289162	0.595390
	H11	H	0.162622	0.288765	0.398994
	H12	H	0.834285	0.402885	0.712189
	H13	H	0.161925	0.602336	0.714387
	H14	H	0.833779	0.602597	0.283879
	H15	H	0.161831	0.402264	0.283392
	H16	H	0.399030	0.716731	0.834302
	H17	H	0.596855	0.717049	0.161700
	H18	H	0.595402	0.288745	0.833766
	H19	H	0.399378	0.286989	0.161657
	H20	H	0.710874	0.837140	0.402381
	H21	H	0.710892	0.168096	0.593657
	H22	H	0.286115	0.837387	0.594651
	H23	H	0.285762	0.167112	0.399841
	H24	H	0.897711	0.338333	0.212615
	H25	H	0.098146	0.665850	0.214301
	H26	H	0.097794	0.338260	0.783561
	H27	H	0.897500	0.665791	0.782357
	H28	H	0.213488	0.903928	0.334542
	H29	H	0.213560	0.099613	0.662232
	H30	H	0.784147	0.100568	0.333791
	H31	H	0.785340	0.904380	0.661330
	H32	H	0.333460	0.215680	0.899368
	H33	H	0.663962	0.214320	0.094620
	H34	H	0.333346	0.789763	0.094274
	H35	H	0.663061	0.789237	0.900419
	H36	H	0.334094	0.902566	0.211665
	H37	H	0.663214	0.100394	0.211180
	H38	H	0.334431	0.102507	0.781810
	H39	H	0.662898	0.902456	0.784278
	H40	H	0.899623	0.216705	0.334174
	H41	H	0.097542	0.217200	0.661110
	H42	H	0.099968	0.785298	0.335191
	H43	H	0.902300	0.788902	0.661739
	H44	H	0.211057	0.337650	0.901674
	H45	H	0.212234	0.666751	0.097250
	H46	H	0.787085	0.337368	0.093779
	H47	H	0.784174	0.666170	0.900117
	H48	H	0.406254	0.117898	0.584681
	H49	H	0.590468	0.885190	0.593703
	H50	H	0.589936	0.120807	0.398717
	H51	H	0.414617	0.887242	0.401779
	H52	H	0.597849	0.411143	0.114925
	H53	H	0.595528	0.583531	0.883498
	H54	H	0.413025	0.595543	0.112146
	H55	H	0.406850	0.415697	0.884883
	H56	H	0.113969	0.593086	0.411468
	H57	H	0.878205	0.600909	0.595905
	H58	H	0.116417	0.409405	0.591367
	H59	H	0.880247	0.406610	0.407558
	H60	H	0.115171	0.409401	0.589410
	H61	H	0.882862	0.597378	0.583060
	H62	H	0.114742	0.588345	0.402481
	H63	H	0.881135	0.414165	0.405628
	H64	H	0.403424	0.601482	0.115912
	H65	H	0.578538	0.599694	0.884351
	H66	H	0.588088	0.408908	0.111998
	H67	H	0.410177	0.402681	0.881762
	H68	H	0.588173	0.118346	0.406746
	H69	H	0.591206	0.886667	0.589078
	H70	H	0.402798	0.121556	0.593800
	H71	H	0.404726	0.886098	0.411817
	H72	H	0.907839	0.618775	0.088598
	H73	H	0.086175	0.386638	0.091899
	H74	H	0.091749	0.618224	0.910411
	H75	H	0.900665	0.380198	0.894302
	H76	H	0.090885	0.911243	0.612258
	H77	H	0.093239	0.099186	0.380141
	H78	H	0.911965	0.098861	0.613228
	H79	H	0.904641	0.912508	0.382338
	H80	H	0.618073	0.104798	0.906301
	H81	H	0.380935	0.099859	0.085819
	H82	H	0.615733	0.912556	0.093374
	H83	H	0.381723	0.909584	0.906700
	H84	H	0.616972	0.907010	0.091833
	H85	H	0.383111	0.088990	0.089483
	H86	H	0.613146	0.088995	0.910387
	H87	H	0.380981	0.913568	0.903051
	H88	H	0.900534	0.099660	0.616773
	H89	H	0.095447	0.093238	0.381157
	H90	H	0.092462	0.904527	0.615434
	H91	H	0.908663	0.907432	0.382476
	H92	H	0.092270	0.621687	0.901640
	H93	H	0.094368	0.385316	0.087927
	H94	H	0.902527	0.620554	0.091044
	H95	H	0.915591	0.387596	0.902247
	H96	H	0.412744	0.118270	0.593286
	H97	H	0.594489	0.884808	0.591621
	H98	H	0.596771	0.120584	0.404969
	H99	H	0.401688	0.881488	0.398431
	H100	H	0.594534	0.402077	0.116356
	H101	H	0.599783	0.605244	0.876833
	H102	H	0.402677	0.590474	0.113138
	H103	H	0.397761	0.407592	0.879707
	H104	H	0.116906	0.597395	0.403266
	H105	H	0.882833	0.588096	0.592361
	H106	H	0.115108	0.411662	0.591208
	H107	H	0.878981	0.408226	0.400414
	H108	H	0.907110	0.619954	0.094348
	H109	H	0.092251	0.383648	0.097030
	H110	H	0.084427	0.617471	0.904873
	H111	H	0.899978	0.384856	0.912154
	H112	H	0.097578	0.909430	0.615445
	H113	H	0.088821	0.094935	0.383040
	H114	H	0.904566	0.089643	0.612384
	H115	H	0.903222	0.906848	0.379427
	H116	H	0.618853	0.092722	0.894829
	H117	H	0.378447	0.096685	0.096714
	H118	H	0.614504	0.910519	0.087549
	H119	H	0.379314	0.908645	0.901277
	C120	C	0.378576	0.010615	0.618589
	C121	C	0.620926	0.994287	0.619782
	C122	C	0.620271	0.010891	0.376036
	C123	C	0.377904	0.993707	0.375816
	C124	C	0.620661	0.379632	0.006146
	C125	C	0.620212	0.624525	0.989585
	C126	C	0.376903	0.624330	0.005955
	C127	C	0.376328	0.379874	0.989965
	C128	C	0.006995	0.623592	0.376687
	C129	C	0.990017	0.623984	0.619685
	C130	C	0.006774	0.381153	0.618977
	C131	C	0.989287	0.380852	0.376097
	C132	C	0.877218	0.510903	0.119282
	C133	C	0.119832	0.493863	0.120698
	C134	C	0.118895	0.510563	0.876892
	C135	C	0.876494	0.493223	0.875535
	C136	C	0.121888	0.879813	0.506648
	C137	C	0.121120	0.124388	0.489557
	C138	C	0.876616	0.124307	0.506026
	C139	C	0.877727	0.881010	0.489467
	C140	C	0.507325	0.124014	0.875578
	C141	C	0.490014	0.123468	0.119105
	C142	C	0.506995	0.880887	0.119244
	C143	C	0.489638	0.881574	0.876018
	C144	C	0.379430	0.887123	0.674186
	C145	C	0.618945	0.117758	0.675123
	C146	C	0.618508	0.887243	0.321393
	C147	C	0.379393	0.117259	0.320564
	C148	C	0.674430	0.383138	0.882660
	C149	C	0.675131	0.620712	0.112654
	C150	C	0.320144	0.622387	0.883543
	C151	C	0.321540	0.383206	0.112991
	C152	C	0.883063	0.679286	0.379320
	C153	C	0.114298	0.677668	0.617090
	C154	C	0.882784	0.326454	0.615960
	C155	C	0.113099	0.325838	0.378728
	C156	C	0.883045	0.383111	0.673791
	C157	C	0.113358	0.622023	0.675902
	C158	C	0.883139	0.622514	0.321454
	C159	C	0.112726	0.382432	0.321065
	C160	C	0.378262	0.679401	0.883287
	C161	C	0.617604	0.679325	0.112700
	C162	C	0.616411	0.325869	0.882728
	C163	C	0.378934	0.324720	0.112783
	C164	C	0.674539	0.886876	0.380580
	C165	C	0.674705	0.118378	0.615856
	C166	C	0.323520	0.886574	0.615378
	C167	C	0.322864	0.117664	0.378748
	C168	C	0.878862	0.387287	0.174186
	C169	C	0.118208	0.616886	0.176440
	C170	C	0.117348	0.387127	0.821647
	C171	C	0.877693	0.616855	0.820586
	C172	C	0.176308	0.882668	0.383485
	C173	C	0.176042	0.121001	0.612945
	C174	C	0.821883	0.121167	0.382798
	C175	C	0.822862	0.883699	0.612671
	C176	C	0.382901	0.178576	0.878386
	C177	C	0.614373	0.177476	0.115720
	C178	C	0.382673	0.826935	0.115368
	C179	C	0.613713	0.826506	0.879588
	C180	C	0.383236	0.882843	0.174046
	C181	C	0.613994	0.120772	0.173667
	C182	C	0.383478	0.122566	0.819874
	C183	C	0.613712	0.882959	0.821832
	C184	C	0.878998	0.179230	0.383037
	C185	C	0.118430	0.179387	0.612451
	C186	C	0.119337	0.824093	0.383776
	C187	C	0.880833	0.826196	0.612767
	C188	C	0.173901	0.386924	0.880230
	C189	C	0.174744	0.617469	0.117901
	C190	C	0.823581	0.386649	0.115264
	C191	C	0.821169	0.616877	0.878863
	C192	C	0.400620	0.096704	0.597001
	C193	C	0.598462	0.907913	0.598072
	C194	C	0.598049	0.097560	0.397156
	C195	C	0.400407	0.907333	0.397567
	C196	C	0.599723	0.401220	0.092130
	C197	C	0.597849	0.602809	0.903905
	C198	C	0.399760	0.602222	0.091450
	C199	C	0.398426	0.402132	0.904348
	C200	C	0.093106	0.599911	0.399198
	C201	C	0.903510	0.601905	0.597199
	C202	C	0.093098	0.403583	0.597163
	C203	C	0.902563	0.403215	0.397972
	C204	C	0.899388	0.597384	0.097693
	C205	C	0.097497	0.407603	0.098750
	C206	C	0.096024	0.597004	0.899067
	C207	C	0.898748	0.406717	0.896727
	C208	C	0.100024	0.901903	0.592195
	C209	C	0.099042	0.102274	0.403549
	C210	C	0.898980	0.102497	0.591949
	C211	C	0.899072	0.902650	0.403902
	C212	C	0.594179	0.101894	0.897340
	C213	C	0.403183	0.101352	0.097179
	C214	C	0.593468	0.903362	0.097485
	C215	C	0.403133	0.904116	0.897440
	Zn216	Zn	0.498903	0.002192	0.747717
	Zn217	Zn	0.498731	0.002127	0.247311
	Zn218	Zn	0.749517	0.501833	-0.002555
	Zn219	Zn	0.247820	0.502538	-0.001701
	Zn220	Zn	-0.000788	0.751736	0.497810
	Zn221	Zn	-0.001657	0.253102	0.497600
	Zn222	Zn	-0.001747	0.502281	0.747730
	Zn223	Zn	-0.002494	0.502199	0.248296
	Zn224	Zn	0.498015	0.753973	-0.002673
	Zn225	Zn	0.498426	0.251052	-0.002330
	Zn226	Zn	0.748470	0.002531	0.497792
	Zn227	Zn	0.250217	0.002286	0.497431
	N228	N	0.413153	0.965015	0.676247
	N229	N	0.586411	0.039338	0.677936
	N230	N	0.585701	0.965500	0.318331
	N231	N	0.412683	0.039154	0.318483
	N232	N	0.677163	0.416150	0.960356
	N233	N	0.676793	0.587288	0.035259
	N234	N	0.319199	0.588664	0.961061
	N235	N	0.319735	0.416873	0.035630
	N236	N	0.961137	0.679870	0.412971
	N237	N	0.036741	0.678899	0.582736
	N238	N	0.960824	0.325279	0.582373
	N239	N	0.035262	0.324793	0.412446
	N240	N	0.961138	0.416512	0.675842
	N241	N	0.034977	0.589026	0.677398
	N242	N	0.961088	0.588446	0.319737
	N243	N	0.034631	0.416001	0.319601
	N244	N	0.412788	0.680738	0.960160
	N245	N	0.584209	0.681810	0.035107
	N246	N	0.584001	0.323416	0.960365
	N247	N	0.412020	0.322610	0.035212
	N248	N	0.675600	0.964919	0.413754
	N249	N	0.676183	0.040575	0.582483
	N250	N	0.322936	0.964277	0.581508
	N251	N	0.321761	0.039838	0.412323
	N252	N	0.911622	0.465484	0.176623
	N253	N	0.084696	0.539025	0.177982
	N254	N	0.084182	0.465341	0.819458
	N255	N	0.911591	0.539063	0.818568
	N256	N	0.178066	0.916600	0.460718
	N257	N	0.177782	0.087532	0.535469
	N258	N	0.820309	0.087756	0.460239
	N259	N	0.820675	0.917027	0.535110
	N260	N	0.460693	0.179439	0.912356
	N261	N	0.536184	0.179080	0.082600
	N262	N	0.460610	0.825580	0.082145
	N263	N	0.535568	0.825510	0.912566
	N264	N	0.461664	0.915638	0.176603
	N265	N	0.535577	0.087853	0.175758
	N266	N	0.461867	0.089134	0.817982
	N267	N	0.535634	0.916524	0.819578
	N268	N	0.912598	0.181081	0.460581
	N269	N	0.085132	0.181573	0.534868
	N270	N	0.086335	0.822313	0.461373
	N271	N	0.914148	0.824261	0.535495
	N272	N	0.174834	0.464741	0.913900
	N273	N	0.176059	0.539867	0.083961
	N274	N	0.822125	0.464566	0.081967
	N275	N	0.820319	0.538957	0.912165
	O276	O	0.475953	0.509147	0.443285
	H277	H	0.475078	0.504399	0.450234
	H278	H	0.482979	0.513711	0.433428
	O279	O	0.510006	0.560530	0.487199
	H280	H	0.511925	0.559670	0.479817
	H281	H	0.514129	0.559894	0.491560
	O282	O	0.453975	0.493207	0.484423
	H283	H	0.445878	0.498434	0.479125
	H284	H	0.455117	0.501304	0.487584
	O285	O	-0.027260	0.995044	1.024897
	H286	H	-0.033027	0.995554	1.027102
	H287	H	-0.032242	0.998923	1.031190
	O288	O	0.466015	0.536433	0.567323
	H289	H	0.477462	0.546691	0.556600
	H290	H	0.463736	0.544176	0.570186
	O291	O	-0.023576	-0.003460	1.060383
	H292	H	-0.021868	-0.004543	1.066516
	H293	H	-0.027025	-0.005673	1.060022
	O294	O	0.518931	0.503796	0.440402
	H295	H	0.524102	0.501102	0.440843
	H296	H	0.521105	0.500303	0.426029
	O297	O	0.493832	0.453720	0.477446
	H298	H	0.491101	0.445032	0.489632
	H299	H	0.494829	0.456170	0.480317
	O300	O	0.501393	0.497071	0.446014
	H301	H	0.500990	0.486252	0.444225
	H302	H	0.507381	0.496722	0.444577
	O303	O	0.432380	0.407237	0.505813
	H304	H	0.424823	0.409103	0.509490
	H305	H	0.435693	0.406632	0.518111
	O306	O	1.023135	-0.007734	1.035677
	H307	H	1.027648	-0.008166	1.028141
	H308	H	1.030424	-0.008123	1.044622
	O309	O	0.523521	0.466609	0.546588
	H310	H	0.519999	0.466847	0.553925
	H311	H	0.521529	0.464084	0.549565
	O312	O	0.486538	0.625554	0.434364
	H313	H	0.483426	0.633677	0.435500
	H314	H	0.487673	0.618938	0.437357
	O315	O	1.003609	0.027592	1.030893
	H316	H	1.001132	0.020662	1.026086
	H317	H	1.010629	0.025416	1.035657
	O318	O	0.006965	0.001096	-0.003887
	H319	H	0.004350	-0.001457	0.003006
	H320	H	0.005829	0.004116	-0.002153
	O321	O	0.488121	0.483942	0.548538
	H322	H	0.478884	0.486339	0.555980
	H323	H	0.488643	0.472636	0.558235
	O324	O	0.984534	-0.042088	-0.022907
	H325	H	0.981141	-0.037861	-0.028417
	H326	H	0.985064	-0.040391	-0.023769
	O327	O	1.019112	0.967191	0.032520
	H328	H	1.014291	0.971327	0.030253
	H329	H	1.024830	0.960687	0.024083
	O330	O	0.517632	0.563277	0.464167
	H331	H	0.513582	0.560759	0.455605
	H332	H	0.510248	0.558584	0.459904
	O333	O	0.417468	0.487947	0.586553
	H334	H	0.414185	0.499842	0.581234
	H335	H	0.415115	0.485990	0.577144
