data_Molecule from HDF5

_cell_length_a		16.282512
_cell_length_b		16.168728
_cell_length_c		16.316772
_cell_angle_alpha	89.940949
_cell_angle_beta	90.007349
_cell_angle_gamma	90.008534
_symmetry_space_group_name_H-M	'P 1'
_symmetry_Int_Tables_number		1

loop_
	_symmetry_equiv_pos_as_xyz
	x,y,z

loop_
	_atom_site_label
	_atom_site_type_symbol
	_atom_site_fract_x
	_atom_site_fract_y
	_atom_site_fract_z
	H0	H	0.401428	0.835197	0.713540
	H1	H	0.602454	0.163105	0.714482
	H2	H	0.600824	0.835262	0.284274
	H3	H	0.401991	0.163116	0.282902
	H4	H	0.715948	0.398875	0.835712
	H5	H	0.715961	0.598700	0.161975
	H6	H	0.285648	0.599818	0.835743
	H7	H	0.284798	0.399581	0.161361
	H8	H	0.836401	0.712819	0.400378
	H9	H	0.164867	0.714332	0.596174
	H10	H	0.836809	0.285527	0.594442
	H11	H	0.164823	0.286973	0.400396
	H12	H	0.837467	0.398941	0.712559
	H13	H	0.164320	0.599061	0.713330
	H14	H	0.837367	0.598456	0.283218
	H15	H	0.163923	0.399214	0.282463
	H16	H	0.403577	0.714052	0.835014
	H17	H	0.597754	0.712487	0.162363
	H18	H	0.599050	0.284849	0.835702
	H19	H	0.403226	0.285908	0.162613
	H20	H	0.715348	0.835847	0.399849
	H21	H	0.716393	0.163975	0.597529
	H22	H	0.287936	0.834148	0.596088
	H23	H	0.287585	0.163587	0.398564
	H24	H	0.902330	0.335349	0.212271
	H25	H	0.100400	0.664396	0.212153
	H26	H	0.100680	0.335403	0.782515
	H27	H	0.900814	0.663680	0.783365
	H28	H	0.217930	0.898715	0.334192
	H29	H	0.218706	0.100319	0.659636
	H30	H	0.785403	0.100633	0.335643
	H31	H	0.786181	0.899262	0.660482
	H32	H	0.337244	0.213395	0.900983
	H33	H	0.665145	0.212471	0.096084
	H34	H	0.337481	0.786636	0.095685
	H35	H	0.665353	0.785415	0.900883
	H36	H	0.338887	0.898654	0.214661
	H37	H	0.664701	0.098665	0.213078
	H38	H	0.338511	0.100686	0.781782
	H39	H	0.665177	0.900368	0.784265
	H40	H	0.904371	0.212496	0.333735
	H41	H	0.099589	0.213795	0.660328
	H42	H	0.099919	0.784863	0.333931
	H43	H	0.902693	0.784799	0.660717
	H44	H	0.215771	0.334935	0.898533
	H45	H	0.214666	0.664100	0.096405
	H46	H	0.787827	0.334942	0.097090
	H47	H	0.787444	0.664073	0.900720
	H48	H	0.400920	0.116355	0.582041
	H49	H	0.593976	0.884245	0.586288
	H50	H	0.584854	0.116606	0.398456
	H51	H	0.410794	0.877378	0.390705
	H52	H	0.595662	0.414444	0.113065
	H53	H	0.592443	0.590655	0.883634
	H54	H	0.404269	0.602519	0.118866
	H55	H	0.402249	0.420676	0.885439
	H56	H	0.114762	0.594782	0.414578
	H57	H	0.881989	0.601113	0.589967
	H58	H	0.114801	0.408773	0.584963
	H59	H	0.884412	0.407036	0.404637
	H60	H	0.116897	0.411768	0.595660
	H61	H	0.888119	0.587588	0.583549
	H62	H	0.115661	0.582603	0.400097
	H63	H	0.884060	0.407216	0.402974
	H64	H	0.399255	0.585900	0.114929
	H65	H	0.594494	0.594769	0.881768
	H66	H	0.587866	0.402147	0.114764
	H67	H	0.423264	0.405973	0.886477
	H68	H	0.593277	0.114480	0.416250
	H69	H	0.599808	0.879941	0.592790
	H70	H	0.408870	0.119948	0.602271
	H71	H	0.422239	0.887394	0.413548
	H72	H	0.903300	0.615953	0.081868
	H73	H	0.086157	0.383784	0.091893
	H74	H	0.092906	0.615133	0.909503
	H75	H	0.911391	0.385373	0.911187
	H76	H	0.097383	0.910236	0.612458
	H77	H	0.104866	0.091118	0.378661
	H78	H	0.914378	0.089431	0.612070
	H79	H	0.907014	0.908514	0.381151
	H80	H	0.618070	0.086346	0.901106
	H81	H	0.387355	0.095201	0.080200
	H82	H	0.613237	0.917390	0.084011
	H83	H	0.387033	0.915529	0.905346
	H84	H	0.622220	0.909267	0.106482
	H85	H	0.387229	0.080078	0.095954
	H86	H	0.620646	0.097885	0.903648
	H87	H	0.382329	0.903763	0.898469
	H88	H	0.908838	0.097477	0.615347
	H89	H	0.090739	0.085702	0.384247
	H90	H	0.091557	0.908292	0.611373
	H91	H	0.909097	0.905706	0.381228
	H92	H	0.097236	0.618440	0.903617
	H93	H	0.096736	0.382816	0.084148
	H94	H	0.903685	0.621371	0.099145
	H95	H	0.901771	0.379568	0.905417
	H96	H	0.421530	0.111948	0.587055
	H97	H	0.590579	0.881859	0.595097
	H98	H	0.604305	0.121166	0.400780
	H99	H	0.396014	0.880110	0.413120
	H100	H	0.602072	0.402216	0.119370
	H101	H	0.597441	0.590777	0.881665
	H102	H	0.416251	0.590585	0.112376
	H103	H	0.401534	0.396226	0.877724
	H104	H	0.121664	0.599394	0.397661
	H105	H	0.883344	0.587686	0.598536
	H106	H	0.119301	0.401323	0.592162
	H107	H	0.883277	0.406216	0.403634
	H108	H	0.918313	0.614391	0.091040
	H109	H	0.096943	0.379944	0.096452
	H110	H	0.090026	0.615879	0.901806
	H111	H	0.912743	0.381384	0.898603
	H112	H	0.095686	0.904534	0.614615
	H113	H	0.092104	0.100788	0.379320
	H114	H	0.904046	0.087651	0.613585
	H115	H	0.906189	0.905385	0.380230
	H116	H	0.614954	0.090440	0.911787
	H117	H	0.379282	0.100247	0.100332
	H118	H	0.620598	0.892961	0.086395
	H119	H	0.385611	0.902808	0.911069
	C120	C	0.380605	0.007704	0.619512
	C121	C	0.623673	0.990701	0.620151
	C122	C	0.622944	0.008478	0.376653
	C123	C	0.380702	0.990583	0.376762
	C124	C	0.623402	0.377413	0.007436
	C125	C	0.623087	0.621243	0.990157
	C126	C	0.378530	0.621916	0.007441
	C127	C	0.379851	0.378326	0.990577
	C128	C	0.009160	0.621516	0.375689
	C129	C	0.992524	0.621247	0.619573
	C130	C	0.009165	0.377843	0.619299
	C131	C	0.992122	0.378113	0.375528
	C132	C	0.879819	0.508632	0.119510
	C133	C	0.121938	0.491155	0.119201
	C134	C	0.122197	0.507829	0.876552
	C135	C	0.879538	0.490939	0.876720
	C136	C	0.123506	0.877922	0.505255
	C137	C	0.124446	0.121915	0.488542
	C138	C	0.880031	0.121095	0.506207
	C139	C	0.879028	0.877538	0.488753
	C140	C	0.510038	0.121033	0.876625
	C141	C	0.492715	0.120513	0.120403
	C142	C	0.510286	0.877823	0.120485
	C143	C	0.492984	0.878210	0.876837
	C144	C	0.381698	0.884043	0.675127
	C145	C	0.622153	0.114177	0.675801
	C146	C	0.620953	0.884657	0.321800
	C147	C	0.382316	0.114166	0.321133
	C148	C	0.678314	0.379209	0.884638
	C149	C	0.677909	0.618875	0.113049
	C150	C	0.323756	0.620071	0.884452
	C151	C	0.323585	0.379857	0.112982
	C152	C	0.885568	0.675781	0.379370
	C153	C	0.115993	0.676352	0.616699
	C154	C	0.885804	0.322751	0.615808
	C155	C	0.115584	0.323728	0.378868
	C156	C	0.886277	0.379339	0.674446
	C157	C	0.115565	0.619289	0.674972
	C158	C	0.885878	0.618794	0.321225
	C159	C	0.115114	0.380006	0.320561
	C160	C	0.382226	0.676853	0.884216
	C161	C	0.619128	0.675384	0.113509
	C162	C	0.619927	0.322585	0.884469
	C163	C	0.382389	0.323254	0.113633
	C164	C	0.677645	0.884724	0.379429
	C165	C	0.678573	0.114629	0.617669
	C166	C	0.325294	0.883673	0.616879
	C167	C	0.325371	0.114376	0.378429
	C168	C	0.882076	0.384676	0.174785
	C169	C	0.120117	0.615133	0.174338
	C170	C	0.120576	0.384280	0.820886
	C171	C	0.881224	0.614571	0.821359
	C172	C	0.179134	0.879246	0.382675
	C173	C	0.179920	0.120090	0.611154
	C174	C	0.823909	0.120150	0.383964
	C175	C	0.824088	0.879496	0.611752
	C176	C	0.386451	0.176243	0.879626
	C177	C	0.616058	0.175279	0.117056
	C178	C	0.386804	0.823460	0.116893
	C179	C	0.616330	0.823098	0.879931
	C180	C	0.387536	0.879261	0.175839
	C181	C	0.615951	0.118390	0.174974
	C182	C	0.387143	0.119949	0.820449
	C183	C	0.616086	0.879734	0.821559
	C184	C	0.883162	0.175574	0.382993
	C185	C	0.121028	0.176770	0.611253
	C186	C	0.120433	0.822832	0.382463
	C187	C	0.881967	0.822328	0.611766
	C188	C	0.178102	0.384206	0.878445
	C189	C	0.177404	0.614859	0.117126
	C190	C	0.825391	0.384223	0.117210
	C191	C	0.824763	0.614953	0.879557
	C192	C	0.403582	0.093667	0.596996
	C193	C	0.601287	0.904312	0.598074
	C194	C	0.600588	0.095198	0.398542
	C195	C	0.403046	0.903934	0.399233
	C196	C	0.601779	0.399645	0.093470
	C197	C	0.601359	0.598706	0.904455
	C198	C	0.400168	0.599649	0.093049
	C199	C	0.402436	0.401023	0.905225
	C200	C	0.095308	0.598879	0.397648
	C201	C	0.906692	0.598962	0.597256
	C202	C	0.094831	0.400582	0.597291
	C203	C	0.906068	0.400206	0.397385
	C204	C	0.901840	0.595092	0.097126
	C205	C	0.099746	0.404543	0.097361
	C206	C	0.100042	0.594183	0.898835
	C207	C	0.901954	0.404457	0.898777
	C208	C	0.101347	0.900928	0.590704
	C209	C	0.102386	0.099129	0.402887
	C210	C	0.902513	0.098290	0.591716
	C211	C	0.900972	0.899926	0.402954
	C212	C	0.595580	0.098253	0.898927
	C213	C	0.406612	0.098321	0.098400
	C214	C	0.596518	0.900095	0.098729
	C215	C	0.407268	0.900800	0.898653
	Zn216	Zn	0.501576	-0.000813	0.747652
	Zn217	Zn	0.501678	-0.000921	0.248756
	Zn218	Zn	0.751932	0.499373	-0.001406
	Zn219	Zn	0.250321	0.499796	-0.001647
	Zn220	Zn	0.000977	0.749479	0.497207
	Zn221	Zn	0.000941	0.249846	0.496905
	Zn222	Zn	0.000607	0.499595	0.748050
	Zn223	Zn	0.000959	0.500096	0.247336
	Zn224	Zn	0.501566	0.749835	-0.001197
	Zn225	Zn	0.501356	0.249080	-0.000749
	Zn226	Zn	0.751091	-0.000243	0.497727
	Zn227	Zn	0.252780	-0.001030	0.497094
	N228	N	0.415403	0.962041	0.676910
	N229	N	0.588398	0.036215	0.677167
	N230	N	0.587431	0.962700	0.320216
	N231	N	0.415870	0.036014	0.320054
	N232	N	0.680457	0.412892	0.962110
	N233	N	0.680434	0.585798	0.035407
	N234	N	0.321340	0.586545	0.961842
	N235	N	0.321944	0.413361	0.035526
	N236	N	0.963316	0.677166	0.412748
	N237	N	0.038498	0.677661	0.582791
	N238	N	0.963384	0.321528	0.582387
	N239	N	0.038166	0.322548	0.412553
	N240	N	0.963954	0.412788	0.676730
	N241	N	0.037886	0.586108	0.676947
	N242	N	0.963631	0.585878	0.318891
	N243	N	0.037307	0.413035	0.318211
	N244	N	0.415597	0.678158	0.961631
	N245	N	0.585834	0.676899	0.036136
	N246	N	0.586324	0.321541	0.961804
	N247	N	0.416513	0.322101	0.036490
	N248	N	0.678969	0.962843	0.412944
	N249	N	0.679733	0.036743	0.583852
	N250	N	0.324504	0.961650	0.582947
	N251	N	0.324240	0.036516	0.412354
	N252	N	0.915472	0.462775	0.175971
	N253	N	0.086159	0.537197	0.175561
	N254	N	0.086725	0.462073	0.819496
	N255	N	0.914595	0.536335	0.819459
	N256	N	0.181011	0.913007	0.460021
	N257	N	0.182044	0.086537	0.533750
	N258	N	0.822040	0.086700	0.461497
	N259	N	0.822111	0.913240	0.534230
	N260	N	0.463860	0.177343	0.913672
	N261	N	0.538602	0.176352	0.083681
	N262	N	0.464147	0.822776	0.083023
	N263	N	0.538798	0.821952	0.913417
	N264	N	0.465346	0.912252	0.178235
	N265	N	0.538061	0.085498	0.177630
	N266	N	0.464819	0.086391	0.818541
	N267	N	0.538621	0.913583	0.819701
	N268	N	0.917512	0.176175	0.460025
	N269	N	0.087277	0.178088	0.533992
	N270	N	0.086447	0.821792	0.459624
	N271	N	0.915471	0.821189	0.534544
	N272	N	0.179211	0.462192	0.912315
	N273	N	0.178601	0.536902	0.083497
	N274	N	0.823902	0.462195	0.083349
	N275	N	0.823714	0.537191	0.913359
	O276	O	1.039576	0.937092	-0.087200
	H277	H	1.050132	0.946371	-0.079382
	H278	H	1.040244	0.928412	-0.098249
	O279	O	0.083452	-0.029444	-0.049410
	H280	H	0.082061	-0.030106	-0.052009
	H281	H	0.088320	-0.026959	-0.049228
	O282	O	0.020172	-0.027575	0.969275
	H283	H	0.017103	-0.022509	0.966401
	H284	H	0.013127	-0.024072	0.967252
	O285	O	0.392408	0.513896	0.560946
	H286	H	0.391986	0.523942	0.563778
	H287	H	0.399911	0.526449	0.559891
	O288	O	0.468306	0.462660	0.564990
	H289	H	0.470951	0.462211	0.571549
	H290	H	0.467711	0.448135	0.562462
	O291	O	0.454826	0.511053	0.549111
	H292	H	0.455485	0.513544	0.551014
	H293	H	0.455666	0.507327	0.553238
	O294	O	0.032943	-0.018230	-0.058646
	H295	H	0.038095	-0.025385	-0.058055
	H296	H	0.034148	-0.017082	-0.064545
	O297	O	0.485009	0.459630	0.620455
	H298	H	0.484678	0.448377	0.631784
	H299	H	0.471185	0.459914	0.617891
	O300	O	0.058997	1.004534	0.987596
	H301	H	0.058210	1.010870	0.987820
	H302	H	0.056244	1.010906	0.982940
	O303	O	0.440187	0.470814	0.536353
	H304	H	0.436014	0.480479	0.536325
	H305	H	0.446464	0.467335	0.532771
	O306	O	0.017576	0.011736	0.930167
	H307	H	0.016904	0.013922	0.922133
	H308	H	0.018434	0.021206	0.932010
	O309	O	0.989230	0.947523	1.023423
	H310	H	0.983756	0.943369	1.022540
	H311	H	0.985909	0.932930	1.024025
	O312	O	0.513375	0.487552	0.572685
	H313	H	0.516086	0.476590	0.579665
	H314	H	0.515003	0.484688	0.577860
	O315	O	0.402014	0.444043	0.599613
	H316	H	0.400751	0.452153	0.589985
	H317	H	0.391342	0.451516	0.597896
	O318	O	0.034824	0.964865	-0.009614
	H319	H	0.032333	0.964118	-0.013579
	H320	H	0.034527	0.955168	-0.008287
	O321	O	1.027699	1.076867	0.038009
	H322	H	1.026223	1.075903	0.032614
	H323	H	1.025354	1.075110	0.042278
