data_Molecule from HDF5

_cell_length_a		16.272339
_cell_length_b		16.272788
_cell_length_c		16.252481
_cell_angle_alpha	90.009913
_cell_angle_beta	90.013173
_cell_angle_gamma	89.948465
_symmetry_space_group_name_H-M	'P 1'
_symmetry_Int_Tables_number		1

loop_
	_symmetry_equiv_pos_as_xyz
	x,y,z

loop_
	_atom_site_label
	_atom_site_type_symbol
	_atom_site_fract_x
	_atom_site_fract_y
	_atom_site_fract_z
	H0	H	0.401893	0.839950	0.714324
	H1	H	0.598110	0.169027	0.715203
	H2	H	0.598016	0.840540	0.286551
	H3	H	0.400854	0.168552	0.285662
	H4	H	0.713298	0.406400	0.836781
	H5	H	0.713908	0.602869	0.164906
	H6	H	0.286568	0.602510	0.836162
	H7	H	0.286537	0.407423	0.165542
	H8	H	0.835903	0.720032	0.402132
	H9	H	0.163280	0.720145	0.598667
	H10	H	0.835358	0.289998	0.599408
	H11	H	0.163972	0.290861	0.403301
	H12	H	0.834652	0.408141	0.714438
	H13	H	0.163398	0.604965	0.716114
	H14	H	0.836054	0.604209	0.286575
	H15	H	0.164347	0.407547	0.287765
	H16	H	0.401876	0.718817	0.836591
	H17	H	0.597903	0.718250	0.164876
	H18	H	0.598987	0.289432	0.837643
	H19	H	0.401368	0.291394	0.165678
	H20	H	0.713676	0.840785	0.402206
	H21	H	0.713351	0.168958	0.597761
	H22	H	0.284767	0.840703	0.598929
	H23	H	0.286615	0.168781	0.403041
	H24	H	0.902854	0.340882	0.215014
	H25	H	0.097903	0.669336	0.214941
	H26	H	0.097998	0.341260	0.786232
	H27	H	0.901195	0.669631	0.788133
	H28	H	0.212526	0.907999	0.335698
	H29	H	0.214544	0.104154	0.664274
	H30	H	0.785650	0.102997	0.336287
	H31	H	0.786279	0.906990	0.664570
	H32	H	0.336032	0.219993	0.902700
	H33	H	0.663900	0.218334	0.098968
	H34	H	0.335885	0.791652	0.098241
	H35	H	0.663972	0.790821	0.903018
	H36	H	0.335632	0.906978	0.215227
	H37	H	0.664141	0.102999	0.215219
	H38	H	0.335299	0.102999	0.786234
	H39	H	0.664356	0.907459	0.787776
	H40	H	0.901548	0.218624	0.336169
	H41	H	0.097387	0.219647	0.664240
	H42	H	0.098382	0.790233	0.336754
	H43	H	0.901530	0.791450	0.664105
	H44	H	0.214698	0.340681	0.902188
	H45	H	0.213860	0.669259	0.098410
	H46	H	0.786069	0.340917	0.098874
	H47	H	0.784213	0.668306	0.902620
	H48	H	0.396965	0.123119	0.593000
	H49	H	0.590897	0.889765	0.590397
	H50	H	0.590848	0.122586	0.401648
	H51	H	0.395836	0.886138	0.412163
	H52	H	0.599797	0.411053	0.120145
	H53	H	0.593850	0.599241	0.883106
	H54	H	0.405360	0.594735	0.116781
	H55	H	0.406540	0.413569	0.884770
	H56	H	0.119859	0.606182	0.402888
	H57	H	0.881633	0.594922	0.601397
	H58	H	0.113590	0.412477	0.591390
	H59	H	0.878098	0.397403	0.403872
	H60	H	0.114237	0.415589	0.594450
	H61	H	0.880394	0.607675	0.593904
	H62	H	0.114240	0.599672	0.417106
	H63	H	0.887470	0.413803	0.420645
	H64	H	0.410352	0.600249	0.117065
	H65	H	0.592851	0.595568	0.884715
	H66	H	0.591232	0.417315	0.115848
	H67	H	0.409316	0.411463	0.885008
	H68	H	0.588636	0.118698	0.411982
	H69	H	0.597673	0.887111	0.593340
	H70	H	0.412183	0.121861	0.601924
	H71	H	0.409083	0.885125	0.396378
	H72	H	0.913177	0.619153	0.094630
	H73	H	0.096925	0.389476	0.090185
	H74	H	0.095668	0.623571	0.903683
	H75	H	0.909448	0.387687	0.902267
	H76	H	0.095872	0.918687	0.616479
	H77	H	0.089496	0.092542	0.386815
	H78	H	0.903412	0.106391	0.620968
	H79	H	0.912420	0.913061	0.385371
	H80	H	0.613890	0.092418	0.909650
	H81	H	0.381559	0.101112	0.096460
	H82	H	0.612878	0.916139	0.086171
	H83	H	0.380307	0.916973	0.892633
	H84	H	0.617672	0.916504	0.102227
	H85	H	0.383907	0.098768	0.090571
	H86	H	0.617102	0.098010	0.903463
	H87	H	0.379674	0.896802	0.910356
	H88	H	0.900564	0.089410	0.616596
	H89	H	0.089422	0.105016	0.382649
	H90	H	0.085494	0.913589	0.613895
	H91	H	0.904420	0.907000	0.380933
	H92	H	0.088630	0.620112	0.908439
	H93	H	0.095961	0.386142	0.099133
	H94	H	0.903471	0.621011	0.088265
	H95	H	0.911446	0.391287	0.912755
	H96	H	0.411550	0.116568	0.585225
	H97	H	0.591425	0.887994	0.597337
	H98	H	0.598983	0.123069	0.409485
	H99	H	0.415370	0.892146	0.414108
	H100	H	0.589209	0.406085	0.118444
	H101	H	0.590235	0.598773	0.884334
	H102	H	0.403271	0.601121	0.119737
	H103	H	0.406064	0.410208	0.884186
	H104	H	0.115557	0.590139	0.403820
	H105	H	0.886231	0.595601	0.587028
	H106	H	0.116208	0.411039	0.594843
	H107	H	0.882590	0.421098	0.397012
	H108	H	0.903620	0.623508	0.099623
	H109	H	0.088441	0.390182	0.094793
	H110	H	0.096928	0.621944	0.912431
	H111	H	0.901001	0.387470	0.910098
	H112	H	0.094549	0.907730	0.618991
	H113	H	0.100176	0.097579	0.381787
	H114	H	0.916514	0.097437	0.613954
	H115	H	0.903174	0.917269	0.383757
	H116	H	0.615594	0.101383	0.911976
	H117	H	0.384506	0.094805	0.096089
	H118	H	0.618471	0.902416	0.093478
	H119	H	0.389058	0.920704	0.918341
	C120	C	0.378506	0.012275	0.621822
	C121	C	0.621651	0.996504	0.622504
	C122	C	0.621117	0.013102	0.379238
	C123	C	0.378559	0.996336	0.379186
	C124	C	0.621660	0.383198	0.009488
	C125	C	0.620908	0.626109	0.992399
	C126	C	0.378094	0.626510	0.009140
	C127	C	0.378565	0.383198	0.993142
	C128	C	0.008001	0.627031	0.379557
	C129	C	0.991060	0.627726	0.622645
	C130	C	0.006811	0.383879	0.622086
	C131	C	0.991442	0.383147	0.379128
	C132	C	0.878405	0.513274	0.122401
	C133	C	0.122233	0.496873	0.123014
	C134	C	0.122099	0.513203	0.879256
	C135	C	0.878278	0.496915	0.879793
	C136	C	0.121160	0.884000	0.508610
	C137	C	0.121412	0.126839	0.492027
	C138	C	0.878145	0.126302	0.508651
	C139	C	0.878147	0.883773	0.491634
	C140	C	0.507503	0.126273	0.879520
	C141	C	0.491706	0.126357	0.122826
	C142	C	0.508221	0.883517	0.122479
	C143	C	0.491432	0.883060	0.878701
	C144	C	0.380862	0.888998	0.676695
	C145	C	0.618693	0.120034	0.677374
	C146	C	0.618341	0.889564	0.324564
	C147	C	0.381173	0.119838	0.324326
	C148	C	0.676144	0.385760	0.886003
	C149	C	0.675844	0.623256	0.116025
	C150	C	0.323625	0.623525	0.885341
	C151	C	0.323978	0.386457	0.116577
	C152	C	0.884818	0.682232	0.381826
	C153	C	0.114462	0.682438	0.619755
	C154	C	0.883822	0.328671	0.619494
	C155	C	0.115225	0.329065	0.382621
	C156	C	0.883735	0.386831	0.677071
	C157	C	0.114385	0.625143	0.677962
	C158	C	0.884819	0.624283	0.324761
	C159	C	0.115260	0.386896	0.325228
	C160	C	0.381248	0.681054	0.885436
	C161	C	0.618503	0.680852	0.115973
	C162	C	0.618907	0.327941	0.886272
	C163	C	0.381171	0.329024	0.116596
	C164	C	0.676184	0.889739	0.381894
	C165	C	0.676358	0.119971	0.619434
	C166	C	0.322723	0.889381	0.619427
	C167	C	0.323689	0.119742	0.382036
	C168	C	0.881324	0.389896	0.177659
	C169	C	0.118638	0.620322	0.177282
	C170	C	0.118835	0.390087	0.824243
	C171	C	0.880543	0.620549	0.825361
	C172	C	0.175662	0.886425	0.384989
	C173	C	0.176592	0.124484	0.615479
	C174	C	0.823426	0.123651	0.385123
	C175	C	0.823915	0.886666	0.615470
	C176	C	0.384621	0.181765	0.882039
	C177	C	0.615069	0.180744	0.119776
	C178	C	0.384605	0.828965	0.119416
	C179	C	0.615019	0.828449	0.882098
	C180	C	0.384681	0.886119	0.177556
	C181	C	0.615126	0.123237	0.177322
	C182	C	0.384187	0.123525	0.824444
	C183	C	0.615264	0.886143	0.824677
	C184	C	0.881139	0.180999	0.385089
	C185	C	0.118570	0.181866	0.615500
	C186	C	0.118397	0.828543	0.385377
	C187	C	0.880914	0.829153	0.615321
	C188	C	0.176500	0.389654	0.882152
	C189	C	0.176425	0.620345	0.119466
	C190	C	0.823583	0.389897	0.119743
	C191	C	0.822408	0.619867	0.882153
	C192	C	0.400578	0.098211	0.599844
	C193	C	0.599721	0.910489	0.600290
	C194	C	0.599169	0.099118	0.401152
	C195	C	0.400426	0.910077	0.401042
	C196	C	0.599852	0.405069	0.095923
	C197	C	0.598987	0.604212	0.906297
	C198	C	0.399770	0.605057	0.095410
	C199	C	0.400938	0.405209	0.906802
	C200	C	0.094320	0.605050	0.401515
	C201	C	0.905126	0.605874	0.600670
	C202	C	0.092425	0.406247	0.600017
	C203	C	0.904981	0.404340	0.400806
	C204	C	0.900242	0.599055	0.100592
	C205	C	0.100294	0.410671	0.101158
	C206	C	0.100353	0.599598	0.901477
	C207	C	0.900692	0.411074	0.901877
	C208	C	0.098651	0.906679	0.594606
	C209	C	0.099654	0.104832	0.406064
	C210	C	0.900353	0.104360	0.594836
	C211	C	0.900059	0.905941	0.405688
	C212	C	0.593504	0.103825	0.901816
	C213	C	0.405544	0.104743	0.100803
	C214	C	0.594133	0.905331	0.100514
	C215	C	0.405221	0.905098	0.900571
	Zn216	Zn	0.499755	0.004472	0.750603
	Zn217	Zn	0.499741	0.004721	0.250829
	Zn218	Zn	0.749440	0.504967	0.000713
	Zn219	Zn	0.250684	0.504744	0.001066
	Zn220	Zn	-0.000341	0.756252	0.500437
	Zn221	Zn	-0.000599	0.254741	0.500594
	Zn222	Zn	-0.000599	0.505613	0.750994
	Zn223	Zn	0.000119	0.505143	0.251295
	Zn224	Zn	0.499986	0.755012	0.001051
	Zn225	Zn	0.499853	0.254781	0.001717
	Zn226	Zn	0.749951	0.004695	0.500450
	Zn227	Zn	0.249772	0.004409	0.500116
	N228	N	0.414966	0.966274	0.678081
	N229	N	0.585524	0.042243	0.679312
	N230	N	0.584915	0.967073	0.322896
	N231	N	0.414495	0.042057	0.322547
	N232	N	0.677832	0.419367	0.963666
	N233	N	0.677425	0.590048	0.038207
	N234	N	0.321669	0.590346	0.963151
	N235	N	0.322273	0.419449	0.038687
	N236	N	0.962407	0.683864	0.415388
	N237	N	0.036773	0.684397	0.586451
	N238	N	0.961513	0.326462	0.586319
	N239	N	0.037271	0.326606	0.415484
	N240	N	0.961195	0.420594	0.678590
	N241	N	0.036712	0.591831	0.679905
	N242	N	0.962569	0.590859	0.323041
	N243	N	0.037447	0.420030	0.323254
	N244	N	0.414362	0.683121	0.963296
	N245	N	0.584869	0.682630	0.038275
	N246	N	0.585711	0.326185	0.964230
	N247	N	0.414570	0.326897	0.038761
	N248	N	0.678182	0.967665	0.415187
	N249	N	0.678058	0.042389	0.585846
	N250	N	0.320932	0.967221	0.586128
	N251	N	0.321937	0.042081	0.415414
	N252	N	0.914604	0.467594	0.179616
	N253	N	0.085628	0.542560	0.179343
	N254	N	0.085730	0.467974	0.822351
	N255	N	0.914790	0.543175	0.823913
	N256	N	0.177112	0.920250	0.462458
	N257	N	0.178346	0.090927	0.537779
	N258	N	0.821351	0.090540	0.462930
	N259	N	0.821747	0.919675	0.537504
	N260	N	0.462263	0.183331	0.915767
	N261	N	0.537266	0.182734	0.086539
	N262	N	0.462286	0.827179	0.085921
	N263	N	0.537169	0.826456	0.914971
	N264	N	0.462328	0.919399	0.179355
	N265	N	0.537345	0.090276	0.179379
	N266	N	0.461828	0.090076	0.822599
	N267	N	0.537454	0.919389	0.822561
	N268	N	0.914370	0.182796	0.463050
	N269	N	0.085153	0.183466	0.537816
	N270	N	0.085294	0.826977	0.463377
	N271	N	0.914067	0.827410	0.537455
	N272	N	0.178580	0.467357	0.915632
	N273	N	0.178694	0.542571	0.086326
	N274	N	0.821817	0.467376	0.086032
	N275	N	0.820893	0.542067	0.915248
	O276	O	-0.012847	0.011082	0.962357
	H277	H	-0.014046	0.005675	0.963870
	H278	H	-0.013565	0.008978	0.955549
	O279	O	0.440608	0.484451	0.565082
	H280	H	0.440077	0.487035	0.561494
	H281	H	0.446875	0.482224	0.559808
	O282	O	0.418402	0.485957	0.600127
	H283	H	0.416871	0.485556	0.602257
	H284	H	0.419584	0.484742	0.591608
	O285	O	0.437738	0.488511	0.574191
	H286	H	0.434546	0.487074	0.582622
	H287	H	0.440669	0.491410	0.582085
	O288	O	0.978569	0.020122	-0.042667
	H289	H	0.974823	0.025726	-0.046197
	H290	H	0.973613	0.010598	-0.030801
	O291	O	-0.021301	1.029975	0.996992
	H292	H	-0.017873	1.033826	1.000205
	H293	H	-0.013830	1.030399	0.990759
	O294	O	0.422027	0.477854	0.575330
	H295	H	0.412457	0.471349	0.578272
	H296	H	0.413240	0.481976	0.580841
	O297	O	1.033097	0.055296	-0.060422
	H298	H	1.034950	0.059124	-0.065150
	H299	H	1.028221	0.055208	-0.069393
