data_Molecule from HDF5

_cell_length_a		16.510567
_cell_length_b		16.540792
_cell_length_c		16.553991
_cell_angle_alpha	89.988953
_cell_angle_beta	90.202725
_cell_angle_gamma	89.927586
_symmetry_space_group_name_H-M	'P 1'
_symmetry_Int_Tables_number		1

loop_
	_symmetry_equiv_pos_as_xyz
	x,y,z

loop_
	_atom_site_label
	_atom_site_type_symbol
	_atom_site_fract_x
	_atom_site_fract_y
	_atom_site_fract_z
	H0	H	0.395792	0.863089	0.707935
	H1	H	0.610095	0.175423	0.706579
	H2	H	0.610453	0.863591	0.261672
	H3	H	0.395632	0.175352	0.260448
	H4	H	0.726275	0.413031	0.827832
	H5	H	0.723397	0.622527	0.141252
	H6	H	0.282236	0.623000	0.826917
	H7	H	0.280752	0.411433	0.140663
	H8	H	0.846601	0.739427	0.381118
	H9	H	0.162851	0.738594	0.589798
	H10	H	0.849766	0.294304	0.592490
	H11	H	0.161476	0.298623	0.380350
	H12	H	0.848235	0.412235	0.706209
	H13	H	0.160718	0.624892	0.708218
	H14	H	0.846254	0.622741	0.265075
	H15	H	0.161327	0.414366	0.264162
	H16	H	0.397360	0.739484	0.827031
	H17	H	0.609460	0.740594	0.140061
	H18	H	0.607988	0.298727	0.826466
	H19	H	0.398277	0.296265	0.141321
	H20	H	0.726333	0.863576	0.378478
	H21	H	0.727570	0.174646	0.591994
	H22	H	0.282378	0.862236	0.588389
	H23	H	0.280467	0.176095	0.376891
	H24	H	0.896843	0.364016	0.208379
	H25	H	0.111290	0.675399	0.207260
	H26	H	0.109887	0.363264	0.761184
	H27	H	0.895169	0.674249	0.759555
	H28	H	0.225278	0.914080	0.328520
	H29	H	0.230564	0.128080	0.638809
	H30	H	0.778904	0.127728	0.330182
	H31	H	0.780306	0.911141	0.640116
	H32	H	0.347081	0.241551	0.878794
	H33	H	0.660602	0.241016	0.089850
	H34	H	0.347591	0.797398	0.088898
	H35	H	0.659776	0.796657	0.877724
	H36	H	0.348110	0.912935	0.206334
	H37	H	0.660118	0.125482	0.206437
	H38	H	0.348134	0.126846	0.760317
	H39	H	0.660924	0.915344	0.764860
	H40	H	0.895646	0.243937	0.329897
	H41	H	0.114376	0.245215	0.638555
	H42	H	0.111250	0.795703	0.329700
	H43	H	0.899111	0.797402	0.641548
	H44	H	0.226737	0.362454	0.877275
	H45	H	0.226520	0.675042	0.091146
	H46	H	0.781628	0.363286	0.090036
	H47	H	0.780723	0.675088	0.876334
	H48	H	0.424646	0.130332	0.580279
	H49	H	0.592532	0.906545	0.575850
	H50	H	0.588634	0.128755	0.400879
	H51	H	0.413883	0.908094	0.395688
	H52	H	0.593515	0.429647	0.096738
	H53	H	0.591385	0.607968	0.872009
	H54	H	0.411954	0.610706	0.098244
	H55	H	0.413192	0.429288	0.871623
	H56	H	0.118136	0.608908	0.392870
	H57	H	0.889962	0.609593	0.576741
	H58	H	0.118033	0.420912	0.564893
	H59	H	0.892095	0.428428	0.397465
	H60	H	0.108977	0.443748	0.565486
	H61	H	0.893281	0.611226	0.567856
	H62	H	0.117694	0.611010	0.396767
	H63	H	0.892764	0.433687	0.398036
	H64	H	0.413829	0.602397	0.094291
	H65	H	0.591761	0.608337	0.870894
	H66	H	0.593130	0.431051	0.095198
	H67	H	0.414051	0.432749	0.873346
	H68	H	0.594712	0.132501	0.396694
	H69	H	0.589208	0.908221	0.572681
	H70	H	0.419691	0.125443	0.562506
	H71	H	0.416220	0.907022	0.394459
	H72	H	0.917572	0.630499	0.074405
	H73	H	0.093934	0.407163	0.073780
	H74	H	0.091408	0.630603	0.896718
	H75	H	0.915139	0.406092	0.895328
	H76	H	0.093268	0.930845	0.597215
	H77	H	0.093883	0.109820	0.371010
	H78	H	0.916494	0.106573	0.596385
	H79	H	0.918628	0.931858	0.375413
	H80	H	0.616494	0.106278	0.893499
	H81	H	0.393720	0.107389	0.066258
	H82	H	0.618967	0.926726	0.075652
	H83	H	0.392999	0.929271	0.902766
	H84	H	0.615331	0.929235	0.068028
	H85	H	0.391755	0.102961	0.075799
	H86	H	0.617342	0.110253	0.894921
	H87	H	0.390966	0.936986	0.890879
	H88	H	0.917647	0.103665	0.593774
	H89	H	0.093129	0.103758	0.373949
	H90	H	0.093882	0.929917	0.597214
	H91	H	0.915178	0.925300	0.371488
	H92	H	0.093446	0.630518	0.896398
	H93	H	0.089511	0.407443	0.074964
	H94	H	0.913582	0.630900	0.070195
	H95	H	0.918429	0.409048	0.895212
	H96	H	0.407308	0.135028	0.572748
	H97	H	0.593778	0.907348	0.571195
	H98	H	0.587656	0.130832	0.392995
	H99	H	0.416482	0.908546	0.396309
	H100	H	0.591303	0.429663	0.096352
	H101	H	0.592243	0.607564	0.870418
	H102	H	0.420608	0.608866	0.094927
	H103	H	0.416110	0.429703	0.873164
	H104	H	0.116788	0.606669	0.396634
	H105	H	0.894961	0.602998	0.572156
	H106	H	0.120029	0.434582	0.586051
	H107	H	0.890901	0.431512	0.393365
	H108	H	0.912550	0.632904	0.075548
	H109	H	0.090508	0.408402	0.070081
	H110	H	0.092783	0.630963	0.894972
	H111	H	0.916057	0.408463	0.898688
	H112	H	0.094020	0.930753	0.597533
	H113	H	0.088177	0.108262	0.374016
	H114	H	0.920620	0.106963	0.595144
	H115	H	0.910856	0.932236	0.371972
	H116	H	0.615590	0.107760	0.897941
	H117	H	0.389028	0.113161	0.073499
	H118	H	0.615602	0.934915	0.074952
	H119	H	0.387217	0.922741	0.891279
	C120	C	0.383408	0.027214	0.605230
	C121	C	0.625399	1.010423	0.606377
	C122	C	0.624406	0.027925	0.363297
	C123	C	0.381887	1.010878	0.362279
	C124	C	0.625114	0.397729	-0.007598
	C125	C	0.624711	0.640458	0.974655
	C126	C	0.382349	0.639806	-0.007618
	C127	C	0.382187	0.397461	0.975866
	C128	C	0.013048	0.640995	0.363130
	C129	C	0.996252	0.640384	0.605810
	C130	C	0.013128	0.398442	0.605407
	C131	C	0.995696	0.398725	0.363467
	C132	C	0.882237	0.528039	0.105958
	C133	C	0.124705	0.510734	0.105655
	C134	C	0.125190	0.527222	0.863025
	C135	C	0.882805	0.510603	0.862709
	C136	C	0.125798	0.898179	0.493670
	C137	C	0.125907	0.140836	0.475558
	C138	C	0.883852	0.139767	0.492613
	C139	C	0.882184	0.897161	0.476255
	C140	C	0.512508	0.140963	0.862996
	C141	C	0.495153	0.140745	0.105131
	C142	C	0.512783	0.898069	0.105078
	C143	C	0.494750	0.898052	0.862936
	C144	C	0.379059	0.909758	0.666565
	C145	C	0.628599	0.128101	0.666925
	C146	C	0.628006	0.910533	0.302163
	C147	C	0.378227	0.128560	0.301109
	C148	C	0.685308	0.395201	0.874446
	C149	C	0.684125	0.641533	0.093507
	C150	C	0.322039	0.641545	0.874312
	C151	C	0.321442	0.393959	0.093855
	C152	C	0.894217	0.700070	0.362008
	C153	C	0.115034	0.699600	0.608426
	C154	C	0.896171	0.335579	0.609804
	C155	C	0.114099	0.338591	0.361630
	C156	C	0.895398	0.394365	0.666336
	C157	C	0.114224	0.642887	0.667286
	C158	C	0.893867	0.642001	0.304335
	C159	C	0.113911	0.396188	0.303712
	C160	C	0.379516	0.699547	0.874315
	C161	C	0.627225	0.700230	0.093003
	C162	C	0.626703	0.338067	0.873951
	C163	C	0.379670	0.336308	0.093921
	C164	C	0.685473	0.910485	0.360628
	C165	C	0.686916	0.127819	0.609843
	C166	C	0.322291	0.909346	0.607433
	C167	C	0.320689	0.128617	0.359085
	C168	C	0.879096	0.410586	0.167252
	C169	C	0.128635	0.628170	0.167021
	C170	C	0.127901	0.409807	0.801692
	C171	C	0.878436	0.627628	0.800847
	C172	C	0.185731	0.895689	0.375685
	C173	C	0.188970	0.145458	0.592284
	C174	C	0.820456	0.144848	0.376499
	C175	C	0.821009	0.893789	0.593369
	C176	C	0.394251	0.201506	0.860098
	C177	C	0.613265	0.201407	0.108415
	C178	C	0.394794	0.837282	0.107792
	C179	C	0.612922	0.837302	0.860079
	C180	C	0.394869	0.894957	0.165631
	C181	C	0.613039	0.143932	0.166425
	C182	C	0.394684	0.144401	0.801554
	C183	C	0.613300	0.896089	0.803754
	C184	C	0.878603	0.202558	0.376185
	C185	C	0.131177	0.203474	0.592393
	C186	C	0.128974	0.836929	0.376242
	C187	C	0.880181	0.837018	0.594135
	C188	C	0.185879	0.409508	0.859471
	C189	C	0.186240	0.628050	0.109162
	C190	C	0.821905	0.410189	0.108536
	C191	C	0.821179	0.627933	0.859078
	C192	C	0.409499	0.108828	0.579223
	C193	C	0.599362	0.928649	0.580506
	C194	C	0.597972	0.109506	0.389246
	C195	C	0.408012	0.929038	0.388019
	C196	C	0.599947	0.422926	0.074581
	C197	C	0.599129	0.615266	0.892474
	C198	C	0.408176	0.614485	0.074590
	C199	C	0.407283	0.423074	0.894227
	C200	C	0.096028	0.616017	0.388031
	C201	C	0.914160	0.615246	0.579856
	C202	C	0.094435	0.425212	0.579399
	C203	C	0.913316	0.424006	0.388812
	C204	C	0.907445	0.609996	0.080433
	C205	C	0.098564	0.428898	0.080080
	C206	C	0.099909	0.609341	0.888808
	C207	C	0.909290	0.428863	0.888700
	C208	C	0.100559	0.923531	0.575790
	C209	C	0.099081	0.114718	0.394026
	C210	C	0.910839	0.113355	0.573826
	C211	C	0.907636	0.922681	0.394243
	C212	C	0.594880	0.115378	0.888248
	C213	C	0.413026	0.115173	0.079194
	C214	C	0.595073	0.923160	0.079897
	C215	C	0.412135	0.922642	0.887836
	Zn216	Zn	0.503911	0.019239	0.734833
	Zn217	Zn	0.503373	0.019832	0.233720
	Zn218	Zn	0.753873	0.518995	-0.016516
	Zn219	Zn	0.253555	0.518729	-0.015614
	Zn220	Zn	0.004989	0.769129	0.485475
	Zn221	Zn	0.004484	0.269853	0.484690
	Zn222	Zn	0.003832	0.518998	0.734114
	Zn223	Zn	0.003880	0.519806	0.234628
	Zn224	Zn	0.503223	0.769461	-0.016408
	Zn225	Zn	0.503969	0.268922	-0.015992
	Zn226	Zn	0.753833	0.019492	0.484794
	Zn227	Zn	0.254403	0.019541	0.484347
	N228	N	0.416219	0.984038	0.665465
	N229	N	0.591219	0.053934	0.665106
	N230	N	0.590546	0.984773	0.303827
	N231	N	0.415584	0.054315	0.302738
	N232	N	0.684602	0.431251	0.949151
	N233	N	0.683033	0.605119	0.018763
	N234	N	0.323668	0.605130	0.948904
	N235	N	0.322683	0.431073	0.019584
	N236	N	0.969528	0.699778	0.397688
	N237	N	0.040651	0.698150	0.571028
	N238	N	0.970323	0.337966	0.572898
	N239	N	0.039369	0.339722	0.397825
	N240	N	0.969072	0.433018	0.663727
	N241	N	0.039306	0.606958	0.665998
	N242	N	0.968942	0.606490	0.304683
	N243	N	0.039058	0.432662	0.304620
	N244	N	0.416400	0.698759	0.948860
	N245	N	0.591129	0.699733	0.018049
	N246	N	0.590064	0.339403	0.948407
	N247	N	0.416627	0.338208	0.019717
	N248	N	0.683596	0.984473	0.397850
	N249	N	0.685099	0.053503	0.572873
	N250	N	0.324757	0.983473	0.570025
	N251	N	0.322956	0.054455	0.396351
	N252	N	0.915910	0.484797	0.165781
	N253	N	0.091074	0.554160	0.164965
	N254	N	0.090805	0.484139	0.803774
	N255	N	0.916083	0.553615	0.803082
	N256	N	0.183961	0.932946	0.449721
	N257	N	0.185726	0.107260	0.518743
	N258	N	0.823589	0.106577	0.449941
	N259	N	0.821961	0.930279	0.518845
	N260	N	0.468511	0.199515	0.897356
	N261	N	0.538820	0.199699	0.071275
	N262	N	0.469286	0.838783	0.071039
	N263	N	0.538032	0.838134	0.895907
	N264	N	0.469274	0.931857	0.164327
	N265	N	0.538485	0.107118	0.164681
	N266	N	0.469254	0.107528	0.803199
	N267	N	0.538628	0.932868	0.805183
	N268	N	0.917571	0.199382	0.449499
	N269	N	0.092827	0.200878	0.518630
	N270	N	0.092366	0.838247	0.450689
	N271	N	0.917559	0.838957	0.520105
	N272	N	0.184173	0.483499	0.896918
	N273	N	0.184228	0.553831	0.071766
	N274	N	0.823727	0.484191	0.070956
	N275	N	0.823801	0.554102	0.896890
	O276	O	1.085645	1.180663	0.202266
	H277	H	1.090554	1.207550	0.223028
	H278	H	1.079403	1.193354	0.187673
	O279	O	0.210665	-0.081183	1.106641
	H280	H	0.209365	-0.072987	1.076593
	H281	H	0.207706	-0.052157	1.117312
	O282	O	0.291203	0.337675	0.559308
	H283	H	0.292657	0.340984	0.560216
	H284	H	0.277625	0.314016	0.551712
	O285	O	0.440358	0.305743	0.700220
	H286	H	0.415827	0.290945	0.713535
	H287	H	0.417684	0.302692	0.708566
	O288	O	1.311100	-0.287955	1.286476
	H289	H	1.305444	-0.270092	1.293655
	H290	H	1.291152	-0.283939	1.294297
	O291	O	0.342364	0.352305	0.349083
	H292	H	0.355151	0.374733	0.350632
	H293	H	0.356572	0.358078	0.353766
	O294	O	-0.128542	0.846200	-1.133589
	H295	H	-0.144806	0.834178	-1.134131
	H296	H	-0.109748	0.854177	-1.117669
	O297	O	0.326821	-0.467488	-0.338189
	H298	H	0.334779	-0.464088	-0.329029
	H299	H	0.333183	-0.462432	-0.332258
	O300	O	-0.166612	-0.041792	0.130520
	H301	H	-0.166520	-0.018075	0.113325
	H302	H	-0.187482	-0.038653	0.155764
	O303	O	-0.183691	0.156389	-0.125981
	H304	H	-0.192431	0.165662	-0.130746
	H305	H	-0.179697	0.164286	-0.136875
	O306	O	1.103858	-0.201815	1.015840
	H307	H	1.090888	-0.187819	1.020248
	H308	H	1.091981	-0.201607	1.019178
	O309	O	0.420374	0.472251	0.266660
	H310	H	0.417191	0.482795	0.269573
	H311	H	0.421031	0.479874	0.268732
	O312	O	0.086120	0.024509	-0.029067
	H313	H	0.093681	0.035408	-0.033527
	H314	H	0.083163	0.026316	-0.017367
	O315	O	0.972177	0.245397	1.022243
	H316	H	0.972532	0.251014	1.007640
	H317	H	0.965784	0.244222	1.003817
	O318	O	0.309704	0.657302	0.464421
	H319	H	0.314976	0.639759	0.479044
	H320	H	0.306238	0.667028	0.472904
	O321	O	-0.133484	1.152327	0.826592
	H322	H	-0.132221	1.123946	0.828874
	H323	H	-0.099591	1.155667	0.825260
	O324	O	0.779372	-0.180521	0.998485
	H325	H	0.757621	-0.188657	1.005142
	H326	H	0.772219	-0.180475	1.018811
	O327	O	1.213464	-0.189061	0.910700
	H328	H	1.223043	-0.205867	0.917049
	H329	H	1.196912	-0.197508	0.927230
	O330	O	0.115764	0.127978	0.768654
	H331	H	0.121000	0.111456	0.766958
	H332	H	0.114508	0.111799	0.779174
	O333	O	0.705572	0.642535	0.359111
	H334	H	0.706010	0.636663	0.384096
	H335	H	0.681677	0.637306	0.380498
	O336	O	0.972914	-0.205150	1.209035
	H337	H	0.952961	-0.224762	1.230771
	H338	H	0.978210	-0.196723	1.224216
	O339	O	0.525435	0.374351	0.313254
	H340	H	0.525581	0.358774	0.305631
	H341	H	0.509333	0.384404	0.314319
	O342	O	-0.052878	1.033704	0.035807
	H343	H	-0.062395	1.030324	0.047506
	H344	H	-0.053820	1.031129	0.041555
	O345	O	0.573858	0.454891	0.670724
	H346	H	0.576563	0.444765	0.655724
	H347	H	0.582464	0.433907	0.681942
	O348	O	-0.008243	0.995134	0.764511
	H349	H	-0.006729	0.960071	0.756321
	H350	H	0.010113	0.997402	0.780529
	O351	O	0.182611	0.222576	0.997069
	H352	H	0.188924	0.229834	1.005255
	H353	H	0.189482	0.224453	1.002129
	O354	O	1.498270	-0.451724	1.511203
	H355	H	1.487348	-0.438764	1.517759
	H356	H	1.492880	-0.450649	1.527595
	O357	O	0.520498	0.642784	0.530201
	H358	H	0.514675	0.636201	0.541736
	H359	H	0.515515	0.636039	0.536271
	O360	O	0.677270	0.476145	0.537275
	H361	H	0.670914	0.469051	0.535593
	H362	H	0.675208	0.475590	0.542043
	O363	O	0.426025	0.299098	0.485174
	H364	H	0.438833	0.300432	0.476361
	H365	H	0.427744	0.293735	0.496957
	O366	O	0.787159	0.039908	1.028445
	H367	H	0.798065	0.053930	1.019319
	H368	H	0.792174	0.042113	0.997948
	O369	O	0.126752	0.224919	0.866449
	H370	H	0.106411	0.216887	0.852896
	H371	H	0.146734	0.228056	0.867025
	O372	O	0.481867	1.435107	0.514441
	H373	H	0.493089	1.426505	0.509782
	H374	H	0.479232	1.434790	0.529547
	O375	O	1.144798	-0.139733	-0.215199
	H376	H	1.132287	-0.155009	-0.196214
	H377	H	1.125547	-0.147717	-0.197719
	O378	O	1.217549	1.107416	1.199257
	H379	H	1.231138	1.116547	1.227112
	H380	H	1.216514	1.109229	1.186010
	O381	O	0.223199	1.065953	-0.063841
	H382	H	0.227609	1.085763	-0.071027
	H383	H	0.225196	1.070209	-0.080861
	O384	O	0.496183	0.563377	0.562807
	H385	H	0.505042	0.550067	0.558605
	H386	H	0.498061	0.578963	0.571954
	O387	O	0.220539	1.003544	0.766244
	H388	H	0.220596	0.976171	0.764749
	H389	H	0.235393	0.977781	0.750102
	O390	O	-0.102679	1.020655	1.182894
	H391	H	-0.104279	1.016177	1.179073
	H392	H	-0.108228	1.026588	1.202203
	O393	O	1.145224	-0.105908	0.093091
	H394	H	1.139488	-0.089277	0.074720
	H395	H	1.133258	-0.099292	0.078391
	O396	O	1.203204	0.219872	0.117625
	H397	H	1.218720	0.209503	0.127952
	H398	H	1.182883	0.222966	0.113628
	O399	O	-0.046592	0.039031	1.083691
	H400	H	-0.048445	0.035469	1.070335
	H401	H	-0.036929	0.044964	1.081738
	O402	O	0.941924	0.018425	0.960536
	H403	H	0.941832	0.022211	0.951779
	H404	H	0.944872	0.016092	0.955850
	O405	O	0.691414	0.282148	0.606440
	H406	H	0.696812	0.259685	0.620461
	H407	H	0.700989	0.287704	0.593669
	O408	O	0.805873	0.981470	0.778843
	H409	H	0.793315	0.988126	0.760678
	H410	H	0.838035	0.973480	0.781960
	O411	O	1.580863	1.726222	0.402476
	H412	H	1.568803	1.722372	0.395551
	H413	H	1.559389	1.725467	0.405895
	O414	O	-0.178523	0.165129	0.170155
	H415	H	-0.173130	0.149547	0.162432
	H416	H	-0.170734	0.175349	0.167460
	O417	O	-0.692714	-0.331394	0.537478
	H418	H	-0.688934	-0.327041	0.525058
	H419	H	-0.696273	-0.343854	0.539523
	O420	O	1.030097	-0.193022	0.768828
	H421	H	1.017121	-0.215618	0.776444
	H422	H	1.019937	-0.209854	0.780087
	O423	O	1.054811	0.947838	0.200558
	H424	H	1.044022	0.965302	0.203018
	H425	H	1.061097	0.951758	0.199470
	O426	O	0.294166	0.392608	0.629256
	H427	H	0.284627	0.391227	0.604530
	H428	H	0.292926	0.432474	0.620764
	O429	O	0.808524	0.816667	0.178888
	H430	H	0.821947	0.829738	0.172758
	H431	H	0.794187	0.816998	0.203142
	O432	O	1.534671	-0.427209	1.285874
	H433	H	1.547774	-0.431435	1.276760
	H434	H	1.527829	-0.406269	1.291940
	O435	O	-0.031405	0.805654	0.973198
	H436	H	-0.050650	0.806097	0.987520
	H437	H	-0.038464	0.816858	0.995684
	O438	O	0.476235	0.521668	0.676282
	H439	H	0.496203	0.516133	0.681488
	H440	H	0.486692	0.498885	0.672020
	O441	O	0.313677	0.495641	0.339859
	H442	H	0.308030	0.501301	0.340420
	H443	H	0.313630	0.511210	0.327629
	O444	O	0.478982	0.736094	0.272138
	H445	H	0.474560	0.756412	0.243051
	H446	H	0.450061	0.726524	0.274829
	O447	O	0.694455	0.711514	0.678949
	H448	H	0.692904	0.679630	0.684268
	H449	H	0.708424	0.724378	0.644092
	O450	O	0.716257	0.733170	-0.486198
	H451	H	0.742481	0.768537	-0.487977
	H452	H	0.682028	0.738019	-0.507612
	O453	O	-0.291955	0.385312	0.539468
	H454	H	-0.304717	0.408765	0.518665
	H455	H	-0.281087	0.369774	0.522671
	O456	O	-0.102246	1.229800	1.052135
	H457	H	-0.099452	1.212506	1.050639
	H458	H	-0.120879	1.256525	1.051850
	O459	O	0.529478	0.737020	0.699369
	H460	H	0.547949	0.750511	0.712033
	H461	H	0.545981	0.741526	0.709240
	O462	O	0.701482	0.325843	0.287622
	H463	H	0.706525	0.331551	0.275961
	H464	H	0.666008	0.330454	0.277872
	O465	O	0.615281	0.414994	0.316476
	H466	H	0.618651	0.414304	0.307157
	H467	H	0.620673	0.423301	0.310630
	O468	O	-0.283624	0.494229	-0.643526
	H469	H	-0.279697	0.498914	-0.628601
	H470	H	-0.272778	0.485729	-0.641175
	O471	O	0.370699	0.472180	0.522939
	H472	H	0.376397	0.478353	0.519469
	H473	H	0.374379	0.461499	0.518476
	O474	O	0.985166	1.230817	-0.231077
	H475	H	1.001795	1.208438	-0.231577
	H476	H	0.985257	1.251793	-0.254650
	O477	O	0.712843	0.558320	0.659130
	H478	H	0.709560	0.552651	0.655931
	H479	H	0.732405	0.543168	0.679403
