data_Molecule from HDF5

_cell_length_a		16.129602
_cell_length_b		16.243622
_cell_length_c		16.298112
_cell_angle_alpha	90.112124
_cell_angle_beta	90.292861
_cell_angle_gamma	90.009707
_symmetry_space_group_name_H-M	'P 1'
_symmetry_Int_Tables_number		1

loop_
	_symmetry_equiv_pos_as_xyz
	x,y,z

loop_
	_atom_site_label
	_atom_site_type_symbol
	_atom_site_fract_x
	_atom_site_fract_y
	_atom_site_fract_z
	H0	H	0.402702	0.841287	0.718474
	H1	H	0.606931	0.166492	0.720717
	H2	H	0.603067	0.840319	0.286644
	H3	H	0.402493	0.166608	0.285315
	H4	H	0.719769	0.403042	0.840819
	H5	H	0.719201	0.601180	0.167881
	H6	H	0.290302	0.599243	0.840045
	H7	H	0.292614	0.405332	0.168729
	H8	H	0.838978	0.715967	0.404514
	H9	H	0.167628	0.719944	0.605912
	H10	H	0.839162	0.289170	0.603313
	H11	H	0.169234	0.289754	0.406300
	H12	H	0.840744	0.403956	0.719139
	H13	H	0.168579	0.604889	0.719975
	H14	H	0.840602	0.603305	0.288852
	H15	H	0.169305	0.404394	0.291598
	H16	H	0.403962	0.715713	0.840055
	H17	H	0.607058	0.720064	0.165635
	H18	H	0.603091	0.287390	0.840280
	H19	H	0.406517	0.286887	0.167319
	H20	H	0.716065	0.839558	0.404365
	H21	H	0.718338	0.167523	0.602722
	H22	H	0.292129	0.839604	0.597079
	H23	H	0.290173	0.168733	0.403303
	H24	H	0.905746	0.340466	0.220254
	H25	H	0.106882	0.667700	0.221998
	H26	H	0.105751	0.340709	0.788212
	H27	H	0.902324	0.667046	0.787633
	H28	H	0.217056	0.905602	0.338545
	H29	H	0.218769	0.102563	0.666104
	H30	H	0.789936	0.101420	0.338351
	H31	H	0.789077	0.905817	0.665915
	H32	H	0.340582	0.217348	0.903253
	H33	H	0.668346	0.216215	0.103716
	H34	H	0.340016	0.788051	0.100571
	H35	H	0.669633	0.788306	0.904497
	H36	H	0.339010	0.902719	0.215865
	H37	H	0.666894	0.104317	0.218538
	H38	H	0.339866	0.102113	0.789879
	H39	H	0.668077	0.901316	0.786656
	H40	H	0.903328	0.220317	0.340427
	H41	H	0.104542	0.217923	0.666020
	H42	H	0.102305	0.787157	0.340237
	H43	H	0.903950	0.788805	0.666249
	H44	H	0.215577	0.338253	0.908741
	H45	H	0.219479	0.668020	0.102496
	H46	H	0.792469	0.338808	0.102295
	H47	H	0.789439	0.667459	0.906009
	H48	H	0.412734	0.120712	0.595881
	H49	H	0.591922	0.887928	0.598218
	H50	H	0.592157	0.120379	0.406803
	H51	H	0.402316	0.882276	0.403129
	H52	H	0.599963	0.407728	0.121553
	H53	H	0.599463	0.585685	0.889266
	H54	H	0.426437	0.590269	0.114664
	H55	H	0.412009	0.413821	0.890087
	H56	H	0.126471	0.609090	0.413077
	H57	H	0.883228	0.608804	0.590946
	H58	H	0.125335	0.407622	0.605246
	H59	H	0.885935	0.408232	0.413159
	H60	H	0.120916	0.405916	0.587892
	H61	H	0.892460	0.584907	0.587600
	H62	H	0.118044	0.590170	0.424635
	H63	H	0.888364	0.415463	0.414170
	H64	H	0.413450	0.610209	0.124978
	H65	H	0.587393	0.597893	0.889251
	H66	H	0.598034	0.410950	0.120121
	H67	H	0.414877	0.405604	0.886818
	H68	H	0.594460	0.119305	0.414649
	H69	H	0.595110	0.888621	0.591666
	H70	H	0.410930	0.122177	0.597837
	H71	H	0.420493	0.888689	0.403016
	H72	H	0.918242	0.621255	0.103511
	H73	H	0.109962	0.385630	0.091216
	H74	H	0.105233	0.620816	0.918969
	H75	H	0.914247	0.384878	0.902401
	H76	H	0.101010	0.907718	0.621248
	H77	H	0.099241	0.105074	0.381962
	H78	H	0.917608	0.105504	0.619694
	H79	H	0.911478	0.909565	0.387343
	H80	H	0.625968	0.099739	0.905226
	H81	H	0.386763	0.099825	0.083730
	H82	H	0.616728	0.916992	0.088199
	H83	H	0.389507	0.908807	0.917848
	H84	H	0.623651	0.915579	0.104649
	H85	H	0.388202	0.084698	0.096065
	H86	H	0.621957	0.098089	0.918434
	H87	H	0.387879	0.917553	0.906328
	H88	H	0.901226	0.097692	0.623529
	H89	H	0.100680	0.090138	0.385997
	H90	H	0.099025	0.917549	0.617675
	H91	H	0.910191	0.908437	0.385950
	H92	H	0.099406	0.624650	0.901938
	H93	H	0.099171	0.381987	0.113272
	H94	H	0.914426	0.617720	0.090700
	H95	H	0.920541	0.390038	0.914563
	H96	H	0.413280	0.122201	0.598351
	H97	H	0.599438	0.885085	0.597264
	H98	H	0.599063	0.122121	0.408766
	H99	H	0.409259	0.889528	0.418826
	H100	H	0.596924	0.407610	0.119930
	H101	H	0.602759	0.601019	0.883698
	H102	H	0.401202	0.587961	0.121390
	H103	H	0.405902	0.408130	0.886250
	H104	H	0.123173	0.589010	0.401890
	H105	H	0.883517	0.592096	0.610408
	H106	H	0.118625	0.421419	0.595880
	H107	H	0.885599	0.413230	0.406761
	H108	H	0.905005	0.622816	0.100264
	H109	H	0.085573	0.391770	0.094127
	H110	H	0.087476	0.617198	0.913776
	H111	H	0.905599	0.386087	0.914406
	H112	H	0.092094	0.910214	0.617919
	H113	H	0.087218	0.097344	0.388622
	H114	H	0.914918	0.087521	0.614922
	H115	H	0.908890	0.909978	0.386112
	H116	H	0.621517	0.087262	0.910052
	H117	H	0.380735	0.101861	0.103199
	H118	H	0.624546	0.900993	0.094314
	H119	H	0.383539	0.903433	0.905223
	C120	C	0.382793	0.013047	0.624766
	C121	C	0.625513	0.995472	0.625255
	C122	C	0.624255	0.012461	0.381067
	C123	C	0.381902	0.995200	0.379870
	C124	C	0.626599	0.380244	0.012598
	C125	C	0.625891	0.624062	0.995374
	C126	C	0.383656	0.624227	0.012193
	C127	C	0.382647	0.380536	0.995864
	C128	C	0.013523	0.624756	0.383616
	C129	C	0.994898	0.625437	0.625823
	C130	C	0.013108	0.382279	0.625493
	C131	C	0.995818	0.383104	0.383321
	C132	C	0.884021	0.512112	0.126418
	C133	C	0.127290	0.495150	0.127747
	C134	C	0.125884	0.512218	0.883194
	C135	C	0.883191	0.495094	0.881808
	C136	C	0.125745	0.882255	0.511190
	C137	C	0.125582	0.126021	0.493977
	C138	C	0.881841	0.126223	0.511585
	C139	C	0.881575	0.881648	0.494295
	C140	C	0.513803	0.123869	0.882467
	C141	C	0.494309	0.124182	0.123835
	C142	C	0.512799	0.881898	0.123970
	C143	C	0.495788	0.880711	0.880951
	C144	C	0.383508	0.890032	0.679845
	C145	C	0.625407	0.117765	0.682137
	C146	C	0.622840	0.889135	0.325085
	C147	C	0.383160	0.118131	0.323952
	C148	C	0.681891	0.382421	0.889726
	C149	C	0.681845	0.621924	0.118652
	C150	C	0.327556	0.620506	0.889052
	C151	C	0.329519	0.384517	0.119486
	C152	C	0.888768	0.679119	0.384736
	C153	C	0.118691	0.681754	0.625163
	C154	C	0.889113	0.326495	0.623767
	C155	C	0.120003	0.327633	0.386266
	C156	C	0.889533	0.383718	0.681198
	C157	C	0.119209	0.624433	0.681928
	C158	C	0.889572	0.623064	0.327198
	C159	C	0.120010	0.384594	0.329053
	C160	C	0.384388	0.678527	0.889068
	C161	C	0.625814	0.680950	0.117603
	C162	C	0.623998	0.324958	0.889433
	C163	C	0.386062	0.325423	0.118730
	C164	C	0.679038	0.888730	0.383725
	C165	C	0.681129	0.118347	0.622987
	C166	C	0.328381	0.889219	0.619460
	C167	C	0.327224	0.119312	0.382500
	C168	C	0.886040	0.388948	0.181540
	C169	C	0.125989	0.618667	0.183163
	C170	C	0.124783	0.389309	0.827152
	C171	C	0.883590	0.618291	0.826250
	C172	C	0.179785	0.884769	0.387866
	C173	C	0.181230	0.123221	0.617023
	C174	C	0.826951	0.122826	0.387845
	C175	C	0.826201	0.884548	0.617286
	C176	C	0.389739	0.179577	0.883550
	C177	C	0.618796	0.179127	0.122947
	C178	C	0.388663	0.826351	0.120670
	C179	C	0.619851	0.825431	0.883435
	C180	C	0.388416	0.883093	0.178398
	C181	C	0.618074	0.123263	0.180184
	C182	C	0.389395	0.122331	0.827157
	C183	C	0.619107	0.881695	0.824818
	C184	C	0.883381	0.181806	0.388811
	C185	C	0.124536	0.180959	0.616811
	C186	C	0.123148	0.825455	0.388991
	C187	C	0.883600	0.826649	0.617427
	C188	C	0.179598	0.388119	0.886861
	C189	C	0.182248	0.618935	0.124000
	C190	C	0.829578	0.388321	0.123101
	C191	C	0.827252	0.618490	0.885045
	C192	C	0.405782	0.099458	0.603530
	C193	C	0.602279	0.909312	0.602367
	C194	C	0.601714	0.098425	0.403462
	C195	C	0.404036	0.909324	0.401707
	C196	C	0.604730	0.402205	0.098320
	C197	C	0.603147	0.601502	0.909658
	C198	C	0.406763	0.602482	0.098138
	C199	C	0.404441	0.402736	0.909889
	C200	C	0.100105	0.602683	0.406576
	C201	C	0.908763	0.602395	0.602906
	C202	C	0.099398	0.404896	0.603064
	C203	C	0.909031	0.405748	0.404946
	C204	C	0.906069	0.598423	0.104581
	C205	C	0.104934	0.408760	0.105974
	C206	C	0.103769	0.598402	0.905032
	C207	C	0.906587	0.409306	0.903824
	C208	C	0.103742	0.905002	0.596930
	C209	C	0.102472	0.103869	0.407783
	C210	C	0.904613	0.103650	0.597195
	C211	C	0.903549	0.903100	0.408668
	C212	C	0.600602	0.101482	0.904678
	C213	C	0.407632	0.101977	0.100968
	C214	C	0.599238	0.904487	0.102189
	C215	C	0.409296	0.903332	0.903170
	Zn216	Zn	0.504407	0.004077	0.754049
	Zn217	Zn	0.503171	0.003764	0.251506
	Zn218	Zn	0.755354	0.503070	0.004703
	Zn219	Zn	0.254277	0.503157	0.004782
	Zn220	Zn	0.003633	0.752547	0.504143
	Zn221	Zn	0.004071	0.254390	0.503266
	Zn222	Zn	0.005217	0.504104	0.753665
	Zn223	Zn	0.005167	0.504257	0.255679
	Zn224	Zn	0.504370	0.753294	0.003156
	Zn225	Zn	0.504501	0.250937	0.003526
	Zn226	Zn	0.753043	0.003882	0.502464
	Zn227	Zn	0.254567	0.005309	0.501923
	N228	N	0.416596	0.968201	0.683181
	N229	N	0.591594	0.040064	0.683468
	N230	N	0.589392	0.967039	0.323356
	N231	N	0.416436	0.040173	0.322028
	N232	N	0.683874	0.415961	0.967236
	N233	N	0.682309	0.587409	0.041446
	N234	N	0.326952	0.587369	0.966707
	N235	N	0.327257	0.417959	0.042018
	N236	N	0.966710	0.680193	0.419471
	N237	N	0.040546	0.682597	0.591192
	N238	N	0.966903	0.325675	0.589618
	N239	N	0.041702	0.326636	0.419337
	N240	N	0.967584	0.417760	0.682412
	N241	N	0.041281	0.589961	0.682543
	N242	N	0.968038	0.589792	0.326449
	N243	N	0.041793	0.418395	0.327025
	N244	N	0.418206	0.681050	0.966695
	N245	N	0.591929	0.682495	0.040077
	N246	N	0.590411	0.323316	0.966955
	N247	N	0.418376	0.322881	0.040792
	N248	N	0.680158	0.966355	0.417756
	N249	N	0.681456	0.040977	0.588415
	N250	N	0.327899	0.966916	0.586085
	N251	N	0.326549	0.041975	0.416850
	N252	N	0.919111	0.466986	0.183687
	N253	N	0.092709	0.540627	0.185543
	N254	N	0.092422	0.467660	0.824508
	N255	N	0.917515	0.540520	0.823935
	N256	N	0.181536	0.919379	0.464895
	N257	N	0.181962	0.089715	0.539414
	N258	N	0.825997	0.088732	0.465119
	N259	N	0.824839	0.918065	0.539804
	N260	N	0.467957	0.180528	0.917396
	N261	N	0.540813	0.179706	0.088339
	N262	N	0.466976	0.825434	0.087723
	N263	N	0.541976	0.824675	0.917493
	N264	N	0.466550	0.917066	0.180568
	N265	N	0.539733	0.090023	0.181025
	N266	N	0.467620	0.088373	0.826402
	N267	N	0.540967	0.915514	0.823134
	N268	N	0.916523	0.184136	0.466720
	N269	N	0.090397	0.182531	0.539359
	N270	N	0.090090	0.823957	0.466748
	N271	N	0.917103	0.824572	0.540204
	N272	N	0.180535	0.465624	0.921059
	N273	N	0.183202	0.541132	0.090412
	N274	N	0.828529	0.465826	0.089283
	N275	N	0.826728	0.540916	0.918790
	O276	O	0.012148	-0.087232	0.023640
	H277	H	0.008335	-0.084329	0.027283
	H278	H	0.014793	-0.082512	0.027237
	O279	O	0.422618	0.564846	0.413008
	H280	H	0.434479	0.573109	0.421281
	H281	H	0.416227	0.556743	0.419055
	O282	O	0.366541	0.531227	0.478865
	H283	H	0.367743	0.531525	0.460813
	H284	H	0.366374	0.520499	0.481256
	O285	O	1.029755	0.043672	1.040223
	H286	H	1.035294	0.055547	1.039082
	H287	H	1.036618	0.041486	1.038616
	O288	O	1.011653	-0.034442	-0.021945
	H289	H	1.016530	-0.036282	-0.023570
	H290	H	1.008731	-0.042485	-0.023024
	O291	O	0.510617	0.476186	0.570080
	H292	H	0.495244	0.468073	0.570857
	H293	H	0.497791	0.484095	0.573600
	O294	O	1.449350	0.597286	0.596593
	H295	H	1.450999	0.600251	0.593911
	H296	H	1.443002	0.600333	0.588061
	O297	O	-0.416183	-0.577363	-0.603726
	H298	H	-0.407812	-0.577539	-0.610204
	H299	H	-0.413882	-0.574150	-0.610427
	O300	O	0.470036	0.513894	0.555160
	H301	H	0.469832	0.529577	0.548782
	H302	H	0.460477	0.507012	0.558044
	O303	O	0.564921	0.513179	0.590487
	H304	H	0.564446	0.515806	0.598944
	H305	H	0.575396	0.520271	0.588560
	O306	O	1.083333	-0.022382	-0.030804
	H307	H	1.072406	-0.034795	-0.035797
	H308	H	1.085833	-0.018818	-0.038975
	O309	O	-0.016081	0.026243	0.989967
	H310	H	-0.024689	0.034690	0.984998
	H311	H	-0.022471	0.018637	0.993379
	O312	O	1.022250	1.012276	0.965416
	H313	H	1.015531	1.008698	0.965465
	H314	H	1.024191	1.006564	0.952180
	O315	O	0.422044	0.590169	0.482210
	H316	H	0.431360	0.593688	0.470039
	H317	H	0.435814	0.588041	0.480849
	O318	O	0.549489	0.537445	0.409870
	H319	H	0.543578	0.533876	0.414222
	H320	H	0.555902	0.536677	0.411076
	O321	O	-0.075579	1.023467	0.946981
	H322	H	-0.079707	1.021803	0.946354
	H323	H	-0.074509	1.019079	0.949511
	O324	O	0.431414	0.521891	0.466313
	H325	H	0.432572	0.529433	0.476297
	H326	H	0.442427	0.514850	0.461277
	O327	O	0.596348	0.483743	0.510493
	H328	H	0.576803	0.495431	0.516211
	H329	H	0.609299	0.473086	0.513200
	O330	O	0.613714	0.454038	0.492035
	H331	H	0.611296	0.457775	0.511843
	H332	H	0.617285	0.447676	0.487167
	O333	O	0.500117	0.469917	0.478356
	H334	H	0.503186	0.466770	0.479250
	H335	H	0.506769	0.468651	0.485096
	O336	O	0.542784	0.481642	0.518020
	H337	H	0.539015	0.482758	0.511615
	H338	H	0.541342	0.476589	0.530316
	O339	O	1.020827	1.012765	0.005586
	H340	H	1.023922	1.012896	0.012992
	H341	H	1.031971	1.012699	0.011353
	O342	O	0.586656	0.446225	0.538778
	H343	H	0.592299	0.444559	0.540818
	H344	H	0.584247	0.444327	0.553809
	O345	O	0.458076	0.546082	0.473667
	H346	H	0.449557	0.557528	0.470491
	H347	H	0.459370	0.557650	0.469144
	O348	O	-0.008824	-0.037238	0.003510
	H349	H	-0.006480	-0.032211	0.001714
	H350	H	-0.010873	-0.031604	0.013030
	O351	O	0.037376	1.040074	0.988535
	H352	H	0.041513	1.035898	0.988011
	H353	H	0.038661	1.039253	0.990175
	O354	O	0.534681	0.612105	0.560330
	H355	H	0.538976	0.615443	0.545700
	H356	H	0.532715	0.608429	0.561388
	O357	O	-0.016033	1.057269	0.969164
	H358	H	-0.016836	1.065057	0.966464
	H359	H	-0.017669	1.059700	0.966858
