data_Molecule from HDF5

_cell_length_a		16.272573
_cell_length_b		16.195995
_cell_length_c		16.234373
_cell_angle_alpha	90.865934
_cell_angle_beta	89.754396
_cell_angle_gamma	89.723915
_symmetry_space_group_name_H-M	'P 1'
_symmetry_Int_Tables_number		1

loop_
	_symmetry_equiv_pos_as_xyz
	x,y,z

loop_
	_atom_site_label
	_atom_site_type_symbol
	_atom_site_fract_x
	_atom_site_fract_y
	_atom_site_fract_z
	H0	H	0.400376	0.843674	0.705639
	H1	H	0.598576	0.171601	0.709831
	H2	H	0.602769	0.845360	0.272645
	H3	H	0.402213	0.173513	0.282248
	H4	H	0.717583	0.403185	0.830374
	H5	H	0.713524	0.609928	0.157161
	H6	H	0.281861	0.608917	0.831470
	H7	H	0.284436	0.411953	0.156839
	H8	H	0.837788	0.722811	0.394538
	H9	H	0.163853	0.724760	0.593994
	H10	H	0.837473	0.295083	0.590937
	H11	H	0.165134	0.290372	0.390614
	H12	H	0.837872	0.409239	0.707071
	H13	H	0.163222	0.609446	0.710289
	H14	H	0.835831	0.604841	0.281797
	H15	H	0.164638	0.407665	0.276287
	H16	H	0.399797	0.720055	0.829237
	H17	H	0.597539	0.725901	0.155963
	H18	H	0.601131	0.289648	0.830660
	H19	H	0.400452	0.297449	0.157673
	H20	H	0.717501	0.844902	0.387939
	H21	H	0.713314	0.171855	0.594500
	H22	H	0.286503	0.843202	0.589906
	H23	H	0.284667	0.171440	0.395953
	H24	H	0.903473	0.341109	0.202994
	H25	H	0.096317	0.671416	0.209305
	H26	H	0.102399	0.344649	0.773244
	H27	H	0.901274	0.672277	0.782310
	H28	H	0.217391	0.904667	0.329425
	H29	H	0.214993	0.110246	0.656713
	H30	H	0.784659	0.106709	0.329099
	H31	H	0.783764	0.909524	0.655098
	H32	H	0.336808	0.223028	0.896069
	H33	H	0.663554	0.224907	0.093753
	H34	H	0.335939	0.797206	0.091099
	H35	H	0.662628	0.789359	0.890519
	H36	H	0.337699	0.911347	0.207200
	H37	H	0.663719	0.111401	0.209860
	H38	H	0.336854	0.106357	0.779831
	H39	H	0.664139	0.905449	0.775674
	H40	H	0.904415	0.218023	0.327324
	H41	H	0.099554	0.225414	0.656083
	H42	H	0.102067	0.789133	0.330201
	H43	H	0.902153	0.798004	0.657086
	H44	H	0.217617	0.344565	0.890206
	H45	H	0.211172	0.672965	0.094329
	H46	H	0.786738	0.342414	0.088804
	H47	H	0.783484	0.670171	0.895066
	H48	H	0.391899	0.131200	0.592580
	H49	H	0.587702	0.890949	0.583752
	H50	H	0.589461	0.123351	0.403212
	H51	H	0.398251	0.889686	0.404474
	H52	H	0.593708	0.421117	0.109810
	H53	H	0.591994	0.606281	0.873891
	H54	H	0.395381	0.601641	0.112806
	H55	H	0.409396	0.414104	0.876196
	H56	H	0.119575	0.604754	0.398528
	H57	H	0.886717	0.596165	0.582642
	H58	H	0.119320	0.411704	0.583805
	H59	H	0.885789	0.418920	0.398941
	H60	H	0.114976	0.417397	0.577153
	H61	H	0.881882	0.600901	0.594366
	H62	H	0.114210	0.596765	0.408037
	H63	H	0.881005	0.409450	0.391857
	H64	H	0.412599	0.596510	0.106518
	H65	H	0.601575	0.592873	0.874631
	H66	H	0.590791	0.415733	0.109811
	H67	H	0.409253	0.416316	0.877517
	H68	H	0.595736	0.125960	0.405570
	H69	H	0.595708	0.891954	0.576870
	H70	H	0.420797	0.123667	0.597866
	H71	H	0.410684	0.887485	0.384671
	H72	H	0.907142	0.622494	0.084402
	H73	H	0.098668	0.387874	0.087311
	H74	H	0.087548	0.623403	0.903579
	H75	H	0.913836	0.389685	0.892632
	H76	H	0.099895	0.919542	0.611357
	H77	H	0.091388	0.106289	0.374441
	H78	H	0.903967	0.109710	0.612402
	H79	H	0.906966	0.916397	0.375439
	H80	H	0.615126	0.097957	0.904681
	H81	H	0.386275	0.098569	0.082833
	H82	H	0.615718	0.922722	0.083454
	H83	H	0.385286	0.918169	0.902325
	H84	H	0.619492	0.912403	0.087454
	H85	H	0.382731	0.101183	0.093848
	H86	H	0.615917	0.095525	0.898153
	H87	H	0.382204	0.917179	0.892164
	H88	H	0.901476	0.095270	0.608799
	H89	H	0.103472	0.095227	0.373422
	H90	H	0.089605	0.920752	0.608545
	H91	H	0.912765	0.915858	0.376548
	H92	H	0.093689	0.624309	0.906306
	H93	H	0.087443	0.390682	0.085078
	H94	H	0.901226	0.626408	0.090175
	H95	H	0.911602	0.392295	0.905548
	H96	H	0.409401	0.119070	0.570514
	H97	H	0.597423	0.888377	0.586436
	H98	H	0.594154	0.127179	0.398777
	H99	H	0.420784	0.896039	0.404998
	H100	H	0.596769	0.415703	0.112250
	H101	H	0.585599	0.592230	0.880377
	H102	H	0.408946	0.613704	0.112797
	H103	H	0.411028	0.414968	0.877432
	H104	H	0.116424	0.591893	0.395491
	H105	H	0.882676	0.609800	0.584444
	H106	H	0.117441	0.420109	0.586036
	H107	H	0.884833	0.408069	0.404158
	H108	H	0.909677	0.624532	0.092828
	H109	H	0.095601	0.390748	0.076610
	H110	H	0.092915	0.626000	0.899369
	H111	H	0.902414	0.387766	0.898071
	H112	H	0.093253	0.911130	0.611965
	H113	H	0.088966	0.090266	0.379547
	H114	H	0.915280	0.101065	0.606598
	H115	H	0.909306	0.911055	0.375110
	H116	H	0.618223	0.102077	0.900056
	H117	H	0.383016	0.109098	0.085914
	H118	H	0.615378	0.913725	0.076328
	H119	H	0.381284	0.908864	0.899117
	C120	C	0.379106	0.016141	0.614502
	C121	C	0.621677	0.999023	0.613078
	C122	C	0.623092	0.017617	0.370432
	C123	C	0.380481	0.999756	0.371459
	C124	C	0.622530	0.386282	0.002412
	C125	C	0.621201	0.628539	0.984500
	C126	C	0.377063	0.631399	0.002353
	C127	C	0.379456	0.387798	0.984988
	C128	C	0.008684	0.627240	0.372440
	C129	C	0.992099	0.631091	0.615799
	C130	C	0.009680	0.387313	0.612151
	C131	C	0.992306	0.383752	0.369222
	C132	C	0.878199	0.515308	0.115222
	C133	C	0.121400	0.498550	0.114062
	C134	C	0.122419	0.516748	0.871106
	C135	C	0.879209	0.498391	0.871380
	C136	C	0.123548	0.885922	0.502255
	C137	C	0.122795	0.128514	0.484168
	C138	C	0.878735	0.129570	0.500822
	C139	C	0.879576	0.886506	0.483737
	C140	C	0.508660	0.128380	0.872464
	C141	C	0.492090	0.131744	0.116165
	C142	C	0.508761	0.888574	0.112284
	C143	C	0.491080	0.884534	0.868595
	C144	C	0.380953	0.892470	0.668052
	C145	C	0.619229	0.122484	0.671340
	C146	C	0.622260	0.894435	0.311533
	C147	C	0.382039	0.123883	0.318848
	C148	C	0.679028	0.384756	0.879182
	C149	C	0.675991	0.629160	0.107833
	C150	C	0.320854	0.628504	0.879788
	C151	C	0.322809	0.391461	0.108085
	C152	C	0.886058	0.683873	0.374869
	C153	C	0.114909	0.686550	0.613753
	C154	C	0.886466	0.332428	0.610780
	C155	C	0.115962	0.328519	0.370848
	C156	C	0.886748	0.389221	0.668759
	C157	C	0.114558	0.629415	0.672005
	C158	C	0.885295	0.625280	0.318362
	C159	C	0.115495	0.386250	0.313441
	C160	C	0.379509	0.683941	0.878727
	C161	C	0.618008	0.686618	0.107294
	C162	C	0.621311	0.328135	0.879418
	C163	C	0.380346	0.333979	0.108450
	C164	C	0.679433	0.894052	0.368896
	C165	C	0.676207	0.122555	0.613596
	C166	C	0.324270	0.892281	0.610900
	C167	C	0.323262	0.122716	0.375229
	C168	C	0.881707	0.390894	0.167252
	C169	C	0.117621	0.622403	0.171339
	C170	C	0.122536	0.393545	0.812268
	C171	C	0.880872	0.622450	0.818493
	C172	C	0.179354	0.885561	0.378709
	C173	C	0.177017	0.128979	0.607935
	C174	C	0.823227	0.126503	0.377708
	C175	C	0.822551	0.889536	0.606521
	C176	C	0.385858	0.184674	0.875513
	C177	C	0.614823	0.187109	0.114136
	C178	C	0.385270	0.834511	0.110804
	C179	C	0.613848	0.827503	0.870142
	C180	C	0.386235	0.891194	0.168897
	C181	C	0.614908	0.130207	0.171439
	C182	C	0.385608	0.126800	0.817672
	C183	C	0.614718	0.885459	0.813150
	C184	C	0.882767	0.181928	0.376740
	C185	C	0.119659	0.186233	0.607436
	C186	C	0.121870	0.828222	0.378915
	C187	C	0.881412	0.834048	0.607602
	C188	C	0.179780	0.393673	0.870284
	C189	C	0.174404	0.623166	0.113687
	C190	C	0.823999	0.391551	0.110258
	C191	C	0.822614	0.621631	0.874936
	C192	C	0.400872	0.102209	0.593395
	C193	C	0.599923	0.912685	0.589315
	C194	C	0.599867	0.103341	0.395291
	C195	C	0.403365	0.913348	0.392033
	C196	C	0.600145	0.410452	0.088301
	C197	C	0.599636	0.604247	0.898581
	C198	C	0.399191	0.610304	0.088496
	C199	C	0.403007	0.408986	0.899338
	C200	C	0.094669	0.604495	0.394407
	C201	C	0.906006	0.608878	0.593573
	C202	C	0.095159	0.409815	0.589139
	C203	C	0.906168	0.405755	0.391843
	C204	C	0.899734	0.602063	0.095033
	C205	C	0.100165	0.412186	0.090042
	C206	C	0.098402	0.602495	0.895894
	C207	C	0.902372	0.412205	0.892360
	C208	C	0.100678	0.909900	0.588255
	C209	C	0.101032	0.104238	0.398215
	C210	C	0.900452	0.108195	0.586897
	C211	C	0.902857	0.908133	0.397773
	C212	C	0.594468	0.105386	0.894622
	C213	C	0.406258	0.109408	0.093934
	C214	C	0.594687	0.909922	0.089108
	C215	C	0.405170	0.907843	0.891133
	Zn216	Zn	0.500486	0.007132	0.741574
	Zn217	Zn	0.501326	0.009272	0.242568
	Zn218	Zn	0.750518	0.506706	-0.006941
	Zn219	Zn	0.250172	0.508715	-0.006797
	Zn220	Zn	0.000712	0.758222	0.493039
	Zn221	Zn	0.001517	0.256789	0.491952
	Zn222	Zn	0.000510	0.508029	0.742725
	Zn223	Zn	-0.000049	0.506489	0.242208
	Zn224	Zn	0.499261	0.758234	-0.007983
	Zn225	Zn	0.500864	0.258691	-0.005752
	Zn226	Zn	0.750321	0.007588	0.492397
	Zn227	Zn	0.251356	0.007464	0.493854
	N228	N	0.414291	0.970328	0.670438
	N229	N	0.585906	0.044512	0.671114
	N230	N	0.587888	0.972329	0.312322
	N231	N	0.416691	0.046316	0.316287
	N232	N	0.679758	0.420242	0.956616
	N233	N	0.678102	0.593519	0.030333
	N234	N	0.319295	0.596436	0.957597
	N235	N	0.322105	0.424129	0.030357
	N236	N	0.963742	0.685340	0.407876
	N237	N	0.037553	0.687800	0.579780
	N238	N	0.963825	0.331088	0.576162
	N239	N	0.038210	0.326546	0.404566
	N240	N	0.964165	0.422914	0.669699
	N241	N	0.037090	0.595677	0.673182
	N242	N	0.962556	0.590695	0.316761
	N243	N	0.037694	0.419886	0.312417
	N244	N	0.413929	0.685782	0.955994
	N245	N	0.584635	0.686346	0.029707
	N246	N	0.586816	0.329066	0.956886
	N247	N	0.415078	0.331693	0.031035
	N248	N	0.680058	0.971387	0.404789
	N249	N	0.677880	0.044772	0.578236
	N250	N	0.322928	0.970084	0.578054
	N251	N	0.321935	0.044349	0.407079
	N252	N	0.914738	0.468902	0.170392
	N253	N	0.085355	0.544021	0.171753
	N254	N	0.087688	0.471095	0.812625
	N255	N	0.915520	0.544705	0.816218
	N256	N	0.180505	0.920777	0.456270
	N257	N	0.179031	0.093488	0.530374
	N258	N	0.820704	0.094815	0.455869
	N259	N	0.821317	0.921386	0.528477
	N260	N	0.463433	0.185639	0.908957
	N261	N	0.537369	0.188121	0.080448
	N262	N	0.462692	0.832755	0.076185
	N263	N	0.536101	0.826690	0.903653
	N264	N	0.463982	0.924035	0.170079
	N265	N	0.537456	0.096537	0.172963
	N266	N	0.463035	0.092531	0.815558
	N267	N	0.537343	0.920274	0.811886
	N268	N	0.916595	0.184045	0.454265
	N269	N	0.086540	0.185739	0.529619
	N270	N	0.088155	0.827935	0.456765
	N271	N	0.916281	0.832080	0.530185
	N272	N	0.179762	0.471283	0.906056
	N273	N	0.177033	0.545176	0.079063
	N274	N	0.821557	0.469967	0.078815
	N275	N	0.821446	0.543591	0.907004
	O276	O	0.032336	-0.055081	0.004084
	H277	H	0.028894	-0.059456	0.003998
	H278	H	0.034197	-0.043504	0.000228
	O279	O	1.377076	0.635244	1.499691
	H280	H	1.380112	0.630819	1.484428
	H281	H	1.367713	0.652273	1.499157
	O282	O	0.427022	0.519038	0.515288
	H283	H	0.433397	0.523187	0.514665
	H284	H	0.419801	0.517183	0.509802
	O285	O	1.046836	-0.015180	0.982652
	H286	H	1.052429	-0.020274	0.983250
	H287	H	1.033377	-0.024669	0.979367
	O288	O	1.007223	0.012221	0.008295
	H289	H	1.007382	0.007244	0.000864
	H290	H	1.013548	0.007829	0.006663
	O291	O	0.541221	0.405993	0.496596
	H292	H	0.545474	0.395269	0.487984
	H293	H	0.548572	0.408645	0.500575
	O294	O	1.478991	0.470465	0.506757
	H295	H	1.477644	0.473257	0.512781
	H296	H	1.481296	0.449816	0.500537
	O297	O	-0.414218	-0.420074	-0.442860
	H298	H	-0.413690	-0.417656	-0.436445
	H299	H	-0.404907	-0.416512	-0.441361
	O300	O	0.550796	0.491703	0.549131
	H301	H	0.564226	0.475606	0.547389
	H302	H	0.555058	0.500908	0.559580
	O303	O	0.471806	0.464482	0.396865
	H304	H	0.471126	0.463679	0.394653
	H305	H	0.463049	0.459018	0.388855
	O306	O	1.039228	0.062045	0.017017
	H307	H	1.043724	0.062585	0.020326
	H308	H	1.043750	0.055218	0.012350
	O309	O	-0.508158	-0.433236	1.419731
	H310	H	-0.507734	-0.437607	1.414746
	H311	H	-0.508144	-0.436479	1.428102
	O312	O	0.980593	0.964992	1.030092
	H313	H	0.972406	0.962320	1.034948
	H314	H	0.972964	0.960149	1.031833
	O315	O	0.575299	0.531007	0.566964
	H316	H	0.563486	0.528662	0.549454
	H317	H	0.581667	0.517945	0.567988
	O318	O	0.514644	0.570790	0.542745
	H319	H	0.520488	0.555746	0.531841
	H320	H	0.516788	0.577170	0.535863
	O321	O	0.027656	0.991887	1.009811
	H322	H	0.023344	0.996310	1.021952
	H323	H	0.029047	0.987780	1.011379
	O324	O	0.520376	0.509445	0.477325
	H325	H	0.523040	0.518603	0.476269
	H326	H	0.512260	0.523952	0.476447
	O327	O	0.518495	0.531572	0.537545
	H328	H	0.513947	0.530993	0.536850
	H329	H	0.516428	0.545538	0.553267
	O330	O	0.597693	0.446750	0.444662
	H331	H	0.610440	0.447469	0.443824
	H332	H	0.587598	0.440776	0.450707
	O333	O	0.499072	0.393252	0.430082
	H334	H	0.503056	0.390921	0.437174
	H335	H	0.487369	0.389616	0.432817
	O336	O	0.437984	0.433231	0.543868
	H337	H	0.439986	0.442279	0.552635
	H338	H	0.431276	0.434224	0.540131
	O339	O	1.019741	1.031674	0.055526
	H340	H	1.011423	1.032463	0.049953
	H341	H	1.025261	1.037745	0.056855
	O342	O	0.496800	0.559578	0.470395
	H343	H	0.482487	0.556942	0.475584
	H344	H	0.490057	0.561968	0.464411
	O345	O	0.537723	0.432234	0.557069
	H346	H	0.536839	0.438035	0.552776
	H347	H	0.545159	0.429187	0.560506
	O348	O	-0.009077	0.001842	0.043349
	H349	H	0.003290	-0.005474	0.042368
	H350	H	-0.003927	0.007157	0.030473
	O351	O	0.019315	1.045073	1.007562
	H352	H	0.021044	1.046963	1.009530
	H353	H	0.014101	1.054055	1.008830
	O354	O	0.486010	0.589022	0.428241
	H355	H	0.481994	0.606681	0.428144
	H356	H	0.493734	0.587577	0.439132
	O357	O	0.000720	0.962072	0.956259
	H358	H	0.003443	0.958475	0.961556
	H359	H	0.001328	0.969872	0.955290
