data_Molecule from HDF5

_cell_length_a		16.230684
_cell_length_b		16.174267
_cell_length_c		16.422405
_cell_angle_alpha	90.003910
_cell_angle_beta	89.737457
_cell_angle_gamma	89.550929
_symmetry_space_group_name_H-M	'P 1'
_symmetry_Int_Tables_number		1

loop_
	_symmetry_equiv_pos_as_xyz
	x,y,z

loop_
	_atom_site_label
	_atom_site_type_symbol
	_atom_site_fract_x
	_atom_site_fract_y
	_atom_site_fract_z
	H0	H	0.398366	0.841307	0.705865
	H1	H	0.600848	0.166663	0.704797
	H2	H	0.605749	0.841823	0.269299
	H3	H	0.394654	0.165695	0.267612
	H4	H	0.724329	0.400776	0.825358
	H5	H	0.721917	0.602470	0.148603
	H6	H	0.289559	0.603585	0.824646
	H7	H	0.289615	0.402914	0.148281
	H8	H	0.841322	0.720478	0.387945
	H9	H	0.168061	0.719289	0.584957
	H10	H	0.838494	0.294551	0.587173
	H11	H	0.166698	0.284741	0.388719
	H12	H	0.843652	0.403127	0.707532
	H13	H	0.167925	0.606410	0.703035
	H14	H	0.844148	0.608415	0.267281
	H15	H	0.169159	0.398838	0.271033
	H16	H	0.406678	0.718285	0.824241
	H17	H	0.606211	0.721535	0.147578
	H18	H	0.607703	0.284910	0.825125
	H19	H	0.407970	0.288835	0.149305
	H20	H	0.720916	0.842571	0.385102
	H21	H	0.714311	0.168515	0.588193
	H22	H	0.287554	0.840174	0.587227
	H23	H	0.285743	0.168769	0.389290
	H24	H	0.905005	0.341329	0.207040
	H25	H	0.112739	0.664520	0.206995
	H26	H	0.110833	0.340895	0.767871
	H27	H	0.902943	0.667557	0.771499
	H28	H	0.222835	0.903005	0.327293
	H29	H	0.218231	0.106906	0.649476
	H30	H	0.782640	0.110150	0.326835
	H31	H	0.784346	0.904926	0.648626
	H32	H	0.341275	0.220204	0.890016
	H33	H	0.669276	0.212085	0.084140
	H34	H	0.341175	0.786220	0.088864
	H35	H	0.667017	0.785485	0.884389
	H36	H	0.341470	0.899457	0.206825
	H37	H	0.663014	0.107697	0.207987
	H38	H	0.339205	0.106402	0.774483
	H39	H	0.663351	0.897018	0.764421
	H40	H	0.899626	0.224650	0.327003
	H41	H	0.097722	0.219054	0.650250
	H42	H	0.108679	0.786123	0.327074
	H43	H	0.900193	0.787266	0.648578
	H44	H	0.222266	0.338697	0.887233
	H45	H	0.219002	0.667409	0.084348
	H46	H	0.793480	0.338001	0.087851
	H47	H	0.786601	0.665593	0.886004
	H48	H	0.422895	0.113365	0.571612
	H49	H	0.600311	0.887686	0.573163
	H50	H	0.593513	0.123849	0.392067
	H51	H	0.414133	0.890837	0.402382
	H52	H	0.608032	0.399372	0.106940
	H53	H	0.593207	0.595530	0.873570
	H54	H	0.417512	0.596961	0.100530
	H55	H	0.403053	0.417077	0.869749
	H56	H	0.120230	0.593647	0.396460
	H57	H	0.888096	0.601089	0.575950
	H58	H	0.118952	0.414220	0.574417
	H59	H	0.893416	0.426465	0.396781
	H60	H	0.120814	0.413476	0.583063
	H61	H	0.890998	0.589902	0.579054
	H62	H	0.120590	0.593551	0.393453
	H63	H	0.885714	0.415298	0.385868
	H64	H	0.408528	0.597930	0.103408
	H65	H	0.600669	0.594002	0.871378
	H66	H	0.603876	0.417676	0.100987
	H67	H	0.425500	0.416439	0.876424
	H68	H	0.584421	0.119538	0.394203
	H69	H	0.590644	0.885447	0.584985
	H70	H	0.392474	0.124721	0.573962
	H71	H	0.409032	0.885649	0.394933
	H72	H	0.908426	0.620242	0.073949
	H73	H	0.096116	0.388072	0.076491
	H74	H	0.097909	0.620870	0.892523
	H75	H	0.918756	0.386578	0.890516
	H76	H	0.098679	0.921642	0.600811
	H77	H	0.087364	0.099921	0.373491
	H78	H	0.906957	0.109259	0.605816
	H79	H	0.913885	0.917243	0.375046
	H80	H	0.616950	0.090044	0.902517
	H81	H	0.384269	0.098162	0.085912
	H82	H	0.616279	0.915899	0.074487
	H83	H	0.386783	0.910256	0.897452
	H84	H	0.619320	0.916094	0.081678
	H85	H	0.387066	0.100691	0.072354
	H86	H	0.619844	0.083507	0.884495
	H87	H	0.387221	0.913857	0.896646
	H88	H	0.897635	0.092595	0.603443
	H89	H	0.100886	0.098069	0.370686
	H90	H	0.084577	0.913128	0.599665
	H91	H	0.914212	0.912206	0.372485
	H92	H	0.095001	0.619324	0.894210
	H93	H	0.101701	0.384514	0.078504
	H94	H	0.917487	0.619966	0.084368
	H95	H	0.922520	0.389673	0.898069
	H96	H	0.411820	0.126246	0.599698
	H97	H	0.585594	0.890780	0.572040
	H98	H	0.592433	0.120022	0.401271
	H99	H	0.418044	0.889377	0.393536
	H100	H	0.590121	0.405098	0.100673
	H101	H	0.596504	0.588184	0.875061
	H102	H	0.411073	0.589744	0.100649
	H103	H	0.414679	0.397018	0.867957
	H104	H	0.122606	0.596056	0.395254
	H105	H	0.886982	0.596761	0.586784
	H106	H	0.122580	0.407130	0.577540
	H107	H	0.888373	0.411260	0.401686
	H108	H	0.921189	0.615261	0.072527
	H109	H	0.096739	0.385491	0.082809
	H110	H	0.097736	0.619684	0.896196
	H111	H	0.913613	0.387041	0.898333
	H112	H	0.098398	0.905404	0.606064
	H113	H	0.093169	0.087857	0.375642
	H114	H	0.915585	0.093888	0.598428
	H115	H	0.908541	0.915318	0.372452
	H116	H	0.623993	0.101672	0.888639
	H117	H	0.389037	0.088187	0.078349
	H118	H	0.620328	0.909573	0.076898
	H119	H	0.387110	0.911926	0.893823
	C120	C	0.379013	0.013011	0.610607
	C121	C	0.621211	0.995717	0.607509
	C122	C	0.622632	0.013528	0.365435
	C123	C	0.381492	0.996250	0.367031
	C124	C	0.629957	0.378125	-0.004150
	C125	C	0.627184	0.623375	0.978959
	C126	C	0.382979	0.625184	-0.005201
	C127	C	0.384957	0.380952	0.978386
	C128	C	0.014078	0.625963	0.364792
	C129	C	0.996499	0.625869	0.608881
	C130	C	0.012786	0.383239	0.608962
	C131	C	0.996806	0.383940	0.365769
	C132	C	0.886119	0.511208	0.108069
	C133	C	0.128085	0.494104	0.108335
	C134	C	0.127958	0.511970	0.864477
	C135	C	0.885678	0.494993	0.865556
	C136	C	0.125309	0.882651	0.496080
	C137	C	0.122663	0.125279	0.480104
	C138	C	0.877595	0.129209	0.496292
	C139	C	0.881679	0.884486	0.479444
	C140	C	0.512300	0.123550	0.864862
	C141	C	0.494728	0.124519	0.108339
	C142	C	0.511732	0.882622	0.108402
	C143	C	0.494499	0.881152	0.864955
	C144	C	0.379558	0.890026	0.666939
	C145	C	0.620197	0.118165	0.665407
	C146	C	0.624642	0.890891	0.307836
	C147	C	0.377921	0.117758	0.308201
	C148	C	0.686260	0.380236	0.873922
	C149	C	0.683816	0.622725	0.100308
	C150	C	0.327635	0.623517	0.873028
	C151	C	0.328144	0.382645	0.099849
	C152	C	0.890796	0.682962	0.366791
	C153	C	0.119160	0.681662	0.605932
	C154	C	0.888789	0.330276	0.607465
	C155	C	0.118552	0.324193	0.368185
	C156	C	0.891161	0.384596	0.667427
	C157	C	0.119287	0.625386	0.664480
	C158	C	0.892356	0.627245	0.306894
	C159	C	0.119799	0.380923	0.309620
	C160	C	0.385831	0.680782	0.872918
	C161	C	0.626346	0.681866	0.099965
	C162	C	0.628033	0.322786	0.873615
	C163	C	0.387308	0.326236	0.100632
	C164	C	0.681936	0.891287	0.365583
	C165	C	0.676603	0.119195	0.607405
	C166	C	0.324268	0.889528	0.608038
	C167	C	0.323678	0.119250	0.368828
	C168	C	0.886222	0.389441	0.167092
	C169	C	0.129423	0.616478	0.166229
	C170	C	0.129195	0.389394	0.807048
	C171	C	0.884087	0.618041	0.809307
	C172	C	0.184181	0.883197	0.375379
	C173	C	0.178807	0.125154	0.601538
	C174	C	0.820900	0.129231	0.375329
	C175	C	0.823188	0.884628	0.600419
	C176	C	0.390036	0.182304	0.868210
	C177	C	0.618790	0.177218	0.105299
	C178	C	0.389824	0.824796	0.108176
	C179	C	0.617586	0.823714	0.864698
	C180	C	0.389802	0.881355	0.166779
	C181	C	0.615791	0.124802	0.167055
	C182	C	0.388869	0.125020	0.811264
	C183	C	0.615522	0.878966	0.804761
	C184	C	0.879076	0.186705	0.375378
	C185	C	0.119061	0.180970	0.602054
	C186	C	0.126871	0.825141	0.375174
	C187	C	0.881180	0.826367	0.600413
	C188	C	0.184726	0.388245	0.866361
	C189	C	0.182798	0.617765	0.105494
	C190	C	0.830634	0.387804	0.107871
	C191	C	0.826208	0.617166	0.866634
	C192	C	0.402067	0.098956	0.588111
	C193	C	0.598720	0.910332	0.583577
	C194	C	0.597356	0.098890	0.389073
	C195	C	0.406493	0.910884	0.390255
	C196	C	0.607238	0.400706	0.080661
	C197	C	0.603815	0.599422	0.895174
	C198	C	0.405568	0.601850	0.079331
	C199	C	0.407889	0.403527	0.893383
	C200	C	0.099017	0.601655	0.388134
	C201	C	0.910973	0.602711	0.586860
	C202	C	0.098465	0.405290	0.585134
	C203	C	0.911456	0.410063	0.388200
	C204	C	0.909162	0.596403	0.083998
	C205	C	0.104920	0.408323	0.086059
	C206	C	0.103785	0.597861	0.887560
	C207	C	0.911038	0.409720	0.888861
	C208	C	0.100832	0.906338	0.580383
	C209	C	0.100125	0.102228	0.395331
	C210	C	0.900150	0.105339	0.580707
	C211	C	0.905231	0.908106	0.395212
	C212	C	0.598142	0.099085	0.885742
	C213	C	0.408915	0.102188	0.085548
	C214	C	0.596742	0.906877	0.084545
	C215	C	0.409023	0.905077	0.889093
	Zn216	Zn	0.501245	0.003074	0.736899
	Zn217	Zn	0.501526	0.004273	0.237186
	Zn218	Zn	0.757479	0.501667	-0.012648
	Zn219	Zn	0.255040	0.502755	-0.013569
	Zn220	Zn	0.003975	0.754060	0.487577
	Zn221	Zn	0.002042	0.255518	0.487876
	Zn222	Zn	0.006591	0.503959	0.736756
	Zn223	Zn	0.007158	0.503872	0.236195
	Zn224	Zn	0.504691	0.753910	-0.012977
	Zn225	Zn	0.505951	0.251146	-0.013211
	Zn226	Zn	0.750008	0.005341	0.487286
	Zn227	Zn	0.253384	0.004723	0.488457
	N228	N	0.412847	0.967922	0.668702
	N229	N	0.586541	0.040413	0.665655
	N230	N	0.588680	0.968067	0.307695
	N231	N	0.413248	0.040398	0.306982
	N232	N	0.687673	0.413871	0.950898
	N233	N	0.684269	0.587116	0.024322
	N234	N	0.325651	0.589679	0.949799
	N235	N	0.326546	0.415939	0.022844
	N236	N	0.967618	0.682606	0.401882
	N237	N	0.041780	0.682302	0.572383
	N238	N	0.965397	0.329613	0.571509
	N239	N	0.040941	0.325659	0.402077
	N240	N	0.969430	0.416679	0.668601
	N241	N	0.041847	0.591381	0.666491
	N242	N	0.970025	0.592779	0.305370
	N243	N	0.042822	0.417500	0.308149
	N244	N	0.419502	0.681822	0.949643
	N245	N	0.591983	0.682730	0.023665
	N246	N	0.594120	0.321019	0.950396
	N247	N	0.422126	0.325177	0.024111
	N248	N	0.681038	0.968651	0.400395
	N249	N	0.677583	0.042085	0.572053
	N250	N	0.323801	0.967177	0.573944
	N251	N	0.325782	0.042415	0.404702
	N252	N	0.920118	0.467146	0.167220
	N253	N	0.095986	0.538637	0.168246
	N254	N	0.094780	0.467440	0.805823
	N255	N	0.920397	0.540982	0.808545
	N256	N	0.183382	0.918125	0.451687
	N257	N	0.181061	0.091159	0.524725
	N258	N	0.819672	0.094180	0.451665
	N259	N	0.823260	0.920091	0.524267
	N260	N	0.467758	0.181417	0.901085
	N261	N	0.542438	0.177003	0.069289
	N262	N	0.466693	0.825455	0.072491
	N263	N	0.541347	0.825068	0.901584
	N264	N	0.466745	0.916553	0.167058
	N265	N	0.537517	0.092983	0.169210
	N266	N	0.465884	0.088985	0.809178
	N267	N	0.537966	0.913695	0.804870
	N268	N	0.913294	0.186946	0.451638
	N269	N	0.084909	0.181181	0.525481
	N270	N	0.090899	0.824841	0.451158
	N271	N	0.916609	0.825890	0.524244
	N272	N	0.183972	0.465520	0.901372
	N273	N	0.181931	0.540817	0.070058
	N274	N	0.830559	0.464370	0.071636
	N275	N	0.827250	0.539682	0.900978
	O276	O	0.119285	0.130011	0.080644
	H277	H	0.122803	0.138705	0.079233
	H278	H	0.119228	0.133371	0.090620
	O279	O	0.485423	0.433979	0.550739
	H280	H	0.478275	0.439856	0.537640
	H281	H	0.498072	0.431451	0.548110
	O282	O	0.997548	-0.014558	0.158781
	H283	H	0.994678	-0.018926	0.150226
	H284	H	0.998361	-0.011455	0.170974
	O285	O	-0.011939	1.047810	0.146571
	H286	H	-0.010745	1.036757	0.149879
	H287	H	-0.023219	1.030578	0.147430
	O288	O	0.065969	0.099544	1.015716
	H289	H	0.079002	0.102699	1.012652
	H290	H	0.059567	0.090360	1.010992
	O291	O	0.653771	0.474987	0.449430
	H292	H	0.639409	0.475526	0.464767
	H293	H	0.649844	0.484470	0.429814
	O294	O	0.992289	1.116085	0.980379
	H295	H	0.973857	1.106162	0.992679
	H296	H	0.985878	1.122111	0.986697
	O297	O	-0.167825	-0.167953	0.101122
	H298	H	-0.163818	-0.174496	0.106837
	H299	H	-0.173234	-0.159820	0.065260
	O300	O	0.501737	0.527190	0.336540
	H301	H	0.493177	0.529336	0.348459
	H302	H	0.492261	0.526480	0.332882
	O303	O	-0.048370	1.004935	1.039810
	H304	H	-0.056773	0.995115	1.033993
	H305	H	-0.036327	1.017404	1.044996
	O306	O	1.040682	0.909641	-0.024927
	H307	H	1.040519	0.916605	-0.017043
	H308	H	1.039970	0.916664	-0.027633
	O309	O	0.884426	-0.084041	0.069028
	H310	H	0.886013	-0.110486	0.059970
	H311	H	0.871072	-0.093519	0.064978
	O312	O	0.025791	-0.072358	0.862848
	H313	H	0.016686	-0.061952	0.858904
	H314	H	0.030713	-0.080347	0.853594
	O315	O	0.571532	0.554652	0.522022
	H316	H	0.587128	0.550417	0.530007
	H317	H	0.565107	0.559639	0.512562
	O318	O	0.631642	0.593797	0.534723
	H319	H	0.634320	0.600979	0.534766
	H320	H	0.638594	0.591858	0.523727
	O321	O	0.648307	0.581843	0.533077
	H322	H	0.654579	0.573831	0.536322
	H323	H	0.640294	0.588696	0.526464
	O324	O	0.549794	0.458976	0.369898
	H325	H	0.562553	0.462403	0.367032
	H326	H	0.565496	0.458948	0.381523
	O327	O	-0.108664	0.843288	0.942852
	H328	H	-0.099001	0.866158	0.928659
	H329	H	-0.122523	0.825911	0.941465
	O330	O	0.480473	0.367683	0.538887
	H331	H	0.495750	0.371202	0.535574
	H332	H	0.476677	0.366546	0.532350
	O333	O	-0.335198	0.392634	0.445132
	H334	H	-0.317019	0.388686	0.448068
	H335	H	-0.336404	0.380911	0.433851
	O336	O	1.082520	1.124099	0.864489
	H337	H	1.079975	1.118335	0.879041
	H338	H	1.080056	1.130363	0.864726
	O339	O	0.540135	0.642061	0.572822
	H340	H	0.544968	0.644755	0.587435
	H341	H	0.554773	0.647519	0.574951
	O342	O	1.393899	-0.527279	0.539969
	H343	H	1.389605	-0.525085	0.546393
	H344	H	1.402512	-0.532115	0.547871
	O345	O	0.504264	0.415815	0.575521
	H346	H	0.512246	0.425522	0.589927
	H347	H	0.499854	0.416328	0.568550
	O348	O	0.819587	1.112483	0.952510
	H349	H	0.819912	1.109089	0.940533
	H350	H	0.827437	1.118124	0.960451
	O351	O	0.383399	1.637979	-0.530752
	H352	H	0.392126	1.632960	-0.523771
	H353	H	0.385928	1.642562	-0.530085
	O354	O	-0.092738	-0.130546	-0.066802
	H355	H	-0.084676	-0.126968	-0.067103
	H356	H	-0.087813	-0.123425	-0.063470
	O357	O	0.010237	0.995122	0.880017
	H358	H	0.006879	1.007363	0.884430
	H359	H	0.019273	1.009943	0.870812
	O360	O	0.555476	0.386045	0.490264
	H361	H	0.543951	0.389516	0.494890
	H362	H	0.554924	0.372195	0.474328
	O363	O	0.491936	0.590828	0.418630
	H364	H	0.487870	0.591492	0.420663
	H365	H	0.470406	0.578085	0.408967
	O366	O	-0.058640	0.151789	0.881233
	H367	H	-0.061865	0.148242	0.893446
	H368	H	-0.053271	0.139616	0.892108
	O369	O	0.589127	0.620798	0.521361
	H370	H	0.589427	0.624450	0.516500
	H371	H	0.589496	0.626084	0.519798
	O372	O	0.515535	0.462408	0.444373
	H373	H	0.510281	0.469673	0.438974
	H374	H	0.516361	0.450881	0.436428
	O375	O	1.142333	-0.112829	0.869358
	H376	H	1.119566	-0.112567	0.877717
	H377	H	1.152678	-0.119668	0.844600
	O378	O	-0.037390	1.060659	0.995088
	H379	H	-0.022280	1.073218	0.991752
	H380	H	-0.047023	1.063827	1.010992
	O381	O	0.357072	0.618707	0.417413
	H382	H	0.351070	0.624799	0.425560
	H383	H	0.351879	0.622360	0.419505
	O384	O	-0.051030	0.808560	0.175766
	H385	H	-0.045025	0.786228	0.191328
	H386	H	-0.061586	0.813288	0.165519
	O387	O	1.377824	-0.529623	1.403740
	H388	H	1.374285	-0.538973	1.422122
	H389	H	1.372765	-0.536187	1.401356
	O390	O	-0.042953	1.137536	-0.053598
	H391	H	-0.053751	1.152107	-0.052322
	H392	H	-0.031297	1.127061	-0.055972
	O393	O	1.023062	0.911803	-0.131285
	H394	H	1.025668	0.904579	-0.130553
	H395	H	1.036555	0.910275	-0.142205
	O396	O	0.445493	0.543470	0.555445
	H397	H	0.453072	0.545185	0.554650
	H398	H	0.450616	0.542056	0.556636
	O399	O	0.151734	1.108518	1.081647
	H400	H	0.144997	1.106420	1.078923
	H401	H	0.160439	1.104997	1.079867
	O402	O	1.128481	0.859924	1.018830
	H403	H	1.117733	0.854674	1.034588
	H404	H	1.143584	0.860464	1.008827
	O405	O	0.428463	0.415779	0.511091
	H406	H	0.439630	0.410648	0.503468
	H407	H	0.423567	0.412011	0.517469
