data_Molecule from HDF5

_cell_length_a		16.447853
_cell_length_b		16.321041
_cell_length_c		16.396193
_cell_angle_alpha	89.909989
_cell_angle_beta	90.053921
_cell_angle_gamma	89.980639
_symmetry_space_group_name_H-M	'P 1'
_symmetry_Int_Tables_number		1

loop_
	_symmetry_equiv_pos_as_xyz
	x,y,z

loop_
	_atom_site_label
	_atom_site_type_symbol
	_atom_site_fract_x
	_atom_site_fract_y
	_atom_site_fract_z
	H0	H	0.393390	0.843083	0.711638
	H1	H	0.600050	0.163937	0.708495
	H2	H	0.604947	0.845339	0.265427
	H3	H	0.386967	0.160175	0.266916
	H4	H	0.719814	0.392397	0.831233
	H5	H	0.718414	0.606131	0.147741
	H6	H	0.270881	0.612492	0.832523
	H7	H	0.274559	0.396453	0.147826
	H8	H	0.839055	0.725913	0.381648
	H9	H	0.155617	0.720798	0.592002
	H10	H	0.838384	0.278485	0.594222
	H11	H	0.155735	0.280890	0.384261
	H12	H	0.838173	0.392236	0.711855
	H13	H	0.153422	0.607534	0.711171
	H14	H	0.839018	0.608434	0.266306
	H15	H	0.156679	0.398902	0.269513
	H16	H	0.391461	0.723496	0.830503
	H17	H	0.601035	0.721139	0.149237
	H18	H	0.598320	0.282973	0.829179
	H19	H	0.390888	0.281574	0.148708
	H20	H	0.720061	0.844482	0.381418
	H21	H	0.719495	0.161373	0.597141
	H22	H	0.276000	0.842370	0.598016
	H23	H	0.273996	0.160889	0.385301
	H24	H	0.892683	0.342868	0.210830
	H25	H	0.103455	0.660794	0.211169
	H26	H	0.102606	0.342307	0.767209
	H27	H	0.890204	0.660479	0.766418
	H28	H	0.223078	0.892862	0.334896
	H29	H	0.218137	0.109447	0.649679
	H30	H	0.772149	0.110512	0.332302
	H31	H	0.775189	0.894521	0.649326
	H32	H	0.337172	0.223697	0.884357
	H33	H	0.654370	0.222800	0.093702
	H34	H	0.338867	0.777479	0.096634
	H35	H	0.654875	0.779898	0.883745
	H36	H	0.338573	0.892993	0.214256
	H37	H	0.652611	0.109557	0.213227
	H38	H	0.337596	0.108155	0.768295
	H39	H	0.655713	0.898369	0.770530
	H40	H	0.892822	0.222179	0.329789
	H41	H	0.102121	0.224440	0.648290
	H42	H	0.102696	0.782147	0.331020
	H43	H	0.892530	0.780689	0.649223
	H44	H	0.219514	0.343353	0.882101
	H45	H	0.219535	0.659895	0.097499
	H46	H	0.778387	0.341185	0.093377
	H47	H	0.773689	0.660128	0.880128
	H48	H	0.407926	0.115377	0.575317
	H49	H	0.584035	0.887908	0.582880
	H50	H	0.588778	0.117545	0.402036
	H51	H	0.409872	0.890259	0.405743
	H52	H	0.585809	0.414254	0.101974
	H53	H	0.586669	0.588736	0.876641
	H54	H	0.409639	0.583343	0.099229
	H55	H	0.405230	0.417371	0.876725
	H56	H	0.110462	0.588002	0.394834
	H57	H	0.886011	0.584764	0.573291
	H58	H	0.108035	0.418358	0.579834
	H59	H	0.881949	0.403238	0.402322
	H60	H	0.111198	0.409053	0.581447
	H61	H	0.881736	0.588850	0.581893
	H62	H	0.111482	0.598108	0.399270
	H63	H	0.889033	0.419363	0.407133
	H64	H	0.412270	0.592490	0.102729
	H65	H	0.583526	0.588718	0.877109
	H66	H	0.586619	0.411775	0.103122
	H67	H	0.409790	0.413807	0.877505
	H68	H	0.578354	0.114687	0.400539
	H69	H	0.587056	0.888783	0.578055
	H70	H	0.401774	0.118217	0.580763
	H71	H	0.408302	0.888389	0.403468
	H72	H	0.907620	0.614851	0.075405
	H73	H	0.086476	0.385011	0.083748
	H74	H	0.083963	0.612653	0.906803
	H75	H	0.907498	0.391703	0.913910
	H76	H	0.090402	0.916981	0.604139
	H77	H	0.086282	0.086911	0.378392
	H78	H	0.908864	0.093613	0.603390
	H79	H	0.905622	0.914806	0.377103
	H80	H	0.608248	0.089218	0.899988
	H81	H	0.381980	0.089005	0.083615
	H82	H	0.607971	0.913954	0.076525
	H83	H	0.383729	0.906686	0.906546
	H84	H	0.608389	0.915990	0.079904
	H85	H	0.381264	0.095608	0.077030
	H86	H	0.612173	0.094416	0.896081
	H87	H	0.386922	0.921342	0.904351
	H88	H	0.904028	0.087529	0.602759
	H89	H	0.084790	0.090652	0.377832
	H90	H	0.080707	0.913099	0.602476
	H91	H	0.907830	0.916159	0.377379
	H92	H	0.087131	0.617430	0.898109
	H93	H	0.079615	0.389804	0.077793
	H94	H	0.905055	0.616566	0.077794
	H95	H	0.896293	0.381135	0.894533
	H96	H	0.409654	0.116760	0.584579
	H97	H	0.589779	0.887103	0.583141
	H98	H	0.583202	0.112443	0.410029
	H99	H	0.411074	0.889639	0.403359
	H100	H	0.588594	0.414008	0.102840
	H101	H	0.584729	0.591646	0.875777
	H102	H	0.403239	0.589381	0.103539
	H103	H	0.405033	0.412071	0.874138
	H104	H	0.107873	0.590087	0.404743
	H105	H	0.883610	0.594924	0.573573
	H106	H	0.107167	0.411708	0.572936
	H107	H	0.882143	0.416748	0.390548
	H108	H	0.909270	0.616924	0.078754
	H109	H	0.089266	0.388730	0.074047
	H110	H	0.077810	0.613750	0.898827
	H111	H	0.919813	0.389202	0.892708
	H112	H	0.088016	0.906529	0.606530
	H113	H	0.088119	0.089082	0.376316
	H114	H	0.911626	0.086997	0.600264
	H115	H	0.907838	0.914299	0.377288
	H116	H	0.609439	0.095682	0.902736
	H117	H	0.384878	0.087295	0.074609
	H118	H	0.609439	0.911784	0.079573
	H119	H	0.380752	0.913139	0.892871
	C120	C	0.375329	0.010863	0.612685
	C121	C	0.618616	0.993978	0.612544
	C122	C	0.617123	0.010554	0.369694
	C123	C	0.375332	0.993517	0.370379
	C124	C	0.617954	0.380313	-0.002654
	C125	C	0.618577	0.623045	0.980582
	C126	C	0.374666	0.623396	-0.002029
	C127	C	0.374482	0.381388	0.981095
	C128	C	0.005454	0.625054	0.366499
	C129	C	0.988070	0.622034	0.609008
	C130	C	0.004937	0.379358	0.610947
	C131	C	0.988973	0.381011	0.367738
	C132	C	0.875702	0.510804	0.110231
	C133	C	0.117515	0.493209	0.110548
	C134	C	0.116742	0.509749	0.868393
	C135	C	0.874780	0.492674	0.866866
	C136	C	0.118793	0.880331	0.499419
	C137	C	0.118520	0.122577	0.482032
	C138	C	0.875453	0.122693	0.497847
	C139	C	0.874939	0.881056	0.482006
	C140	C	0.504968	0.125156	0.867450
	C141	C	0.487196	0.123568	0.110845
	C142	C	0.504457	0.880296	0.111862
	C143	C	0.488298	0.881108	0.868910
	C144	C	0.374475	0.890629	0.671964
	C145	C	0.619482	0.115055	0.670655
	C146	C	0.621519	0.892591	0.306779
	C147	C	0.370246	0.112732	0.308048
	C148	C	0.678858	0.376021	0.878554
	C149	C	0.678408	0.624708	0.100146
	C150	C	0.312377	0.628619	0.879714
	C151	C	0.314211	0.378042	0.100287
	C152	C	0.886682	0.685609	0.363751
	C153	C	0.107787	0.681544	0.610853
	C154	C	0.885739	0.318420	0.612755
	C155	C	0.108345	0.320992	0.365837
	C156	C	0.885881	0.375118	0.671619
	C157	C	0.106490	0.625408	0.670496
	C158	C	0.886776	0.627308	0.305916
	C159	C	0.108715	0.379718	0.308749
	C160	C	0.372246	0.684354	0.878650
	C161	C	0.619901	0.682177	0.100803
	C162	C	0.618614	0.320939	0.877617
	C163	C	0.372427	0.321027	0.100653
	C164	C	0.678965	0.891953	0.364871
	C165	C	0.678690	0.113928	0.614689
	C166	C	0.315999	0.890526	0.615441
	C167	C	0.313946	0.113058	0.367124
	C168	C	0.873787	0.390576	0.171117
	C169	C	0.120965	0.613067	0.170966
	C170	C	0.120303	0.390179	0.807737
	C171	C	0.871959	0.612561	0.806292
	C172	C	0.181150	0.876251	0.381356
	C173	C	0.178247	0.126593	0.601772
	C174	C	0.813642	0.126974	0.379253
	C175	C	0.814803	0.877050	0.601207
	C176	C	0.385036	0.184365	0.865656
	C177	C	0.606554	0.183382	0.112763
	C178	C	0.386083	0.818288	0.114825
	C179	C	0.607598	0.820333	0.866168
	C180	C	0.385931	0.875838	0.173433
	C181	C	0.605691	0.127075	0.172386
	C182	C	0.385372	0.126773	0.807716
	C183	C	0.607960	0.879273	0.809487
	C184	C	0.873362	0.182754	0.377932
	C185	C	0.120061	0.183802	0.601153
	C186	C	0.120852	0.821286	0.379382
	C187	C	0.873286	0.820171	0.601315
	C188	C	0.178831	0.390711	0.864849
	C189	C	0.178918	0.612619	0.114285
	C190	C	0.817140	0.389803	0.112390
	C191	C	0.813887	0.612153	0.863255
	C192	C	0.399557	0.094891	0.587560
	C193	C	0.593970	0.909939	0.588397
	C194	C	0.591073	0.093369	0.396651
	C195	C	0.402134	0.910981	0.396569
	C196	C	0.593710	0.405883	0.080794
	C197	C	0.592542	0.597213	0.897809
	C198	C	0.400905	0.596372	0.080435
	C199	C	0.399561	0.407075	0.897966
	C200	C	0.088644	0.599416	0.392184
	C201	C	0.905358	0.596647	0.583512
	C202	C	0.087121	0.405519	0.585446
	C203	C	0.905892	0.405986	0.392726
	C204	C	0.900271	0.594134	0.084807
	C205	C	0.092316	0.409739	0.085420
	C206	C	0.090596	0.592822	0.893944
	C207	C	0.900393	0.409112	0.892792
	C208	C	0.093493	0.905215	0.582692
	C209	C	0.093510	0.096361	0.399128
	C210	C	0.900966	0.096853	0.580596
	C211	C	0.899838	0.907345	0.399031
	C212	C	0.588173	0.100227	0.892381
	C213	C	0.404374	0.098009	0.085660
	C214	C	0.587020	0.906479	0.086305
	C215	C	0.405443	0.906401	0.893991
	Zn216	Zn	0.496793	0.002708	0.740308
	Zn217	Zn	0.495513	0.002108	0.240844
	Zn218	Zn	0.747558	0.500820	-0.011085
	Zn219	Zn	0.245443	0.502130	-0.010188
	Zn220	Zn	-0.003373	0.752726	0.489483
	Zn221	Zn	-0.002574	0.251286	0.488596
	Zn222	Zn	-0.003995	0.501251	0.739090
	Zn223	Zn	-0.002392	0.502082	0.238805
	Zn224	Zn	0.496711	0.751729	-0.010784
	Zn225	Zn	0.495493	0.252790	-0.010451
	Zn226	Zn	0.746193	0.002220	0.490902
	Zn227	Zn	0.247301	0.001615	0.492287
	N228	N	0.410591	0.966412	0.670377
	N229	N	0.582941	0.039312	0.669603
	N230	N	0.583715	0.967380	0.309880
	N231	N	0.407744	0.037540	0.309946
	N232	N	0.678660	0.412267	0.954267
	N233	N	0.677799	0.588809	0.024438
	N234	N	0.313533	0.591590	0.955064
	N235	N	0.315078	0.414579	0.024816
	N236	N	0.961872	0.684517	0.400327
	N237	N	0.033043	0.679651	0.573339
	N238	N	0.960615	0.320638	0.575955
	N239	N	0.032932	0.321820	0.401894
	N240	N	0.960965	0.412263	0.670690
	N241	N	0.031228	0.588903	0.669283
	N242	N	0.961893	0.590507	0.307670
	N243	N	0.033445	0.416453	0.310082
	N244	N	0.410228	0.681211	0.953251
	N245	N	0.583481	0.681352	0.025236
	N246	N	0.581540	0.323436	0.952471
	N247	N	0.409184	0.323043	0.025429
	N248	N	0.676222	0.966471	0.403600
	N249	N	0.678280	0.037532	0.579340
	N250	N	0.316540	0.966515	0.579308
	N251	N	0.316722	0.037808	0.405023
	N252	N	0.909286	0.466776	0.170338
	N253	N	0.083352	0.538065	0.168563
	N254	N	0.082424	0.465086	0.809860
	N255	N	0.908732	0.537031	0.808233
	N256	N	0.180124	0.912128	0.457084
	N257	N	0.177513	0.089235	0.526566
	N258	N	0.814893	0.090375	0.454813
	N259	N	0.815440	0.913851	0.525803
	N260	N	0.460217	0.183241	0.902302
	N261	N	0.531769	0.181519	0.075502
	N262	N	0.460767	0.820825	0.077454
	N263	N	0.532130	0.821220	0.902156
	N264	N	0.460701	0.913493	0.171839
	N265	N	0.530430	0.090651	0.171316
	N266	N	0.460956	0.090743	0.808695
	N267	N	0.532834	0.916264	0.811047
	N268	N	0.910984	0.180534	0.452703
	N269	N	0.083706	0.181506	0.525784
	N270	N	0.082626	0.823890	0.453788
	N271	N	0.909814	0.822302	0.525942
	N272	N	0.176538	0.466111	0.902063
	N273	N	0.176858	0.537099	0.077252
	N274	N	0.818042	0.465423	0.075324
	N275	N	0.815352	0.536296	0.899991
	O276	O	0.346315	0.584707	0.305621
	H277	H	0.349494	0.567963	0.324534
	H278	H	0.335998	0.567705	0.299789
	O279	O	0.491314	0.293492	0.294767
	H280	H	0.524509	0.297223	0.295015
	H281	H	0.513415	0.273663	0.275014
	O282	O	0.549178	0.500201	0.654217
	H283	H	0.553425	0.508564	0.668658
	H284	H	0.538649	0.507078	0.643588
	O285	O	1.672264	0.559890	0.394543
	H286	H	1.679587	0.551601	0.409282
	H287	H	1.670065	0.575017	0.396500
	O288	O	0.542834	0.549361	0.298924
	H289	H	0.560352	0.525076	0.294659
	H290	H	0.534739	0.582687	0.298266
	O291	O	0.457257	0.710481	0.286641
	H292	H	0.421944	0.715645	0.287829
	H293	H	0.441820	0.726906	0.262825
	O294	O	1.186593	1.213573	1.013726
	H295	H	1.184869	1.219774	0.999108
	H296	H	1.182677	1.228149	0.997952
	O297	O	0.292941	0.486891	0.695872
	H298	H	0.284936	0.469153	0.699918
	H299	H	0.281665	0.454855	0.700071
	O300	O	0.467267	0.509983	0.415925
	H301	H	0.455966	0.512722	0.403049
	H302	H	0.478935	0.490094	0.412007
	O303	O	0.340624	0.528899	0.372638
	H304	H	0.341234	0.526374	0.377311
	H305	H	0.337699	0.522977	0.373241
	O306	O	0.163111	0.060546	0.949017
	H307	H	0.150280	0.074329	0.948619
	H308	H	0.165022	0.045484	0.969726
	O309	O	0.784971	-0.207488	0.066672
	H310	H	0.771661	-0.232910	0.069295
	H311	H	0.788235	-0.188313	0.069142
	O312	O	0.677027	0.319582	0.333270
	H313	H	0.682898	0.323805	0.370794
	H314	H	0.694538	0.347225	0.318246
	O315	O	0.506180	0.711057	0.597635
	H316	H	0.483452	0.697177	0.594315
	H317	H	0.506164	0.725557	0.610831
	O318	O	-0.120830	-0.133209	0.161005
	H319	H	-0.079791	-0.144678	0.161413
	H320	H	-0.134815	-0.136636	0.138430
	O321	O	0.674356	0.466474	0.508821
	H322	H	0.674243	0.436589	0.512948
	H323	H	0.677517	0.486147	0.547284
	O324	O	0.827219	0.077237	0.797306
	H325	H	0.821025	0.079967	0.803061
	H326	H	0.817035	0.084762	0.784664
	O327	O	0.299704	0.326989	0.505299
	H328	H	0.327875	0.320770	0.472571
	H329	H	0.283902	0.313892	0.503652
	O330	O	0.018231	0.893258	0.956451
	H331	H	0.026499	0.892287	0.977667
	H332	H	0.020522	0.901256	0.967258
	O333	O	-0.027922	0.794790	0.198945
	H334	H	-0.010284	0.784116	0.200063
	H335	H	-0.025668	0.793668	0.216303
	O336	O	0.928545	1.129209	-0.092944
	H337	H	0.940230	1.131458	-0.090552
	H338	H	0.926837	1.129927	-0.103406
	O339	O	-0.083998	1.067853	0.887200
	H340	H	-0.078406	1.074372	0.883157
	H341	H	-0.078350	1.060563	0.887212
	O342	O	0.651442	0.295076	0.495839
	H343	H	0.665473	0.280486	0.484668
	H344	H	0.635205	0.295720	0.503290
	O345	O	-0.143330	0.176715	0.893842
	H346	H	-0.131943	0.172106	0.912950
	H347	H	-0.150666	0.169889	0.912715
	O348	O	0.579546	0.334201	0.464515
	H349	H	0.575953	0.325322	0.465269
	H350	H	0.581778	0.359291	0.473528
	O351	O	0.997094	1.085839	0.174753
	H352	H	0.992267	1.072756	0.163012
	H353	H	0.990519	1.089108	0.191574
	O354	O	1.006161	1.140754	0.908605
	H355	H	0.995836	1.142608	0.892028
	H356	H	1.018279	1.128477	0.904609
	O357	O	0.117422	-0.137519	-0.066813
	H358	H	0.114788	-0.125109	-0.046049
	H359	H	0.138379	-0.124014	-0.073969
	O360	O	0.154018	-0.048919	1.154335
	H361	H	0.172256	-0.032707	1.163108
	H362	H	0.161483	-0.033481	1.148912
	O363	O	0.806914	0.049633	0.136608
	H364	H	0.793058	0.058221	0.137673
	H365	H	0.800089	0.038030	0.133680
	O366	O	0.071256	-0.202811	0.964303
	H367	H	0.087151	-0.195899	0.978809
	H368	H	0.060372	-0.216529	0.960700
	O369	O	1.294178	0.398636	1.300026
	H370	H	1.316806	0.394168	1.295881
	H371	H	1.305940	0.386899	1.305298
	O372	O	1.132208	0.969313	0.051671
	H373	H	1.135092	0.966889	0.053959
	H374	H	1.129113	0.972998	0.066707
	O375	O	-0.512491	-0.647439	1.557289
	H376	H	-0.503688	-0.658308	1.573104
	H377	H	-0.498587	-0.628185	1.554237
	O378	O	0.715388	0.521772	0.707451
	H379	H	0.745356	0.533319	0.737548
	H380	H	0.707210	0.569327	0.701836
	O381	O	-0.207235	0.980237	-0.037475
	H382	H	-0.211764	0.966891	-0.058752
	H383	H	-0.203793	0.981083	-0.034505
	O384	O	0.314824	0.327621	0.647534
	H385	H	0.316570	0.315988	0.615815
	H386	H	0.353150	0.315235	0.646655
	O387	O	0.540184	0.653290	0.439302
	H388	H	0.518874	0.649728	0.457071
	H389	H	0.527604	0.661920	0.411227
	O390	O	1.114344	0.889639	0.117515
	H391	H	1.135343	0.903882	0.104886
	H392	H	1.114648	0.888292	0.116745
	O393	O	0.809170	0.043278	1.154421
	H394	H	0.813225	0.031644	1.167820
	H395	H	0.815984	0.009219	1.137720
	O396	O	0.647101	0.681086	0.676548
	H397	H	0.653788	0.687987	0.632580
	H398	H	0.601214	0.691781	0.685723
	O399	O	0.497467	0.666403	0.549671
	H400	H	0.500797	0.667852	0.543750
	H401	H	0.496889	0.651761	0.549519
	O402	O	1.122106	0.926476	-0.186338
	H403	H	1.114698	0.925083	-0.171863
	H404	H	1.129083	0.917684	-0.199858
	O405	O	0.706902	0.713155	0.543184
	H406	H	0.719325	0.738750	0.539432
	H407	H	0.682894	0.724555	0.514255
	O408	O	0.326813	0.559236	0.510740
	H409	H	0.321711	0.541027	0.524303
	H410	H	0.324700	0.554496	0.530200
	O411	O	0.962545	1.052304	0.866447
	H412	H	0.971488	1.050463	0.870029
	H413	H	0.956139	1.045916	0.871816
	O414	O	0.043073	0.176981	1.095539
	H415	H	0.035469	0.173463	1.083605
	H416	H	0.042590	0.170575	1.084142
	O417	O	-0.023050	1.157621	0.895617
	H418	H	-0.036603	1.139196	0.907971
	H419	H	-0.027438	1.166064	0.877771
	O420	O	0.025237	0.898512	0.790017
	H421	H	0.014278	0.890694	0.816085
	H422	H	0.017269	0.891861	0.771686
	O423	O	0.169051	0.814698	-0.194093
	H424	H	0.125099	0.811069	-0.199327
	H425	H	0.174489	0.835312	-0.176562
	O426	O	0.404779	0.545917	0.649704
	H427	H	0.399984	0.534048	0.659498
	H428	H	0.397177	0.530866	0.653929
	O429	O	0.310155	0.685590	0.481184
	H430	H	0.328294	0.680917	0.494016
	H431	H	0.286611	0.686385	0.487226
	O432	O	0.531897	0.366339	0.676346
	H433	H	0.531545	0.363817	0.667599
	H434	H	0.559384	0.385714	0.679202
	O435	O	0.176392	0.107391	0.158228
	H436	H	0.157130	0.127798	0.149393
	H437	H	0.179144	0.112258	0.144364
	O438	O	-0.139372	0.879435	0.972814
	H439	H	-0.150134	0.880438	0.974613
	H440	H	-0.146287	0.877646	0.978964
	O441	O	0.700808	0.466731	0.280500
	H442	H	0.712338	0.479155	0.304487
	H443	H	0.714557	0.468145	0.259351
