data_Molecule from HDF5

_cell_length_a		16.396603
_cell_length_b		16.314012
_cell_length_c		16.307130
_cell_angle_alpha	89.683910
_cell_angle_beta	89.908619
_cell_angle_gamma	89.753042
_symmetry_space_group_name_H-M	'P 1'
_symmetry_Int_Tables_number		1

loop_
	_symmetry_equiv_pos_as_xyz
	x,y,z

loop_
	_atom_site_label
	_atom_site_type_symbol
	_atom_site_fract_x
	_atom_site_fract_y
	_atom_site_fract_z
	H0	H	0.403986	0.835880	0.714562
	H1	H	0.605844	0.158139	0.716761
	H2	H	0.608125	0.836261	0.278558
	H3	H	0.400091	0.157887	0.276725
	H4	H	0.721259	0.394354	0.836544
	H5	H	0.718772	0.600222	0.158401
	H6	H	0.281068	0.600745	0.836888
	H7	H	0.279823	0.390586	0.157514
	H8	H	0.843695	0.721569	0.395098
	H9	H	0.162536	0.713563	0.602409
	H10	H	0.842473	0.276103	0.601910
	H11	H	0.162418	0.277430	0.393662
	H12	H	0.839056	0.394870	0.715031
	H13	H	0.159343	0.599029	0.719592
	H14	H	0.840866	0.602279	0.280538
	H15	H	0.160545	0.391803	0.276782
	H16	H	0.398754	0.715086	0.836023
	H17	H	0.598162	0.710008	0.160060
	H18	H	0.604880	0.279591	0.835916
	H19	H	0.398045	0.276374	0.157556
	H20	H	0.726620	0.838189	0.393033
	H21	H	0.720661	0.158910	0.600014
	H22	H	0.284713	0.837589	0.603529
	H23	H	0.282449	0.158080	0.391512
	H24	H	0.897452	0.337042	0.219224
	H25	H	0.103115	0.657828	0.215048
	H26	H	0.101094	0.335276	0.780229
	H27	H	0.894142	0.657794	0.777185
	H28	H	0.223416	0.895364	0.338317
	H29	H	0.222269	0.100683	0.659314
	H30	H	0.781589	0.106845	0.338802
	H31	H	0.785352	0.896441	0.660022
	H32	H	0.342834	0.219395	0.889159
	H33	H	0.661189	0.217924	0.100775
	H34	H	0.339905	0.780890	0.099408
	H35	H	0.662586	0.775502	0.896136
	H36	H	0.342872	0.893630	0.218458
	H37	H	0.662532	0.101108	0.216373
	H38	H	0.342310	0.099620	0.777466
	H39	H	0.665087	0.894288	0.780829
	H40	H	0.901387	0.217622	0.336993
	H41	H	0.103779	0.213514	0.660225
	H42	H	0.109870	0.777631	0.338325
	H43	H	0.902559	0.780882	0.660801
	H44	H	0.222683	0.337506	0.890115
	H45	H	0.220479	0.656333	0.101625
	H46	H	0.782377	0.336147	0.101648
	H47	H	0.781707	0.658505	0.894767
	H48	H	0.417924	0.110395	0.584657
	H49	H	0.592741	0.882672	0.592129
	H50	H	0.590057	0.107967	0.415924
	H51	H	0.413165	0.884170	0.411733
	H52	H	0.586451	0.405364	0.111202
	H53	H	0.593959	0.586421	0.881616
	H54	H	0.401503	0.585640	0.114612
	H55	H	0.415870	0.407991	0.883881
	H56	H	0.117741	0.590399	0.405322
	H57	H	0.890426	0.586812	0.580646
	H58	H	0.116678	0.406926	0.594006
	H59	H	0.887563	0.413605	0.403279
	H60	H	0.115830	0.403475	0.588413
	H61	H	0.885513	0.585590	0.593178
	H62	H	0.115579	0.587043	0.410195
	H63	H	0.884901	0.399925	0.409298
	H64	H	0.412855	0.581691	0.110741
	H65	H	0.590217	0.586679	0.883485
	H66	H	0.593938	0.404276	0.113435
	H67	H	0.407410	0.405647	0.880425
	H68	H	0.600174	0.114652	0.405647
	H69	H	0.594451	0.884314	0.584295
	H70	H	0.408517	0.113843	0.583548
	H71	H	0.412541	0.882527	0.407521
	H72	H	0.907576	0.612941	0.089997
	H73	H	0.086260	0.382724	0.089110
	H74	H	0.096173	0.612024	0.914607
	H75	H	0.910475	0.382399	0.909390
	H76	H	0.093117	0.902880	0.614534
	H77	H	0.094521	0.083547	0.384588
	H78	H	0.915785	0.087070	0.612078
	H79	H	0.916401	0.907786	0.384120
	H80	H	0.615243	0.083830	0.906909
	H81	H	0.391066	0.077982	0.088163
	H82	H	0.616813	0.906490	0.091980
	H83	H	0.387117	0.908178	0.900974
	H84	H	0.618000	0.898283	0.088737
	H85	H	0.386876	0.089403	0.089243
	H86	H	0.617208	0.088481	0.905183
	H87	H	0.386691	0.901620	0.906745
	H88	H	0.910615	0.089695	0.613906
	H89	H	0.091213	0.087517	0.384082
	H90	H	0.099377	0.907102	0.615146
	H91	H	0.912394	0.911758	0.383447
	H92	H	0.089652	0.614340	0.899183
	H93	H	0.089930	0.383292	0.083678
	H94	H	0.909480	0.611622	0.088159
	H95	H	0.907648	0.381053	0.908387
	H96	H	0.413025	0.113968	0.592329
	H97	H	0.600522	0.880792	0.588559
	H98	H	0.585342	0.111371	0.400962
	H99	H	0.416518	0.883825	0.408019
	H100	H	0.591756	0.410752	0.109695
	H101	H	0.591193	0.589513	0.880685
	H102	H	0.411338	0.593515	0.114137
	H103	H	0.409771	0.414521	0.884131
	H104	H	0.115894	0.584520	0.404203
	H105	H	0.883638	0.597354	0.586603
	H106	H	0.113879	0.409868	0.588435
	H107	H	0.892380	0.410412	0.417577
	H108	H	0.907151	0.612338	0.086854
	H109	H	0.091888	0.381047	0.089219
	H110	H	0.080787	0.606117	0.911406
	H111	H	0.910533	0.381540	0.905841
	H112	H	0.093432	0.910123	0.611715
	H113	H	0.096279	0.088956	0.382774
	H114	H	0.910933	0.083917	0.612189
	H115	H	0.917235	0.912508	0.386533
	H116	H	0.615075	0.088282	0.910010
	H117	H	0.390911	0.085916	0.078171
	H118	H	0.614390	0.904800	0.083397
	H119	H	0.390316	0.909163	0.909300
	C120	C	0.383084	0.006110	0.618345
	C121	C	0.625534	0.989015	0.619136
	C122	C	0.624970	0.005566	0.375854
	C123	C	0.381732	0.988880	0.376114
	C124	C	0.622314	0.376101	0.005151
	C125	C	0.621502	0.617479	0.988927
	C126	C	0.378015	0.618406	0.006574
	C127	C	0.379102	0.375986	0.988434
	C128	C	0.010808	0.620276	0.375871
	C129	C	0.992282	0.619385	0.619566
	C130	C	0.009192	0.375519	0.620184
	C131	C	0.993724	0.376236	0.377568
	C132	C	0.878026	0.506018	0.119952
	C133	C	0.120498	0.488494	0.117974
	C134	C	0.121010	0.505155	0.876095
	C135	C	0.878524	0.488568	0.876686
	C136	C	0.126549	0.875670	0.507667
	C137	C	0.124623	0.118190	0.490078
	C138	C	0.881133	0.119949	0.506829
	C139	C	0.883540	0.878531	0.490893
	C140	C	0.510854	0.118721	0.874677
	C141	C	0.494507	0.117400	0.117447
	C142	C	0.510078	0.873817	0.119333
	C143	C	0.494442	0.874728	0.875647
	C144	C	0.383558	0.884417	0.676327
	C145	C	0.625288	0.110027	0.677593
	C146	C	0.627057	0.884600	0.317805
	C147	C	0.380771	0.109626	0.316090
	C148	C	0.681503	0.375448	0.884405
	C149	C	0.679363	0.618387	0.110287
	C150	C	0.320296	0.619494	0.884940
	C151	C	0.319720	0.372536	0.109337
	C152	C	0.891228	0.681256	0.375467
	C153	C	0.113780	0.675482	0.621388
	C154	C	0.889595	0.316265	0.620453
	C155	C	0.114199	0.317095	0.375561
	C156	C	0.887801	0.375370	0.676697
	C157	C	0.112111	0.618304	0.679605
	C158	C	0.889812	0.621867	0.318698
	C159	C	0.113211	0.374115	0.317146
	C160	C	0.378923	0.676243	0.884504
	C161	C	0.619251	0.672907	0.111273
	C162	C	0.623596	0.318264	0.884026
	C163	C	0.378537	0.315581	0.109284
	C164	C	0.685972	0.885532	0.374596
	C165	C	0.682255	0.110430	0.619379
	C166	C	0.324647	0.885260	0.620660
	C167	C	0.322429	0.109927	0.373479
	C168	C	0.877940	0.385118	0.179494
	C169	C	0.121600	0.609466	0.176186
	C170	C	0.121220	0.384034	0.817991
	C171	C	0.876783	0.609771	0.817520
	C172	C	0.184852	0.875313	0.386608
	C173	C	0.182812	0.119096	0.611035
	C174	C	0.821676	0.123875	0.386568
	C175	C	0.824716	0.877495	0.611895
	C176	C	0.390674	0.178756	0.871806
	C177	C	0.613739	0.177751	0.119107
	C178	C	0.388790	0.818447	0.119191
	C179	C	0.615145	0.815549	0.876617
	C180	C	0.390304	0.874183	0.178827
	C181	C	0.614426	0.119517	0.176825
	C182	C	0.390381	0.119371	0.815711
	C183	C	0.616190	0.874424	0.819004
	C184	C	0.881219	0.178967	0.385577
	C185	C	0.123722	0.175137	0.611557
	C186	C	0.128066	0.816949	0.386683
	C187	C	0.882932	0.819884	0.612414
	C188	C	0.181743	0.385020	0.873017
	C189	C	0.180079	0.608847	0.119453
	C190	C	0.820758	0.384699	0.120944
	C191	C	0.820487	0.610003	0.875864
	C192	C	0.406476	0.090594	0.593673
	C193	C	0.602550	0.904485	0.595454
	C194	C	0.599445	0.089453	0.400395
	C195	C	0.406839	0.905202	0.401758
	C196	C	0.597844	0.399846	0.089371
	C197	C	0.598554	0.594259	0.904169
	C198	C	0.401495	0.593978	0.091057
	C199	C	0.403752	0.401924	0.904643
	C200	C	0.094581	0.594690	0.399636
	C201	C	0.908370	0.596501	0.594117
	C202	C	0.093640	0.399631	0.596918
	C203	C	0.909949	0.400891	0.402801
	C204	C	0.901386	0.590248	0.095383
	C205	C	0.096310	0.404493	0.094093
	C206	C	0.096222	0.588966	0.901312
	C207	C	0.902539	0.403731	0.900894
	C208	C	0.102419	0.899586	0.591796
	C209	C	0.100912	0.093947	0.405798
	C210	C	0.905517	0.094451	0.590914
	C211	C	0.908241	0.903417	0.406643
	C212	C	0.594271	0.093897	0.899961
	C213	C	0.411213	0.091806	0.092542
	C214	C	0.594562	0.896822	0.094931
	C215	C	0.410126	0.899091	0.898805
	Zn216	Zn	0.503651	-0.003138	0.746637
	Zn217	Zn	0.503606	-0.003690	0.247270
	Zn218	Zn	0.750009	0.497473	-0.002519
	Zn219	Zn	0.249800	0.496534	-0.002565
	Zn220	Zn	0.003720	0.748460	0.499118
	Zn221	Zn	0.003154	0.246642	0.498418
	Zn222	Zn	-0.001343	0.497092	0.748075
	Zn223	Zn	0.000840	0.496980	0.248294
	Zn224	Zn	0.500799	0.745617	-0.002066
	Zn225	Zn	0.501202	0.247395	-0.003855
	Zn226	Zn	0.753740	-0.001077	0.497682
	Zn227	Zn	0.254150	-0.001735	0.499034
	N228	N	0.419023	0.960426	0.675124
	N229	N	0.590749	0.033455	0.677516
	N230	N	0.590014	0.960278	0.318472
	N231	N	0.416912	0.033551	0.317801
	N232	N	0.681165	0.410162	0.960882
	N233	N	0.680642	0.584511	0.033230
	N234	N	0.319455	0.584510	0.961742
	N235	N	0.320163	0.409243	0.033238
	N236	N	0.967742	0.680789	0.409890
	N237	N	0.038405	0.676163	0.584701
	N238	N	0.966163	0.316293	0.585920
	N239	N	0.038931	0.318576	0.412602
	N240	N	0.963337	0.411578	0.676579
	N241	N	0.035534	0.584238	0.678537
	N242	N	0.965293	0.584877	0.318728
	N243	N	0.037255	0.410337	0.318468
	N244	N	0.413691	0.676103	0.961201
	N245	N	0.584326	0.672763	0.034697
	N246	N	0.587573	0.318455	0.960119
	N247	N	0.414655	0.317561	0.033191
	N248	N	0.684864	0.961930	0.409800
	N249	N	0.682533	0.034303	0.583716
	N250	N	0.324202	0.961986	0.585230
	N251	N	0.322772	0.033727	0.410200
	N252	N	0.912599	0.461654	0.179293
	N253	N	0.085054	0.533865	0.175208
	N254	N	0.084069	0.459669	0.819812
	N255	N	0.912246	0.533269	0.818099
	N256	N	0.184088	0.910915	0.462602
	N257	N	0.183535	0.084532	0.534351
	N258	N	0.821832	0.087602	0.462833
	N259	N	0.825109	0.913273	0.535406
	N260	N	0.466461	0.178615	0.907747
	N261	N	0.537932	0.176789	0.083164
	N262	N	0.464411	0.818206	0.082883
	N263	N	0.538390	0.815672	0.910923
	N264	N	0.467063	0.907922	0.179064
	N265	N	0.539240	0.082515	0.175734
	N266	N	0.466102	0.082848	0.817401
	N267	N	0.540163	0.910332	0.818180
	N268	N	0.917442	0.176667	0.461472
	N269	N	0.088528	0.174902	0.535084
	N270	N	0.092547	0.816712	0.463264
	N271	N	0.918804	0.820517	0.536111
	N272	N	0.181811	0.461329	0.908401
	N273	N	0.179691	0.532576	0.084009
	N274	N	0.820657	0.460834	0.084588
	N275	N	0.821412	0.533572	0.911893
	O276	O	0.667662	0.429181	0.294440
	H277	H	0.691045	0.413985	0.298232
	H278	H	0.679371	0.411846	0.283873
	O279	O	0.512098	0.585597	0.682259
	H280	H	0.541704	0.593257	0.678292
	H281	H	0.496100	0.594004	0.676477
	O282	O	0.437336	0.506762	0.477412
	H283	H	0.423345	0.515213	0.474834
	H284	H	0.446751	0.501486	0.481021
	O285	O	1.035013	-0.100088	0.040231
	H286	H	1.039963	-0.090822	0.036884
	H287	H	1.045813	-0.104483	0.024627
	O288	O	-0.325856	0.398267	0.324206
	H289	H	-0.329071	0.395109	0.314035
	H290	H	-0.334154	0.394230	0.360690
	O291	O	0.609100	0.613847	0.485576
	H292	H	0.609803	0.617484	0.482882
	H293	H	0.610598	0.607595	0.487509
	O294	O	0.496638	0.295933	0.674482
	H295	H	0.467982	0.306564	0.664726
	H296	H	0.487455	0.275297	0.698368
	O297	O	0.894144	1.001934	0.977410
	H298	H	0.891760	1.015855	0.963515
	H299	H	0.885584	0.996099	0.976520
	O300	O	0.025914	-0.065747	-0.108679
	H301	H	0.010501	-0.083587	-0.089486
	H302	H	0.025881	-0.042494	-0.099843
	O303	O	0.501839	0.370181	0.296295
	H304	H	0.497615	0.370753	0.279963
	H305	H	0.507526	0.350784	0.298838
	O306	O	1.110284	-0.040344	0.053048
	H307	H	1.114892	-0.058193	0.037162
	H308	H	1.094208	-0.054435	0.057999
	O309	O	0.298435	0.297770	0.532003
	H310	H	0.286163	0.299382	0.530903
	H311	H	0.284706	0.292651	0.538687
	O312	O	1.035584	0.858825	0.204919
	H313	H	1.062042	0.871620	0.221722
	H314	H	1.038621	0.834116	0.208655
	O315	O	0.515104	0.423769	0.689477
	H316	H	0.528704	0.442211	0.693339
	H317	H	0.511741	0.440296	0.695061
	O318	O	0.519071	0.490518	0.415885
	H319	H	0.512312	0.486817	0.430722
	H320	H	0.525800	0.480225	0.411679
	O321	O	1.318304	-0.123186	1.198786
	H322	H	1.321092	-0.122966	1.209947
	H323	H	1.327074	-0.131602	1.197457
	O324	O	-0.171214	-0.184517	1.089781
	H325	H	-0.172533	-0.182932	1.095110
	H326	H	-0.157645	-0.182221	1.093099
	O327	O	0.393328	0.426053	0.344023
	H328	H	0.384024	0.439515	0.349124
	H329	H	0.413892	0.410704	0.354272
	O330	O	0.643556	0.591679	0.544212
	H331	H	0.651002	0.593501	0.546273
	H332	H	0.639187	0.601572	0.534123
	O333	O	1.044711	0.907113	1.198621
	H334	H	1.037500	0.920363	1.191601
	H335	H	1.063528	0.908299	1.191899
	O336	O	0.493953	0.363785	0.457963
	H337	H	0.499934	0.363796	0.467479
	H338	H	0.481048	0.359071	0.461909
	O339	O	0.898536	0.140298	1.069774
	H340	H	0.891811	0.125263	1.076407
	H341	H	0.886674	0.142361	1.071775
	O342	O	0.061266	1.106124	1.189035
	H343	H	0.050077	1.114581	1.186016
	H344	H	0.052955	1.094719	1.192972
	O345	O	-0.040114	1.031809	0.836551
	H346	H	-0.028780	1.020786	0.835383
	H347	H	-0.036275	1.050380	0.829621
	O348	O	0.514229	0.611378	0.435720
	H349	H	0.510492	0.638188	0.423827
	H350	H	0.518620	0.589785	0.432119
	O351	O	-0.178246	-0.085534	0.157317
	H352	H	-0.179036	-0.102673	0.150224
	H353	H	-0.158119	-0.097632	0.160053
	O354	O	1.036817	1.079570	-0.153731
	H355	H	1.036024	1.102395	-0.142141
	H356	H	1.050584	1.066328	-0.161620
	O357	O	-0.116882	1.153344	0.016069
	H358	H	-0.130857	1.165833	0.011564
	H359	H	-0.122791	1.138996	0.029974
	O360	O	0.623560	0.387987	0.568857
	H361	H	0.615082	0.381708	0.583501
	H362	H	0.629410	0.389822	0.578322
	O363	O	0.451752	0.594864	0.588070
	H364	H	0.460081	0.600696	0.586502
	H365	H	0.451908	0.591526	0.581198
	O366	O	0.411161	0.625063	0.389739
	H367	H	0.418358	0.629877	0.389007
	H368	H	0.412019	0.631461	0.380707
	O369	O	0.522266	0.655361	0.690608
	H370	H	0.531624	0.651612	0.694015
	H371	H	0.525842	0.666125	0.679701
	O372	O	0.278388	0.749318	0.403588
	H373	H	0.276678	0.735280	0.403726
	H374	H	0.274406	0.741812	0.385743
	O375	O	0.378448	0.401111	0.511751
	H376	H	0.369968	0.386367	0.489712
	H377	H	0.377254	0.419035	0.508592
	O378	O	0.672476	0.530281	0.588519
	H379	H	0.641755	0.530516	0.587359
	H380	H	0.674587	0.532551	0.597999
	O381	O	0.497664	0.541788	0.470184
	H382	H	0.502451	0.548632	0.454903
	H383	H	0.491279	0.524902	0.474852
	O384	O	-0.092493	1.051324	0.848607
	H385	H	-0.070747	1.060191	0.845827
	H386	H	-0.103909	1.060389	0.846190
	O387	O	0.971295	0.867245	-0.109134
	H388	H	0.973739	0.864556	-0.094624
	H389	H	0.975001	0.874392	-0.095810
	O390	O	0.438807	0.436356	0.667347
	H391	H	0.435989	0.444308	0.687728
	H392	H	0.453458	0.446441	0.666748
	O393	O	0.807834	-0.062715	1.167917
	H394	H	0.781647	-0.070058	1.193354
	H395	H	0.821355	-0.083854	1.156086
	O396	O	0.052990	0.833730	0.861471
	H397	H	0.044189	0.824505	0.856942
	H398	H	0.059027	0.841441	0.861721
	O399	O	0.424507	0.632165	0.559966
	H400	H	0.429261	0.631278	0.562714
	H401	H	0.423941	0.637015	0.556183
	O402	O	0.859764	0.066206	0.838264
	H403	H	0.872650	0.067038	0.841081
	H404	H	0.852824	0.070224	0.834403
	O405	O	0.103484	-0.093656	-0.171131
	H406	H	0.111236	-0.110143	-0.183843
	H407	H	0.099081	-0.093767	-0.167838
	O408	O	1.192213	1.136244	1.127649
	H409	H	1.203253	1.150640	1.138735
	H410	H	1.178121	1.119295	1.136464
	O411	O	1.117307	1.180926	0.069381
	H412	H	1.090717	1.174806	0.089702
	H413	H	1.136023	1.197768	0.064062
	O414	O	0.196156	-0.187911	0.900124
	H415	H	0.209482	-0.206355	0.891194
	H416	H	0.192552	-0.169573	0.866438
	O417	O	0.336534	0.522201	0.345101
	H418	H	0.340315	0.527852	0.348045
	H419	H	0.337744	0.516170	0.339817
	O420	O	0.174419	1.063789	0.035940
	H421	H	0.173114	1.039411	0.047545
	H422	H	0.167652	1.077318	0.033587
	O423	O	0.920310	0.180988	-0.053694
	H424	H	0.907377	0.195129	-0.055166
	H425	H	0.924066	0.179339	-0.072229
	O426	O	0.135480	-0.058139	0.981242
	H427	H	0.126281	-0.058833	0.981465
	H428	H	0.141299	-0.047099	0.991084
	O429	O	0.356754	0.677401	0.388626
	H430	H	0.347673	0.671952	0.380114
	H431	H	0.372660	0.680454	0.375114
