data_Molecule from HDF5

_cell_length_a		16.187221
_cell_length_b		16.224989
_cell_length_c		16.353284
_cell_angle_alpha	89.867689
_cell_angle_beta	90.183093
_cell_angle_gamma	90.211888
_symmetry_space_group_name_H-M	'P 1'
_symmetry_Int_Tables_number		1

loop_
	_symmetry_equiv_pos_as_xyz
	x,y,z

loop_
	_atom_site_label
	_atom_site_type_symbol
	_atom_site_fract_x
	_atom_site_fract_y
	_atom_site_fract_z
	H0	H	0.401237	0.832116	0.715975
	H1	H	0.603037	0.160392	0.714732
	H2	H	0.601801	0.832530	0.285833
	H3	H	0.401115	0.159085	0.282873
	H4	H	0.714925	0.398720	0.835630
	H5	H	0.718153	0.595377	0.161741
	H6	H	0.287331	0.595000	0.836425
	H7	H	0.287070	0.397800	0.162633
	H8	H	0.836163	0.707241	0.400345
	H9	H	0.165694	0.709610	0.597112
	H10	H	0.836645	0.280698	0.596216
	H11	H	0.166758	0.283043	0.401601
	H12	H	0.837446	0.393419	0.714735
	H13	H	0.164822	0.596445	0.715109
	H14	H	0.837391	0.594677	0.282818
	H15	H	0.165832	0.397008	0.283956
	H16	H	0.402534	0.712466	0.837147
	H17	H	0.602097	0.709984	0.163188
	H18	H	0.600006	0.281762	0.836478
	H19	H	0.402291	0.280151	0.162241
	H20	H	0.713432	0.831909	0.403973
	H21	H	0.716228	0.160913	0.596842
	H22	H	0.287369	0.831360	0.596856
	H23	H	0.287986	0.160147	0.401263
	H24	H	0.902152	0.332076	0.213214
	H25	H	0.102511	0.660023	0.214516
	H26	H	0.101571	0.331971	0.784982
	H27	H	0.900587	0.659460	0.781631
	H28	H	0.215139	0.897804	0.335469
	H29	H	0.217828	0.093609	0.661317
	H30	H	0.787161	0.093727	0.335719
	H31	H	0.787545	0.896469	0.662587
	H32	H	0.336069	0.207945	0.900804
	H33	H	0.666446	0.209950	0.097376
	H34	H	0.337397	0.782121	0.097098
	H35	H	0.667020	0.783758	0.903208
	H36	H	0.337812	0.894805	0.213979
	H37	H	0.665627	0.096320	0.215676
	H38	H	0.338212	0.095594	0.783083
	H39	H	0.666387	0.897022	0.785584
	H40	H	0.902370	0.210552	0.335808
	H41	H	0.103500	0.211519	0.661996
	H42	H	0.099491	0.781256	0.335563
	H43	H	0.902294	0.778995	0.661286
	H44	H	0.214391	0.331862	0.902541
	H45	H	0.216363	0.660817	0.096647
	H46	H	0.786974	0.331959	0.095907
	H47	H	0.788086	0.661416	0.900674
	H48	H	0.407472	0.112676	0.589471
	H49	H	0.590114	0.882941	0.586975
	H50	H	0.594601	0.114721	0.404082
	H51	H	0.410834	0.881256	0.412715
	H52	H	0.585668	0.404198	0.113118
	H53	H	0.587716	0.593430	0.883966
	H54	H	0.408446	0.584627	0.114664
	H55	H	0.413090	0.394683	0.882561
	H56	H	0.120571	0.593558	0.403180
	H57	H	0.883562	0.593490	0.584630
	H58	H	0.120967	0.392596	0.589551
	H59	H	0.888408	0.410274	0.410105
	H60	H	0.112729	0.411509	0.584799
	H61	H	0.886788	0.577752	0.588982
	H62	H	0.116594	0.589127	0.411646
	H63	H	0.882556	0.404266	0.395032
	H64	H	0.412608	0.591511	0.114909
	H65	H	0.598960	0.593449	0.880965
	H66	H	0.598240	0.394178	0.118601
	H67	H	0.399422	0.401962	0.880737
	H68	H	0.592280	0.113303	0.406074
	H69	H	0.602270	0.876808	0.593898
	H70	H	0.409930	0.113845	0.595856
	H71	H	0.402602	0.876458	0.404525
	H72	H	0.900304	0.618087	0.098090
	H73	H	0.103864	0.379129	0.087020
	H74	H	0.097253	0.616377	0.897956
	H75	H	0.903228	0.375302	0.896625
	H76	H	0.095115	0.901618	0.615144
	H77	H	0.105487	0.086678	0.380173
	H78	H	0.908546	0.092840	0.616037
	H79	H	0.909990	0.905454	0.384912
	H80	H	0.619277	0.083318	0.900793
	H81	H	0.382092	0.088105	0.097664
	H82	H	0.618435	0.908936	0.095484
	H83	H	0.380149	0.889149	0.905646
	H84	H	0.622059	0.901026	0.097765
	H85	H	0.384333	0.091808	0.087876
	H86	H	0.621907	0.097747	0.905485
	H87	H	0.391303	0.909649	0.921532
	H88	H	0.905730	0.085033	0.615070
	H89	H	0.086567	0.081791	0.387538
	H90	H	0.093831	0.902996	0.614121
	H91	H	0.907884	0.895850	0.380699
	H92	H	0.085814	0.611038	0.905306
	H93	H	0.093783	0.376606	0.102751
	H94	H	0.922814	0.610729	0.096350
	H95	H	0.920130	0.382873	0.905894
	H96	H	0.414311	0.109817	0.590445
	H97	H	0.589119	0.878406	0.601465
	H98	H	0.596062	0.113400	0.407138
	H99	H	0.414297	0.878579	0.400915
	H100	H	0.601364	0.410348	0.115328
	H101	H	0.593228	0.583810	0.885390
	H102	H	0.405334	0.591207	0.117795
	H103	H	0.411424	0.409657	0.886458
	H104	H	0.118406	0.583498	0.402496
	H105	H	0.880748	0.588301	0.599762
	H106	H	0.120127	0.407496	0.603694
	H107	H	0.882770	0.393885	0.409086
	H108	H	0.908410	0.610055	0.077825
	H109	H	0.085173	0.383111	0.087509
	H110	H	0.099182	0.612768	0.912332
	H111	H	0.901958	0.381083	0.916341
	H112	H	0.092572	0.900778	0.614989
	H113	H	0.091028	0.101462	0.380335
	H114	H	0.913990	0.087662	0.613616
	H115	H	0.900697	0.903137	0.381541
	H116	H	0.615415	0.086849	0.915818
	H117	H	0.386990	0.081854	0.090031
	H118	H	0.618280	0.902151	0.089486
	H119	H	0.384706	0.914620	0.894210
	C120	C	0.381008	0.003669	0.620860
	C121	C	0.623704	0.987828	0.622170
	C122	C	0.622518	0.005050	0.378223
	C123	C	0.380175	0.987197	0.377593
	C124	C	0.622810	0.374905	0.007635
	C125	C	0.623235	0.618655	0.991253
	C126	C	0.380189	0.617956	0.008072
	C127	C	0.379435	0.373719	0.990959
	C128	C	0.009789	0.616899	0.376918
	C129	C	0.992465	0.615950	0.619965
	C130	C	0.009620	0.374050	0.621062
	C131	C	0.993401	0.374633	0.376983
	C132	C	0.880778	0.504569	0.119549
	C133	C	0.123389	0.487995	0.120881
	C134	C	0.122650	0.504712	0.877433
	C135	C	0.879579	0.488038	0.877134
	C136	C	0.122234	0.873766	0.506865
	C137	C	0.123707	0.118187	0.490444
	C138	C	0.880215	0.117261	0.507295
	C139	C	0.878434	0.872777	0.490282
	C140	C	0.510218	0.117982	0.877988
	C141	C	0.493043	0.116897	0.120952
	C142	C	0.510900	0.874486	0.121986
	C143	C	0.493923	0.875286	0.878743
	C144	C	0.381628	0.880942	0.677401
	C145	C	0.622677	0.111483	0.676810
	C146	C	0.620730	0.881581	0.323887
	C147	C	0.381699	0.110513	0.321788
	C148	C	0.677111	0.378038	0.884375
	C149	C	0.679800	0.615681	0.113460
	C150	C	0.325433	0.615442	0.885088
	C151	C	0.324478	0.376916	0.113811
	C152	C	0.885734	0.670873	0.379410
	C153	C	0.116384	0.671757	0.617734
	C154	C	0.885800	0.318412	0.617462
	C155	C	0.117457	0.320211	0.380499
	C156	C	0.886307	0.374210	0.676585
	C157	C	0.115964	0.615729	0.676540
	C158	C	0.886234	0.614635	0.321288
	C159	C	0.116984	0.376832	0.322114
	C160	C	0.382342	0.673955	0.885574
	C161	C	0.622006	0.672859	0.114110
	C162	C	0.619913	0.320016	0.884886
	C163	C	0.381760	0.318543	0.113864
	C164	C	0.676507	0.880978	0.382565
	C165	C	0.678916	0.111772	0.618135
	C166	C	0.324959	0.880500	0.618314
	C167	C	0.325191	0.110866	0.380342
	C168	C	0.882323	0.381166	0.175002
	C169	C	0.122181	0.611326	0.176155
	C170	C	0.121106	0.381236	0.822823
	C171	C	0.880903	0.610862	0.820477
	C172	C	0.177224	0.877019	0.384182
	C173	C	0.179788	0.114855	0.612926
	C174	C	0.824936	0.114246	0.384363
	C175	C	0.824804	0.875745	0.613591
	C176	C	0.386032	0.171717	0.880332
	C177	C	0.617099	0.172470	0.118269
	C178	C	0.386629	0.819515	0.118140
	C179	C	0.617651	0.820786	0.882108
	C180	C	0.386896	0.875576	0.176345
	C181	C	0.616758	0.115965	0.176796
	C182	C	0.386927	0.115638	0.821787
	C183	C	0.617288	0.877189	0.823533
	C184	C	0.882373	0.172242	0.384362
	C185	C	0.122631	0.173261	0.613147
	C186	C	0.119611	0.819362	0.384177
	C187	C	0.881940	0.817409	0.612904
	C188	C	0.177580	0.381233	0.881296
	C189	C	0.178559	0.611683	0.117650
	C190	C	0.825067	0.380961	0.116775
	C191	C	0.825201	0.611897	0.879808
	C192	C	0.403826	0.089844	0.598512
	C193	C	0.600594	0.901575	0.600629
	C194	C	0.600802	0.091483	0.399522
	C195	C	0.402502	0.901112	0.399703
	C196	C	0.601488	0.396576	0.093331
	C197	C	0.600166	0.596748	0.905599
	C198	C	0.402275	0.595678	0.093659
	C199	C	0.401495	0.395551	0.905436
	C200	C	0.096243	0.595088	0.399313
	C201	C	0.906168	0.593145	0.597818
	C202	C	0.095644	0.397152	0.599249
	C203	C	0.906905	0.396306	0.398402
	C204	C	0.903695	0.590809	0.097295
	C205	C	0.100950	0.401847	0.098964
	C206	C	0.100442	0.590951	0.898820
	C207	C	0.902000	0.401901	0.899651
	C208	C	0.100338	0.895683	0.592581
	C209	C	0.101036	0.096446	0.404889
	C210	C	0.902680	0.095150	0.592731
	C211	C	0.899860	0.895006	0.404499
	C212	C	0.596538	0.095762	0.900576
	C213	C	0.406935	0.093941	0.098535
	C214	C	0.597245	0.897398	0.100389
	C215	C	0.407432	0.897838	0.900549
	Zn216	Zn	0.502280	-0.003529	0.750300
	Zn217	Zn	0.501484	-0.004367	0.249503
	Zn218	Zn	0.751537	0.497080	-0.001349
	Zn219	Zn	0.251157	0.496779	-0.000771
	Zn220	Zn	0.000710	0.744412	0.498456
	Zn221	Zn	0.001646	0.246385	0.498799
	Zn222	Zn	0.001020	0.495386	0.749027
	Zn223	Zn	0.001758	0.496135	0.249078
	Zn224	Zn	0.502178	0.747065	0.000348
	Zn225	Zn	0.501393	0.245470	-0.000474
	Zn226	Zn	0.750555	-0.003900	0.499684
	Zn227	Zn	0.251818	-0.005016	0.498519
	N228	N	0.415745	0.958657	0.679009
	N229	N	0.589248	0.033486	0.679395
	N230	N	0.587840	0.959707	0.321097
	N231	N	0.415281	0.032649	0.320119
	N232	N	0.679065	0.411590	0.961570
	N233	N	0.680537	0.582782	0.035960
	N234	N	0.324005	0.581562	0.962199
	N235	N	0.322889	0.410617	0.036436
	N236	N	0.963573	0.672223	0.413516
	N237	N	0.038847	0.671967	0.583235
	N238	N	0.963411	0.318033	0.583837
	N239	N	0.039650	0.318841	0.414240
	N240	N	0.964308	0.408221	0.678827
	N241	N	0.037871	0.581626	0.678076
	N242	N	0.964361	0.581763	0.319700
	N243	N	0.038824	0.409611	0.319822
	N244	N	0.415588	0.675767	0.963141
	N245	N	0.587869	0.675021	0.037080
	N246	N	0.586912	0.317822	0.962343
	N247	N	0.415026	0.316374	0.036651
	N248	N	0.677751	0.958787	0.415689
	N249	N	0.679803	0.033734	0.585033
	N250	N	0.324611	0.957785	0.583715
	N251	N	0.324395	0.033300	0.414430
	N252	N	0.916387	0.459086	0.176517
	N253	N	0.088570	0.533503	0.178259
	N254	N	0.087864	0.459232	0.820204
	N255	N	0.914086	0.532805	0.818766
	N256	N	0.178901	0.910174	0.461501
	N257	N	0.180460	0.081182	0.535760
	N258	N	0.823763	0.080411	0.461647
	N259	N	0.822602	0.909604	0.536518
	N260	N	0.463924	0.173314	0.914652
	N261	N	0.539212	0.173070	0.084146
	N262	N	0.464649	0.818591	0.085078
	N263	N	0.539880	0.819357	0.915728
	N264	N	0.465074	0.908970	0.178877
	N265	N	0.538768	0.082182	0.178590
	N266	N	0.464969	0.082853	0.820425
	N267	N	0.539063	0.910285	0.821487
	N268	N	0.915895	0.174268	0.461679
	N269	N	0.088681	0.175508	0.535866
	N270	N	0.086124	0.817221	0.461528
	N271	N	0.914453	0.815512	0.535259
	N272	N	0.178688	0.458934	0.914503
	N273	N	0.179489	0.534049	0.083951
	N274	N	0.824180	0.458526	0.082946
	N275	N	0.824401	0.534468	0.914264
	O276	O	0.989467	1.006724	-0.035133
	H277	H	0.989697	0.998559	-0.038568
	H278	H	0.992400	1.007204	-0.028030
	O279	O	0.007569	0.007317	-0.001358
	H280	H	0.011062	0.005854	-0.008351
	H281	H	0.006059	-0.003934	0.005869
	O282	O	0.024085	0.016144	0.981118
	H283	H	0.023415	0.024963	0.984284
	H284	H	0.024823	0.019044	0.980431
	O285	O	0.491497	0.540128	0.578721
	H286	H	0.487982	0.552256	0.581633
	H287	H	0.492763	0.543428	0.573925
	O288	O	0.431706	0.511652	0.581454
	H289	H	0.430211	0.510337	0.592893
	H290	H	0.426078	0.504386	0.566682
	O291	O	0.501694	0.538658	0.567987
	H292	H	0.508932	0.547771	0.572995
	H293	H	0.504160	0.541159	0.563230
	O294	O	0.078526	-0.029697	-0.036023
	H295	H	0.088678	-0.029839	-0.033981
	H296	H	0.078470	-0.027623	-0.041123
	O297	O	0.428172	0.459430	0.540669
	H298	H	0.431509	0.456993	0.536598
	H299	H	0.418949	0.451895	0.542805
	O300	O	-0.017701	1.042601	0.964582
	H301	H	-0.010968	1.041744	0.956906
	H302	H	-0.016110	1.045974	0.969408
	O303	O	0.473301	0.477494	0.566740
	H304	H	0.468374	0.473203	0.568840
	H305	H	0.468194	0.467631	0.565664
	O306	O	0.054020	0.013223	0.936270
	H307	H	0.059941	0.011839	0.940898
	H308	H	0.056759	0.015641	0.937352
	O309	O	1.014179	1.043308	0.935414
	H310	H	1.007796	1.044962	0.934577
	H311	H	1.009769	1.042888	0.937577
	O312	O	0.484999	0.518189	0.537150
	H313	H	0.484913	0.519001	0.538878
	H314	H	0.482516	0.531284	0.543104
	O315	O	0.465081	0.485637	0.570765
	H316	H	0.460753	0.472604	0.574754
	H317	H	0.464524	0.487935	0.579263
	O318	O	0.025113	1.086185	-0.099559
	H319	H	0.015797	1.097562	-0.092519
	H320	H	0.010753	1.093104	-0.108586
	O321	O	0.974957	1.039745	-0.023119
	H322	H	0.985425	1.037259	-0.022915
	H323	H	0.970871	1.034413	-0.023969
