data_Molecule from HDF5

_cell_length_a		16.352193
_cell_length_b		16.361293
_cell_length_c		16.464977
_cell_angle_alpha	89.756726
_cell_angle_beta	90.151746
_cell_angle_gamma	89.767329
_symmetry_space_group_name_H-M	'P 1'
_symmetry_Int_Tables_number		1

loop_
	_symmetry_equiv_pos_as_xyz
	x,y,z

loop_
	_atom_site_label
	_atom_site_type_symbol
	_atom_site_fract_x
	_atom_site_fract_y
	_atom_site_fract_z
	H0	H	0.395372	0.847425	0.717177
	H1	H	0.601640	0.166976	0.711938
	H2	H	0.605492	0.846513	0.277070
	H3	H	0.394822	0.166043	0.274028
	H4	H	0.717822	0.404370	0.833838
	H5	H	0.718844	0.604614	0.154766
	H6	H	0.282344	0.607471	0.834663
	H7	H	0.283474	0.402036	0.155756
	H8	H	0.840299	0.721424	0.396589
	H9	H	0.163233	0.723068	0.599818
	H10	H	0.841985	0.288373	0.594592
	H11	H	0.162959	0.284640	0.391365
	H12	H	0.841723	0.403116	0.711775
	H13	H	0.161885	0.608592	0.717182
	H14	H	0.840887	0.605957	0.278820
	H15	H	0.161773	0.398755	0.274502
	H16	H	0.397993	0.724732	0.835063
	H17	H	0.602256	0.722355	0.155137
	H18	H	0.599752	0.289823	0.833629
	H19	H	0.398251	0.284387	0.155271
	H20	H	0.717813	0.844877	0.396843
	H21	H	0.717789	0.167285	0.595361
	H22	H	0.283759	0.845778	0.599955
	H23	H	0.280471	0.165036	0.391333
	H24	H	0.896215	0.345450	0.217476
	H25	H	0.105280	0.663603	0.215154
	H26	H	0.107618	0.344508	0.775773
	H27	H	0.897769	0.664145	0.774974
	H28	H	0.221730	0.901991	0.337739
	H29	H	0.224312	0.111165	0.653508
	H30	H	0.780770	0.110832	0.336102
	H31	H	0.784462	0.903699	0.655672
	H32	H	0.341282	0.228837	0.888685
	H33	H	0.662573	0.225101	0.097699
	H34	H	0.341167	0.787592	0.099688
	H35	H	0.661512	0.787423	0.893961
	H36	H	0.343725	0.902235	0.217613
	H37	H	0.662178	0.111768	0.215570
	H38	H	0.342839	0.115934	0.770082
	H39	H	0.660715	0.902886	0.776987
	H40	H	0.896847	0.227528	0.336520
	H41	H	0.108055	0.225797	0.653680
	H42	H	0.103970	0.786270	0.337090
	H43	H	0.900855	0.785587	0.655737
	H44	H	0.221817	0.344350	0.892735
	H45	H	0.219379	0.664683	0.098368
	H46	H	0.783809	0.343912	0.098492
	H47	H	0.782343	0.664210	0.891571
	H48	H	0.419445	0.114470	0.576702
	H49	H	0.590806	0.891296	0.587620
	H50	H	0.588919	0.121169	0.403233
	H51	H	0.411439	0.892466	0.409402
	H52	H	0.596074	0.410917	0.110641
	H53	H	0.591173	0.596349	0.881429
	H54	H	0.410764	0.598430	0.109220
	H55	H	0.399018	0.418850	0.878942
	H56	H	0.117985	0.596019	0.402378
	H57	H	0.887208	0.592148	0.592175
	H58	H	0.118468	0.411254	0.585614
	H59	H	0.888532	0.412847	0.406623
	H60	H	0.116172	0.417322	0.583958
	H61	H	0.886673	0.601981	0.584845
	H62	H	0.116567	0.596368	0.407540
	H63	H	0.890527	0.418310	0.408604
	H64	H	0.408428	0.594915	0.109713
	H65	H	0.591339	0.598069	0.881337
	H66	H	0.594209	0.418941	0.107362
	H67	H	0.418316	0.425806	0.888769
	H68	H	0.592413	0.121001	0.407283
	H69	H	0.593982	0.891301	0.585482
	H70	H	0.404240	0.121495	0.579308
	H71	H	0.413341	0.891140	0.401817
	H72	H	0.907934	0.619912	0.084940
	H73	H	0.079620	0.392976	0.088728
	H74	H	0.079959	0.615001	0.903456
	H75	H	0.912244	0.389864	0.904938
	H76	H	0.097875	0.919612	0.609979
	H77	H	0.082253	0.084937	0.388152
	H78	H	0.906956	0.094547	0.610007
	H79	H	0.913881	0.916364	0.383595
	H80	H	0.616438	0.101334	0.904647
	H81	H	0.389131	0.092561	0.087235
	H82	H	0.618056	0.916321	0.091795
	H83	H	0.387367	0.914754	0.911394
	H84	H	0.616630	0.910010	0.082615
	H85	H	0.387381	0.097173	0.084300
	H86	H	0.611522	0.092938	0.909822
	H87	H	0.388368	0.923847	0.903716
	H88	H	0.913463	0.093463	0.606907
	H89	H	0.085676	0.104777	0.380440
	H90	H	0.085228	0.916656	0.606776
	H91	H	0.910857	0.909599	0.382003
	H92	H	0.093240	0.616186	0.914162
	H93	H	0.094429	0.393216	0.075554
	H94	H	0.912632	0.618291	0.088914
	H95	H	0.908944	0.389079	0.903490
	H96	H	0.415673	0.121789	0.591818
	H97	H	0.593702	0.890143	0.589202
	H98	H	0.594284	0.122659	0.402854
	H99	H	0.418684	0.894186	0.406690
	H100	H	0.587926	0.412809	0.107544
	H101	H	0.592515	0.596888	0.880281
	H102	H	0.411960	0.595318	0.107478
	H103	H	0.416883	0.404547	0.880604
	H104	H	0.115818	0.591614	0.404825
	H105	H	0.891454	0.591667	0.580268
	H106	H	0.117631	0.416186	0.589871
	H107	H	0.888122	0.418427	0.403120
	H108	H	0.912874	0.616837	0.083275
	H109	H	0.097540	0.386261	0.093229
	H110	H	0.094911	0.622213	0.898359
	H111	H	0.912299	0.388844	0.901556
	H112	H	0.092738	0.907796	0.612687
	H113	H	0.101486	0.091037	0.380697
	H114	H	0.911839	0.100141	0.609375
	H115	H	0.906471	0.915610	0.380896
	H116	H	0.614983	0.092079	0.899528
	H117	H	0.389937	0.092817	0.081666
	H118	H	0.612902	0.920815	0.082774
	H119	H	0.383757	0.913341	0.900124
	C120	C	0.380851	0.014404	0.616002
	C121	C	0.622975	0.997162	0.616861
	C122	C	0.623127	0.015252	0.374280
	C123	C	0.381134	0.997846	0.374055
	C124	C	0.622389	0.383879	0.002719
	C125	C	0.622623	0.626917	0.986433
	C126	C	0.379232	0.627249	0.003345
	C127	C	0.379875	0.383928	0.987587
	C128	C	0.010381	0.625538	0.374811
	C129	C	0.994212	0.626035	0.617296
	C130	C	0.011302	0.384036	0.616366
	C131	C	0.994236	0.383746	0.373905
	C132	C	0.880101	0.512723	0.116927
	C133	C	0.122296	0.496076	0.116889
	C134	C	0.122118	0.512331	0.874380
	C135	C	0.880048	0.495439	0.872674
	C136	C	0.123688	0.883126	0.505019
	C137	C	0.123112	0.126150	0.487323
	C138	C	0.879586	0.127831	0.503525
	C139	C	0.879913	0.883194	0.487571
	C140	C	0.508949	0.127950	0.872820
	C141	C	0.494105	0.126856	0.116250
	C142	C	0.510633	0.884508	0.117385
	C143	C	0.492415	0.885933	0.874299
	C144	C	0.378098	0.895056	0.676978
	C145	C	0.621798	0.118762	0.673400
	C146	C	0.624452	0.894480	0.316343
	C147	C	0.377466	0.117956	0.314076
	C148	C	0.679133	0.384491	0.881964
	C149	C	0.680206	0.625388	0.106778
	C150	C	0.321371	0.626815	0.882725
	C151	C	0.322035	0.382933	0.107824
	C152	C	0.888629	0.682715	0.376397
	C153	C	0.114770	0.684425	0.618591
	C154	C	0.890091	0.326884	0.614947
	C155	C	0.114698	0.323819	0.372555
	C156	C	0.890151	0.383824	0.673123
	C157	C	0.114310	0.627086	0.676789
	C158	C	0.888904	0.625359	0.317971
	C159	C	0.114210	0.380840	0.314350
	C160	C	0.378832	0.685434	0.882920
	C161	C	0.622407	0.684032	0.106947
	C162	C	0.620437	0.327552	0.881767
	C163	C	0.379318	0.324439	0.107550
	C164	C	0.680232	0.893571	0.375666
	C165	C	0.679386	0.118894	0.615635
	C166	C	0.322125	0.894135	0.618535
	C167	C	0.320277	0.117483	0.372416
	C168	C	0.878345	0.392995	0.176875
	C169	C	0.124037	0.616086	0.175942
	C170	C	0.125239	0.392289	0.815447
	C171	C	0.878875	0.616239	0.814429
	C172	C	0.182206	0.882957	0.385261
	C173	C	0.183849	0.128551	0.606244
	C174	C	0.820864	0.129198	0.383732
	C175	C	0.822787	0.883838	0.607837
	C176	C	0.389349	0.188976	0.870219
	C177	C	0.614522	0.186070	0.116942
	C178	C	0.389899	0.826321	0.118706
	C179	C	0.613165	0.826893	0.874513
	C180	C	0.390937	0.883381	0.177248
	C181	C	0.614320	0.129612	0.175813
	C182	C	0.390027	0.132336	0.811455
	C183	C	0.612753	0.884005	0.815967
	C184	C	0.878366	0.187522	0.384042
	C185	C	0.126164	0.186093	0.606249
	C186	C	0.123930	0.825255	0.384891
	C187	C	0.880542	0.825222	0.607934
	C188	C	0.182373	0.392370	0.873648
	C189	C	0.180628	0.616536	0.117759
	C190	C	0.822351	0.392070	0.117538
	C191	C	0.821719	0.616282	0.872480
	C192	C	0.405983	0.097722	0.590153
	C193	C	0.599700	0.912931	0.594101
	C194	C	0.598844	0.099420	0.397637
	C195	C	0.407084	0.914437	0.398742
	C196	C	0.599569	0.407382	0.086507
	C197	C	0.598614	0.603900	0.902776
	C198	C	0.403371	0.603129	0.086924
	C199	C	0.404312	0.409165	0.904371
	C200	C	0.094957	0.601406	0.398244
	C201	C	0.910218	0.601998	0.592794
	C202	C	0.095578	0.407973	0.593160
	C203	C	0.910771	0.409222	0.398778
	C204	C	0.904087	0.596495	0.092652
	C205	C	0.097655	0.412474	0.092644
	C206	C	0.096721	0.595996	0.898338
	C207	C	0.904360	0.411241	0.896449
	C208	C	0.099179	0.907632	0.588291
	C209	C	0.097342	0.100993	0.404684
	C210	C	0.903975	0.103191	0.586961
	C211	C	0.903513	0.907001	0.403902
	C212	C	0.592697	0.102702	0.897735
	C213	C	0.410630	0.101627	0.091303
	C214	C	0.594247	0.908643	0.092724
	C215	C	0.408327	0.910335	0.898084
	Zn216	Zn	0.501051	0.006409	0.744681
	Zn217	Zn	0.502568	0.007082	0.245618
	Zn218	Zn	0.752406	0.504222	-0.005574
	Zn219	Zn	0.250432	0.505107	-0.004134
	Zn220	Zn	0.002483	0.754309	0.495966
	Zn221	Zn	0.002770	0.255550	0.494904
	Zn222	Zn	0.002074	0.504599	0.745273
	Zn223	Zn	0.002213	0.504637	0.245440
	Zn224	Zn	0.500523	0.756666	-0.004727
	Zn225	Zn	0.501333	0.255002	-0.004756
	Zn226	Zn	0.751062	0.005969	0.495567
	Zn227	Zn	0.252398	0.005298	0.495858
	N228	N	0.413708	0.971038	0.675541
	N229	N	0.587983	0.041989	0.674725
	N230	N	0.590244	0.971256	0.314957
	N231	N	0.414586	0.042346	0.314821
	N232	N	0.680583	0.418614	0.958125
	N233	N	0.680626	0.590714	0.030955
	N234	N	0.321436	0.591429	0.958620
	N235	N	0.322024	0.418891	0.032197
	N236	N	0.965367	0.683151	0.410684
	N237	N	0.038961	0.683846	0.582022
	N238	N	0.966534	0.326544	0.580705
	N239	N	0.038990	0.325460	0.408677
	N240	N	0.966595	0.418580	0.674242
	N241	N	0.038340	0.591817	0.676207
	N242	N	0.965713	0.590851	0.316581
	N243	N	0.038417	0.417339	0.315029
	N244	N	0.413840	0.686074	0.958967
	N245	N	0.587556	0.685319	0.031002
	N246	N	0.586201	0.326738	0.958024
	N247	N	0.414280	0.324767	0.031704
	N248	N	0.679669	0.969743	0.410729
	N249	N	0.680628	0.042300	0.581610
	N250	N	0.323616	0.969418	0.581248
	N251	N	0.322285	0.041849	0.408961
	N252	N	0.913627	0.468953	0.176673
	N253	N	0.088563	0.540053	0.175606
	N254	N	0.088391	0.467932	0.815901
	N255	N	0.914516	0.540027	0.814430
	N256	N	0.182280	0.917956	0.461050
	N257	N	0.182080	0.091894	0.531317
	N258	N	0.821277	0.092857	0.459125
	N259	N	0.822417	0.919290	0.531996
	N260	N	0.464315	0.186058	0.908025
	N261	N	0.538599	0.184679	0.080940
	N262	N	0.465416	0.826867	0.082236
	N263	N	0.537182	0.827867	0.909842
	N264	N	0.466932	0.918855	0.176629
	N265	N	0.538461	0.093519	0.175452
	N266	N	0.465347	0.094786	0.813032
	N267	N	0.536632	0.919872	0.815751
	N268	N	0.914330	0.186577	0.459568
	N269	N	0.089033	0.184680	0.531357
	N270	N	0.088402	0.825402	0.460298
	N271	N	0.915013	0.824449	0.532016
	N272	N	0.180700	0.467987	0.909462
	N273	N	0.179938	0.540866	0.081990
	N274	N	0.823340	0.467632	0.080807
	N275	N	0.822238	0.540080	0.907840
	O276	O	0.558648	0.509749	0.435877
	H277	H	0.554651	0.510962	0.435278
	H278	H	0.573051	0.501592	0.426873
	O279	O	-0.182211	-0.148781	-0.152980
	H280	H	-0.176311	-0.130066	-0.160614
	H281	H	-0.160632	-0.146353	-0.130446
	O282	O	0.615536	0.480798	0.637464
	H283	H	0.618295	0.492314	0.636966
	H284	H	0.618695	0.502800	0.648295
	O285	O	1.683008	0.591480	0.354858
	H286	H	1.666492	0.582874	0.353860
	H287	H	1.674392	0.596179	0.372488
	O288	O	0.526401	0.634840	0.292232
	H289	H	0.518136	0.639092	0.294577
	H290	H	0.499452	0.633496	0.282286
	O291	O	0.689976	0.633489	0.514175
	H292	H	0.688124	0.637309	0.521798
	H293	H	0.707448	0.631768	0.519693
	O294	O	1.216055	0.788809	0.968624
	H295	H	1.236317	0.763859	0.947650
	H296	H	1.215935	0.793221	0.935389
	O297	O	0.510628	0.346433	0.456850
	H298	H	0.514524	0.343638	0.451407
	H299	H	0.504236	0.339787	0.449713
	O300	O	0.473282	0.550090	0.461521
	H301	H	0.470148	0.542248	0.450389
	H302	H	0.462858	0.556208	0.459510
	O303	O	0.306170	0.645682	0.294283
	H304	H	0.286486	0.656304	0.303970
	H305	H	0.298641	0.656085	0.290763
	O306	O	-0.147571	0.022820	0.795122
	H307	H	-0.175717	0.017500	0.786213
	H308	H	-0.152985	0.002923	0.808721
	O309	O	0.994604	-0.178127	-0.178773
	H310	H	0.983250	-0.164667	-0.170464
	H311	H	0.980670	-0.181003	-0.162671
	O312	O	0.417699	0.566765	0.331210
	H313	H	0.410981	0.569359	0.329660
	H314	H	0.416836	0.571699	0.318673
	O315	O	0.619672	0.496241	0.552303
	H316	H	0.617369	0.501431	0.569755
	H317	H	0.599068	0.511564	0.553140
	O318	O	-0.039573	0.168383	0.141161
	H319	H	-0.021574	0.174374	0.132307
	H320	H	-0.024825	0.182340	0.145606
	O321	O	0.591516	0.419471	0.671684
	H322	H	0.582788	0.443175	0.668622
	H323	H	0.568152	0.426749	0.657201
	O324	O	0.940045	0.069754	1.106740
	H325	H	0.916509	0.083650	1.106222
	H326	H	0.954415	0.095353	1.107610
	O327	O	0.479471	0.395341	0.598917
	H328	H	0.470820	0.385577	0.587317
	H329	H	0.489404	0.385082	0.591256
	O330	O	0.100704	0.910654	1.043498
	H331	H	0.095734	0.895700	1.035726
	H332	H	0.099660	0.900994	1.042642
	O333	O	-0.198655	1.185539	-0.163199
	H334	H	-0.215315	1.204564	-0.184913
	H335	H	-0.199291	1.160699	-0.154656
	O336	O	1.126456	0.999076	-0.206621
	H337	H	1.141202	1.025711	-0.195737
	H338	H	1.146026	1.000623	-0.219815
	O339	O	0.129417	1.146352	1.190463
	H340	H	0.130582	1.131477	1.194998
	H341	H	0.121682	1.136452	1.188511
	O342	O	0.315460	0.637844	0.477905
	H343	H	0.323441	0.627185	0.491113
	H344	H	0.294737	0.653987	0.479667
	O345	O	0.016865	0.022369	1.073103
	H346	H	0.014127	0.007366	1.080964
	H347	H	0.016572	0.019619	1.058850
	O348	O	0.399170	0.704339	0.461949
	H349	H	0.405800	0.700632	0.448596
	H350	H	0.385092	0.720605	0.438094
	O351	O	1.134126	1.104482	-0.103871
	H352	H	1.141062	1.098654	-0.085112
	H353	H	1.117363	1.106372	-0.111421
	O354	O	1.086345	1.147908	0.920145
	H355	H	1.084763	1.167996	0.918652
	H356	H	1.085183	1.152675	0.932032
	O357	O	-0.137657	-0.196985	0.195993
	H358	H	-0.140106	-0.163097	0.191955
	H359	H	-0.155340	-0.220881	0.212184
	O360	O	-0.151998	0.120934	0.982393
	H361	H	-0.150505	0.128127	0.953866
	H362	H	-0.168871	0.130749	0.974728
	O363	O	1.114011	-0.184870	0.130286
	H364	H	1.100267	-0.177112	0.136254
	H365	H	1.102060	-0.161357	0.114727
	O366	O	0.179684	-0.176170	0.812156
	H367	H	0.149091	-0.166815	0.800009
	H368	H	0.169243	-0.143532	0.799462
	O369	O	1.687155	0.700830	1.665953
	H370	H	1.687375	0.718055	1.663167
	H371	H	1.689349	0.693898	1.676736
	O372	O	1.033378	1.106667	0.059817
	H373	H	1.039521	1.103887	0.056391
	H374	H	1.017186	1.110663	0.063612
	O375	O	-0.551906	-0.490321	1.419045
	H376	H	-0.560982	-0.484334	1.426988
	H377	H	-0.536154	-0.491233	1.418981
	O378	O	0.443967	0.383238	0.477702
	H379	H	0.447181	0.390222	0.466167
	H380	H	0.445021	0.381858	0.468686
	O381	O	0.010463	0.858119	0.205867
	H382	H	-0.010864	0.851749	0.215405
	H383	H	-0.008920	0.853764	0.197084
	O384	O	0.466293	0.650158	0.695430
	H385	H	0.474377	0.637443	0.696817
	H386	H	0.459267	0.654317	0.712017
	O387	O	0.207904	0.204038	0.061845
	H388	H	0.210695	0.191319	0.080431
	H389	H	0.226891	0.211553	0.062512
	O390	O	0.928567	0.816296	-0.045223
	H391	H	0.938118	0.814718	-0.028363
	H392	H	0.915488	0.828298	-0.040279
	O393	O	0.925852	-0.021472	1.139306
	H394	H	0.935595	-0.027184	1.141019
	H395	H	0.934316	-0.027556	1.134164
	O396	O	0.370431	0.438968	0.566106
	H397	H	0.369050	0.438143	0.562008
	H398	H	0.377976	0.438223	0.555347
	O399	O	0.389778	0.480287	0.570584
	H400	H	0.378323	0.479313	0.572207
	H401	H	0.385960	0.474200	0.579149
	O402	O	0.993897	1.061050	0.001937
	H403	H	0.991407	1.072124	-0.003601
	H404	H	0.996050	1.062827	-0.001049
	O405	O	0.674708	0.373974	0.453826
	H406	H	0.676721	0.374514	0.460400
	H407	H	0.681975	0.373678	0.452927
	O408	O	0.548582	0.455978	0.567427
	H409	H	0.545473	0.459027	0.573806
	H410	H	0.544065	0.456646	0.569332
	O411	O	0.803766	0.909323	1.011236
	H412	H	0.804629	0.900174	1.041388
	H413	H	0.786919	0.908988	1.017340
	O414	O	-0.082196	0.089996	1.094840
	H415	H	-0.089617	0.082151	1.093196
	H416	H	-0.062961	0.117108	1.098761
	O417	O	0.155835	1.012332	1.130865
	H418	H	0.158827	0.995775	1.116442
	H419	H	0.146217	1.017839	1.132198
	O420	O	-0.183706	0.988235	0.842606
	H421	H	-0.170321	0.985532	0.840134
	H422	H	-0.181226	1.000429	0.864274
	O423	O	0.075474	0.998690	-0.206730
	H424	H	0.060090	1.009618	-0.215754
	H425	H	0.093395	1.011295	-0.215009
	O426	O	0.509010	0.333574	0.376522
	H427	H	0.518451	0.343717	0.393939
	H428	H	0.511295	0.329166	0.369187
	O429	O	0.474605	0.389521	0.624688
	H430	H	0.460700	0.387796	0.635793
	H431	H	0.470266	0.398712	0.624438
	O432	O	0.453541	0.679019	0.480949
	H433	H	0.458473	0.673950	0.487029
	H434	H	0.458767	0.678687	0.466984
	O435	O	-0.040113	0.214692	-0.205786
	H436	H	-0.045084	0.228120	-0.227599
	H437	H	-0.076855	0.217579	-0.204553
	O438	O	-0.001170	0.932772	1.185917
	H439	H	-0.009462	0.916831	1.180848
	H440	H	-0.011731	0.934387	1.186602
	O441	O	0.485387	0.444118	0.316214
	H442	H	0.472832	0.465889	0.302739
	H443	H	0.483550	0.451266	0.322900
