data_Molecule from HDF5

_cell_length_a		16.119097
_cell_length_b		16.162404
_cell_length_c		16.410452
_cell_angle_alpha	90.390376
_cell_angle_beta	89.905369
_cell_angle_gamma	89.498046
_symmetry_space_group_name_H-M	'P 1'
_symmetry_Int_Tables_number		1

loop_
	_symmetry_equiv_pos_as_xyz
	x,y,z

loop_
	_atom_site_label
	_atom_site_type_symbol
	_atom_site_fract_x
	_atom_site_fract_y
	_atom_site_fract_z
	H0	H	0.401313	0.833348	0.709328
	H1	H	0.602552	0.159717	0.712931
	H2	H	0.604663	0.833343	0.277485
	H3	H	0.399152	0.160516	0.279531
	H4	H	0.717582	0.396967	0.831211
	H5	H	0.713411	0.596135	0.157141
	H6	H	0.283822	0.595296	0.831495
	H7	H	0.286777	0.400637	0.157425
	H8	H	0.836291	0.710524	0.400487
	H9	H	0.167948	0.707494	0.592941
	H10	H	0.834590	0.289672	0.590740
	H11	H	0.166801	0.282482	0.397268
	H12	H	0.836985	0.399229	0.710518
	H13	H	0.164975	0.597310	0.712480
	H14	H	0.837734	0.600652	0.281041
	H15	H	0.165624	0.394114	0.278871
	H16	H	0.400755	0.711121	0.830768
	H17	H	0.598102	0.713541	0.156219
	H18	H	0.601535	0.279399	0.831255
	H19	H	0.402735	0.282856	0.156627
	H20	H	0.716342	0.832948	0.396441
	H21	H	0.710395	0.163594	0.591031
	H22	H	0.291925	0.831884	0.589117
	H23	H	0.287755	0.162508	0.398941
	H24	H	0.900567	0.333510	0.211194
	H25	H	0.101270	0.660754	0.212364
	H26	H	0.104150	0.334405	0.778089
	H27	H	0.897839	0.661192	0.781361
	H28	H	0.216780	0.897197	0.332367
	H29	H	0.216020	0.095903	0.658196
	H30	H	0.785825	0.096629	0.331812
	H31	H	0.788265	0.903733	0.658722
	H32	H	0.336050	0.210028	0.897964
	H33	H	0.667149	0.208252	0.092148
	H34	H	0.334128	0.788756	0.089050
	H35	H	0.665885	0.780900	0.894819
	H36	H	0.337968	0.896427	0.210719
	H37	H	0.665908	0.095962	0.209497
	H38	H	0.337520	0.098732	0.779542
	H39	H	0.666019	0.894784	0.778616
	H40	H	0.902057	0.213225	0.332463
	H41	H	0.097966	0.211118	0.658871
	H42	H	0.103140	0.778480	0.333636
	H43	H	0.905043	0.785700	0.658550
	H44	H	0.214284	0.332361	0.897059
	H45	H	0.211815	0.662578	0.092278
	H46	H	0.789308	0.331649	0.091801
	H47	H	0.787630	0.662932	0.900993
	H48	H	0.415641	0.114115	0.591204
	H49	H	0.590623	0.880167	0.587125
	H50	H	0.586707	0.115279	0.395784
	H51	H	0.412728	0.878748	0.397390
	H52	H	0.584998	0.409264	0.105115
	H53	H	0.604659	0.585923	0.875418
	H54	H	0.409010	0.588438	0.106984
	H55	H	0.403839	0.405922	0.878589
	H56	H	0.118968	0.587946	0.406501
	H57	H	0.885969	0.583616	0.588756
	H58	H	0.117585	0.411412	0.590331
	H59	H	0.886211	0.415885	0.399805
	H60	H	0.122349	0.401094	0.593602
	H61	H	0.880157	0.594456	0.597264
	H62	H	0.119888	0.582989	0.400899
	H63	H	0.879460	0.400883	0.394971
	H64	H	0.409220	0.597289	0.109916
	H65	H	0.587458	0.581288	0.882930
	H66	H	0.593977	0.390998	0.112865
	H67	H	0.412718	0.403753	0.879717
	H68	H	0.591606	0.113004	0.406617
	H69	H	0.598025	0.879191	0.582651
	H70	H	0.407644	0.113919	0.582981
	H71	H	0.413117	0.880202	0.401616
	H72	H	0.907921	0.615279	0.094824
	H73	H	0.104034	0.377970	0.082780
	H74	H	0.104112	0.618800	0.904591
	H75	H	0.903819	0.378603	0.904753
	H76	H	0.093448	0.898212	0.612069
	H77	H	0.098974	0.089893	0.378125
	H78	H	0.908442	0.100556	0.612687
	H79	H	0.910393	0.904944	0.380402
	H80	H	0.622185	0.088319	0.895347
	H81	H	0.384306	0.085829	0.090505
	H82	H	0.620137	0.901121	0.085579
	H83	H	0.384334	0.916968	0.892292
	H84	H	0.617446	0.906099	0.082523
	H85	H	0.381620	0.093786	0.090680
	H86	H	0.619774	0.090521	0.907256
	H87	H	0.377202	0.894606	0.892866
	H88	H	0.897492	0.093561	0.613111
	H89	H	0.092146	0.084803	0.381842
	H90	H	0.103257	0.901811	0.613812
	H91	H	0.910478	0.901956	0.379502
	H92	H	0.086360	0.617171	0.890727
	H93	H	0.091638	0.377421	0.097990
	H94	H	0.911796	0.612531	0.087112
	H95	H	0.910176	0.377040	0.892735
	H96	H	0.404792	0.118261	0.593491
	H97	H	0.598096	0.876921	0.591685
	H98	H	0.598318	0.118598	0.397514
	H99	H	0.408427	0.878863	0.399924
	H100	H	0.605506	0.408796	0.111448
	H101	H	0.590100	0.599379	0.876203
	H102	H	0.401231	0.592816	0.111657
	H103	H	0.406420	0.397173	0.875699
	H104	H	0.121835	0.589408	0.399566
	H105	H	0.883332	0.597069	0.582593
	H106	H	0.118317	0.401516	0.581897
	H107	H	0.884758	0.403297	0.410426
	H108	H	0.902919	0.616200	0.087489
	H109	H	0.084760	0.383889	0.081820
	H110	H	0.083825	0.610874	0.911803
	H111	H	0.917368	0.382579	0.903970
	H112	H	0.095559	0.908245	0.610116
	H113	H	0.090823	0.093703	0.379709
	H114	H	0.909290	0.089074	0.607892
	H115	H	0.907613	0.903534	0.379186
	H116	H	0.616849	0.079249	0.901974
	H117	H	0.384626	0.089922	0.083217
	H118	H	0.619364	0.906887	0.089899
	H119	H	0.386226	0.904601	0.912559
	C120	C	0.381241	0.006131	0.616098
	C121	C	0.622691	0.988390	0.615768
	C122	C	0.622509	0.006574	0.372138
	C123	C	0.380734	0.988221	0.372270
	C124	C	0.624517	0.373485	0.002510
	C125	C	0.621951	0.618123	0.985743
	C126	C	0.377664	0.620130	0.001998
	C127	C	0.379451	0.375176	0.985635
	C128	C	0.010970	0.617460	0.374669
	C129	C	0.992731	0.619240	0.617821
	C130	C	0.010035	0.376973	0.616503
	C131	C	0.992437	0.376104	0.373299
	C132	C	0.879237	0.505749	0.117528
	C133	C	0.121788	0.488404	0.116346
	C134	C	0.121766	0.506759	0.873531
	C135	C	0.880040	0.488558	0.873505
	C136	C	0.125495	0.873802	0.504191
	C137	C	0.122761	0.118492	0.487359
	C138	C	0.877369	0.121704	0.503429
	C139	C	0.880748	0.876467	0.487228
	C140	C	0.510608	0.116431	0.873500
	C141	C	0.492538	0.118157	0.116189
	C142	C	0.509708	0.876367	0.114320
	C143	C	0.492290	0.875101	0.871146
	C144	C	0.382904	0.882355	0.670615
	C145	C	0.621236	0.111524	0.672989
	C146	C	0.623534	0.882606	0.315917
	C147	C	0.380368	0.111833	0.317701
	C148	C	0.680212	0.375804	0.879986
	C149	C	0.676091	0.616466	0.108413
	C150	C	0.322228	0.616328	0.879857
	C151	C	0.324670	0.379418	0.108594
	C152	C	0.886155	0.673620	0.378559
	C153	C	0.117807	0.671796	0.614475
	C154	C	0.884696	0.324886	0.612444
	C155	C	0.117201	0.320001	0.376263
	C156	C	0.885878	0.379767	0.671844
	C157	C	0.116169	0.616899	0.673811
	C158	C	0.886851	0.618701	0.319350
	C159	C	0.116578	0.375380	0.317413
	C160	C	0.380326	0.673953	0.879565
	C161	C	0.618759	0.674946	0.107803
	C162	C	0.622603	0.317180	0.880065
	C163	C	0.382362	0.320757	0.108155
	C164	C	0.678591	0.882085	0.375140
	C165	C	0.674668	0.113582	0.612228
	C166	C	0.328598	0.881404	0.610926
	C167	C	0.324649	0.112456	0.376824
	C168	C	0.881329	0.382236	0.172502
	C169	C	0.120458	0.612061	0.173182
	C170	C	0.122550	0.383160	0.816857
	C171	C	0.879255	0.612313	0.819160
	C172	C	0.179628	0.876383	0.381267
	C173	C	0.177678	0.116103	0.609779
	C174	C	0.823341	0.117860	0.380620
	C175	C	0.825706	0.881600	0.609656
	C176	C	0.385763	0.172578	0.876802
	C177	C	0.617574	0.171430	0.112593
	C178	C	0.384562	0.824175	0.110701
	C179	C	0.616658	0.818918	0.874106
	C180	C	0.386453	0.878073	0.171021
	C181	C	0.616790	0.116148	0.171473
	C182	C	0.386424	0.116840	0.818120
	C183	C	0.616664	0.875269	0.816058
	C184	C	0.880826	0.175851	0.380958
	C185	C	0.119242	0.173797	0.609934
	C186	C	0.123032	0.817382	0.381840
	C187	C	0.884199	0.823402	0.609977
	C188	C	0.177270	0.381976	0.876042
	C189	C	0.175336	0.613110	0.113406
	C190	C	0.825757	0.381343	0.113224
	C191	C	0.824538	0.613086	0.879029
	C192	C	0.402876	0.092885	0.595363
	C193	C	0.601811	0.901283	0.593726
	C194	C	0.598934	0.093169	0.393664
	C195	C	0.404533	0.901608	0.393356
	C196	C	0.601488	0.396244	0.087824
	C197	C	0.600345	0.595320	0.900346
	C198	C	0.399947	0.599183	0.087472
	C199	C	0.401138	0.396160	0.900112
	C200	C	0.097714	0.593799	0.396057
	C201	C	0.905730	0.598082	0.595837
	C202	C	0.096992	0.398388	0.594930
	C203	C	0.905908	0.399676	0.395238
	C204	C	0.901128	0.592316	0.096309
	C205	C	0.099829	0.402081	0.094235
	C206	C	0.098400	0.593218	0.895676
	C207	C	0.903725	0.401746	0.894298
	C208	C	0.103788	0.896069	0.589982
	C209	C	0.100521	0.096026	0.401965
	C210	C	0.898668	0.100527	0.589100
	C211	C	0.902976	0.897289	0.401732
	C212	C	0.597213	0.093032	0.895092
	C213	C	0.405955	0.096338	0.094617
	C214	C	0.596470	0.898264	0.092506
	C215	C	0.405192	0.898488	0.892751
	Zn216	Zn	0.501885	-0.003107	0.744298
	Zn217	Zn	0.501768	-0.003075	0.243733
	Zn218	Zn	0.752191	0.496620	-0.005418
	Zn219	Zn	0.249401	0.497378	-0.005498
	Zn220	Zn	0.002634	0.745699	0.495559
	Zn221	Zn	0.000748	0.248971	0.495470
	Zn222	Zn	0.001287	0.497741	0.745426
	Zn223	Zn	0.001487	0.497324	0.245584
	Zn224	Zn	0.500459	0.748534	-0.006823
	Zn225	Zn	0.501649	0.244826	-0.006036
	Zn226	Zn	0.749480	-0.001423	0.493922
	Zn227	Zn	0.253494	-0.003169	0.495067
	N228	N	0.414869	0.961039	0.674079
	N229	N	0.589819	0.032624	0.675275
	N230	N	0.589465	0.961031	0.313799
	N231	N	0.414399	0.033487	0.314628
	N232	N	0.681267	0.410199	0.956979
	N233	N	0.678224	0.581872	0.031668
	N234	N	0.320479	0.583543	0.957000
	N235	N	0.322740	0.412471	0.031546
	N236	N	0.964342	0.673114	0.412177
	N237	N	0.039887	0.673647	0.580514
	N238	N	0.962974	0.323040	0.578794
	N239	N	0.039212	0.320148	0.410496
	N240	N	0.964910	0.411300	0.674638
	N241	N	0.037294	0.585009	0.676058
	N242	N	0.965390	0.584534	0.316638
	N243	N	0.038017	0.409375	0.315114
	N244	N	0.413897	0.676529	0.956544
	N245	N	0.585899	0.676097	0.030438
	N246	N	0.588911	0.315607	0.957245
	N247	N	0.415660	0.318027	0.030838
	N248	N	0.678293	0.960002	0.409067
	N249	N	0.675481	0.035940	0.577217
	N250	N	0.327585	0.959330	0.577482
	N251	N	0.324864	0.034569	0.409871
	N252	N	0.913675	0.460710	0.175499
	N253	N	0.087914	0.533678	0.175023
	N254	N	0.088672	0.461584	0.815177
	N255	N	0.913215	0.533928	0.815902
	N256	N	0.181528	0.910598	0.458210
	N257	N	0.180166	0.082687	0.532433
	N258	N	0.821017	0.084964	0.457710
	N259	N	0.823507	0.913794	0.532254
	N260	N	0.463917	0.172300	0.910571
	N261	N	0.539400	0.173112	0.079025
	N262	N	0.462214	0.823147	0.075926
	N263	N	0.538449	0.818914	0.907628
	N264	N	0.465359	0.910011	0.173300
	N265	N	0.538231	0.083752	0.173962
	N266	N	0.464897	0.082682	0.815997
	N267	N	0.538126	0.909440	0.814026
	N268	N	0.913701	0.178193	0.458324
	N269	N	0.085681	0.175399	0.532906
	N270	N	0.089916	0.815880	0.459241
	N271	N	0.917639	0.820143	0.532772
	N272	N	0.176913	0.459733	0.910665
	N273	N	0.176477	0.535311	0.078877
	N274	N	0.824432	0.459162	0.079651
	N275	N	0.824908	0.534993	0.911905
	O276	O	1.035943	1.072403	0.082913
	H277	H	1.033969	1.074012	0.075924
	H278	H	1.033952	1.075604	0.072632
	O279	O	-0.056711	0.007065	0.943397
	H280	H	-0.054721	0.002018	0.953988
	H281	H	-0.059335	0.009638	0.934688
	O282	O	-0.056109	-0.050670	-0.003166
	H283	H	-0.058702	-0.057794	-0.002983
	H284	H	-0.055338	-0.046318	-0.008376
	O285	O	0.516298	0.525468	0.483055
	H286	H	0.516845	0.528395	0.483835
	H287	H	0.509085	0.525516	0.481429
	O288	O	0.087492	0.008076	0.060427
	H289	H	0.091663	0.018087	0.070136
	H290	H	0.081992	0.014334	0.064234
	O291	O	-0.050988	0.996936	0.047991
	H292	H	-0.054611	0.991072	0.053559
	H293	H	-0.054860	1.001869	0.043318
	O294	O	0.011408	1.012508	0.038249
	H295	H	0.009209	1.005776	0.031680
	H296	H	0.002482	1.015282	0.039717
	O297	O	0.532916	0.492400	0.484261
	H298	H	0.536676	0.492726	0.482256
	H299	H	0.530584	0.489351	0.490269
	O300	O	0.493805	0.519926	0.489078
	H301	H	0.492325	0.520939	0.498360
	H302	H	0.502234	0.514926	0.488809
	O303	O	1.079103	-0.013947	1.069002
	H304	H	1.075539	-0.017241	1.075540
	H305	H	1.066715	-0.013153	1.068015
	O306	O	0.050372	1.043121	1.080257
	H307	H	0.042310	1.046295	1.080538
	H308	H	0.049292	1.040486	1.077664
	O309	O	-0.004382	1.104426	1.026261
	H310	H	-0.004139	1.113221	1.029482
	H311	H	0.008142	1.101782	1.033314
	O312	O	-0.006320	-0.040831	0.994662
	H313	H	0.003831	-0.035039	0.997470
	H314	H	-0.009885	-0.038454	0.995271
	O315	O	0.492523	0.506583	0.502671
	H316	H	0.494053	0.502495	0.505613
	H317	H	0.490999	0.504225	0.508936
	O318	O	-0.028984	0.012333	0.968303
	H319	H	-0.033860	0.006803	0.953631
	H320	H	-0.027297	0.013475	0.965258
	O321	O	0.499560	0.446282	0.486642
	H322	H	0.497948	0.452067	0.476970
	H323	H	0.496441	0.456598	0.485122
	O324	O	1.048226	-0.022538	0.966360
	H325	H	1.046702	-0.017549	0.975152
	H326	H	1.059668	-0.032646	0.967878
	O327	O	1.037547	0.991740	0.942260
	H328	H	1.034713	0.985412	0.940050
	H329	H	1.044406	0.996267	0.950923
	O330	O	0.540427	0.520580	0.452037
	H331	H	0.556980	0.515683	0.449297
	H332	H	0.536471	0.521862	0.446325
	O333	O	0.555434	0.495894	0.467336
	H334	H	0.554589	0.488897	0.468568
	H335	H	0.553394	0.500631	0.460865
	O336	O	0.551812	0.470125	0.477731
	H337	H	0.542692	0.473180	0.476053
	H338	H	0.549737	0.469330	0.477165
	O339	O	0.529698	0.462813	0.476319
	H340	H	0.524280	0.461362	0.479312
	H341	H	0.526254	0.454395	0.478401
	O342	O	0.522596	0.518088	0.435273
	H343	H	0.518701	0.519801	0.430673
	H344	H	0.523536	0.510783	0.437568
	O345	O	0.443254	0.506957	0.431098
	H346	H	0.442724	0.511488	0.421779
	H347	H	0.447187	0.516197	0.432018
