data_Molecule from HDF5

_cell_length_a		16.227557
_cell_length_b		16.262374
_cell_length_c		16.359130
_cell_angle_alpha	90.383714
_cell_angle_beta	89.869237
_cell_angle_gamma	90.236392
_symmetry_space_group_name_H-M	'P 1'
_symmetry_Int_Tables_number		1

loop_
	_symmetry_equiv_pos_as_xyz
	x,y,z

loop_
	_atom_site_label
	_atom_site_type_symbol
	_atom_site_fract_x
	_atom_site_fract_y
	_atom_site_fract_z
	H0	H	0.404166	0.824321	0.711118
	H1	H	0.610643	0.148384	0.714670
	H2	H	0.609998	0.827086	0.275088
	H3	H	0.407143	0.150722	0.281767
	H4	H	0.720732	0.385691	0.833412
	H5	H	0.721020	0.588571	0.157100
	H6	H	0.286379	0.588551	0.833451
	H7	H	0.285418	0.387751	0.157421
	H8	H	0.841384	0.702346	0.392691
	H9	H	0.168358	0.703653	0.592533
	H10	H	0.842222	0.271154	0.590080
	H11	H	0.168595	0.272902	0.390984
	H12	H	0.841516	0.384758	0.709061
	H13	H	0.165238	0.593371	0.713924
	H14	H	0.839007	0.582813	0.281471
	H15	H	0.165938	0.385988	0.274744
	H16	H	0.403328	0.705796	0.833881
	H17	H	0.605202	0.705612	0.157712
	H18	H	0.605994	0.267723	0.835244
	H19	H	0.402129	0.272549	0.158382
	H20	H	0.719900	0.824162	0.394514
	H21	H	0.722173	0.149939	0.596259
	H22	H	0.289161	0.824493	0.593594
	H23	H	0.293665	0.150864	0.397649
	H24	H	0.901934	0.323551	0.207628
	H25	H	0.105478	0.648972	0.213344
	H26	H	0.105637	0.326452	0.774041
	H27	H	0.897826	0.648655	0.775845
	H28	H	0.223758	0.887549	0.330821
	H29	H	0.222334	0.089064	0.656609
	H30	H	0.789772	0.084747	0.332336
	H31	H	0.787537	0.884200	0.655425
	H32	H	0.341951	0.201206	0.896478
	H33	H	0.667245	0.207403	0.097973
	H34	H	0.342077	0.772158	0.097136
	H35	H	0.668045	0.770126	0.895256
	H36	H	0.342868	0.886633	0.213044
	H37	H	0.668204	0.092190	0.213288
	H38	H	0.344192	0.087198	0.778227
	H39	H	0.667045	0.881927	0.776545
	H40	H	0.908740	0.198206	0.329581
	H41	H	0.108799	0.209249	0.653901
	H42	H	0.107338	0.770400	0.330184
	H43	H	0.903835	0.769833	0.654390
	H44	H	0.218708	0.324959	0.892717
	H45	H	0.220064	0.650375	0.096401
	H46	H	0.787997	0.324407	0.092546
	H47	H	0.789014	0.651160	0.896514
	H48	H	0.415534	0.104563	0.595622
	H49	H	0.587381	0.874598	0.586439
	H50	H	0.599561	0.103857	0.404831
	H51	H	0.422812	0.871855	0.397655
	H52	H	0.584153	0.390862	0.109738
	H53	H	0.586586	0.583914	0.881027
	H54	H	0.416125	0.580179	0.109462
	H55	H	0.417213	0.392723	0.881897
	H56	H	0.120573	0.579419	0.402206
	H57	H	0.888147	0.579937	0.583590
	H58	H	0.121517	0.399834	0.587585
	H59	H	0.884477	0.387146	0.397681
	H60	H	0.120946	0.396560	0.581670
	H61	H	0.889986	0.576659	0.582893
	H62	H	0.119508	0.576224	0.401730
	H63	H	0.889182	0.390965	0.404619
	H64	H	0.408657	0.583128	0.111894
	H65	H	0.604724	0.583500	0.876198
	H66	H	0.606519	0.391942	0.116207
	H67	H	0.409318	0.390835	0.879170
	H68	H	0.597812	0.103534	0.403922
	H69	H	0.603172	0.871084	0.578624
	H70	H	0.420800	0.101467	0.586722
	H71	H	0.417063	0.874740	0.411993
	H72	H	0.913765	0.600629	0.078214
	H73	H	0.091624	0.372678	0.081874
	H74	H	0.091989	0.601338	0.908102
	H75	H	0.904753	0.369642	0.901196
	H76	H	0.093213	0.895952	0.606620
	H77	H	0.106126	0.071866	0.378741
	H78	H	0.921468	0.077213	0.606215
	H79	H	0.912646	0.901967	0.380289
	H80	H	0.621087	0.078334	0.909800
	H81	H	0.388525	0.082655	0.089656
	H82	H	0.622049	0.903693	0.094144
	H83	H	0.390805	0.898179	0.907374
	H84	H	0.625393	0.888136	0.089157
	H85	H	0.390252	0.076694	0.086643
	H86	H	0.621380	0.075270	0.903833
	H87	H	0.390280	0.899814	0.902468
	H88	H	0.915600	0.087305	0.610473
	H89	H	0.091908	0.078252	0.381426
	H90	H	0.098285	0.892760	0.609527
	H91	H	0.920742	0.891301	0.379600
	H92	H	0.096989	0.603686	0.903533
	H93	H	0.096452	0.370889	0.083828
	H94	H	0.903021	0.607649	0.092197
	H95	H	0.915186	0.371154	0.893879
	H96	H	0.410416	0.104107	0.585707
	H97	H	0.600329	0.866567	0.595474
	H98	H	0.598314	0.103591	0.406087
	H99	H	0.407859	0.867638	0.400486
	H100	H	0.596137	0.410594	0.107287
	H101	H	0.596767	0.569240	0.883975
	H102	H	0.409137	0.575836	0.109687
	H103	H	0.411209	0.398752	0.881537
	H104	H	0.121405	0.577854	0.399161
	H105	H	0.888487	0.576590	0.585836
	H106	H	0.118306	0.403056	0.581959
	H107	H	0.887476	0.395480	0.397270
	H108	H	0.920636	0.602687	0.095138
	H109	H	0.092207	0.371277	0.087128
	H110	H	0.090074	0.603428	0.901814
	H111	H	0.915365	0.374713	0.906618
	H112	H	0.099060	0.898419	0.607631
	H113	H	0.103579	0.086796	0.374555
	H114	H	0.909124	0.076622	0.610155
	H115	H	0.907817	0.890880	0.374663
	H116	H	0.622637	0.081466	0.904391
	H117	H	0.388312	0.077006	0.093364
	H118	H	0.617464	0.898797	0.077878
	H119	H	0.388902	0.894926	0.903346
	C120	C	0.385086	-0.004568	0.617484
	C121	C	0.628096	0.978058	0.617348
	C122	C	0.627960	-0.003447	0.373593
	C123	C	0.386510	0.979036	0.374834
	C124	C	0.625568	0.366250	0.004198
	C125	C	0.625781	0.609106	0.987356
	C126	C	0.381465	0.610297	0.003610
	C127	C	0.381826	0.365299	0.987591
	C128	C	0.012461	0.606706	0.372009
	C129	C	0.995772	0.609254	0.614770
	C130	C	0.013227	0.367718	0.613263
	C131	C	0.994930	0.363523	0.370170
	C132	C	0.882704	0.495524	0.115995
	C133	C	0.124063	0.478777	0.115458
	C134	C	0.124023	0.496281	0.872681
	C135	C	0.881361	0.479105	0.871984
	C136	C	0.127689	0.865296	0.501044
	C137	C	0.129353	0.109739	0.485430
	C138	C	0.885886	0.108092	0.501627
	C139	C	0.883449	0.864747	0.484720
	C140	C	0.514468	0.108171	0.875225
	C141	C	0.496669	0.109975	0.118822
	C142	C	0.514081	0.866737	0.117795
	C143	C	0.497241	0.866082	0.874362
	C144	C	0.384886	0.873079	0.672980
	C145	C	0.629014	0.100060	0.675237
	C146	C	0.628211	0.875112	0.314941
	C147	C	0.387709	0.101923	0.319769
	C148	C	0.682301	0.365945	0.882138
	C149	C	0.682399	0.608413	0.108988
	C150	C	0.325283	0.608609	0.881604
	C151	C	0.323887	0.367427	0.108952
	C152	C	0.889745	0.663301	0.373431
	C153	C	0.118593	0.666456	0.613425
	C154	C	0.890891	0.309427	0.611087
	C155	C	0.119006	0.309823	0.371149
	C156	C	0.890357	0.366148	0.669983
	C157	C	0.117235	0.611341	0.673808
	C158	C	0.888807	0.604318	0.317625
	C159	C	0.117686	0.366008	0.313322
	C160	C	0.383191	0.667013	0.882212
	C161	C	0.624685	0.666457	0.109203
	C162	C	0.625105	0.307319	0.883150
	C163	C	0.382032	0.309953	0.109494
	C164	C	0.683188	0.873664	0.374286
	C165	C	0.684707	0.100783	0.616510
	C166	C	0.327718	0.872939	0.614597
	C167	C	0.331037	0.102020	0.377273
	C168	C	0.882537	0.372817	0.170594
	C169	C	0.124422	0.600773	0.174036
	C170	C	0.124480	0.374528	0.813748
	C171	C	0.880027	0.600682	0.815031
	C172	C	0.185181	0.866704	0.379261
	C173	C	0.184901	0.109625	0.607642
	C174	C	0.829045	0.104842	0.380253
	C175	C	0.826453	0.865342	0.606672
	C176	C	0.391255	0.163614	0.876370
	C177	C	0.618574	0.168583	0.117884
	C178	C	0.391195	0.809899	0.117302
	C179	C	0.619199	0.808233	0.875013
	C180	C	0.391717	0.866956	0.175124
	C181	C	0.619177	0.111086	0.175131
	C182	C	0.392339	0.107074	0.817327
	C183	C	0.618956	0.864088	0.816086
	C184	C	0.888238	0.161338	0.378839
	C185	C	0.128274	0.169011	0.606317
	C186	C	0.127083	0.808484	0.379039
	C187	C	0.884026	0.807915	0.606154
	C188	C	0.180982	0.373990	0.872635
	C189	C	0.181059	0.601658	0.115530
	C190	C	0.826023	0.373088	0.113018
	C191	C	0.825698	0.601645	0.875122
	C192	C	0.408668	0.081123	0.595764
	C193	C	0.603982	0.892796	0.593627
	C194	C	0.605221	0.081711	0.397802
	C195	C	0.409221	0.893570	0.396852
	C196	C	0.602286	0.390612	0.089001
	C197	C	0.602792	0.585705	0.902501
	C198	C	0.404569	0.586688	0.088331
	C199	C	0.405601	0.387709	0.902807
	C200	C	0.098227	0.584251	0.394418
	C201	C	0.910852	0.584764	0.590974
	C202	C	0.098267	0.392488	0.590548
	C203	C	0.909227	0.384898	0.393073
	C204	C	0.905759	0.581476	0.094588
	C205	C	0.100448	0.393818	0.091313
	C206	C	0.099957	0.580901	0.897325
	C207	C	0.905031	0.393755	0.893984
	C208	C	0.104074	0.889033	0.585940
	C209	C	0.107176	0.085710	0.400363
	C210	C	0.908755	0.086676	0.586932
	C211	C	0.906957	0.888102	0.400192
	C212	C	0.599635	0.085097	0.899092
	C213	C	0.411362	0.085738	0.096427
	C214	C	0.599590	0.890121	0.094095
	C215	C	0.412224	0.890481	0.897555
	Zn216	Zn	0.507088	-0.013136	0.745835
	Zn217	Zn	0.506476	-0.012182	0.246116
	Zn218	Zn	0.755057	0.487866	-0.004868
	Zn219	Zn	0.252979	0.487446	-0.005463
	Zn220	Zn	0.004718	0.736393	0.491779
	Zn221	Zn	0.006499	0.238065	0.492393
	Zn222	Zn	0.002956	0.488335	0.743663
	Zn223	Zn	0.003093	0.485869	0.244081
	Zn224	Zn	0.504375	0.738733	-0.003771
	Zn225	Zn	0.504038	0.236944	-0.003192
	Zn226	Zn	0.755502	-0.012916	0.495104
	Zn227	Zn	0.257554	-0.012868	0.494576
	N228	N	0.419749	0.950297	0.674720
	N229	N	0.594673	0.022623	0.675964
	N230	N	0.594777	0.952574	0.314297
	N231	N	0.421281	0.024409	0.317862
	N232	N	0.682795	0.401814	0.958356
	N233	N	0.683336	0.573694	0.032125
	N234	N	0.323985	0.574264	0.958173
	N235	N	0.323643	0.401179	0.032029
	N236	N	0.967627	0.665019	0.406421
	N237	N	0.042042	0.665496	0.577677
	N238	N	0.968186	0.310342	0.576632
	N239	N	0.041830	0.308046	0.405854
	N240	N	0.967419	0.401848	0.671520
	N241	N	0.039734	0.576825	0.675071
	N242	N	0.966156	0.570007	0.316597
	N243	N	0.039840	0.398795	0.312669
	N244	N	0.417000	0.668256	0.959257
	N245	N	0.590413	0.667116	0.032459
	N246	N	0.590531	0.307490	0.960040
	N247	N	0.417453	0.308725	0.033163
	N248	N	0.683048	0.950191	0.410462
	N249	N	0.684526	0.023773	0.581355
	N250	N	0.327478	0.950131	0.580994
	N251	N	0.330082	0.024744	0.410885
	N252	N	0.917336	0.450060	0.172462
	N253	N	0.089918	0.523491	0.174155
	N254	N	0.089902	0.451690	0.813644
	N255	N	0.914055	0.523290	0.812820
	N256	N	0.185596	0.901473	0.456164
	N257	N	0.185688	0.073435	0.531504
	N258	N	0.827568	0.072446	0.457658
	N259	N	0.825824	0.899975	0.530195
	N260	N	0.468047	0.164210	0.911686
	N261	N	0.541342	0.167979	0.083576
	N262	N	0.468199	0.809688	0.082359
	N263	N	0.542407	0.809375	0.910505
	N264	N	0.469261	0.901655	0.175316
	N265	N	0.542547	0.074896	0.175627
	N266	N	0.470044	0.073471	0.816261
	N267	N	0.542024	0.899153	0.815390
	N268	N	0.922890	0.163600	0.455470
	N269	N	0.094748	0.169240	0.529352
	N270	N	0.092088	0.807711	0.455707
	N271	N	0.918866	0.807416	0.529440
	N272	N	0.181043	0.450611	0.908462
	N273	N	0.181177	0.524849	0.079808
	N274	N	0.826172	0.450398	0.079708
	N275	N	0.826500	0.525038	0.909803
	O276	O	0.094152	-0.150987	-0.016556
	H277	H	0.081627	-0.143284	-0.015446
	H278	H	0.095050	-0.158939	-0.028652
	O279	O	0.391248	0.546733	0.496017
	H280	H	0.382595	0.531765	0.492964
	H281	H	0.377340	0.552684	0.489846
	O282	O	1.052829	0.129611	-0.027238
	H283	H	1.047243	0.134158	-0.001094
	H284	H	1.045936	0.134907	-0.033014
	O285	O	-0.154775	1.115897	-0.063678
	H286	H	-0.150074	1.094771	-0.070598
	H287	H	-0.154420	1.125324	-0.059792
	O288	O	0.146962	0.123989	0.750351
	H289	H	0.149869	0.122441	0.763174
	H290	H	0.156855	0.128949	0.751308
	O291	O	0.598373	0.483811	0.553741
	H292	H	0.600165	0.494267	0.542405
	H293	H	0.607447	0.486575	0.543425
	O294	O	1.059808	0.864088	0.869869
	H295	H	1.057228	0.870451	0.868700
	H296	H	1.064521	0.853044	0.869177
	O297	O	0.057749	0.081491	-0.010164
	H298	H	0.053674	0.072423	-0.007281
	H299	H	0.060866	0.093775	-0.000528
	O300	O	0.478660	0.506537	0.571348
	H301	H	0.473427	0.498252	0.576867
	H302	H	0.473026	0.501846	0.579337
	O303	O	-0.021998	1.057728	0.841962
	H304	H	-0.018982	1.062089	0.845112
	H305	H	-0.016166	1.064778	0.828214
	O306	O	1.010856	1.039901	0.113696
	H307	H	1.016332	1.050183	0.116461
	H308	H	1.011008	1.043590	0.102173
	O309	O	0.884467	0.010209	0.020746
	H310	H	0.867736	0.002636	0.023715
	H311	H	0.874014	0.008756	0.017128
	O312	O	-0.011246	-0.089698	1.140063
	H313	H	-0.012032	-0.085785	1.145813
	H314	H	-0.011141	-0.092799	1.134780
	O315	O	0.364919	0.548514	0.559236
	H316	H	0.377178	0.541465	0.551105
	H317	H	0.362113	0.535291	0.546640
	O318	O	0.542360	0.619780	0.508354
	H319	H	0.538547	0.619765	0.507162
	H320	H	0.531714	0.621208	0.510077
	O321	O	0.390746	0.423888	0.537540
	H322	H	0.406424	0.427108	0.529624
	H323	H	0.372642	0.407978	0.544280
	O324	O	0.609419	0.626746	0.613698
	H325	H	0.603114	0.629363	0.613826
	H326	H	0.608041	0.629306	0.620488
	O327	O	-0.018542	1.092768	1.088661
	H328	H	-0.015013	1.095102	1.085963
	H329	H	-0.023824	1.088694	1.093565
	O330	O	0.359270	0.407200	0.596577
	H331	H	0.368680	0.412971	0.599481
	H332	H	0.371964	0.408409	0.600790
	O333	O	0.186082	0.913933	0.983712
	H334	H	0.180003	0.924344	0.986783
	H335	H	0.196322	0.895221	0.978935
	O336	O	0.965884	0.901081	0.988021
	H337	H	0.975869	0.887866	0.979560
	H338	H	0.973369	0.920713	0.997794
	O339	O	0.455248	0.488070	0.356301
	H340	H	0.454415	0.491587	0.361508
	H341	H	0.466212	0.468677	0.359630
	O342	O	0.860652	0.070928	-0.176458
	H343	H	0.856855	0.074026	-0.172774
	H344	H	0.876003	0.056147	-0.177468
	O345	O	0.520547	0.473116	0.435470
	H346	H	0.515124	0.460128	0.435304
	H347	H	0.522258	0.463877	0.443907
	O348	O	1.008231	0.872194	0.936403
	H349	H	1.002037	0.876415	0.936803
	H350	H	1.017488	0.868785	0.925666
	O351	O	0.564476	1.398262	-0.421052
	H352	H	0.562937	1.398697	-0.425427
	H353	H	0.570473	1.405338	-0.420241
	O354	O	0.466862	0.519025	0.501328
	H355	H	0.459537	0.520095	0.492948
	H356	H	0.478722	0.529561	0.498441
	O357	O	0.064434	0.910127	0.906869
	H358	H	0.065732	0.900250	0.891169
	H359	H	0.079764	0.920601	0.909568
	O360	O	0.335365	0.158114	0.247668
	H361	H	0.337815	0.147831	0.245166
	H362	H	0.338836	0.144576	0.247797
	O363	O	0.499221	0.391685	0.479691
	H364	H	0.502689	0.404203	0.486360
	H365	H	0.487413	0.390696	0.475745
	O366	O	0.495785	0.399205	0.419580
	H367	H	0.501579	0.418012	0.424090
	H368	H	0.515282	0.394879	0.413607
	O369	O	0.502386	0.415934	0.552593
	H370	H	0.505263	0.425634	0.563610
	H371	H	0.502947	0.412440	0.562190
	O372	O	0.543015	0.403303	0.661767
	H373	H	0.555351	0.410738	0.649179
	H374	H	0.558071	0.392325	0.666535
	O375	O	0.559604	0.605028	0.422237
	H376	H	0.540025	0.608485	0.416511
	H377	H	0.567993	0.600811	0.436156
	O378	O	-0.040981	1.094806	1.111218
	H379	H	-0.042555	1.103730	1.108815
	H380	H	-0.042858	1.098093	1.107893
	O381	O	0.622539	0.562038	0.580404
	H382	H	0.623703	0.578678	0.576361
	H383	H	0.603467	0.560089	0.579681
	O384	O	-0.150958	1.002267	0.030947
	H385	H	-0.137337	1.004810	0.020630
	H386	H	-0.176693	1.004179	0.028466
	O387	O	1.091265	0.000621	1.016692
	H388	H	1.083647	0.006081	1.021141
	H389	H	1.096661	-0.002916	1.033310
	O390	O	0.045801	0.875062	-0.096046
	H391	H	0.062735	0.885733	-0.099644
	H392	H	0.056494	0.875255	-0.106513
	O393	O	1.048093	0.911556	0.038084
	H394	H	1.041753	0.899949	0.040355
	H395	H	1.047950	0.903709	0.029641
	O396	O	0.463431	0.524060	0.446465
	H397	H	0.458495	0.523569	0.448119
	H398	H	0.476994	0.536261	0.449230
	O399	O	0.097326	1.106376	1.040764
	H400	H	0.094768	1.098336	1.036816
	H401	H	0.103411	1.094238	1.045959
	O402	O	0.944444	0.891476	0.915100
	H403	H	0.952823	0.883052	0.903925
	H404	H	0.955545	0.897584	0.913514
	O405	O	0.506879	0.660849	0.388615
	H406	H	0.488806	0.657263	0.399292
	H407	H	0.512585	0.662568	0.373837
