data_Molecule from HDF5

_cell_length_a		16.609688
_cell_length_b		16.618989
_cell_length_c		16.539885
_cell_angle_alpha	89.988455
_cell_angle_beta	90.087910
_cell_angle_gamma	90.035784
_symmetry_space_group_name_H-M	'P 1'
_symmetry_Int_Tables_number		1

loop_
	_symmetry_equiv_pos_as_xyz
	x,y,z

loop_
	_atom_site_label
	_atom_site_type_symbol
	_atom_site_fract_x
	_atom_site_fract_y
	_atom_site_fract_z
	H0	H	0.376374	0.832173	0.718177
	H1	H	0.587239	0.143817	0.720768
	H2	H	0.587225	0.832871	0.275838
	H3	H	0.375968	0.144841	0.276549
	H4	H	0.702425	0.382100	0.841348
	H5	H	0.700273	0.591024	0.156457
	H6	H	0.261199	0.592703	0.841133
	H7	H	0.260056	0.381985	0.154114
	H8	H	0.826595	0.713531	0.387754
	H9	H	0.136724	0.710830	0.603431
	H10	H	0.823174	0.270633	0.599504
	H11	H	0.138673	0.268519	0.395028
	H12	H	0.822479	0.388423	0.715113
	H13	H	0.136976	0.594131	0.719559
	H14	H	0.826547	0.595947	0.272980
	H15	H	0.138263	0.384671	0.277530
	H16	H	0.375227	0.709910	0.843024
	H17	H	0.585349	0.707225	0.156193
	H18	H	0.586932	0.266254	0.841571
	H19	H	0.375542	0.265979	0.153615
	H20	H	0.704938	0.834243	0.390288
	H21	H	0.703386	0.144960	0.604371
	H22	H	0.258876	0.833347	0.603771
	H23	H	0.259510	0.144485	0.392412
	H24	H	0.878550	0.332003	0.217826
	H25	H	0.088023	0.643597	0.220951
	H26	H	0.083148	0.331135	0.779401
	H27	H	0.877277	0.644730	0.777891
	H28	H	0.202310	0.883507	0.341982
	H29	H	0.202064	0.092379	0.655342
	H30	H	0.758851	0.096478	0.342894
	H31	H	0.759481	0.882840	0.653088
	H32	H	0.327284	0.210183	0.889516
	H33	H	0.635393	0.212393	0.105716
	H34	H	0.325954	0.766563	0.103678
	H35	H	0.636937	0.764244	0.891991
	H36	H	0.325356	0.884264	0.219009
	H37	H	0.635508	0.095374	0.222026
	H38	H	0.326837	0.091991	0.775452
	H39	H	0.636883	0.880024	0.775390
	H40	H	0.877259	0.210131	0.341795
	H41	H	0.087224	0.208981	0.655543
	H42	H	0.086845	0.767205	0.341561
	H43	H	0.875166	0.766645	0.653331
	H44	H	0.202534	0.332417	0.891957
	H45	H	0.204354	0.643565	0.104423
	H46	H	0.760438	0.332268	0.102456
	H47	H	0.759032	0.644246	0.893316
	H48	H	0.395269	0.100587	0.589391
	H49	H	0.574313	0.876635	0.585647
	H50	H	0.566591	0.100225	0.405179
	H51	H	0.395998	0.879662	0.410835
	H52	H	0.570364	0.401476	0.109057
	H53	H	0.572249	0.574818	0.887003
	H54	H	0.390605	0.577659	0.112256
	H55	H	0.389633	0.398632	0.884179
	H56	H	0.092366	0.579540	0.412790
	H57	H	0.871366	0.573948	0.586729
	H58	H	0.093272	0.396916	0.588909
	H59	H	0.869053	0.396718	0.407834
	H60	H	0.093462	0.398303	0.589759
	H61	H	0.867751	0.578698	0.589059
	H62	H	0.090220	0.574366	0.411359
	H63	H	0.871438	0.398514	0.410629
	H64	H	0.393082	0.572896	0.110375
	H65	H	0.566867	0.575684	0.888148
	H66	H	0.568325	0.397455	0.109596
	H67	H	0.393873	0.402447	0.887822
	H68	H	0.567495	0.097594	0.414879
	H69	H	0.569939	0.877335	0.588396
	H70	H	0.393727	0.098935	0.583574
	H71	H	0.388264	0.877067	0.411945
	H72	H	0.895477	0.601051	0.091346
	H73	H	0.067658	0.378379	0.086524
	H74	H	0.074954	0.599772	0.912627
	H75	H	0.890041	0.375921	0.906776
	H76	H	0.071167	0.905624	0.608547
	H77	H	0.072435	0.078914	0.385216
	H78	H	0.896943	0.072170	0.607433
	H79	H	0.893004	0.902641	0.386540
	H80	H	0.592540	0.075166	0.909381
	H81	H	0.370456	0.074136	0.088233
	H82	H	0.592608	0.900825	0.086288
	H83	H	0.370903	0.900482	0.907429
	H84	H	0.593767	0.898861	0.089570
	H85	H	0.368846	0.079359	0.086478
	H86	H	0.594567	0.077627	0.909866
	H87	H	0.370492	0.896330	0.909841
	H88	H	0.896643	0.085897	0.611826
	H89	H	0.070626	0.077878	0.386611
	H90	H	0.064029	0.897767	0.609049
	H91	H	0.895625	0.901379	0.386697
	H92	H	0.073718	0.601931	0.904862
	H93	H	0.072109	0.377741	0.083793
	H94	H	0.894474	0.597530	0.081237
	H95	H	0.891846	0.376949	0.908371
	H96	H	0.389811	0.101276	0.587345
	H97	H	0.570274	0.878851	0.583509
	H98	H	0.575015	0.101664	0.409736
	H99	H	0.391862	0.875339	0.404742
	H100	H	0.572439	0.398289	0.111024
	H101	H	0.570073	0.579740	0.885328
	H102	H	0.395869	0.577770	0.109432
	H103	H	0.395668	0.396744	0.886363
	H104	H	0.092771	0.577294	0.407710
	H105	H	0.870069	0.579004	0.583642
	H106	H	0.094767	0.397133	0.590432
	H107	H	0.870250	0.400505	0.406866
	H108	H	0.886014	0.601639	0.086076
	H109	H	0.071704	0.375837	0.089166
	H110	H	0.067766	0.598628	0.909500
	H111	H	0.889180	0.376233	0.909338
	H112	H	0.073519	0.896202	0.612592
	H113	H	0.069870	0.080338	0.385500
	H114	H	0.884971	0.077559	0.612803
	H115	H	0.893595	0.899667	0.385243
	H116	H	0.592982	0.076877	0.911694
	H117	H	0.371170	0.075484	0.082295
	H118	H	0.593163	0.896956	0.086077
	H119	H	0.372250	0.900150	0.912125
	C120	C	0.360422	-0.003026	0.619021
	C121	C	0.603970	0.980149	0.619550
	C122	C	0.602897	-0.002638	0.376796
	C123	C	0.359779	0.980385	0.376665
	C124	C	0.602481	0.366744	0.006359
	C125	C	0.602001	0.608627	0.990353
	C126	C	0.360423	0.608899	0.007299
	C127	C	0.360576	0.366798	0.989363
	C128	C	-0.010489	0.610223	0.376537
	C129	C	0.972864	0.609856	0.618967
	C130	C	-0.010543	0.367084	0.619833
	C131	C	0.973764	0.366944	0.377082
	C132	C	0.860071	0.496972	0.119118
	C133	C	0.103359	0.479924	0.119372
	C134	C	0.103245	0.496769	0.876705
	C135	C	0.858990	0.479985	0.876777
	C136	C	0.101867	0.867641	0.506497
	C137	C	0.102781	0.110034	0.489875
	C138	C	0.860668	0.110555	0.506950
	C139	C	0.860654	0.868043	0.488838
	C140	C	0.490723	0.108944	0.876739
	C141	C	0.472654	0.109314	0.118900
	C142	C	0.490053	0.866957	0.119491
	C143	C	0.473519	0.865784	0.876769
	C144	C	0.358107	0.879210	0.678412
	C145	C	0.606070	0.097100	0.680589
	C146	C	0.605702	0.880028	0.315733
	C147	C	0.357644	0.097790	0.316493
	C148	C	0.662435	0.364242	0.888403
	C149	C	0.661156	0.609745	0.108891
	C150	C	0.300828	0.611068	0.888928
	C151	C	0.300111	0.363581	0.106862
	C152	C	0.873096	0.672233	0.371002
	C153	C	0.090000	0.670588	0.621846
	C154	C	0.870219	0.309972	0.618990
	C155	C	0.091821	0.308236	0.376180
	C156	C	0.869986	0.368356	0.676433
	C157	C	0.090029	0.612648	0.679730
	C158	C	0.873097	0.613789	0.313865
	C159	C	0.091522	0.365837	0.317823
	C160	C	0.357421	0.669618	0.889578
	C161	C	0.603740	0.667431	0.108947
	C162	C	0.604883	0.306540	0.888576
	C163	C	0.357793	0.306094	0.106782
	C164	C	0.664297	0.880811	0.372705
	C165	C	0.663640	0.097707	0.622462
	C166	C	0.299653	0.879857	0.621469
	C167	C	0.299525	0.097592	0.373917
	C168	C	0.859257	0.379020	0.178330
	C169	C	0.106112	0.597002	0.180051
	C170	C	0.102990	0.378865	0.817920
	C171	C	0.858305	0.598065	0.817805
	C172	C	0.162066	0.865460	0.388828
	C173	C	0.162311	0.111310	0.608195
	C174	C	0.800150	0.113453	0.389254
	C175	C	0.800053	0.865072	0.606359
	C176	C	0.373798	0.169525	0.872525
	C177	C	0.589139	0.171226	0.123133
	C178	C	0.372617	0.807038	0.121673
	C179	C	0.590013	0.804449	0.873549
	C180	C	0.372466	0.865100	0.179324
	C181	C	0.589369	0.112982	0.180626
	C182	C	0.373550	0.110921	0.815660
	C183	C	0.590213	0.862333	0.815710
	C184	C	0.858740	0.170233	0.388884
	C185	C	0.104943	0.169107	0.608327
	C186	C	0.104799	0.807435	0.388767
	C187	C	0.857401	0.807170	0.606421
	C188	C	0.162175	0.379103	0.874388
	C189	C	0.164383	0.596741	0.122621
	C190	C	0.800590	0.379088	0.121163
	C191	C	0.799469	0.597698	0.874755
	C192	C	0.385732	0.078786	0.593981
	C193	C	0.578707	0.898694	0.593293
	C194	C	0.576991	0.078609	0.402506
	C195	C	0.384813	0.898663	0.401890
	C196	C	0.577536	0.391917	0.088469
	C197	C	0.576854	0.584133	0.908257
	C198	C	0.385843	0.583455	0.089305
	C199	C	0.385766	0.392124	0.907444
	C200	C	0.070595	0.584457	0.403148
	C201	C	0.891089	0.584568	0.593424
	C202	C	0.072157	0.390640	0.596428
	C203	C	0.891698	0.391628	0.401559
	C204	C	0.884798	0.578789	0.093618
	C205	C	0.077744	0.398471	0.093876
	C206	C	0.079102	0.578791	0.901882
	C207	C	0.883271	0.397753	0.901257
	C208	C	0.076711	0.892755	0.588638
	C209	C	0.077987	0.085899	0.407370
	C210	C	0.885812	0.085538	0.589203
	C211	C	0.886597	0.893874	0.407229
	C212	C	0.572103	0.083578	0.903031
	C213	C	0.391272	0.083576	0.092996
	C214	C	0.571943	0.891793	0.094320
	C215	C	0.392354	0.891646	0.902709
	Zn216	Zn	0.481820	-0.012337	0.747913
	Zn217	Zn	0.481087	-0.011606	0.248498
	Zn218	Zn	0.730650	0.488158	-0.001960
	Zn219	Zn	0.232065	0.487807	-0.001832
	Zn220	Zn	-0.019164	0.738814	0.497806
	Zn221	Zn	-0.018083	0.238457	0.498869
	Zn222	Zn	-0.019144	0.488961	0.748246
	Zn223	Zn	-0.018420	0.488671	0.248018
	Zn224	Zn	0.481652	0.737123	-0.001108
	Zn225	Zn	0.481230	0.237955	-0.002479
	Zn226	Zn	0.732291	-0.010493	0.497753
	Zn227	Zn	0.231338	-0.011051	0.498205
	N228	N	0.395227	0.953037	0.677089
	N229	N	0.569600	0.022929	0.678942
	N230	N	0.568207	0.953586	0.317989
	N231	N	0.394470	0.023814	0.318069
	N232	N	0.661199	0.400970	0.962841
	N233	N	0.660297	0.573795	0.034146
	N234	N	0.302341	0.574221	0.963239
	N235	N	0.301665	0.400695	0.032764
	N236	N	0.946370	0.670122	0.409396
	N237	N	0.015880	0.669157	0.584907
	N238	N	0.945720	0.308581	0.585089
	N239	N	0.017427	0.308694	0.412098
	N240	N	0.945231	0.402792	0.677424
	N241	N	0.016171	0.575813	0.678239
	N242	N	0.946543	0.575972	0.317042
	N243	N	0.017022	0.401447	0.318022
	N244	N	0.393610	0.668687	0.964369
	N245	N	0.567911	0.667282	0.034194
	N246	N	0.568388	0.307923	0.962963
	N247	N	0.394638	0.307763	0.032628
	N248	N	0.662797	0.954709	0.409789
	N249	N	0.662554	0.023820	0.585364
	N250	N	0.300621	0.954333	0.585529
	N251	N	0.300830	0.023617	0.410795
	N252	N	0.895282	0.453275	0.177205
	N253	N	0.068986	0.523222	0.178371
	N254	N	0.067017	0.453139	0.818974
	N255	N	0.894496	0.523826	0.818834
	N256	N	0.160475	0.902278	0.463138
	N257	N	0.161145	0.075122	0.533657
	N258	N	0.801079	0.077163	0.463827
	N259	N	0.801772	0.902177	0.532193
	N260	N	0.447731	0.168555	0.909731
	N261	N	0.515641	0.169028	0.085398
	N262	N	0.446797	0.807925	0.085218
	N263	N	0.516417	0.806348	0.910905
	N264	N	0.446625	0.901505	0.178312
	N265	N	0.515998	0.075149	0.178200
	N266	N	0.447372	0.073974	0.817937
	N267	N	0.516715	0.899861	0.817583
	N268	N	0.895278	0.168850	0.463304
	N269	N	0.068648	0.168604	0.533639
	N270	N	0.068237	0.808432	0.463179
	N271	N	0.894289	0.808624	0.532242
	N272	N	0.162579	0.453525	0.910223
	N273	N	0.162790	0.522926	0.085550
	N274	N	0.800768	0.453567	0.085028
	N275	N	0.799640	0.523195	0.910478
	O276	O	0.011021	0.761797	0.029406
	H277	H	0.023152	0.754355	0.014525
	H278	H	0.004958	0.771916	0.032061
	O279	O	0.552087	0.428285	0.591050
	H280	H	0.546432	0.422775	0.589744
	H281	H	0.538345	0.420793	0.590461
	O282	O	1.286606	0.287155	0.681250
	H283	H	1.329564	0.284303	0.684969
	H284	H	1.285451	0.281831	0.641006
	O285	O	0.486905	0.264253	0.493444
	H286	H	0.484354	0.260792	0.474231
	H287	H	0.514985	0.267703	0.477876
	O288	O	0.181269	0.192344	0.202435
	H289	H	0.174952	0.168500	0.192682
	H290	H	0.184886	0.210015	0.205952
	O291	O	0.282735	0.510251	0.347570
	H292	H	0.295977	0.529487	0.355547
	H293	H	0.261791	0.520160	0.325388
	O294	O	1.301074	0.315952	1.327991
	H295	H	1.306469	0.318448	1.320177
	H296	H	1.315653	0.332348	1.338209
	O297	O	0.412691	0.434177	0.309979
	H298	H	0.414162	0.443061	0.308965
	H299	H	0.422909	0.424418	0.308023
	O300	O	0.056927	-0.056212	1.184547
	H301	H	0.047549	-0.064063	1.177743
	H302	H	0.046493	-0.060490	1.178365
	O303	O	0.648913	0.393819	0.518261
	H304	H	0.659518	0.385475	0.508178
	H305	H	0.657238	0.389709	0.507418
	O306	O	0.543826	0.617173	0.514755
	H307	H	0.532144	0.617653	0.523794
	H308	H	0.542257	0.616503	0.525431
	O309	O	0.252604	0.473658	0.693059
	H310	H	0.223183	0.466572	0.718037
	H311	H	0.262723	0.438656	0.680957
	O312	O	0.396480	0.614073	0.637455
	H313	H	0.405610	0.606722	0.626903
	H314	H	0.398291	0.608180	0.625338
	O315	O	0.791798	1.178655	1.186978
	H316	H	0.807862	1.152731	1.177126
	H317	H	0.808544	1.166497	1.159245
	O318	O	-0.056629	0.216454	0.769766
	H319	H	-0.103503	0.207396	0.781555
	H320	H	-0.057904	0.251246	0.734217
	O321	O	0.689990	0.525772	0.708859
	H322	H	0.694657	0.512034	0.720902
	H323	H	0.681798	0.501389	0.716229
	O324	O	0.928166	1.067661	0.211477
	H325	H	0.927442	1.070798	0.199697
	H326	H	0.936064	1.073374	0.223038
	O327	O	-0.055058	0.214661	1.038236
	H328	H	-0.042323	0.216585	1.015103
	H329	H	-0.049767	0.218656	1.042283
	O330	O	0.202319	0.965163	-0.198325
	H331	H	0.217689	0.957187	-0.211910
	H332	H	0.189899	0.966621	-0.201440
	O333	O	0.764820	0.203383	0.967340
	H334	H	0.738908	0.226995	0.975632
	H335	H	0.773686	0.178239	0.993850
	O336	O	0.285003	0.286484	0.547197
	H337	H	0.279358	0.271221	0.536028
	H338	H	0.276709	0.299871	0.525101
	O339	O	0.986004	0.125523	0.880443
	H340	H	1.010172	0.133849	0.877425
	H341	H	0.970820	0.144855	0.857810
	O342	O	0.273074	0.525952	0.577002
	H343	H	0.269932	0.523998	0.577793
	H344	H	0.272236	0.505459	0.587613
	O345	O	-0.238202	1.022224	0.781832
	H346	H	-0.268024	1.015381	0.758329
	H347	H	-0.217689	1.000308	0.782559
	O348	O	0.462847	0.502356	0.724579
	H349	H	0.450469	0.496499	0.725600
	H350	H	0.443211	0.512899	0.720206
	O351	O	0.148904	0.902656	0.020472
	H352	H	0.145042	0.917536	0.020823
	H353	H	0.149143	0.910627	0.023297
	O354	O	0.206013	0.211076	1.022462
	H355	H	0.224128	0.208139	1.020999
	H356	H	0.212112	0.218790	1.031389
	O357	O	0.467408	0.586165	0.378533
	H358	H	0.473911	0.587628	0.370524
	H359	H	0.474826	0.592989	0.368763
	O360	O	0.553446	0.700408	0.404061
	H361	H	0.539838	0.709256	0.420950
	H362	H	0.564451	0.702839	0.413035
	O363	O	0.182144	0.189416	-0.188765
	H364	H	0.215379	0.213685	-0.202314
	H365	H	0.188219	0.162832	-0.163916
	O366	O	0.597549	0.473992	0.473262
	H367	H	0.601474	0.474621	0.471132
	H368	H	0.600997	0.473511	0.465016
	O369	O	1.186525	-0.194368	-0.209859
	H370	H	1.202960	-0.187106	-0.220562
	H371	H	1.195460	-0.194343	-0.188203
	O372	O	0.758594	0.874793	-0.039949
	H373	H	0.765675	0.862228	-0.049364
	H374	H	0.766948	0.873444	-0.045081
	O375	O	0.767000	-0.038193	0.217022
	H376	H	0.776335	-0.042215	0.199771
	H377	H	0.736010	-0.046199	0.249110
	O378	O	0.389443	0.701844	0.478382
	H379	H	0.380147	0.714494	0.491001
	H380	H	0.369388	0.687514	0.480300
	O381	O	0.042487	1.015588	0.775557
	H382	H	0.044473	1.030435	0.781613
	H383	H	0.033218	1.029228	0.766004
	O384	O	0.963663	-0.021712	0.999103
	H385	H	0.965971	-0.023862	1.004016
	H386	H	0.970010	-0.017064	0.983736
	O387	O	1.135131	0.790980	0.165370
	H388	H	1.109309	0.803416	0.151256
	H389	H	1.123534	0.805948	0.148787
	O390	O	0.852322	0.859634	0.151785
	H391	H	0.858931	0.852248	0.131952
	H392	H	0.855649	0.876930	0.152147
	O393	O	0.646283	0.365104	0.295590
	H394	H	0.627046	0.393922	0.287443
	H395	H	0.673029	0.350303	0.274546
	O396	O	0.072733	1.149409	0.986886
	H397	H	0.101869	1.155711	0.994058
	H398	H	0.067064	1.148972	0.961127
	O399	O	0.196290	0.031201	1.200097
	H400	H	0.207194	0.033804	1.226105
	H401	H	0.183534	0.023609	1.212462
	O402	O	0.655442	-0.299098	0.532988
	H403	H	0.662192	-0.299208	0.540838
	H404	H	0.662522	-0.290256	0.532149
	O405	O	1.858814	0.831372	0.066338
	H406	H	1.853177	0.827937	0.049541
	H407	H	1.850197	0.828675	0.055875
	O408	O	0.013518	-0.033286	-0.021967
	H409	H	0.017538	-0.023499	-0.029677
	H410	H	0.003257	-0.022162	-0.020525
	O411	O	1.041163	0.775870	0.786272
	H412	H	1.055217	0.758499	0.758465
	H413	H	1.069870	0.790411	0.787413
	O414	O	0.492793	0.682734	0.303417
	H415	H	0.480258	0.679328	0.321197
	H416	H	0.491088	0.711957	0.298247
	O417	O	0.955517	0.797313	0.197113
	H418	H	0.939930	0.785890	0.214947
	H419	H	0.945371	0.791475	0.177593
	O420	O	0.702435	0.497137	0.327791
	H421	H	0.711637	0.516616	0.318815
	H422	H	0.704784	0.495987	0.322386
	O423	O	-0.048812	-0.035030	1.024665
	H424	H	-0.046864	-0.024703	1.021117
	H425	H	-0.051806	-0.037489	1.011457
	O426	O	0.446599	0.684704	0.706659
	H427	H	0.465165	0.677501	0.684740
	H428	H	0.454537	0.685037	0.723162
	O429	O	1.012385	1.208222	1.218751
	H430	H	1.022337	1.202479	1.206541
	H431	H	1.018051	1.231935	1.240393
	O432	O	0.452123	0.532832	0.535989
	H433	H	0.459284	0.526482	0.541162
	H434	H	0.449665	0.537096	0.531198
	O435	O	-0.557559	0.519759	-0.487141
	H436	H	-0.557183	0.508394	-0.479470
	H437	H	-0.554648	0.527736	-0.493387
	O438	O	-0.122202	-0.055155	-0.182163
	H439	H	-0.106143	-0.048904	-0.189479
	H440	H	-0.122588	-0.087591	-0.184423
	O441	O	-0.307764	-0.309708	-0.293397
	H442	H	-0.326507	-0.315015	-0.311429
	H443	H	-0.309115	-0.346283	-0.299884
	O444	O	0.361338	0.373653	0.513500
	H445	H	0.384735	0.377686	0.517309
	H446	H	0.355292	0.378162	0.498097
	O447	O	0.181307	1.069753	0.939156
	H448	H	0.179980	1.057684	0.940891
	H449	H	0.175178	1.054249	0.926644
	O450	O	-0.305254	1.272818	1.370463
	H451	H	-0.294050	1.296104	1.362061
	H452	H	-0.283354	1.255711	1.334076
	O453	O	0.589306	0.548130	0.344248
	H454	H	0.575239	0.544796	0.358277
	H455	H	0.579044	0.551868	0.337023
	O456	O	0.696326	0.692582	1.272625
	H457	H	0.704404	0.695815	1.268906
	H458	H	0.691626	0.696018	1.258146
	O459	O	1.195799	0.770020	-0.040886
	H460	H	1.202690	0.777111	-0.041856
	H461	H	1.214563	0.759348	-0.041895
	O462	O	0.662740	0.386793	0.593371
	H463	H	0.674178	0.383088	0.582356
	H464	H	0.652055	0.370199	0.584972
	O465	O	1.265918	0.706498	0.464484
	H466	H	1.260622	0.703324	0.439755
	H467	H	1.247179	0.718048	0.468957
	O468	O	0.511207	0.300917	0.531248
	H469	H	0.496480	0.309266	0.539784
	H470	H	0.525049	0.299319	0.509950
	O471	O	0.781631	0.185277	0.804983
	H472	H	0.778184	0.135771	0.795556
	H473	H	0.773699	0.193669	0.859061
	O474	O	0.453665	0.286835	0.708126
	H475	H	0.467332	0.281799	0.694487
	H476	H	0.469210	0.278931	0.711617
	O477	O	0.928299	-0.202218	1.900049
	H478	H	0.929326	-0.207740	1.901974
	H479	H	0.944435	-0.210876	1.879299
	O480	O	0.240926	0.725985	0.263276
	H481	H	0.258052	0.710654	0.254660
	H482	H	0.215943	0.751784	0.232380
	O483	O	-0.243947	1.056395	0.059552
	H484	H	-0.244452	1.035003	0.064692
	H485	H	-0.230917	1.040236	0.046934
	O486	O	0.831408	-0.202641	0.805973
	H487	H	0.849199	-0.195935	0.826016
	H488	H	0.809218	-0.234539	0.776966
	O489	O	1.506976	0.273415	0.281284
	H490	H	1.527990	0.270559	0.274057
	H491	H	1.522413	0.267601	0.265387
