data_Molecule from HDF5

_cell_length_a		16.525875
_cell_length_b		16.374517
_cell_length_c		16.250615
_cell_angle_alpha	89.628877
_cell_angle_beta	89.947872
_cell_angle_gamma	90.139200
_symmetry_space_group_name_H-M	'P 1'
_symmetry_Int_Tables_number		1

loop_
	_symmetry_equiv_pos_as_xyz
	x,y,z

loop_
	_atom_site_label
	_atom_site_type_symbol
	_atom_site_fract_x
	_atom_site_fract_y
	_atom_site_fract_z
	H0	H	0.400659	0.842778	0.710624
	H1	H	0.603383	0.163895	0.709749
	H2	H	0.600268	0.841511	0.278517
	H3	H	0.399967	0.163500	0.271662
	H4	H	0.723114	0.397868	0.831702
	H5	H	0.723639	0.607376	0.150304
	H6	H	0.281912	0.608434	0.830314
	H7	H	0.276697	0.391194	0.150398
	H8	H	0.842653	0.723559	0.388673
	H9	H	0.159231	0.723410	0.596822
	H10	H	0.843630	0.279881	0.599295
	H11	H	0.158657	0.280878	0.384219
	H12	H	0.842746	0.398552	0.713574
	H13	H	0.159923	0.606017	0.710976
	H14	H	0.842898	0.607111	0.271693
	H15	H	0.159942	0.401951	0.271526
	H16	H	0.400230	0.722538	0.830173
	H17	H	0.604951	0.718517	0.152506
	H18	H	0.605973	0.284355	0.831143
	H19	H	0.398009	0.280363	0.152550
	H20	H	0.722612	0.844864	0.387764
	H21	H	0.727798	0.159443	0.604293
	H22	H	0.280484	0.843817	0.598203
	H23	H	0.280068	0.162319	0.383987
	H24	H	0.894042	0.345240	0.215900
	H25	H	0.104002	0.662426	0.207700
	H26	H	0.105450	0.343863	0.770365
	H27	H	0.901996	0.664102	0.773219
	H28	H	0.221887	0.899888	0.333021
	H29	H	0.224238	0.111455	0.651088
	H30	H	0.776944	0.112479	0.334212
	H31	H	0.779764	0.896855	0.653236
	H32	H	0.345639	0.227919	0.883801
	H33	H	0.660793	0.223281	0.097098
	H34	H	0.346338	0.777614	0.097265
	H35	H	0.662137	0.784413	0.887623
	H36	H	0.344591	0.896520	0.212366
	H37	H	0.660704	0.105516	0.211877
	H38	H	0.343332	0.106832	0.772039
	H39	H	0.661875	0.903558	0.773684
	H40	H	0.892861	0.227308	0.333402
	H41	H	0.106385	0.224457	0.651854
	H42	H	0.103352	0.786245	0.332256
	H43	H	0.898421	0.783320	0.654648
	H44	H	0.228675	0.346811	0.877325
	H45	H	0.225092	0.658967	0.096571
	H46	H	0.778165	0.344701	0.100419
	H47	H	0.781241	0.661550	0.883463
	H48	H	0.410977	0.116878	0.579794
	H49	H	0.591171	0.891695	0.576245
	H50	H	0.593334	0.118583	0.401871
	H51	H	0.417729	0.892672	0.407552
	H52	H	0.594616	0.413285	0.107722
	H53	H	0.588718	0.599839	0.874799
	H54	H	0.411794	0.585940	0.103627
	H55	H	0.411495	0.413177	0.875538
	H56	H	0.115627	0.603563	0.409236
	H57	H	0.886562	0.596021	0.583539
	H58	H	0.114449	0.405806	0.576406
	H59	H	0.890531	0.415122	0.407140
	H60	H	0.108223	0.420765	0.575042
	H61	H	0.888602	0.592535	0.577683
	H62	H	0.111198	0.584996	0.401237
	H63	H	0.889262	0.417152	0.402214
	H64	H	0.416532	0.588595	0.104371
	H65	H	0.600146	0.592605	0.872723
	H66	H	0.591377	0.415897	0.105438
	H67	H	0.412638	0.420613	0.879817
	H68	H	0.587675	0.116874	0.402088
	H69	H	0.594310	0.887923	0.583343
	H70	H	0.409374	0.118357	0.579861
	H71	H	0.401405	0.888657	0.410398
	H72	H	0.912310	0.616901	0.078531
	H73	H	0.087509	0.390309	0.076491
	H74	H	0.096884	0.613633	0.912856
	H75	H	0.914401	0.391613	0.907428
	H76	H	0.093616	0.913826	0.609385
	H77	H	0.087060	0.089268	0.380046
	H78	H	0.916441	0.087591	0.603562
	H79	H	0.911946	0.917129	0.380197
	H80	H	0.615244	0.091026	0.899623
	H81	H	0.389562	0.090855	0.082261
	H82	H	0.617660	0.907712	0.086360
	H83	H	0.390189	0.914761	0.901831
	H84	H	0.615278	0.909603	0.079052
	H85	H	0.389971	0.093249	0.078685
	H86	H	0.615832	0.097478	0.901102
	H87	H	0.388368	0.909595	0.901537
	H88	H	0.914396	0.091783	0.606281
	H89	H	0.088959	0.094740	0.377713
	H90	H	0.089781	0.914418	0.607508
	H91	H	0.912859	0.912884	0.377988
	H92	H	0.097978	0.620918	0.895364
	H93	H	0.091026	0.388021	0.078468
	H94	H	0.910637	0.616866	0.078125
	H95	H	0.907216	0.389050	0.905035
	H96	H	0.410532	0.118504	0.581475
	H97	H	0.585959	0.890479	0.583468
	H98	H	0.591391	0.116125	0.406792
	H99	H	0.407987	0.885747	0.394633
	H100	H	0.590247	0.411448	0.106518
	H101	H	0.589135	0.586040	0.878892
	H102	H	0.411770	0.590937	0.106326
	H103	H	0.418997	0.414740	0.880292
	H104	H	0.118991	0.599782	0.389396
	H105	H	0.888586	0.589322	0.584435
	H106	H	0.116014	0.416463	0.588419
	H107	H	0.888355	0.411867	0.403478
	H108	H	0.910792	0.616357	0.079892
	H109	H	0.087726	0.388592	0.080933
	H110	H	0.082128	0.613303	0.901360
	H111	H	0.913166	0.388363	0.900306
	H112	H	0.091062	0.910861	0.609262
	H113	H	0.092874	0.090331	0.377608
	H114	H	0.911189	0.086828	0.605599
	H115	H	0.908385	0.914510	0.377784
	H116	H	0.613888	0.093186	0.905778
	H117	H	0.390519	0.088920	0.078549
	H118	H	0.615866	0.915102	0.084414
	H119	H	0.390617	0.911470	0.906223
	C120	C	0.379113	0.012391	0.613402
	C121	C	0.622379	0.995144	0.613489
	C122	C	0.621960	0.011684	0.372377
	C123	C	0.378287	0.994492	0.370309
	C124	C	0.623442	0.382308	0.000041
	C125	C	0.624160	0.623818	0.981622
	C126	C	0.381665	0.622172	-0.000895
	C127	C	0.380659	0.381141	0.983338
	C128	C	0.010161	0.626844	0.369125
	C129	C	0.992742	0.624137	0.613210
	C130	C	0.009040	0.381136	0.613941
	C131	C	0.993229	0.382468	0.370619
	C132	C	0.878857	0.511898	0.112949
	C133	C	0.121327	0.493808	0.110512
	C134	C	0.124235	0.511346	0.869423
	C135	C	0.880490	0.494610	0.870591
	C136	C	0.122486	0.882502	0.502107
	C137	C	0.122333	0.124384	0.483847
	C138	C	0.879812	0.123750	0.501055
	C139	C	0.879573	0.882082	0.484824
	C140	C	0.510637	0.125793	0.869828
	C141	C	0.494419	0.123119	0.112052
	C142	C	0.511473	0.878820	0.114400
	C143	C	0.494397	0.881400	0.870839
	C144	C	0.379960	0.891081	0.671915
	C145	C	0.623129	0.115429	0.671900
	C146	C	0.621322	0.890555	0.315458
	C147	C	0.379134	0.114866	0.310195
	C148	C	0.682938	0.380178	0.879632
	C149	C	0.683377	0.625207	0.102468
	C150	C	0.322314	0.625720	0.878340
	C151	C	0.318306	0.375240	0.102968
	C152	C	0.890439	0.684503	0.369273
	C153	C	0.111944	0.683472	0.614892
	C154	C	0.891048	0.319937	0.617546
	C155	C	0.111727	0.322031	0.367125
	C156	C	0.890484	0.379225	0.674290
	C157	C	0.112429	0.625180	0.671786
	C158	C	0.890647	0.626969	0.310499
	C159	C	0.112366	0.381897	0.310692
	C160	C	0.380945	0.682752	0.878255
	C161	C	0.624536	0.680827	0.103521
	C162	C	0.624736	0.323462	0.879412
	C163	C	0.378729	0.320221	0.104255
	C164	C	0.681883	0.892144	0.370318
	C165	C	0.684897	0.113278	0.618944
	C166	C	0.320318	0.891860	0.616175
	C167	C	0.319865	0.114559	0.366781
	C168	C	0.876074	0.392736	0.175141
	C169	C	0.123316	0.613953	0.169246
	C170	C	0.125391	0.392114	0.808670
	C171	C	0.881517	0.615580	0.811603
	C172	C	0.181512	0.881515	0.381108
	C173	C	0.183261	0.128005	0.603624
	C174	C	0.817938	0.128932	0.381509
	C175	C	0.819866	0.878829	0.605464
	C176	C	0.392423	0.186957	0.866309
	C177	C	0.613281	0.183180	0.115014
	C178	C	0.393200	0.818212	0.116126
	C179	C	0.614065	0.823605	0.868765
	C180	C	0.392312	0.877271	0.173356
	C181	C	0.613374	0.124355	0.172103
	C182	C	0.391318	0.126884	0.810467
	C183	C	0.613992	0.882942	0.812048
	C184	C	0.876023	0.186114	0.381153
	C185	C	0.124474	0.184386	0.604019
	C186	C	0.122851	0.824879	0.380653
	C187	C	0.878585	0.822250	0.605879
	C188	C	0.186564	0.393582	0.862640
	C189	C	0.183805	0.612065	0.114321
	C190	C	0.818323	0.392547	0.117430
	C191	C	0.821595	0.614397	0.866624
	C192	C	0.403208	0.096155	0.587786
	C193	C	0.597598	0.911692	0.588214
	C194	C	0.597764	0.095328	0.396628
	C195	C	0.402094	0.910845	0.396478
	C196	C	0.599073	0.406635	0.084661
	C197	C	0.599740	0.599748	0.897291
	C198	C	0.406260	0.596087	0.082791
	C199	C	0.406629	0.408258	0.900162
	C200	C	0.093545	0.603118	0.392936
	C201	C	0.909658	0.599783	0.588913
	C202	C	0.091452	0.407015	0.587479
	C203	C	0.910846	0.407355	0.396843
	C204	C	0.904136	0.595092	0.086405
	C205	C	0.095997	0.410551	0.085537
	C206	C	0.099433	0.594318	0.895903
	C207	C	0.904592	0.411223	0.896817
	C208	C	0.098311	0.906222	0.586574
	C209	C	0.096796	0.098757	0.400205
	C210	C	0.906409	0.096627	0.583690
	C211	C	0.903957	0.907570	0.400671
	C212	C	0.593159	0.101139	0.895024
	C213	C	0.411624	0.098325	0.086930
	C214	C	0.594597	0.903534	0.090105
	C215	C	0.411316	0.904998	0.895977
	Zn216	Zn	0.501666	0.003232	0.741318
	Zn217	Zn	0.501933	0.002768	0.242442
	Zn218	Zn	0.751270	0.503118	-0.009272
	Zn219	Zn	0.251983	0.501868	-0.008995
	Zn220	Zn	0.000822	0.754320	0.493519
	Zn221	Zn	0.001361	0.252214	0.492092
	Zn222	Zn	0.001681	0.503592	0.742813
	Zn223	Zn	0.000917	0.503431	0.240712
	Zn224	Zn	0.503430	0.750744	-0.009061
	Zn225	Zn	0.502843	0.253834	-0.007793
	Zn226	Zn	0.750958	0.003269	0.493463
	Zn227	Zn	0.250562	0.003849	0.492902
	N228	N	0.415512	0.967130	0.670804
	N229	N	0.584852	0.040828	0.668611
	N230	N	0.584815	0.965777	0.316643
	N231	N	0.414519	0.038851	0.311963
	N232	N	0.682252	0.415956	0.955812
	N233	N	0.683436	0.590750	0.025593
	N234	N	0.322706	0.588732	0.954459
	N235	N	0.319042	0.412152	0.026619
	N236	N	0.965820	0.684758	0.404821
	N237	N	0.036549	0.682976	0.579212
	N238	N	0.965916	0.321042	0.580948
	N239	N	0.036662	0.322340	0.403581
	N240	N	0.965228	0.416333	0.672437
	N241	N	0.037426	0.588854	0.670771
	N242	N	0.966080	0.591834	0.310321
	N243	N	0.037712	0.418609	0.312686
	N244	N	0.417245	0.680557	0.954293
	N245	N	0.588423	0.680013	0.027410
	N246	N	0.588197	0.325160	0.955386
	N247	N	0.416375	0.323628	0.029000
	N248	N	0.682462	0.968571	0.404933
	N249	N	0.684477	0.037449	0.583441
	N250	N	0.319426	0.968381	0.581021
	N251	N	0.319288	0.038650	0.403361
	N252	N	0.913118	0.467872	0.172403
	N253	N	0.084940	0.539428	0.166993
	N254	N	0.087087	0.466305	0.813085
	N255	N	0.917341	0.539995	0.813831
	N256	N	0.181440	0.916433	0.457802
	N257	N	0.182106	0.091658	0.527643
	N258	N	0.820338	0.090654	0.456956
	N259	N	0.820303	0.915192	0.529091
	N260	N	0.467632	0.186620	0.902194
	N261	N	0.538497	0.182269	0.078176
	N262	N	0.468591	0.818886	0.080557
	N263	N	0.538687	0.822461	0.904437
	N264	N	0.466863	0.914075	0.172573
	N265	N	0.538453	0.087577	0.170267
	N266	N	0.465515	0.089511	0.812348
	N267	N	0.538441	0.918046	0.813135
	N268	N	0.913932	0.183018	0.456299
	N269	N	0.087232	0.182025	0.528478
	N270	N	0.086924	0.825264	0.457025
	N271	N	0.915011	0.824199	0.529838
	N272	N	0.185778	0.468565	0.899982
	N273	N	0.182719	0.536264	0.078644
	N274	N	0.820167	0.467671	0.079288
	N275	N	0.820746	0.538114	0.902373
	O276	O	0.587445	0.478533	0.552534
	H277	H	0.591241	0.477813	0.546046
	H278	H	0.584275	0.481098	0.545258
	O279	O	0.488266	0.305967	0.618959
	H280	H	0.509568	0.311101	0.629195
	H281	H	0.498851	0.298909	0.630377
	O282	O	0.596692	0.469916	0.584052
	H283	H	0.587136	0.469655	0.575931
	H284	H	0.593757	0.450467	0.589255
	O285	O	1.226722	0.782760	0.211228
	H286	H	1.219770	0.790296	0.212724
	H287	H	1.232827	0.790635	0.193449
	O288	O	0.439793	0.659686	0.408383
	H289	H	0.436692	0.657605	0.424918
	H290	H	0.434020	0.655855	0.416614
	O291	O	0.322522	0.582179	0.496604
	H292	H	0.321452	0.557039	0.509768
	H293	H	0.339230	0.574252	0.495227
	O294	O	1.179450	1.186282	1.172013
	H295	H	1.189540	1.196641	1.121359
	H296	H	1.188252	1.143374	1.181781
	O297	O	0.309700	0.676695	0.432011
	H298	H	0.297876	0.674962	0.458073
	H299	H	0.294539	0.672734	0.423253
	O300	O	0.389867	0.663275	0.287264
	H301	H	0.372837	0.675438	0.290253
	H302	H	0.379722	0.657818	0.288359
	O303	O	0.503475	0.648808	0.370164
	H304	H	0.485108	0.665531	0.360223
	H305	H	0.503389	0.641186	0.369979
	O306	O	0.160394	0.015291	0.799108
	H307	H	0.167170	0.031274	0.786993
	H308	H	0.152126	0.008575	0.802637
	O309	O	0.926382	-0.204883	0.037175
	H310	H	0.938590	-0.217102	0.050820
	H311	H	0.936574	-0.210421	0.037599
	O312	O	0.523058	0.356165	0.478646
	H313	H	0.531634	0.346366	0.467064
	H314	H	0.524842	0.355879	0.461406
	O315	O	0.366644	0.451185	0.373918
	H316	H	0.344694	0.444161	0.370724
	H317	H	0.375907	0.438410	0.392553
	O318	O	-0.155769	-0.058627	0.142415
	H319	H	-0.152302	-0.044790	0.151102
	H320	H	-0.157279	-0.065913	0.133509
	O321	O	0.452693	0.370108	0.462672
	H322	H	0.458463	0.364021	0.455248
	H323	H	0.421809	0.373206	0.484672
	O324	O	0.973578	0.100458	0.886705
	H325	H	0.975291	0.103905	0.898956
	H326	H	0.970397	0.075290	0.871922
	O327	O	0.291144	0.319982	0.493438
	H328	H	0.271683	0.293895	0.506720
	H329	H	0.292483	0.331631	0.520207
	O330	O	0.206475	0.881390	1.013457
	H331	H	0.195346	0.865622	1.005356
	H332	H	0.211064	0.906556	1.004072
	O333	O	0.065574	0.897355	0.160209
	H334	H	0.062069	0.887958	0.162391
	H335	H	0.081566	0.903319	0.165670
	O336	O	0.835061	1.143340	-0.132469
	H337	H	0.839398	1.127154	-0.119757
	H338	H	0.827329	1.138915	-0.111501
	O339	O	-0.020765	1.218293	0.779568
	H340	H	-0.059529	1.206299	0.785237
	H341	H	-0.037883	1.246168	0.752400
	O342	O	0.652390	0.402617	0.597326
	H343	H	0.663710	0.397176	0.590248
	H344	H	0.649040	0.403939	0.587786
	O345	O	0.025361	0.218788	0.975962
	H346	H	0.017588	0.209990	0.957844
	H347	H	0.015743	0.207748	0.970821
	O348	O	0.602963	0.321749	0.313323
	H349	H	0.569510	0.312581	0.317908
	H350	H	0.595474	0.356457	0.303204
	O351	O	1.019308	0.912402	-0.018799
	H352	H	1.022001	0.919454	-0.016285
	H353	H	1.012793	0.915901	-0.017865
	O354	O	1.038903	0.857057	0.818706
	H355	H	1.056466	0.847659	0.837128
	H356	H	1.045655	0.883907	0.812636
	O357	O	0.213268	0.204966	0.002313
	H358	H	0.182310	0.217221	-0.017755
	H359	H	0.235289	0.240058	0.003734
	O360	O	-0.049955	0.055370	1.094381
	H361	H	-0.040583	0.052942	1.095413
	H362	H	-0.035534	0.066074	1.103939
	O363	O	0.843816	0.095075	0.023441
	H364	H	0.850153	0.085880	0.048990
	H365	H	0.849769	0.104063	0.038091
	O366	O	-0.119451	-0.163526	1.094619
	H367	H	-0.126577	-0.158348	1.099875
	H368	H	-0.129611	-0.181027	1.094561
	O369	O	1.025045	0.221147	1.205354
	H370	H	1.068079	0.208437	1.191558
	H371	H	1.028020	0.254866	1.238295
	O372	O	0.681939	0.746624	0.297789
	H373	H	0.675592	0.764808	0.286865
	H374	H	0.662690	0.748178	0.307643
	O375	O	-0.401645	-0.420076	1.616106
	H376	H	-0.394342	-0.417741	1.618939
	H377	H	-0.394399	-0.429818	1.598352
	O378	O	0.657652	0.615998	0.633177
	H379	H	0.673633	0.613415	0.633182
	H380	H	0.676060	0.598631	0.627275
	O381	O	-0.063347	1.036890	-0.079492
	H382	H	-0.090101	1.040108	-0.070881
	H383	H	-0.060189	1.048251	-0.085529
	O384	O	0.314228	0.328205	0.674460
	H385	H	0.303219	0.349049	0.675409
	H386	H	0.359173	0.317606	0.686268
	O387	O	0.590790	0.449986	0.405771
	H388	H	0.601917	0.448095	0.406118
	H389	H	0.590621	0.462551	0.405342
	O390	O	1.198953	0.850771	-0.189020
	H391	H	1.198293	0.868539	-0.195443
	H392	H	1.194138	0.855177	-0.198484
	O393	O	1.120944	-0.144158	1.020834
	H394	H	1.127976	-0.159214	1.020266
	H395	H	1.111739	-0.150679	0.996080
	O396	O	0.484110	0.645616	0.535854
	H397	H	0.488466	0.644308	0.544567
	H398	H	0.479529	0.636915	0.526121
	O399	O	0.625097	0.601338	0.510651
	H400	H	0.628623	0.601414	0.512550
	H401	H	0.616297	0.606715	0.504359
	O402	O	0.953220	0.950919	0.016918
	H403	H	0.970178	0.969732	0.016221
	H404	H	0.960117	0.939655	0.018039
	O405	O	0.614815	0.700132	0.649273
	H406	H	0.624315	0.676147	0.656031
	H407	H	0.625126	0.723060	0.660745
	O408	O	0.566421	0.499515	0.287786
	H409	H	0.572443	0.494959	0.276420
	H410	H	0.550595	0.518061	0.298953
	O411	O	1.198183	1.097797	0.913964
	H412	H	1.182669	1.096945	0.898044
	H413	H	1.196248	1.124842	0.925848
	O414	O	-0.042625	0.047494	1.128570
	H415	H	-0.060781	0.047233	1.139870
	H416	H	-0.024444	0.059494	1.149741
	O417	O	-0.104888	1.067281	1.030068
	H418	H	-0.105204	1.068229	1.035184
	H419	H	-0.100656	1.066472	1.028367
	O420	O	-0.088763	0.922227	0.905925
	H421	H	-0.075304	0.929301	0.894220
	H422	H	-0.092255	0.920052	0.906351
	O423	O	-0.065047	0.906957	-0.072546
	H424	H	-0.068421	0.908807	-0.060946
	H425	H	-0.063798	0.909193	-0.056811
	O426	O	0.401019	0.478075	0.302607
	H427	H	0.403628	0.496904	0.309484
	H428	H	0.393813	0.493363	0.297542
	O429	O	0.478821	0.606779	0.657000
	H430	H	0.505114	0.605545	0.647223
	H431	H	0.490328	0.628471	0.647984
	O432	O	0.390620	0.515233	0.642178
	H433	H	0.399475	0.518273	0.639307
	H434	H	0.385981	0.527864	0.652388
	O435	O	0.172038	0.013322	0.202359
	H436	H	0.192595	0.010523	0.227068
	H437	H	0.169872	-0.015356	0.186277
	O438	O	-0.164207	0.902198	0.876419
	H439	H	-0.171773	0.883751	0.891467
	H440	H	-0.160041	0.891289	0.883837
	O441	O	0.691541	0.317758	0.402900
	H442	H	0.693110	0.319956	0.377233
	H443	H	0.676879	0.310794	0.390540
