data_Molecule from HDF5

_cell_length_a		16.303060
_cell_length_b		16.167323
_cell_length_c		16.286744
_cell_angle_alpha	89.531995
_cell_angle_beta	90.028411
_cell_angle_gamma	90.022309
_symmetry_space_group_name_H-M	'P 1'
_symmetry_Int_Tables_number		1

loop_
	_symmetry_equiv_pos_as_xyz
	x,y,z

loop_
	_atom_site_label
	_atom_site_type_symbol
	_atom_site_fract_x
	_atom_site_fract_y
	_atom_site_fract_z
	H0	H	0.387614	0.834072	0.722651
	H1	H	0.590492	0.160681	0.718589
	H2	H	0.588483	0.833449	0.290000
	H3	H	0.388461	0.161139	0.287608
	H4	H	0.708212	0.399523	0.841871
	H5	H	0.708361	0.598911	0.167052
	H6	H	0.273361	0.602385	0.841552
	H7	H	0.274632	0.396913	0.167383
	H8	H	0.825662	0.711859	0.406398
	H9	H	0.152230	0.712052	0.604117
	H10	H	0.826002	0.282246	0.605083
	H11	H	0.151993	0.282418	0.406505
	H12	H	0.828934	0.394095	0.724508
	H13	H	0.152404	0.598316	0.721244
	H14	H	0.828153	0.601552	0.285860
	H15	H	0.151850	0.397149	0.290248
	H16	H	0.393190	0.714258	0.840500
	H17	H	0.589459	0.712311	0.167720
	H18	H	0.590408	0.284886	0.840873
	H19	H	0.391894	0.281591	0.167228
	H20	H	0.702270	0.832461	0.406361
	H21	H	0.704123	0.160362	0.602941
	H22	H	0.273804	0.832960	0.606284
	H23	H	0.271878	0.160939	0.401384
	H24	H	0.891759	0.334307	0.221397
	H25	H	0.091808	0.661858	0.219386
	H26	H	0.090151	0.333258	0.793158
	H27	H	0.889535	0.661227	0.786568
	H28	H	0.205610	0.896000	0.342956
	H29	H	0.207909	0.098770	0.667002
	H30	H	0.771577	0.099209	0.341799
	H31	H	0.771228	0.894787	0.667775
	H32	H	0.328642	0.216452	0.902806
	H33	H	0.653842	0.211989	0.102961
	H34	H	0.327593	0.781498	0.103553
	H35	H	0.653159	0.786056	0.905779
	H36	H	0.327346	0.895277	0.220095
	H37	H	0.651952	0.098536	0.221330
	H38	H	0.327041	0.100889	0.787965
	H39	H	0.651026	0.897864	0.788525
	H40	H	0.888647	0.215231	0.342007
	H41	H	0.086549	0.209059	0.669772
	H42	H	0.085910	0.784840	0.341920
	H43	H	0.889561	0.781007	0.669159
	H44	H	0.208020	0.335026	0.904369
	H45	H	0.206161	0.662743	0.102593
	H46	H	0.775132	0.334416	0.107482
	H47	H	0.776072	0.662665	0.902761
	H48	H	0.393477	0.116065	0.596668
	H49	H	0.574439	0.883032	0.594055
	H50	H	0.570221	0.112769	0.405656
	H51	H	0.392588	0.880319	0.414955
	H52	H	0.591660	0.407324	0.122658
	H53	H	0.588332	0.589528	0.887784
	H54	H	0.408375	0.583696	0.115325
	H55	H	0.389082	0.411858	0.886633
	H56	H	0.110024	0.590757	0.397493
	H57	H	0.874148	0.594933	0.589738
	H58	H	0.105175	0.406145	0.597133
	H59	H	0.871965	0.396701	0.419112
	H60	H	0.107684	0.403533	0.604842
	H61	H	0.877993	0.577422	0.594134
	H62	H	0.106710	0.603761	0.421600
	H63	H	0.877818	0.416767	0.418075
	H64	H	0.398478	0.600539	0.123410
	H65	H	0.580494	0.592310	0.888933
	H66	H	0.577515	0.411885	0.117063
	H67	H	0.405210	0.415841	0.892349
	H68	H	0.580377	0.110604	0.423559
	H69	H	0.585562	0.878901	0.594765
	H70	H	0.400943	0.113431	0.597913
	H71	H	0.396884	0.878204	0.407537
	H72	H	0.906055	0.613217	0.094270
	H73	H	0.093538	0.377938	0.098358
	H74	H	0.082476	0.612216	0.922506
	H75	H	0.897394	0.382136	0.919721
	H76	H	0.087574	0.901468	0.624542
	H77	H	0.075044	0.086796	0.392398
	H78	H	0.902083	0.098295	0.622187
	H79	H	0.896823	0.902787	0.388661
	H80	H	0.607508	0.101039	0.916932
	H81	H	0.373140	0.082364	0.104673
	H82	H	0.604197	0.905701	0.089658
	H83	H	0.371808	0.905836	0.908673
	H84	H	0.605577	0.913189	0.103352
	H85	H	0.371217	0.100585	0.097365
	H86	H	0.601509	0.080624	0.915311
	H87	H	0.372654	0.902856	0.915717
	H88	H	0.882472	0.088764	0.624846
	H89	H	0.079239	0.094569	0.388128
	H90	H	0.081302	0.911125	0.619880
	H91	H	0.890469	0.904059	0.387401
	H92	H	0.090370	0.618584	0.907434
	H93	H	0.079150	0.379945	0.107490
	H94	H	0.894673	0.614719	0.090491
	H95	H	0.897303	0.380527	0.912386
	H96	H	0.397590	0.112580	0.589769
	H97	H	0.579133	0.877761	0.604489
	H98	H	0.590083	0.118458	0.406986
	H99	H	0.400965	0.882270	0.415510
	H100	H	0.580459	0.397193	0.121720
	H101	H	0.586286	0.597324	0.885708
	H102	H	0.388118	0.582240	0.121213
	H103	H	0.401647	0.399217	0.885990
	H104	H	0.099403	0.576704	0.418494
	H105	H	0.870932	0.588522	0.606550
	H106	H	0.106351	0.398463	0.597737
	H107	H	0.869963	0.407173	0.400352
	H108	H	0.898172	0.617023	0.100938
	H109	H	0.078728	0.384647	0.091281
	H110	H	0.073086	0.613557	0.906704
	H111	H	0.903942	0.382392	0.915793
	H112	H	0.076233	0.900587	0.621023
	H113	H	0.084046	0.087214	0.389265
	H114	H	0.898709	0.077710	0.616068
	H115	H	0.894647	0.909298	0.389364
	H116	H	0.610063	0.090912	0.898555
	H117	H	0.377924	0.085864	0.085633
	H118	H	0.610242	0.898485	0.103241
	H119	H	0.374680	0.911142	0.913872
	C120	C	0.367821	0.005800	0.625636
	C121	C	0.609588	0.988260	0.626013
	C122	C	0.609627	0.005740	0.383076
	C123	C	0.366701	0.988611	0.382156
	C124	C	0.612900	0.377029	0.012996
	C125	C	0.613692	0.621316	0.995568
	C126	C	0.368922	0.620153	0.012549
	C127	C	0.369228	0.377803	0.995876
	C128	C	-0.002024	0.620189	0.382457
	C129	C	0.981387	0.617388	0.626014
	C130	C	-0.001294	0.374058	0.628581
	C131	C	0.980860	0.376808	0.383689
	C132	C	0.869574	0.506925	0.126220
	C133	C	0.112548	0.489455	0.126825
	C134	C	0.111703	0.506626	0.883454
	C135	C	0.869482	0.489559	0.884055
	C136	C	0.110364	0.875448	0.514089
	C137	C	0.109719	0.118582	0.497270
	C138	C	0.865264	0.119181	0.513352
	C139	C	0.865715	0.875093	0.496641
	C140	C	0.499153	0.121070	0.881223
	C141	C	0.481663	0.119009	0.125610
	C142	C	0.498914	0.875695	0.127122
	C143	C	0.480607	0.877748	0.883338
	C144	C	0.368371	0.883011	0.683643
	C145	C	0.609295	0.111717	0.680622
	C146	C	0.608197	0.882144	0.327999
	C147	C	0.368092	0.111963	0.325446
	C148	C	0.669792	0.379008	0.890743
	C149	C	0.669474	0.618903	0.118300
	C150	C	0.311736	0.621340	0.890360
	C151	C	0.313000	0.377370	0.118405
	C152	C	0.874977	0.675123	0.385007
	C153	C	0.103621	0.674121	0.624076
	C154	C	0.875354	0.319394	0.625872
	C155	C	0.103207	0.320461	0.386209
	C156	C	0.876727	0.374801	0.685484
	C157	C	0.103826	0.617218	0.682277
	C158	C	0.876115	0.620150	0.325260
	C159	C	0.103312	0.377549	0.328192
	C160	C	0.371727	0.676783	0.889669
	C161	C	0.610609	0.675548	0.118646
	C162	C	0.611009	0.322161	0.889972
	C163	C	0.371431	0.319953	0.118431
	C164	C	0.664794	0.881766	0.385360
	C165	C	0.666021	0.111326	0.623390
	C166	C	0.311710	0.882287	0.625453
	C167	C	0.310351	0.111831	0.382405
	C168	C	0.870899	0.383476	0.183122
	C169	C	0.111281	0.613133	0.181538
	C170	C	0.110237	0.382731	0.829463
	C171	C	0.870134	0.612385	0.825465
	C172	C	0.166568	0.876721	0.391340
	C173	C	0.167835	0.117487	0.618974
	C174	C	0.809616	0.118879	0.390731
	C175	C	0.809812	0.875449	0.619352
	C176	C	0.377090	0.178209	0.882684
	C177	C	0.604717	0.174371	0.123589
	C178	C	0.376363	0.819264	0.124344
	C179	C	0.603908	0.823109	0.885219
	C180	C	0.376047	0.875911	0.182189
	C181	C	0.603761	0.117860	0.182447
	C182	C	0.376243	0.120735	0.825421
	C183	C	0.602817	0.878584	0.826901
	C184	C	0.868157	0.176401	0.390859
	C185	C	0.107750	0.172667	0.620395
	C186	C	0.107185	0.821195	0.390963
	C187	C	0.868266	0.818518	0.619687
	C188	C	0.168831	0.383476	0.885295
	C189	C	0.168018	0.613444	0.123431
	C190	C	0.812951	0.383735	0.126570
	C191	C	0.813864	0.613214	0.883677
	C192	C	0.390534	0.091980	0.601763
	C193	C	0.586427	0.902071	0.604226
	C194	C	0.586984	0.091408	0.405437
	C195	C	0.389995	0.902612	0.405717
	C196	C	0.589976	0.399156	0.098470
	C197	C	0.591565	0.599541	0.909616
	C198	C	0.391545	0.595787	0.097933
	C199	C	0.392032	0.402088	0.910460
	C200	C	0.083273	0.597196	0.405686
	C201	C	0.896246	0.593741	0.603452
	C202	C	0.084238	0.396321	0.606382
	C203	C	0.895350	0.400216	0.405990
	C204	C	0.892828	0.592747	0.102304
	C205	C	0.090344	0.403195	0.105461
	C206	C	0.088750	0.592583	0.905579
	C207	C	0.892744	0.403991	0.908745
	C208	C	0.088366	0.897739	0.599692
	C209	C	0.086387	0.096005	0.411999
	C210	C	0.887601	0.095192	0.599034
	C211	C	0.887571	0.898528	0.410764
	C212	C	0.584228	0.097836	0.903814
	C213	C	0.396289	0.096290	0.102725
	C214	C	0.584343	0.899100	0.105161
	C215	C	0.395257	0.899979	0.906149
	Zn216	Zn	0.489049	-0.001658	0.754266
	Zn217	Zn	0.489117	-0.002835	0.254912
	Zn218	Zn	0.741831	0.498786	0.005052
	Zn219	Zn	0.239806	0.498808	0.004645
	Zn220	Zn	-0.011456	0.747496	0.505364
	Zn221	Zn	-0.011294	0.247481	0.505443
	Zn222	Zn	-0.009285	0.497045	0.755957
	Zn223	Zn	-0.009503	0.498442	0.254631
	Zn224	Zn	0.490858	0.749383	0.004063
	Zn225	Zn	0.491003	0.248198	0.003798
	Zn226	Zn	0.736931	-0.003802	0.504542
	Zn227	Zn	0.239263	-0.002828	0.504385
	N228	N	0.402824	0.960810	0.683737
	N229	N	0.574784	0.034137	0.682522
	N230	N	0.574287	0.960218	0.326483
	N231	N	0.402307	0.034249	0.325067
	N232	N	0.670959	0.412310	0.968184
	N233	N	0.671681	0.586116	0.040683
	N234	N	0.310060	0.586618	0.967838
	N235	N	0.311465	0.412414	0.041164
	N236	N	0.951665	0.675316	0.419796
	N237	N	0.026553	0.674235	0.589803
	N238	N	0.952210	0.318587	0.591477
	N239	N	0.025877	0.319682	0.419852
	N240	N	0.954427	0.407994	0.687541
	N241	N	0.026818	0.582553	0.683644
	N242	N	0.953873	0.586704	0.323372
	N243	N	0.026212	0.411841	0.326649
	N244	N	0.406459	0.676341	0.966646
	N245	N	0.576755	0.677131	0.041246
	N246	N	0.576466	0.320482	0.967016
	N247	N	0.405771	0.320195	0.041154
	N248	N	0.665931	0.959411	0.418966
	N249	N	0.666541	0.033385	0.590337
	N250	N	0.311077	0.959839	0.590250
	N251	N	0.309191	0.033854	0.416876
	N252	N	0.905408	0.461105	0.183071
	N253	N	0.077591	0.534934	0.183993
	N254	N	0.075419	0.460073	0.828415
	N255	N	0.904122	0.534455	0.825637
	N256	N	0.168873	0.909772	0.468941
	N257	N	0.169207	0.084659	0.541343
	N258	N	0.807729	0.084072	0.468045
	N259	N	0.807775	0.909640	0.541625
	N260	N	0.454386	0.178695	0.916479
	N261	N	0.527848	0.175016	0.088816
	N262	N	0.453728	0.819019	0.090680
	N263	N	0.526969	0.822160	0.919439
	N264	N	0.453262	0.910288	0.184053
	N265	N	0.526222	0.083996	0.183782
	N266	N	0.453077	0.085685	0.824305
	N267	N	0.525212	0.911980	0.825695
	N268	N	0.901954	0.176720	0.468283
	N269	N	0.072487	0.173701	0.543552
	N270	N	0.072766	0.820587	0.468114
	N271	N	0.902339	0.818273	0.542421
	N272	N	0.170034	0.461668	0.917851
	N273	N	0.168965	0.535592	0.090261
	N274	N	0.812170	0.461621	0.091890
	N275	N	0.813266	0.535860	0.919462
	O276	O	0.499206	-0.567108	1.585307
	H277	H	0.497918	-0.550855	1.587603
	H278	H	0.498198	-0.558001	1.575343
	O279	O	0.474049	0.610903	0.438507
	H280	H	0.482609	0.611645	0.436286
	H281	H	0.486878	0.612575	0.457266
	O282	O	0.530824	0.548635	0.616920
	H283	H	0.537487	0.554260	0.626248
	H284	H	0.530264	0.554476	0.614171
	O285	O	0.431306	0.534428	0.546769
	H286	H	0.437470	0.539685	0.539655
	H287	H	0.414606	0.530422	0.546772
	O288	O	0.536743	0.542545	0.407041
	H289	H	0.528994	0.552432	0.405880
	H290	H	0.535360	0.529039	0.409147
	O291	O	0.450818	-0.466319	1.407690
	H292	H	0.447415	-0.461513	1.406741
	H293	H	0.445825	-0.476757	1.403924
	O294	O	0.975401	0.915901	0.150048
	H295	H	1.005428	0.919626	0.155115
	H296	H	0.972101	0.926490	0.163630
	O297	O	0.979522	0.965236	-0.075489
	H298	H	0.965875	0.972130	-0.075145
	H299	H	0.975970	0.960207	-0.055953
	O300	O	0.430748	0.526910	0.441494
	H301	H	0.430469	0.525625	0.435682
	H302	H	0.429007	0.518819	0.439891
	O303	O	0.464171	0.452673	0.522434
	H304	H	0.470852	0.452256	0.526773
	H305	H	0.464266	0.451623	0.523687
	O306	O	0.557438	0.483783	0.527000
	H307	H	0.556088	0.490040	0.508590
	H308	H	0.556703	0.472227	0.521084
	O309	O	0.442799	0.461528	0.513602
	H310	H	0.454460	0.460002	0.504336
	H311	H	0.434106	0.460101	0.512115
	O312	O	0.970730	0.966895	1.044520
	H313	H	0.965281	0.976719	1.052941
	H314	H	0.968051	0.973040	1.048279
	O315	O	0.853351	0.978491	0.033799
	H316	H	0.863168	0.973478	0.048072
	H317	H	0.834522	0.973900	0.021363
	O318	O	1.036936	0.051237	0.006158
	H319	H	1.041466	0.055243	-0.012504
	H320	H	1.039106	0.042336	0.010185
	O321	O	0.508602	0.394975	0.425048
	H322	H	0.522585	0.393428	0.428743
	H323	H	0.498123	0.389424	0.436522
	O324	O	-0.077157	1.014168	0.892813
	H325	H	-0.088493	1.015420	0.888548
	H326	H	-0.076208	1.020225	0.895023
	O327	O	0.117314	1.131654	1.156284
	H328	H	0.115198	1.133901	1.124593
	H329	H	0.115663	1.140540	1.154519
	O330	O	-0.440547	0.443566	0.576570
	H331	H	-0.442504	0.434664	0.586647
	H332	H	-0.449056	0.461810	0.570231
	O333	O	0.407628	0.551660	0.552874
	H334	H	0.412946	0.557141	0.561656
	H335	H	0.397105	0.551359	0.552864
	O336	O	0.011486	0.065078	0.123768
	H337	H	0.018623	0.070339	0.134452
	H338	H	0.010660	0.068666	0.113156
	O339	O	0.083719	0.047870	-0.074648
	H340	H	0.076314	0.043990	-0.064525
	H341	H	0.087620	0.036942	-0.079758
	O342	O	0.620864	0.513450	0.539931
	H343	H	0.617135	0.515043	0.550522
	H344	H	0.619432	0.515576	0.521052
	O345	O	-0.057841	0.938907	0.986887
	H346	H	-0.066982	0.931916	0.981771
	H347	H	-0.070166	0.931885	0.988528
	O348	O	0.484191	0.391990	0.488937
	H349	H	0.479836	0.382494	0.497164
	H350	H	0.477029	0.396139	0.489959
	O351	O	0.328424	0.463568	0.525634
	H352	H	0.334335	0.467076	0.522698
	H353	H	0.322198	0.451692	0.532164
	O354	O	0.872923	0.955146	-1.013111
	H355	H	0.854393	0.967583	-1.012861
	H356	H	0.872461	0.941368	-1.003098
	O357	O	0.959408	1.120121	1.079033
	H358	H	0.968812	1.129288	1.091979
	H359	H	0.967224	1.109819	1.084110
	O360	O	1.003491	-0.021285	1.075820
	H361	H	1.000135	-0.017112	1.075590
	H362	H	1.017981	-0.013497	1.090694
	O363	O	0.177553	0.838242	0.061778
	H364	H	0.187646	0.844981	0.049560
	H365	H	0.182362	0.846096	0.060965
	O366	O	0.478992	0.620168	0.586298
	H367	H	0.478993	0.627733	0.573648
	H368	H	0.467486	0.620843	0.593272
	O369	O	0.912844	0.110831	-0.065852
	H370	H	0.921721	0.119942	-0.064472
	H371	H	0.915791	0.121549	-0.073365
	O372	O	0.423607	0.501710	0.393278
	H373	H	0.428995	0.490950	0.395616
	H374	H	0.418954	0.509582	0.391890
	O375	O	1.129558	-0.048047	0.933574
	H376	H	1.135092	-0.063661	0.919311
	H377	H	1.127818	-0.058046	0.913274
	O378	O	-0.514395	1.406030	-0.562916
	H379	H	-0.523348	1.405784	-0.564369
	H380	H	-0.506618	1.401252	-0.555427
	O381	O	0.630322	0.407580	0.456387
	H382	H	0.638205	0.403876	0.446684
	H383	H	0.620135	0.407743	0.467433
	O384	O	1.122604	1.049544	-0.032499
	H385	H	1.103942	1.043023	-0.043106
	H386	H	1.133324	1.045202	-0.033013
	O387	O	1.043502	-0.013629	0.960943
	H388	H	1.034496	-0.021218	0.955205
	H389	H	1.043208	-0.014259	0.960816
	O390	O	0.917134	0.927043	0.018073
	H391	H	0.907200	0.927309	0.026558
	H392	H	0.906133	0.925531	0.018555
	O393	O	0.949796	0.907184	0.074366
	H394	H	0.953707	0.910474	0.094505
	H395	H	0.959469	0.894618	0.079451
