data_Molecule from HDF5

_cell_length_a		16.151630
_cell_length_b		16.237672
_cell_length_c		16.312413
_cell_angle_alpha	89.841153
_cell_angle_beta	89.938449
_cell_angle_gamma	89.925283
_symmetry_space_group_name_H-M	'P 1'
_symmetry_Int_Tables_number		1

loop_
	_symmetry_equiv_pos_as_xyz
	x,y,z

loop_
	_atom_site_label
	_atom_site_type_symbol
	_atom_site_fract_x
	_atom_site_fract_y
	_atom_site_fract_z
	H0	H	0.386397	0.841505	0.711548
	H1	H	0.591185	0.166621	0.709450
	H2	H	0.589308	0.840253	0.277773
	H3	H	0.388179	0.166885	0.276072
	H4	H	0.706048	0.404783	0.830894
	H5	H	0.701862	0.600823	0.159093
	H6	H	0.272852	0.603904	0.831095
	H7	H	0.275501	0.405122	0.158198
	H8	H	0.824165	0.717946	0.395561
	H9	H	0.153228	0.717941	0.593026
	H10	H	0.823954	0.290058	0.594232
	H11	H	0.152420	0.288875	0.393645
	H12	H	0.824395	0.403263	0.710855
	H13	H	0.152310	0.605178	0.709408
	H14	H	0.825739	0.606668	0.277574
	H15	H	0.152791	0.403185	0.278760
	H16	H	0.387528	0.720714	0.831336
	H17	H	0.589358	0.720965	0.156684
	H18	H	0.590905	0.287599	0.830233
	H19	H	0.388205	0.285797	0.155858
	H20	H	0.704502	0.840664	0.393722
	H21	H	0.703676	0.168384	0.590365
	H22	H	0.274649	0.839323	0.591307
	H23	H	0.273556	0.167659	0.392631
	H24	H	0.888330	0.341569	0.212408
	H25	H	0.089323	0.668525	0.209338
	H26	H	0.091134	0.341622	0.777323
	H27	H	0.888106	0.668384	0.779428
	H28	H	0.201907	0.905579	0.329296
	H29	H	0.204611	0.103628	0.655418
	H30	H	0.774334	0.104284	0.329005
	H31	H	0.772853	0.905431	0.655911
	H32	H	0.324939	0.219736	0.892584
	H33	H	0.654180	0.215928	0.091458
	H34	H	0.323963	0.789890	0.092655
	H35	H	0.653081	0.788926	0.893482
	H36	H	0.324989	0.902523	0.208787
	H37	H	0.652815	0.103715	0.208848
	H38	H	0.324561	0.105541	0.776579
	H39	H	0.652964	0.902662	0.776801
	H40	H	0.886215	0.223122	0.331870
	H41	H	0.089247	0.220273	0.656081
	H42	H	0.088712	0.788103	0.330374
	H43	H	0.887264	0.787670	0.656089
	H44	H	0.202702	0.339654	0.897841
	H45	H	0.203424	0.668897	0.092259
	H46	H	0.775020	0.339890	0.094581
	H47	H	0.775420	0.669165	0.897891
	H48	H	0.392707	0.121454	0.585260
	H49	H	0.583294	0.888434	0.580617
	H50	H	0.582354	0.122418	0.397196
	H51	H	0.393189	0.886165	0.398442
	H52	H	0.578430	0.402080	0.110302
	H53	H	0.579264	0.598288	0.879026
	H54	H	0.399140	0.602019	0.110982
	H55	H	0.399340	0.410606	0.878444
	H56	H	0.109035	0.607855	0.404292
	H57	H	0.869491	0.599588	0.589425
	H58	H	0.105182	0.410630	0.584634
	H59	H	0.870918	0.413443	0.403001
	H60	H	0.104042	0.415348	0.583941
	H61	H	0.871849	0.596749	0.583060
	H62	H	0.102200	0.589342	0.407633
	H63	H	0.872507	0.415422	0.404516
	H64	H	0.391485	0.596278	0.111477
	H65	H	0.584550	0.595233	0.878003
	H66	H	0.588287	0.410415	0.111992
	H67	H	0.394751	0.411480	0.877260
	H68	H	0.578312	0.120167	0.397095
	H69	H	0.581164	0.885911	0.589193
	H70	H	0.401567	0.119390	0.587923
	H71	H	0.395712	0.885859	0.397052
	H72	H	0.893903	0.619404	0.079020
	H73	H	0.073107	0.391520	0.086072
	H74	H	0.087488	0.623784	0.899176
	H75	H	0.910206	0.390789	0.898125
	H76	H	0.073600	0.905135	0.608976
	H77	H	0.072289	0.098629	0.379393
	H78	H	0.887066	0.091535	0.610299
	H79	H	0.894302	0.917323	0.378000
	H80	H	0.607414	0.103982	0.903542
	H81	H	0.372251	0.097527	0.081362
	H82	H	0.603146	0.909224	0.072369
	H83	H	0.370786	0.906051	0.902675
	H84	H	0.603987	0.923737	0.091055
	H85	H	0.373046	0.091448	0.084605
	H86	H	0.602694	0.087866	0.904933
	H87	H	0.373781	0.917781	0.904837
	H88	H	0.903315	0.090979	0.604803
	H89	H	0.083652	0.103727	0.373636
	H90	H	0.088479	0.906778	0.613405
	H91	H	0.904134	0.908597	0.377947
	H92	H	0.075065	0.621338	0.896507
	H93	H	0.089276	0.387567	0.082234
	H94	H	0.889724	0.625013	0.092937
	H95	H	0.894715	0.390824	0.914186
	H96	H	0.398790	0.117361	0.579110
	H97	H	0.574737	0.890699	0.584396
	H98	H	0.580477	0.119883	0.401015
	H99	H	0.396234	0.886865	0.400267
	H100	H	0.576603	0.414546	0.107165
	H101	H	0.579774	0.593008	0.880279
	H102	H	0.399608	0.593181	0.107839
	H103	H	0.397790	0.415167	0.879069
	H104	H	0.109862	0.594588	0.391403
	H105	H	0.871740	0.593091	0.588210
	H106	H	0.105641	0.414165	0.588070
	H107	H	0.871978	0.415357	0.401825
	H108	H	0.904186	0.619169	0.090517
	H109	H	0.084110	0.384561	0.098161
	H110	H	0.080399	0.618295	0.908682
	H111	H	0.889479	0.382951	0.893867
	H112	H	0.080984	0.918428	0.607115
	H113	H	0.083558	0.090778	0.378281
	H114	H	0.897166	0.105539	0.611807
	H115	H	0.891658	0.904988	0.373840
	H116	H	0.608049	0.094059	0.890739
	H117	H	0.370162	0.097089	0.088023
	H118	H	0.611913	0.901664	0.093043
	H119	H	0.370203	0.914416	0.893807
	C120	C	0.367358	0.012044	0.613873
	C121	C	0.610100	0.995815	0.613733
	C122	C	0.609881	0.012571	0.370410
	C123	C	0.366428	0.994913	0.369975
	C124	C	0.611634	0.380472	0.002275
	C125	C	0.610333	0.624995	0.986530
	C126	C	0.367121	0.626200	0.002489
	C127	C	0.368027	0.382593	0.985815
	C128	C	-0.002105	0.625920	0.372562
	C129	C	0.979599	0.625778	0.615686
	C130	C	-0.003320	0.383442	0.615642
	C131	C	0.980075	0.384338	0.373582
	C132	C	0.867602	0.512704	0.116569
	C133	C	0.110896	0.496123	0.116824
	C134	C	0.110679	0.512857	0.872563
	C135	C	0.867813	0.496495	0.873203
	C136	C	0.110014	0.881779	0.501765
	C137	C	0.109919	0.126492	0.484524
	C138	C	0.866419	0.126244	0.501488
	C139	C	0.866821	0.881873	0.484335
	C140	C	0.497523	0.125420	0.870493
	C141	C	0.480579	0.124317	0.114274
	C142	C	0.497477	0.882444	0.114777
	C143	C	0.480145	0.882720	0.871122
	C144	C	0.367357	0.889795	0.671623
	C145	C	0.610070	0.118422	0.670391
	C146	C	0.608676	0.889131	0.315889
	C147	C	0.368217	0.118067	0.314206
	C148	C	0.668101	0.383614	0.879621
	C149	C	0.664861	0.622154	0.109703
	C150	C	0.311296	0.624166	0.879731
	C151	C	0.312671	0.384347	0.109001
	C152	C	0.873580	0.680708	0.375166
	C153	C	0.103911	0.680744	0.613266
	C154	C	0.873326	0.327301	0.614710
	C155	C	0.103398	0.327071	0.374253
	C156	C	0.873346	0.384313	0.672200
	C157	C	0.103360	0.624486	0.671113
	C158	C	0.874595	0.625523	0.316345
	C159	C	0.103799	0.384267	0.317203
	C160	C	0.368061	0.682347	0.880032
	C161	C	0.608737	0.681869	0.108631
	C162	C	0.610547	0.325574	0.879250
	C163	C	0.368900	0.325076	0.107811
	C164	C	0.666207	0.889411	0.373364
	C165	C	0.665809	0.119328	0.611008
	C166	C	0.311512	0.888900	0.612367
	C167	C	0.311385	0.118522	0.372414
	C168	C	0.868868	0.389990	0.173418
	C169	C	0.109247	0.619605	0.171547
	C170	C	0.110252	0.390176	0.816260
	C171	C	0.868432	0.619527	0.817657
	C172	C	0.164850	0.884784	0.378591
	C173	C	0.166236	0.123804	0.607017
	C174	C	0.811733	0.124404	0.378325
	C175	C	0.811044	0.885030	0.607231
	C176	C	0.373862	0.181688	0.872452
	C177	C	0.604592	0.178911	0.111884
	C178	C	0.373333	0.827308	0.112724
	C179	C	0.603972	0.826694	0.873140
	C180	C	0.373908	0.883340	0.170610
	C181	C	0.604031	0.122736	0.170102
	C182	C	0.373815	0.125213	0.814406
	C183	C	0.603824	0.883572	0.815213
	C184	C	0.867281	0.183593	0.379559
	C185	C	0.108785	0.181980	0.607342
	C186	C	0.108478	0.826268	0.379113
	C187	C	0.868002	0.826338	0.607253
	C188	C	0.165663	0.389125	0.876154
	C189	C	0.165802	0.619928	0.113156
	C190	C	0.812619	0.389018	0.114544
	C191	C	0.812231	0.619810	0.876363
	C192	C	0.390814	0.097379	0.590838
	C193	C	0.586665	0.910385	0.591296
	C194	C	0.587031	0.098563	0.392050
	C195	C	0.388690	0.908565	0.391966
	C196	C	0.588128	0.402643	0.087672
	C197	C	0.587892	0.602229	0.901325
	C198	C	0.389986	0.603734	0.087978
	C199	C	0.390690	0.405633	0.900260
	C200	C	0.084648	0.603668	0.394478
	C201	C	0.893446	0.603119	0.593535
	C202	C	0.082667	0.406582	0.592437
	C203	C	0.894331	0.407725	0.396525
	C204	C	0.889585	0.599000	0.094136
	C205	C	0.088587	0.410152	0.095285
	C206	C	0.087736	0.598842	0.894850
	C207	C	0.891243	0.410359	0.895612
	C208	C	0.087646	0.903782	0.587733
	C209	C	0.086706	0.104282	0.399249
	C210	C	0.889296	0.102925	0.586820
	C211	C	0.889855	0.904008	0.398749
	C212	C	0.583716	0.102037	0.892944
	C213	C	0.394003	0.101770	0.091302
	C214	C	0.584054	0.904951	0.092076
	C215	C	0.393820	0.905945	0.893728
	Zn216	Zn	0.489047	0.004115	0.743081
	Zn217	Zn	0.488674	0.003194	0.242219
	Zn218	Zn	0.739834	0.503287	-0.005032
	Zn219	Zn	0.238927	0.504332	-0.005266
	Zn220	Zn	-0.011218	0.752936	0.493611
	Zn221	Zn	-0.012283	0.255505	0.494049
	Zn222	Zn	-0.011230	0.505096	0.743784
	Zn223	Zn	-0.010579	0.504946	0.245003
	Zn224	Zn	0.488818	0.754902	-0.006443
	Zn225	Zn	0.489249	0.252498	-0.007233
	Zn226	Zn	0.738190	0.004524	0.492171
	Zn227	Zn	0.238478	0.003688	0.492410
	N228	N	0.401573	0.967260	0.672780
	N229	N	0.576109	0.040756	0.672222
	N230	N	0.574285	0.966763	0.313959
	N231	N	0.401835	0.040053	0.312689
	N232	N	0.669004	0.416827	0.957137
	N233	N	0.665870	0.587337	0.032840
	N234	N	0.310694	0.589735	0.956812
	N235	N	0.311942	0.419315	0.032052
	N236	N	0.951309	0.681108	0.409364
	N237	N	0.025950	0.681693	0.579396
	N238	N	0.950972	0.326675	0.580240
	N239	N	0.025579	0.327155	0.408820
	N240	N	0.951151	0.418666	0.672862
	N241	N	0.025238	0.591042	0.672533
	N242	N	0.952895	0.591966	0.314749
	N243	N	0.026248	0.419154	0.316569
	N244	N	0.402251	0.683549	0.957277
	N245	N	0.575524	0.683719	0.031037
	N246	N	0.576215	0.323242	0.956512
	N247	N	0.402830	0.323959	0.030299
	N248	N	0.666969	0.967007	0.406585
	N249	N	0.665645	0.042251	0.576284
	N250	N	0.311473	0.965965	0.577132
	N251	N	0.310208	0.041050	0.406558
	N252	N	0.902517	0.467805	0.174580
	N253	N	0.075771	0.541727	0.173941
	N254	N	0.076750	0.468212	0.813854
	N255	N	0.902165	0.541737	0.815551
	N256	N	0.165920	0.918507	0.455839
	N257	N	0.167168	0.090130	0.529708
	N258	N	0.811016	0.089539	0.455162
	N259	N	0.810111	0.918724	0.529818
	N260	N	0.451826	0.182083	0.906286
	N261	N	0.526674	0.179973	0.077758
	N262	N	0.451394	0.826485	0.078647
	N263	N	0.525895	0.826038	0.907145
	N264	N	0.452049	0.916870	0.171758
	N265	N	0.525706	0.089596	0.171638
	N266	N	0.451745	0.090878	0.813201
	N267	N	0.525949	0.917758	0.814035
	N268	N	0.900667	0.184834	0.457174
	N269	N	0.074231	0.183739	0.530342
	N270	N	0.075015	0.824226	0.456867
	N271	N	0.902144	0.824393	0.530036
	N272	N	0.166021	0.466465	0.910405
	N273	N	0.166979	0.542311	0.079770
	N274	N	0.811928	0.466335	0.079984
	N275	N	0.811425	0.541926	0.909916
	O276	O	0.026607	0.080095	0.000535
	H277	H	0.010923	0.076010	-0.002762
	H278	H	0.024787	0.078748	0.003056
	O279	O	0.516126	0.360571	0.557454
	H280	H	0.515074	0.359642	0.557684
	H281	H	0.518829	0.350556	0.549460
	O282	O	0.564256	0.555976	0.421264
	H283	H	0.564669	0.563986	0.433737
	H284	H	0.568606	0.550682	0.436217
	O285	O	0.583879	1.482463	0.512692
	H286	H	0.596142	1.492398	0.524761
	H287	H	0.576433	1.472259	0.516091
	O288	O	0.480632	0.596299	0.430336
	H289	H	0.482731	0.597861	0.425932
	H290	H	0.478251	0.599742	0.434919
	O291	O	0.971218	1.034593	0.972419
	H292	H	0.976895	1.038836	0.978740
	H293	H	0.970905	1.032460	0.973991
	O294	O	0.973251	1.042557	0.969481
	H295	H	0.978992	1.033309	0.972203
	H296	H	0.965687	1.046588	0.964998
	O297	O	0.950417	0.005106	0.995781
	H298	H	0.950195	-0.000304	0.990118
	H299	H	0.956632	0.001364	0.999649
	O300	O	0.479910	0.561230	0.540925
	H301	H	0.483858	0.549590	0.545343
	H302	H	0.482530	0.569433	0.543952
	O303	O	0.997172	-0.035499	-0.054911
	H304	H	0.990621	-0.037037	-0.060482
	H305	H	0.997901	-0.029736	-0.060955
	O306	O	-0.006230	1.022640	0.999127
	H307	H	-0.005248	1.028853	1.006248
	H308	H	-0.006872	1.021457	1.003055
	O309	O	0.475787	0.461122	0.590746
	H310	H	0.478427	0.454197	0.583716
	H311	H	0.481131	0.463814	0.600952
	O312	O	0.979205	0.000338	0.956043
	H313	H	0.981868	-0.008208	0.957916
	H314	H	0.972566	0.017893	0.962358
	O315	O	0.425641	0.544823	0.569149
	H316	H	0.426311	0.554700	0.569180
	H317	H	0.414905	0.545801	0.576875
	O318	O	0.422064	0.431521	0.375360
	H319	H	0.408748	0.431339	0.377984
	H320	H	0.415173	0.428908	0.368959
	O321	O	1.086258	0.981519	0.996685
	H322	H	1.087210	0.983777	0.996954
	H323	H	1.095728	0.990444	1.003208
	O324	O	0.478176	0.551202	0.397531
	H325	H	0.476659	0.553536	0.402775
	H326	H	0.477394	0.553118	0.394818
	O327	O	0.436567	0.344735	0.544160
	H328	H	0.422364	0.338534	0.557122
	H329	H	0.435856	0.349829	0.545094
	O330	O	1.013307	0.039618	0.975870
	H331	H	1.011626	0.050419	0.982980
	H332	H	1.023943	0.030962	0.982998
	O333	O	0.918583	1.095787	-0.012189
	H334	H	0.910223	1.100423	-0.027142
	H335	H	0.903676	1.087154	-0.006595
	O336	O	0.447485	0.551081	0.510408
	H337	H	0.457692	0.544017	0.508543
	H338	H	0.450241	0.547509	0.511398
	O339	O	0.565740	0.447709	0.373310
	H340	H	0.558426	0.452408	0.362858
	H341	H	0.560435	0.455147	0.372552
	O342	O	0.438285	0.625171	0.432945
	H343	H	0.435160	0.619277	0.439912
	H344	H	0.440646	0.630050	0.450509
	O345	O	-0.028837	0.035915	-0.016924
	H346	H	-0.032330	0.043560	-0.014251
	H347	H	-0.032607	0.034769	-0.020955
	O348	O	0.485817	0.525924	0.652202
	H349	H	0.488672	0.532517	0.648329
	H350	H	0.476286	0.524039	0.660528
	O351	O	0.628298	0.406489	0.461962
	H352	H	0.620422	0.407151	0.448640
	H353	H	0.640537	0.406937	0.452449
	O354	O	0.482271	0.571124	0.620811
	H355	H	0.482261	0.569893	0.628960
	H356	H	0.482431	0.562615	0.618922
	O357	O	0.529103	0.584574	0.546292
	H358	H	0.540216	0.590372	0.541579
	H359	H	0.524260	0.593742	0.538368
	O360	O	0.482569	-0.542695	0.381724
	H361	H	0.483734	-0.538571	0.386539
	H362	H	0.479864	-0.540678	0.374011
	O363	O	0.381804	0.450916	0.531676
	H364	H	0.373455	0.460334	0.541176
	H365	H	0.386023	0.448877	0.532822
	O366	O	0.003740	-0.043821	0.980027
	H367	H	0.001963	-0.038957	0.979998
	H368	H	0.008067	-0.037126	0.970327
	O369	O	0.485715	0.440433	0.635301
	H370	H	0.486355	0.443266	0.634187
	H371	H	0.493603	0.419623	0.627944
