data_Molecule from HDF5

_cell_length_a		16.569779
_cell_length_b		16.517485
_cell_length_c		16.642259
_cell_angle_alpha	89.974897
_cell_angle_beta	89.899405
_cell_angle_gamma	89.996734
_symmetry_space_group_name_H-M	'P 1'
_symmetry_Int_Tables_number		1

loop_
	_symmetry_equiv_pos_as_xyz
	x,y,z

loop_
	_atom_site_label
	_atom_site_type_symbol
	_atom_site_fract_x
	_atom_site_fract_y
	_atom_site_fract_z
	H0	H	0.390308	0.840082	0.713565
	H1	H	0.604423	0.150911	0.714946
	H2	H	0.598101	0.837497	0.273850
	H3	H	0.391215	0.152924	0.269830
	H4	H	0.716036	0.392580	0.834812
	H5	H	0.717232	0.600666	0.147438
	H6	H	0.273966	0.603002	0.836930
	H7	H	0.270651	0.388022	0.146523
	H8	H	0.838906	0.716910	0.388046
	H9	H	0.153789	0.716457	0.595554
	H10	H	0.840752	0.275056	0.595607
	H11	H	0.151284	0.274007	0.383838
	H12	H	0.841434	0.389965	0.712948
	H13	H	0.153037	0.601515	0.712796
	H14	H	0.839895	0.602764	0.270148
	H15	H	0.150801	0.389529	0.266548
	H16	H	0.392448	0.717596	0.836266
	H17	H	0.598052	0.714939	0.148676
	H18	H	0.599253	0.275943	0.835482
	H19	H	0.388014	0.272450	0.146729
	H20	H	0.712864	0.836634	0.391803
	H21	H	0.718694	0.152296	0.596812
	H22	H	0.275065	0.839624	0.596766
	H23	H	0.274707	0.153304	0.385727
	H24	H	0.888475	0.340714	0.213014
	H25	H	0.099915	0.653019	0.211977
	H26	H	0.101462	0.339839	0.770576
	H27	H	0.893602	0.653559	0.771462
	H28	H	0.217800	0.891993	0.335655
	H29	H	0.221190	0.105590	0.644684
	H30	H	0.775618	0.100811	0.335511
	H31	H	0.776855	0.893553	0.648437
	H32	H	0.338784	0.216028	0.889018
	H33	H	0.653478	0.215954	0.093611
	H34	H	0.340058	0.776165	0.096685
	H35	H	0.654312	0.777985	0.890553
	H36	H	0.340447	0.891661	0.213696
	H37	H	0.652968	0.101450	0.211864
	H38	H	0.340214	0.101572	0.770284
	H39	H	0.652842	0.892058	0.771089
	H40	H	0.889100	0.219672	0.335547
	H41	H	0.105705	0.221937	0.644289
	H42	H	0.099895	0.776309	0.335562
	H43	H	0.894007	0.777224	0.648603
	H44	H	0.217223	0.340051	0.887260
	H45	H	0.216364	0.653506	0.096011
	H46	H	0.775886	0.338961	0.094014
	H47	H	0.779195	0.654562	0.889485
	H48	H	0.408048	0.108895	0.581848
	H49	H	0.582732	0.885998	0.576348
	H50	H	0.586448	0.108552	0.400619
	H51	H	0.406496	0.881196	0.397511
	H52	H	0.590511	0.408696	0.104072
	H53	H	0.590477	0.585769	0.878516
	H54	H	0.405061	0.588033	0.105042
	H55	H	0.407219	0.409891	0.882148
	H56	H	0.108632	0.587214	0.400997
	H57	H	0.882237	0.586879	0.585944
	H58	H	0.111104	0.401554	0.581776
	H59	H	0.883493	0.404277	0.404070
	H60	H	0.105380	0.410397	0.571894
	H61	H	0.884270	0.589545	0.580437
	H62	H	0.106569	0.583540	0.404221
	H63	H	0.886390	0.411687	0.405048
	H64	H	0.403990	0.582119	0.103170
	H65	H	0.584964	0.585585	0.880956
	H66	H	0.582073	0.409690	0.101073
	H67	H	0.408235	0.407237	0.881839
	H68	H	0.588375	0.109341	0.401435
	H69	H	0.592040	0.881268	0.580505
	H70	H	0.411389	0.106780	0.580400
	H71	H	0.413115	0.887163	0.404440
	H72	H	0.902587	0.610012	0.077976
	H73	H	0.078273	0.385169	0.083371
	H74	H	0.084929	0.611042	0.896265
	H75	H	0.903948	0.383450	0.903268
	H76	H	0.089856	0.911482	0.603250
	H77	H	0.090738	0.084555	0.377430
	H78	H	0.909073	0.082162	0.601203
	H79	H	0.907101	0.905327	0.379537
	H80	H	0.608955	0.087212	0.902097
	H81	H	0.383041	0.084993	0.086077
	H82	H	0.610211	0.904547	0.084484
	H83	H	0.384384	0.909557	0.901205
	H84	H	0.608409	0.906074	0.079746
	H85	H	0.384192	0.087415	0.077652
	H86	H	0.607600	0.083938	0.904330
	H87	H	0.383380	0.904737	0.900911
	H88	H	0.910781	0.087625	0.601479
	H89	H	0.082414	0.077417	0.383590
	H90	H	0.080959	0.909723	0.601353
	H91	H	0.904111	0.904139	0.377783
	H92	H	0.079022	0.606002	0.903860
	H93	H	0.081199	0.387046	0.072738
	H94	H	0.907167	0.610528	0.086001
	H95	H	0.905371	0.381543	0.898084
	H96	H	0.408249	0.107991	0.577500
	H97	H	0.582613	0.882791	0.586762
	H98	H	0.587633	0.109495	0.399631
	H99	H	0.402829	0.884466	0.407821
	H100	H	0.584736	0.401607	0.104899
	H101	H	0.587001	0.590906	0.878659
	H102	H	0.409681	0.584971	0.102076
	H103	H	0.406059	0.408018	0.879877
	H104	H	0.107218	0.581902	0.399063
	H105	H	0.885412	0.583685	0.581795
	H106	H	0.108451	0.415736	0.585469
	H107	H	0.882984	0.409293	0.398423
	H108	H	0.911562	0.606693	0.078323
	H109	H	0.088690	0.382645	0.080043
	H110	H	0.089621	0.608863	0.906020
	H111	H	0.909541	0.383606	0.901539
	H112	H	0.086431	0.902957	0.605175
	H113	H	0.079229	0.089303	0.379923
	H114	H	0.905707	0.085988	0.603588
	H115	H	0.904103	0.907377	0.379634
	H116	H	0.607185	0.084093	0.899914
	H117	H	0.386060	0.079290	0.080245
	H118	H	0.608254	0.909835	0.083740
	H119	H	0.384761	0.907019	0.905250
	C120	C	0.375784	0.004770	0.612578
	C121	C	0.618040	0.987221	0.612877
	C122	C	0.617691	0.004314	0.370637
	C123	C	0.375310	0.988028	0.370511
	C124	C	0.616926	0.375188	-0.000137
	C125	C	0.617871	0.617945	0.983280
	C126	C	0.374546	0.617521	0.000445
	C127	C	0.374220	0.375266	0.983903
	C128	C	0.004164	0.617136	0.370232
	C129	C	0.988282	0.617884	0.613503
	C130	C	0.005600	0.375526	0.612170
	C131	C	0.987107	0.375226	0.369023
	C132	C	0.874541	0.505365	0.112343
	C133	C	0.116071	0.488315	0.111701
	C134	C	0.117352	0.505234	0.869862
	C135	C	0.875337	0.487089	0.869792
	C136	C	0.117923	0.875671	0.500168
	C137	C	0.118035	0.118018	0.482136
	C138	C	0.875398	0.117783	0.499203
	C139	C	0.874544	0.874465	0.482955
	C140	C	0.504306	0.117500	0.870303
	C141	C	0.487619	0.117126	0.113067
	C142	C	0.505190	0.875405	0.113840
	C143	C	0.488208	0.875830	0.871359
	C144	C	0.372149	0.887103	0.673355
	C145	C	0.621424	0.104706	0.673551
	C146	C	0.617134	0.884748	0.313431
	C147	C	0.373008	0.105989	0.310183
	C148	C	0.676128	0.373695	0.881919
	C149	C	0.677085	0.619093	0.100861
	C150	C	0.314565	0.620740	0.883332
	C151	C	0.312033	0.370801	0.100246
	C152	C	0.886293	0.677199	0.369117
	C153	C	0.106367	0.677191	0.614461
	C154	C	0.887830	0.315130	0.614018
	C155	C	0.104601	0.314390	0.365673
	C156	C	0.888090	0.372030	0.672536
	C157	C	0.106090	0.619981	0.672807
	C158	C	0.886565	0.620254	0.310488
	C159	C	0.104148	0.371624	0.307421
	C160	C	0.373438	0.677668	0.883144
	C161	C	0.618126	0.675972	0.101614
	C162	C	0.618281	0.315628	0.882311
	C163	C	0.370485	0.313480	0.100448
	C164	C	0.674257	0.884444	0.371827
	C165	C	0.678374	0.105158	0.614972
	C166	C	0.314931	0.887055	0.615226
	C167	C	0.315164	0.106155	0.367866
	C168	C	0.871232	0.387347	0.172409
	C169	C	0.118570	0.605890	0.172104
	C170	C	0.119917	0.386939	0.810454
	C171	C	0.874779	0.606262	0.811258
	C172	C	0.177697	0.873625	0.382514
	C173	C	0.180466	0.122940	0.598035
	C174	C	0.815171	0.119802	0.382356
	C175	C	0.816339	0.874166	0.601474
	C176	C	0.386256	0.176930	0.869288
	C177	C	0.606018	0.176683	0.113535
	C178	C	0.387037	0.816134	0.115337
	C179	C	0.606994	0.817357	0.870940
	C180	C	0.387306	0.873633	0.173414
	C181	C	0.605825	0.119854	0.172302
	C182	C	0.386776	0.120064	0.810410
	C183	C	0.606418	0.874211	0.812041
	C184	C	0.871916	0.178838	0.382419
	C185	C	0.123049	0.181049	0.597796
	C186	C	0.119126	0.816314	0.382430
	C187	C	0.874451	0.816473	0.601486
	C188	C	0.177280	0.387106	0.868385
	C189	C	0.176309	0.606270	0.114375
	C190	C	0.815080	0.386724	0.113356
	C191	C	0.817757	0.606800	0.869844
	C192	C	0.401897	0.086817	0.587356
	C193	C	0.593004	0.904936	0.588178
	C194	C	0.594265	0.087492	0.393688
	C195	C	0.400362	0.905747	0.395795
	C196	C	0.592688	0.399675	0.081905
	C197	C	0.594008	0.594312	0.900794
	C198	C	0.399161	0.592123	0.082191
	C199	C	0.399820	0.401171	0.902457
	C200	C	0.085903	0.591632	0.394651
	C201	C	0.905631	0.593481	0.589682
	C202	C	0.087068	0.401767	0.586901
	C203	C	0.905473	0.401158	0.395181
	C204	C	0.899710	0.587662	0.087866
	C205	C	0.090277	0.406208	0.085829
	C206	C	0.091749	0.587327	0.894876
	C207	C	0.899439	0.404561	0.893962
	C208	C	0.092936	0.900765	0.582047
	C209	C	0.091631	0.091294	0.401360
	C210	C	0.901036	0.092494	0.580848
	C211	C	0.898329	0.898781	0.400476
	C212	C	0.586457	0.092245	0.894945
	C213	C	0.405760	0.091387	0.088401
	C214	C	0.587524	0.899772	0.089385
	C215	C	0.405799	0.900230	0.895382
	Zn216	Zn	0.496272	-0.003807	0.741687
	Zn217	Zn	0.496696	-0.003768	0.242429
	Zn218	Zn	0.746409	0.496519	-0.008969
	Zn219	Zn	0.245138	0.496368	-0.008326
	Zn220	Zn	-0.003559	0.746101	0.491676
	Zn221	Zn	-0.003334	0.247031	0.490448
	Zn222	Zn	-0.003210	0.495887	0.741560
	Zn223	Zn	-0.004769	0.496562	0.240851
	Zn224	Zn	0.496153	0.746755	-0.007514
	Zn225	Zn	0.495277	0.245765	-0.007824
	Zn226	Zn	0.746383	-0.004208	0.491611
	Zn227	Zn	0.246954	-0.003475	0.491654
	N228	N	0.409628	0.961400	0.671707
	N229	N	0.584449	0.030377	0.672489
	N230	N	0.583067	0.960489	0.312303
	N231	N	0.409788	0.031469	0.311790
	N232	N	0.675725	0.410126	0.956124
	N233	N	0.677204	0.583990	0.026083
	N234	N	0.314997	0.584171	0.957382
	N235	N	0.314474	0.408932	0.026775
	N236	N	0.960354	0.675418	0.405836
	N237	N	0.031905	0.676127	0.578440
	N238	N	0.961847	0.317090	0.577124
	N239	N	0.030815	0.316395	0.403119
	N240	N	0.962378	0.408764	0.671725
	N241	N	0.031447	0.583830	0.672418
	N242	N	0.960860	0.583657	0.310990
	N243	N	0.029937	0.408584	0.309261
	N244	N	0.410120	0.675853	0.957080
	N245	N	0.582082	0.675489	0.027455
	N246	N	0.582246	0.316446	0.956597
	N247	N	0.408467	0.316098	0.027107
	N248	N	0.674963	0.959771	0.406536
	N249	N	0.676367	0.031042	0.577984
	N250	N	0.316911	0.961247	0.578223
	N251	N	0.316595	0.031921	0.404837
	N252	N	0.907504	0.462074	0.171838
	N253	N	0.081858	0.531397	0.170649
	N254	N	0.083532	0.461516	0.811064
	N255	N	0.909608	0.530798	0.810849
	N256	N	0.176924	0.909723	0.456764
	N257	N	0.177562	0.084484	0.525040
	N258	N	0.816980	0.082780	0.456231
	N259	N	0.816097	0.909212	0.526653
	N260	N	0.460460	0.175499	0.905595
	N261	N	0.531452	0.175273	0.077716
	N262	N	0.461398	0.817061	0.078833
	N263	N	0.532488	0.818170	0.907075
	N264	N	0.461835	0.909570	0.172679
	N265	N	0.531181	0.083663	0.172411
	N266	N	0.461430	0.083940	0.810748
	N267	N	0.531448	0.909614	0.811929
	N268	N	0.908700	0.177798	0.456315
	N269	N	0.084708	0.178216	0.524714
	N270	N	0.082720	0.817228	0.456617
	N271	N	0.909669	0.816296	0.526669
	N272	N	0.175923	0.461720	0.904552
	N273	N	0.174721	0.531923	0.077515
	N274	N	0.816629	0.461180	0.076844
	N275	N	0.817568	0.531764	0.905279
	O276	O	0.210429	0.780878	-0.040426
	H277	H	0.218730	0.760806	-0.036671
	H278	H	0.214759	0.787166	-0.039520
	O279	O	0.360622	0.587716	0.402299
	H280	H	0.365581	0.587207	0.409294
	H281	H	0.362068	0.589675	0.404433
	O282	O	1.008911	0.219340	1.184602
	H283	H	1.022284	0.219920	1.185421
	H284	H	1.024705	0.235116	1.208955
	O285	O	0.432758	0.477073	0.716311
	H286	H	0.425392	0.465166	0.713000
	H287	H	0.449552	0.455241	0.720330
	O288	O	0.494598	0.640256	0.586911
	H289	H	0.494156	0.635660	0.593396
	H290	H	0.495564	0.630115	0.584121
	O291	O	0.289914	0.285263	0.518271
	H292	H	0.281351	0.280809	0.518638
	H293	H	0.274272	0.289259	0.524534
	O294	O	0.853181	0.039346	1.026934
	H295	H	0.854958	0.027420	1.022851
	H296	H	0.862496	0.033525	1.041473
	O297	O	0.658493	0.672095	0.311205
	H298	H	0.645756	0.658553	0.332726
	H299	H	0.640880	0.660395	0.321815
	O300	O	-0.027099	0.208787	0.771134
	H301	H	-0.055538	0.207232	0.774696
	H302	H	-0.039476	0.229816	0.752193
	O303	O	0.713859	0.711631	0.647098
	H304	H	0.710387	0.726245	0.635806
	H305	H	0.728889	0.730903	0.680834
	O306	O	0.708587	0.277999	0.461949
	H307	H	0.715080	0.298968	0.474180
	H308	H	0.733005	0.260266	0.465147
	O309	O	0.344103	0.554950	0.623922
	H310	H	0.346373	0.570614	0.623672
	H311	H	0.349751	0.548871	0.634570
	O312	O	0.540942	0.711699	0.706160
	H313	H	0.550354	0.712401	0.706297
	H314	H	0.524574	0.720749	0.711684
	O315	O	0.945009	0.882732	1.037023
	H316	H	0.940249	0.893140	1.045001
	H317	H	0.949010	0.883878	1.026821
	O318	O	0.481270	0.662753	0.460110
	H319	H	0.471944	0.668999	0.457442
	H320	H	0.479489	0.648874	0.470759
	O321	O	0.198118	0.797079	0.793983
	H322	H	0.214729	0.780608	0.814057
	H323	H	0.203378	0.849490	0.788148
	O324	O	0.800608	0.789208	0.201763
	H325	H	0.790469	0.783756	0.152586
	H326	H	0.776894	0.763010	0.225429
	O327	O	0.148312	0.191639	1.164912
	H328	H	0.155384	0.184777	1.140218
	H329	H	0.164681	0.177588	1.182996
	O330	O	0.592516	0.354145	0.568582
	H331	H	0.590223	0.371190	0.554386
	H332	H	0.587456	0.349612	0.580493
	O333	O	0.406430	0.367477	0.448191
	H334	H	0.400304	0.374071	0.452283
	H335	H	0.400876	0.376111	0.448655
	O336	O	0.694995	0.297600	0.290671
	H337	H	0.703178	0.286730	0.324089
	H338	H	0.645736	0.290490	0.284757
	O339	O	0.785655	0.021635	0.779805
	H340	H	0.779771	0.038207	0.769681
	H341	H	0.781801	0.047718	0.769174
	O342	O	-0.030476	-0.203563	0.206926
	H343	H	-0.055138	-0.198369	0.210940
	H344	H	-0.048031	-0.214788	0.219771
	O345	O	-0.139041	1.105721	0.976976
	H346	H	-0.132707	1.092252	0.999823
	H347	H	-0.152310	1.116533	0.986275
	O348	O	0.356244	0.300466	0.354111
	H349	H	0.353996	0.312392	0.368004
	H350	H	0.358140	0.312769	0.353988
	O351	O	0.511250	0.708851	0.329663
	H352	H	0.497344	0.716973	0.318200
	H353	H	0.485228	0.706556	0.340410
	O354	O	0.219080	0.039292	0.930129
	H355	H	0.210613	0.043367	0.923297
	H356	H	0.219820	0.035707	0.921014
	O357	O	0.710310	0.549751	0.440799
	H358	H	0.721635	0.551581	0.414107
	H359	H	0.709138	0.573616	0.448280
	O360	O	0.294332	0.290908	0.698892
	H361	H	0.292718	0.296327	0.701508
	H362	H	0.298142	0.280757	0.693658
	O363	O	0.054375	-0.047174	0.219102
	H364	H	0.043079	-0.055168	0.228592
	H365	H	0.041129	-0.054331	0.216247
	O366	O	0.721532	0.441008	0.538600
	H367	H	0.730659	0.464521	0.536401
	H368	H	0.709460	0.454345	0.533340
	O369	O	0.825179	0.181153	0.157083
	H370	H	0.824542	0.162383	0.155427
	H371	H	0.819113	0.185914	0.169454
	O372	O	0.783377	0.784390	0.036167
	H373	H	0.767667	0.766195	0.020014
	H374	H	0.801303	0.794518	0.018562
	O375	O	0.946464	0.053949	0.214793
	H376	H	0.940476	0.063043	0.218269
	H377	H	0.942807	0.063430	0.220437
	O378	O	0.486035	0.433568	0.274401
	H379	H	0.487645	0.445174	0.267614
	H380	H	0.489441	0.429068	0.277865
	O381	O	0.026638	0.780596	0.773343
	H382	H	0.056242	0.774222	0.767200
	H383	H	0.046408	0.767128	0.757012
	O384	O	0.784581	0.144367	0.993820
	H385	H	0.776515	0.148655	1.004244
	H386	H	0.794459	0.124691	1.001690
	O387	O	1.044552	0.779836	0.034160
	H388	H	1.046510	0.783566	0.041057
	H389	H	1.041454	0.777119	0.036910
	O390	O	0.519515	0.304139	0.267385
	H391	H	0.512541	0.277349	0.253363
	H392	H	0.501075	0.307437	0.275459
	O393	O	0.533999	0.480306	0.519289
	H394	H	0.537934	0.480969	0.520811
	H395	H	0.535265	0.471209	0.517103
	O396	O	0.063626	1.052759	0.779552
	H397	H	0.048671	1.083773	0.780046
	H398	H	0.036311	1.041479	0.777966
	O399	O	-0.057434	-0.042457	0.774532
	H400	H	-0.053224	-0.059754	0.781020
	H401	H	-0.070831	-0.040285	0.777111
	O402	O	0.286863	0.469550	0.457461
	H403	H	0.281713	0.465096	0.445349
	H404	H	0.291995	0.476790	0.471900
	O405	O	0.970867	0.185274	0.957210
	H406	H	0.957609	0.193867	0.971406
	H407	H	0.973159	0.182374	0.950458
	O408	O	0.197054	0.196265	-0.001034
	H409	H	0.190103	0.185623	-0.002852
	H410	H	0.185961	0.202693	-0.003694
	O411	O	0.775920	0.774154	0.770327
	H412	H	0.795444	0.762685	0.780333
	H413	H	0.767006	0.797855	0.778989
	O414	O	0.686768	0.305421	0.683937
	H415	H	0.672542	0.317718	0.658088
	H416	H	0.672567	0.319650	0.675066
	O417	O	0.518080	0.481217	0.661031
	H418	H	0.517128	0.483648	0.666517
	H419	H	0.519260	0.481213	0.665372
	O420	O	0.313175	0.679441	0.675490
	H421	H	0.312306	0.682277	0.677405
	H422	H	0.328497	0.657187	0.669021
	O423	O	0.015393	0.125782	1.017641
	H424	H	0.014873	0.133671	1.025994
	H425	H	0.013388	0.124328	1.023261
	O426	O	0.369626	0.656432	0.483333
	H427	H	0.373090	0.649914	0.480948
	H428	H	0.361446	0.677314	0.478808
	O429	O	0.898026	0.798244	0.899954
	H430	H	0.905940	0.808670	0.908010
	H431	H	0.911882	0.789741	0.894382
	O432	O	0.670838	0.700838	0.495975
	H433	H	0.675243	0.711446	0.504576
	H434	H	0.657305	0.706335	0.501556
	O435	O	0.184708	0.807352	0.181285
	H436	H	0.176698	0.825387	0.154054
	H437	H	0.157376	0.827288	0.172956
	O438	O	0.213232	-0.034290	0.114169
	H439	H	0.211267	-0.034110	0.106671
	H440	H	0.206843	-0.029537	0.107380
	O441	O	0.209696	0.097507	0.192151
	H442	H	0.210801	0.079490	0.188925
	H443	H	0.222350	0.098408	0.199533
	O444	O	0.343134	0.611687	0.439436
	H445	H	0.329269	0.621759	0.423739
	H446	H	0.338831	0.609778	0.422190
	O447	O	0.210584	0.962917	0.776225
	H448	H	0.220769	0.975082	0.755107
	H449	H	0.188731	0.981287	0.767752
	O450	O	0.124314	0.929133	0.964156
	H451	H	0.129329	0.943853	0.947309
	H452	H	0.120680	0.931855	0.974551
	O453	O	0.321864	0.451970	0.663187
	H454	H	0.308875	0.453216	0.676442
	H455	H	0.324413	0.444818	0.667006
	O456	O	0.176833	0.181733	0.807075
	H457	H	0.153731	0.161725	0.815200
	H458	H	0.177928	0.191738	0.819389
	O459	O	0.777268	0.951738	0.214284
	H460	H	0.759370	0.930491	0.222691
	H461	H	0.769344	0.929225	0.226014
	O462	O	0.715470	0.468871	0.270938
	H463	H	0.728864	0.441262	0.261580
	H464	H	0.723326	0.452371	0.259379
	O465	O	0.766135	-0.065566	-0.059617
	H466	H	0.772863	-0.061394	-0.065254
	H467	H	0.761138	-0.063801	-0.074831
	O468	O	0.282179	0.526640	0.275258
	H469	H	0.280784	0.536973	0.271905
	H470	H	0.273951	0.534512	0.267252
	O471	O	0.478268	0.272279	0.483605
	H472	H	0.490372	0.276019	0.476223
	H473	H	0.476504	0.278221	0.483548
	O474	O	0.286857	0.704505	0.280939
	H475	H	0.298582	0.688306	0.293473
	H476	H	0.254728	0.736479	0.248667
	O477	O	0.562295	0.531606	1.303705
	H478	H	0.568552	0.525841	1.298624
	H479	H	0.562949	0.532716	1.302356
	O480	O	0.484859	0.273459	0.673629
	H481	H	0.482877	0.277358	0.647913
	H482	H	0.473567	0.243363	0.694832
	O483	O	0.720261	0.530165	0.711408
	H484	H	0.754378	0.535581	0.744194
	H485	H	0.711612	0.555968	0.692384
	O486	O	0.792627	0.198875	0.780134
	H487	H	0.785824	0.203143	0.831559
	H488	H	0.768355	0.228041	0.755719
	O489	O	1.011826	1.038092	-0.021239
	H490	H	1.000075	1.034352	-0.006648
	H491	H	0.991565	1.051949	-0.028489
