data_Molecule from HDF5

_cell_length_a		16.572325
_cell_length_b		16.602169
_cell_length_c		16.440630
_cell_angle_alpha	89.986591
_cell_angle_beta	90.048139
_cell_angle_gamma	89.840712
_symmetry_space_group_name_H-M	'P 1'
_symmetry_Int_Tables_number		1

loop_
	_symmetry_equiv_pos_as_xyz
	x,y,z

loop_
	_atom_site_label
	_atom_site_type_symbol
	_atom_site_fract_x
	_atom_site_fract_y
	_atom_site_fract_z
	H0	H	0.404388	0.862427	0.702953
	H1	H	0.611375	0.174853	0.706287
	H2	H	0.608821	0.862283	0.264613
	H3	H	0.400311	0.175956	0.261882
	H4	H	0.726781	0.415274	0.826520
	H5	H	0.725629	0.624441	0.142724
	H6	H	0.286273	0.623080	0.825915
	H7	H	0.285335	0.414685	0.141319
	H8	H	0.849961	0.740827	0.379387
	H9	H	0.161252	0.742949	0.592274
	H10	H	0.851120	0.297182	0.591341
	H11	H	0.162304	0.296656	0.378432
	H12	H	0.850325	0.414604	0.706716
	H13	H	0.161664	0.625164	0.708282
	H14	H	0.849195	0.623849	0.264223
	H15	H	0.163046	0.415084	0.264124
	H16	H	0.401111	0.740074	0.826312
	H17	H	0.609517	0.740460	0.142189
	H18	H	0.612654	0.297909	0.826775
	H19	H	0.399360	0.295912	0.139598
	H20	H	0.728366	0.863968	0.378503
	H21	H	0.727845	0.175427	0.589525
	H22	H	0.284804	0.863592	0.589984
	H23	H	0.282875	0.175764	0.377578
	H24	H	0.902684	0.362105	0.204372
	H25	H	0.109294	0.676219	0.204556
	H26	H	0.113535	0.364082	0.760746
	H27	H	0.901826	0.676440	0.763601
	H28	H	0.227815	0.914177	0.327013
	H29	H	0.228140	0.124795	0.642252
	H30	H	0.785760	0.125244	0.326272
	H31	H	0.786096	0.915614	0.641370
	H32	H	0.350942	0.243697	0.875381
	H33	H	0.660926	0.243554	0.092067
	H34	H	0.348700	0.799266	0.089563
	H35	H	0.661522	0.797275	0.879109
	H36	H	0.348933	0.916718	0.204845
	H37	H	0.661275	0.125627	0.206932
	H38	H	0.349131	0.122885	0.762940
	H39	H	0.663770	0.916686	0.764727
	H40	H	0.901245	0.241077	0.326636
	H41	H	0.113044	0.241357	0.641606
	H42	H	0.112549	0.797294	0.327110
	H43	H	0.901409	0.798132	0.641026
	H44	H	0.231382	0.365482	0.874579
	H45	H	0.227872	0.675276	0.089873
	H46	H	0.782509	0.364220	0.091612
	H47	H	0.784427	0.675880	0.879235
	H48	H	0.412654	0.134832	0.578906
	H49	H	0.600719	0.907482	0.565188
	H50	H	0.596469	0.131198	0.397899
	H51	H	0.416019	0.906437	0.392165
	H52	H	0.592313	0.427857	0.097633
	H53	H	0.593817	0.611010	0.870867
	H54	H	0.411657	0.610275	0.099287
	H55	H	0.418266	0.431667	0.871371
	H56	H	0.121140	0.609077	0.387438
	H57	H	0.893157	0.611430	0.573083
	H58	H	0.115246	0.437390	0.570478
	H59	H	0.895335	0.433375	0.396051
	H60	H	0.120286	0.428856	0.578199
	H61	H	0.895561	0.608952	0.569658
	H62	H	0.120110	0.615478	0.398651
	H63	H	0.892362	0.429011	0.391671
	H64	H	0.417870	0.605145	0.095587
	H65	H	0.596694	0.609158	0.870339
	H66	H	0.596159	0.432936	0.097084
	H67	H	0.418642	0.433035	0.871535
	H68	H	0.596079	0.132811	0.393371
	H69	H	0.600472	0.904003	0.578519
	H70	H	0.424702	0.128719	0.572457
	H71	H	0.418865	0.908471	0.395120
	H72	H	0.912180	0.632787	0.074225
	H73	H	0.095321	0.406656	0.077058
	H74	H	0.095042	0.629582	0.898703
	H75	H	0.921991	0.410237	0.897787
	H76	H	0.098595	0.929047	0.598383
	H77	H	0.095333	0.108587	0.371669
	H78	H	0.916618	0.105339	0.595915
	H79	H	0.916204	0.932204	0.371335
	H80	H	0.619998	0.111418	0.892097
	H81	H	0.395805	0.109581	0.066712
	H82	H	0.617913	0.932875	0.076860
	H83	H	0.394556	0.928043	0.898623
	H84	H	0.619343	0.923983	0.073259
	H85	H	0.396034	0.104527	0.070771
	H86	H	0.617558	0.110179	0.898777
	H87	H	0.395299	0.933865	0.892406
	H88	H	0.919962	0.109427	0.596237
	H89	H	0.094046	0.106792	0.372953
	H90	H	0.095176	0.934943	0.595493
	H91	H	0.921146	0.930704	0.371523
	H92	H	0.096537	0.631810	0.895701
	H93	H	0.092933	0.409189	0.070900
	H94	H	0.915648	0.631977	0.075849
	H95	H	0.913889	0.408434	0.901003
	H96	H	0.412621	0.130108	0.564547
	H97	H	0.589403	0.909916	0.572731
	H98	H	0.592301	0.130526	0.395409
	H99	H	0.414386	0.907901	0.396316
	H100	H	0.590679	0.433153	0.094535
	H101	H	0.593635	0.607442	0.872160
	H102	H	0.419431	0.613231	0.097410
	H103	H	0.419135	0.432013	0.871382
	H104	H	0.115812	0.603549	0.397815
	H105	H	0.894584	0.606472	0.573712
	H106	H	0.117990	0.425368	0.566593
	H107	H	0.893708	0.426687	0.398180
	H108	H	0.915519	0.630839	0.072541
	H109	H	0.099581	0.406826	0.071457
	H110	H	0.092463	0.630171	0.895618
	H111	H	0.915884	0.405916	0.892296
	H112	H	0.091606	0.928373	0.595806
	H113	H	0.092557	0.108596	0.372080
	H114	H	0.915104	0.109910	0.598684
	H115	H	0.917898	0.928042	0.369904
	H116	H	0.617338	0.105559	0.893797
	H117	H	0.393750	0.110189	0.072868
	H118	H	0.616106	0.930904	0.067993
	H119	H	0.391039	0.926672	0.890667
	C120	C	0.385056	0.027755	0.604856
	C121	C	0.628619	1.010610	0.605025
	C122	C	0.627292	0.028310	0.363063
	C123	C	0.383811	1.011101	0.361800
	C124	C	0.626589	0.398786	-0.007561
	C125	C	0.626339	0.640886	0.975888
	C126	C	0.384524	0.641194	-0.007249
	C127	C	0.385462	0.399033	0.975087
	C128	C	0.014826	0.641025	0.362789
	C129	C	0.997881	0.641151	0.605561
	C130	C	0.014815	0.398113	0.605378
	C131	C	0.997448	0.397583	0.363046
	C132	C	0.883171	0.528085	0.106452
	C133	C	0.127743	0.511118	0.105594
	C134	C	0.127516	0.527826	0.863071
	C135	C	0.884615	0.511334	0.863955
	C136	C	0.127731	0.898040	0.492859
	C137	C	0.127164	0.140538	0.476229
	C138	C	0.885282	0.140644	0.492447
	C139	C	0.886413	0.899071	0.475411
	C140	C	0.514794	0.141101	0.861886
	C141	C	0.498024	0.140759	0.104199
	C142	C	0.514282	0.897776	0.105453
	C143	C	0.497396	0.898045	0.862194
	C144	C	0.384756	0.909448	0.663850
	C145	C	0.630204	0.128166	0.665806
	C146	C	0.628413	0.909834	0.303821
	C147	C	0.381724	0.128905	0.301756
	C148	C	0.687012	0.396820	0.873795
	C149	C	0.685776	0.642537	0.095207
	C150	C	0.325535	0.642246	0.873513
	C151	C	0.325241	0.396219	0.093728
	C152	C	0.896845	0.700675	0.361187
	C153	C	0.114814	0.702058	0.609847
	C154	C	0.897803	0.337450	0.609274
	C155	C	0.115194	0.337193	0.360409
	C156	C	0.897405	0.395918	0.666375
	C157	C	0.115038	0.643587	0.667339
	C158	C	0.896531	0.642476	0.303856
	C159	C	0.115817	0.396113	0.303632
	C160	C	0.382702	0.700175	0.873564
	C161	C	0.628138	0.700517	0.094811
	C162	C	0.630171	0.338519	0.873886
	C163	C	0.381934	0.337294	0.092968
	C164	C	0.687782	0.910641	0.360399
	C165	C	0.688099	0.128354	0.607871
	C166	C	0.325535	0.910120	0.607513
	C167	C	0.323348	0.128724	0.359286
	C168	C	0.882973	0.409801	0.165422
	C169	C	0.128568	0.629120	0.165112
	C170	C	0.131101	0.410940	0.801388
	C171	C	0.883176	0.629254	0.803890
	C172	C	0.188128	0.895462	0.374366
	C173	C	0.188111	0.143067	0.594652
	C174	C	0.825415	0.143426	0.373603
	C175	C	0.826053	0.897031	0.594050
	C176	C	0.397486	0.202374	0.858149
	C177	C	0.614480	0.202584	0.109220
	C178	C	0.395638	0.839308	0.107227
	C179	C	0.615126	0.838111	0.860656
	C180	C	0.395914	0.897354	0.164965
	C181	C	0.614699	0.143848	0.166276
	C182	C	0.396556	0.142568	0.801974
	C183	C	0.616235	0.897294	0.803923
	C184	C	0.882971	0.200875	0.374043
	C185	C	0.130394	0.200702	0.594571
	C186	C	0.130649	0.837641	0.374339
	C187	C	0.883375	0.838699	0.593916
	C188	C	0.190168	0.411603	0.858060
	C189	C	0.187401	0.628691	0.107949
	C190	C	0.823214	0.410509	0.109254
	C191	C	0.824764	0.629131	0.861419
	C192	C	0.409509	0.109854	0.579331
	C193	C	0.603907	0.928559	0.579618
	C194	C	0.602133	0.109984	0.388107
	C195	C	0.409108	0.929026	0.387100
	C196	C	0.600449	0.424044	0.074929
	C197	C	0.601895	0.616262	0.892762
	C198	C	0.409392	0.616701	0.075880
	C199	C	0.411355	0.424904	0.892882
	C200	C	0.097538	0.616412	0.387500
	C201	C	0.915715	0.616105	0.579501
	C202	C	0.096654	0.423310	0.579096
	C203	C	0.915363	0.422596	0.388046
	C204	C	0.907421	0.610370	0.081387
	C205	C	0.103072	0.429112	0.080413
	C206	C	0.101890	0.609160	0.889210
	C207	C	0.910038	0.429692	0.889611
	C208	C	0.102323	0.923530	0.575067
	C209	C	0.101479	0.115205	0.393792
	C210	C	0.910182	0.115337	0.575426
	C211	C	0.911394	0.923645	0.392608
	C212	C	0.597071	0.116109	0.887523
	C213	C	0.416500	0.115373	0.077761
	C214	C	0.596486	0.922166	0.080066
	C215	C	0.414801	0.922633	0.886685
	Zn216	Zn	0.506518	0.019301	0.733184
	Zn217	Zn	0.506124	0.019633	0.233438
	Zn218	Zn	0.754658	0.519615	-0.015345
	Zn219	Zn	0.256498	0.519838	-0.016024
	Zn220	Zn	0.006742	0.769669	0.483992
	Zn221	Zn	0.006113	0.269184	0.484882
	Zn222	Zn	0.006244	0.519316	0.733998
	Zn223	Zn	0.006201	0.519322	0.234419
	Zn224	Zn	0.505036	0.769479	-0.015727
	Zn225	Zn	0.506439	0.269979	-0.016681
	Zn226	Zn	0.757349	0.019822	0.483278
	Zn227	Zn	0.255731	0.019461	0.484108
	N228	N	0.421067	0.983666	0.662313
	N229	N	0.594099	0.053871	0.664244
	N230	N	0.591478	0.983842	0.305290
	N231	N	0.418547	0.054650	0.303151
	N232	N	0.684956	0.433467	0.948687
	N233	N	0.684667	0.606188	0.020286
	N234	N	0.326405	0.606448	0.948789
	N235	N	0.327208	0.433739	0.019361
	N236	N	0.971689	0.699823	0.397072
	N237	N	0.040827	0.700338	0.572107
	N238	N	0.972018	0.338689	0.572195
	N239	N	0.040544	0.337753	0.396237
	N240	N	0.971228	0.432852	0.664142
	N241	N	0.041281	0.606393	0.664669
	N242	N	0.971025	0.606023	0.304671
	N243	N	0.041434	0.432894	0.304951
	N244	N	0.418288	0.699939	0.949035
	N245	N	0.592097	0.699789	0.019518
	N246	N	0.593295	0.339588	0.948732
	N247	N	0.418493	0.338710	0.018046
	N248	N	0.687334	0.985237	0.396265
	N249	N	0.687222	0.054206	0.570756
	N250	N	0.325493	0.984832	0.571719
	N251	N	0.324341	0.054342	0.395688
	N252	N	0.919276	0.484099	0.164003
	N253	N	0.092275	0.554908	0.163782
	N254	N	0.092798	0.484201	0.804272
	N255	N	0.919714	0.554975	0.805119
	N256	N	0.186643	0.932305	0.449047
	N257	N	0.186377	0.106499	0.519776
	N258	N	0.826672	0.106683	0.448437
	N259	N	0.827861	0.933815	0.519347
	N260	N	0.472001	0.201457	0.894754
	N261	N	0.540929	0.200770	0.071320
	N262	N	0.470368	0.839514	0.071069
	N263	N	0.540081	0.838308	0.895968
	N264	N	0.470618	0.932802	0.164028
	N265	N	0.541232	0.106022	0.163156
	N266	N	0.470589	0.105209	0.804131
	N267	N	0.541825	0.933696	0.804666
	N268	N	0.919177	0.199649	0.449115
	N269	N	0.093174	0.199343	0.519838
	N270	N	0.094064	0.838837	0.449096
	N271	N	0.920167	0.839697	0.519018
	N272	N	0.187974	0.485315	0.895647
	N273	N	0.186974	0.554226	0.071754
	N274	N	0.822923	0.485420	0.073661
	N275	N	0.825375	0.554770	0.897899
	O276	O	1.225128	1.067327	0.200221
	H277	H	1.210470	1.045955	0.183239
	H278	H	1.252325	1.061384	0.233121
	O279	O	-0.058068	-0.202454	0.929020
	H280	H	-0.066581	-0.207642	0.911151
	H281	H	-0.071835	-0.205829	0.936713
	O282	O	0.294084	0.308744	0.510845
	H283	H	0.296000	0.290136	0.497610
	H284	H	0.307425	0.302031	0.494376
	O285	O	0.445247	0.659775	0.586362
	H286	H	0.454858	0.669049	0.589690
	H287	H	0.453834	0.651812	0.598025
	O288	O	1.526331	-0.640849	1.276528
	H289	H	1.548493	-0.609593	1.274898
	H290	H	1.546721	-0.659302	1.260194
	O291	O	0.422908	0.697969	0.282883
	H292	H	0.436494	0.716956	0.271370
	H293	H	0.393952	0.682512	0.283380
	O294	O	-0.014129	1.133581	-0.979893
	H295	H	-0.019483	1.132972	-0.976320
	H296	H	-0.001206	1.134916	-0.954619
	O297	O	0.711389	-0.271105	-0.486623
	H298	H	0.719741	-0.274731	-0.488801
	H299	H	0.723096	-0.271260	-0.479435
	O300	O	-0.273759	-0.507590	0.263743
	H301	H	-0.283189	-0.553617	0.275213
	H302	H	-0.244858	-0.514895	0.227673
	O303	O	-0.017381	-0.046404	-0.226860
	H304	H	-0.020710	-0.043046	-0.218648
	H305	H	-0.000256	-0.058694	-0.229764
	O306	O	0.705556	-0.282362	1.220171
	H307	H	0.718113	-0.271593	1.227177
	H308	H	0.725500	-0.265271	1.218731
	O309	O	0.303464	0.720688	0.343545
	H310	H	0.279155	0.720506	0.326865
	H311	H	0.309722	0.713290	0.349636
	O312	O	-0.198254	-0.083877	0.190053
	H313	H	-0.194218	-0.089526	0.206598
	H314	H	-0.189048	-0.087570	0.205633
	O315	O	0.908200	0.107567	1.140871
	H316	H	0.910297	0.096206	1.146545
	H317	H	0.911862	0.103380	1.136104
	O318	O	0.500983	0.590776	0.438694
	H319	H	0.484805	0.591045	0.420452
	H320	H	0.494570	0.596032	0.439734
	O321	O	0.132337	1.172439	0.819501
	H322	H	0.124239	1.171495	0.835550
	H323	H	0.145639	1.179731	0.820744
	O324	O	0.792304	-0.193406	1.005269
	H325	H	0.797357	-0.183896	1.037945
	H326	H	0.768156	-0.207100	1.012097
	O327	O	1.222152	-0.193690	0.958352
	H328	H	1.237607	-0.214479	0.939843
	H329	H	1.212338	-0.197963	0.930273
	O330	O	-0.162633	0.061974	0.808387
	H331	H	-0.154059	0.048159	0.804529
	H332	H	-0.166357	0.058610	0.797628
	O333	O	0.417422	0.603965	0.688127
	H334	H	0.429267	0.580449	0.680961
	H335	H	0.416056	0.587635	0.678608
	O336	O	0.971848	-0.190661	1.193621
	H337	H	0.986710	-0.190666	1.190295
	H338	H	0.991560	-0.203017	1.195234
	O339	O	0.648615	0.597884	0.456039
	H340	H	0.649010	0.576915	0.468353
	H341	H	0.657079	0.598211	0.465738
	O342	O	0.185788	1.026015	0.012488
	H343	H	0.182327	1.020008	0.011498
	H344	H	0.195392	1.033939	0.014605
	O345	O	0.641012	0.563202	0.677275
	H346	H	0.648837	0.579468	0.677689
	H347	H	0.657469	0.573314	0.695422
	O348	O	-0.182999	0.879773	0.791057
	H349	H	-0.179720	0.902245	0.813117
	H350	H	-0.168890	0.896980	0.803501
	O351	O	-0.211310	0.229238	0.963670
	H352	H	-0.202158	0.228095	0.942508
	H353	H	-0.223090	0.245045	0.965251
	O354	O	1.443123	-0.446948	1.505545
	H355	H	1.443367	-0.453323	1.483501
	H356	H	1.454909	-0.448492	1.499985
	O357	O	0.295912	0.597705	0.606323
	H358	H	0.287249	0.622793	0.612951
	H359	H	0.295099	0.599353	0.610336
	O360	O	0.344801	0.496624	0.680615
	H361	H	0.351583	0.510599	0.680923
	H362	H	0.340028	0.513846	0.675547
	O363	O	0.424600	0.494118	0.310317
	H364	H	0.449882	0.511653	0.303561
	H365	H	0.415391	0.498780	0.305236
	O366	O	1.064004	0.027990	0.981571
	H367	H	1.074957	0.032715	0.997497
	H368	H	1.051251	0.036991	0.985498
	O369	O	0.311974	0.324366	0.677350
	H370	H	0.304566	0.335462	0.647731
	H371	H	0.305042	0.356185	0.661891
	O372	O	0.481947	1.301144	0.701445
	H373	H	0.455850	1.294986	0.715023
	H374	H	0.452883	1.290251	0.710867
	O375	O	1.126002	-0.186464	-0.220717
	H376	H	1.119352	-0.159412	-0.219047
	H377	H	1.146025	-0.200972	-0.250060
	O378	O	1.194102	1.223897	1.180999
	H379	H	1.197737	1.175142	1.185310
	H380	H	1.214080	1.248370	1.195268
	O381	O	0.152313	1.029125	-0.222188
	H382	H	0.150557	1.042802	-0.218716
	H383	H	0.150947	1.046736	-0.209495
	O384	O	0.349933	0.353538	0.303256
	H385	H	0.368865	0.376315	0.311063
	H386	H	0.375953	0.354900	0.311327
	O387	O	0.215854	0.896007	0.771934
	H388	H	0.205978	0.921103	0.771335
	H389	H	0.206730	0.911975	0.756002
	O390	O	0.026015	0.990606	1.142854
	H391	H	0.037680	0.966154	1.130532
	H392	H	0.016692	1.016746	1.146849
	O393	O	1.148531	-0.105666	0.033346
	H394	H	1.141276	-0.113545	0.027624
	H395	H	1.159859	-0.117038	0.025879
	O396	O	1.222631	0.239572	0.003579
	H397	H	1.229634	0.242809	0.015430
	H398	H	1.237343	0.249449	0.019221
	O399	O	0.043308	0.171505	0.964998
	H400	H	0.047863	0.173740	0.971721
	H401	H	0.048263	0.174364	0.966787
	O402	O	0.908898	0.226500	1.080498
	H403	H	0.910568	0.216668	1.074917
	H404	H	0.925045	0.218115	1.079216
	O405	O	0.800128	0.227095	0.774442
	H406	H	0.806759	0.197656	0.769866
	H407	H	0.829796	0.230699	0.796013
	O408	O	0.971175	1.016965	0.849643
	H409	H	0.974109	1.019777	0.846651
	H410	H	0.979156	1.016760	0.845714
	O411	O	1.614600	1.420324	0.565266
	H412	H	1.619895	1.416092	0.569746
	H413	H	1.599500	1.412795	0.566299
	O414	O	-0.211871	0.042969	0.134428
	H415	H	-0.211973	0.035116	0.122726
	H416	H	-0.227829	0.041425	0.163562
	O417	O	-0.831169	-0.104355	0.168344
	H418	H	-0.845061	-0.101186	0.155546
	H419	H	-0.828286	-0.108065	0.160196
	O420	O	0.934747	-0.078893	0.868519
	H421	H	0.939292	-0.084958	0.866179
	H422	H	0.942486	-0.077831	0.879051
	O423	O	1.124508	0.965820	0.140233
	H424	H	1.126167	0.963373	0.135061
	H425	H	1.125548	0.956224	0.131031
	O426	O	0.327512	0.687080	0.515737
	H427	H	0.310114	0.709931	0.497351
	H428	H	0.353566	0.683440	0.518368
	O429	O	0.786335	1.015096	-0.028878
	H430	H	0.794567	1.018095	-0.019540
	H431	H	0.780401	1.022725	-0.018721
	O432	O	1.574858	-0.275062	1.338023
	H433	H	1.567474	-0.269001	1.336567
	H434	H	1.595245	-0.286986	1.353037
	O435	O	0.028968	0.872796	1.026476
	H436	H	0.005780	0.859838	1.002961
	H437	H	0.044490	0.874721	1.013876
	O438	O	0.294208	0.546695	0.273186
	H439	H	0.281397	0.536463	0.257247
	H440	H	0.300160	0.533217	0.274422
	O441	O	0.563184	0.307190	0.544307
	H442	H	0.568516	0.319196	0.551691
	H443	H	0.540684	0.312630	0.566367
	O444	O	0.708809	0.347078	0.536550
	H445	H	0.716996	0.338460	0.566822
	H446	H	0.695917	0.356148	0.544060
	O447	O	0.713731	0.725592	0.687814
	H448	H	0.721129	0.745652	0.684742
	H449	H	0.700742	0.727572	0.697910
	O450	O	0.619507	0.575745	-0.527725
	H451	H	0.628662	0.577659	-0.535638
	H452	H	0.614794	0.582404	-0.520059
	O453	O	-0.354212	0.375384	0.434470
	H454	H	-0.334203	0.377061	0.434023
	H455	H	-0.361449	0.381372	0.455106
	O456	O	0.032797	1.228696	1.204298
	H457	H	0.042684	1.239187	1.224763
	H458	H	0.062912	1.235847	1.204741
	O459	O	0.535762	0.733845	0.694969
	H460	H	0.540971	0.721886	0.680050
	H461	H	0.531210	0.751695	0.720179
	O462	O	0.342443	0.484822	0.453850
	H463	H	0.344087	0.478962	0.470963
	H464	H	0.344811	0.489034	0.459660
	O465	O	0.466847	0.309356	0.418657
	H466	H	0.490287	0.313239	0.416685
	H467	H	0.490942	0.308267	0.404475
	O468	O	-0.307713	0.331187	-0.709019
	H469	H	-0.282748	0.305982	-0.698128
	H470	H	-0.315340	0.330710	-0.679204
	O471	O	0.642275	0.507096	0.685233
	H472	H	0.660124	0.514560	0.691325
	H473	H	0.651872	0.478642	0.692556
	O474	O	0.976622	1.235706	-0.219768
	H475	H	0.988639	1.233378	-0.228889
	H476	H	0.990451	1.247711	-0.221817
	O477	O	0.661240	0.602492	0.347957
	H478	H	0.668059	0.590261	0.334634
	H479	H	0.675216	0.587172	0.361830
