data_Molecule from HDF5

_cell_length_a		16.100820
_cell_length_b		16.303777
_cell_length_c		16.312251
_cell_angle_alpha	89.575020
_cell_angle_beta	90.445627
_cell_angle_gamma	90.505822
_symmetry_space_group_name_H-M	'P 1'
_symmetry_Int_Tables_number		1

loop_
	_symmetry_equiv_pos_as_xyz
	x,y,z

loop_
	_atom_site_label
	_atom_site_type_symbol
	_atom_site_fract_x
	_atom_site_fract_y
	_atom_site_fract_z
	H0	H	0.376930	0.833554	0.725908
	H1	H	0.585259	0.157020	0.723381
	H2	H	0.580746	0.833638	0.288190
	H3	H	0.376878	0.157050	0.284662
	H4	H	0.694296	0.397549	0.842304
	H5	H	0.699033	0.592815	0.168624
	H6	H	0.266491	0.592887	0.842153
	H7	H	0.267982	0.393545	0.169405
	H8	H	0.814865	0.708518	0.402612
	H9	H	0.143234	0.712632	0.610408
	H10	H	0.816154	0.275816	0.606118
	H11	H	0.145620	0.281791	0.409113
	H12	H	0.815667	0.389773	0.720705
	H13	H	0.145115	0.594140	0.721556
	H14	H	0.816550	0.594105	0.287593
	H15	H	0.145652	0.397216	0.295169
	H16	H	0.379930	0.711535	0.843115
	H17	H	0.586662	0.711748	0.167845
	H18	H	0.580305	0.279887	0.843445
	H19	H	0.379100	0.274829	0.166914
	H20	H	0.692585	0.831332	0.408447
	H21	H	0.697192	0.158371	0.603478
	H22	H	0.264875	0.831404	0.605991
	H23	H	0.265673	0.158460	0.404662
	H24	H	0.879512	0.331750	0.223069
	H25	H	0.084844	0.657123	0.222980
	H26	H	0.079189	0.330665	0.791427
	H27	H	0.878632	0.655883	0.784892
	H28	H	0.192463	0.898015	0.342267
	H29	H	0.198280	0.091959	0.669466
	H30	H	0.767076	0.092011	0.341943
	H31	H	0.766182	0.895281	0.670010
	H32	H	0.316135	0.208243	0.903497
	H33	H	0.644696	0.210240	0.106377
	H34	H	0.317313	0.775244	0.105803
	H35	H	0.646105	0.783091	0.907153
	H36	H	0.315422	0.892493	0.218578
	H37	H	0.643576	0.096243	0.221329
	H38	H	0.316758	0.094536	0.787869
	H39	H	0.645311	0.897939	0.792864
	H40	H	0.880235	0.210387	0.343927
	H41	H	0.085029	0.210548	0.669490
	H42	H	0.076794	0.780901	0.342516
	H43	H	0.877580	0.774948	0.667899
	H44	H	0.191695	0.329542	0.911073
	H45	H	0.196924	0.657500	0.101390
	H46	H	0.766147	0.331565	0.103775
	H47	H	0.768069	0.659095	0.906500
	H48	H	0.393536	0.109508	0.598056
	H49	H	0.566443	0.880228	0.602813
	H50	H	0.575372	0.113525	0.407293
	H51	H	0.392516	0.882347	0.419233
	H52	H	0.572288	0.399515	0.121181
	H53	H	0.575993	0.584471	0.890186
	H54	H	0.385544	0.577538	0.120216
	H55	H	0.384672	0.412878	0.891582
	H56	H	0.097046	0.591021	0.420644
	H57	H	0.861787	0.585733	0.596583
	H58	H	0.097696	0.401870	0.596586
	H59	H	0.862993	0.404581	0.410335
	H60	H	0.097409	0.405959	0.601780
	H61	H	0.864121	0.583127	0.591931
	H62	H	0.094885	0.583962	0.417088
	H63	H	0.860622	0.397333	0.413329
	H64	H	0.400115	0.585401	0.118937
	H65	H	0.566385	0.589250	0.891600
	H66	H	0.575672	0.401188	0.122488
	H67	H	0.397884	0.397063	0.891306
	H68	H	0.567634	0.110600	0.411319
	H69	H	0.570896	0.879729	0.596618
	H70	H	0.391295	0.110674	0.593883
	H71	H	0.377785	0.877417	0.413417
	H72	H	0.898383	0.608339	0.096899
	H73	H	0.074918	0.376968	0.102442
	H74	H	0.070890	0.608992	0.912153
	H75	H	0.883664	0.375813	0.908647
	H76	H	0.074556	0.900050	0.622640
	H77	H	0.079809	0.081718	0.390049
	H78	H	0.896206	0.078433	0.618422
	H79	H	0.886048	0.901030	0.390495
	H80	H	0.602488	0.092756	0.907709
	H81	H	0.362606	0.086195	0.091927
	H82	H	0.598375	0.902266	0.096308
	H83	H	0.362272	0.900930	0.912013
	H84	H	0.597209	0.907783	0.098643
	H85	H	0.362755	0.082720	0.094379
	H86	H	0.598010	0.093272	0.921492
	H87	H	0.364370	0.901294	0.919320
	H88	H	0.893639	0.096879	0.625089
	H89	H	0.060435	0.087459	0.394633
	H90	H	0.071825	0.905769	0.620101
	H91	H	0.885968	0.901188	0.389422
	H92	H	0.075076	0.609400	0.914150
	H93	H	0.073052	0.376803	0.104698
	H94	H	0.887649	0.610194	0.093397
	H95	H	0.892325	0.379749	0.912294
	H96	H	0.389275	0.111941	0.599136
	H97	H	0.573732	0.877593	0.602432
	H98	H	0.574771	0.110101	0.415900
	H99	H	0.390802	0.878191	0.403758
	H100	H	0.572641	0.403199	0.120985
	H101	H	0.575335	0.594755	0.887142
	H102	H	0.387173	0.593577	0.125840
	H103	H	0.378485	0.394703	0.884278
	H104	H	0.099331	0.589272	0.412494
	H105	H	0.862763	0.580221	0.597387
	H106	H	0.099607	0.399129	0.602223
	H107	H	0.863894	0.402906	0.417954
	H108	H	0.891112	0.613285	0.103288
	H109	H	0.072368	0.377598	0.101699
	H110	H	0.074241	0.610721	0.909608
	H111	H	0.885053	0.379270	0.918669
	H112	H	0.067734	0.900376	0.620505
	H113	H	0.073604	0.100171	0.386874
	H114	H	0.878206	0.084007	0.625865
	H115	H	0.885182	0.900844	0.389891
	H116	H	0.596292	0.081395	0.914598
	H117	H	0.361449	0.086485	0.095848
	H118	H	0.599949	0.902566	0.102234
	H119	H	0.364922	0.907568	0.914817
	C120	C	0.360079	0.003355	0.627471
	C121	C	0.601932	0.986402	0.628753
	C122	C	0.601191	0.003827	0.383347
	C123	C	0.357600	0.986835	0.382008
	C124	C	0.601875	0.373250	0.014145
	C125	C	0.603918	0.618145	0.996946
	C126	C	0.360784	0.615340	0.013909
	C127	C	0.358382	0.371482	0.996752
	C128	C	-0.011345	0.616605	0.385162
	C129	C	0.971498	0.614300	0.626405
	C130	C	-0.010746	0.371600	0.628374
	C131	C	0.971683	0.373451	0.386270
	C132	C	0.861029	0.503190	0.127331
	C133	C	0.104080	0.485286	0.130108
	C134	C	0.101807	0.501960	0.884015
	C135	C	0.858243	0.485903	0.883035
	C136	C	0.100454	0.873626	0.513911
	C137	C	0.102867	0.117801	0.498037
	C138	C	0.859896	0.115250	0.514902
	C139	C	0.856319	0.871001	0.497239
	C140	C	0.489926	0.117512	0.883820
	C141	C	0.470767	0.115356	0.124964
	C142	C	0.489849	0.872849	0.127394
	C143	C	0.472476	0.875144	0.886132
	C144	C	0.358429	0.881753	0.686067
	C145	C	0.603470	0.108835	0.684346
	C146	C	0.599643	0.881668	0.327508
	C147	C	0.358140	0.108636	0.324037
	C148	C	0.657014	0.376487	0.891259
	C149	C	0.661376	0.614211	0.119663
	C150	C	0.304252	0.613608	0.891190
	C151	C	0.304250	0.372932	0.119809
	C152	C	0.864509	0.670936	0.383919
	C153	C	0.094411	0.673088	0.628015
	C154	C	0.865403	0.313992	0.626380
	C155	C	0.095935	0.318936	0.388795
	C156	C	0.865239	0.371024	0.683323
	C157	C	0.095186	0.614141	0.683592
	C158	C	0.865208	0.614081	0.326632
	C159	C	0.096255	0.376308	0.332076
	C160	C	0.360749	0.672778	0.891590
	C161	C	0.605423	0.673495	0.119158
	C162	C	0.600110	0.318124	0.891847
	C163	C	0.359710	0.313905	0.118660
	C164	C	0.655419	0.880693	0.387432
	C165	C	0.659107	0.109455	0.624898
	C166	C	0.302769	0.880846	0.626223
	C167	C	0.302812	0.109480	0.383800
	C168	C	0.860785	0.380498	0.184051
	C169	C	0.104224	0.608258	0.184588
	C170	C	0.099252	0.379234	0.829386
	C171	C	0.859476	0.607863	0.824808
	C172	C	0.154988	0.877068	0.390898
	C173	C	0.160282	0.113603	0.620596
	C174	C	0.804468	0.112730	0.391317
	C175	C	0.802449	0.873854	0.620548
	C176	C	0.365793	0.171702	0.883707
	C177	C	0.595323	0.171967	0.125272
	C178	C	0.366291	0.814196	0.125780
	C179	C	0.596628	0.820587	0.887696
	C180	C	0.365300	0.872599	0.181832
	C181	C	0.594800	0.115323	0.182331
	C182	C	0.366134	0.114842	0.826377
	C183	C	0.596350	0.877662	0.830715
	C184	C	0.860405	0.171933	0.392434
	C185	C	0.103546	0.172312	0.620718
	C186	C	0.097481	0.818792	0.391069
	C187	C	0.857969	0.813912	0.619611
	C188	C	0.155345	0.378645	0.888913
	C189	C	0.159807	0.608570	0.124207
	C190	C	0.804206	0.380412	0.124787
	C191	C	0.804547	0.609545	0.885200
	C192	C	0.384370	0.088541	0.603890
	C193	C	0.577460	0.901276	0.607007
	C194	C	0.579046	0.089283	0.405077
	C195	C	0.380439	0.901338	0.405231
	C196	C	0.579888	0.395020	0.099582
	C197	C	0.579560	0.596029	0.911730
	C198	C	0.384143	0.592181	0.099491
	C199	C	0.380396	0.394757	0.911182
	C200	C	0.074923	0.594579	0.409700
	C201	C	0.885184	0.590034	0.602185
	C202	C	0.075700	0.395390	0.606719
	C203	C	0.885077	0.395179	0.407660
	C204	C	0.885408	0.588574	0.104590
	C205	C	0.080461	0.399428	0.109332
	C206	C	0.079943	0.587582	0.905523
	C207	C	0.880489	0.400321	0.906428
	C208	C	0.078114	0.895676	0.599020
	C209	C	0.078527	0.096123	0.412565
	C210	C	0.882593	0.092855	0.600937
	C211	C	0.879029	0.894139	0.411973
	C212	C	0.576545	0.095442	0.907656
	C213	C	0.384622	0.091908	0.101114
	C214	C	0.576144	0.897086	0.105736
	C215	C	0.386222	0.896920	0.908769
	Zn216	Zn	0.481031	-0.004699	0.757610
	Zn217	Zn	0.479151	-0.004270	0.253496
	Zn218	Zn	0.731124	0.495565	0.005323
	Zn219	Zn	0.231440	0.493390	0.005988
	Zn220	Zn	-0.020899	0.743659	0.506050
	Zn221	Zn	-0.019301	0.245269	0.507139
	Zn222	Zn	-0.020038	0.493129	0.754585
	Zn223	Zn	-0.018385	0.494801	0.258622
	Zn224	Zn	0.481855	0.745773	0.005539
	Zn225	Zn	0.480467	0.243691	0.005224
	Zn226	Zn	0.729620	-0.005273	0.506269
	Zn227	Zn	0.230744	-0.005041	0.505532
	N228	N	0.393286	0.959070	0.687040
	N229	N	0.568352	0.031463	0.686667
	N230	N	0.566613	0.959214	0.324851
	N231	N	0.391426	0.031074	0.322753
	N232	N	0.658308	0.410298	0.968210
	N233	N	0.660512	0.580349	0.042571
	N234	N	0.304148	0.578634	0.968284
	N235	N	0.303305	0.408057	0.042938
	N236	N	0.942109	0.672480	0.419686
	N237	N	0.016214	0.673189	0.593070
	N238	N	0.943474	0.314364	0.592892
	N239	N	0.017498	0.317195	0.421910
	N240	N	0.943161	0.406078	0.684785
	N241	N	0.017669	0.578135	0.682536
	N242	N	0.943648	0.580992	0.327243
	N243	N	0.018111	0.409637	0.330280
	N244	N	0.394999	0.674058	0.968990
	N245	N	0.570280	0.675795	0.042083
	N246	N	0.566629	0.315927	0.969172
	N247	N	0.392581	0.312709	0.041083
	N248	N	0.656255	0.957545	0.421705
	N249	N	0.658316	0.032421	0.590966
	N250	N	0.303730	0.957584	0.590475
	N251	N	0.302499	0.032833	0.419365
	N252	N	0.895580	0.457986	0.185697
	N253	N	0.070136	0.530672	0.188304
	N254	N	0.066793	0.456903	0.826277
	N255	N	0.892060	0.530058	0.823318
	N256	N	0.156994	0.910252	0.468144
	N257	N	0.159880	0.080224	0.543250
	N258	N	0.803924	0.078184	0.468487
	N259	N	0.801089	0.908288	0.543364
	N260	N	0.443971	0.173676	0.918355
	N261	N	0.517178	0.172163	0.090301
	N262	N	0.444677	0.814176	0.092925
	N263	N	0.518738	0.819072	0.921567
	N264	N	0.443105	0.908286	0.183167
	N265	N	0.516602	0.080669	0.182129
	N266	N	0.444640	0.082405	0.826010
	N267	N	0.518109	0.910987	0.829635
	N268	N	0.894032	0.173654	0.470207
	N269	N	0.068695	0.174898	0.543618
	N270	N	0.064566	0.816253	0.468671
	N271	N	0.890771	0.811981	0.541900
	N272	N	0.157159	0.456024	0.922105
	N273	N	0.159844	0.531121	0.091173
	N274	N	0.804339	0.457654	0.090226
	N275	N	0.803646	0.532759	0.920619
	O276	O	0.447457	-0.419986	1.538425
	H277	H	0.444968	-0.408639	1.531171
	H278	H	0.448378	-0.425553	1.537531
	O279	O	0.320350	0.568851	0.347585
	H280	H	0.322065	0.557100	0.342759
	H281	H	0.309508	0.562494	0.340359
	O282	O	1.048028	0.884447	-0.043470
	H283	H	1.040049	0.888539	-0.044062
	H284	H	1.045488	0.892387	-0.048440
	O285	O	0.519541	0.412347	0.416533
	H286	H	0.525991	0.411695	0.416150
	H287	H	0.517531	0.412458	0.416755
	O288	O	0.332128	0.457693	0.571341
	H289	H	0.342824	0.469022	0.577338
	H290	H	0.330376	0.462148	0.564121
	O291	O	0.411001	-0.603221	1.551817
	H292	H	0.396190	-0.608183	1.552570
	H293	H	0.406925	-0.607537	1.559133
	O294	O	0.931746	1.044337	0.014262
	H295	H	0.925371	1.048530	0.013572
	H296	H	0.924741	1.049594	0.015551
	O297	O	1.078014	0.992186	-0.015146
	H298	H	1.082160	0.990528	-0.004367
	H299	H	1.070845	1.005390	-0.019050
	O300	O	0.601416	0.631796	0.618799
	H301	H	0.608035	0.646020	0.625341
	H302	H	0.587647	0.626523	0.625749
	O303	O	0.543631	0.508938	0.579606
	H304	H	0.544171	0.510315	0.580580
	H305	H	0.547177	0.511493	0.587510
	O306	O	0.592090	0.422927	0.404163
	H307	H	0.600311	0.425223	0.412930
	H308	H	0.598241	0.436816	0.400450
	O309	O	0.592755	0.467203	0.527856
	H310	H	0.599638	0.469295	0.520206
	H311	H	0.592058	0.474336	0.529874
	O312	O	1.304804	0.585615	1.335465
	H313	H	1.311286	0.586421	1.340148
	H314	H	1.307597	0.584784	1.332678
	O315	O	1.096697	1.065233	-0.009444
	H316	H	1.101375	1.070744	-0.007874
	H317	H	1.088799	1.067194	0.007661
	O318	O	0.886317	-0.113064	0.071640
	H319	H	0.882268	-0.126029	0.080074
	H320	H	0.887720	-0.119076	0.081553
	O321	O	0.413797	0.526360	0.576523
	H322	H	0.404417	0.519373	0.580647
	H323	H	0.415739	0.542511	0.574621
	O324	O	-0.039745	1.035325	0.922067
	H325	H	-0.037914	1.033580	0.916992
	H326	H	-0.044268	1.035755	0.923352
	O327	O	-0.036399	0.967278	0.953840
	H328	H	-0.033690	0.964006	0.944312
	H329	H	-0.044916	0.969025	0.963425
	O330	O	-0.615750	0.433730	0.393452
	H331	H	-0.616848	0.425516	0.393351
	H332	H	-0.616672	0.420574	0.409597
	O333	O	0.568708	0.443699	0.471944
	H334	H	0.560048	0.451922	0.490375
	H335	H	0.564088	0.436466	0.471821
	O336	O	0.039434	0.130635	0.025950
	H337	H	0.029330	0.125106	0.029610
	H338	H	0.029007	0.129411	0.026275
	O339	O	-0.029929	0.076402	0.016275
	H340	H	-0.029199	0.069625	0.011575
	H341	H	-0.018972	0.076859	0.009752
	O342	O	0.497453	0.545643	0.526419
	H343	H	0.502245	0.554443	0.517562
	H344	H	0.496288	0.552634	0.531757
	O345	O	-0.035519	0.918535	0.898455
	H346	H	-0.032012	0.912110	0.903603
	H347	H	-0.044616	0.912081	0.897058
	O348	O	0.563808	0.542816	0.531148
	H349	H	0.569749	0.535494	0.530222
	H350	H	0.575403	0.546782	0.540058
	O351	O	0.445174	0.453516	0.549512
	H352	H	0.449960	0.458862	0.553838
	H353	H	0.444000	0.438566	0.549298
	O354	O	0.966796	0.930699	-0.910761
	H355	H	0.968116	0.925110	-0.920008
	H356	H	0.970439	0.932777	-0.918394
	O357	O	1.108820	1.047724	1.080023
	H358	H	1.099769	1.053362	1.085703
	H359	H	1.114710	1.059225	1.083895
	O360	O	1.013034	0.018713	1.003301
	H361	H	1.012280	0.013456	0.999593
	H362	H	1.027536	0.015802	1.000155
	O363	O	-0.045296	0.867473	0.125456
	H364	H	-0.036303	0.871435	0.127524
	H365	H	-0.038182	0.868476	0.120586
	O366	O	0.415563	0.607358	0.542099
	H367	H	0.405532	0.612216	0.515393
	H368	H	0.408825	0.606728	0.546840
	O369	O	1.088154	0.030503	0.014996
	H370	H	1.089142	0.036864	0.016988
	H371	H	1.088789	0.028024	0.015859
	O372	O	0.485749	0.648350	0.342860
	H373	H	0.477919	0.649029	0.338699
	H374	H	0.473960	0.649415	0.326519
	O375	O	0.934926	0.065152	1.011713
	H376	H	0.939782	0.066592	1.030544
	H377	H	0.930176	0.064369	0.997558
	O378	O	-0.640051	1.479169	-0.503345
	H379	H	-0.637179	1.491186	-0.504349
	H380	H	-0.644502	1.469399	-0.488887
	O381	O	0.449435	0.538220	0.354219
	H382	H	0.453422	0.544347	0.348998
	H383	H	0.448805	0.528974	0.348784
	O384	O	1.531699	1.535489	-0.322859
	H385	H	1.522573	1.527608	-0.328083
	H386	H	1.527930	1.541138	-0.326883
	O387	O	0.885695	0.025953	0.935356
	H388	H	0.891281	0.023228	0.937019
	H389	H	0.887799	0.030238	0.938573
	O390	O	1.546773	0.414478	0.638685
	H391	H	1.552914	0.406033	0.619302
	H392	H	1.539395	0.425290	0.647954
	O393	O	0.888058	1.025933	0.067474
	H394	H	0.873338	1.025664	0.067749
	H395	H	0.888275	1.036120	0.065389
