data_Molecule from HDF5

_cell_length_a		16.715086
_cell_length_b		16.672138
_cell_length_c		16.514057
_cell_angle_alpha	89.938882
_cell_angle_beta	89.875732
_cell_angle_gamma	89.972143
_symmetry_space_group_name_H-M	'P 1'
_symmetry_Int_Tables_number		1

loop_
	_symmetry_equiv_pos_as_xyz
	x,y,z

loop_
	_atom_site_label
	_atom_site_type_symbol
	_atom_site_fract_x
	_atom_site_fract_y
	_atom_site_fract_z
	H0	H	0.401701	0.847771	0.708059
	H1	H	0.607415	0.159514	0.711477
	H2	H	0.602880	0.847674	0.271550
	H3	H	0.398055	0.160343	0.270712
	H4	H	0.719782	0.402432	0.834755
	H5	H	0.716462	0.605933	0.150249
	H6	H	0.280985	0.608281	0.834612
	H7	H	0.278341	0.396452	0.146348
	H8	H	0.847064	0.726217	0.387340
	H9	H	0.158289	0.722858	0.594297
	H10	H	0.848058	0.279079	0.602181
	H11	H	0.155266	0.281562	0.384005
	H12	H	0.845571	0.399487	0.713188
	H13	H	0.158265	0.605378	0.709547
	H14	H	0.846745	0.610503	0.270017
	H15	H	0.154649	0.397692	0.268521
	H16	H	0.396717	0.723895	0.833993
	H17	H	0.600238	0.721244	0.150385
	H18	H	0.605437	0.285306	0.834531
	H19	H	0.395488	0.281933	0.146287
	H20	H	0.721995	0.849118	0.384690
	H21	H	0.725569	0.158198	0.596452
	H22	H	0.284036	0.848336	0.592732
	H23	H	0.280338	0.160215	0.386238
	H24	H	0.895203	0.349063	0.213233
	H25	H	0.102690	0.660300	0.208919
	H26	H	0.103920	0.347925	0.771729
	H27	H	0.899889	0.661351	0.773664
	H28	H	0.217034	0.904702	0.331444
	H29	H	0.221299	0.108180	0.647864
	H30	H	0.782644	0.108720	0.333847
	H31	H	0.779745	0.899022	0.645978
	H32	H	0.346717	0.224399	0.887038
	H33	H	0.653621	0.229490	0.100084
	H34	H	0.343855	0.787634	0.092166
	H35	H	0.657327	0.785577	0.888440
	H36	H	0.344111	0.904454	0.207772
	H37	H	0.655423	0.109746	0.212938
	H38	H	0.345147	0.106210	0.772584
	H39	H	0.657831	0.902937	0.772041
	H40	H	0.896735	0.226397	0.336158
	H41	H	0.105625	0.223757	0.648285
	H42	H	0.100408	0.789344	0.331449
	H43	H	0.900739	0.788008	0.649267
	H44	H	0.222244	0.348776	0.886365
	H45	H	0.222967	0.657218	0.096810
	H46	H	0.777188	0.350082	0.099045
	H47	H	0.781330	0.661013	0.888534
	H48	H	0.411560	0.115916	0.578091
	H49	H	0.592699	0.891753	0.581595
	H50	H	0.587158	0.113167	0.405963
	H51	H	0.405313	0.893251	0.405260
	H52	H	0.585293	0.413266	0.103099
	H53	H	0.593801	0.598990	0.876938
	H54	H	0.414496	0.590542	0.101002
	H55	H	0.415061	0.418064	0.880522
	H56	H	0.113450	0.596687	0.402207
	H57	H	0.890397	0.596864	0.580146
	H58	H	0.110098	0.416409	0.578984
	H59	H	0.891278	0.415223	0.404630
	H60	H	0.112562	0.414731	0.583043
	H61	H	0.891140	0.593903	0.583442
	H62	H	0.112426	0.593806	0.398704
	H63	H	0.890813	0.416270	0.406259
	H64	H	0.411638	0.601046	0.105987
	H65	H	0.594303	0.593555	0.877837
	H66	H	0.591496	0.413830	0.106046
	H67	H	0.413101	0.414883	0.878921
	H68	H	0.597141	0.116393	0.404002
	H69	H	0.587911	0.894634	0.579548
	H70	H	0.406470	0.118565	0.580595
	H71	H	0.406029	0.889595	0.393996
	H72	H	0.907446	0.617013	0.081860
	H73	H	0.090069	0.392454	0.079164
	H74	H	0.092910	0.615499	0.901945
	H75	H	0.917253	0.395612	0.902721
	H76	H	0.098392	0.911705	0.606289
	H77	H	0.099085	0.092052	0.375457
	H78	H	0.915721	0.095398	0.604100
	H79	H	0.912521	0.910134	0.376500
	H80	H	0.614578	0.097456	0.900840
	H81	H	0.394261	0.084666	0.079171
	H82	H	0.611941	0.915067	0.081194
	H83	H	0.390869	0.914629	0.903676
	H84	H	0.614792	0.911806	0.084186
	H85	H	0.387251	0.096052	0.083627
	H86	H	0.611441	0.093751	0.904272
	H87	H	0.388519	0.916413	0.894406
	H88	H	0.907701	0.086734	0.603273
	H89	H	0.085557	0.086017	0.383416
	H90	H	0.093877	0.914534	0.604275
	H91	H	0.908659	0.913490	0.375426
	H92	H	0.091850	0.615758	0.900544
	H93	H	0.089975	0.391879	0.079410
	H94	H	0.911812	0.615893	0.082920
	H95	H	0.905016	0.393047	0.910060
	H96	H	0.411536	0.117572	0.583848
	H97	H	0.592764	0.893981	0.576070
	H98	H	0.589546	0.116916	0.396419
	H99	H	0.415500	0.894573	0.399380
	H100	H	0.588719	0.419133	0.103026
	H101	H	0.589512	0.596178	0.879370
	H102	H	0.404039	0.592101	0.105529
	H103	H	0.411639	0.418758	0.878788
	H104	H	0.114532	0.597116	0.398084
	H105	H	0.889433	0.598055	0.584316
	H106	H	0.112034	0.411434	0.578932
	H107	H	0.891308	0.417144	0.404850
	H108	H	0.909819	0.614651	0.078723
	H109	H	0.089156	0.392330	0.079596
	H110	H	0.090945	0.615227	0.902085
	H111	H	0.906180	0.389537	0.895920
	H112	H	0.093139	0.909123	0.605856
	H113	H	0.085565	0.101489	0.377350
	H114	H	0.918494	0.084890	0.598748
	H115	H	0.913038	0.915339	0.377296
	H116	H	0.613079	0.091897	0.898516
	H117	H	0.392789	0.096085	0.070498
	H118	H	0.613217	0.910049	0.079509
	H119	H	0.386945	0.907282	0.898320
	C120	C	0.380052	0.013407	0.611673
	C121	C	0.623423	0.995995	0.611351
	C122	C	0.622078	0.012526	0.369593
	C123	C	0.378957	0.995905	0.368815
	C124	C	0.621072	0.383698	0.000342
	C125	C	0.621382	0.625839	0.983280
	C126	C	0.379206	0.625499	0.000048
	C127	C	0.380663	0.384044	0.982558
	C128	C	0.010436	0.626760	0.369366
	C129	C	0.993581	0.626066	0.613277
	C130	C	0.009561	0.382390	0.613402
	C131	C	0.993008	0.383267	0.371572
	C132	C	0.878050	0.512992	0.113650
	C133	C	0.121375	0.494880	0.111717
	C134	C	0.122994	0.512295	0.870102
	C135	C	0.878972	0.496222	0.870916
	C136	C	0.123263	0.883190	0.499592
	C137	C	0.122403	0.125257	0.482602
	C138	C	0.881542	0.123254	0.499384
	C139	C	0.880646	0.882492	0.481284
	C140	C	0.510205	0.125837	0.869498
	C141	C	0.492753	0.125422	0.111521
	C142	C	0.509253	0.883055	0.111985
	C143	C	0.492539	0.882553	0.868690
	C144	C	0.381388	0.895008	0.669347
	C145	C	0.625875	0.112820	0.671433
	C146	C	0.622479	0.894915	0.310615
	C147	C	0.378834	0.113667	0.310319
	C148	C	0.679979	0.383253	0.881921
	C149	C	0.677622	0.625203	0.102959
	C150	C	0.320487	0.626798	0.881760
	C151	C	0.319422	0.379522	0.099714
	C152	C	0.893471	0.686155	0.368449
	C153	C	0.111234	0.683393	0.613501
	C154	C	0.893817	0.320721	0.618382
	C155	C	0.108606	0.322195	0.367093
	C156	C	0.892814	0.380521	0.673854
	C157	C	0.111266	0.624908	0.670760
	C158	C	0.893308	0.628649	0.310323
	C159	C	0.108736	0.380146	0.309572
	C160	C	0.377855	0.684443	0.881467
	C161	C	0.619715	0.682238	0.102866
	C162	C	0.623402	0.324920	0.881869
	C163	C	0.377456	0.322571	0.099712
	C164	C	0.681492	0.895482	0.366897
	C165	C	0.684666	0.112012	0.614482
	C166	C	0.323073	0.895300	0.612095
	C167	C	0.320229	0.113490	0.367585
	C168	C	0.876199	0.395896	0.173574
	C169	C	0.122003	0.612746	0.170139
	C170	C	0.123594	0.394957	0.810993
	C171	C	0.879749	0.614226	0.812529
	C172	C	0.178600	0.884834	0.379137
	C173	C	0.181687	0.126837	0.600686
	C174	C	0.822208	0.126856	0.381237
	C175	C	0.820615	0.880851	0.599293
	C176	C	0.393040	0.184559	0.868199
	C177	C	0.608206	0.187519	0.116427
	C178	C	0.390986	0.826569	0.111666
	C179	C	0.610460	0.824917	0.868918
	C180	C	0.390978	0.884724	0.169039
	C181	C	0.609035	0.128429	0.172905
	C182	C	0.392550	0.125961	0.811265
	C183	C	0.610832	0.883092	0.811201
	C184	C	0.878699	0.185350	0.382392
	C185	C	0.124108	0.184190	0.600941
	C186	C	0.120995	0.827538	0.379173
	C187	C	0.880382	0.825494	0.600917
	C188	C	0.182393	0.395328	0.867767
	C189	C	0.181699	0.611470	0.114264
	C190	C	0.817647	0.396472	0.116736
	C191	C	0.820925	0.614015	0.869620
	C192	C	0.403137	0.095834	0.587579
	C193	C	0.598208	0.914542	0.586170
	C194	C	0.598049	0.094350	0.394805
	C195	C	0.402343	0.913857	0.392763
	C196	C	0.595776	0.408412	0.082715
	C197	C	0.598960	0.602850	0.899886
	C198	C	0.403303	0.601421	0.082742
	C199	C	0.406092	0.409979	0.900830
	C200	C	0.092118	0.602723	0.392976
	C201	C	0.911513	0.603088	0.589293
	C202	C	0.090444	0.407133	0.587607
	C203	C	0.912138	0.408955	0.397838
	C204	C	0.902667	0.594529	0.088429
	C205	C	0.096852	0.413361	0.086617
	C206	C	0.098842	0.594082	0.894510
	C207	C	0.902632	0.414111	0.895738
	C208	C	0.101446	0.905280	0.583417
	C209	C	0.097327	0.100294	0.400134
	C210	C	0.906797	0.096711	0.580864
	C211	C	0.904700	0.906061	0.398046
	C212	C	0.591914	0.101488	0.894178
	C213	C	0.412396	0.099589	0.085292
	C214	C	0.591668	0.905771	0.088475
	C215	C	0.410372	0.905939	0.892007
	Zn216	Zn	0.501996	0.004927	0.739997
	Zn217	Zn	0.501217	0.004660	0.240764
	Zn218	Zn	0.749708	0.504688	-0.007502
	Zn219	Zn	0.251700	0.503281	-0.008888
	Zn220	Zn	0.002482	0.755229	0.491614
	Zn221	Zn	0.000773	0.253379	0.492463
	Zn222	Zn	0.001286	0.504215	0.742204
	Zn223	Zn	0.000453	0.503570	0.241214
	Zn224	Zn	0.500554	0.753789	-0.008862
	Zn225	Zn	0.500949	0.254974	-0.009075
	Zn226	Zn	0.752330	0.004022	0.489809
	Zn227	Zn	0.250796	0.004640	0.490440
	N228	N	0.415935	0.969734	0.669491
	N229	N	0.588590	0.039507	0.669733
	N230	N	0.586238	0.968872	0.312088
	N231	N	0.414473	0.039655	0.310805
	N232	N	0.678640	0.419314	0.956687
	N233	N	0.679049	0.590837	0.027463
	N234	N	0.320808	0.591177	0.956743
	N235	N	0.321382	0.417169	0.025977
	N236	N	0.967438	0.685372	0.404182
	N237	N	0.037022	0.684368	0.578283
	N238	N	0.967417	0.321488	0.581472
	N239	N	0.035629	0.323932	0.404990
	N240	N	0.965730	0.418162	0.671099
	N241	N	0.036987	0.589989	0.670850
	N242	N	0.967068	0.592343	0.310415
	N243	N	0.035640	0.417806	0.312226
	N244	N	0.413720	0.684059	0.956248
	N245	N	0.585792	0.682998	0.027295
	N246	N	0.587592	0.324891	0.956761
	N247	N	0.415073	0.325194	0.025869
	N248	N	0.681655	0.969660	0.402739
	N249	N	0.683332	0.038206	0.577736
	N250	N	0.321884	0.969959	0.577125
	N251	N	0.319872	0.039106	0.402897
	N252	N	0.913027	0.469356	0.171853
	N253	N	0.085375	0.539109	0.168859
	N254	N	0.087238	0.468642	0.812325
	N255	N	0.914928	0.539817	0.812972
	N256	N	0.180527	0.918417	0.455132
	N257	N	0.180846	0.090925	0.525885
	N258	N	0.823722	0.089036	0.455004
	N259	N	0.820469	0.915321	0.523726
	N260	N	0.467353	0.184886	0.903526
	N261	N	0.535079	0.185890	0.078979
	N262	N	0.465731	0.824959	0.077320
	N263	N	0.535696	0.823947	0.903683
	N264	N	0.465691	0.918854	0.169595
	N265	N	0.536294	0.090440	0.170074
	N266	N	0.466610	0.090342	0.811624
	N267	N	0.536509	0.918059	0.810703
	N268	N	0.914888	0.183402	0.456910
	N269	N	0.087928	0.183430	0.526306
	N270	N	0.087675	0.825849	0.455197
	N271	N	0.917060	0.826415	0.526259
	N272	N	0.182199	0.469435	0.903645
	N273	N	0.181632	0.537039	0.078744
	N274	N	0.818361	0.470479	0.080382
	N275	N	0.820062	0.539435	0.905003
	O276	O	0.289921	1.296922	0.283689
	H277	H	0.288401	1.293536	0.284009
	H278	H	0.294062	1.305176	0.290903
	O279	O	-0.013352	0.185320	0.095713
	H280	H	-0.009120	0.182928	0.095919
	H281	H	-0.011544	0.189885	0.093420
	O282	O	1.070261	0.146355	1.133399
	H283	H	1.068938	0.141561	1.139122
	H284	H	1.052944	0.142870	1.127262
	O285	O	0.574886	0.282338	0.542538
	H286	H	0.590594	0.277668	0.537408
	H287	H	0.570390	0.300553	0.556494
	O288	O	0.665093	0.731456	0.508026
	H289	H	0.649768	0.725201	0.500838
	H290	H	0.684160	0.754244	0.506194
	O291	O	0.280684	0.281814	0.525806
	H292	H	0.256658	0.269137	0.529479
	H293	H	0.282395	0.283787	0.517513
	O294	O	0.880391	0.146678	0.971683
	H295	H	0.875370	0.149107	0.963064
	H296	H	0.880550	0.150208	0.979329
	O297	O	0.500135	0.614388	0.383445
	H298	H	0.496041	0.604374	0.390120
	H299	H	0.490510	0.600093	0.376603
	O300	O	-0.023040	0.223538	0.776852
	H301	H	-0.040273	0.235648	0.755158
	H302	H	-0.045031	0.221395	0.766926
	O303	O	0.731165	0.626936	0.483803
	H304	H	0.735029	0.626026	0.461538
	H305	H	0.733883	0.638889	0.476701
	O306	O	0.722326	0.293525	0.475430
	H307	H	0.751533	0.278519	0.480555
	H308	H	0.710916	0.315891	0.476560
	O309	O	0.313831	0.697802	0.677096
	H310	H	0.311873	0.701198	0.672665
	H311	H	0.335814	0.672217	0.673679
	O312	O	0.538887	0.726483	0.714841
	H313	H	0.542961	0.748269	0.742924
	H314	H	0.570373	0.725035	0.715388
	O315	O	1.052813	0.790437	1.030904
	H316	H	1.043646	0.791027	1.033876
	H317	H	1.072167	0.796250	1.023577
	O318	O	0.338298	0.536522	0.325542
	H319	H	0.333751	0.557698	0.322521
	H320	H	0.322022	0.546649	0.317429
	O321	O	0.210585	0.793438	0.782437
	H322	H	0.184455	0.788191	0.804867
	H323	H	0.231566	0.775790	0.783314
	O324	O	0.960700	0.779693	-0.042469
	H325	H	0.966591	0.778477	-0.038990
	H326	H	0.964485	0.779952	-0.053255
	O327	O	-0.026666	0.154505	0.963207
	H328	H	-0.033786	0.142505	0.965184
	H329	H	-0.025395	0.158726	0.969644
	O330	O	0.728531	0.515198	0.338940
	H331	H	0.718453	0.494101	0.334234
	H332	H	0.731004	0.500560	0.323698
	O333	O	0.624269	0.307896	0.691718
	H334	H	0.610158	0.307886	0.685930
	H335	H	0.596433	0.324967	0.675827
	O336	O	0.716546	0.358277	0.284199
	H337	H	0.717211	0.365196	0.301287
	H338	H	0.689850	0.360613	0.273841
	O339	O	1.187327	-0.035210	0.951807
	H340	H	1.188993	-0.026034	0.968090
	H341	H	1.173624	-0.028087	0.949655
	O342	O	-0.028200	-0.033443	0.177356
	H343	H	-0.038471	-0.042061	0.148293
	H344	H	-0.043963	-0.056505	0.185191
	O345	O	-0.128730	1.085747	0.782353
	H346	H	-0.136737	1.112846	0.766179
	H347	H	-0.141091	1.090221	0.798730
	O348	O	0.132588	-0.014169	0.170470
	H349	H	0.096199	-0.007205	0.179788
	H350	H	0.142388	0.004078	0.189048
	O351	O	0.698605	0.698813	0.302392
	H352	H	0.686941	0.669806	0.319672
	H353	H	0.672781	0.688059	0.323119
	O354	O	0.201063	-0.158952	1.139090
	H355	H	0.192261	-0.145671	1.132669
	H356	H	0.190302	-0.137075	1.124118
	O357	O	0.479685	0.580831	0.638389
	H358	H	0.485000	0.576776	0.652293
	H359	H	0.496980	0.579551	0.633986
	O360	O	0.197789	0.200003	0.797736
	H361	H	0.179114	0.193159	0.819595
	H362	H	0.184413	0.183640	0.815559
	O363	O	0.214179	-0.217731	-0.039086
	H364	H	0.218215	-0.184761	-0.026777
	H365	H	0.232354	-0.237419	-0.037802
	O366	O	0.531191	0.508040	0.714355
	H367	H	0.535322	0.508990	0.715150
	H368	H	0.532303	0.512386	0.716993
	O369	O	0.803450	0.203366	0.183934
	H370	H	0.812149	0.204694	0.199250
	H371	H	0.782092	0.213735	0.193278
	O372	O	0.772181	0.778436	0.028615
	H373	H	0.781459	0.781218	0.073261
	H374	H	0.742964	0.743118	0.030634
	O375	O	0.782278	-0.033663	0.203642
	H376	H	0.785671	-0.034977	0.204167
	H377	H	0.768655	-0.033814	0.219415
	O378	O	0.436814	0.721844	0.538767
	H379	H	0.450027	0.718100	0.546934
	H380	H	0.438178	0.715829	0.547426
	O381	O	0.042738	0.788756	0.775796
	H382	H	0.050860	0.783517	0.772131
	H383	H	0.035317	0.788824	0.759958
	O384	O	0.792414	0.014329	0.778290
	H385	H	0.774539	0.019248	0.795450
	H386	H	0.784929	0.045337	0.770239
	O387	O	0.984466	0.900358	-0.164180
	H388	H	0.978472	0.899198	-0.166695
	H389	H	0.978121	0.916604	-0.164608
	O390	O	0.528653	0.298186	0.284577
	H391	H	0.519486	0.292526	0.290666
	H392	H	0.514831	0.306164	0.278076
	O393	O	0.268730	0.567793	0.525957
	H394	H	0.271157	0.573498	0.513362
	H395	H	0.271684	0.554054	0.528080
	O396	O	0.224504	0.967451	0.766913
	H397	H	0.242976	0.942506	0.753226
	H398	H	0.236061	0.943543	0.763058
	O399	O	0.137606	0.064432	0.928113
	H400	H	0.134098	0.057209	0.925535
	H401	H	0.129686	0.048566	0.927549
	O402	O	0.361752	0.476533	0.481494
	H403	H	0.361287	0.467702	0.476404
	H404	H	0.363011	0.471240	0.475023
	O405	O	1.075038	-0.010566	0.986317
	H406	H	1.066119	-0.020715	0.981936
	H407	H	1.067657	-0.002727	0.980523
	O408	O	0.211617	0.211660	0.021107
	H409	H	0.219893	0.220590	0.011945
	H410	H	0.200072	0.210336	0.009127
	O411	O	0.709731	0.711283	0.699485
	H412	H	0.743770	0.744763	0.729137
	H413	H	0.709901	0.720038	0.654207
	O414	O	0.544756	0.478459	0.462319
	H415	H	0.542230	0.471523	0.465653
	H416	H	0.541205	0.480213	0.461134
	O417	O	0.570087	0.667840	0.472746
	H418	H	0.558449	0.676544	0.468229
	H419	H	0.550831	0.658449	0.491706
	O420	O	0.461681	0.297634	0.664185
	H421	H	0.445517	0.296672	0.676140
	H422	H	0.444666	0.287700	0.674302
	O423	O	-0.133632	0.223409	1.012320
	H424	H	-0.161876	0.226391	1.014992
	H425	H	-0.126077	0.217345	1.023919
	O426	O	0.289147	0.713422	0.278386
	H427	H	0.263664	0.737667	0.273459
	H428	H	0.300117	0.719635	0.314106
	O429	O	0.809741	0.813046	0.797393
	H430	H	0.842494	0.825870	0.811258
	H431	H	0.808468	0.846327	0.819466
	O432	O	0.453041	0.701585	0.288503
	H433	H	0.429341	0.702469	0.290442
	H434	H	0.446909	0.719558	0.271081
	O435	O	0.271777	0.728316	0.447613
	H436	H	0.254728	0.750466	0.459549
	H437	H	0.274414	0.720859	0.466023
	O438	O	0.551764	-0.423175	0.289690
	H439	H	0.556869	-0.425160	0.297885
	H440	H	0.545344	-0.407218	0.279033
	O441	O	-0.074275	0.101794	0.202688
	H442	H	-0.083861	0.114380	0.207483
	H443	H	-0.070853	0.077072	0.197132
	O444	O	0.439905	0.278794	0.428098
	H445	H	0.450725	0.273368	0.453146
	H446	H	0.439457	0.281018	0.426323
	O447	O	0.217641	1.179567	1.142801
	H448	H	0.204392	1.188971	1.160182
	H449	H	0.221913	1.179922	1.113403
	O450	O	-0.215236	0.927911	0.944722
	H451	H	-0.202432	0.938411	0.963092
	H452	H	-0.227338	0.903790	0.969142
	O453	O	0.300478	0.473623	0.687624
	H454	H	0.284834	0.476090	0.713450
	H455	H	0.295973	0.459908	0.671219
	O456	O	0.067549	0.228919	0.941687
	H457	H	0.050869	0.227712	0.905120
	H458	H	0.045693	0.234042	0.963676
	O459	O	0.794696	0.796313	0.198427
	H460	H	0.815541	0.819767	0.202340
	H461	H	0.763281	0.765908	0.233727
	O462	O	0.631398	0.401204	0.352615
	H463	H	0.613084	0.391949	0.371686
	H464	H	0.625369	0.406650	0.357202
	O465	O	0.768752	0.061077	0.026080
	H466	H	0.774294	0.065327	0.043581
	H467	H	0.784509	0.053206	0.011566
	O468	O	0.469095	0.397896	0.564720
	H469	H	0.485136	0.410543	0.576418
	H470	H	0.453737	0.407023	0.579462
	O471	O	0.305335	0.491054	0.565700
	H472	H	0.314078	0.486792	0.555431
	H473	H	0.291985	0.477250	0.575535
	O474	O	0.378228	0.467757	0.410992
	H475	H	0.375394	0.478032	0.409366
	H476	H	0.365306	0.460911	0.415194
	O477	O	0.432815	0.454933	1.261524
	H478	H	0.400730	0.463476	1.262457
	H479	H	0.433262	0.465034	1.254448
	O480	O	0.303185	0.295543	0.695050
	H481	H	0.271294	0.267897	0.726863
	H482	H	0.296793	0.309550	0.670549
	O483	O	0.725690	0.541173	0.711010
	H484	H	0.733918	0.569252	0.723355
	H485	H	0.736391	0.564366	0.724426
	O486	O	0.757309	0.249685	0.755800
	H487	H	0.748449	0.264609	0.792300
	H488	H	0.726620	0.273571	0.724093
	O489	O	0.963806	0.784623	0.206068
	H490	H	0.960224	0.780639	0.190630
	H491	H	0.959822	0.759737	0.226247
	O492	O	0.213283	-0.018909	0.196655
	H493	H	0.234205	-0.006159	0.227218
	H494	H	0.207687	0.005308	0.199222
	O495	O	-0.070996	0.934807	1.048144
	H496	H	-0.083664	0.934676	1.040476
	H497	H	-0.063772	0.925797	1.038606
	O498	O	1.049448	1.029976	0.766793
	H499	H	1.064199	1.029149	0.762066
	H500	H	1.056468	1.035340	0.760762
	O501	O	0.730839	0.451020	0.548883
	H502	H	0.729715	0.466210	0.556216
	H503	H	0.732792	0.467735	0.561777
