data_Molecule from HDF5

_cell_length_a		16.336012
_cell_length_b		16.182904
_cell_length_c		16.523936
_cell_angle_alpha	90.309853
_cell_angle_beta	90.267064
_cell_angle_gamma	90.185365
_symmetry_space_group_name_H-M	'P 1'
_symmetry_Int_Tables_number		1

loop_
	_symmetry_equiv_pos_as_xyz
	x,y,z

loop_
	_atom_site_label
	_atom_site_type_symbol
	_atom_site_fract_x
	_atom_site_fract_y
	_atom_site_fract_z
	H0	H	0.389974	0.830822	0.722679
	H1	H	0.602194	0.152144	0.727543
	H2	H	0.600394	0.829590	0.284065
	H3	H	0.388914	0.149572	0.282187
	H4	H	0.714445	0.384953	0.844546
	H5	H	0.717717	0.599814	0.160779
	H6	H	0.274026	0.594483	0.844212
	H7	H	0.273849	0.389531	0.161081
	H8	H	0.833930	0.708766	0.401688
	H9	H	0.157967	0.707238	0.602247
	H10	H	0.833859	0.274366	0.600342
	H11	H	0.158032	0.276085	0.403291
	H12	H	0.836318	0.382723	0.723426
	H13	H	0.155469	0.595903	0.723352
	H14	H	0.835746	0.598288	0.280961
	H15	H	0.155472	0.389007	0.283144
	H16	H	0.392091	0.709615	0.844024
	H17	H	0.596414	0.709764	0.163511
	H18	H	0.595202	0.269660	0.845218
	H19	H	0.390589	0.273541	0.162954
	H20	H	0.711836	0.828176	0.402481
	H21	H	0.714495	0.153780	0.608892
	H22	H	0.280346	0.828058	0.603197
	H23	H	0.279855	0.152579	0.402823
	H24	H	0.888163	0.331224	0.221067
	H25	H	0.098082	0.653817	0.221841
	H26	H	0.100649	0.329867	0.782165
	H27	H	0.890567	0.651932	0.782530
	H28	H	0.214260	0.886991	0.344938
	H29	H	0.217367	0.096944	0.662810
	H30	H	0.772403	0.095477	0.346236
	H31	H	0.774310	0.885985	0.663120
	H32	H	0.331701	0.207482	0.903308
	H33	H	0.654968	0.212136	0.108342
	H34	H	0.333189	0.774299	0.102633
	H35	H	0.657146	0.774456	0.903865
	H36	H	0.336919	0.882806	0.224402
	H37	H	0.654960	0.096844	0.225807
	H38	H	0.335608	0.098271	0.781377
	H39	H	0.654576	0.884107	0.782543
	H40	H	0.894580	0.206012	0.342882
	H41	H	0.098607	0.210738	0.663339
	H42	H	0.093075	0.774562	0.342730
	H43	H	0.892353	0.770693	0.662715
	H44	H	0.213856	0.329650	0.898549
	H45	H	0.210835	0.655695	0.103531
	H46	H	0.776047	0.331088	0.103519
	H47	H	0.777503	0.653643	0.898954
	H48	H	0.412216	0.104086	0.589421
	H49	H	0.583857	0.875233	0.595847
	H50	H	0.592840	0.107269	0.419601
	H51	H	0.408745	0.875743	0.412547
	H52	H	0.586926	0.405399	0.115593
	H53	H	0.582931	0.583774	0.889977
	H54	H	0.402264	0.583683	0.117739
	H55	H	0.403370	0.398432	0.889439
	H56	H	0.109839	0.581703	0.413111
	H57	H	0.882124	0.574472	0.594703
	H58	H	0.111190	0.404018	0.598537
	H59	H	0.879904	0.401484	0.408512
	H60	H	0.110821	0.399290	0.592501
	H61	H	0.879259	0.581765	0.596800
	H62	H	0.109150	0.579036	0.411161
	H63	H	0.880258	0.398950	0.410096
	H64	H	0.402627	0.581133	0.116755
	H65	H	0.589333	0.582473	0.888017
	H66	H	0.584781	0.403097	0.116241
	H67	H	0.401077	0.401022	0.889841
	H68	H	0.580294	0.108954	0.405033
	H69	H	0.581787	0.877170	0.594385
	H70	H	0.400242	0.109200	0.592435
	H71	H	0.404662	0.874150	0.415361
	H72	H	0.914698	0.603253	0.086589
	H73	H	0.089601	0.373589	0.095125
	H74	H	0.088947	0.608375	0.912160
	H75	H	0.902304	0.378859	0.923564
	H76	H	0.090334	0.901392	0.617954
	H77	H	0.084058	0.072789	0.394393
	H78	H	0.901767	0.085693	0.619792
	H79	H	0.903389	0.899886	0.391081
	H80	H	0.608221	0.080450	0.916150
	H81	H	0.382103	0.076752	0.094788
	H82	H	0.610711	0.898967	0.093261
	H83	H	0.383685	0.903786	0.919236
	H84	H	0.608524	0.906225	0.092692
	H85	H	0.379216	0.079370	0.098973
	H86	H	0.606516	0.078909	0.917347
	H87	H	0.381836	0.908150	0.908379
	H88	H	0.903513	0.076211	0.615608
	H89	H	0.082455	0.090671	0.388822
	H90	H	0.086508	0.903168	0.616774
	H91	H	0.901477	0.901304	0.390527
	H92	H	0.079661	0.606305	0.908457
	H93	H	0.079674	0.377122	0.096014
	H94	H	0.898804	0.609451	0.089144
	H95	H	0.897455	0.370746	0.904626
	H96	H	0.410628	0.109082	0.601353
	H97	H	0.584007	0.876843	0.593429
	H98	H	0.574765	0.100615	0.421651
	H99	H	0.404975	0.873290	0.410794
	H100	H	0.587798	0.403017	0.116878
	H101	H	0.584915	0.577987	0.891313
	H102	H	0.404519	0.582758	0.116588
	H103	H	0.404548	0.402137	0.890316
	H104	H	0.110901	0.581829	0.409590
	H105	H	0.881872	0.580588	0.590198
	H106	H	0.108064	0.407113	0.592309
	H107	H	0.881026	0.401049	0.411183
	H108	H	0.910281	0.610112	0.102552
	H109	H	0.084462	0.377938	0.086619
	H110	H	0.082703	0.604235	0.917915
	H111	H	0.916949	0.378670	0.908460
	H112	H	0.086719	0.898357	0.617710
	H113	H	0.098238	0.081586	0.387011
	H114	H	0.910782	0.083040	0.615982
	H115	H	0.903339	0.901624	0.392273
	H116	H	0.607668	0.078295	0.915160
	H117	H	0.379777	0.081630	0.093847
	H118	H	0.611103	0.903453	0.099122
	H119	H	0.379141	0.896533	0.910327
	C120	C	0.375672	0.000114	0.624769
	C121	C	0.616132	0.983072	0.626674
	C122	C	0.615022	-0.001110	0.384151
	C123	C	0.374321	0.981163	0.382044
	C124	C	0.616765	0.370279	0.011851
	C125	C	0.617127	0.613531	0.994696
	C126	C	0.372555	0.613234	0.011792
	C127	C	0.371758	0.369524	0.994818
	C128	C	0.003686	0.612314	0.380935
	C129	C	0.987130	0.611612	0.624631
	C130	C	0.004037	0.370411	0.624304
	C131	C	0.986844	0.369598	0.380005
	C132	C	0.874681	0.501122	0.123676
	C133	C	0.115524	0.483647	0.123437
	C134	C	0.115717	0.499760	0.881518
	C135	C	0.873907	0.482632	0.880970
	C136	C	0.117109	0.869827	0.511924
	C137	C	0.119100	0.113080	0.495399
	C138	C	0.873776	0.112243	0.512132
	C139	C	0.872212	0.868937	0.495938
	C140	C	0.501872	0.111364	0.884067
	C141	C	0.486258	0.112513	0.127298
	C142	C	0.503991	0.869922	0.124854
	C143	C	0.487063	0.869943	0.881755
	C144	C	0.372765	0.878797	0.682980
	C145	C	0.619717	0.104231	0.687050
	C146	C	0.617949	0.877611	0.324194
	C147	C	0.371911	0.102001	0.322656
	C148	C	0.674677	0.367307	0.892225
	C149	C	0.677305	0.616926	0.113584
	C150	C	0.313684	0.613831	0.891766
	C151	C	0.313080	0.369406	0.114103
	C152	C	0.882324	0.670274	0.381751
	C153	C	0.108814	0.669337	0.623153
	C154	C	0.882750	0.311942	0.621845
	C155	C	0.108951	0.313668	0.382178
	C156	C	0.883929	0.365867	0.683292
	C157	C	0.107775	0.613925	0.683402
	C158	C	0.883130	0.615059	0.321728
	C159	C	0.107644	0.369568	0.322346
	C160	C	0.372773	0.670518	0.891637
	C161	C	0.616722	0.671668	0.115116
	C162	C	0.615392	0.309778	0.892462
	C163	C	0.371354	0.311967	0.114849
	C164	C	0.673566	0.877115	0.383171
	C165	C	0.675823	0.104822	0.628298
	C166	C	0.317788	0.877575	0.623744
	C167	C	0.317110	0.103294	0.382422
	C168	C	0.871300	0.379569	0.181570
	C169	C	0.116591	0.605628	0.182041
	C170	C	0.118286	0.378104	0.822104
	C171	C	0.872464	0.603701	0.822239
	C172	C	0.174650	0.868527	0.392209
	C173	C	0.177821	0.115301	0.614929
	C174	C	0.813367	0.113374	0.393186
	C175	C	0.813813	0.867351	0.615475
	C176	C	0.380624	0.169254	0.883553
	C177	C	0.606760	0.172536	0.127769
	C178	C	0.382489	0.811718	0.123320
	C179	C	0.608177	0.812153	0.883165
	C180	C	0.383961	0.866176	0.183773
	C181	C	0.606873	0.115212	0.186291
	C182	C	0.382404	0.114766	0.822734
	C183	C	0.607089	0.867347	0.823062
	C184	C	0.874297	0.168405	0.391449
	C185	C	0.118737	0.172207	0.615269
	C186	C	0.114560	0.812714	0.391038
	C187	C	0.872505	0.809824	0.615118
	C188	C	0.174745	0.378154	0.880138
	C189	C	0.172913	0.606322	0.123410
	C190	C	0.815252	0.379556	0.123126
	C191	C	0.816157	0.604755	0.880301
	C192	C	0.400544	0.085227	0.601272
	C193	C	0.590657	0.898499	0.601712
	C194	C	0.589843	0.083452	0.408474
	C195	C	0.398857	0.896325	0.406020
	C196	C	0.593260	0.396294	0.094583
	C197	C	0.592704	0.588640	0.911439
	C198	C	0.396168	0.589329	0.095204
	C199	C	0.396033	0.393448	0.911593
	C200	C	0.088018	0.587962	0.404536
	C201	C	0.902936	0.586074	0.600858
	C202	C	0.088128	0.396205	0.601151
	C203	C	0.902442	0.393532	0.403174
	C204	C	0.900384	0.585728	0.099758
	C205	C	0.091396	0.398259	0.099608
	C206	C	0.090909	0.584418	0.905890
	C207	C	0.898347	0.397991	0.905156
	C208	C	0.094364	0.893933	0.595664
	C209	C	0.095246	0.088647	0.411988
	C210	C	0.898146	0.088398	0.595479
	C211	C	0.895913	0.893761	0.412883
	C212	C	0.585580	0.086387	0.908896
	C213	C	0.402218	0.086825	0.102908
	C214	C	0.588295	0.895467	0.101700
	C215	C	0.403142	0.895555	0.905602
	Zn216	Zn	0.495119	-0.007947	0.753746
	Zn217	Zn	0.495455	-0.010174	0.254296
	Zn218	Zn	0.746977	0.492977	0.002464
	Zn219	Zn	0.243039	0.491556	0.002599
	Zn220	Zn	-0.004725	0.740067	0.502981
	Zn221	Zn	-0.003532	0.241600	0.502811
	Zn222	Zn	-0.004993	0.490504	0.753795
	Zn223	Zn	-0.005204	0.491958	0.251754
	Zn224	Zn	0.495246	0.741629	0.003432
	Zn225	Zn	0.493432	0.240556	0.004799
	Zn226	Zn	0.743255	-0.008924	0.504888
	Zn227	Zn	0.247873	-0.009421	0.504166
	N228	N	0.407746	0.956102	0.683940
	N229	N	0.583663	0.027376	0.686406
	N230	N	0.582094	0.954335	0.324588
	N231	N	0.406833	0.024825	0.322353
	N232	N	0.675767	0.404203	0.967316
	N233	N	0.677501	0.581299	0.037888
	N234	N	0.313276	0.579139	0.967482
	N235	N	0.313233	0.404441	0.038426
	N236	N	0.958087	0.668491	0.418098
	N237	N	0.032690	0.668182	0.587473
	N238	N	0.958404	0.314585	0.586058
	N239	N	0.032745	0.313376	0.417097
	N240	N	0.960528	0.401410	0.685099
	N241	N	0.030893	0.579007	0.684635
	N242	N	0.959534	0.579725	0.321185
	N243	N	0.030538	0.403330	0.320610
	N244	N	0.408817	0.670199	0.966958
	N245	N	0.580158	0.669788	0.040139
	N246	N	0.580480	0.311011	0.967934
	N247	N	0.406861	0.311933	0.039643
	N248	N	0.671803	0.953388	0.419759
	N249	N	0.673793	0.028414	0.591585
	N250	N	0.319553	0.954359	0.588243
	N251	N	0.318539	0.027101	0.418499
	N252	N	0.907615	0.456245	0.181856
	N253	N	0.081603	0.528272	0.182061
	N254	N	0.082149	0.454688	0.822936
	N255	N	0.907400	0.526683	0.822307
	N256	N	0.176357	0.903366	0.468286
	N257	N	0.178363	0.079250	0.539494
	N258	N	0.812952	0.079381	0.469310
	N259	N	0.813328	0.903131	0.540318
	N260	N	0.455686	0.166982	0.921463
	N261	N	0.530627	0.171022	0.092175
	N262	N	0.458133	0.814072	0.087473
	N263	N	0.532429	0.813500	0.918840
	N264	N	0.460694	0.901513	0.184980
	N265	N	0.530726	0.078608	0.186073
	N266	N	0.458798	0.079505	0.823204
	N267	N	0.530583	0.902587	0.822023
	N268	N	0.911271	0.168063	0.466333
	N269	N	0.082901	0.170971	0.539912
	N270	N	0.079570	0.813257	0.466474
	N271	N	0.908121	0.810719	0.539920
	N272	N	0.173182	0.454688	0.916509
	N273	N	0.172214	0.529508	0.087499
	N274	N	0.817612	0.456066	0.087529
	N275	N	0.816787	0.528315	0.915949
	O276	O	0.377109	0.483085	0.463086
	H277	H	0.387454	0.484772	0.457407
	H278	H	0.386378	0.477792	0.465093
	O279	O	0.609697	0.405692	0.325464
	H280	H	0.615251	0.401394	0.333095
	H281	H	0.604981	0.383863	0.326944
	O282	O	0.549214	0.648540	0.704708
	H283	H	0.553191	0.658763	0.710612
	H284	H	0.529970	0.658546	0.706575
	O285	O	1.008436	-0.191779	0.048742
	H286	H	1.014081	-0.191657	0.032890
	H287	H	1.008627	-0.194048	0.039369
	O288	O	-0.553973	0.471399	0.383070
	H289	H	-0.551114	0.459710	0.376524
	H290	H	-0.544871	0.474646	0.365302
	O291	O	0.495598	0.488821	0.666319
	H292	H	0.495967	0.505423	0.670626
	H293	H	0.480531	0.478588	0.650146
	O294	O	0.627568	0.661640	0.545932
	H295	H	0.623653	0.675376	0.552002
	H296	H	0.627675	0.664974	0.528686
	O297	O	1.193766	1.087238	1.133784
	H298	H	1.212460	1.107902	1.139966
	H299	H	1.184686	1.082000	1.124978
	O300	O	-0.054089	0.133865	0.068547
	H301	H	-0.052264	0.150911	0.064487
	H302	H	-0.065834	0.129367	0.063137
	O303	O	0.411376	0.665247	0.322610
	H304	H	0.425242	0.670433	0.322510
	H305	H	0.401193	0.669751	0.310134
	O306	O	1.074125	0.172133	-0.021151
	H307	H	1.066719	0.153141	-0.024558
	H308	H	1.078320	0.184418	-0.014276
	O309	O	0.655109	0.593941	0.668931
	H310	H	0.671955	0.588500	0.680552
	H311	H	0.637503	0.603211	0.663338
	O312	O	0.930568	1.061431	0.078726
	H313	H	0.933624	1.049891	0.084916
	H314	H	0.939475	1.059951	0.094691
	O315	O	0.478071	0.407968	0.332785
	H316	H	0.484776	0.408506	0.322076
	H317	H	0.468452	0.411955	0.335387
	O318	O	1.079082	0.837375	-0.195612
	H319	H	1.079636	0.834566	-0.194046
	H320	H	1.053134	0.839938	-0.207215
	O321	O	1.637672	-0.462415	1.530247
	H322	H	1.641727	-0.469117	1.548226
	H323	H	1.645712	-0.445274	1.517581
	O324	O	0.070252	0.044035	1.078046
	H325	H	0.070594	0.054557	1.083331
	H326	H	0.071338	0.044240	1.071155
	O327	O	0.699345	0.513464	0.348867
	H328	H	0.700451	0.486466	0.343797
	H329	H	0.713402	0.500071	0.334975
	O330	O	0.439572	0.445348	0.321673
	H331	H	0.432279	0.425908	0.318352
	H332	H	0.451609	0.457506	0.323322
	O333	O	0.606169	1.359402	0.513839
	H334	H	0.615488	1.356962	0.502878
	H335	H	0.598281	1.362285	0.516774
	O336	O	0.968955	-0.052266	1.190889
	H337	H	0.973579	-0.056574	1.205000
	H338	H	0.973950	-0.050507	1.174376
	O339	O	0.858072	-0.003783	1.001322
	H340	H	0.856110	-0.019755	1.002955
	H341	H	0.859756	-0.009435	0.998732
	O342	O	-0.169918	1.062359	1.065430
	H343	H	-0.169068	1.068895	1.073815
	H344	H	-0.158266	1.072853	1.067736
	O345	O	0.199723	0.907669	0.984306
	H346	H	0.195737	0.920292	0.978119
	H347	H	0.205223	0.894814	0.973857
	O348	O	1.093663	1.024017	-0.007016
	H349	H	1.091587	1.016475	-0.009179
	H350	H	1.094372	1.022493	-0.017988
	O351	O	-0.051102	-0.109150	0.166534
	H352	H	-0.049612	-0.110029	0.170330
	H353	H	-0.047161	-0.107174	0.160216
	O354	O	0.926945	0.823995	0.080678
	H355	H	0.908963	0.824839	0.096632
	H356	H	0.922429	0.818150	0.079810
	O357	O	0.005258	1.016954	-0.057033
	H358	H	-0.004895	1.013526	-0.062282
	H359	H	0.010671	1.030040	-0.059990
	O360	O	0.302062	0.564054	0.407749
	H361	H	0.295107	0.557017	0.404985
	H362	H	0.291691	0.570786	0.395014
	O363	O	0.363839	0.635243	0.604822
	H364	H	0.369604	0.627687	0.582397
	H365	H	0.358517	0.650130	0.585812
	O366	O	0.493255	0.679880	0.522208
	H367	H	0.489931	0.671800	0.518570
	H368	H	0.508329	0.692648	0.522965
	O369	O	0.541180	0.343524	0.418172
	H370	H	0.558914	0.339339	0.417309
	H371	H	0.537702	0.341051	0.409317
	O372	O	-0.185868	1.176717	-0.111088
	H373	H	-0.172380	1.173178	-0.118295
	H374	H	-0.197506	1.192688	-0.109780
	O375	O	0.461026	0.438980	0.687659
	H376	H	0.458599	0.447315	0.701360
	H377	H	0.470004	0.446087	0.681838
	O378	O	0.476477	0.357222	0.664277
	H379	H	0.464681	0.355772	0.654413
	H380	H	0.470158	0.355880	0.666172
	O381	O	0.637371	0.622094	0.694791
	H382	H	0.613442	0.619899	0.694924
	H383	H	0.647426	0.623679	0.688543
	O384	O	0.076346	0.894417	1.111882
	H385	H	0.073029	0.892307	1.099392
	H386	H	0.085647	0.902371	1.112775
	O387	O	1.621844	0.402549	0.506035
	H388	H	1.607976	0.394955	0.512447
	H389	H	1.620150	0.425921	0.522287
	O390	O	0.386750	0.540050	0.355095
	H391	H	0.375580	0.533173	0.355210
	H392	H	0.387216	0.556990	0.348745
	O393	O	0.817027	0.044616	0.808564
	H394	H	0.823116	0.054326	0.800139
	H395	H	0.799478	0.042787	0.803595
	O396	O	0.025317	0.887981	0.865233
	H397	H	0.030693	0.891560	0.860294
	H398	H	0.013957	0.882241	0.862060
	O399	O	0.338596	0.346157	0.542167
	H400	H	0.330032	0.331320	0.537955
	H401	H	0.352695	0.343841	0.532655
	O402	O	0.999017	0.162820	0.841802
	H403	H	0.998029	0.164117	0.859702
	H404	H	1.008653	0.164474	0.832361
	O405	O	-0.057821	-0.004717	-0.038288
	H406	H	-0.062312	0.008590	-0.043177
	H407	H	-0.055493	-0.007193	-0.036421
	O408	O	1.190158	1.181843	1.184579
	H409	H	1.178824	1.156134	1.188175
	H410	H	1.193384	1.175210	1.155273
	O411	O	1.158944	0.943632	-0.203020
	H412	H	1.170964	0.926534	-0.223590
	H413	H	1.145712	0.930054	-0.208021
	O414	O	-0.071802	0.079747	0.973091
	H415	H	-0.066213	0.081799	0.974341
	H416	H	-0.055962	0.077521	0.957190
	O417	O	0.672984	0.351059	0.390305
	H418	H	0.667344	0.344065	0.404592
	H419	H	0.680626	0.351634	0.403183
	O420	O	0.031043	0.925198	0.152097
	H421	H	0.028990	0.928154	0.148861
	H422	H	0.029851	0.927470	0.138603
	O423	O	0.403743	0.398171	-0.383104
	H424	H	0.403616	0.387090	-0.399109
	H425	H	0.401292	0.393078	-0.391064
	O426	O	-0.062121	-0.183294	0.935521
	H427	H	-0.070858	-0.191208	0.952023
	H428	H	-0.076625	-0.168961	0.939948
	O429	O	0.318035	0.445853	0.570970
	H430	H	0.319077	0.446553	0.579296
	H431	H	0.324220	0.440374	0.572036
